# generated using pymatgen
data_AgSbTe2
_symmetry_space_group_name_H-M   'P 1'
_cell_length_a   18.32227440
_cell_length_b   18.32243891
_cell_length_c   18.32275943
_cell_angle_alpha   90.00151310
_cell_angle_beta   89.99922614
_cell_angle_gamma   89.99933880
_symmetry_Int_Tables_number   1
_chemical_formula_structural   AgSbTe2
_chemical_formula_sum   'Ag54 Sb54 Te108'
_cell_volume   6151.11072321
_cell_formula_units_Z   54
loop_
 _symmetry_equiv_pos_site_id
 _symmetry_equiv_pos_as_xyz
  1  'x, y, z'
loop_
 _atom_site_type_symbol
 _atom_site_label
 _atom_site_symmetry_multiplicity
 _atom_site_fract_x
 _atom_site_fract_y
 _atom_site_fract_z
 _atom_site_occupancy
  Ag  Ag0  1  0.16477787  0.16100721  0.00338032  1
  Ag  Ag1  1  0.00423633  0.49916398  0.49388481  1
  Ag  Ag2  1  0.66707092  0.17181418  0.84506648  1
  Ag  Ag3  1  0.49794375  0.82814848  0.67606711  1
  Ag  Ag4  1  0.16717110  -0.00005936  0.83802559  1
  Ag  Ag5  1  0.33290533  0.32764200  0.00286607  1
  Ag  Ag6  1  0.49585824  0.83210123  0.32129338  1
  Ag  Ag7  1  0.16417186  0.84037271  0.00263668  1
  Ag  Ag8  1  0.33521169  0.50061529  0.83564568  1
  Ag  Ag9  1  0.49933879  0.16146520  0.00232192  1
  Ag  Ag10  1  0.65963947  0.17150187  0.16194975  1
  Ag  Ag11  1  0.16691146  0.49878356  0.66340685  1
  Ag  Ag12  1  0.83799702  0.66412819  0.49948219  1
  Ag  Ag13  1  0.16503095  0.83188027  0.32426242  1
  Ag  Ag14  1  0.33409890  0.00582578  0.67706665  1
  Ag  Ag15  1  0.49446505  0.32800367  0.16639066  1
  Ag  Ag16  1  0.00351940  0.66120809  0.33183549  1
  Ag  Ag17  1  0.49688406  0.16618683  0.67414486  1
  Ag  Ag18  1  0.00693772  0.33675435  0.66426683  1
  Ag  Ag19  1  0.65858266  0.82716174  0.16271916  1
  Ag  Ag20  1  0.66108267  0.49732263  0.16298935  1
  Ag  Ag21  1  0.16179844  0.49857654  0.33085930  1
  Ag  Ag22  1  0.17245157  0.33058319  0.16646423  1
  Ag  Ag23  1  0.49805559  0.83672862  0.00199160  1
  Ag  Ag24  1  0.84278008  0.49932520  0.32850260  1
  Ag  Ag25  1  0.00102227  0.17512946  0.49116038  1
  Ag  Ag26  1  0.00411917  0.00230939  0.00048835  1
  Ag  Ag27  1  0.32450900  0.49920664  0.49794313  1
  Ag  Ag28  1  0.33405423  0.49372152  0.16442596  1
  Ag  Ag29  1  -0.00088089  0.16539182  0.84416899  1
  Ag  Ag30  1  0.50244488  0.66663282  0.50110641  1
  Ag  Ag31  1  0.00170373  0.33391143  0.33424372  1
  Ag  Ag32  1  0.49752064  0.66577668  0.16528694  1
  Ag  Ag33  1  0.33288002  0.17335566  0.16201440  1
  Ag  Ag34  1  0.84223679  0.83428270  0.00034095  1
  Ag  Ag35  1  0.01090674  0.16790615  0.16336842  1
  Ag  Ag36  1  0.00033425  0.67376201  0.00074154  1
  Ag  Ag37  1  0.16846724  0.66175033  0.16764256  1
  Ag  Ag38  1  0.83648381  0.16707657  -0.00001926  1
  Ag  Ag39  1  0.67000437  0.33432822  0.32697948  1
  Ag  Ag40  1  0.66446378  0.49675900  0.84044940  1
  Ag  Ag41  1  0.32997147  0.33409069  0.67401045  1
  Ag  Ag42  1  0.00433742  0.01016297  0.32504707  1
  Ag  Ag43  1  0.33217686  0.83201406  0.83747770  1
  Ag  Ag44  1  0.50020273  0.66821978  0.83487841  1
  Ag  Ag45  1  0.15945307  0.16855493  0.32165089  1
  Ag  Ag46  1  -0.00049924  0.65944233  0.66622518  1
  Ag  Ag47  1  0.32686100  0.00522188  -0.00269317  1
  Ag  Ag48  1  0.00651789  0.83525931  0.84055092  1
  Ag  Ag49  1  0.49622058  0.16762248  0.32068954  1
  Ag  Ag50  1  0.65971106  0.66549478  0.66919122  1
  Ag  Ag51  1  0.83465311  0.33327639  0.83662114  1
  Ag  Ag52  1  0.66433555  0.00517930  0.00048419  1
  Ag  Ag53  1  0.83415751  0.49836859  0.00287809  1
  Sb  Sb54  1  0.33386919  0.16660904  0.84133728  1
  Sb  Sb55  1  0.66534284  0.33720549  0.66716066  1
  Sb  Sb56  1  0.00145161  0.82862312  0.50040004  1
  Sb  Sb57  1  0.49422144  0.50102362  0.66768907  1
  Sb  Sb58  1  0.83250583  0.16864824  0.67378132  1
  Sb  Sb59  1  0.83936885  0.00436937  0.83812379  1
  Sb  Sb60  1  0.83760017  0.33735660  0.50106977  1
  Sb  Sb61  1  0.66920014  0.50211854  0.49828105  1
  Sb  Sb62  1  0.49936559  0.00404039  0.16342813  1
  Sb  Sb63  1  0.00089878  0.49891240  0.83260818  1
  Sb  Sb64  1  0.16622265  0.00392899  0.15945726  1
  Sb  Sb65  1  0.00182261  0.83497524  0.16099260  1
  Sb  Sb66  1  0.66836890  0.66287589  0.33256402  1
  Sb  Sb67  1  0.83469282  0.00141847  0.16236812  1
  Sb  Sb68  1  0.16552612  0.33097741  0.83865758  1
  Sb  Sb69  1  0.00622829  0.00261361  0.67210362  1
  Sb  Sb70  1  0.16816209  0.66825802  0.83888990  1
  Sb  Sb71  1  0.83851455  0.50094922  0.66761240  1
  Sb  Sb72  1  0.83834640  0.17275961  0.32527375  1
  Sb  Sb73  1  0.83527101  0.66390657  0.16721532  1
  Sb  Sb74  1  0.16722018  0.00083955  0.50206207  1
  Sb  Sb75  1  0.00288889  0.49603960  0.17100377  1
  Sb  Sb76  1  0.32976881  0.66622462  0.33114332  1
  Sb  Sb77  1  0.66405670  0.83321464  0.84141935  1
  Sb  Sb78  1  0.16548623  0.66330412  0.49513104  1
  Sb  Sb79  1  0.49738561  0.33673808  0.49504276  1
  Sb  Sb80  1  0.49765336  0.50079802  0.32964096  1
  Sb  Sb81  1  0.83612019  0.82795274  0.32503414  1
  Sb  Sb82  1  0.82980098  0.82984832  0.67435578  1
  Sb  Sb83  1  0.16612885  0.33466569  0.49290971  1
  Sb  Sb84  1  0.49890759  -0.00261421  0.50045423  1
  Sb  Sb85  1  0.49266900  -0.00387205  0.83799834  1
  Sb  Sb86  1  0.16996328  0.82942134  0.67173877  1
  Sb  Sb87  1  0.66256885  0.32767683  0.00542340  1
  Sb  Sb88  1  0.66452077  0.83045319  0.49444645  1
  Sb  Sb89  1  0.33473584  0.82838050  0.50414178  1
  Sb  Sb90  1  0.32982760  0.17242004  0.49716820  1
  Sb  Sb91  1  0.66930068  0.00442036  0.32402918  1
  Sb  Sb92  1  0.00255702  0.32895135  0.00207162  1
  Sb  Sb93  1  0.50158630  0.50105391  0.00199731  1
  Sb  Sb94  1  0.33025924  0.33363556  0.32633547  1
  Sb  Sb95  1  0.66974218  0.16810342  0.49690990  1
  Sb  Sb96  1  0.32808791  0.00188229  0.32788076  1
  Sb  Sb97  1  0.83731196  -0.00354845  0.49721580  1
  Sb  Sb98  1  0.66877877  0.66857851  -0.00083987  1
  Sb  Sb99  1  0.65803725  -0.00302646  0.67841391  1
  Sb  Sb100  1  0.16446518  0.49983620  0.00404994  1
  Sb  Sb101  1  0.33532886  0.83348643  0.16006914  1
  Sb  Sb102  1  0.83119483  0.66212621  0.83302411  1
  Sb  Sb103  1  0.83270909  0.33355804  0.16225153  1
  Sb  Sb104  1  0.33110690  0.66731192  0.00098135  1
  Sb  Sb105  1  0.33308471  0.66274142  0.66841241  1
  Sb  Sb106  1  0.50099656  0.33415086  0.83880981  1
  Sb  Sb107  1  0.16927476  0.17196967  0.66987501  1
  Te  Te108  1  0.16859912  0.16688718  0.16503625  1
  Te  Te109  1  0.16079155  0.16716455  0.49433311  1
  Te  Te110  1  0.16315360  0.16357021  0.83742528  1
  Te  Te111  1  0.16976942  0.50011010  0.16862110  1
  Te  Te112  1  0.16535752  0.50024498  0.49844786  1
  Te  Te113  1  0.17264387  0.49990075  0.83232356  1
  Te  Te114  1  0.16876914  0.82801664  0.16515468  1
  Te  Te115  1  0.16806913  0.83237995  0.49010097  1
  Te  Te116  1  0.16783501  0.83467868  0.83674350  1
  Te  Te117  1  0.49993671  0.16782922  0.16390109  1
  Te  Te118  1  0.49976596  0.16689843  0.49883643  1
  Te  Te119  1  0.50257732  0.16665594  0.83536001  1
  Te  Te120  1  0.49961482  0.50170557  0.16647549  1
  Te  Te121  1  0.49816955  0.50568671  0.49867399  1
  Te  Te122  1  0.49996735  0.50348664  0.83483571  1
  Te  Te123  1  0.49857386  0.83090359  0.16420184  1
  Te  Te124  1  0.49907703  0.82706766  0.49964800  1
  Te  Te125  1  0.49861501  0.83005428  0.83576620  1
  Te  Te126  1  0.82635330  0.16745508  0.15922373  1
  Te  Te127  1  0.84034535  0.16573227  0.49990070  1
  Te  Te128  1  0.83345476  0.17030345  0.83873311  1
  Te  Te129  1  0.82731541  0.49967704  0.16498618  1
  Te  Te130  1  0.83731061  0.50396759  0.49660737  1
  Te  Te131  1  0.83049631  0.49552377  0.83717768  1
  Te  Te132  1  0.82433722  0.83167634  0.15848752  1
  Te  Te133  1  0.83253467  0.82520170  0.49947420  1
  Te  Te134  1  0.83618904  0.83313886  0.84177528  1
  Te  Te135  1  0.16552650  0.00019560  -0.00173154  1
  Te  Te136  1  0.16255369  0.00077557  0.33470124  1
  Te  Te137  1  0.17444318  -0.00081628  0.67285480  1
  Te  Te138  1  0.17171342  0.32996683  0.00601307  1
  Te  Te139  1  0.16423653  0.33224692  0.32710192  1
  Te  Te140  1  0.16622013  0.33717042  0.66854749  1
  Te  Te141  1  0.16159786  0.66942654  0.00562593  1
  Te  Te142  1  0.16382374  0.66589248  0.32932999  1
  Te  Te143  1  0.16073101  0.66210192  0.66623365  1
  Te  Te144  1  0.50012725  -0.00049778  -0.00035753  1
  Te  Te145  1  0.50017427  -0.00049119  0.33438821  1
  Te  Te146  1  0.49424906  0.00050931  0.66741974  1
  Te  Te147  1  0.49385709  0.32925205  0.00568898  1
  Te  Te148  1  0.50071874  0.32976164  0.32838818  1
  Te  Te149  1  0.49691023  0.32888720  0.66564510  1
  Te  Te150  1  0.50061898  0.67071563  0.00079251  1
  Te  Te151  1  0.50058331  0.67046408  0.32956716  1
  Te  Te152  1  0.49972072  0.66771606  0.66925739  1
  Te  Te153  1  0.83854599  0.00068872  -0.00125063  1
  Te  Te154  1  0.84300878  -0.00175413  0.33261529  1
  Te  Te155  1  0.83186434  -0.00121534  0.66623501  1
  Te  Te156  1  0.83391166  0.33336375  -0.00398146  1
  Te  Te157  1  0.83636129  0.33938296  0.33401105  1
  Te  Te158  1  0.83692066  0.33338407  0.67230653  1
  Te  Te159  1  0.83853532  0.66605973  -0.00023892  1
  Te  Te160  1  0.83746802  0.66177767  0.33653493  1
  Te  Te161  1  0.83789268  0.66716296  0.66231763  1
  Te  Te162  1  0.00090104  0.16747470  0.00213306  1
  Te  Te163  1  -0.00018808  0.16917419  0.33020320  1
  Te  Te164  1  0.00135967  0.17025455  0.66787240  1
  Te  Te165  1  -0.00446510  0.50217480  0.00079384  1
  Te  Te166  1  0.00128632  0.49944255  0.33244244  1
  Te  Te167  1  0.00366603  0.49923197  0.66591739  1
  Te  Te168  1  0.00226748  0.83491575  0.00039322  1
  Te  Te169  1  0.00288824  0.82863866  0.33203420  1
  Te  Te170  1  -0.00033338  0.83252361  0.67212830  1
  Te  Te171  1  0.33361563  0.16610901  0.00052640  1
  Te  Te172  1  0.33559273  0.16643528  0.32969220  1
  Te  Te173  1  0.33596557  0.16926925  0.66530307  1
  Te  Te174  1  0.33298138  0.49724336  0.00059028  1
  Te  Te175  1  0.32737074  0.49911709  0.33210508  1
  Te  Te176  1  0.32888955  0.49651296  0.67087886  1
  Te  Te177  1  0.33351362  0.83464238  -0.00323572  1
  Te  Te178  1  0.33470309  0.83586521  0.33350694  1
  Te  Te179  1  0.33687582  0.83456938  0.67171459  1
  Te  Te180  1  0.66469205  0.16719449  0.00092474  1
  Te  Te181  1  0.66657037  0.16957277  0.32847389  1
  Te  Te182  1  0.66032564  0.16671507  0.66720504  1
  Te  Te183  1  0.66985295  0.49980665  -0.00010722  1
  Te  Te184  1  0.66756094  0.49595733  0.32995710  1
  Te  Te185  1  0.66724235  0.50462163  0.66993140  1
  Te  Te186  1  0.66105664  0.83551678  0.00361407  1
  Te  Te187  1  0.66390647  0.83515509  0.32476575  1
  Te  Te188  1  0.66033926  0.82876126  0.66805811  1
  Te  Te189  1  0.00008717  0.00475345  0.16567860  1
  Te  Te190  1  0.00054455  0.00192079  0.49918779  1
  Te  Te191  1  0.00525150  0.00063210  0.83678097  1
  Te  Te192  1  0.00196702  0.32858344  0.17084983  1
  Te  Te193  1  0.00031536  0.33567279  0.50096155  1
  Te  Te194  1  -0.00184063  0.33055348  0.83093282  1
  Te  Te195  1  0.00313409  0.66703257  0.16674899  1
  Te  Te196  1  -0.00042733  0.66343043  0.50026318  1
  Te  Te197  1  -0.00028389  0.66839445  0.83426352  1
  Te  Te198  1  0.33289524  0.00840380  0.15987960  1
  Te  Te199  1  0.33342878  0.00126175  0.50751893  1
  Te  Te200  1  0.32855382  -0.00078046  0.83650737  1
  Te  Te201  1  0.33405221  0.33379601  0.16550129  1
  Te  Te202  1  0.33333349  0.34034162  0.50956021  1
  Te  Te203  1  0.33358899  0.33747312  0.83471919  1
  Te  Te204  1  0.33494376  0.66128030  0.16610709  1
  Te  Te205  1  0.33879018  0.65974589  0.50007963  1
  Te  Te206  1  0.33762850  0.66604353  0.83451600  1
  Te  Te207  1  0.66779978  0.00360665  0.16002224  1
  Te  Te208  1  0.66864892  -0.00050181  0.50185689  1
  Te  Te209  1  0.66828260  0.00659633  0.84117187  1
  Te  Te210  1  0.66573873  0.33563491  0.16884268  1
  Te  Te211  1  0.66740219  0.33407373  0.49163880  1
  Te  Te212  1  0.66861982  0.33445929  0.83166458  1
  Te  Te213  1  0.66223894  0.66362257  0.16661390  1
  Te  Te214  1  0.66380488  0.66659689  0.50516930  1
  Te  Te215  1  0.66333238  0.66369058  0.83038567  1
