# generated using pymatgen
data_AgSbTe2
_symmetry_space_group_name_H-M   'P 1'
_cell_length_a   18.31894069
_cell_length_b   18.32549153
_cell_length_c   18.32323894
_cell_angle_alpha   90.00163176
_cell_angle_beta   90.00215752
_cell_angle_gamma   89.99840237
_symmetry_Int_Tables_number   1
_chemical_formula_structural   AgSbTe2
_chemical_formula_sum   'Ag54 Sb54 Te108'
_cell_volume   6151.17712540
_cell_formula_units_Z   54
loop_
 _symmetry_equiv_pos_site_id
 _symmetry_equiv_pos_as_xyz
  1  'x, y, z'
loop_
 _atom_site_type_symbol
 _atom_site_label
 _atom_site_symmetry_multiplicity
 _atom_site_fract_x
 _atom_site_fract_y
 _atom_site_fract_z
 _atom_site_occupancy
  Ag  Ag0  1  0.33330261  0.66815815  0.65785113  1
  Ag  Ag1  1  0.00139801  0.66975014  0.32638475  1
  Ag  Ag2  1  0.32827252  0.00109103  0.33321449  1
  Ag  Ag3  1  0.66888598  0.67221036  0.32724376  1
  Ag  Ag4  1  0.32355150  0.00451145  0.00441778  1
  Ag  Ag5  1  0.33365725  0.32593668  0.00171120  1
  Ag  Ag6  1  0.16538041  0.00071166  0.16830422  1
  Ag  Ag7  1  0.16478571  0.16038130  0.00318352  1
  Ag  Ag8  1  0.17207907  0.15879198  0.32998705  1
  Ag  Ag9  1  0.00054608  0.83094541  0.16886290  1
  Ag  Ag10  1  0.16660074  0.00018564  0.49256082  1
  Ag  Ag11  1  0.66761990  0.48753132  0.83539296  1
  Ag  Ag12  1  0.50607353  0.17040660  0.66589667  1
  Ag  Ag13  1  0.66491894  0.83207162  0.49146130  1
  Ag  Ag14  1  0.00325425  0.32534722  -0.00030135  1
  Ag  Ag15  1  0.66352465  0.32507560  0.67694710  1
  Ag  Ag16  1  0.16799459  0.66655308  0.83953934  1
  Ag  Ag17  1  0.00567054  0.00863715  -0.00055614  1
  Ag  Ag18  1  0.33044154  0.83364060  0.49282224  1
  Ag  Ag19  1  0.33106187  0.16587053  0.49442928  1
  Ag  Ag20  1  0.17135331  0.83931550  0.33097151  1
  Ag  Ag21  1  0.16754819  0.84144344  0.00533864  1
  Ag  Ag22  1  0.49133681  0.16692429  0.33408409  1
  Ag  Ag23  1  -0.00446103  0.16596436  0.83929136  1
  Ag  Ag24  1  0.00628165  0.83423769  0.49221756  1
  Ag  Ag25  1  0.83610214  0.00932551  0.83258724  1
  Ag  Ag26  1  0.66693299  0.32914464  -0.00536268  1
  Ag  Ag27  1  0.33493274  0.32044874  0.33326061  1
  Ag  Ag28  1  0.83800286  0.66714443  0.49386768  1
  Ag  Ag29  1  0.49712914  0.32941790  0.49784441  1
  Ag  Ag30  1  0.00328644  0.50371416  0.49635298  1
  Ag  Ag31  1  0.50104708  0.49056242  0.66504716  1
  Ag  Ag32  1  0.67088656  0.66350909  0.00434928  1
  Ag  Ag33  1  -0.00202993  0.00415332  0.67112585  1
  Ag  Ag34  1  -0.00068914  0.16378455  0.15729677  1
  Ag  Ag35  1  0.48919665  0.83539890  0.33358760  1
  Ag  Ag36  1  0.67172903  0.00908202  0.66725664  1
  Ag  Ag37  1  0.82698626  0.16512831  0.67111471  1
  Ag  Ag38  1  0.50005679  0.32800089  0.16618966  1
  Ag  Ag39  1  0.49572733  0.16981921  0.00435267  1
  Ag  Ag40  1  0.66773411  0.16412001  0.15991216  1
  Ag  Ag41  1  0.67091338  0.83379711  0.17120618  1
  Ag  Ag42  1  0.32651308  0.67003537  0.00080087  1
  Ag  Ag43  1  0.83677781  0.66741139  0.16895880  1
  Ag  Ag44  1  0.00168597  0.66684718  0.00697873  1
  Ag  Ag45  1  -0.00144027  0.51033979  0.16349077  1
  Ag  Ag46  1  0.32989470  0.83064474  0.83936037  1
  Ag  Ag47  1  0.16292633  0.33176630  0.83898594  1
  Ag  Ag48  1  0.83495978  0.50019649  -0.00087248  1
  Ag  Ag49  1  0.67367180  0.17059850  0.83476365  1
  Ag  Ag50  1  0.33126926  0.67622712  0.33565681  1
  Ag  Ag51  1  0.00662038  0.16114419  0.49920284  1
  Ag  Ag52  1  0.33081176  0.50219877  0.49908893  1
  Ag  Ag53  1  0.83032085  0.32747822  0.83643662  1
  Sb  Sb54  1  0.66883124  0.00358672  -0.00219513  1
  Sb  Sb55  1  0.00762832  0.33410403  0.32812219  1
  Sb  Sb56  1  0.50212789  0.33142806  0.83446555  1
  Sb  Sb57  1  0.83358008  0.83866585  0.66537845  1
  Sb  Sb58  1  0.16283823  0.49948739  0.00074601  1
  Sb  Sb59  1  0.33224826  0.16413571  0.83463346  1
  Sb  Sb60  1  0.83169322  0.33523828  0.15949028  1
  Sb  Sb61  1  0.83715767  0.66568627  0.83616665  1
  Sb  Sb62  1  0.16725758  0.50339373  0.33368179  1
  Sb  Sb63  1  0.00813967  -0.00433936  0.33089271  1
  Sb  Sb64  1  0.32852265  0.49973968  0.16993793  1
  Sb  Sb65  1  0.65811945  -0.00526322  0.33628743  1
  Sb  Sb66  1  0.49733635  0.49833397  0.33670953  1
  Sb  Sb67  1  0.50289663  0.49408796  -0.00271188  1
  Sb  Sb68  1  0.16334343  0.00148497  0.83833166  1
  Sb  Sb69  1  -0.00306306  0.49454417  0.83619347  1
  Sb  Sb70  1  0.49408321  0.00491960  0.49922232  1
  Sb  Sb71  1  0.49517209  0.66665924  0.83488879  1
  Sb  Sb72  1  0.50242772  0.00231248  0.83358974  1
  Sb  Sb73  1  0.66269253  0.66637437  0.66755454  1
  Sb  Sb74  1  0.67107695  0.50055069  0.16045290  1
  Sb  Sb75  1  0.83987065  -0.00194099  0.16081758  1
  Sb  Sb76  1  0.16038650  0.67383142  0.16325355  1
  Sb  Sb77  1  0.00575135  0.83777014  0.83767241  1
  Sb  Sb78  1  0.49862862  0.66490232  0.49833493  1
  Sb  Sb79  1  0.32956963  0.83343504  0.17013307  1
  Sb  Sb80  1  0.33172260  -0.00233642  0.66512336  1
  Sb  Sb81  1  0.65919294  0.33477263  0.33028056  1
  Sb  Sb82  1  0.83104139  0.33575172  0.50583566  1
  Sb  Sb83  1  0.16569311  0.67297568  0.49912865  1
  Sb  Sb84  1  0.66536449  0.50380779  0.50308741  1
  Sb  Sb85  1  0.49392162  0.83754278  0.00678814  1
  Sb  Sb86  1  0.17045423  0.32740396  0.50147950  1
  Sb  Sb87  1  0.83414955  0.50346161  0.32887862  1
  Sb  Sb88  1  0.33284073  0.16674176  0.16983605  1
  Sb  Sb89  1  0.49637647  0.00492369  0.16714153  1
  Sb  Sb90  1  0.84018225  -0.00374355  0.50469805  1
  Sb  Sb91  1  0.16999666  0.50069632  0.66559345  1
  Sb  Sb92  1  0.84075245  0.82874815  0.00133053  1
  Sb  Sb93  1  -0.00391011  0.32645020  0.67136033  1
  Sb  Sb94  1  0.33903138  0.33499354  0.66701730  1
  Sb  Sb95  1  0.16896806  0.32452680  0.16132939  1
  Sb  Sb96  1  0.33614655  0.50250257  0.83098278  1
  Sb  Sb97  1  0.83576965  0.16676989  0.33740152  1
  Sb  Sb98  1  0.66268964  0.83581222  0.83574481  1
  Sb  Sb99  1  0.83620772  0.17081713  -0.00631446  1
  Sb  Sb100  1  0.00414658  0.67113739  0.66567174  1
  Sb  Sb101  1  0.16695584  0.16501597  0.66776569  1
  Sb  Sb102  1  0.16738918  0.83484577  0.66621385  1
  Sb  Sb103  1  0.66504089  0.16173880  0.50210454  1
  Sb  Sb104  1  0.83023073  0.49604660  0.67010828  1
  Sb  Sb105  1  0.83716766  0.83267787  0.33350124  1
  Sb  Sb106  1  0.50382285  0.66497068  0.16782941  1
  Sb  Sb107  1  0.49867232  0.83638931  0.66001526  1
  Te  Te108  1  0.16254546  0.16185296  0.16515373  1
  Te  Te109  1  0.16770849  0.16373427  0.49981274  1
  Te  Te110  1  0.16399581  0.16909249  0.83782886  1
  Te  Te111  1  0.15680419  0.49623664  0.16848598  1
  Te  Te112  1  0.16691640  0.49908728  0.49980516  1
  Te  Te113  1  0.16661923  0.49917528  0.83287703  1
  Te  Te114  1  0.16245322  0.83845931  0.16671896  1
  Te  Te115  1  0.16708917  0.83634033  0.49815790  1
  Te  Te116  1  0.17156009  0.83096308  0.83738738  1
  Te  Te117  1  0.50313701  0.16820813  0.16619415  1
  Te  Te118  1  0.49842140  0.16897899  0.49706323  1
  Te  Te119  1  0.50363989  0.16617153  0.83255152  1
  Te  Te120  1  0.50013243  0.49072867  0.16701385  1
  Te  Te121  1  0.49694090  0.49512518  0.50410693  1
  Te  Te122  1  0.50602879  0.50018569  0.82712495  1
  Te  Te123  1  0.50849276  0.83351963  0.17417003  1
  Te  Te124  1  0.49802563  0.83439108  0.49368214  1
  Te  Te125  1  0.49037310  0.83455296  0.83386813  1
  Te  Te126  1  0.83399306  0.16660778  0.16861892  1
  Te  Te127  1  0.83911353  0.16693937  0.50610824  1
  Te  Te128  1  0.83377849  0.16777541  0.83155178  1
  Te  Te129  1  0.83950497  0.50427719  0.16131980  1
  Te  Te130  1  0.83693365  0.50419992  0.50121837  1
  Te  Te131  1  0.82894898  0.49743810  0.83719153  1
  Te  Te132  1  0.83370808  0.82893105  0.16656485  1
  Te  Te133  1  0.83444709  0.82802686  0.50026973  1
  Te  Te134  1  0.83268333  0.83695518  0.83331596  1
  Te  Te135  1  0.16600590  0.00033130  -0.00028837  1
  Te  Te136  1  0.16893482  0.00013839  0.33204764  1
  Te  Te137  1  0.16140347  0.00022130  0.66048321  1
  Te  Te138  1  0.16643723  0.33214893  -0.00194227  1
  Te  Te139  1  0.17579359  0.32712761  0.33297033  1
  Te  Te140  1  0.16632032  0.33348228  0.67635974  1
  Te  Te141  1  0.16652108  0.66597696  -0.00007111  1
  Te  Te142  1  0.16651919  0.67145259  0.33227649  1
  Te  Te143  1  0.17367791  0.66726087  0.67442094  1
  Te  Te144  1  0.49510632  0.00744379  0.00086873  1
  Te  Te145  1  0.49068856  0.00166322  0.33324663  1
  Te  Te146  1  0.50444639  0.00580024  0.66622730  1
  Te  Te147  1  0.49940029  0.32964419  0.00159766  1
  Te  Te148  1  0.49490582  0.33028341  0.33401898  1
  Te  Te149  1  0.50290412  0.33162557  0.66533746  1
  Te  Te150  1  0.50113899  0.66756378  0.00166334  1
  Te  Te151  1  0.49734450  0.66970821  0.33321574  1
  Te  Te152  1  0.49344684  0.66581305  0.66668103  1
  Te  Te153  1  0.83920005  -0.00312113  -0.00631914  1
  Te  Te154  1  0.83103372  0.00129685  0.33272826  1
  Te  Te155  1  0.83514027  0.00444543  0.67010888  1
  Te  Te156  1  0.83139968  0.33736509  -0.00383804  1
  Te  Te157  1  0.83219856  0.33505256  0.33468929  1
  Te  Te158  1  0.82678628  0.32891917  0.67284198  1
  Te  Te159  1  0.83280656  0.66319877  0.00082939  1
  Te  Te160  1  0.83524467  0.66656124  0.33309689  1
  Te  Te161  1  0.83333849  0.66574074  0.66328228  1
  Te  Te162  1  0.00027727  0.16720255  -0.00064045  1
  Te  Te163  1  0.00369054  0.16768802  0.33679604  1
  Te  Te164  1  0.00004996  0.16358932  0.66386887  1
  Te  Te165  1  -0.00325565  0.50415946  0.00068711  1
  Te  Te166  1  0.00074282  0.50384109  0.33520534  1
  Te  Te167  1  -0.00060668  0.50024383  0.66053895  1
  Te  Te168  1  0.00588691  0.82767290  0.00254332  1
  Te  Te169  1  0.00404748  0.83032923  0.33222909  1
  Te  Te170  1  -0.00008886  0.84043688  0.66105868  1
  Te  Te171  1  0.33259113  0.16659371  -0.00078288  1
  Te  Te172  1  0.33219999  0.16418452  0.33378077  1
  Te  Te173  1  0.33914248  0.16571236  0.66257594  1
  Te  Te174  1  0.33426125  0.50204363  0.00064375  1
  Te  Te175  1  0.33267211  0.50516944  0.33890988  1
  Te  Te176  1  0.33776549  0.50394914  0.66183403  1
  Te  Te177  1  0.33005722  0.83213648  0.00257942  1
  Te  Te178  1  0.33127830  0.83512472  0.33278855  1
  Te  Te179  1  0.33452000  0.82940312  0.66154823  1
  Te  Te180  1  0.66675206  0.16738538  0.00003082  1
  Te  Te181  1  0.66356200  0.16542650  0.33045918  1
  Te  Te182  1  0.66596328  0.16643966  0.66409314  1
  Te  Te183  1  0.66867050  0.50113101  -0.00338021  1
  Te  Te184  1  0.66585684  0.50951667  0.33276302  1
  Te  Te185  1  0.66243833  0.49808055  0.67132425  1
  Te  Te186  1  0.66358151  0.83313353  0.00433337  1
  Te  Te187  1  0.66649688  0.83069228  0.33269318  1
  Te  Te188  1  0.66498294  0.83644555  0.66525494  1
  Te  Te189  1  0.00318444  0.00027604  0.16276596  1
  Te  Te190  1  0.00349748  -0.00032732  0.49795147  1
  Te  Te191  1  -0.00191049  0.00280979  0.83398768  1
  Te  Te192  1  -0.00047486  0.32754703  0.16133447  1
  Te  Te193  1  0.00059986  0.33442326  0.49887989  1
  Te  Te194  1  -0.00181825  0.32933133  0.83779652  1
  Te  Te195  1  -0.00176346  0.66880786  0.16711922  1
  Te  Te196  1  -0.00002297  0.66869661  0.50094041  1
  Te  Te197  1  0.00566721  0.66689362  0.83480639  1
  Te  Te198  1  0.32858052  -0.00032908  0.16465458  1
  Te  Te199  1  0.32888285  -0.00057163  0.49982459  1
  Te  Te200  1  0.33219608  -0.00549979  0.83529208  1
  Te  Te201  1  0.33773827  0.33477851  0.16443056  1
  Te  Te202  1  0.33543629  0.33137551  0.49980108  1
  Te  Te203  1  0.32876241  0.33385853  0.83912041  1
  Te  Te204  1  0.33408854  0.66492101  0.16663371  1
  Te  Te205  1  0.33189892  0.66801450  0.49777777  1
  Te  Te206  1  0.32955090  0.66839171  0.84058766  1
  Te  Te207  1  0.66898019  0.00048295  0.16711434  1
  Te  Te208  1  0.66893326  -0.00700891  0.50443650  1
  Te  Te209  1  0.67160107  0.00379363  0.82966623  1
  Te  Te210  1  0.66394547  0.32935778  0.16286176  1
  Te  Te211  1  0.66226959  0.33437178  0.49947439  1
  Te  Te212  1  0.66625371  0.33012723  0.83503033  1
  Te  Te213  1  0.67048309  0.66726981  0.16556370  1
  Te  Te214  1  0.66874247  0.67110179  0.49920007  1
  Te  Te215  1  0.66765371  0.66857468  0.83843676  1
