# generated using pymatgen
data_AgSbTe2
_symmetry_space_group_name_H-M   'P 1'
_cell_length_a   18.33507851
_cell_length_b   18.33338543
_cell_length_c   18.33978842
_cell_angle_alpha   89.99576161
_cell_angle_beta   90.00085396
_cell_angle_gamma   89.99758687
_symmetry_Int_Tables_number   1
_chemical_formula_structural   AgSbTe2
_chemical_formula_sum   'Ag54 Sb54 Te108'
_cell_volume   6164.81093892
_cell_formula_units_Z   54
loop_
 _symmetry_equiv_pos_site_id
 _symmetry_equiv_pos_as_xyz
  1  'x, y, z'
loop_
 _atom_site_type_symbol
 _atom_site_label
 _atom_site_symmetry_multiplicity
 _atom_site_fract_x
 _atom_site_fract_y
 _atom_site_fract_z
 _atom_site_occupancy
  Ag  Ag0  1  0.34266245  0.16507230  0.83449745  1
  Ag  Ag1  1  0.50200172  0.82140356  0.00788823  1
  Ag  Ag2  1  0.34638397  0.66660744  0.00735748  1
  Ag  Ag3  1  0.50349209  0.16881002  0.67036340  1
  Ag  Ag4  1  0.50259065  0.82673856  0.33396873  1
  Ag  Ag5  1  0.50258236  0.82172111  0.65245595  1
  Ag  Ag6  1  0.17402713  0.50412318  0.66219441  1
  Ag  Ag7  1  0.50098069  -0.01060268  0.49695842  1
  Ag  Ag8  1  0.17057475  0.16969523  0.67050241  1
  Ag  Ag9  1  0.50015880  0.50652666  0.65870414  1
  Ag  Ag10  1  0.66494449  0.16579961  0.83620574  1
  Ag  Ag11  1  0.66612476  0.33575630  0.66548676  1
  Ag  Ag12  1  0.66712081  0.50955993  0.16805059  1
  Ag  Ag13  1  0.50093563  0.51041147  0.33396706  1
  Ag  Ag14  1  0.82214503  0.66670796  0.83531787  1
  Ag  Ag15  1  -0.00119600  0.33012585  0.00144073  1
  Ag  Ag16  1  0.82898515  0.00227930  0.84360489  1
  Ag  Ag17  1  0.82635713  0.34135594  0.49902812  1
  Ag  Ag18  1  0.17101361  0.66352998  0.48590587  1
  Ag  Ag19  1  0.34256419  -0.01371356  0.33208173  1
  Ag  Ag20  1  0.17173500  0.50779913  0.00504794  1
  Ag  Ag21  1  0.82061073  0.16943056  0.67004171  1
  Ag  Ag22  1  -0.00904735  0.00238211  0.00478470  1
  Ag  Ag23  1  0.17151994  0.16789621  0.00100298  1
  Ag  Ag24  1  -0.01619902  0.66614328  0.33013665  1
  Ag  Ag25  1  0.65987265  0.82939918  0.49505442  1
  Ag  Ag26  1  0.82182063  0.82234556  0.33027058  1
  Ag  Ag27  1  0.33668102  0.50775912  0.49737871  1
  Ag  Ag28  1  0.65830256  0.67050812  0.00983766  1
  Ag  Ag29  1  0.83098749  0.66375287  0.48571765  1
  Ag  Ag30  1  0.50560207  0.33532245  0.50313621  1
  Ag  Ag31  1  0.33384835  0.82810438  0.17248239  1
  Ag  Ag32  1  0.66707047  -0.00260440  0.00605161  1
  Ag  Ag33  1  0.66661229  0.16533636  0.16183774  1
  Ag  Ag34  1  0.49771746  0.51057816  0.00293446  1
  Ag  Ag35  1  0.82289786  0.66904857  0.17376785  1
  Ag  Ag36  1  0.16347765  -0.00631736  0.16687296  1
  Ag  Ag37  1  0.66319651  -0.00941510  0.32688958  1
  Ag  Ag38  1  0.66863443  0.67101713  0.32936422  1
  Ag  Ag39  1  0.83005646  0.33007864  0.83414924  1
  Ag  Ag40  1  0.50309854  0.66723495  0.84717792  1
  Ag  Ag41  1  0.50395913  0.66785020  0.16413790  1
  Ag  Ag42  1  0.34344320  0.82559128  0.48884920  1
  Ag  Ag43  1  0.50117919  0.16755163  -0.00469972  1
  Ag  Ag44  1  0.16912028  0.16658437  0.32420713  1
  Ag  Ag45  1  0.66264071  0.66290104  0.66612873  1
  Ag  Ag46  1  0.17353716  0.66348165  0.83759350  1
  Ag  Ag47  1  0.82798344  -0.00396472  0.16452752  1
  Ag  Ag48  1  0.17256413  0.66822769  0.17040346  1
  Ag  Ag49  1  0.83069994  0.33672082  0.16623875  1
  Ag  Ag50  1  0.33876519  0.66965215  0.32848072  1
  Ag  Ag51  1  0.17123141  0.51029782  0.33140994  1
  Ag  Ag52  1  0.00261694  0.83104342  0.16826817  1
  Ag  Ag53  1  0.82253068  0.51002054  0.33131624  1
  Sb  Sb54  1  0.16261221  0.33548828  0.83342515  1
  Sb  Sb55  1  0.66520614  0.83289126  0.83122518  1
  Sb  Sb56  1  0.15987198  0.33603042  0.16576843  1
  Sb  Sb57  1  0.50390423  -0.00767665  0.16897804  1
  Sb  Sb58  1  -0.00393960  0.16233587  0.16473599  1
  Sb  Sb59  1  0.33799287  0.50898723  0.17173002  1
  Sb  Sb60  1  -0.00115471  0.66767583  0.00692039  1
  Sb  Sb61  1  0.33372075  0.33793388  0.33433639  1
  Sb  Sb62  1  0.66944552  0.33390062  -0.00134277  1
  Sb  Sb63  1  0.00045238  0.16697268  0.49956235  1
  Sb  Sb64  1  0.16388492  0.00025656  0.84051722  1
  Sb  Sb65  1  0.33530272  0.16650186  0.50164675  1
  Sb  Sb66  1  0.66718394  0.33594437  0.33630377  1
  Sb  Sb67  1  0.66463951  0.00017500  0.66706646  1
  Sb  Sb68  1  0.49791414  0.16483615  0.33281612  1
  Sb  Sb69  1  0.34154114  0.66590197  0.66419621  1
  Sb  Sb70  1  0.82634941  0.83349313  0.00850447  1
  Sb  Sb71  1  0.82622436  -0.00270100  0.49615707  1
  Sb  Sb72  1  0.50592255  0.33437591  0.82997683  1
  Sb  Sb73  1  -0.00072291  -0.00720248  0.32560004  1
  Sb  Sb74  1  0.66482559  0.50112014  0.83685660  1
  Sb  Sb75  1  0.33791021  -0.00438704  0.00521730  1
  Sb  Sb76  1  -0.00368203  0.50715191  0.16752732  1
  Sb  Sb77  1  0.33682224  0.15894780  0.16359978  1
  Sb  Sb78  1  0.82637465  0.83343425  0.66189789  1
  Sb  Sb79  1  -0.00309383  0.66633696  0.66315516  1
  Sb  Sb80  1  0.83427324  0.16596068  0.33382530  1
  Sb  Sb81  1  -0.00208561  0.00124202  0.67371086  1
  Sb  Sb82  1  0.83064342  0.50133061  0.00510458  1
  Sb  Sb83  1  -0.00129456  0.83051880  0.49025361  1
  Sb  Sb84  1  0.00236213  0.50141283  0.49790136  1
  Sb  Sb85  1  0.17290722  -0.00395274  0.49151852  1
  Sb  Sb86  1  0.66455035  0.83011202  0.17371092  1
  Sb  Sb87  1  0.82799954  0.49877425  0.66227827  1
  Sb  Sb88  1  0.50622199  0.33942759  0.16890354  1
  Sb  Sb89  1  0.82985209  0.16516938  -0.00329665  1
  Sb  Sb90  1  0.50093849  0.66871530  0.49245963  1
  Sb  Sb91  1  0.33520224  0.49961579  0.83095724  1
  Sb  Sb92  1  -0.00698402  0.33380476  0.66986358  1
  Sb  Sb93  1  0.17339225  0.82712206  0.33043624  1
  Sb  Sb94  1  0.34046094  0.33362929  0.66651575  1
  Sb  Sb95  1  0.50463282  -0.00085848  0.83267435  1
  Sb  Sb96  1  0.66040947  0.50755411  0.49507000  1
  Sb  Sb97  1  0.33667205  0.83332432  0.83491385  1
  Sb  Sb98  1  0.00019976  0.50203438  0.83642633  1
  Sb  Sb99  1  0.33602571  0.00058495  0.66135198  1
  Sb  Sb100  1  0.17429601  0.82783450  0.66420084  1
  Sb  Sb101  1  0.66479337  0.16452136  0.50049068  1
  Sb  Sb102  1  0.16799283  0.33930952  0.50135960  1
  Sb  Sb103  1  0.17136313  0.82994558  0.00444592  1
  Sb  Sb104  1  -0.00440187  0.16702795  0.83622739  1
  Sb  Sb105  1  -0.00203109  0.83161214  0.84228930  1
  Sb  Sb106  1  -0.00251138  0.33920657  0.32908924  1
  Sb  Sb107  1  0.33141367  0.33801204  0.00015247  1
  Te  Te108  1  0.16741042  0.16795004  0.16364664  1
  Te  Te109  1  0.16792153  0.16704367  0.50488798  1
  Te  Te110  1  0.16662887  0.16656782  0.83475352  1
  Te  Te111  1  0.16697938  0.50263409  0.16718507  1
  Te  Te112  1  0.16975563  0.50319098  0.49808258  1
  Te  Te113  1  0.16805739  0.50299374  0.83595796  1
  Te  Te114  1  0.16834471  0.83314729  0.16653130  1
  Te  Te115  1  0.16989450  0.82670561  0.50104757  1
  Te  Te116  1  0.16713121  0.82689842  0.83302536  1
  Te  Te117  1  0.50488260  0.17000670  0.16431122  1
  Te  Te118  1  0.49918523  0.17290745  0.50341383  1
  Te  Te119  1  0.50344615  0.16659263  0.83213379  1
  Te  Te120  1  0.50392104  0.50334661  0.16744942  1
  Te  Te121  1  0.49819739  0.49757162  0.49976051  1
  Te  Te122  1  0.49920314  0.50341681  0.83744616  1
  Te  Te123  1  0.49583977  0.83012380  0.16817162  1
  Te  Te124  1  0.49945962  0.83256491  0.49703222  1
  Te  Te125  1  0.49947594  0.82997870  0.83631147  1
  Te  Te126  1  0.82889225  0.16357411  0.16675306  1
  Te  Te127  1  0.83361247  0.16867361  0.50619932  1
  Te  Te128  1  0.82937690  0.16638600  0.83076586  1
  Te  Te129  1  0.83005393  0.50422677  0.17048010  1
  Te  Te130  1  0.83343305  0.50144118  0.49565035  1
  Te  Te131  1  0.83262660  0.50216362  0.83193067  1
  Te  Te132  1  0.83404796  0.83197992  0.16976530  1
  Te  Te133  1  0.83075525  0.82859625  0.49403845  1
  Te  Te134  1  0.83280698  0.83248177  0.83119369  1
  Te  Te135  1  0.16949004  0.00162886  0.00515548  1
  Te  Te136  1  0.16650046  0.00349147  0.32802078  1
  Te  Te137  1  0.16688711  0.00359508  0.66752701  1
  Te  Te138  1  0.16302278  0.33067427  -0.00046959  1
  Te  Te139  1  0.16544835  0.33077327  0.33439583  1
  Te  Te140  1  0.16514943  0.33314226  0.66637656  1
  Te  Te141  1  0.16325511  0.66537727  0.00155118  1
  Te  Te142  1  0.17825944  0.66643713  0.33086169  1
  Te  Te143  1  0.16531095  0.66337061  0.67243620  1
  Te  Te144  1  0.50512231  0.00805967  0.00040229  1
  Te  Te145  1  0.50132159  0.00074302  0.33532002  1
  Te  Te146  1  0.50037728  0.00561237  0.66232332  1
  Te  Te147  1  0.49987607  0.32851766  -0.00003826  1
  Te  Te148  1  0.50034159  0.33691488  0.33913839  1
  Te  Te149  1  0.50576741  0.33307261  0.66519087  1
  Te  Te150  1  0.50170690  0.66580937  0.00300721  1
  Te  Te151  1  0.49904468  0.66689952  0.33216201  1
  Te  Te152  1  0.50330478  0.66485954  0.66479929  1
  Te  Te153  1  0.82916882  -0.00096234  0.00297182  1
  Te  Te154  1  0.82995224  -0.00107780  0.32841572  1
  Te  Te155  1  0.83320367  0.00580503  0.66856222  1
  Te  Te156  1  0.83711430  0.33387424  0.00136000  1
  Te  Te157  1  0.83442093  0.33555242  0.33257606  1
  Te  Te158  1  0.82856925  0.33203955  0.66735019  1
  Te  Te159  1  0.83073218  0.66658918  -0.00435327  1
  Te  Te160  1  0.82892120  0.66541757  0.32992476  1
  Te  Te161  1  0.82864402  0.66619920  0.67452954  1
  Te  Te162  1  0.00577403  0.16482764  0.00060765  1
  Te  Te163  1  0.00857373  0.16623883  0.33291492  1
  Te  Te164  1  0.00806972  0.16745638  0.66723796  1
  Te  Te165  1  0.00714288  0.49586845  0.00162924  1
  Te  Te166  1  0.00811621  0.50594175  0.33261142  1
  Te  Te167  1  0.01117505  0.49930683  0.66693308  1
  Te  Te168  1  -0.00030704  0.83956705  0.00813260  1
  Te  Te169  1  -0.00658911  0.82768824  0.32705734  1
  Te  Te170  1  0.00074798  0.83450878  0.66647412  1
  Te  Te171  1  0.33365346  0.16607299  -0.00273452  1
  Te  Te172  1  0.32861272  0.16641456  0.33260844  1
  Te  Te173  1  0.33473882  0.16719196  0.67043358  1
  Te  Te174  1  0.33379244  0.50454419  -0.00091713  1
  Te  Te175  1  0.33455568  0.50355408  0.33643541  1
  Te  Te176  1  0.33482662  0.49900434  0.66269379  1
  Te  Te177  1  0.34045934  0.82827259  0.00219395  1
  Te  Te178  1  0.33559848  0.83112833  0.33276220  1
  Te  Te179  1  0.34256878  0.83444407  0.66363464  1
  Te  Te180  1  0.66560464  0.16678725  -0.00104602  1
  Te  Te181  1  0.66709140  0.16317900  0.32884128  1
  Te  Te182  1  0.66395638  0.16683592  0.66707665  1
  Te  Te183  1  0.66269600  0.50340366  0.00480162  1
  Te  Te184  1  0.66469632  0.50205540  0.32917845  1
  Te  Te185  1  0.66186330  0.49994163  0.66770766  1
  Te  Te186  1  0.66093014  0.83277051  -0.00308109  1
  Te  Te187  1  0.66352259  0.83202945  0.33488505  1
  Te  Te188  1  0.66118698  0.83033769  0.66095083  1
  Te  Te189  1  0.00107196  -0.00382641  0.16278032  1
  Te  Te190  1  0.00097692  -0.00125996  0.50086169  1
  Te  Te191  1  -0.00733571  -0.00108270  0.84319759  1
  Te  Te192  1  -0.00883388  0.33333465  0.16208705  1
  Te  Te193  1  -0.01070248  0.33372012  0.50007234  1
  Te  Te194  1  -0.00887121  0.33424034  0.83947991  1
  Te  Te195  1  0.00238012  0.67088476  0.17016458  1
  Te  Te196  1  -0.00187864  0.66710388  0.49405505  1
  Te  Te197  1  0.00025715  0.66814873  0.83359939  1
  Te  Te198  1  0.33013077  -0.00644486  0.17187575  1
  Te  Te199  1  0.33877960  -0.00339920  0.49260092  1
  Te  Te200  1  0.33203616  0.00575862  0.83422157  1
  Te  Te201  1  0.33287942  0.33169782  0.16646653  1
  Te  Te202  1  0.33794153  0.33965991  0.50060953  1
  Te  Te203  1  0.33204708  0.32420387  0.83371000  1
  Te  Te204  1  0.33293189  0.66838141  0.16601369  1
  Te  Te205  1  0.32989070  0.66694850  0.50103519  1
  Te  Te206  1  0.33412966  0.66669603  0.83717895  1
  Te  Te207  1  0.66678393  0.00182492  0.16641632  1
  Te  Te208  1  0.66218420  -0.00532433  0.49487206  1
  Te  Te209  1  0.67045394  0.00387447  0.83644365  1
  Te  Te210  1  0.67273368  0.32913294  0.16712609  1
  Te  Te211  1  0.66780627  0.33284199  0.50327905  1
  Te  Te212  1  0.67181986  0.32951744  0.82970550  1
  Te  Te213  1  0.66545146  0.66721370  0.16754615  1
  Te  Te214  1  0.67093621  0.66897794  0.50054893  1
  Te  Te215  1  0.66266998  0.66684135  0.83061516  1
