# generated using pymatgen
data_AgSbTe2
_symmetry_space_group_name_H-M   'P 1'
_cell_length_a   18.34604575
_cell_length_b   18.34429685
_cell_length_c   18.34251389
_cell_angle_alpha   90.00355176
_cell_angle_beta   90.00114132
_cell_angle_gamma   89.99996124
_symmetry_Int_Tables_number   1
_chemical_formula_structural   AgSbTe2
_chemical_formula_sum   'Ag54 Sb54 Te108'
_cell_volume   6173.08699467
_cell_formula_units_Z   54
loop_
 _symmetry_equiv_pos_site_id
 _symmetry_equiv_pos_as_xyz
  1  'x, y, z'
loop_
 _atom_site_type_symbol
 _atom_site_label
 _atom_site_symmetry_multiplicity
 _atom_site_fract_x
 _atom_site_fract_y
 _atom_site_fract_z
 _atom_site_occupancy
  Ag  Ag0  1  0.84537050  0.15824007  0.66244783  1
  Ag  Ag1  1  0.84576729  0.83473088  0.01004170  1
  Ag  Ag2  1  0.83822013  0.67029652  0.17624446  1
  Ag  Ag3  1  0.48685503  0.66316953  0.83356130  1
  Ag  Ag4  1  0.16228311  0.84316570  0.66674926  1
  Ag  Ag5  1  0.00410363  0.49185308  0.81740130  1
  Ag  Ag6  1  0.00334126  0.17116655  0.16894178  1
  Ag  Ag7  1  0.50129719  0.00667462  0.49309186  1
  Ag  Ag8  1  0.16148249  0.16155767  0.67223576  1
  Ag  Ag9  1  0.31823154  0.84580886  0.16732785  1
  Ag  Ag10  1  0.16270853  0.32645243  0.83702275  1
  Ag  Ag11  1  0.16574963  0.00670056  0.82633700  1
  Ag  Ag12  1  0.00039648  0.49251816  0.17479675  1
  Ag  Ag13  1  0.00182918  0.49634199  0.49984555  1
  Ag  Ag14  1  0.67577168  0.00453523  0.33062088  1
  Ag  Ag15  1  0.16496688  0.00328456  0.16460510  1
  Ag  Ag16  1  0.83864202  0.67369429  0.49692885  1
  Ag  Ag17  1  0.00146684  0.00756700  0.65924035  1
  Ag  Ag18  1  0.84136676  -0.00015536  0.49939208  1
  Ag  Ag19  1  0.16154073  0.50077911  0.33606376  1
  Ag  Ag20  1  0.15964501  0.83502765  0.32570372  1
  Ag  Ag21  1  0.00727141  0.17258200  0.81929254  1
  Ag  Ag22  1  0.16380646  0.32456850  0.16295985  1
  Ag  Ag23  1  0.32253762  0.33012058  0.00822298  1
  Ag  Ag24  1  0.33063550  0.66290100  0.00102816  1
  Ag  Ag25  1  0.31902143  0.00329749  0.66230052  1
  Ag  Ag26  1  -0.00080459  -0.00531327  0.33938630  1
  Ag  Ag27  1  0.49186943  0.00382540  0.17242475  1
  Ag  Ag28  1  0.32454332  0.16683697  0.83001513  1
  Ag  Ag29  1  0.49344214  0.16630021  0.00392696  1
  Ag  Ag30  1  0.67154637  0.16338430  0.16876026  1
  Ag  Ag31  1  0.84134199  0.49888849  0.33390308  1
  Ag  Ag32  1  0.83973351  0.33136161  0.49447293  1
  Ag  Ag33  1  0.16239748  0.49463659  0.66272028  1
  Ag  Ag34  1  0.32099210  0.49097951  0.49636047  1
  Ag  Ag35  1  0.00096232  0.67012880  0.66652029  1
  Ag  Ag36  1  0.66915872  0.32864810  0.33382926  1
  Ag  Ag37  1  0.00157364  0.32443958  0.66662884  1
  Ag  Ag38  1  0.32571433  0.16915813  0.49957342  1
  Ag  Ag39  1  0.84514553  0.33261550  0.17358641  1
  Ag  Ag40  1  0.33343034  0.33442490  0.33341494  1
  Ag  Ag41  1  0.84049475  0.83341272  0.33508211  1
  Ag  Ag42  1  0.16393146  0.83318262  0.00773580  1
  Ag  Ag43  1  0.84510877  0.83524713  0.65436472  1
  Ag  Ag44  1  0.32733308  0.16620102  0.16615630  1
  Ag  Ag45  1  0.00343584  0.33160326  0.00415744  1
  Ag  Ag46  1  0.49513021  0.49494012  0.33548214  1
  Ag  Ag47  1  0.66842769  0.00053395  0.01169166  1
  Ag  Ag48  1  0.16610410  0.66748287  0.83149438  1
  Ag  Ag49  1  0.00157257  0.16479961  0.50448394  1
  Ag  Ag50  1  0.68245058  0.66744409  0.66705837  1
  Ag  Ag51  1  -0.00024814  0.84407797  0.49956109  1
  Ag  Ag52  1  0.00127880  0.83847918  0.17666812  1
  Ag  Ag53  1  0.49493403  0.32808130  0.49737827  1
  Sb  Sb54  1  0.66796493  0.16684003  0.83748769  1
  Sb  Sb55  1  0.67090034  0.16646577  0.49565325  1
  Sb  Sb56  1  0.32482030  0.49723021  0.82937143  1
  Sb  Sb57  1  0.67191693  0.49414770  0.17083138  1
  Sb  Sb58  1  0.32506527  0.67087437  0.66897203  1
  Sb  Sb59  1  0.67763755  0.33627335  0.66014287  1
  Sb  Sb60  1  0.16095489  0.66898900  0.16462207  1
  Sb  Sb61  1  0.49650375  0.83399980  0.66584202  1
  Sb  Sb62  1  0.83443490  0.16381544  -0.00067812  1
  Sb  Sb63  1  0.32425161  0.83629146  0.49625036  1
  Sb  Sb64  1  0.32689731  0.83682739  0.83741398  1
  Sb  Sb65  1  0.66658532  0.67350417  -0.00288534  1
  Sb  Sb66  1  0.83989164  0.00152420  0.17299319  1
  Sb  Sb67  1  0.49869136  0.83335865  0.33325969  1
  Sb  Sb68  1  0.32948579  0.00434195  0.33527769  1
  Sb  Sb69  1  0.48981716  0.33489018  0.82955741  1
  Sb  Sb70  1  0.49155738  0.49954689  0.66123207  1
  Sb  Sb71  1  0.00459535  0.66622912  -0.00274317  1
  Sb  Sb72  1  0.49600617  0.16702219  0.66673423  1
  Sb  Sb73  1  0.16851055  0.16557076  -0.00264961  1
  Sb  Sb74  1  0.50049298  0.67056284  0.16420438  1
  Sb  Sb75  1  0.32242108  0.32781766  0.66340138  1
  Sb  Sb76  1  0.84306279  0.33213230  0.83266851  1
  Sb  Sb77  1  0.66727776  0.83418060  0.83236018  1
  Sb  Sb78  1  0.66890227  0.32762935  0.00831392  1
  Sb  Sb79  1  0.33202293  0.00409434  0.00207145  1
  Sb  Sb80  1  0.84033241  0.66773694  0.82967561  1
  Sb  Sb81  1  0.83839232  0.50227358  0.00715784  1
  Sb  Sb82  1  0.16300953  0.00181044  0.49971372  1
  Sb  Sb83  1  0.16412835  0.33394870  0.49834363  1
  Sb  Sb84  1  0.67227112  0.66649696  0.33485789  1
  Sb  Sb85  1  0.50425761  0.66542095  0.50298755  1
  Sb  Sb86  1  0.49566275  0.32742043  0.17257488  1
  Sb  Sb87  1  -0.00012237  0.00246380  0.00046595  1
  Sb  Sb88  1  0.67350011  0.50044542  0.83096707  1
  Sb  Sb89  1  0.16329005  0.50006658  -0.00061726  1
  Sb  Sb90  1  0.67340064  0.83993736  0.16749082  1
  Sb  Sb91  1  0.15970759  0.66440771  0.50440216  1
  Sb  Sb92  1  0.49534736  0.83760165  0.00112077  1
  Sb  Sb93  1  0.49886205  0.16973265  0.33140409  1
  Sb  Sb94  1  0.32534665  0.49523483  0.17177246  1
  Sb  Sb95  1  0.83698992  0.16687726  0.33713289  1
  Sb  Sb96  1  0.00323792  0.83624903  0.82800425  1
  Sb  Sb97  1  0.16497843  0.16675491  0.33368572  1
  Sb  Sb98  1  0.67206574  0.49954068  0.49936516  1
  Sb  Sb99  1  0.00122259  0.33268789  0.33314002  1
  Sb  Sb100  1  0.49702322  0.49519815  0.00446328  1
  Sb  Sb101  1  0.33212849  0.66292098  0.32998266  1
  Sb  Sb102  1  -0.00066328  0.66979074  0.33787632  1
  Sb  Sb103  1  0.67802664  0.83497665  0.49995029  1
  Sb  Sb104  1  0.84532523  0.50237989  0.65802200  1
  Sb  Sb105  1  0.67333035  -0.00254247  0.66294036  1
  Sb  Sb106  1  0.83956668  -0.00003781  0.82903151  1
  Sb  Sb107  1  0.49296922  -0.00053961  0.83464111  1
  Te  Te108  1  0.16681549  0.16487711  0.16684353  1
  Te  Te109  1  0.16548692  0.16862368  0.50493741  1
  Te  Te110  1  0.16673982  0.16563637  0.83450840  1
  Te  Te111  1  0.16029645  0.50076178  0.16991407  1
  Te  Te112  1  0.16477750  0.49959194  0.49935261  1
  Te  Te113  1  0.16199097  0.50028438  0.83272322  1
  Te  Te114  1  0.16327058  0.83012692  0.16799152  1
  Te  Te115  1  0.16024003  0.83200890  0.50011653  1
  Te  Te116  1  0.16775550  0.83260682  0.82948499  1
  Te  Te117  1  0.49432123  0.16369220  0.16518742  1
  Te  Te118  1  0.49914412  0.16662169  0.50131219  1
  Te  Te119  1  0.49668946  0.16803841  0.83842939  1
  Te  Te120  1  0.50143431  0.50165987  0.17418816  1
  Te  Te121  1  0.50095952  0.49815120  0.49472799  1
  Te  Te122  1  0.49971192  0.50441210  0.83338512  1
  Te  Te123  1  0.49791346  0.84008048  0.16668832  1
  Te  Te124  1  0.49698632  0.83592591  0.50006127  1
  Te  Te125  1  0.49865691  0.82591898  0.83349826  1
  Te  Te126  1  0.83625165  0.17101477  0.16550285  1
  Te  Te127  1  0.83541934  0.16605368  0.50301103  1
  Te  Te128  1  0.83784496  0.16643222  0.82714961  1
  Te  Te129  1  0.83712425  0.49836100  0.17260804  1
  Te  Te130  1  0.83705190  0.49542106  0.49406936  1
  Te  Te131  1  0.84255367  0.50005374  0.83572510  1
  Te  Te132  1  0.83864875  0.83426535  0.16937272  1
  Te  Te133  1  0.83918223  0.83428602  0.49715639  1
  Te  Te134  1  0.83335286  0.83331133  0.83752962  1
  Te  Te135  1  0.16676998  -0.00761892  0.00371475  1
  Te  Te136  1  0.16241489  -0.00432656  0.32757406  1
  Te  Te137  1  0.16221134  0.00195043  0.66421094  1
  Te  Te138  1  0.16464240  0.33489320  0.00177381  1
  Te  Te139  1  0.17035084  0.33653255  0.32645252  1
  Te  Te140  1  0.16203379  0.33439972  0.66915536  1
  Te  Te141  1  0.17103176  0.66992252  -0.00347529  1
  Te  Te142  1  0.16778316  0.66454112  0.33337441  1
  Te  Te143  1  0.16366827  0.66684699  0.67092072  1
  Te  Te144  1  0.50209928  0.00505162  0.00215238  1
  Te  Te145  1  0.49851577  -0.00118428  0.33271430  1
  Te  Te146  1  0.50369315  -0.00069438  0.66387674  1
  Te  Te147  1  0.50060727  0.32702287  -0.00211108  1
  Te  Te148  1  0.49717245  0.33528489  0.33702697  1
  Te  Te149  1  0.50411344  0.33507071  0.65910244  1
  Te  Te150  1  0.49654821  0.66554683  -0.00492601  1
  Te  Te151  1  0.50291102  0.66024705  0.33398526  1
  Te  Te152  1  0.49620346  0.66670587  0.67212083  1
  Te  Te153  1  0.82995679  -0.00481913  -0.00342208  1
  Te  Te154  1  0.83470072  -0.00076243  0.33843530  1
  Te  Te155  1  0.83725782  -0.00258996  0.66229286  1
  Te  Te156  1  0.83746046  0.33367752  0.00453218  1
  Te  Te157  1  0.83451719  0.33335080  0.33240713  1
  Te  Te158  1  0.84080422  0.33339302  0.66297045  1
  Te  Te159  1  0.83184764  0.67469851  0.00067382  1
  Te  Te160  1  0.83228448  0.66792736  0.33457081  1
  Te  Te161  1  0.83843063  0.66919715  0.66370448  1
  Te  Te162  1  -0.00121794  0.17125047  0.00928368  1
  Te  Te163  1  0.00143962  0.15779770  0.32871482  1
  Te  Te164  1  0.00071780  0.16618838  0.66311064  1
  Te  Te165  1  -0.00149883  0.49419530  0.00783230  1
  Te  Te166  1  0.00068342  0.50120879  0.33532966  1
  Te  Te167  1  0.00321651  0.50310670  0.66173209  1
  Te  Te168  1  0.00283123  0.83346043  -0.00218681  1
  Te  Te169  1  0.00095765  0.83310468  0.33649466  1
  Te  Te170  1  0.00108333  0.83189923  0.66823471  1
  Te  Te171  1  0.33347249  0.16932219  0.00396615  1
  Te  Te172  1  0.33173117  0.17179485  0.33668581  1
  Te  Te173  1  0.33167077  0.16306928  0.66512691  1
  Te  Te174  1  0.33401620  0.49766347  -0.00105236  1
  Te  Te175  1  0.33036119  0.49703364  0.33725222  1
  Te  Te176  1  0.32498898  0.50000291  0.65866820  1
  Te  Te177  1  0.32891668  0.83264478  0.00545015  1
  Te  Te178  1  0.32918776  0.83230947  0.32709924  1
  Te  Te179  1  0.32780899  0.84069306  0.66570580  1
  Te  Te180  1  0.66521369  0.16144216  0.00485872  1
  Te  Te181  1  0.66624585  0.16554311  0.32894969  1
  Te  Te182  1  0.67013014  0.16814500  0.66792531  1
  Te  Te183  1  0.66547537  0.50114968  0.00013445  1
  Te  Te184  1  0.66831905  0.49683618  0.33326109  1
  Te  Te185  1  0.66468589  0.50554192  0.66776801  1
  Te  Te186  1  0.66551176  0.84079912  -0.00047634  1
  Te  Te187  1  0.66868206  0.83805534  0.33309820  1
  Te  Te188  1  0.66941200  0.82804262  0.66633796  1
  Te  Te189  1  0.00408202  -0.00306805  0.16650579  1
  Te  Te190  1  0.00013424  0.00330552  0.49957847  1
  Te  Te191  1  0.00660884  0.00643802  0.83155657  1
  Te  Te192  1  0.00224137  0.33377723  0.16998180  1
  Te  Te193  1  -0.00158465  0.32955896  0.50012953  1
  Te  Te194  1  0.00313706  0.33234718  0.83217883  1
  Te  Te195  1  -0.00567708  0.66803018  0.16208931  1
  Te  Te196  1  -0.00417904  0.66036798  0.50451369  1
  Te  Te197  1  0.00570211  0.66265452  0.82995513  1
  Te  Te198  1  0.33073064  0.00215511  0.16800316  1
  Te  Te199  1  0.33722735  0.00251298  0.50194306  1
  Te  Te200  1  0.32882376  0.00527651  0.82911313  1
  Te  Te201  1  0.32911341  0.33074952  0.16774569  1
  Te  Te202  1  0.33332414  0.33201884  0.49780278  1
  Te  Te203  1  0.32565711  0.32869714  0.83494113  1
  Te  Te204  1  0.33626858  0.66330251  0.16034689  1
  Te  Te205  1  0.33559145  0.66597622  0.49977032  1
  Te  Te206  1  0.32924219  0.66556535  0.83662744  1
  Te  Te207  1  0.67011235  0.00375187  0.16971788  1
  Te  Te208  1  0.66174617  0.00042901  0.49511734  1
  Te  Te209  1  0.66398471  0.00195045  0.83389390  1
  Te  Te210  1  0.66606424  0.32590481  0.17277536  1
  Te  Te211  1  0.66751507  0.33285544  0.49410717  1
  Te  Te212  1  0.66509464  0.33426071  0.83449807  1
  Te  Te213  1  0.67453395  0.66724517  0.16485917  1
  Te  Te214  1  0.67209546  0.66727989  0.50620294  1
  Te  Te215  1  0.66815219  0.66578014  0.82795807  1
