# generated using pymatgen
data_AgSbTe2
_symmetry_space_group_name_H-M   'P 1'
_cell_length_a   18.31440275
_cell_length_b   18.31088578
_cell_length_c   18.30771589
_cell_angle_alpha   90.00096500
_cell_angle_beta   89.99899249
_cell_angle_gamma   90.00052661
_symmetry_Int_Tables_number   1
_chemical_formula_structural   AgSbTe2
_chemical_formula_sum   'Ag54 Sb54 Te108'
_cell_volume   6139.54629116
_cell_formula_units_Z   54
loop_
 _symmetry_equiv_pos_site_id
 _symmetry_equiv_pos_as_xyz
  1  'x, y, z'
loop_
 _atom_site_type_symbol
 _atom_site_label
 _atom_site_symmetry_multiplicity
 _atom_site_fract_x
 _atom_site_fract_y
 _atom_site_fract_z
 _atom_site_occupancy
  Ag  Ag0  1  -0.00160550  0.67613322  0.67279966  1
  Ag  Ag1  1  -0.00065711  0.83915108  0.15195885  1
  Ag  Ag2  1  0.49942212  0.83423074  -0.00376720  1
  Ag  Ag3  1  0.32728381  0.50648490  0.83165953  1
  Ag  Ag4  1  0.83015506  0.15771114  0.00047712  1
  Ag  Ag5  1  0.83319601  0.33898517  0.83184741  1
  Ag  Ag6  1  0.33709499  0.16435044  0.49699618  1
  Ag  Ag7  1  0.50599910  0.16035667  0.00659158  1
  Ag  Ag8  1  0.84002204  0.83206869  0.33915591  1
  Ag  Ag9  1  -0.00098108  0.50952172  0.82916902  1
  Ag  Ag10  1  0.32704808  -0.00240832  0.66140805  1
  Ag  Ag11  1  0.16755669  0.32885373  0.17267960  1
  Ag  Ag12  1  0.83497631  0.50653166  0.33555853  1
  Ag  Ag13  1  0.50021192  -0.00370848  0.49963119  1
  Ag  Ag14  1  0.67281297  0.83727912  0.50027932  1
  Ag  Ag15  1  -0.00204090  0.15570212  0.16445673  1
  Ag  Ag16  1  0.67409034  0.49791618  0.83386213  1
  Ag  Ag17  1  0.16260837  0.83180000  0.32968920  1
  Ag  Ag18  1  0.66872021  0.17056940  0.83478097  1
  Ag  Ag19  1  0.66863048  0.67065317  0.00016615  1
  Ag  Ag20  1  0.16780710  0.33524900  0.49524286  1
  Ag  Ag21  1  0.33290807  0.33862571  0.33634324  1
  Ag  Ag22  1  0.16431249  0.16396083  0.66513194  1
  Ag  Ag23  1  -0.00018838  0.67837394  -0.00669254  1
  Ag  Ag24  1  0.66721366  0.16674269  0.16242026  1
  Ag  Ag25  1  0.00362697  -0.00687672  0.66991842  1
  Ag  Ag26  1  0.50310860  0.83405425  0.66460471  1
  Ag  Ag27  1  0.33657172  0.66446258  0.33499399  1
  Ag  Ag28  1  0.17094801  0.50140615  0.33396246  1
  Ag  Ag29  1  0.15935352  0.00070047  0.16363423  1
  Ag  Ag30  1  -0.00238159  0.33321377  0.66722530  1
  Ag  Ag31  1  0.32497608  0.82929340  0.83591570  1
  Ag  Ag32  1  0.84028385  0.83467238  0.66364644  1
  Ag  Ag33  1  0.16372687  -0.00247399  0.83593317  1
  Ag  Ag34  1  0.83261864  -0.00464152  0.49689309  1
  Ag  Ag35  1  0.83696009  0.66600900  0.83630792  1
  Ag  Ag36  1  0.84448932  0.83625808  -0.00168338  1
  Ag  Ag37  1  0.32805903  0.49740065  0.49447808  1
  Ag  Ag38  1  0.49578772  0.32844577  0.17045903  1
  Ag  Ag39  1  0.15696494  0.83084618  0.00193101  1
  Ag  Ag40  1  0.00079268  0.82912788  0.83944774  1
  Ag  Ag41  1  0.49855904  0.16931576  0.33259871  1
  Ag  Ag42  1  -0.00495995  0.83191078  0.50475670  1
  Ag  Ag43  1  0.16628336  0.50879938  0.00091227  1
  Ag  Ag44  1  0.00462903  0.50541840  0.50410002  1
  Ag  Ag45  1  0.84218516  -0.00067321  0.16746520  1
  Ag  Ag46  1  0.49970521  0.67386548  0.49704604  1
  Ag  Ag47  1  0.66108768  0.16049906  0.49907543  1
  Ag  Ag48  1  0.00062264  -0.00839534  0.00212787  1
  Ag  Ag49  1  0.33070279  0.66991073  -0.00181740  1
  Ag  Ag50  1  0.66404565  0.66638469  0.33332889  1
  Ag  Ag51  1  0.33255930  -0.00181617  0.33998438  1
  Ag  Ag52  1  0.49105156  0.49954752  0.33544973  1
  Ag  Ag53  1  0.67220690  0.33106577  0.66838620  1
  Sb  Sb54  1  0.83550127  0.16186958  0.67029281  1
  Sb  Sb55  1  -0.00403117  0.16404212  0.83567459  1
  Sb  Sb56  1  0.67147855  0.83331763  0.83139533  1
  Sb  Sb57  1  0.83684342  0.33009618  0.50354956  1
  Sb  Sb58  1  0.00412654  -0.00363568  0.33126478  1
  Sb  Sb59  1  0.49829460  0.83261661  0.33510211  1
  Sb  Sb60  1  0.66222162  0.33609877  0.33731088  1
  Sb  Sb61  1  0.83742579  0.50463630  -0.00095356  1
  Sb  Sb62  1  0.66703595  0.49637875  0.16430729  1
  Sb  Sb63  1  0.67279647  0.83776194  0.16903572  1
  Sb  Sb64  1  0.00585489  0.33589676  0.33674207  1
  Sb  Sb65  1  0.33396013  0.16631306  0.17190622  1
  Sb  Sb66  1  0.16141534  0.83924240  0.66921141  1
  Sb  Sb67  1  0.49548876  -0.00165520  0.82908268  1
  Sb  Sb68  1  0.49599738  0.50270430  0.00383404  1
  Sb  Sb69  1  0.32873480  -0.00577052  -0.00101684  1
  Sb  Sb70  1  0.49901741  0.00305257  0.16993376  1
  Sb  Sb71  1  0.66721526  0.33235128  -0.00421297  1
  Sb  Sb72  1  0.50295529  0.66820616  0.83161742  1
  Sb  Sb73  1  0.33653652  0.16508412  0.82915978  1
  Sb  Sb74  1  0.66762444  0.50092667  0.50123926  1
  Sb  Sb75  1  0.00282938  0.50253871  0.16573503  1
  Sb  Sb76  1  0.16574472  0.16281847  -0.00067112  1
  Sb  Sb77  1  0.00061934  0.33335115  -0.00326461  1
  Sb  Sb78  1  0.50024214  0.66527379  0.17048389  1
  Sb  Sb79  1  0.33225420  0.83468117  0.50187334  1
  Sb  Sb80  1  0.67048661  0.66638912  0.66699679  1
  Sb  Sb81  1  0.17171705  0.16635498  0.33545152  1
  Sb  Sb82  1  0.16230408  0.33200551  0.83234118  1
  Sb  Sb83  1  0.16396994  0.49540610  0.66542800  1
  Sb  Sb84  1  0.32733790  0.83459132  0.16361887  1
  Sb  Sb85  1  0.16561789  0.67062576  0.16488241  1
  Sb  Sb86  1  0.33092542  0.49976831  0.17269942  1
  Sb  Sb87  1  0.16817089  0.66369213  0.49762987  1
  Sb  Sb88  1  0.67202483  -0.00203462  0.00084001  1
  Sb  Sb89  1  0.15990913  0.67148274  0.83561872  1
  Sb  Sb90  1  0.49907805  0.16177879  0.66291021  1
  Sb  Sb91  1  0.50413959  0.33357574  0.83703381  1
  Sb  Sb92  1  0.82791937  0.16252114  0.32973975  1
  Sb  Sb93  1  0.00034444  0.16448219  0.49861273  1
  Sb  Sb94  1  0.33236067  0.33800294  0.00418545  1
  Sb  Sb95  1  0.83151110  0.67423317  0.50181438  1
  Sb  Sb96  1  0.66417352  -0.00357547  0.33569351  1
  Sb  Sb97  1  0.83540468  0.32699025  0.16341412  1
  Sb  Sb98  1  0.33130963  0.33012207  0.66105350  1
  Sb  Sb99  1  0.83664863  0.50408870  0.66621061  1
  Sb  Sb100  1  0.32922821  0.67189397  0.66718725  1
  Sb  Sb101  1  0.83463950  0.67350507  0.16335495  1
  Sb  Sb102  1  0.49957504  0.50400549  0.66202925  1
  Sb  Sb103  1  0.49579391  0.33085908  0.49542517  1
  Sb  Sb104  1  0.66923463  0.00158201  0.66470381  1
  Sb  Sb105  1  0.83979727  -0.00307610  0.83396250  1
  Sb  Sb106  1  0.00007367  0.66935919  0.33419934  1
  Sb  Sb107  1  0.16666272  0.00101619  0.49980169  1
  Te  Te108  1  0.16334014  0.16583025  0.16655356  1
  Te  Te109  1  0.16843229  0.17114569  0.50211116  1
  Te  Te110  1  0.16758464  0.16161630  0.82970795  1
  Te  Te111  1  0.16555782  0.49449009  0.16713622  1
  Te  Te112  1  0.16620641  0.49745334  0.49834913  1
  Te  Te113  1  0.16561179  0.49845324  0.83575987  1
  Te  Te114  1  0.16129634  0.83670955  0.16774927  1
  Te  Te115  1  0.16211603  0.83230074  0.49366872  1
  Te  Te116  1  0.16542522  0.83660987  0.83540723  1
  Te  Te117  1  0.50184925  0.16801319  0.16793783  1
  Te  Te118  1  0.49942566  0.16369691  0.49784560  1
  Te  Te119  1  0.50604125  0.16656751  0.83657910  1
  Te  Te120  1  0.50082485  0.49314559  0.17345807  1
  Te  Te121  1  0.49815283  0.50180759  0.49466183  1
  Te  Te122  1  0.49845955  0.50010409  0.83373468  1
  Te  Te123  1  0.50219759  0.83444229  0.16008496  1
  Te  Te124  1  0.49871135  0.83542826  0.50071898  1
  Te  Te125  1  0.50038709  0.83320441  0.83339740  1
  Te  Te126  1  0.83346216  0.16192677  0.16284839  1
  Te  Te127  1  0.82939409  0.16003506  0.49901762  1
  Te  Te128  1  0.82890027  0.16833553  0.83779554  1
  Te  Te129  1  0.83430069  0.49751851  0.17401357  1
  Te  Te130  1  0.83714522  0.49880004  0.49541763  1
  Te  Te131  1  0.83583586  0.50064095  0.83308976  1
  Te  Te132  1  0.83733644  0.83936271  0.16469863  1
  Te  Te133  1  0.83291481  0.83456946  0.49978321  1
  Te  Te134  1  0.83595288  0.83084574  0.83592177  1
  Te  Te135  1  0.16309264  -0.00307614  0.00092458  1
  Te  Te136  1  0.17173546  -0.00260888  0.32971796  1
  Te  Te137  1  0.16550225  0.00335272  0.66662039  1
  Te  Te138  1  0.16744700  0.33528971  0.00478468  1
  Te  Te139  1  0.17156882  0.33443717  0.33386879  1
  Te  Te140  1  0.16331485  0.32708063  0.66409040  1
  Te  Te141  1  0.16904154  0.66828171  0.00035352  1
  Te  Te142  1  0.17073539  0.66586881  0.33126523  1
  Te  Te143  1  0.15823517  0.66671905  0.66561911  1
  Te  Te144  1  0.49883753  -0.00051589  0.00065528  1
  Te  Te145  1  0.49489509  0.00211735  0.33733133  1
  Te  Te146  1  0.49664159  -0.00515078  0.66137876  1
  Te  Te147  1  0.49984496  0.32980337  0.00765615  1
  Te  Te148  1  0.49599952  0.33317577  0.33058013  1
  Te  Te149  1  0.50428525  0.33365312  0.66723493  1
  Te  Te150  1  0.49926198  0.66986535  0.00121520  1
  Te  Te151  1  0.49868775  0.66517366  0.33568416  1
  Te  Te152  1  0.49988341  0.67284233  0.65989823  1
  Te  Te153  1  0.83752205  -0.00203075  0.00110075  1
  Te  Te154  1  0.83282672  -0.00551910  0.33438271  1
  Te  Te155  1  0.83817344  -0.00561351  0.66335568  1
  Te  Te156  1  0.83322559  0.33045072  -0.00546686  1
  Te  Te157  1  0.83328930  0.33783191  0.33335883  1
  Te  Te158  1  0.83500368  0.33246240  0.67065111  1
  Te  Te159  1  0.83278607  0.66925589  -0.00274878  1
  Te  Te160  1  0.83117242  0.66833737  0.33273875  1
  Te  Te161  1  0.83764289  0.67267234  0.67153259  1
  Te  Te162  1  -0.00261469  0.16418901  0.00362193  1
  Te  Te163  1  -0.00230103  0.16748012  0.32675960  1
  Te  Te164  1  0.00291736  0.16733408  0.66650029  1
  Te  Te165  1  0.00508051  0.50156359  -0.00367704  1
  Te  Te166  1  0.00403254  0.50264552  0.33699119  1
  Te  Te167  1  -0.00028234  0.49756208  0.66671562  1
  Te  Te168  1  0.00120887  0.83479565  -0.00366687  1
  Te  Te169  1  0.00067566  0.83201185  0.34172213  1
  Te  Te170  1  0.00009482  0.83469745  0.66488533  1
  Te  Te171  1  0.33941216  0.16703944  -0.00145243  1
  Te  Te172  1  0.33771033  0.16608165  0.33785434  1
  Te  Te173  1  0.33091691  0.16189024  0.66153189  1
  Te  Te174  1  0.32902208  0.50509094  -0.00393161  1
  Te  Te175  1  0.33141476  0.50244505  0.33553548  1
  Te  Te176  1  0.33265152  0.50097055  0.66735322  1
  Te  Te177  1  0.33495499  0.83020826  -0.00361452  1
  Te  Te178  1  0.32940925  0.83051764  0.33275916  1
  Te  Te179  1  0.33374775  0.83732411  0.67201510  1
  Te  Te180  1  0.66687705  0.16598619  0.00040017  1
  Te  Te181  1  0.66087701  0.16747430  0.33838087  1
  Te  Te182  1  0.66709306  0.16959542  0.66507840  1
  Te  Te183  1  0.66633836  0.50560046  -0.00479981  1
  Te  Te184  1  0.66786888  0.50487823  0.33299774  1
  Te  Te185  1  0.66734729  0.49559185  0.67283146  1
  Te  Te186  1  0.66318782  0.83017384  0.00005938  1
  Te  Te187  1  0.66920620  0.82801745  0.33679223  1
  Te  Te188  1  0.66559498  0.83336357  0.66203241  1
  Te  Te189  1  0.00079377  -0.00185678  0.16754621  1
  Te  Te190  1  -0.00284529  -0.00303790  0.50273079  1
  Te  Te191  1  0.00360471  -0.00212598  0.83132236  1
  Te  Te192  1  0.00491205  0.33166257  0.16700283  1
  Te  Te193  1  0.00422659  0.33453867  0.50468309  1
  Te  Te194  1  -0.00399937  0.33438401  0.82884463  1
  Te  Te195  1  -0.00033133  0.67287450  0.15802346  1
  Te  Te196  1  -0.00125528  0.66548503  0.50287219  1
  Te  Te197  1  -0.00166930  0.66767821  0.83345825  1
  Te  Te198  1  0.32810468  0.00043987  0.17203824  1
  Te  Te199  1  0.33370858  0.00175133  0.50038674  1
  Te  Te200  1  0.32768724  -0.00319864  0.82920566  1
  Te  Te201  1  0.33139484  0.33281141  0.17230400  1
  Te  Te202  1  0.32950334  0.33539421  0.49671627  1
  Te  Te203  1  0.33313798  0.33896859  0.83211673  1
  Te  Te204  1  0.33406048  0.66723164  0.16656449  1
  Te  Te205  1  0.33800613  0.66320139  0.49909134  1
  Te  Te206  1  0.33543156  0.66708271  0.83521507  1
  Te  Te207  1  0.67067010  0.00798633  0.16873639  1
  Te  Te208  1  0.66600986  -0.00130765  0.49977474  1
  Te  Te209  1  0.66607842  0.00711945  0.83257683  1
  Te  Te210  1  0.66550034  0.32628437  0.16741369  1
  Te  Te211  1  0.66745412  0.33042523  0.50578465  1
  Te  Te212  1  0.67010742  0.33455018  0.83015054  1
  Te  Te213  1  0.66666360  0.66570963  0.16642878  1
  Te  Te214  1  0.66247253  0.66900985  0.49806118  1
  Te  Te215  1  0.67091210  0.66449071  0.83564452  1
