# generated using pymatgen
data_AgSbTe2
_symmetry_space_group_name_H-M   'P 1'
_cell_length_a   18.33389940
_cell_length_b   18.33822156
_cell_length_c   18.33771258
_cell_angle_alpha   90.00138661
_cell_angle_beta   89.99923297
_cell_angle_gamma   89.99901410
_symmetry_Int_Tables_number   1
_chemical_formula_structural   AgSbTe2
_chemical_formula_sum   'Ag54 Sb54 Te108'
_cell_volume   6165.34268270
_cell_formula_units_Z   54
loop_
 _symmetry_equiv_pos_site_id
 _symmetry_equiv_pos_as_xyz
  1  'x, y, z'
loop_
 _atom_site_type_symbol
 _atom_site_label
 _atom_site_symmetry_multiplicity
 _atom_site_fract_x
 _atom_site_fract_y
 _atom_site_fract_z
 _atom_site_occupancy
  Ag  Ag0  1  0.84076260  -0.00213888  0.84376643  1
  Ag  Ag1  1  0.68658411  -0.00802859  -0.00188578  1
  Ag  Ag2  1  0.16310317  -0.00289187  0.83956355  1
  Ag  Ag3  1  0.16256712  0.50745637  0.33418921  1
  Ag  Ag4  1  0.32877871  0.33297450  0.66155829  1
  Ag  Ag5  1  0.00307849  0.66794883  0.32893239  1
  Ag  Ag6  1  0.49984123  0.83227617  -0.00006147  1
  Ag  Ag7  1  0.32720581  0.83771720  0.49995872  1
  Ag  Ag8  1  0.00208521  0.16570136  0.49943739  1
  Ag  Ag9  1  0.83736752  0.50391902  0.67291405  1
  Ag  Ag10  1  0.66990037  0.67032815  0.67549853  1
  Ag  Ag11  1  0.84206140  0.83938699  0.67251902  1
  Ag  Ag12  1  0.84018987  0.15799248  0.66857218  1
  Ag  Ag13  1  0.16133443  0.83978393  0.66675772  1
  Ag  Ag14  1  0.49522941  -0.00148505  0.83693243  1
  Ag  Ag15  1  0.00069102  0.83833443  0.16194126  1
  Ag  Ag16  1  0.00031363  -0.00573855  -0.00149347  1
  Ag  Ag17  1  0.32728970  0.00089160  0.33237984  1
  Ag  Ag18  1  0.16152457  0.15858580  0.66878943  1
  Ag  Ag19  1  0.84151430  0.50522792  -0.00248030  1
  Ag  Ag20  1  0.66721907  0.67511466  -0.00326181  1
  Ag  Ag21  1  0.49071308  0.00438908  0.50845811  1
  Ag  Ag22  1  0.16204420  0.83417406  0.33604370  1
  Ag  Ag23  1  0.32572095  0.67377215  -0.00098631  1
  Ag  Ag24  1  0.49793964  0.33285988  0.16597125  1
  Ag  Ag25  1  0.84270229  0.83845321  0.32518530  1
  Ag  Ag26  1  0.83898987  0.83883797  -0.00177504  1
  Ag  Ag27  1  0.33007711  0.32891845  0.34069338  1
  Ag  Ag28  1  0.84297190  0.50205751  0.33117020  1
  Ag  Ag29  1  0.84140113  0.15246123  0.00411847  1
  Ag  Ag30  1  0.15924849  0.15103986  -0.00537720  1
  Ag  Ag31  1  0.00353568  -0.00019826  0.67212564  1
  Ag  Ag32  1  -0.00251423  0.15663118  0.16644171  1
  Ag  Ag33  1  0.16155606  0.83578418  -0.00241059  1
  Ag  Ag34  1  0.84361211  0.00106478  0.15647248  1
  Ag  Ag35  1  0.83737310  0.15671551  0.32065362  1
  Ag  Ag36  1  0.00437739  0.67513760  0.00276188  1
  Ag  Ag37  1  0.50111866  0.66601926  0.15814503  1
  Ag  Ag38  1  0.16382748  0.50587506  -0.00842199  1
  Ag  Ag39  1  0.48942559  0.32790699  0.49947772  1
  Ag  Ag40  1  0.16506764  0.66688557  0.84028591  1
  Ag  Ag41  1  0.32042845  0.50012214  0.83651416  1
  Ag  Ag42  1  0.16934180  0.33110792  0.50453931  1
  Ag  Ag43  1  0.00327747  0.50272819  0.83752452  1
  Ag  Ag44  1  0.67608076  0.16336701  0.16355059  1
  Ag  Ag45  1  0.31474752  -0.00714199  0.00185881  1
  Ag  Ag46  1  0.67033265  0.83555422  0.83797007  1
  Ag  Ag47  1  0.15918091  -0.00141976  0.15381641  1
  Ag  Ag48  1  0.16694679  0.33690126  0.83075807  1
  Ag  Ag49  1  0.49373376  0.16293443  0.66370376  1
  Ag  Ag50  1  0.00330519  0.49857893  0.50340030  1
  Ag  Ag51  1  0.16482412  0.67392382  0.50452539  1
  Ag  Ag52  1  0.49398198  0.51330957  -0.00092230  1
  Ag  Ag53  1  0.16800938  -0.00533556  0.50274383  1
  Sb  Sb54  1  0.66630492  0.33250371  -0.00006589  1
  Sb  Sb55  1  0.32427764  0.49959926  0.50351466  1
  Sb  Sb56  1  -0.00072485  0.67022161  0.66835166  1
  Sb  Sb57  1  0.33196492  0.66406406  0.67159016  1
  Sb  Sb58  1  0.16641001  0.67265035  0.16150291  1
  Sb  Sb59  1  0.33020305  0.16519628  0.16573831  1
  Sb  Sb60  1  0.67188819  -0.00324121  0.67346948  1
  Sb  Sb61  1  0.66417268  0.33414243  0.66649394  1
  Sb  Sb62  1  0.00187182  0.33141341  -0.00052377  1
  Sb  Sb63  1  0.32494236  0.66835403  0.32851512  1
  Sb  Sb64  1  0.66580206  -0.00113984  0.32821498  1
  Sb  Sb65  1  0.33156212  0.50057345  0.16042533  1
  Sb  Sb66  1  0.66834896  0.15864442  0.83747959  1
  Sb  Sb67  1  0.67086951  0.50835062  0.83607175  1
  Sb  Sb68  1  0.84166935  0.66756064  0.50043996  1
  Sb  Sb69  1  0.00513264  0.33676697  0.33436982  1
  Sb  Sb70  1  0.83903031  -0.00039228  0.50031648  1
  Sb  Sb71  1  0.49491263  0.49858894  0.32914150  1
  Sb  Sb72  1  0.32489119  0.00231425  0.66825684  1
  Sb  Sb73  1  0.66418525  0.33312228  0.33245220  1
  Sb  Sb74  1  0.83699508  0.33262237  0.50049572  1
  Sb  Sb75  1  0.83252470  0.67277358  0.16184947  1
  Sb  Sb76  1  0.32526309  0.16314573  0.50124074  1
  Sb  Sb77  1  0.49745962  0.83945810  0.67239934  1
  Sb  Sb78  1  0.16942550  0.32835920  0.16676858  1
  Sb  Sb79  1  0.83162401  0.32615823  0.16654206  1
  Sb  Sb80  1  0.49609521  0.83442955  0.32805063  1
  Sb  Sb81  1  0.67485000  0.66914928  0.32858363  1
  Sb  Sb82  1  0.66381060  0.83483937  0.50513179  1
  Sb  Sb83  1  0.50238595  0.49742805  0.67140426  1
  Sb  Sb84  1  0.67310676  0.50133705  0.50190912  1
  Sb  Sb85  1  0.83962920  0.67308887  0.83550793  1
  Sb  Sb86  1  0.16095431  0.16235453  0.33508838  1
  Sb  Sb87  1  0.16094314  0.49931819  0.66968157  1
  Sb  Sb88  1  0.67113026  0.16465626  0.49849492  1
  Sb  Sb89  1  0.32578000  0.83434556  0.16534702  1
  Sb  Sb90  1  0.66796629  0.49779488  0.16385072  1
  Sb  Sb91  1  0.49266526  0.66724883  0.49737305  1
  Sb  Sb92  1  0.32879688  0.16654170  0.83263991  1
  Sb  Sb93  1  0.49656266  0.67160070  0.84002927  1
  Sb  Sb94  1  0.32977582  0.83250921  0.83436460  1
  Sb  Sb95  1  0.00256786  0.16477602  0.83382178  1
  Sb  Sb96  1  0.00048577  0.50146976  0.16461910  1
  Sb  Sb97  1  0.67269964  0.83830245  0.15697368  1
  Sb  Sb98  1  0.49196299  0.32960659  0.83332389  1
  Sb  Sb99  1  0.00550669  -0.00433596  0.32914546  1
  Sb  Sb100  1  0.49974208  0.16038857  -0.00243292  1
  Sb  Sb101  1  0.49798331  -0.00052820  0.15973901  1
  Sb  Sb102  1  -0.00045832  0.83336665  0.83983074  1
  Sb  Sb103  1  0.33132404  0.33355356  -0.00097722  1
  Sb  Sb104  1  0.00655503  0.32758863  0.66650972  1
  Sb  Sb105  1  0.50269684  0.16597771  0.33639071  1
  Sb  Sb106  1  0.00704516  0.83524933  0.49707652  1
  Sb  Sb107  1  0.84057985  0.33017363  0.83299737  1
  Te  Te108  1  0.16243689  0.16106327  0.16328497  1
  Te  Te109  1  0.16194987  0.17060967  0.50189257  1
  Te  Te110  1  0.16636956  0.16363837  0.83317023  1
  Te  Te111  1  0.16552102  0.49778550  0.17153901  1
  Te  Te112  1  0.16296535  0.49753946  0.50052035  1
  Te  Te113  1  0.16421028  0.50285251  0.83107011  1
  Te  Te114  1  0.16256059  0.83841776  0.16622529  1
  Te  Te115  1  0.16689425  0.83287795  0.49911321  1
  Te  Te116  1  0.16681656  0.83453026  0.83429795  1
  Te  Te117  1  0.50214938  0.16932920  0.16729905  1
  Te  Te118  1  0.50292757  0.16591076  0.50314167  1
  Te  Te119  1  0.50012705  0.16087274  0.82683459  1
  Te  Te120  1  0.50028124  0.49878202  0.16098108  1
  Te  Te121  1  0.50007616  0.49616268  0.49971909  1
  Te  Te122  1  0.50070722  0.49897735  0.83976264  1
  Te  Te123  1  0.50097599  0.83050699  0.16057503  1
  Te  Te124  1  0.49404960  0.83691202  0.49862339  1
  Te  Te125  1  0.50118866  0.83853398  0.83906671  1
  Te  Te126  1  0.83550654  0.16392828  0.16386536  1
  Te  Te127  1  0.83882512  0.16750754  0.50689696  1
  Te  Te128  1  0.83469296  0.16254571  0.83310782  1
  Te  Te129  1  0.83437185  0.49768574  0.16691236  1
  Te  Te130  1  0.83998673  0.49964229  0.49833971  1
  Te  Te131  1  0.83741615  0.49873280  0.83316272  1
  Te  Te132  1  0.83773262  0.83796704  0.16558447  1
  Te  Te133  1  0.83145879  0.83310623  0.50351987  1
  Te  Te134  1  0.83244670  0.83715902  0.83315349  1
  Te  Te135  1  0.15943608  -0.00393178  -0.00209749  1
  Te  Te136  1  0.16976154  -0.00209101  0.34350227  1
  Te  Te137  1  0.16535087  0.00010170  0.66415175  1
  Te  Te138  1  0.16852966  0.34390301  -0.00267487  1
  Te  Te139  1  0.17128519  0.33216336  0.33501142  1
  Te  Te140  1  0.16935577  0.33277969  0.66699729  1
  Te  Te141  1  0.16565674  0.66651918  0.00110760  1
  Te  Te142  1  0.16326690  0.66810788  0.33001080  1
  Te  Te143  1  0.16756160  0.67287458  0.66561669  1
  Te  Te144  1  0.49710516  -0.00330146  -0.00376794  1
  Te  Te145  1  0.49336278  -0.00080451  0.33507704  1
  Te  Te146  1  0.50118129  0.00342081  0.66916130  1
  Te  Te147  1  0.49906635  0.33207396  0.00335653  1
  Te  Te148  1  0.49476539  0.33346275  0.33494187  1
  Te  Te149  1  0.49658638  0.32902116  0.66429341  1
  Te  Te150  1  0.50065405  0.66980582  -0.00033744  1
  Te  Te151  1  0.50062910  0.66524878  0.32732389  1
  Te  Te152  1  0.50521285  0.66741981  0.66622356  1
  Te  Te153  1  0.84121790  -0.00205842  0.00017153  1
  Te  Te154  1  0.83261509  -0.00136412  0.33295032  1
  Te  Te155  1  0.83755493  -0.00167747  0.66589370  1
  Te  Te156  1  0.83251273  0.34385899  -0.00082662  1
  Te  Te157  1  0.83294527  0.33732879  0.33414184  1
  Te  Te158  1  0.83306201  0.33393693  0.66679714  1
  Te  Te159  1  0.83575934  0.66441905  -0.00054721  1
  Te  Te160  1  0.83973479  0.66676628  0.33211903  1
  Te  Te161  1  0.83129844  0.66810624  0.66790583  1
  Te  Te162  1  0.00028752  0.16614056  0.00026663  1
  Te  Te163  1  -0.00490930  0.16782851  0.33544725  1
  Te  Te164  1  0.00191224  0.16269108  0.66611535  1
  Te  Te165  1  0.00227187  0.49965953  0.00024013  1
  Te  Te166  1  0.00200816  0.50264303  0.33154370  1
  Te  Te167  1  -0.00461970  0.50179626  0.66305909  1
  Te  Te168  1  -0.00021854  0.83286750  0.00054351  1
  Te  Te169  1  0.00073465  0.82979658  0.33181426  1
  Te  Te170  1  0.00091697  0.83691948  0.66415311  1
  Te  Te171  1  0.32708749  0.16101450  -0.00025999  1
  Te  Te172  1  0.33386900  0.16507556  0.33347231  1
  Te  Te173  1  0.33266914  0.17187667  0.66685819  1
  Te  Te174  1  0.33267398  0.50049093  -0.00389183  1
  Te  Te175  1  0.32655237  0.49757064  0.33432766  1
  Te  Te176  1  0.33613161  0.49594565  0.67334070  1
  Te  Te177  1  0.32967612  0.83375347  -0.00048360  1
  Te  Te178  1  0.32833506  0.83686031  0.33607919  1
  Te  Te179  1  0.32907525  0.83253218  0.66243014  1
  Te  Te180  1  0.67039995  0.16457542  0.00337031  1
  Te  Te181  1  0.67641255  0.16618539  0.32845185  1
  Te  Te182  1  0.67382491  0.16592963  0.66703696  1
  Te  Te183  1  0.66656042  0.50410739  -0.00019633  1
  Te  Te184  1  0.67546604  0.50112420  0.33345553  1
  Te  Te185  1  0.67404417  0.50593156  0.66791505  1
  Te  Te186  1  0.67055063  0.83414523  -0.00160439  1
  Te  Te187  1  0.67492591  0.83292364  0.33386367  1
  Te  Te188  1  0.66731551  0.82948285  0.67192095  1
  Te  Te189  1  0.00088810  -0.00076402  0.16891538  1
  Te  Te190  1  0.00409310  0.00398533  0.50285445  1
  Te  Te191  1  0.00121304  -0.00038447  0.83284385  1
  Te  Te192  1  0.00023753  0.32155376  0.16732035  1
  Te  Te193  1  0.00511102  0.33381064  0.50042496  1
  Te  Te194  1  0.00765537  0.34359869  0.83249646  1
  Te  Te195  1  -0.00058657  0.67113345  0.16475746  1
  Te  Te196  1  0.00656869  0.66226389  0.49782846  1
  Te  Te197  1  0.00569514  0.66135942  0.83656957  1
  Te  Te198  1  0.32945951  -0.00033168  0.16684506  1
  Te  Te199  1  0.33201286  -0.00153270  0.50170034  1
  Te  Te200  1  0.33009397  -0.00056825  0.83759128  1
  Te  Te201  1  0.33788105  0.33293132  0.17233639  1
  Te  Te202  1  0.33126573  0.33377331  0.49999525  1
  Te  Te203  1  0.32709235  0.33777931  0.83056472  1
  Te  Te204  1  0.34013465  0.66757744  0.16001186  1
  Te  Te205  1  0.32620663  0.67105722  0.49939656  1
  Te  Te206  1  0.32805629  0.66244598  0.83819904  1
  Te  Te207  1  0.66648963  0.00428897  0.16109863  1
  Te  Te208  1  0.65644326  0.00007917  0.49904655  1
  Te  Te209  1  0.67015777  -0.00478529  0.83891535  1
  Te  Te210  1  0.65938057  0.32627146  0.16717689  1
  Te  Te211  1  0.65627896  0.33312812  0.49984333  1
  Te  Te212  1  0.66523947  0.33400151  0.83275292  1
  Te  Te213  1  0.66257232  0.66644995  0.16084533  1
  Te  Te214  1  0.66356038  0.66681916  0.50277066  1
  Te  Te215  1  0.66656164  0.67371020  0.83639719  1
