# generated using pymatgen
data_AgSbTe2
_symmetry_space_group_name_H-M   'P 1'
_cell_length_a   18.33228069
_cell_length_b   18.33510095
_cell_length_c   18.32506635
_cell_angle_alpha   90.00109198
_cell_angle_beta   89.99981675
_cell_angle_gamma   89.99921276
_symmetry_Int_Tables_number   1
_chemical_formula_structural   AgSbTe2
_chemical_formula_sum   'Ag54 Sb54 Te108'
_cell_volume   6159.49857866
_cell_formula_units_Z   54
loop_
 _symmetry_equiv_pos_site_id
 _symmetry_equiv_pos_as_xyz
  1  'x, y, z'
loop_
 _atom_site_type_symbol
 _atom_site_label
 _atom_site_symmetry_multiplicity
 _atom_site_fract_x
 _atom_site_fract_y
 _atom_site_fract_z
 _atom_site_occupancy
  Ag  Ag0  1  0.16034949  0.82738531  0.66166103  1
  Ag  Ag1  1  0.33228185  0.49906411  0.16027807  1
  Ag  Ag2  1  0.16543821  0.33616504  0.49884672  1
  Ag  Ag3  1  0.00406129  -0.01193781  0.66080004  1
  Ag  Ag4  1  0.66874842  0.83231360  0.83152724  1
  Ag  Ag5  1  0.33632796  0.34238126  0.00229087  1
  Ag  Ag6  1  0.66260918  0.66868324  0.00015188  1
  Ag  Ag7  1  0.49997617  0.66824580  0.50278159  1
  Ag  Ag8  1  0.17089096  0.33126238  0.17183054  1
  Ag  Ag9  1  0.84519187  0.83053152  0.66745345  1
  Ag  Ag10  1  0.83790325  0.67291396  0.50493252  1
  Ag  Ag11  1  0.16501983  0.16633294  0.33194344  1
  Ag  Ag12  1  0.50041691  0.17147958  0.33182576  1
  Ag  Ag13  1  0.83870309  -0.00608376  0.50020305  1
  Ag  Ag14  1  0.16668153  0.16886478  0.00824980  1
  Ag  Ag15  1  0.16738020  0.66476821  0.17202584  1
  Ag  Ag16  1  0.16173170  0.01068867  0.17049954  1
  Ag  Ag17  1  0.84258144  0.00037375  0.17373066  1
  Ag  Ag18  1  0.49788409  0.83002606  0.66949156  1
  Ag  Ag19  1  0.32175562  -0.01302480  0.66652076  1
  Ag  Ag20  1  0.33414459  0.66173886  -0.00420221  1
  Ag  Ag21  1  0.00293457  0.33430869  0.66500902  1
  Ag  Ag22  1  0.49851313  -0.00355067  0.83071321  1
  Ag  Ag23  1  0.16533950  0.83031267  0.34329927  1
  Ag  Ag24  1  0.32171457  0.83113314  0.50692882  1
  Ag  Ag25  1  0.49532434  0.33428990  0.16656787  1
  Ag  Ag26  1  0.00327722  0.67371601  0.66675650  1
  Ag  Ag27  1  0.16039083  0.16527866  0.65938334  1
  Ag  Ag28  1  0.67001939  0.16835723  0.17034851  1
  Ag  Ag29  1  0.00017756  0.00208061  0.34261389  1
  Ag  Ag30  1  0.84496758  0.16249221  0.66436678  1
  Ag  Ag31  1  0.00255986  0.15881642  0.50508545  1
  Ag  Ag32  1  0.66018873  0.33793277  0.00557228  1
  Ag  Ag33  1  0.49539680  0.50531919  0.00287138  1
  Ag  Ag34  1  0.66230235  0.32861444  0.32856117  1
  Ag  Ag35  1  0.16285179  0.50820698  0.66185696  1
  Ag  Ag36  1  0.33062087  0.49957878  0.83709783  1
  Ag  Ag37  1  0.67216142  0.66901908  0.66366074  1
  Ag  Ag38  1  0.67272961  0.00165790  0.33113095  1
  Ag  Ag39  1  0.50336581  0.82380794  -0.00737505  1
  Ag  Ag40  1  0.49529763  0.49685870  0.32724411  1
  Ag  Ag41  1  -0.00284928  0.82949864  0.82128381  1
  Ag  Ag42  1  0.16578460  0.67012941  0.50197499  1
  Ag  Ag43  1  0.67138403  0.33766622  0.66548276  1
  Ag  Ag44  1  0.00721696  0.50931799  0.82652933  1
  Ag  Ag45  1  0.83186602  0.83098113  -0.00763143  1
  Ag  Ag46  1  0.32260973  0.67058847  0.66653191  1
  Ag  Ag47  1  0.66442443  0.66729793  0.33886571  1
  Ag  Ag48  1  0.00597189  0.16358327  0.17384094  1
  Ag  Ag49  1  0.33150749  0.16927713  0.83285652  1
  Ag  Ag50  1  0.84638509  0.51179510  0.66675439  1
  Ag  Ag51  1  0.00386889  0.83710392  0.50774354  1
  Ag  Ag52  1  0.16983179  0.50116052  0.33707035  1
  Ag  Ag53  1  0.00490839  0.66788876  -0.00871370  1
  Sb  Sb54  1  0.16616720  0.66588162  0.82870202  1
  Sb  Sb55  1  0.83695865  0.16324126  -0.00155049  1
  Sb  Sb56  1  0.15880116  -0.00405044  0.49777445  1
  Sb  Sb57  1  0.00909864  0.49660864  0.16247590  1
  Sb  Sb58  1  0.66168790  0.49550063  0.16662270  1
  Sb  Sb59  1  0.00251274  0.33774095  -0.00411120  1
  Sb  Sb60  1  0.67153373  -0.00434619  0.66274467  1
  Sb  Sb61  1  0.66188960  0.16316355  0.83528159  1
  Sb  Sb62  1  0.66698848  -0.00212037  0.00408490  1
  Sb  Sb63  1  0.00512851  0.16401831  0.82733664  1
  Sb  Sb64  1  0.00203243  0.32860474  0.33861246  1
  Sb  Sb65  1  0.49706015  0.50648215  0.66688533  1
  Sb  Sb66  1  0.33076589  0.82826172  0.16763623  1
  Sb  Sb67  1  0.49817297  0.16401677  0.66205292  1
  Sb  Sb68  1  0.83593102  0.16443125  0.33755627  1
  Sb  Sb69  1  0.49634950  0.16887931  0.00428378  1
  Sb  Sb70  1  0.83302344  0.33310906  0.83042853  1
  Sb  Sb71  1  0.16929360  0.00035018  0.82898338  1
  Sb  Sb72  1  0.66598178  0.50168849  0.50058370  1
  Sb  Sb73  1  0.33289594  0.83108505  0.82726077  1
  Sb  Sb74  1  0.83463958  0.66887511  0.82488956  1
  Sb  Sb75  1  0.32844548  0.00017480  0.33928788  1
  Sb  Sb76  1  0.00156617  -0.00524364  -0.00198622  1
  Sb  Sb77  1  0.32437677  0.16079800  0.50403591  1
  Sb  Sb78  1  0.83741741  0.83571869  0.33813789  1
  Sb  Sb79  1  0.49777150  0.83167284  0.33564743  1
  Sb  Sb80  1  0.49642089  0.66126503  0.16689987  1
  Sb  Sb81  1  0.00193598  0.83815524  0.16783078  1
  Sb  Sb82  1  0.00311700  0.50450288  0.50661470  1
  Sb  Sb83  1  0.82945240  0.50818628  -0.00590207  1
  Sb  Sb84  1  0.67153151  0.16676592  0.49677486  1
  Sb  Sb85  1  0.49914978  0.33109308  0.83804002  1
  Sb  Sb86  1  0.33207643  -0.00198363  -0.00493460  1
  Sb  Sb87  1  0.00195632  0.67140925  0.33857835  1
  Sb  Sb88  1  0.83190129  -0.00388349  0.82946378  1
  Sb  Sb89  1  0.16678698  0.83195590  -0.00236452  1
  Sb  Sb90  1  0.83370803  0.32815156  0.16825478  1
  Sb  Sb91  1  0.33357702  0.66473251  0.33736312  1
  Sb  Sb92  1  0.49978298  0.67148914  0.83071455  1
  Sb  Sb93  1  0.83433391  0.50170610  0.33900815  1
  Sb  Sb94  1  0.67056870  0.82972029  0.50540510  1
  Sb  Sb95  1  0.50495783  -0.00487344  0.50234888  1
  Sb  Sb96  1  0.83694397  0.67166584  0.16927318  1
  Sb  Sb97  1  0.49589091  0.33752402  0.49554187  1
  Sb  Sb98  1  0.66710435  0.83490718  0.16386226  1
  Sb  Sb99  1  0.33288541  0.33416052  0.32816658  1
  Sb  Sb100  1  0.16748484  0.33319472  0.83104986  1
  Sb  Sb101  1  0.32986168  0.50540376  0.50246005  1
  Sb  Sb102  1  0.17341338  0.49912612  -0.00055064  1
  Sb  Sb103  1  0.49756501  0.00500051  0.16508231  1
  Sb  Sb104  1  0.32846546  0.17112025  0.16318640  1
  Sb  Sb105  1  0.33009894  0.33665114  0.67060813  1
  Sb  Sb106  1  0.83909014  0.33317294  0.50444718  1
  Sb  Sb107  1  0.66481977  0.50511642  0.83197891  1
  Te  Te108  1  0.16686427  0.16948205  0.16868798  1
  Te  Te109  1  0.16309469  0.16910846  0.49954208  1
  Te  Te110  1  0.17196854  0.16631402  0.83271307  1
  Te  Te111  1  0.17076258  0.49849257  0.16780220  1
  Te  Te112  1  0.16690895  0.50018057  0.49918068  1
  Te  Te113  1  0.16693211  0.49913788  0.82882264  1
  Te  Te114  1  0.16725075  0.82744372  0.16830069  1
  Te  Te115  1  0.16504815  0.83224397  0.50096438  1
  Te  Te116  1  0.16022417  0.83478887  0.82817089  1
  Te  Te117  1  0.50152213  0.17184375  0.17156437  1
  Te  Te118  1  0.49817675  0.16763497  0.49241862  1
  Te  Te119  1  0.49453207  0.16084654  0.83268665  1
  Te  Te120  1  0.49635742  0.49569646  0.16655023  1
  Te  Te121  1  0.49708077  0.50592729  0.49362941  1
  Te  Te122  1  0.49562096  0.49867327  0.83859873  1
  Te  Te123  1  0.49864992  0.83423655  0.16175188  1
  Te  Te124  1  0.49995222  0.82806145  0.50229843  1
  Te  Te125  1  0.49851359  0.83602764  0.83336586  1
  Te  Te126  1  0.83491678  0.16118512  0.16493123  1
  Te  Te127  1  0.83926822  0.16465384  0.50515306  1
  Te  Te128  1  0.83156665  0.16404806  0.82601022  1
  Te  Te129  1  0.83696729  0.50032541  0.16671010  1
  Te  Te130  1  0.83443801  0.50545630  0.50737584  1
  Te  Te131  1  0.83695009  0.49984832  0.82574965  1
  Te  Te132  1  0.83405592  0.84003466  0.16404767  1
  Te  Te133  1  0.83649963  0.83309417  0.50424168  1
  Te  Te134  1  0.83330829  0.83386486  0.83203445  1
  Te  Te135  1  0.16731453  0.00291385  0.00696519  1
  Te  Te136  1  0.16425740  0.00294621  0.33061746  1
  Te  Te137  1  0.16508889  0.00290501  0.66499791  1
  Te  Te138  1  0.16784214  0.33054949  0.00436372  1
  Te  Te139  1  0.16606472  0.33357120  0.33331354  1
  Te  Te140  1  0.16640720  0.33067152  0.66414081  1
  Te  Te141  1  0.16714433  0.66658687  0.00453086  1
  Te  Te142  1  0.16665144  0.66561889  0.33483280  1
  Te  Te143  1  0.16419162  0.66752648  0.66460344  1
  Te  Te144  1  0.49914868  -0.00236313  -0.00415493  1
  Te  Te145  1  0.50207531  0.00274044  0.33348149  1
  Te  Te146  1  0.50153456  -0.00368952  0.66848214  1
  Te  Te147  1  0.49978306  0.33367634  0.00427213  1
  Te  Te148  1  0.50211370  0.33531321  0.33066355  1
  Te  Te149  1  0.50508267  0.33449115  0.66497358  1
  Te  Te150  1  0.49985688  0.66526083  0.00128567  1
  Te  Te151  1  0.50314005  0.66421082  0.33547229  1
  Te  Te152  1  0.50427209  0.66851382  0.66364971  1
  Te  Te153  1  0.83372692  -0.00582058  0.00387677  1
  Te  Te154  1  0.83565418  0.00023494  0.33367317  1
  Te  Te155  1  0.83656470  -0.00302200  0.66336119  1
  Te  Te156  1  0.82779873  0.33444998  -0.00026442  1
  Te  Te157  1  0.82328935  0.33482637  0.33618868  1
  Te  Te158  1  0.83122240  0.33108695  0.66530750  1
  Te  Te159  1  0.82997559  0.67201176  0.00369089  1
  Te  Te160  1  0.82758416  0.66719209  0.33925336  1
  Te  Te161  1  0.83259024  0.66951238  0.66324789  1
  Te  Te162  1  0.00466463  0.16759911  -0.00224443  1
  Te  Te163  1  0.00260294  0.16395680  0.33330742  1
  Te  Te164  1  0.00200971  0.17125569  0.66739449  1
  Te  Te165  1  -0.00160798  0.50684388  -0.00734658  1
  Te  Te166  1  0.00559983  0.49831077  0.33242104  1
  Te  Te167  1  0.00255527  0.49777182  0.66740452  1
  Te  Te168  1  -0.00256252  0.82715661  -0.00052545  1
  Te  Te169  1  0.00499469  0.83941856  0.33588497  1
  Te  Te170  1  0.00067329  0.83198374  0.66499074  1
  Te  Te171  1  0.32888715  0.16555917  -0.00408168  1
  Te  Te172  1  0.33086362  0.16612156  0.33468307  1
  Te  Te173  1  0.33107692  0.16814142  0.67139449  1
  Te  Te174  1  0.33443854  0.50115190  -0.00102498  1
  Te  Te175  1  0.33150078  0.50017298  0.33022516  1
  Te  Te176  1  0.32865208  0.50479587  0.67089532  1
  Te  Te177  1  0.33654845  0.82782168  -0.00153352  1
  Te  Te178  1  0.32742353  0.83296239  0.33912681  1
  Te  Te179  1  0.33519718  0.83073655  0.66705282  1
  Te  Te180  1  0.66699582  0.17078031  0.00373301  1
  Te  Te181  1  0.66814527  0.16718526  0.33121731  1
  Te  Te182  1  0.66713649  0.16869092  0.66667499  1
  Te  Te183  1  0.66169498  0.50004572  -0.00077820  1
  Te  Te184  1  0.66591764  0.50352209  0.33321900  1
  Te  Te185  1  0.66566968  0.50213047  0.66824244  1
  Te  Te186  1  0.66524095  0.83108265  -0.00315086  1
  Te  Te187  1  0.66612597  0.83095660  0.33251436  1
  Te  Te188  1  0.65924487  0.83107480  0.67078305  1
  Te  Te189  1  0.00148256  0.00417524  0.16422294  1
  Te  Te190  1  -0.00311039  -0.00065811  0.50101715  1
  Te  Te191  1  0.00027138  -0.00545195  0.82725961  1
  Te  Te192  1  0.00256307  0.32694155  0.16576420  1
  Te  Te193  1  0.00528180  0.32740528  0.50440572  1
  Te  Te194  1  -0.00029108  0.33644732  0.82717620  1
  Te  Te195  1  0.00508292  0.66554642  0.16792542  1
  Te  Te196  1  0.00183305  0.67090457  0.50272701  1
  Te  Te197  1  0.00009763  0.66784480  0.83200236  1
  Te  Te198  1  0.32725802  -0.00115880  0.16771956  1
  Te  Te199  1  0.33725633  -0.00670711  0.50746998  1
  Te  Te200  1  0.33587012  0.00196148  0.82753688  1
  Te  Te201  1  0.33258798  0.33641547  0.16245317  1
  Te  Te202  1  0.32688073  0.33297953  0.50116342  1
  Te  Te203  1  0.33370610  0.33487884  0.84027949  1
  Te  Te204  1  0.32909632  0.66130291  0.16416045  1
  Te  Te205  1  0.33019366  0.67043804  0.50402911  1
  Te  Te206  1  0.33337392  0.66254444  0.83277263  1
  Te  Te207  1  0.66575046  0.00526364  0.17160404  1
  Te  Te208  1  0.67374687  -0.00076779  0.49229582  1
  Te  Te209  1  0.66143822  -0.00530666  0.83401837  1
  Te  Te210  1  0.66748161  0.32969774  0.16723803  1
  Te  Te211  1  0.66529467  0.33381586  0.50253564  1
  Te  Te212  1  0.66556108  0.33256331  0.83169110  1
  Te  Te213  1  0.66789762  0.66587176  0.16410207  1
  Te  Te214  1  0.66505853  0.66659203  0.50165644  1
  Te  Te215  1  0.66634824  0.67199436  0.83618163  1
