# generated using pymatgen
data_AgSbTe2
_symmetry_space_group_name_H-M   'P 1'
_cell_length_a   18.32264043
_cell_length_b   18.32433166
_cell_length_c   18.32575856
_cell_angle_alpha   89.99921918
_cell_angle_beta   89.99800174
_cell_angle_gamma   90.00004004
_symmetry_Int_Tables_number   1
_chemical_formula_structural   AgSbTe2
_chemical_formula_sum   'Ag54 Sb54 Te108'
_cell_volume   6152.87600146
_cell_formula_units_Z   54
loop_
 _symmetry_equiv_pos_site_id
 _symmetry_equiv_pos_as_xyz
  1  'x, y, z'
loop_
 _atom_site_type_symbol
 _atom_site_label
 _atom_site_symmetry_multiplicity
 _atom_site_fract_x
 _atom_site_fract_y
 _atom_site_fract_z
 _atom_site_occupancy
  Ag  Ag0  1  0.83348500  0.67058362  0.50124193  1
  Ag  Ag1  1  0.66592128  0.33339193  0.00041373  1
  Ag  Ag2  1  0.17180644  0.00137468  0.49474830  1
  Ag  Ag3  1  0.32650886  0.66625033  0.67278344  1
  Ag  Ag4  1  0.83793228  -0.00693073  0.83949533  1
  Ag  Ag5  1  0.67157707  -0.00208718  0.00029188  1
  Ag  Ag6  1  0.00403567  0.33242195  -0.00120467  1
  Ag  Ag7  1  0.32888030  0.00249132  0.66214574  1
  Ag  Ag8  1  0.17131437  0.16152932  0.66458241  1
  Ag  Ag9  1  0.49048455  0.83585435  0.32656709  1
  Ag  Ag10  1  0.49591123  0.66952376  0.49977658  1
  Ag  Ag11  1  0.48767468  0.67224351  0.83465938  1
  Ag  Ag12  1  0.48768009  0.16242656  0.33225969  1
  Ag  Ag13  1  0.32947626  0.83757848  0.49831077  1
  Ag  Ag14  1  0.83569331  0.50452151  0.66564183  1
  Ag  Ag15  1  0.32988455  0.66474069  -0.00747855  1
  Ag  Ag16  1  0.32986625  0.50561614  0.83787603  1
  Ag  Ag17  1  0.16596312  0.82877786  0.00286866  1
  Ag  Ag18  1  0.33136228  0.32669607  0.33710071  1
  Ag  Ag19  1  0.33046530  0.33137699  0.66512658  1
  Ag  Ag20  1  0.66023024  0.33428037  0.66804222  1
  Ag  Ag21  1  0.84234015  -0.00363065  0.15886605  1
  Ag  Ag22  1  0.84368696  0.67092414  0.83008200  1
  Ag  Ag23  1  0.00834365  0.66770632  0.66809605  1
  Ag  Ag24  1  0.16903628  -0.00833807  0.17153244  1
  Ag  Ag25  1  0.32896366  0.15991040  0.49988505  1
  Ag  Ag26  1  0.00560063  0.83112864  0.16109739  1
  Ag  Ag27  1  0.32798128  0.50012485  0.16140141  1
  Ag  Ag28  1  0.49501425  0.83291984  0.00188730  1
  Ag  Ag29  1  0.00274198  0.83398842  0.84155042  1
  Ag  Ag30  1  0.01032955  0.50890286  0.16662635  1
  Ag  Ag31  1  0.17102035  0.83431340  0.32917348  1
  Ag  Ag32  1  0.17142900  0.16444947  0.33902619  1
  Ag  Ag33  1  0.84818003  0.83562405  -0.00177189  1
  Ag  Ag34  1  0.32729953  0.16842310  0.82552342  1
  Ag  Ag35  1  0.49833815  0.33199036  0.16785733  1
  Ag  Ag36  1  0.49458530  -0.00198280  0.16368932  1
  Ag  Ag37  1  0.00355627  0.66634581  0.33424329  1
  Ag  Ag38  1  0.17029441  0.50882752  0.00585654  1
  Ag  Ag39  1  0.65751243  0.33778993  0.33168200  1
  Ag  Ag40  1  0.83847443  -0.00635641  0.49995635  1
  Ag  Ag41  1  0.32895371  0.00573782  0.33685574  1
  Ag  Ag42  1  0.83898969  0.50607384  0.33318029  1
  Ag  Ag43  1  0.49568798  -0.00689398  0.84270625  1
  Ag  Ag44  1  0.16990099  0.66652537  0.83984375  1
  Ag  Ag45  1  0.17027418  0.33546253  0.83211687  1
  Ag  Ag46  1  0.16901055  0.83379980  0.66739879  1
  Ag  Ag47  1  0.16619223  0.67045529  0.16156583  1
  Ag  Ag48  1  0.66924271  0.66316766  0.33392173  1
  Ag  Ag49  1  0.00919551  0.15851797  0.83485017  1
  Ag  Ag50  1  0.48733703  0.50579837  0.00032223  1
  Ag  Ag51  1  -0.00088350  -0.00737973  -0.00037558  1
  Ag  Ag52  1  0.16654523  0.50514713  0.32533489  1
  Ag  Ag53  1  0.17158876  0.32638388  0.50178356  1
  Sb  Sb54  1  0.66438906  0.16639098  0.83347441  1
  Sb  Sb55  1  0.66147423  -0.00072257  0.32869829  1
  Sb  Sb56  1  0.00893189  0.67078660  -0.00101395  1
  Sb  Sb57  1  0.33080176  0.50136309  0.49969222  1
  Sb  Sb58  1  0.84138492  0.16792187  0.66778131  1
  Sb  Sb59  1  0.00692533  0.83237164  0.49870490  1
  Sb  Sb60  1  0.66885726  0.83406986  0.16573204  1
  Sb  Sb61  1  0.83784656  0.50642197  0.00096231  1
  Sb  Sb62  1  0.67024703  0.83334617  0.83544702  1
  Sb  Sb63  1  0.83837357  0.33551422  0.83476668  1
  Sb  Sb64  1  0.49884708  0.50153869  0.67233048  1
  Sb  Sb65  1  0.16735312  0.16466250  -0.00074452  1
  Sb  Sb66  1  0.66097132  0.66856973  0.00336734  1
  Sb  Sb67  1  0.66738791  0.49982959  0.49879065  1
  Sb  Sb68  1  0.33194854  0.34037027  -0.00045735  1
  Sb  Sb69  1  0.84240498  0.67048780  0.16569310  1
  Sb  Sb70  1  0.00157483  0.50259077  0.49510252  1
  Sb  Sb71  1  0.16552462  0.50257664  0.66803210  1
  Sb  Sb72  1  0.32963655  0.66760070  0.33452472  1
  Sb  Sb73  1  0.00691451  0.50500736  0.83855899  1
  Sb  Sb74  1  0.49191352  0.66890923  0.16558391  1
  Sb  Sb75  1  0.83585172  0.16729532  0.33515665  1
  Sb  Sb76  1  0.66234091  0.50016588  0.83459832  1
  Sb  Sb77  1  0.00390861  0.16398755  0.16193310  1
  Sb  Sb78  1  0.00674656  0.33903884  0.32757160  1
  Sb  Sb79  1  0.83485342  0.15727282  -0.00135298  1
  Sb  Sb80  1  0.16796058  -0.00241265  0.83383702  1
  Sb  Sb81  1  0.33118316  -0.00603001  0.00038638  1
  Sb  Sb82  1  0.83051735  0.33144986  0.16572347  1
  Sb  Sb83  1  0.32626690  0.83112291  0.17006119  1
  Sb  Sb84  1  0.49240597  0.33342768  0.83819189  1
  Sb  Sb85  1  0.49303774  0.33704371  0.49492019  1
  Sb  Sb86  1  0.49034309  0.83254405  0.66941899  1
  Sb  Sb87  1  0.66702819  0.66311831  0.66364171  1
  Sb  Sb88  1  0.84153707  0.82862108  0.67062791  1
  Sb  Sb89  1  0.66469360  0.49973353  0.16664645  1
  Sb  Sb90  1  0.66373437  0.00484874  0.67135244  1
  Sb  Sb91  1  0.00987102  0.16402719  0.50413021  1
  Sb  Sb92  1  0.83712893  0.33538807  0.49978118  1
  Sb  Sb93  1  0.49508494  0.50204170  0.32762952  1
  Sb  Sb94  1  0.49261394  -0.00447983  0.49781400  1
  Sb  Sb95  1  0.33203593  0.16965751  0.16922327  1
  Sb  Sb96  1  0.17121900  0.33764147  0.16543246  1
  Sb  Sb97  1  0.32676717  0.83127584  0.83069055  1
  Sb  Sb98  1  0.48899491  0.16644601  0.66362402  1
  Sb  Sb99  1  0.66451222  0.16587626  0.16690905  1
  Sb  Sb100  1  0.83751235  0.83022023  0.33074807  1
  Sb  Sb101  1  0.65869753  0.16615731  0.49856112  1
  Sb  Sb102  1  0.16819502  0.66881199  0.49992636  1
  Sb  Sb103  1  0.00610015  0.33807455  0.67186945  1
  Sb  Sb104  1  0.00659463  -0.00508464  0.67171875  1
  Sb  Sb105  1  0.49785689  0.16451324  0.00327750  1
  Sb  Sb106  1  0.00818237  -0.00499325  0.32772585  1
  Sb  Sb107  1  0.66125891  0.83287425  0.49742182  1
  Te  Te108  1  0.16701362  0.15911180  0.17152583  1
  Te  Te109  1  0.17115451  0.16466792  0.50037820  1
  Te  Te110  1  0.16755147  0.16538281  0.83309751  1
  Te  Te111  1  0.16751356  0.49886198  0.16563387  1
  Te  Te112  1  0.16645735  0.49518256  0.49289687  1
  Te  Te113  1  0.17017333  0.50243174  0.83501295  1
  Te  Te114  1  0.16618887  0.83172498  0.16688016  1
  Te  Te115  1  0.16969147  0.83614513  0.50018421  1
  Te  Te116  1  0.16270638  0.83092126  0.83477445  1
  Te  Te117  1  0.49883071  0.16554243  0.17286272  1
  Te  Te118  1  0.49150942  0.16706960  0.49267582  1
  Te  Te119  1  0.49577668  0.16223171  0.83250561  1
  Te  Te120  1  0.49631916  0.49944750  0.16058379  1
  Te  Te121  1  0.49961430  0.50958439  0.49974223  1
  Te  Te122  1  0.49453009  0.50303476  0.83991168  1
  Te  Te123  1  0.50004354  0.83578322  0.16609268  1
  Te  Te124  1  0.49437255  0.82849204  0.49832552  1
  Te  Te125  1  0.50083971  0.83291412  0.83606851  1
  Te  Te126  1  0.83472439  0.15681266  0.16805718  1
  Te  Te127  1  0.83404151  0.16081514  0.50137276  1
  Te  Te128  1  0.83740400  0.16300696  0.83191100  1
  Te  Te129  1  0.83790132  0.50026614  0.17128778  1
  Te  Te130  1  0.83450796  0.50432921  0.49762767  1
  Te  Te131  1  0.83471645  0.50511287  0.83101202  1
  Te  Te132  1  0.83846553  0.83819849  0.16278788  1
  Te  Te133  1  0.83371713  0.83201748  0.49973386  1
  Te  Te134  1  0.83688974  0.83245415  0.83625586  1
  Te  Te135  1  0.16312308  -0.00393156  0.00428496  1
  Te  Te136  1  0.16816120  -0.00348044  0.33398662  1
  Te  Te137  1  0.17014882  -0.00118689  0.66575114  1
  Te  Te138  1  0.16457410  0.33393097  -0.00353272  1
  Te  Te139  1  0.16960383  0.33280424  0.33264640  1
  Te  Te140  1  0.17033464  0.33527213  0.66919771  1
  Te  Te141  1  0.16843806  0.66756340  -0.00026080  1
  Te  Te142  1  0.16412668  0.66700748  0.33405832  1
  Te  Te143  1  0.16714037  0.66838001  0.66603157  1
  Te  Te144  1  0.49859467  -0.00212074  0.00166544  1
  Te  Te145  1  0.49743339  -0.00228197  0.33192308  1
  Te  Te146  1  0.49479517  0.00019617  0.67027261  1
  Te  Te147  1  0.50334112  0.33427742  0.00472347  1
  Te  Te148  1  0.49774360  0.33441298  0.33062177  1
  Te  Te149  1  0.49824112  0.33389930  0.66602225  1
  Te  Te150  1  0.49665501  0.66791749  -0.00247723  1
  Te  Te151  1  0.50009352  0.67018098  0.33387948  1
  Te  Te152  1  0.49883529  0.66645452  0.66969065  1
  Te  Te153  1  0.83381200  -0.00428663  -0.00080559  1
  Te  Te154  1  0.83162404  -0.00029475  0.33456998  1
  Te  Te155  1  0.83319961  -0.00077677  0.66799341  1
  Te  Te156  1  0.82913828  0.33502848  0.00001959  1
  Te  Te157  1  0.83151132  0.33759675  0.33387952  1
  Te  Te158  1  0.83322447  0.33835120  0.66606289  1
  Te  Te159  1  0.82961706  0.67413701  -0.00485185  1
  Te  Te160  1  0.83492278  0.66565907  0.33332919  1
  Te  Te161  1  0.83179177  0.66458187  0.66739492  1
  Te  Te162  1  -0.00018917  0.16922873  -0.00590583  1
  Te  Te163  1  0.00672203  0.16857708  0.33452324  1
  Te  Te164  1  0.00892115  0.16781262  0.67438492  1
  Te  Te165  1  0.00306904  0.49670021  0.00573425  1
  Te  Te166  1  0.00128970  0.50348358  0.32846852  1
  Te  Te167  1  -0.00505676  0.50622286  0.66723214  1
  Te  Te168  1  0.00395368  0.83360278  0.00104392  1
  Te  Te169  1  0.00511579  0.82814497  0.32894495  1
  Te  Te170  1  0.00786934  0.82762109  0.66958723  1
  Te  Te171  1  0.33312355  0.16706768  -0.00967969  1
  Te  Te172  1  0.33102936  0.16616186  0.33252563  1
  Te  Te173  1  0.32851236  0.16792604  0.66540968  1
  Te  Te174  1  0.33063341  0.50166286  -0.00076229  1
  Te  Te175  1  0.32908836  0.49745338  0.33088461  1
  Te  Te176  1  0.33321035  0.50037841  0.67132819  1
  Te  Te177  1  0.33271851  0.82745435  0.00046693  1
  Te  Te178  1  0.33154715  0.83397171  0.33575637  1
  Te  Te179  1  0.32806566  0.83247108  0.66303824  1
  Te  Te180  1  0.66642901  0.16833119  -0.00043786  1
  Te  Te181  1  0.66456411  0.17289591  0.33436744  1
  Te  Te182  1  0.66773313  0.17423916  0.66573516  1
  Te  Te183  1  0.66680664  0.49590943  0.00105877  1
  Te  Te184  1  0.66785556  0.49936281  0.33257052  1
  Te  Te185  1  0.67170452  0.49340830  0.66702612  1
  Te  Te186  1  0.65647744  0.83729664  0.00077400  1
  Te  Te187  1  0.66061410  0.82930937  0.33261822  1
  Te  Te188  1  0.66643505  0.83518344  0.66600902  1
  Te  Te189  1  0.00220448  -0.00226527  0.16200966  1
  Te  Te190  1  -0.00098992  -0.00111296  0.50051330  1
  Te  Te191  1  -0.00031276  -0.00208508  0.83674236  1
  Te  Te192  1  -0.00118604  0.33351085  0.15984922  1
  Te  Te193  1  0.00821643  0.33243047  0.50053257  1
  Te  Te194  1  0.00583741  0.33345646  0.83821837  1
  Te  Te195  1  0.00565128  0.66821859  0.16911625  1
  Te  Te196  1  -0.00549052  0.66752192  0.50087956  1
  Te  Te197  1  0.00163118  0.66969784  0.83152441  1
  Te  Te198  1  0.33343708  0.00102717  0.16975579  1
  Te  Te199  1  0.33201031  -0.00098085  0.49953134  1
  Te  Te200  1  0.33562069  0.00103275  0.83111207  1
  Te  Te201  1  0.33777246  0.33690231  0.17009192  1
  Te  Te202  1  0.33010407  0.33358484  0.50022847  1
  Te  Te203  1  0.33012015  0.33311426  0.83109597  1
  Te  Te204  1  0.32637299  0.66066186  0.16432829  1
  Te  Te205  1  0.33543892  0.66940577  0.50485049  1
  Te  Te206  1  0.33110355  0.66756342  0.83228909  1
  Te  Te207  1  0.66120274  0.00021730  0.16097267  1
  Te  Te208  1  0.67327221  0.00024706  0.50161100  1
  Te  Te209  1  0.66695488  0.00081555  0.83869174  1
  Te  Te210  1  0.66283429  0.33269362  0.16819091  1
  Te  Te211  1  0.66655803  0.33237437  0.49865655  1
  Te  Te212  1  0.66614950  0.33247114  0.83355541  1
  Te  Te213  1  0.66764447  0.66638595  0.17379160  1
  Te  Te214  1  0.66961941  0.66669400  0.49538861  1
  Te  Te215  1  0.66543963  0.66590312  0.83325579  1
