# generated using pymatgen
data_AgSbTe2
_symmetry_space_group_name_H-M   'P 1'
_cell_length_a   18.31937149
_cell_length_b   18.32062125
_cell_length_c   18.32340803
_cell_angle_alpha   90.00134433
_cell_angle_beta   89.99904060
_cell_angle_gamma   89.99775211
_symmetry_Int_Tables_number   1
_chemical_formula_structural   AgSbTe2
_chemical_formula_sum   'Ag54 Sb54 Te108'
_cell_volume   6149.74372617
_cell_formula_units_Z   54
loop_
 _symmetry_equiv_pos_site_id
 _symmetry_equiv_pos_as_xyz
  1  'x, y, z'
loop_
 _atom_site_type_symbol
 _atom_site_label
 _atom_site_symmetry_multiplicity
 _atom_site_fract_x
 _atom_site_fract_y
 _atom_site_fract_z
 _atom_site_occupancy
  Ag  Ag0  1  0.33100019  0.83779577  0.84312060  1
  Ag  Ag1  1  0.00342376  0.83007543  0.83981286  1
  Ag  Ag2  1  0.50022959  0.66512330  0.15507723  1
  Ag  Ag3  1  0.16934540  0.84235327  0.33146086  1
  Ag  Ag4  1  0.83748105  0.83683587  -0.00113301  1
  Ag  Ag5  1  0.00508674  0.83199755  0.15527572  1
  Ag  Ag6  1  0.82573316  0.16468825  0.32694866  1
  Ag  Ag7  1  0.00088195  0.51163568  0.83917814  1
  Ag  Ag8  1  0.34216818  0.32915223  0.00048287  1
  Ag  Ag9  1  0.66869031  0.32321637  0.32783899  1
  Ag  Ag10  1  0.83791294  0.67441488  0.83887721  1
  Ag  Ag11  1  0.66826803  0.00625520  0.33824448  1
  Ag  Ag12  1  0.82553487  0.16519942  0.00532631  1
  Ag  Ag13  1  0.34055113  0.16288307  0.16519934  1
  Ag  Ag14  1  0.00556937  0.00247624  0.33697185  1
  Ag  Ag15  1  0.33566483  0.49372651  0.49882452  1
  Ag  Ag16  1  -0.00078520  0.50449452  0.15542488  1
  Ag  Ag17  1  0.32745278  0.00079204  0.33265246  1
  Ag  Ag18  1  0.50730872  0.17113114  -0.00330570  1
  Ag  Ag19  1  0.16381043  0.83543380  0.67445854  1
  Ag  Ag20  1  0.33007915  0.83868460  0.16114865  1
  Ag  Ag21  1  0.16567044  0.00105698  0.49564642  1
  Ag  Ag22  1  -0.00079944  0.33844436  -0.00003236  1
  Ag  Ag23  1  0.66589093  0.16590768  0.49700862  1
  Ag  Ag24  1  0.82712923  0.32344550  0.16381123  1
  Ag  Ag25  1  0.16489170  0.16053257  0.33459133  1
  Ag  Ag26  1  0.16223001  0.50148112  -0.00171392  1
  Ag  Ag27  1  0.50384241  0.67152934  0.84006405  1
  Ag  Ag28  1  0.50650616  0.32993479  0.16101837  1
  Ag  Ag29  1  0.49980042  0.66660695  0.50245850  1
  Ag  Ag30  1  0.82882369  0.32655178  0.49324276  1
  Ag  Ag31  1  0.33533776  0.67679814  0.33231874  1
  Ag  Ag32  1  0.82981147  -0.00236174  0.83919526  1
  Ag  Ag33  1  0.49987937  0.82986322  -0.00216262  1
  Ag  Ag34  1  0.49674580  0.49824954  -0.00283784  1
  Ag  Ag35  1  0.50458065  0.16895633  0.67497409  1
  Ag  Ag36  1  0.50014471  0.49739951  0.67606802  1
  Ag  Ag37  1  0.66206884  0.66566695  -0.00164370  1
  Ag  Ag38  1  0.66454613  0.32061225  0.66910737  1
  Ag  Ag39  1  0.34326284  0.16158982  0.84060170  1
  Ag  Ag40  1  -0.00465810  0.66636076  -0.00346517  1
  Ag  Ag41  1  0.66352354  0.32607909  0.00154003  1
  Ag  Ag42  1  0.66138782  0.16559157  0.83604032  1
  Ag  Ag43  1  0.16300329  0.82933094  -0.00093868  1
  Ag  Ag44  1  -0.00358074  -0.00278834  0.66438765  1
  Ag  Ag45  1  0.66646559  0.16846598  0.16423207  1
  Ag  Ag46  1  -0.00630285  0.16359897  0.49755209  1
  Ag  Ag47  1  0.16560477  0.33045805  0.83804735  1
  Ag  Ag48  1  0.83152829  0.00568459  0.16197463  1
  Ag  Ag49  1  0.66577016  0.84667250  0.49933564  1
  Ag  Ag50  1  0.33783955  0.16647936  0.49390535  1
  Ag  Ag51  1  0.50368437  0.00541214  0.83354836  1
  Ag  Ag52  1  -0.00086344  0.67622874  0.67947959  1
  Ag  Ag53  1  0.66903074  0.00400212  0.66501273  1
  Sb  Sb54  1  -0.00215489  0.83954571  0.50159119  1
  Sb  Sb55  1  -0.00433544  0.32500335  0.32728971  1
  Sb  Sb56  1  0.50404218  0.16555730  0.32999445  1
  Sb  Sb57  1  0.16808748  0.49890940  0.32783604  1
  Sb  Sb58  1  0.66660552  0.84024647  0.83396949  1
  Sb  Sb59  1  -0.00533163  0.33012798  0.67163469  1
  Sb  Sb60  1  0.83633532  0.49846652  -0.00020915  1
  Sb  Sb61  1  0.50089360  -0.00082183  0.50397731  1
  Sb  Sb62  1  0.66785255  0.49523546  0.83648163  1
  Sb  Sb63  1  0.83427926  0.32886109  0.83921199  1
  Sb  Sb64  1  0.49752648  0.83487845  0.67295667  1
  Sb  Sb65  1  0.82834903  0.66539132  0.50461992  1
  Sb  Sb66  1  0.33238829  0.49981046  0.16622926  1
  Sb  Sb67  1  0.82510796  0.16541702  0.66747862  1
  Sb  Sb68  1  0.33426164  0.00124391  0.66439965  1
  Sb  Sb69  1  0.33589644  0.83710376  0.49774144  1
  Sb  Sb70  1  0.83390414  0.00540082  0.49871842  1
  Sb  Sb71  1  0.16712368  0.00024838  0.83014397  1
  Sb  Sb72  1  0.50378474  0.33285994  0.49815738  1
  Sb  Sb73  1  0.33294714  0.50000602  0.83478042  1
  Sb  Sb74  1  0.66569435  0.84074509  0.16520863  1
  Sb  Sb75  1  0.33731726  0.32682942  0.32781202  1
  Sb  Sb76  1  0.17151698  0.67060051  0.16450963  1
  Sb  Sb77  1  0.17059556  0.16149304  0.66384511  1
  Sb  Sb78  1  0.33738100  0.66808078  0.00273274  1
  Sb  Sb79  1  0.49565027  0.83414726  0.32723840  1
  Sb  Sb80  1  0.82912518  0.66879743  0.16000222  1
  Sb  Sb81  1  0.16522229  0.33103694  0.16047851  1
  Sb  Sb82  1  0.33274560  0.66845238  0.66555660  1
  Sb  Sb83  1  0.16960266  0.67234131  0.49962720  1
  Sb  Sb84  1  0.83707735  0.83669279  0.67338867  1
  Sb  Sb85  1  0.66038558  0.49439845  0.50194787  1
  Sb  Sb86  1  0.66879031  0.49060803  0.16257534  1
  Sb  Sb87  1  0.16606775  0.66824834  0.83645435  1
  Sb  Sb88  1  0.83737500  0.84311617  0.32626495  1
  Sb  Sb89  1  0.00418836  0.67569085  0.32781237  1
  Sb  Sb90  1  0.49884024  0.50034022  0.32935901  1
  Sb  Sb91  1  0.00543184  0.49486585  0.50200972  1
  Sb  Sb92  1  0.33909921  0.33120441  0.67147597  1
  Sb  Sb93  1  0.17042594  0.50426620  0.67259036  1
  Sb  Sb94  1  0.83387693  0.49171364  0.33147035  1
  Sb  Sb95  1  -0.00226255  0.16181031  0.83132425  1
  Sb  Sb96  1  0.66160508  0.66977176  0.32858012  1
  Sb  Sb97  1  0.16471299  0.32519454  0.50449496  1
  Sb  Sb98  1  0.33443248  0.00144587  0.00405744  1
  Sb  Sb99  1  0.66725712  0.00449632  -0.00224960  1
  Sb  Sb100  1  0.50362369  0.00307784  0.16151838  1
  Sb  Sb101  1  0.16196471  -0.00076140  0.17222912  1
  Sb  Sb102  1  0.16755984  0.16576499  0.00331591  1
  Sb  Sb103  1  0.49836245  0.32978107  0.84081828  1
  Sb  Sb104  1  0.66717769  0.67031580  0.67312233  1
  Sb  Sb105  1  0.82881948  0.49884934  0.66951773  1
  Sb  Sb106  1  -0.00461310  0.16321567  0.16853154  1
  Sb  Sb107  1  -0.00278262  -0.00330244  0.00018751  1
  Te  Te108  1  0.17487366  0.16565046  0.17203472  1
  Te  Te109  1  0.17020944  0.16232782  0.49682854  1
  Te  Te110  1  0.16969023  0.16837828  0.83334522  1
  Te  Te111  1  0.16096659  0.50001868  0.16004006  1
  Te  Te112  1  0.17408141  0.49891734  0.50118700  1
  Te  Te113  1  0.16482126  0.49650539  0.83787660  1
  Te  Te114  1  0.16816022  0.83401974  0.16498356  1
  Te  Te115  1  0.16693950  0.83916923  0.49527057  1
  Te  Te116  1  0.16769254  0.83441038  0.83555088  1
  Te  Te117  1  0.50035844  0.16791522  0.16156431  1
  Te  Te118  1  0.50158558  0.16657054  0.50402942  1
  Te  Te119  1  0.50009660  0.16709643  0.83575774  1
  Te  Te120  1  0.50002056  0.50115764  0.16078785  1
  Te  Te121  1  0.49414646  0.50239811  0.49876948  1
  Te  Te122  1  0.49940572  0.50433019  0.83600604  1
  Te  Te123  1  0.49742197  0.83203090  0.16017568  1
  Te  Te124  1  0.50365155  0.82961211  0.50156888  1
  Te  Te125  1  0.49956951  0.83296738  0.83651934  1
  Te  Te126  1  0.83357046  0.16595437  0.16596088  1
  Te  Te127  1  0.83059798  0.16822240  0.49973807  1
  Te  Te128  1  0.83030041  0.16211306  0.83912884  1
  Te  Te129  1  0.84044379  0.49786541  0.16750372  1
  Te  Te130  1  0.83516562  0.49287555  0.50044894  1
  Te  Te131  1  0.83946666  0.50551657  0.83310177  1
  Te  Te132  1  0.83549975  0.83657756  0.15949774  1
  Te  Te133  1  0.82610437  0.83184816  0.49839384  1
  Te  Te134  1  0.83355019  0.83452393  0.83869710  1
  Te  Te135  1  0.16574033  -0.00804718  -0.00024531  1
  Te  Te136  1  0.16671549  0.00177558  0.33430758  1
  Te  Te137  1  0.16291856  -0.00437491  0.66118527  1
  Te  Te138  1  0.16253503  0.33392690  -0.00214014  1
  Te  Te139  1  0.16687706  0.32788633  0.33448521  1
  Te  Te140  1  0.16585676  0.33433277  0.67362254  1
  Te  Te141  1  0.16195239  0.66689143  0.00074319  1
  Te  Te142  1  0.17324526  0.67046226  0.33281703  1
  Te  Te143  1  0.16027034  0.67255641  0.66631400  1
  Te  Te144  1  0.50044720  -0.00149441  -0.00655979  1
  Te  Te145  1  0.50221770  -0.00160690  0.33416350  1
  Te  Te146  1  0.50373780  0.00298887  0.67224195  1
  Te  Te147  1  0.50136284  0.33144206  0.00121020  1
  Te  Te148  1  0.50597981  0.33396983  0.32404028  1
  Te  Te149  1  0.50497529  0.33359954  0.66562136  1
  Te  Te150  1  0.49844586  0.66705047  -0.00130012  1
  Te  Te151  1  0.49583913  0.66715843  0.33728901  1
  Te  Te152  1  0.50076916  0.66404782  0.66578479  1
  Te  Te153  1  0.83298607  0.00047370  0.00030218  1
  Te  Te154  1  0.83095967  0.00510399  0.33154237  1
  Te  Te155  1  0.83350672  0.00002035  0.67221481  1
  Te  Te156  1  0.83047913  0.33163253  0.00255454  1
  Te  Te157  1  0.82947405  0.32619883  0.33090570  1
  Te  Te158  1  0.82570947  0.33314623  0.66506800  1
  Te  Te159  1  0.83383452  0.66712132  -0.00302050  1
  Te  Te160  1  0.83283444  0.66710330  0.33386005  1
  Te  Te161  1  0.83857578  0.66695379  0.67313915  1
  Te  Te162  1  -0.00191076  0.17054134  -0.00024389  1
  Te  Te163  1  0.00151803  0.16227529  0.33604919  1
  Te  Te164  1  0.00128366  0.16183235  0.66181624  1
  Te  Te165  1  -0.00037590  0.50031285  -0.00182589  1
  Te  Te166  1  0.00246135  0.50139892  0.33167909  1
  Te  Te167  1  0.00068798  0.50040565  0.67145797  1
  Te  Te168  1  -0.00117446  0.83429100  -0.00083287  1
  Te  Te169  1  0.00527710  0.84009261  0.33199857  1
  Te  Te170  1  0.00270803  0.83531727  0.66696481  1
  Te  Te171  1  0.33218632  0.16807334  0.00066082  1
  Te  Te172  1  0.33558590  0.16340748  0.33262128  1
  Te  Te173  1  0.33937986  0.16711314  0.66805883  1
  Te  Te174  1  0.33335872  0.49555329  0.00057652  1
  Te  Te175  1  0.33137715  0.50154939  0.33759630  1
  Te  Te176  1  0.33919315  0.49958176  0.66231895  1
  Te  Te177  1  0.33395409  0.83377092  0.00132108  1
  Te  Te178  1  0.33002883  0.83673474  0.33105171  1
  Te  Te179  1  0.32656902  0.83394954  0.67139276  1
  Te  Te180  1  0.66661818  0.16613508  0.00153984  1
  Te  Te181  1  0.66654666  0.16669255  0.33358362  1
  Te  Te182  1  0.66442106  0.16449827  0.66719251  1
  Te  Te183  1  0.66005941  0.50239077  0.00018057  1
  Te  Te184  1  0.66756288  0.49522012  0.33314666  1
  Te  Te185  1  0.65890549  0.49944065  0.66829422  1
  Te  Te186  1  0.66435793  0.82983657  0.00037272  1
  Te  Te187  1  0.66769975  0.83769706  0.33643890  1
  Te  Te188  1  0.66636244  0.83842411  0.66152249  1
  Te  Te189  1  -0.00564893  -0.00449080  0.17053311  1
  Te  Te190  1  0.00002867  0.00368213  0.50016311  1
  Te  Te191  1  -0.00228438  -0.00556059  0.82897987  1
  Te  Te192  1  -0.00276616  0.33419740  0.16139033  1
  Te  Te193  1  -0.00470725  0.32679476  0.50062225  1
  Te  Te194  1  0.00144036  0.33152203  0.83712579  1
  Te  Te195  1  -0.00152234  0.66983371  0.16245395  1
  Te  Te196  1  -0.00097630  0.66479853  0.50087253  1
  Te  Te197  1  0.00231350  0.66953928  0.83574690  1
  Te  Te198  1  0.33543190  -0.00003990  0.17147632  1
  Te  Te199  1  0.33157689  0.00471579  0.49597740  1
  Te  Te200  1  0.33564521  0.00036427  0.83303897  1
  Te  Te201  1  0.33647422  0.33097880  0.16178160  1
  Te  Te202  1  0.33371544  0.32848507  0.49888901  1
  Te  Te203  1  0.32908261  0.33109459  0.83851907  1
  Te  Te204  1  0.33929709  0.66847350  0.17097236  1
  Te  Te205  1  0.33676099  0.66891057  0.49707925  1
  Te  Te206  1  0.33927578  0.67189103  0.83347026  1
  Te  Te207  1  0.67060996  0.00664428  0.17249977  1
  Te  Te208  1  0.66755712  0.00397283  0.50068481  1
  Te  Te209  1  0.66731670  0.00443126  0.83045536  1
  Te  Te210  1  0.66720894  0.32991985  0.16364291  1
  Te  Te211  1  0.66879450  0.32921338  0.50048578  1
  Te  Te212  1  0.66756953  0.32751147  0.83480259  1
  Te  Te213  1  0.66070072  0.66751814  0.16201163  1
  Te  Te214  1  0.66173204  0.66404889  0.49948284  1
  Te  Te215  1  0.66606106  0.66669453  0.83793116  1
