# generated using pymatgen
data_AgSbTe2
_symmetry_space_group_name_H-M   'P 1'
_cell_length_a   18.32210979
_cell_length_b   18.32588861
_cell_length_c   18.32905106
_cell_angle_alpha   89.99702149
_cell_angle_beta   90.00028074
_cell_angle_gamma   89.99926471
_symmetry_Int_Tables_number   1
_chemical_formula_structural   AgSbTe2
_chemical_formula_sum   'Ag54 Sb54 Te108'
_cell_volume   6154.32609104
_cell_formula_units_Z   54
loop_
 _symmetry_equiv_pos_site_id
 _symmetry_equiv_pos_as_xyz
  1  'x, y, z'
loop_
 _atom_site_type_symbol
 _atom_site_label
 _atom_site_symmetry_multiplicity
 _atom_site_fract_x
 _atom_site_fract_y
 _atom_site_fract_z
 _atom_site_occupancy
  Ag  Ag0  1  0.66940152  0.50829781  0.83285070  1
  Ag  Ag1  1  0.49927987  -0.00042771  0.83086536  1
  Ag  Ag2  1  0.83699006  0.50126173  -0.00328950  1
  Ag  Ag3  1  0.50515510  0.33223255  0.83256853  1
  Ag  Ag4  1  0.66453937  0.66935154  0.33774127  1
  Ag  Ag5  1  0.66421623  0.50688313  0.50339684  1
  Ag  Ag6  1  0.66904606  0.50821205  0.16730161  1
  Ag  Ag7  1  0.34106224  0.16568808  0.49589361  1
  Ag  Ag8  1  0.81904497  0.83354477  0.67128941  1
  Ag  Ag9  1  0.82470146  0.82662589  0.33376735  1
  Ag  Ag10  1  0.83238738  0.82852033  -0.01096165  1
  Ag  Ag11  1  0.00035677  0.32855565  0.32550119  1
  Ag  Ag12  1  0.34710746  0.67036913  0.66616165  1
  Ag  Ag13  1  0.50190297  0.66743049  0.16760521  1
  Ag  Ag14  1  -0.01110638  0.49402998  0.84000038  1
  Ag  Ag15  1  0.66103571  0.82612833  0.17077243  1
  Ag  Ag16  1  0.17283139  0.16832269  0.00187367  1
  Ag  Ag17  1  -0.00359882  0.00014803  0.67070593  1
  Ag  Ag18  1  0.16793986  -0.00244235  0.16147427  1
  Ag  Ag19  1  0.66138744  0.67272744  0.66564378  1
  Ag  Ag20  1  0.00700320  0.17213615  0.16356922  1
  Ag  Ag21  1  -0.00479182  0.49441588  0.15888388  1
  Ag  Ag22  1  0.34515509  0.83630414  0.49309894  1
  Ag  Ag23  1  0.33638254  0.33085692  0.32756431  1
  Ag  Ag24  1  0.66991397  0.82494294  0.82090326  1
  Ag  Ag25  1  0.50402657  0.51192806  0.66860683  1
  Ag  Ag26  1  0.65951863  0.16919835  0.50258377  1
  Ag  Ag27  1  0.33879530  0.83555487  0.17087183  1
  Ag  Ag28  1  0.50452030  0.33320585  0.50131425  1
  Ag  Ag29  1  0.50109543  0.16508929  0.66908485  1
  Ag  Ag30  1  0.00192844  0.33444406  0.00336779  1
  Ag  Ag31  1  0.66294265  0.82608442  0.50706743  1
  Ag  Ag32  1  0.50441142  0.67235784  0.50991728  1
  Ag  Ag33  1  0.15745245  0.49185504  0.00145655  1
  Ag  Ag34  1  0.66454722  -0.01139801  0.66653934  1
  Ag  Ag35  1  0.17246371  0.67229260  0.16660155  1
  Ag  Ag36  1  0.49768598  0.33609605  0.16735716  1
  Ag  Ag37  1  0.33465902  0.32690517  0.00526868  1
  Ag  Ag38  1  0.33026256  0.16497300  0.16296683  1
  Ag  Ag39  1  0.33133576  0.00634415  0.00229317  1
  Ag  Ag40  1  0.82383690  0.33381399  0.50194772  1
  Ag  Ag41  1  0.00109012  0.00259384  0.33378016  1
  Ag  Ag42  1  0.49311401  0.17067825  -0.00458958  1
  Ag  Ag43  1  0.83102039  0.34209349  0.83195829  1
  Ag  Ag44  1  0.16974609  0.83396148  0.32955002  1
  Ag  Ag45  1  -0.00078012  0.16530038  0.83536129  1
  Ag  Ag46  1  0.50768136  0.82394256  0.66143896  1
  Ag  Ag47  1  -0.00006236  0.16765833  0.49974737  1
  Ag  Ag48  1  0.82542827  0.66524376  0.83336861  1
  Ag  Ag49  1  0.50863416  0.66738093  0.82193592  1
  Ag  Ag50  1  0.16676024  -0.00074373  0.83949097  1
  Ag  Ag51  1  0.83020676  0.50293788  0.32628868  1
  Ag  Ag52  1  0.50391328  0.82974428  0.34210787  1
  Ag  Ag53  1  -0.01080144  0.83607527  0.83327574  1
  Sb  Sb54  1  0.66437713  0.33676097  0.66543098  1
  Sb  Sb55  1  0.50430080  0.83542793  -0.00338400  1
  Sb  Sb56  1  0.66619428  0.33459625  -0.00094841  1
  Sb  Sb57  1  0.33896297  0.49941367  0.83549536  1
  Sb  Sb58  1  0.49496503  -0.00175573  0.16106819  1
  Sb  Sb59  1  0.16338655  0.83580396  0.00382934  1
  Sb  Sb60  1  0.33043669  -0.00053623  0.32861464  1
  Sb  Sb61  1  0.83555465  0.16940801  -0.00344818  1
  Sb  Sb62  1  0.16531149  0.16194702  0.32730722  1
  Sb  Sb63  1  -0.00506434  0.83717827  0.50163888  1
  Sb  Sb64  1  0.34313272  0.49866541  0.49986671  1
  Sb  Sb65  1  -0.00638387  0.66796054  0.33263290  1
  Sb  Sb66  1  0.50629805  0.50365653  0.33518551  1
  Sb  Sb67  1  0.16970704  0.33187716  0.16514041  1
  Sb  Sb68  1  0.82401104  0.66454950  0.50301668  1
  Sb  Sb69  1  0.33760218  -0.00274055  0.67007717  1
  Sb  Sb70  1  0.66151435  -0.00319416  -0.00560459  1
  Sb  Sb71  1  0.16950940  0.16410795  0.67111682  1
  Sb  Sb72  1  0.83314017  -0.00486654  0.83206865  1
  Sb  Sb73  1  0.83279568  0.00182986  0.50091813  1
  Sb  Sb74  1  -0.01072743  0.49294943  0.49912570  1
  Sb  Sb75  1  0.33583074  0.49850488  0.16566791  1
  Sb  Sb76  1  0.49849920  0.16466748  0.33514166  1
  Sb  Sb77  1  -0.00292770  0.32854074  0.66988248  1
  Sb  Sb78  1  0.16474707  0.32942538  0.83871609  1
  Sb  Sb79  1  0.33823370  0.83408744  0.83394429  1
  Sb  Sb80  1  0.16985050  0.33211547  0.49722856  1
  Sb  Sb81  1  0.16064234  0.50384473  0.32529401  1
  Sb  Sb82  1  0.82623629  0.50479269  0.67159100  1
  Sb  Sb83  1  0.83830856  -0.00253835  0.16772590  1
  Sb  Sb84  1  0.00470729  0.00546111  -0.00145657  1
  Sb  Sb85  1  -0.00542399  0.67111462  0.66981868  1
  Sb  Sb86  1  0.66966150  -0.00960994  0.33874332  1
  Sb  Sb87  1  0.33461697  0.16624914  0.83840844  1
  Sb  Sb88  1  0.50142684  -0.00242757  0.50575990  1
  Sb  Sb89  1  0.50320227  0.49513070  -0.00322375  1
  Sb  Sb90  1  0.66280321  0.16710227  0.17126463  1
  Sb  Sb91  1  0.16954684  0.83472959  0.66392638  1
  Sb  Sb92  1  0.82857323  0.66625446  0.16248346  1
  Sb  Sb93  1  0.83630885  0.16926259  0.33512038  1
  Sb  Sb94  1  0.33442732  0.66690479  -0.00086091  1
  Sb  Sb95  1  0.66615776  0.66703644  -0.00384316  1
  Sb  Sb96  1  -0.00056977  0.66008266  0.00063742  1
  Sb  Sb97  1  0.66629121  0.16635215  0.82808502  1
  Sb  Sb98  1  -0.00073065  0.83280435  0.16424885  1
  Sb  Sb99  1  0.34123060  0.66712615  0.33457347  1
  Sb  Sb100  1  0.83345440  0.33724292  0.16640266  1
  Sb  Sb101  1  0.16619412  -0.00004154  0.49951476  1
  Sb  Sb102  1  0.66720437  0.33935147  0.33630607  1
  Sb  Sb103  1  0.17642555  0.66903783  0.49435251  1
  Sb  Sb104  1  0.17050996  0.50187955  0.67333531  1
  Sb  Sb105  1  0.82922924  0.16245060  0.66619789  1
  Sb  Sb106  1  0.34083683  0.33404276  0.66720269  1
  Sb  Sb107  1  0.16620370  0.67024233  0.83796765  1
  Te  Te108  1  0.16752376  0.16443631  0.16243106  1
  Te  Te109  1  0.16479871  0.16646429  0.50027007  1
  Te  Te110  1  0.16245071  0.16234718  0.83851230  1
  Te  Te111  1  0.16350582  0.50416144  0.16229352  1
  Te  Te112  1  0.16619892  0.50124202  0.50187935  1
  Te  Te113  1  0.16154516  0.50186456  0.84026293  1
  Te  Te114  1  0.16698350  0.83445454  0.16882808  1
  Te  Te115  1  0.17004724  0.83324903  0.49272672  1
  Te  Te116  1  0.16542451  0.83776486  0.83338394  1
  Te  Te117  1  0.49644749  0.16979596  0.16536898  1
  Te  Te118  1  0.49912262  0.16683219  0.50018159  1
  Te  Te119  1  0.50087164  0.16875121  0.83378537  1
  Te  Te120  1  0.50398052  0.49885372  0.16652042  1
  Te  Te121  1  0.50547141  0.49630646  0.50225127  1
  Te  Te122  1  0.50478460  0.50028088  0.83101003  1
  Te  Te123  1  0.49901342  0.83315282  0.16341305  1
  Te  Te124  1  0.50188263  0.83399678  0.50128447  1
  Te  Te125  1  0.50353489  0.83203621  0.83201139  1
  Te  Te126  1  0.83746021  0.16725449  0.16612214  1
  Te  Te127  1  0.83625481  0.17299286  0.50092418  1
  Te  Te128  1  0.83798992  0.17469057  0.83272829  1
  Te  Te129  1  0.83195778  0.50050484  0.16506050  1
  Te  Te130  1  0.82584112  0.49543980  0.49924055  1
  Te  Te131  1  0.83111925  0.50129919  0.83326484  1
  Te  Te132  1  0.83066172  0.83166805  0.17261104  1
  Te  Te133  1  0.82791909  0.83224053  0.49830809  1
  Te  Te134  1  0.83066388  0.83318777  0.83175410  1
  Te  Te135  1  0.16958345  0.00258383  0.00023996  1
  Te  Te136  1  0.16246696  -0.00520038  0.33012482  1
  Te  Te137  1  0.16073007  0.00002703  0.67334540  1
  Te  Te138  1  0.16649711  0.33136794  -0.00001854  1
  Te  Te139  1  0.16237987  0.33498480  0.33273707  1
  Te  Te140  1  0.16901247  0.33417120  0.66801677  1
  Te  Te141  1  0.16799688  0.66353783  0.00646989  1
  Te  Te142  1  0.16710706  0.67201267  0.32708859  1
  Te  Te143  1  0.17118446  0.66694838  0.66681963  1
  Te  Te144  1  0.49470206  0.00577920  -0.00657704  1
  Te  Te145  1  0.50000644  -0.00869962  0.33158343  1
  Te  Te146  1  0.50119930  0.00370686  0.67200280  1
  Te  Te147  1  0.49887107  0.33079138  -0.00022141  1
  Te  Te148  1  0.49797173  0.33304909  0.33389772  1
  Te  Te149  1  0.49950487  0.32546038  0.66606303  1
  Te  Te150  1  0.49777400  0.66442434  0.00786736  1
  Te  Te151  1  0.50462393  0.66990185  0.32747807  1
  Te  Te152  1  0.50285905  0.66775278  0.66615585  1
  Te  Te153  1  0.83217364  -0.00503707  0.00011807  1
  Te  Te154  1  0.84075058  -0.00523404  0.33424455  1
  Te  Te155  1  0.83406613  -0.00592729  0.66665080  1
  Te  Te156  1  0.83734125  0.33678250  -0.00414360  1
  Te  Te157  1  0.83669220  0.33681000  0.33612906  1
  Te  Te158  1  0.83298103  0.33357851  0.66595292  1
  Te  Te159  1  0.83415119  0.66703450  -0.00620739  1
  Te  Te160  1  0.82710800  0.66532242  0.33428248  1
  Te  Te161  1  0.82822915  0.67310994  0.67172039  1
  Te  Te162  1  0.00015884  0.17157324  0.00054146  1
  Te  Te163  1  0.00094401  0.16698399  0.33158769  1
  Te  Te164  1  0.00085087  0.16134925  0.66813711  1
  Te  Te165  1  -0.00229444  0.49700365  -0.00077621  1
  Te  Te166  1  -0.00675956  0.49682518  0.33140253  1
  Te  Te167  1  0.00069553  0.50088837  0.67207128  1
  Te  Te168  1  -0.00545818  0.83462084  -0.00446206  1
  Te  Te169  1  -0.00153758  0.83586733  0.33357559  1
  Te  Te170  1  0.00135681  0.83890030  0.67000014  1
  Te  Te171  1  0.33325798  0.16753076  0.00057431  1
  Te  Te172  1  0.33170172  0.16975186  0.33202530  1
  Te  Te173  1  0.33758037  0.16561843  0.66053319  1
  Te  Te174  1  0.32791711  0.49404528  0.00069579  1
  Te  Te175  1  0.33010440  0.49201045  0.33340860  1
  Te  Te176  1  0.33999551  0.50585420  0.66721827  1
  Te  Te177  1  0.33239331  0.83592421  0.00623604  1
  Te  Te178  1  0.33582198  0.83273883  0.33205171  1
  Te  Te179  1  0.33698868  0.83117760  0.66349148  1
  Te  Te180  1  0.66150945  0.16547054  0.00222675  1
  Te  Te181  1  0.66795642  0.16378184  0.34109177  1
  Te  Te182  1  0.66278749  0.16362474  0.66155755  1
  Te  Te183  1  0.67255368  0.49970263  0.00083925  1
  Te  Te184  1  0.67059926  0.50457388  0.33023241  1
  Te  Te185  1  0.66252807  0.50374646  0.66759645  1
  Te  Te186  1  0.67255103  0.83417736  0.00932145  1
  Te  Te187  1  0.66520302  0.83038743  0.33122493  1
  Te  Te188  1  0.66336564  0.83345614  0.66567096  1
  Te  Te189  1  0.00508983  0.00332672  0.16854593  1
  Te  Te190  1  -0.00022187  0.00579699  0.49928015  1
  Te  Te191  1  -0.00087312  0.00153007  0.83332184  1
  Te  Te192  1  -0.00059776  0.33385271  0.16593119  1
  Te  Te193  1  -0.00066564  0.32787429  0.49907581  1
  Te  Te194  1  -0.00140979  0.33336756  0.83541563  1
  Te  Te195  1  0.00401017  0.66094718  0.16860093  1
  Te  Te196  1  0.00309834  0.66503427  0.50127324  1
  Te  Te197  1  -0.00178084  0.67011117  0.83328977  1
  Te  Te198  1  0.32890517  0.00175865  0.16362815  1
  Te  Te199  1  0.33254901  0.00110079  0.49917260  1
  Te  Te200  1  0.33291187  -0.00024916  0.83812610  1
  Te  Te201  1  0.33644376  0.33166145  0.16644715  1
  Te  Te202  1  0.33796481  0.32925134  0.49658267  1
  Te  Te203  1  0.33948550  0.33321132  0.83817609  1
  Te  Te204  1  0.33588693  0.66991549  0.16695600  1
  Te  Te205  1  0.34262585  0.66985810  0.50220665  1
  Te  Te206  1  0.33743662  0.66739263  0.82972994  1
  Te  Te207  1  0.66697010  -0.00285526  0.16753348  1
  Te  Te208  1  0.66766308  0.00197402  0.50563436  1
  Te  Te209  1  0.66253263  -0.00148538  0.82776944  1
  Te  Te210  1  0.65985396  0.33385149  0.16812567  1
  Te  Te211  1  0.66492202  0.33201383  0.49964137  1
  Te  Te212  1  0.66579325  0.33478904  0.83268417  1
  Te  Te213  1  0.66492563  0.66638632  0.16735781  1
  Te  Te214  1  0.66379995  0.66651710  0.50078311  1
  Te  Te215  1  0.66498021  0.66718867  0.83294203  1
