# generated using pymatgen
data_AgSbTe2
_symmetry_space_group_name_H-M   'P 1'
_cell_length_a   18.33429186
_cell_length_b   18.34556978
_cell_length_c   18.34610566
_cell_angle_alpha   89.99891938
_cell_angle_beta   90.00245692
_cell_angle_gamma   89.99927006
_symmetry_Int_Tables_number   1
_chemical_formula_structural   AgSbTe2
_chemical_formula_sum   'Ag54 Sb54 Te108'
_cell_volume   6170.76823659
_cell_formula_units_Z   54
loop_
 _symmetry_equiv_pos_site_id
 _symmetry_equiv_pos_as_xyz
  1  'x, y, z'
loop_
 _atom_site_type_symbol
 _atom_site_label
 _atom_site_symmetry_multiplicity
 _atom_site_fract_x
 _atom_site_fract_y
 _atom_site_fract_z
 _atom_site_occupancy
  Ag  Ag0  1  0.33670466  0.16491078  0.50077380  1
  Ag  Ag1  1  0.50016096  0.83027120  0.00063766  1
  Ag  Ag2  1  0.16171290  0.49100079  0.34782821  1
  Ag  Ag3  1  0.82552941  0.00207982  0.50003395  1
  Ag  Ag4  1  0.16098998  0.17760374  -0.00472052  1
  Ag  Ag5  1  0.00156195  0.65392838  0.00223865  1
  Ag  Ag6  1  0.67041642  0.16839648  0.16520185  1
  Ag  Ag7  1  0.00448084  0.33364397  0.34062152  1
  Ag  Ag8  1  -0.00344334  0.16980325  0.16754255  1
  Ag  Ag9  1  0.50273846  0.83540050  0.34291216  1
  Ag  Ag10  1  0.50186219  0.67239466  0.50281900  1
  Ag  Ag11  1  0.00607246  0.33498802  -0.01056898  1
  Ag  Ag12  1  0.16102305  0.49592452  -0.00462511  1
  Ag  Ag13  1  0.32466900  0.33538529  0.66532371  1
  Ag  Ag14  1  0.83866084  0.67160759  0.49854844  1
  Ag  Ag15  1  0.33986271  0.83592561  0.50290008  1
  Ag  Ag16  1  0.16595057  0.49185497  0.66402924  1
  Ag  Ag17  1  0.16077572  0.17297449  0.34270588  1
  Ag  Ag18  1  0.66490977  0.48911921  0.16031669  1
  Ag  Ag19  1  0.66347150  0.01181500  0.00270939  1
  Ag  Ag20  1  0.66779907  0.17200639  0.82824807  1
  Ag  Ag21  1  0.50621226  0.33447580  0.15726381  1
  Ag  Ag22  1  0.66290772  0.33121924  -0.00962766  1
  Ag  Ag23  1  0.33548408  0.83546300  0.82328252  1
  Ag  Ag24  1  0.34318758  0.00099735  0.34035947  1
  Ag  Ag25  1  0.16438341  0.33625170  0.51133657  1
  Ag  Ag26  1  0.33655013  0.65845980  0.66318272  1
  Ag  Ag27  1  0.00000627  0.65810346  0.34203422  1
  Ag  Ag28  1  0.66339324  0.33466808  0.67288622  1
  Ag  Ag29  1  0.50290145  0.49770083  -0.01072333  1
  Ag  Ag30  1  0.66455843  0.16392582  0.50174724  1
  Ag  Ag31  1  0.00043884  0.01609473  0.66372928  1
  Ag  Ag32  1  0.50676416  0.33387508  0.82718779  1
  Ag  Ag33  1  0.15698318  0.33232518  0.82254043  1
  Ag  Ag34  1  0.66523719  0.83561918  0.17368106  1
  Ag  Ag35  1  0.00446100  0.50000427  0.50358721  1
  Ag  Ag36  1  0.49997009  0.49587824  0.66776422  1
  Ag  Ag37  1  0.00270792  0.82661634  0.49988399  1
  Ag  Ag38  1  0.00012919  0.17319718  0.82722481  1
  Ag  Ag39  1  0.83609320  0.16682035  0.33982779  1
  Ag  Ag40  1  0.66149818  0.65806159  0.66245420  1
  Ag  Ag41  1  0.00304637  0.49088811  0.82860323  1
  Ag  Ag42  1  0.83831983  0.16796503  0.66106671  1
  Ag  Ag43  1  0.49848237  0.33286019  0.50718007  1
  Ag  Ag44  1  0.66019814  0.84281480  0.49778729  1
  Ag  Ag45  1  0.15973725  0.65726939  0.50060161  1
  Ag  Ag46  1  0.66296096  0.48995223  0.83384544  1
  Ag  Ag47  1  0.01178453  0.33231626  0.67216110  1
  Ag  Ag48  1  0.83307516  0.66616487  0.17683698  1
  Ag  Ag49  1  0.16954453  0.83090235  -0.00179252  1
  Ag  Ag50  1  0.16023902  0.17953700  0.66289473  1
  Ag  Ag51  1  0.50158219  0.00669747  0.82455041  1
  Ag  Ag52  1  0.66316641  0.00235693  0.34104285  1
  Ag  Ag53  1  0.50499830  -0.00322281  0.50265392  1
  Sb  Sb54  1  0.00000988  0.17059765  0.50319305  1
  Sb  Sb55  1  0.50038797  0.16979787  -0.00086121  1
  Sb  Sb56  1  0.33909963  0.00034583  0.00202407  1
  Sb  Sb57  1  0.49599137  0.50219538  0.33901953  1
  Sb  Sb58  1  0.82938165  0.00003474  0.17289963  1
  Sb  Sb59  1  0.33324944  0.49930934  0.82917835  1
  Sb  Sb60  1  0.00078447  0.65980712  0.66252298  1
  Sb  Sb61  1  0.65900731  0.83518981  0.83013490  1
  Sb  Sb62  1  0.33987940  0.83298640  0.17015189  1
  Sb  Sb63  1  0.83443213  0.49381894  0.66501906  1
  Sb  Sb64  1  0.16068924  0.66463622  0.17029357  1
  Sb  Sb65  1  0.32954089  0.66739673  -0.00671014  1
  Sb  Sb66  1  0.32847529  0.49954663  0.50300890  1
  Sb  Sb67  1  0.16823253  0.83107364  0.66650014  1
  Sb  Sb68  1  0.33356139  0.33280484  -0.00689836  1
  Sb  Sb69  1  0.50466840  0.00345708  0.16950928  1
  Sb  Sb70  1  0.33765112  0.49801914  0.16512767  1
  Sb  Sb71  1  0.33366187  0.16666297  0.82652291  1
  Sb  Sb72  1  -0.00409333  0.83446757  0.17059414  1
  Sb  Sb73  1  0.33194282  0.00379553  0.66180415  1
  Sb  Sb74  1  0.50117809  0.17551568  0.66433721  1
  Sb  Sb75  1  0.00805826  0.83342808  0.83017802  1
  Sb  Sb76  1  0.50829176  0.66461594  0.17043562  1
  Sb  Sb77  1  0.49948219  0.82812758  0.66325851  1
  Sb  Sb78  1  0.82782554  0.00425685  0.82692799  1
  Sb  Sb79  1  0.16666877  0.00420641  0.50052680  1
  Sb  Sb80  1  0.66667376  0.00534998  0.66317511  1
  Sb  Sb81  1  0.82809219  0.83692722  0.33735081  1
  Sb  Sb82  1  0.83565603  0.33022488  0.50106427  1
  Sb  Sb83  1  -0.00341166  0.00480470  -0.00572586  1
  Sb  Sb84  1  0.33336199  0.16841188  0.17245138  1
  Sb  Sb85  1  0.83739972  0.49671755  0.33490769  1
  Sb  Sb86  1  0.16474844  0.00163785  0.16647869  1
  Sb  Sb87  1  0.66769745  0.32778271  0.33546398  1
  Sb  Sb88  1  0.16783506  0.33313151  0.16606420  1
  Sb  Sb89  1  0.32854610  0.67035696  0.34371576  1
  Sb  Sb90  1  0.83290491  0.83730601  0.66180722  1
  Sb  Sb91  1  -0.00237904  0.00400171  0.34173427  1
  Sb  Sb92  1  -0.00349599  0.49494404  0.16583955  1
  Sb  Sb93  1  0.66890940  0.66232694  -0.00220248  1
  Sb  Sb94  1  0.17148810  0.00662369  0.83277028  1
  Sb  Sb95  1  0.83365719  0.33245944  0.83165521  1
  Sb  Sb96  1  0.83366457  0.66603135  0.82770750  1
  Sb  Sb97  1  0.16573946  0.65785310  0.82799009  1
  Sb  Sb98  1  0.16953583  0.83445908  0.33402042  1
  Sb  Sb99  1  0.67134465  0.66995524  0.33947723  1
  Sb  Sb100  1  0.83062782  0.33452576  0.16778303  1
  Sb  Sb101  1  0.83247190  0.49939018  0.00008606  1
  Sb  Sb102  1  0.66897622  0.49751432  0.50193288  1
  Sb  Sb103  1  0.50176950  0.16337788  0.33709625  1
  Sb  Sb104  1  0.83374047  0.16748778  0.00032821  1
  Sb  Sb105  1  0.49996629  0.66330795  0.82812946  1
  Sb  Sb106  1  0.32854931  0.32842595  0.34333768  1
  Sb  Sb107  1  0.83000286  0.83275678  0.00217933  1
  Te  Te108  1  0.16379137  0.16684935  0.16405198  1
  Te  Te109  1  0.16657922  0.16993842  0.50150084  1
  Te  Te110  1  0.16627342  0.17122490  0.83350760  1
  Te  Te111  1  0.16767017  0.50031838  0.15500487  1
  Te  Te112  1  0.16465423  0.49787436  0.50358784  1
  Te  Te113  1  0.16593785  0.49387715  0.83417757  1
  Te  Te114  1  0.16589995  0.83322299  0.16037254  1
  Te  Te115  1  0.16745353  0.83190540  0.49879682  1
  Te  Te116  1  0.17323066  0.83412582  0.83736478  1
  Te  Te117  1  0.50513363  0.17329531  0.16763240  1
  Te  Te118  1  0.50047839  0.16664651  0.49978874  1
  Te  Te119  1  0.50268810  0.16745735  0.83330466  1
  Te  Te120  1  0.50511279  0.49622122  0.16921809  1
  Te  Te121  1  0.50065104  0.49686991  0.50406774  1
  Te  Te122  1  0.50110574  0.49773149  0.83002022  1
  Te  Te123  1  0.50627430  0.83284702  0.16205884  1
  Te  Te124  1  0.50034549  0.83465423  0.50146836  1
  Te  Te125  1  0.49624890  0.83297441  0.83737635  1
  Te  Te126  1  0.83151415  0.16657332  0.17064705  1
  Te  Te127  1  0.83206083  0.16536419  0.50024136  1
  Te  Te128  1  0.83276833  0.16560138  0.82823911  1
  Te  Te129  1  0.82608282  0.50599814  0.16770619  1
  Te  Te130  1  0.84045028  0.50751127  0.49880691  1
  Te  Te131  1  0.83440673  0.50181860  0.83264627  1
  Te  Te132  1  0.82696829  0.82853327  0.16841453  1
  Te  Te133  1  0.83127108  0.83302741  0.49919531  1
  Te  Te134  1  0.83434766  0.83485629  0.83311150  1
  Te  Te135  1  0.16712487  -0.00417349  -0.00076411  1
  Te  Te136  1  0.16673995  0.00524847  0.33230040  1
  Te  Te137  1  0.16147405  0.00190226  0.66808494  1
  Te  Te138  1  0.16689557  0.33486187  -0.00003870  1
  Te  Te139  1  0.16413669  0.33248892  0.33175520  1
  Te  Te140  1  0.16774406  0.33533148  0.66708748  1
  Te  Te141  1  0.16276763  0.66450979  -0.00081360  1
  Te  Te142  1  0.16056472  0.66597905  0.33796418  1
  Te  Te143  1  0.17025423  0.66342242  0.66075384  1
  Te  Te144  1  0.50397216  -0.00103280  0.00051481  1
  Te  Te145  1  0.50327970  -0.00263718  0.33664796  1
  Te  Te146  1  0.49943168  -0.00023831  0.66506585  1
  Te  Te147  1  0.50063886  0.33584424  -0.00402594  1
  Te  Te148  1  0.49799598  0.33503483  0.34430392  1
  Te  Te149  1  0.50447596  0.33553540  0.66669045  1
  Te  Te150  1  0.49893821  0.66315892  0.00104373  1
  Te  Te151  1  0.49906950  0.67133409  0.33907832  1
  Te  Te152  1  0.49909871  0.66134856  0.66287289  1
  Te  Te153  1  0.82378919  -0.00097434  -0.00032594  1
  Te  Te154  1  0.82825489  0.00547118  0.33948567  1
  Te  Te155  1  0.83718044  0.00540814  0.66032967  1
  Te  Te156  1  0.83277886  0.33259122  0.00237746  1
  Te  Te157  1  0.84152939  0.32784198  0.33420526  1
  Te  Te158  1  0.82319390  0.32736932  0.66457087  1
  Te  Te159  1  0.84017690  0.66777785  -0.00093924  1
  Te  Te160  1  0.83888579  0.66667833  0.33718675  1
  Te  Te161  1  0.83014770  0.66608774  0.66029773  1
  Te  Te162  1  0.00050332  0.16938443  -0.00265599  1
  Te  Te163  1  0.00011912  0.16710269  0.33325140  1
  Te  Te164  1  0.00021081  0.17295011  0.66699194  1
  Te  Te165  1  -0.00004625  0.49520178  -0.00048229  1
  Te  Te166  1  0.00351297  0.49864077  0.33214099  1
  Te  Te167  1  0.00146930  0.49529582  0.66855883  1
  Te  Te168  1  0.00315138  0.83683609  0.00042163  1
  Te  Te169  1  0.00069342  0.83165828  0.33735589  1
  Te  Te170  1  0.00086412  0.83027268  0.66085253  1
  Te  Te171  1  0.32329978  0.16525724  0.00209623  1
  Te  Te172  1  0.32781836  0.16215737  0.33944558  1
  Te  Te173  1  0.32658879  0.17062026  0.66119950  1
  Te  Te174  1  0.33735499  0.50128138  -0.00258140  1
  Te  Te175  1  0.32225661  0.50101201  0.33182788  1
  Te  Te176  1  0.33380098  0.49902888  0.66671948  1
  Te  Te177  1  0.33540467  0.83369549  0.00242428  1
  Te  Te178  1  0.33821648  0.83772736  0.33781480  1
  Te  Te179  1  0.33310341  0.83360951  0.66340465  1
  Te  Te180  1  0.66674501  0.17049352  0.00060952  1
  Te  Te181  1  0.66816774  0.16276763  0.33636540  1
  Te  Te182  1  0.66698558  0.16825875  0.66627377  1
  Te  Te183  1  0.66452605  0.49688332  -0.00213028  1
  Te  Te184  1  0.66601013  0.49945852  0.32697038  1
  Te  Te185  1  0.66740498  0.49774379  0.66797054  1
  Te  Te186  1  0.66226680  0.83058425  -0.00127232  1
  Te  Te187  1  0.66253775  0.83640002  0.33584254  1
  Te  Te188  1  0.66697451  0.82827602  0.66109879  1
  Te  Te189  1  -0.00273195  0.00755059  0.16547923  1
  Te  Te190  1  -0.00077431  -0.00657362  0.50391817  1
  Te  Te191  1  -0.00085598  0.00272694  0.82595903  1
  Te  Te192  1  -0.00046186  0.32922982  0.16682149  1
  Te  Te193  1  0.00162452  0.33706246  0.50016965  1
  Te  Te194  1  -0.00105481  0.33283289  0.83256189  1
  Te  Te195  1  -0.00581024  0.66780521  0.16369762  1
  Te  Te196  1  0.00108370  0.66454196  0.50093296  1
  Te  Te197  1  0.00015465  0.66473738  0.83993241  1
  Te  Te198  1  0.33483274  0.00063571  0.17644501  1
  Te  Te199  1  0.33429486  -0.00011062  0.49892358  1
  Te  Te200  1  0.34139614  -0.00310723  0.83328175  1
  Te  Te201  1  0.34574870  0.33302572  0.16661765  1
  Te  Te202  1  0.33309182  0.33101942  0.50537350  1
  Te  Te203  1  0.33986340  0.33226147  0.82642152  1
  Te  Te204  1  0.33401399  0.66626317  0.16789397  1
  Te  Te205  1  0.33805091  0.66942060  0.50419552  1
  Te  Te206  1  0.33260344  0.67479390  0.82539785  1
  Te  Te207  1  0.66762800  0.00101988  0.16439988  1
  Te  Te208  1  0.66555582  0.00187916  0.50144475  1
  Te  Te209  1  0.66072902  0.00335251  0.83459215  1
  Te  Te210  1  0.66515396  0.33090445  0.16889688  1
  Te  Te211  1  0.66584942  0.32956105  0.50115057  1
  Te  Te212  1  0.66846280  0.33273644  0.83378578  1
  Te  Te213  1  0.67247740  0.67195466  0.16659305  1
  Te  Te214  1  0.66264048  0.66320265  0.50212996  1
  Te  Te215  1  0.66751174  0.66370733  0.82660412  1
