# generated using pymatgen
data_AgSbTe2
_symmetry_space_group_name_H-M   'P 1'
_cell_length_a   18.32240015
_cell_length_b   18.31640476
_cell_length_c   18.32118565
_cell_angle_alpha   90.00295918
_cell_angle_beta   90.00001289
_cell_angle_gamma   90.00458705
_symmetry_Int_Tables_number   1
_chemical_formula_structural   AgSbTe2
_chemical_formula_sum   'Ag54 Sb54 Te108'
_cell_volume   6148.59898644
_cell_formula_units_Z   54
loop_
 _symmetry_equiv_pos_site_id
 _symmetry_equiv_pos_as_xyz
  1  'x, y, z'
loop_
 _atom_site_type_symbol
 _atom_site_label
 _atom_site_symmetry_multiplicity
 _atom_site_fract_x
 _atom_site_fract_y
 _atom_site_fract_z
 _atom_site_occupancy
  Ag  Ag0  1  0.82782240  0.16608909  0.00343812  1
  Ag  Ag1  1  -0.00474727  0.49470331  0.16378598  1
  Ag  Ag2  1  0.66182818  0.33564507  0.65874872  1
  Ag  Ag3  1  -0.00372576  0.33150230  0.00688631  1
  Ag  Ag4  1  0.00210210  0.83668224  0.49415473  1
  Ag  Ag5  1  0.50225359  0.00913557  0.16088673  1
  Ag  Ag6  1  0.82415768  0.49853383  0.66677097  1
  Ag  Ag7  1  0.49895246  0.65970107  0.49289659  1
  Ag  Ag8  1  0.66041260  0.00146260  0.00540677  1
  Ag  Ag9  1  0.65955793  0.16978596  0.16730063  1
  Ag  Ag10  1  0.33947383  0.66251336  0.66519089  1
  Ag  Ag11  1  0.66242236  0.49492670  0.49364569  1
  Ag  Ag12  1  0.66059377  0.66232722  0.32635496  1
  Ag  Ag13  1  0.66267587  0.50089636  0.16980976  1
  Ag  Ag14  1  0.33813987  0.16454656  0.49045266  1
  Ag  Ag15  1  0.66616077  0.00364599  0.32677581  1
  Ag  Ag16  1  0.33906114  0.16606011  0.83705937  1
  Ag  Ag17  1  0.66197801  0.33338281  0.33358937  1
  Ag  Ag18  1  0.16895763  0.00473879  0.83111062  1
  Ag  Ag19  1  0.49994792  0.49550083  0.66991685  1
  Ag  Ag20  1  0.34306759  0.32780582  0.33023647  1
  Ag  Ag21  1  0.16402840  0.33112634  0.16746169  1
  Ag  Ag22  1  0.17906174  0.49863984  0.66694383  1
  Ag  Ag23  1  0.49916172  0.49705881  0.00124199  1
  Ag  Ag24  1  0.00127605  0.00123436  0.66456918  1
  Ag  Ag25  1  0.83209245  0.83513027  0.33196016  1
  Ag  Ag26  1  0.49961645  0.00713065  0.84176997  1
  Ag  Ag27  1  0.49933753  0.32627592  0.82898029  1
  Ag  Ag28  1  0.34228409  0.00728405  -0.00156852  1
  Ag  Ag29  1  0.66357419  0.83744363  0.83401808  1
  Ag  Ag30  1  0.49945674  0.83205666  0.66622974  1
  Ag  Ag31  1  0.50366517  0.33632646  0.50391931  1
  Ag  Ag32  1  0.34198221  0.17169617  0.16921815  1
  Ag  Ag33  1  0.50014543  0.16484441  0.00486315  1
  Ag  Ag34  1  0.82190501  0.65939778  0.16617471  1
  Ag  Ag35  1  0.83346743  0.33492585  0.16946268  1
  Ag  Ag36  1  0.34358445  0.66421374  0.00447553  1
  Ag  Ag37  1  0.00403137  0.16421756  0.84238834  1
  Ag  Ag38  1  0.82810458  0.00304564  0.83541713  1
  Ag  Ag39  1  0.33409946  0.83679933  0.49942110  1
  Ag  Ag40  1  -0.00280430  0.16995382  0.16314699  1
  Ag  Ag41  1  0.50431543  0.66552572  0.16835326  1
  Ag  Ag42  1  -0.00341329  0.83822819  0.17091910  1
  Ag  Ag43  1  0.49929327  0.17037587  0.67163767  1
  Ag  Ag44  1  0.16730281  0.00113724  0.50096832  1
  Ag  Ag45  1  -0.00332328  0.00047850  0.33225744  1
  Ag  Ag46  1  0.49736620  0.16788743  0.32438482  1
  Ag  Ag47  1  -0.00537766  0.66206615  0.00614420  1
  Ag  Ag48  1  0.34236098  0.66131025  0.32971680  1
  Ag  Ag49  1  0.82185740  0.33364466  0.49294239  1
  Ag  Ag50  1  0.34256422  0.49719887  0.16313159  1
  Ag  Ag51  1  0.17778700  0.16629069  0.33042194  1
  Ag  Ag52  1  0.66098574  0.66769029  0.00837675  1
  Ag  Ag53  1  0.33798846  0.49584065  0.83630396  1
  Sb  Sb54  1  0.65870540  0.17341019  0.49186932  1
  Sb  Sb55  1  -0.00328622  0.67259803  0.32604425  1
  Sb  Sb56  1  0.82796850  0.49631071  0.00062806  1
  Sb  Sb57  1  0.17375439  0.49869801  -0.00047776  1
  Sb  Sb58  1  0.66875066  0.83179951  0.16604912  1
  Sb  Sb59  1  0.33641293  0.00395951  0.32973189  1
  Sb  Sb60  1  0.83113055  0.66908226  0.83949423  1
  Sb  Sb61  1  0.50232243  0.33294300  0.16929060  1
  Sb  Sb62  1  0.82921627  0.16482912  0.32697791  1
  Sb  Sb63  1  0.33301988  -0.00070988  0.66989814  1
  Sb  Sb64  1  0.83158305  0.83750211  0.00552755  1
  Sb  Sb65  1  0.17351810  0.32864174  0.83746913  1
  Sb  Sb66  1  0.82976540  0.50067609  0.33088688  1
  Sb  Sb67  1  0.16671932  0.83465253  0.00039688  1
  Sb  Sb68  1  0.00375978  0.16328136  0.49676894  1
  Sb  Sb69  1  0.82952421  0.83039886  0.66293828  1
  Sb  Sb70  1  0.82747190  0.32905391  0.83614661  1
  Sb  Sb71  1  0.82628402  0.66294547  0.49335832  1
  Sb  Sb72  1  0.17568321  0.66927199  0.49896004  1
  Sb  Sb73  1  0.00320622  0.66870884  0.66951767  1
  Sb  Sb74  1  -0.00074031  0.00389309  0.00220568  1
  Sb  Sb75  1  0.33935858  0.83589552  0.83063077  1
  Sb  Sb76  1  0.50252024  0.83401330  0.33654039  1
  Sb  Sb77  1  0.66558157  0.33123736  0.00607378  1
  Sb  Sb78  1  0.50146771  0.49597925  0.33064628  1
  Sb  Sb79  1  -0.00463983  0.84187727  0.83493682  1
  Sb  Sb80  1  -0.00542698  0.50308523  0.49609122  1
  Sb  Sb81  1  0.65973491  0.66074739  0.66525130  1
  Sb  Sb82  1  0.82885425  0.00253625  0.16366638  1
  Sb  Sb83  1  0.65993066  0.16390371  0.84164581  1
  Sb  Sb84  1  0.50113520  0.83551249  -0.00228918  1
  Sb  Sb85  1  -0.00516577  0.32964431  0.66991687  1
  Sb  Sb86  1  0.16959571  0.66918409  0.83402387  1
  Sb  Sb87  1  0.49944628  0.66625563  0.83655418  1
  Sb  Sb88  1  0.66309309  0.82973289  0.50059394  1
  Sb  Sb89  1  0.83627153  0.00486482  0.50105755  1
  Sb  Sb90  1  -0.00218068  0.32802928  0.32680078  1
  Sb  Sb91  1  0.33165664  0.83238989  0.17001051  1
  Sb  Sb92  1  0.82745980  0.16967046  0.67185962  1
  Sb  Sb93  1  0.16935712  0.65989537  0.16746897  1
  Sb  Sb94  1  0.16915220  0.00734740  0.16751439  1
  Sb  Sb95  1  0.49696375  0.00368894  0.49858001  1
  Sb  Sb96  1  0.33637070  0.33192537  0.00663310  1
  Sb  Sb97  1  0.00513821  0.49343526  0.83867049  1
  Sb  Sb98  1  0.17202924  0.16916328  0.66398982  1
  Sb  Sb99  1  0.34145160  0.49905722  0.49930326  1
  Sb  Sb100  1  0.17203082  0.33001858  0.49608678  1
  Sb  Sb101  1  0.16447330  0.83942066  0.33416959  1
  Sb  Sb102  1  0.65946692  0.50096823  0.83583947  1
  Sb  Sb103  1  0.34106257  0.33571421  0.66331438  1
  Sb  Sb104  1  0.66580749  0.00492574  0.66780962  1
  Sb  Sb105  1  0.17074450  0.16760742  0.00516891  1
  Sb  Sb106  1  0.17005205  0.49409983  0.33383048  1
  Sb  Sb107  1  0.17180055  0.83306022  0.66546337  1
  Te  Te108  1  0.16577678  0.17085229  0.17081071  1
  Te  Te109  1  0.17285760  0.16238695  0.49623030  1
  Te  Te110  1  0.16979316  0.16360048  0.83203924  1
  Te  Te111  1  0.16738000  0.49192986  0.16649720  1
  Te  Te112  1  0.16450648  0.49959213  0.50549224  1
  Te  Te113  1  0.17398479  0.49847246  0.82843438  1
  Te  Te114  1  0.15767070  0.83450355  0.16771014  1
  Te  Te115  1  0.16706631  0.83896192  0.50082498  1
  Te  Te116  1  0.16572772  0.84377114  0.83216734  1
  Te  Te117  1  0.49992380  0.16855161  0.16472517  1
  Te  Te118  1  0.49567440  0.16941767  0.50079773  1
  Te  Te119  1  0.49954667  0.16663643  0.83608480  1
  Te  Te120  1  0.50101284  0.50096898  0.16434052  1
  Te  Te121  1  0.50380537  0.49965312  0.50244720  1
  Te  Te122  1  0.49588000  0.49967593  0.83416206  1
  Te  Te123  1  0.49825138  0.82906534  0.16851663  1
  Te  Te124  1  0.49602595  0.83150226  0.50465826  1
  Te  Te125  1  0.50327147  0.83836962  0.82763770  1
  Te  Te126  1  0.83503563  0.16876527  0.16300458  1
  Te  Te127  1  0.83406820  0.17390550  0.50203939  1
  Te  Te128  1  0.83578328  0.16346271  0.83848240  1
  Te  Te129  1  0.83088292  0.49933457  0.16500369  1
  Te  Te130  1  0.82743783  0.49567754  0.50270894  1
  Te  Te131  1  0.83489819  0.49916785  0.82869902  1
  Te  Te132  1  0.83797540  0.83153121  0.17129640  1
  Te  Te133  1  0.83638018  0.83284494  0.49577278  1
  Te  Te134  1  0.82745954  0.83897675  0.83200827  1
  Te  Te135  1  0.17366935  0.00042356  -0.00515119  1
  Te  Te136  1  0.16456901  0.00589717  0.33563733  1
  Te  Te137  1  0.16304958  0.00084002  0.66590257  1
  Te  Te138  1  0.15800905  0.33411986  0.00508075  1
  Te  Te139  1  0.16873724  0.32691929  0.32901286  1
  Te  Te140  1  0.16463057  0.33855353  0.66600663  1
  Te  Te141  1  0.16749845  0.66638540  -0.00057335  1
  Te  Te142  1  0.17558291  0.66586172  0.33414353  1
  Te  Te143  1  0.17254630  0.66086649  0.66707839  1
  Te  Te144  1  0.50047239  -0.00030719  0.00103372  1
  Te  Te145  1  0.50401403  0.00381199  0.33015703  1
  Te  Te146  1  0.50055515  0.00343241  0.66769340  1
  Te  Te147  1  0.50055035  0.33269779  -0.00624804  1
  Te  Te148  1  0.50152973  0.32991863  0.33629832  1
  Te  Te149  1  0.50088106  0.33288083  0.66536480  1
  Te  Te150  1  0.50138669  0.66747567  0.00216361  1
  Te  Te151  1  0.50045123  0.66803317  0.33214715  1
  Te  Te152  1  0.49752060  0.66553843  0.66859823  1
  Te  Te153  1  0.82897278  0.00462109  -0.00371283  1
  Te  Te154  1  0.83192189  -0.00280855  0.33319258  1
  Te  Te155  1  0.83680699  -0.00044864  0.67182197  1
  Te  Te156  1  0.83529351  0.32845540  0.00379636  1
  Te  Te157  1  0.82874991  0.33343363  0.33192013  1
  Te  Te158  1  0.82765548  0.33734339  0.66598070  1
  Te  Te159  1  0.83155571  0.66620303  0.00619701  1
  Te  Te160  1  0.82859683  0.67011766  0.32710279  1
  Te  Te161  1  0.83302904  0.66087096  0.66620725  1
  Te  Te162  1  0.00274329  0.16732698  0.00151944  1
  Te  Te163  1  -0.00132206  0.16122465  0.32982392  1
  Te  Te164  1  -0.00003918  0.16163072  0.66792826  1
  Te  Te165  1  -0.00035813  0.49988568  0.00358060  1
  Te  Te166  1  0.00141206  0.50186981  0.32637177  1
  Te  Te167  1  -0.00287289  0.50055804  0.66774311  1
  Te  Te168  1  -0.00087359  0.82891619  0.00464394  1
  Te  Te169  1  -0.00187292  0.83761409  0.33312792  1
  Te  Te170  1  -0.00095653  0.83780008  0.66439409  1
  Te  Te171  1  0.33697534  0.16656849  0.00105366  1
  Te  Te172  1  0.33683783  0.16551595  0.33037118  1
  Te  Te173  1  0.33825483  0.16732867  0.67147418  1
  Te  Te174  1  0.33834870  0.50002334  0.00198551  1
  Te  Te175  1  0.33324259  0.50005218  0.32754957  1
  Te  Te176  1  0.33833997  0.50145260  0.66580976  1
  Te  Te177  1  0.33273239  0.82628679  0.00018022  1
  Te  Te178  1  0.33280316  0.83002886  0.33869991  1
  Te  Te179  1  0.33854736  0.82840435  0.66280406  1
  Te  Te180  1  0.66419790  0.16436245  0.00691235  1
  Te  Te181  1  0.66355064  0.16614650  0.32690920  1
  Te  Te182  1  0.66052310  0.17299517  0.66452837  1
  Te  Te183  1  0.66118004  0.50244452  0.00420689  1
  Te  Te184  1  0.66733434  0.49991462  0.33049502  1
  Te  Te185  1  0.66232917  0.49682330  0.66902166  1
  Te  Te186  1  0.66790021  0.83544890  -0.00404851  1
  Te  Te187  1  0.67022657  0.83510639  0.33460792  1
  Te  Te188  1  0.66160638  0.83254100  0.66932894  1
  Te  Te189  1  -0.00004914  0.00238315  0.16913798  1
  Te  Te190  1  0.00214232  -0.00224804  0.49831726  1
  Te  Te191  1  0.00048667  0.00429171  0.83440473  1
  Te  Te192  1  -0.00429924  0.33237032  0.16682766  1
  Te  Te193  1  -0.00240536  0.33482641  0.49946968  1
  Te  Te194  1  0.00016581  0.32499146  0.83844252  1
  Te  Te195  1  0.00251840  0.66230404  0.16430294  1
  Te  Te196  1  0.00011365  0.67368681  0.49921748  1
  Te  Te197  1  0.00070775  0.66770165  0.84088332  1
  Te  Te198  1  0.33738586  0.00065578  0.16142143  1
  Te  Te199  1  0.32987486  0.00091637  0.50059056  1
  Te  Te200  1  0.33723318  0.00195313  0.83597651  1
  Te  Te201  1  0.33429393  0.33308776  0.17003239  1
  Te  Te202  1  0.33750607  0.32867210  0.49264626  1
  Te  Te203  1  0.33771472  0.33280895  0.83450618  1
  Te  Te204  1  0.33573622  0.66596009  0.16601241  1
  Te  Te205  1  0.33920905  0.66657903  0.49967939  1
  Te  Te206  1  0.33237723  0.66381243  0.83631864  1
  Te  Te207  1  0.66355263  -0.00121162  0.16607896  1
  Te  Te208  1  0.66776184  -0.00050468  0.49371716  1
  Te  Te209  1  0.66432921  -0.00073400  0.83270342  1
  Te  Te210  1  0.66957160  0.33449868  0.17003493  1
  Te  Te211  1  0.66481424  0.33507630  0.49629977  1
  Te  Te212  1  0.66052344  0.33289494  0.82966933  1
  Te  Te213  1  0.66560136  0.66796264  0.16640752  1
  Te  Te214  1  0.66009985  0.66155728  0.49504040  1
  Te  Te215  1  0.66769712  0.67182748  0.83978945  1
