# generated using pymatgen
data_AgSbTe2
_symmetry_space_group_name_H-M   'P 1'
_cell_length_a   18.32794200
_cell_length_b   18.33307021
_cell_length_c   18.33458638
_cell_angle_alpha   89.99925780
_cell_angle_beta   89.99809648
_cell_angle_gamma   89.99917822
_symmetry_Int_Tables_number   1
_chemical_formula_structural   AgSbTe2
_chemical_formula_sum   'Ag54 Sb54 Te108'
_cell_volume   6160.55756443
_cell_formula_units_Z   54
loop_
 _symmetry_equiv_pos_site_id
 _symmetry_equiv_pos_as_xyz
  1  'x, y, z'
loop_
 _atom_site_type_symbol
 _atom_site_label
 _atom_site_symmetry_multiplicity
 _atom_site_fract_x
 _atom_site_fract_y
 _atom_site_fract_z
 _atom_site_occupancy
  Ag  Ag0  1  0.83793323  0.33536085  0.50258443  1
  Ag  Ag1  1  0.82707238  -0.00224214  0.16487502  1
  Ag  Ag2  1  0.83215394  0.67475076  0.82638446  1
  Ag  Ag3  1  0.32695692  0.32705251  0.34075805  1
  Ag  Ag4  1  0.83189474  0.66586343  0.50860948  1
  Ag  Ag5  1  0.33492537  0.82873373  0.82879067  1
  Ag  Ag6  1  0.00878495  0.33037933  0.33742851  1
  Ag  Ag7  1  0.16830469  0.33433308  0.17948205  1
  Ag  Ag8  1  0.67505025  0.33765867  0.66576553  1
  Ag  Ag9  1  0.00080991  0.50184750  0.16746252  1
  Ag  Ag10  1  0.67749247  0.83233284  0.84426515  1
  Ag  Ag11  1  0.00485656  0.66933588  0.33304347  1
  Ag  Ag12  1  0.66724469  0.32750273  0.33602818  1
  Ag  Ag13  1  0.33376401  0.16820270  0.18136584  1
  Ag  Ag14  1  0.00374162  0.83729696  0.50118593  1
  Ag  Ag15  1  0.34538994  0.66500164  0.00124023  1
  Ag  Ag16  1  0.49947945  0.67171217  0.15922677  1
  Ag  Ag17  1  0.16738316  0.49452981  0.66644745  1
  Ag  Ag18  1  0.32319310  0.17693211  0.49855226  1
  Ag  Ag19  1  0.33112189  0.17143118  0.82766368  1
  Ag  Ag20  1  0.82930657  0.83014328  0.67349535  1
  Ag  Ag21  1  0.66746910  0.33646924  -0.00295382  1
  Ag  Ag22  1  0.66594781  0.83656913  0.15624462  1
  Ag  Ag23  1  0.50916120  0.82976913  -0.00354417  1
  Ag  Ag24  1  0.49522667  0.66953820  0.49759137  1
  Ag  Ag25  1  0.17055682  0.16912386  0.34378321  1
  Ag  Ag26  1  0.32992934  0.33366420  0.66068160  1
  Ag  Ag27  1  0.67154607  0.66794195  0.67045767  1
  Ag  Ag28  1  0.83670230  0.49852983  0.66641361  1
  Ag  Ag29  1  0.66900406  -0.01276796  0.00866434  1
  Ag  Ag30  1  0.32799837  0.83061929  0.50126384  1
  Ag  Ag31  1  0.16590680  0.17256598  0.65538320  1
  Ag  Ag32  1  0.81977115  0.83163138  -0.01450727  1
  Ag  Ag33  1  0.83238239  0.33429133  0.82008409  1
  Ag  Ag34  1  -0.01197540  0.83277818  0.82570404  1
  Ag  Ag35  1  0.66354613  0.67553475  -0.00431136  1
  Ag  Ag36  1  0.83328532  -0.01336573  0.83270185  1
  Ag  Ag37  1  -0.00026655  -0.00242679  0.33887296  1
  Ag  Ag38  1  0.33142275  0.50157657  0.82843135  1
  Ag  Ag39  1  0.48872722  0.16693334  0.33325051  1
  Ag  Ag40  1  0.50528934  0.83115558  0.67131719  1
  Ag  Ag41  1  0.50791700  -0.00771855  0.16835398  1
  Ag  Ag42  1  0.01037248  0.15971233  0.49997280  1
  Ag  Ag43  1  0.33071465  0.66549878  0.33626867  1
  Ag  Ag44  1  0.16493099  0.83738197  0.33780444  1
  Ag  Ag45  1  0.17256306  0.50148932  -0.00292348  1
  Ag  Ag46  1  0.16602969  0.32543739  0.49725559  1
  Ag  Ag47  1  0.67057668  0.00132014  0.32825437  1
  Ag  Ag48  1  0.49611339  0.51286874  0.00026058  1
  Ag  Ag49  1  0.83754518  0.17255364  0.66548837  1
  Ag  Ag50  1  -0.00232185  -0.00202233  0.65660726  1
  Ag  Ag51  1  -0.00402563  0.66705081  0.00347117  1
  Ag  Ag52  1  0.16337682  0.01216069  0.49884775  1
  Ag  Ag53  1  0.33125140  0.49444671  0.50449946  1
  Sb  Sb54  1  0.66532641  0.66856206  0.33321017  1
  Sb  Sb55  1  -0.00391347  0.83086137  0.16917058  1
  Sb  Sb56  1  -0.00289455  0.33921336  0.00498623  1
  Sb  Sb57  1  0.83532975  0.49945992  0.33922427  1
  Sb  Sb58  1  0.83255948  0.16251252  -0.00668800  1
  Sb  Sb59  1  0.49950703  0.50475414  0.66969755  1
  Sb  Sb60  1  0.33795325  0.83466073  0.16871948  1
  Sb  Sb61  1  0.50257213  0.33313261  0.83259496  1
  Sb  Sb62  1  0.16764211  0.66486997  0.49871361  1
  Sb  Sb63  1  0.16736209  0.49542210  0.33552946  1
  Sb  Sb64  1  0.50377420  0.66937585  0.83508831  1
  Sb  Sb65  1  0.67005320  0.50297453  0.16387650  1
  Sb  Sb66  1  0.33791104  0.66451891  0.66553173  1
  Sb  Sb67  1  0.66318682  0.49965489  0.50191198  1
  Sb  Sb68  1  0.83523878  0.32886632  0.17094883  1
  Sb  Sb69  1  -0.00629092  -0.00835588  0.00198164  1
  Sb  Sb70  1  0.16874646  0.17269421  0.00062397  1
  Sb  Sb71  1  0.16365116  0.66707379  0.83353324  1
  Sb  Sb72  1  0.83727843  0.83439189  0.33638819  1
  Sb  Sb73  1  0.50477232  -0.00427038  0.83668165  1
  Sb  Sb74  1  0.83976311  -0.00081036  0.50251548  1
  Sb  Sb75  1  0.16375750  0.33383979  0.82856481  1
  Sb  Sb76  1  0.83161419  0.50674774  -0.00639903  1
  Sb  Sb77  1  0.00387895  0.50117326  0.49863318  1
  Sb  Sb78  1  0.49512437  -0.00425826  0.49521818  1
  Sb  Sb79  1  0.66452854  0.50491109  0.83329471  1
  Sb  Sb80  1  0.16956065  0.66181703  0.16763803  1
  Sb  Sb81  1  0.49591136  0.33665860  0.49918769  1
  Sb  Sb82  1  0.00066237  0.50517615  0.83465154  1
  Sb  Sb83  1  0.83693715  0.16559880  0.33986158  1
  Sb  Sb84  1  0.67394194  -0.00308988  0.66660013  1
  Sb  Sb85  1  0.49751469  0.33390994  0.16788779  1
  Sb  Sb86  1  0.83058666  0.67161637  0.16509695  1
  Sb  Sb87  1  -0.00110092  0.32934300  0.65956180  1
  Sb  Sb88  1  0.66527571  0.16402506  0.83220811  1
  Sb  Sb89  1  -0.00638450  0.67148587  0.66340407  1
  Sb  Sb90  1  0.16770689  0.82812003  0.00367632  1
  Sb  Sb91  1  0.49742328  0.83602808  0.33276997  1
  Sb  Sb92  1  0.33901538  -0.00661202  -0.00035958  1
  Sb  Sb93  1  0.16580907  0.83278512  0.66149454  1
  Sb  Sb94  1  0.33014053  0.49773566  0.16748178  1
  Sb  Sb95  1  0.00449587  0.16910124  0.17636375  1
  Sb  Sb96  1  0.49710390  0.16319571  0.66120909  1
  Sb  Sb97  1  0.00108758  0.16192719  0.82433647  1
  Sb  Sb98  1  0.66704364  0.16807488  0.49963197  1
  Sb  Sb99  1  0.16202615  -0.00114341  0.82705778  1
  Sb  Sb100  1  0.33623045  0.33940006  -0.00150070  1
  Sb  Sb101  1  0.66865036  0.83264337  0.50195864  1
  Sb  Sb102  1  0.49933520  0.16346585  0.00459298  1
  Sb  Sb103  1  0.32881367  0.00302592  0.66488922  1
  Sb  Sb104  1  0.33110912  0.00242442  0.33449045  1
  Sb  Sb105  1  0.16629067  0.00473989  0.17428612  1
  Sb  Sb106  1  0.49693501  0.49836076  0.33061778  1
  Sb  Sb107  1  0.66284393  0.16066991  0.16822302  1
  Te  Te108  1  0.17200511  0.17261325  0.16801197  1
  Te  Te109  1  0.16693038  0.16766581  0.49974185  1
  Te  Te110  1  0.17104968  0.16596790  0.82985893  1
  Te  Te111  1  0.16300874  0.49486625  0.16372056  1
  Te  Te112  1  0.17111563  0.49587704  0.50444139  1
  Te  Te113  1  0.16971889  0.50011647  0.83221905  1
  Te  Te114  1  0.16683837  0.83497424  0.17482250  1
  Te  Te115  1  0.16485008  0.83077908  0.49797008  1
  Te  Te116  1  0.17535525  0.83431070  0.83333905  1
  Te  Te117  1  0.49477186  0.16504096  0.17139459  1
  Te  Te118  1  0.49438090  0.16457410  0.49428928  1
  Te  Te119  1  0.49201707  0.16406949  0.83129802  1
  Te  Te120  1  0.50070193  0.50569863  0.16116679  1
  Te  Te121  1  0.49254948  0.50793915  0.50068455  1
  Te  Te122  1  0.49294948  0.49984489  0.83905576  1
  Te  Te123  1  0.50235630  0.83280465  0.16533234  1
  Te  Te124  1  0.49781753  0.82946169  0.50242707  1
  Te  Te125  1  0.49392621  0.83437029  0.83287973  1
  Te  Te126  1  0.83536330  0.15942341  0.16481703  1
  Te  Te127  1  0.83407555  0.17017006  0.50675803  1
  Te  Te128  1  0.83338564  0.17355664  0.82647618  1
  Te  Te129  1  0.83945555  0.49901632  0.16559731  1
  Te  Te130  1  0.83274708  0.50050418  0.50607927  1
  Te  Te131  1  0.83296658  0.49543787  0.82730270  1
  Te  Te132  1  0.82854110  0.83768334  0.16683534  1
  Te  Te133  1  0.83740791  0.83030049  0.50393370  1
  Te  Te134  1  0.83271580  0.83051558  0.83099426  1
  Te  Te135  1  0.16597513  0.00090428  0.00213845  1
  Te  Te136  1  0.16337848  0.00144607  0.33751105  1
  Te  Te137  1  0.16056435  0.00314443  0.66082135  1
  Te  Te138  1  0.16645216  0.34105487  -0.00031522  1
  Te  Te139  1  0.16844696  0.33302855  0.33645435  1
  Te  Te140  1  0.16741652  0.33310585  0.66362769  1
  Te  Te141  1  0.16240974  0.66084699  0.00102245  1
  Te  Te142  1  0.16761494  0.66815128  0.33256907  1
  Te  Te143  1  0.16578324  0.65840614  0.66653929  1
  Te  Te144  1  0.50661370  -0.00409422  0.00547273  1
  Te  Te145  1  0.50260130  0.00371261  0.32832923  1
  Te  Te146  1  0.50227672  -0.00690829  0.66510454  1
  Te  Te147  1  0.50555094  0.33274190  0.00067711  1
  Te  Te148  1  0.50170711  0.32952439  0.33317467  1
  Te  Te149  1  0.50254782  0.33315634  0.66617109  1
  Te  Te150  1  0.50221491  0.66973466  -0.00118133  1
  Te  Te151  1  0.49787465  0.66637372  0.33625991  1
  Te  Te152  1  0.50581243  0.67066138  0.66253730  1
  Te  Te153  1  0.82915264  -0.00385716  -0.00200907  1
  Te  Te154  1  0.83454589  0.00101630  0.33166594  1
  Te  Te155  1  0.83627989  -0.00346413  0.66944121  1
  Te  Te156  1  0.82873832  0.33453698  0.00193866  1
  Te  Te157  1  0.83036517  0.33274336  0.33883070  1
  Te  Te158  1  0.83542964  0.33385128  0.66245424  1
  Te  Te159  1  0.83100198  0.67037393  -0.00065444  1
  Te  Te160  1  0.83577467  0.66567061  0.33662344  1
  Te  Te161  1  0.83229843  0.66801826  0.66689131  1
  Te  Te162  1  0.00083696  0.16747926  0.00013113  1
  Te  Te163  1  0.00348476  0.16850697  0.33963446  1
  Te  Te164  1  0.00068620  0.16207820  0.66135158  1
  Te  Te165  1  0.00124359  0.50597190  0.00249804  1
  Te  Te166  1  0.00090725  0.50252158  0.33014432  1
  Te  Te167  1  0.00037304  0.50073317  0.66721581  1
  Te  Te168  1  0.00110776  0.82690097  -0.00147372  1
  Te  Te169  1  0.00318168  0.83290829  0.33581608  1
  Te  Te170  1  0.00055583  0.83661483  0.66591272  1
  Te  Te171  1  0.33390340  0.16693254  -0.00908469  1
  Te  Te172  1  0.33082820  0.16677201  0.33805864  1
  Te  Te173  1  0.33238351  0.17001890  0.66349193  1
  Te  Te174  1  0.33376334  0.50376954  0.00010673  1
  Te  Te175  1  0.33310392  0.50375397  0.33711946  1
  Te  Te176  1  0.33401942  0.49727257  0.66720465  1
  Te  Te177  1  0.33477101  0.82635597  -0.00049175  1
  Te  Te178  1  0.32974157  0.83074114  0.33599139  1
  Te  Te179  1  0.33308671  0.83322603  0.66529992  1
  Te  Te180  1  0.66546934  0.17589197  -0.00050046  1
  Te  Te181  1  0.66767070  0.16617971  0.33294265  1
  Te  Te182  1  0.66809166  0.17011814  0.66691888  1
  Te  Te183  1  0.66280419  0.49680044  -0.00062184  1
  Te  Te184  1  0.66642474  0.49315650  0.33268371  1
  Te  Te185  1  0.66994558  0.50072967  0.66796177  1
  Te  Te186  1  0.66495527  0.83151859  0.00006450  1
  Te  Te187  1  0.66672119  0.83743520  0.33155928  1
  Te  Te188  1  0.66743291  0.83173474  0.66739158  1
  Te  Te189  1  -0.00305797  0.00036330  0.17209489  1
  Te  Te190  1  0.00091233  -0.00110266  0.49704866  1
  Te  Te191  1  -0.00542463  -0.00602906  0.83376936  1
  Te  Te192  1  0.00368527  0.33708028  0.17321222  1
  Te  Te193  1  -0.00038294  0.33490209  0.49568614  1
  Te  Te194  1  -0.00676908  0.33225374  0.83567949  1
  Te  Te195  1  -0.00101280  0.66399167  0.16916975  1
  Te  Te196  1  -0.00315574  0.66875066  0.49527804  1
  Te  Te197  1  -0.00542702  0.67202999  0.83621864  1
  Te  Te198  1  0.33606626  0.00679738  0.16570062  1
  Te  Te199  1  0.32745298  -0.00909206  0.49958906  1
  Te  Te200  1  0.33223509  -0.00350529  0.83342262  1
  Te  Te201  1  0.32985299  0.32968549  0.16870678  1
  Te  Te202  1  0.33370479  0.33489386  0.49993198  1
  Te  Te203  1  0.33256916  0.33576199  0.82926388  1
  Te  Te204  1  0.33795458  0.66619730  0.16829382  1
  Te  Te205  1  0.33350892  0.67016430  0.49897416  1
  Te  Te206  1  0.33216462  0.66529858  0.83524710  1
  Te  Te207  1  0.66646416  -0.00110165  0.16702471  1
  Te  Te208  1  0.66589556  0.00051529  0.49274452  1
  Te  Te209  1  0.67223662  -0.00362004  0.83535316  1
  Te  Te210  1  0.66658628  0.33364564  0.17068764  1
  Te  Te211  1  0.66866710  0.33412411  0.50110176  1
  Te  Te212  1  0.66960549  0.33258643  0.83027832  1
  Te  Te213  1  0.66256686  0.67074070  0.16447512  1
  Te  Te214  1  0.67040805  0.66621300  0.50185390  1
  Te  Te215  1  0.67043742  0.66993936  0.83311004  1
