# generated using pymatgen
data_AgSbTe2
_symmetry_space_group_name_H-M   'P 1'
_cell_length_a   18.33174586
_cell_length_b   18.33272615
_cell_length_c   18.33908426
_cell_angle_alpha   90.00009034
_cell_angle_beta   89.99987827
_cell_angle_gamma   90.00054552
_symmetry_Int_Tables_number   1
_chemical_formula_structural   AgSbTe2
_chemical_formula_sum   'Ag54 Sb54 Te108'
_cell_volume   6163.23212276
_cell_formula_units_Z   54
loop_
 _symmetry_equiv_pos_site_id
 _symmetry_equiv_pos_as_xyz
  1  'x, y, z'
loop_
 _atom_site_type_symbol
 _atom_site_label
 _atom_site_symmetry_multiplicity
 _atom_site_fract_x
 _atom_site_fract_y
 _atom_site_fract_z
 _atom_site_occupancy
  Ag  Ag0  1  0.15882999  0.33306542  0.16726488  1
  Ag  Ag1  1  0.83105807  0.34578687  0.84219088  1
  Ag  Ag2  1  0.83836099  0.34063093  0.15923030  1
  Ag  Ag3  1  0.16294288  0.16426172  0.66438898  1
  Ag  Ag4  1  0.82686079  -0.00482144  0.83076176  1
  Ag  Ag5  1  0.66890669  0.50452380  0.83157248  1
  Ag  Ag6  1  -0.00400885  0.50637455  0.16267774  1
  Ag  Ag7  1  -0.00252833  0.82667750  0.16224301  1
  Ag  Ag8  1  0.83509859  0.66963590  0.50274004  1
  Ag  Ag9  1  -0.00398133  0.50371594  0.49464838  1
  Ag  Ag10  1  0.83372332  0.16483713  0.66954537  1
  Ag  Ag11  1  0.34169567  -0.00364964  0.66381215  1
  Ag  Ag12  1  0.83105282  0.51052015  0.67467864  1
  Ag  Ag13  1  0.66988178  0.83794377  0.49971907  1
  Ag  Ag14  1  0.32630321  0.50336714  0.16106843  1
  Ag  Ag15  1  0.49061389  -0.00214237  0.16561158  1
  Ag  Ag16  1  0.33300673  0.15173957  0.16556431  1
  Ag  Ag17  1  -0.00639303  0.66518119  0.32168149  1
  Ag  Ag18  1  0.82954692  0.16540039  0.32615889  1
  Ag  Ag19  1  0.82666602  -0.00590232  0.50297341  1
  Ag  Ag20  1  0.83356459  0.82903949  0.32916508  1
  Ag  Ag21  1  0.50868379  0.34779455  0.83290169  1
  Ag  Ag22  1  0.83591354  0.66140189  0.15479008  1
  Ag  Ag23  1  0.17207843  -0.00052806  0.49878504  1
  Ag  Ag24  1  0.33688443  0.66904168  0.66973216  1
  Ag  Ag25  1  0.33884550  -0.00214046  0.32382723  1
  Ag  Ag26  1  0.50940717  0.66383415  0.83219279  1
  Ag  Ag27  1  -0.00516792  0.34610656  0.00288575  1
  Ag  Ag28  1  0.16225273  0.83127883  0.00395591  1
  Ag  Ag29  1  -0.00582423  0.82990608  0.84344864  1
  Ag  Ag30  1  0.82958929  0.66398241  0.84047552  1
  Ag  Ag31  1  0.33622695  0.83849926  0.49687273  1
  Ag  Ag32  1  0.50351047  -0.00383657  0.83221641  1
  Ag  Ag33  1  0.83689366  0.50707690  0.00054880  1
  Ag  Ag34  1  0.49824233  0.83510635  0.00010496  1
  Ag  Ag35  1  -0.01367877  0.66544389  0.66996411  1
  Ag  Ag36  1  0.83516970  0.50829609  0.32488618  1
  Ag  Ag37  1  0.67395114  0.16462910  0.16795562  1
  Ag  Ag38  1  0.15554577  0.50416307  0.00264838  1
  Ag  Ag39  1  0.67177074  0.66830857  0.67243565  1
  Ag  Ag40  1  0.17559476  0.00014443  0.16825332  1
  Ag  Ag41  1  0.67237376  0.32731397  0.33139295  1
  Ag  Ag42  1  0.50019694  -0.00349413  0.50262660  1
  Ag  Ag43  1  0.16512353  0.33129777  0.49586204  1
  Ag  Ag44  1  -0.00698675  0.66575655  0.00195578  1
  Ag  Ag45  1  0.83592452  0.82272030  0.00275963  1
  Ag  Ag46  1  0.66809836  -0.00376288  0.66187119  1
  Ag  Ag47  1  0.33522980  -0.00448596  0.01140406  1
  Ag  Ag48  1  0.66847923  0.00102079  0.33754772  1
  Ag  Ag49  1  0.83325217  0.16724835  0.00180261  1
  Ag  Ag50  1  0.34149973  0.50295281  0.83585517  1
  Ag  Ag51  1  0.67951039  0.66706678  -0.00878849  1
  Ag  Ag52  1  0.32829783  0.83960058  0.16504670  1
  Ag  Ag53  1  0.50831234  0.50443290  0.67278847  1
  Sb  Sb54  1  -0.00738054  0.33921646  0.32815801  1
  Sb  Sb55  1  0.16752572  -0.00133040  0.83404942  1
  Sb  Sb56  1  0.33456768  0.16651422  0.83610338  1
  Sb  Sb57  1  0.67234802  0.49804286  0.16262324  1
  Sb  Sb58  1  -0.00553759  -0.00527917  0.33276663  1
  Sb  Sb59  1  0.15993971  0.66962286  0.50273544  1
  Sb  Sb60  1  0.83313398  -0.00127343  0.16561137  1
  Sb  Sb61  1  -0.00232290  0.16705530  0.16538696  1
  Sb  Sb62  1  0.50340426  0.16382130  0.66828679  1
  Sb  Sb63  1  -0.00440817  -0.00592647  0.66596518  1
  Sb  Sb64  1  0.16033478  0.49851291  0.32651089  1
  Sb  Sb65  1  0.15838705  0.66746805  0.16407335  1
  Sb  Sb66  1  0.50026606  0.83161541  0.67350416  1
  Sb  Sb67  1  0.67136725  0.15886265  0.49589925  1
  Sb  Sb68  1  0.67598578  0.66947912  0.33402001  1
  Sb  Sb69  1  0.50686151  0.67369449  0.50866547  1
  Sb  Sb70  1  -0.00527425  0.16175850  0.83464224  1
  Sb  Sb71  1  0.32950745  0.33238877  0.00155415  1
  Sb  Sb72  1  0.50285631  0.50510368  -0.00596208  1
  Sb  Sb73  1  0.32822427  0.67288739  0.33352357  1
  Sb  Sb74  1  0.50491092  0.67152726  0.15857019  1
  Sb  Sb75  1  0.16230372  0.66588944  0.83373388  1
  Sb  Sb76  1  -0.00748980  0.50633113  0.83851180  1
  Sb  Sb77  1  0.00033736  -0.00767303  0.00160049  1
  Sb  Sb78  1  0.50435135  0.83558715  0.33005846  1
  Sb  Sb79  1  0.67113499  0.82820302  0.83192673  1
  Sb  Sb80  1  0.16214073  0.33618858  0.83723051  1
  Sb  Sb81  1  0.33183276  0.66992908  -0.00276985  1
  Sb  Sb82  1  0.67008312  0.16790723  0.83761728  1
  Sb  Sb83  1  0.33595596  0.32774990  0.33004535  1
  Sb  Sb84  1  -0.00337219  0.33865132  0.67131664  1
  Sb  Sb85  1  0.67456689  0.33786853  0.00168514  1
  Sb  Sb86  1  0.50206284  0.33075083  0.16000330  1
  Sb  Sb87  1  0.32816497  0.50659885  0.50194095  1
  Sb  Sb88  1  0.66953722  0.33392486  0.66479837  1
  Sb  Sb89  1  0.66539472  -0.00564506  -0.00076560  1
  Sb  Sb90  1  0.49749416  0.32978517  0.50440906  1
  Sb  Sb91  1  0.67495061  0.50636583  0.50450489  1
  Sb  Sb92  1  0.16231523  0.16541269  -0.00023319  1
  Sb  Sb93  1  0.50588884  0.16137064  0.33100853  1
  Sb  Sb94  1  0.83650422  0.33551933  0.49858908  1
  Sb  Sb95  1  0.50664582  0.50015764  0.33665706  1
  Sb  Sb96  1  -0.00362609  0.82907771  0.49802722  1
  Sb  Sb97  1  0.50431190  0.16038710  0.00099327  1
  Sb  Sb98  1  0.67066167  0.83725649  0.16840461  1
  Sb  Sb99  1  0.16150583  0.16396925  0.33362858  1
  Sb  Sb100  1  0.16278798  0.49783228  0.67099090  1
  Sb  Sb101  1  0.33109738  0.15587035  0.49541714  1
  Sb  Sb102  1  0.16804906  0.83729982  0.66898701  1
  Sb  Sb103  1  0.83179067  0.82961742  0.66898398  1
  Sb  Sb104  1  0.33241853  0.33287575  0.66774418  1
  Sb  Sb105  1  0.16145233  0.83627322  0.32764097  1
  Sb  Sb106  1  -0.00172137  0.17037519  0.50073765  1
  Sb  Sb107  1  0.33268093  0.83142538  0.83652948  1
  Te  Te108  1  0.16951576  0.16705487  0.16613664  1
  Te  Te109  1  0.16515938  0.16608897  0.50288160  1
  Te  Te110  1  0.16618607  0.16813409  0.82626178  1
  Te  Te111  1  0.16425137  0.49872814  0.16285940  1
  Te  Te112  1  0.16099528  0.49793375  0.49992381  1
  Te  Te113  1  0.17584457  0.49841319  0.83953923  1
  Te  Te114  1  0.16731439  0.83448645  0.16375136  1
  Te  Te115  1  0.16912976  0.83783589  0.49965777  1
  Te  Te116  1  0.16074898  0.83377417  0.84098798  1
  Te  Te117  1  0.49516261  0.16282165  0.16594273  1
  Te  Te118  1  0.49952569  0.15948064  0.50034872  1
  Te  Te119  1  0.50121457  0.15948657  0.83336084  1
  Te  Te120  1  0.49744990  0.50063367  0.16719498  1
  Te  Te121  1  0.49927914  0.50016722  0.50754244  1
  Te  Te122  1  0.50185552  0.50366080  0.83151675  1
  Te  Te123  1  0.49732374  0.83703249  0.16194887  1
  Te  Te124  1  0.49839087  0.83842120  0.49796818  1
  Te  Te125  1  0.49912334  0.83648461  0.83990872  1
  Te  Te126  1  0.83304513  0.16635317  0.16650273  1
  Te  Te127  1  0.83446819  0.16302044  0.50501964  1
  Te  Te128  1  0.83281786  0.16061037  0.83171397  1
  Te  Te129  1  0.83427417  0.50010725  0.16453303  1
  Te  Te130  1  0.83738330  0.50100632  0.50291077  1
  Te  Te131  1  0.83249072  0.50271054  0.83426426  1
  Te  Te132  1  0.83565261  0.83273679  0.16562612  1
  Te  Te133  1  0.83403511  0.83460449  0.49791332  1
  Te  Te134  1  0.83388917  0.83341296  0.83646024  1
  Te  Te135  1  0.17115258  -0.00200120  0.00236955  1
  Te  Te136  1  0.17014003  0.00102550  0.33412382  1
  Te  Te137  1  0.16466372  0.00353521  0.66499425  1
  Te  Te138  1  0.16146036  0.33499560  0.00517097  1
  Te  Te139  1  0.16678855  0.33133187  0.33126660  1
  Te  Te140  1  0.16464754  0.32832075  0.66401773  1
  Te  Te141  1  0.16273813  0.66653924  -0.00041919  1
  Te  Te142  1  0.15666796  0.66686101  0.33534961  1
  Te  Te143  1  0.17750491  0.66670046  0.66711400  1
  Te  Te144  1  0.49804848  -0.00428452  -0.00079940  1
  Te  Te145  1  0.50082323  -0.00145183  0.33353509  1
  Te  Te146  1  0.50274280  -0.00073763  0.66639101  1
  Te  Te147  1  0.50095930  0.33236781  -0.00761446  1
  Te  Te148  1  0.50822085  0.33277691  0.33417878  1
  Te  Te149  1  0.50067919  0.33774475  0.67261256  1
  Te  Te150  1  0.50092963  0.67290036  -0.00655662  1
  Te  Te151  1  0.50022785  0.66621782  0.33403331  1
  Te  Te152  1  0.49917023  0.66471223  0.67197910  1
  Te  Te153  1  0.83335647  0.00561869  -0.00357299  1
  Te  Te154  1  0.83044112  -0.00106186  0.33406465  1
  Te  Te155  1  0.83146126  -0.00144877  0.66615648  1
  Te  Te156  1  0.83428084  0.33239951  0.00042022  1
  Te  Te157  1  0.83044598  0.33130270  0.33312618  1
  Te  Te158  1  0.83340038  0.32871332  0.66886724  1
  Te  Te159  1  0.83565640  0.66687763  -0.00048194  1
  Te  Te160  1  0.83453507  0.66681755  0.33936573  1
  Te  Te161  1  0.82961574  0.66693614  0.66473658  1
  Te  Te162  1  -0.00577084  0.16983693  -0.00004175  1
  Te  Te163  1  -0.01056156  0.16736317  0.33332988  1
  Te  Te164  1  -0.00308732  0.16696230  0.66766255  1
  Te  Te165  1  -0.00189983  0.50359767  0.00051725  1
  Te  Te166  1  -0.00551616  0.50423874  0.32958867  1
  Te  Te167  1  -0.00297675  0.50546142  0.66628845  1
  Te  Te168  1  -0.00184227  0.83147600  0.00242712  1
  Te  Te169  1  -0.00592524  0.82733260  0.32858497  1
  Te  Te170  1  0.00270115  0.82512349  0.66915755  1
  Te  Te171  1  0.33183252  0.16096023  0.00440178  1
  Te  Te172  1  0.33221414  0.16059875  0.32638182  1
  Te  Te173  1  0.33323886  0.16339037  0.66635285  1
  Te  Te174  1  0.33437388  0.50060783  0.00020522  1
  Te  Te175  1  0.33463754  0.50048504  0.33054892  1
  Te  Te176  1  0.33223505  0.50170924  0.66881246  1
  Te  Te177  1  0.33099948  0.83573764  0.00256093  1
  Te  Te178  1  0.33226324  0.83754710  0.33118814  1
  Te  Te179  1  0.33361133  0.83421950  0.66516623  1
  Te  Te180  1  0.67207980  0.16648528  0.00636292  1
  Te  Te181  1  0.67111811  0.16267393  0.32975982  1
  Te  Te182  1  0.67128530  0.16158038  0.66761594  1
  Te  Te183  1  0.67059199  0.50567509  -0.00467709  1
  Te  Te184  1  0.67387446  0.49847138  0.33469523  1
  Te  Te185  1  0.66912095  0.50102646  0.66978198  1
  Te  Te186  1  0.67174724  0.82797082  0.00085853  1
  Te  Te187  1  0.67202355  0.83698141  0.33745012  1
  Te  Te188  1  0.66505856  0.83454993  0.66059830  1
  Te  Te189  1  0.00850228  -0.00460199  0.16820116  1
  Te  Te190  1  0.00364976  -0.00062145  0.49920493  1
  Te  Te191  1  -0.00476336  -0.00791504  0.83379349  1
  Te  Te192  1  -0.00110416  0.33345817  0.16351317  1
  Te  Te193  1  0.00472159  0.34037192  0.49968516  1
  Te  Te194  1  -0.00649511  0.33265721  0.83987988  1
  Te  Te195  1  -0.00369887  0.66616842  0.16400536  1
  Te  Te196  1  -0.00399530  0.66376369  0.50691966  1
  Te  Te197  1  -0.00382818  0.66948338  0.83237550  1
  Te  Te198  1  0.33374822  -0.00462094  0.16789978  1
  Te  Te199  1  0.33260313  -0.00352650  0.50612288  1
  Te  Te200  1  0.33597748  -0.00008426  0.82434256  1
  Te  Te201  1  0.33304346  0.34296577  0.16717676  1
  Te  Te202  1  0.32774580  0.33353681  0.49821937  1
  Te  Te203  1  0.33570782  0.33717835  0.83423925  1
  Te  Te204  1  0.33560678  0.66397554  0.16737986  1
  Te  Te205  1  0.33423951  0.67402391  0.50256597  1
  Te  Te206  1  0.33499551  0.66449567  0.83037710  1
  Te  Te207  1  0.66440644  0.00349886  0.16853435  1
  Te  Te208  1  0.66744362  -0.00225587  0.49966517  1
  Te  Te209  1  0.66657552  0.00035970  0.83111830  1
  Te  Te210  1  0.66895254  0.32894833  0.17017467  1
  Te  Te211  1  0.66404735  0.33339598  0.49345638  1
  Te  Te212  1  0.66972426  0.33793984  0.83292337  1
  Te  Te213  1  0.67340626  0.66717489  0.16438693  1
  Te  Te214  1  0.67252005  0.67361834  0.50463835  1
  Te  Te215  1  0.66824223  0.66638152  0.83117333  1
