# generated using pymatgen
data_AgSbTe2
_symmetry_space_group_name_H-M   'P 1'
_cell_length_a   18.33618196
_cell_length_b   18.33437732
_cell_length_c   18.33046073
_cell_angle_alpha   89.99946355
_cell_angle_beta   89.99921088
_cell_angle_gamma   89.99944735
_symmetry_Int_Tables_number   1
_chemical_formula_structural   AgSbTe2
_chemical_formula_sum   'Ag54 Sb54 Te108'
_cell_volume   6162.37972507
_cell_formula_units_Z   54
loop_
 _symmetry_equiv_pos_site_id
 _symmetry_equiv_pos_as_xyz
  1  'x, y, z'
loop_
 _atom_site_type_symbol
 _atom_site_label
 _atom_site_symmetry_multiplicity
 _atom_site_fract_x
 _atom_site_fract_y
 _atom_site_fract_z
 _atom_site_occupancy
  Ag  Ag0  1  0.83783190  0.34276352  0.17184842  1
  Ag  Ag1  1  -0.00142303  0.49400295  0.84490170  1
  Ag  Ag2  1  0.51057510  0.50132903  0.66724572  1
  Ag  Ag3  1  -0.00486739  0.81943934  0.16986304  1
  Ag  Ag4  1  0.66638860  0.17284457  0.49375789  1
  Ag  Ag5  1  -0.00580828  0.65208634  0.01432222  1
  Ag  Ag6  1  0.33567662  -0.00154227  0.33095522  1
  Ag  Ag7  1  0.66876865  0.00548649  0.33870217  1
  Ag  Ag8  1  0.33070555  0.66473152  0.33241436  1
  Ag  Ag9  1  0.83584998  0.17323777  0.00269414  1
  Ag  Ag10  1  0.50986999  0.16446237  0.33498877  1
  Ag  Ag11  1  0.50110918  0.00284214  0.82891972  1
  Ag  Ag12  1  -0.00445636  0.33601390  0.32303132  1
  Ag  Ag13  1  -0.00521600  0.33663570  0.67599704  1
  Ag  Ag14  1  0.50358229  -0.00394853  0.49845923  1
  Ag  Ag15  1  0.15845958  0.83177045  0.33135496  1
  Ag  Ag16  1  0.83083576  0.82383721  0.66034276  1
  Ag  Ag17  1  0.82951097  0.50133593  0.66747453  1
  Ag  Ag18  1  0.84165904  0.49903204  0.00654225  1
  Ag  Ag19  1  0.17018506  0.00541137  0.83600116  1
  Ag  Ag20  1  0.67226449  0.34025175  0.66339100  1
  Ag  Ag21  1  0.67204289  0.49561310  0.82753050  1
  Ag  Ag22  1  0.32709210  0.00215059  -0.00125617  1
  Ag  Ag23  1  -0.00657410  -0.00370552  0.32894954  1
  Ag  Ag24  1  0.33387054  0.82967748  0.49517915  1
  Ag  Ag25  1  0.67803944  0.32841521  0.33697394  1
  Ag  Ag26  1  0.83414768  0.50203537  0.32613085  1
  Ag  Ag27  1  0.82865713  0.66440457  0.49056119  1
  Ag  Ag28  1  0.67462481  0.82815625  0.16841226  1
  Ag  Ag29  1  0.66832969  0.83371538  0.83366506  1
  Ag  Ag30  1  0.00123140  0.50523496  0.16010292  1
  Ag  Ag31  1  0.32316867  0.50217423  0.16504570  1
  Ag  Ag32  1  0.83011857  0.17397729  0.33014030  1
  Ag  Ag33  1  0.15416280  0.49853816  0.00343855  1
  Ag  Ag34  1  0.66688280  0.00382263  0.66365046  1
  Ag  Ag35  1  0.00000966  0.34139738  0.00378554  1
  Ag  Ag36  1  0.66861369  0.16779647  0.82924042  1
  Ag  Ag37  1  0.32892189  0.16771075  0.83522291  1
  Ag  Ag38  1  0.33489875  0.66344087  0.65655800  1
  Ag  Ag39  1  0.50371133  0.66823120  0.49595551  1
  Ag  Ag40  1  0.15392040  0.66059363  0.16932930  1
  Ag  Ag41  1  0.67025181  0.49689102  0.50454929  1
  Ag  Ag42  1  0.16157371  0.33310853  0.83618646  1
  Ag  Ag43  1  0.67513897  0.66478914  0.00357304  1
  Ag  Ag44  1  0.16540727  0.33446482  0.48625869  1
  Ag  Ag45  1  0.33005503  0.49648737  0.83721469  1
  Ag  Ag46  1  0.84099849  0.66186368  0.17177583  1
  Ag  Ag47  1  0.83735586  0.82585213  0.33175855  1
  Ag  Ag48  1  0.00112479  0.00221522  0.00443810  1
  Ag  Ag49  1  -0.00214684  0.17656435  0.83747032  1
  Ag  Ag50  1  0.32782357  0.33723455  0.33113591  1
  Ag  Ag51  1  -0.00700073  0.66454219  0.32566532  1
  Ag  Ag52  1  0.15412250  0.34202990  0.16776085  1
  Ag  Ag53  1  0.50199484  0.66583504  0.17484116  1
  Sb  Sb54  1  0.33088852  0.82738828  0.17350722  1
  Sb  Sb55  1  0.50282483  0.83518663  0.33447790  1
  Sb  Sb56  1  0.83417023  0.82948440  0.00375135  1
  Sb  Sb57  1  0.16591324  0.66090068  0.49126110  1
  Sb  Sb58  1  0.83369547  0.34023118  0.49364795  1
  Sb  Sb59  1  0.50290638  0.50134958  -0.00226569  1
  Sb  Sb60  1  0.16110408  0.50122265  0.32601284  1
  Sb  Sb61  1  0.50459428  0.49944575  0.33576038  1
  Sb  Sb62  1  0.50159220  0.66722272  0.83169024  1
  Sb  Sb63  1  0.49883667  0.33064364  0.83200897  1
  Sb  Sb64  1  0.17166947  0.00359889  0.49910928  1
  Sb  Sb65  1  0.32455071  0.33169898  0.00259740  1
  Sb  Sb66  1  0.83492116  -0.00360095  0.16918023  1
  Sb  Sb67  1  -0.00289128  0.17259679  0.16191701  1
  Sb  Sb68  1  -0.00693259  0.00380176  0.66893750  1
  Sb  Sb69  1  0.33215525  0.33872675  0.66457467  1
  Sb  Sb70  1  0.33977560  -0.00334574  0.66626254  1
  Sb  Sb71  1  0.50070897  0.83302576  0.00019160  1
  Sb  Sb72  1  0.50354513  0.16966697  0.66325043  1
  Sb  Sb73  1  -0.00466480  0.83307349  0.83806825  1
  Sb  Sb74  1  0.66599630  0.66320001  0.66761263  1
  Sb  Sb75  1  0.83218558  0.66205370  0.83726584  1
  Sb  Sb76  1  0.50595052  0.82965972  0.66492703  1
  Sb  Sb77  1  0.83100069  0.00125415  0.83398482  1
  Sb  Sb78  1  0.16474264  -0.00064055  0.16504589  1
  Sb  Sb79  1  0.50263114  0.33975611  0.17116522  1
  Sb  Sb80  1  0.83995686  0.33561390  0.83767000  1
  Sb  Sb81  1  0.15803769  0.17067888  -0.00271712  1
  Sb  Sb82  1  0.00074776  0.83304081  0.48995206  1
  Sb  Sb83  1  0.16221123  0.16750296  0.33230642  1
  Sb  Sb84  1  0.82933652  0.17312988  0.66584013  1
  Sb  Sb85  1  0.33372695  0.17081158  0.16520444  1
  Sb  Sb86  1  0.66583719  0.83165561  0.49869523  1
  Sb  Sb87  1  0.50145961  0.33531093  0.49838754  1
  Sb  Sb88  1  -0.00551627  0.49793502  0.49617419  1
  Sb  Sb89  1  0.66942283  -0.00246518  -0.00072446  1
  Sb  Sb90  1  0.33758521  0.50366378  0.49776672  1
  Sb  Sb91  1  0.16353658  0.82957646  0.00576148  1
  Sb  Sb92  1  0.33655829  0.83381056  0.82987943  1
  Sb  Sb93  1  0.67636932  0.33783155  -0.00086713  1
  Sb  Sb94  1  0.33991808  0.16483591  0.49974483  1
  Sb  Sb95  1  0.67329838  0.50427665  0.16703047  1
  Sb  Sb96  1  0.16588790  0.16802094  0.66948003  1
  Sb  Sb97  1  0.16212587  0.83227056  0.66176134  1
  Sb  Sb98  1  -0.00043798  0.66056325  0.66620270  1
  Sb  Sb99  1  0.16629171  0.66304807  0.83976223  1
  Sb  Sb100  1  -0.00743693  0.17044128  0.49965743  1
  Sb  Sb101  1  0.82767518  -0.00391990  0.49619814  1
  Sb  Sb102  1  0.67111536  0.66683727  0.32986831  1
  Sb  Sb103  1  0.16331299  0.49911357  0.67208157  1
  Sb  Sb104  1  0.50526485  0.16412942  0.00140221  1
  Sb  Sb105  1  0.66921802  0.16477237  0.16977220  1
  Sb  Sb106  1  0.33178303  0.66732024  0.00545801  1
  Sb  Sb107  1  0.50078570  -0.00589290  0.16998183  1
  Te  Te108  1  0.16852193  0.17740380  0.16505858  1
  Te  Te109  1  0.16740813  0.17358032  0.50147702  1
  Te  Te110  1  0.16678898  0.16645592  0.83443961  1
  Te  Te111  1  0.16467310  0.50002376  0.16524461  1
  Te  Te112  1  0.16758007  0.49347073  0.50247611  1
  Te  Te113  1  0.16625852  0.49899976  0.83852394  1
  Te  Te114  1  0.16198996  0.83090531  0.17283163  1
  Te  Te115  1  0.17233150  0.83438967  0.49393734  1
  Te  Te116  1  0.16643552  0.83699290  0.83233273  1
  Te  Te117  1  0.50085073  0.16607279  0.17431083  1
  Te  Te118  1  0.50614382  0.16226703  0.49615590  1
  Te  Te119  1  0.50358708  0.16301364  0.83347414  1
  Te  Te120  1  0.49634422  0.50625523  0.16639964  1
  Te  Te121  1  0.50477448  0.50439715  0.50387376  1
  Te  Te122  1  0.49918030  0.49905433  0.82972116  1
  Te  Te123  1  0.50485427  0.82619707  0.16687042  1
  Te  Te124  1  0.49643757  0.83079681  0.50083043  1
  Te  Te125  1  0.50590308  0.84007416  0.83231361  1
  Te  Te126  1  0.83202532  0.17011362  0.16805207  1
  Te  Te127  1  0.82532709  0.16424525  0.49512108  1
  Te  Te128  1  0.83280661  0.16774894  0.83420462  1
  Te  Te129  1  0.83474147  0.50191286  0.16592901  1
  Te  Te130  1  0.82935881  0.50488881  0.50126788  1
  Te  Te131  1  0.83279241  0.49947421  0.83224552  1
  Te  Te132  1  0.83493793  0.82989398  0.16961726  1
  Te  Te133  1  0.83392745  0.82670765  0.49739721  1
  Te  Te134  1  0.82771894  0.83266166  0.83105591  1
  Te  Te135  1  0.16653238  0.00006757  -0.00208325  1
  Te  Te136  1  0.16905469  -0.00243598  0.33338747  1
  Te  Te137  1  0.16584823  -0.00082496  0.67242787  1
  Te  Te138  1  0.16125034  0.33729637  -0.00056856  1
  Te  Te139  1  0.16562812  0.33339293  0.32890045  1
  Te  Te140  1  0.16332071  0.33375165  0.67636023  1
  Te  Te141  1  0.16307693  0.66236320  0.00698838  1
  Te  Te142  1  0.16891830  0.66809855  0.32944801  1
  Te  Te143  1  0.17251434  0.66759526  0.66546212  1
  Te  Te144  1  0.49615509  0.00045979  -0.00253262  1
  Te  Te145  1  0.50007888  0.00175897  0.33467190  1
  Te  Te146  1  0.50643112  -0.00034554  0.66491079  1
  Te  Te147  1  0.50075666  0.33167104  0.00218272  1
  Te  Te148  1  0.49512993  0.32818817  0.33460619  1
  Te  Te149  1  0.50542934  0.34019876  0.66512363  1
  Te  Te150  1  0.50268234  0.66745848  0.00317125  1
  Te  Te151  1  0.49833018  0.66703756  0.33617740  1
  Te  Te152  1  0.49559608  0.66282286  0.66409197  1
  Te  Te153  1  0.83819063  0.00394058  0.00161397  1
  Te  Te154  1  0.83381195  -0.00043764  0.33298377  1
  Te  Te155  1  0.82693120  -0.00249847  0.66488751  1
  Te  Te156  1  0.83915293  0.33495070  0.00540764  1
  Te  Te157  1  0.83521565  0.33457031  0.33308848  1
  Te  Te158  1  0.83222909  0.33864321  0.66267341  1
  Te  Te159  1  0.83528241  0.66402577  0.00328813  1
  Te  Te160  1  0.83263233  0.66551396  0.33221507  1
  Te  Te161  1  0.83387096  0.66442096  0.66369288  1
  Te  Te162  1  -0.00551372  0.16035347  -0.00436029  1
  Te  Te163  1  -0.00539961  0.16851322  0.33379770  1
  Te  Te164  1  -0.00245001  0.17248467  0.67313394  1
  Te  Te165  1  -0.00148524  0.49755480  0.00009398  1
  Te  Te166  1  -0.00470320  0.49857773  0.33160506  1
  Te  Te167  1  -0.00515513  0.49623996  0.66722241  1
  Te  Te168  1  -0.00010571  0.84210553  0.00557714  1
  Te  Te169  1  -0.00124859  0.83316637  0.33026852  1
  Te  Te170  1  -0.00717466  0.83324457  0.66688252  1
  Te  Te171  1  0.33617158  0.16220312  -0.00443876  1
  Te  Te172  1  0.33235008  0.16500631  0.33361357  1
  Te  Te173  1  0.33556596  0.16697235  0.67408303  1
  Te  Te174  1  0.33495936  0.49998305  -0.00087063  1
  Te  Te175  1  0.33563350  0.49976164  0.33095789  1
  Te  Te176  1  0.33296243  0.50318875  0.66957301  1
  Te  Te177  1  0.33183143  0.84072582  0.00027761  1
  Te  Te178  1  0.33468498  0.83434938  0.33458346  1
  Te  Te179  1  0.33221523  0.82751045  0.66142965  1
  Te  Te180  1  0.67352840  0.16690343  -0.00423201  1
  Te  Te181  1  0.66900552  0.16652685  0.33270290  1
  Te  Te182  1  0.66673749  0.16577564  0.66940342  1
  Te  Te183  1  0.67051590  0.50378467  -0.00514756  1
  Te  Te184  1  0.67163062  0.49599843  0.33558995  1
  Te  Te185  1  0.66861243  0.50078919  0.66685673  1
  Te  Te186  1  0.66784003  0.82971279  -0.00118915  1
  Te  Te187  1  0.67213831  0.83687900  0.33155995  1
  Te  Te188  1  0.67147778  0.83424838  0.66920453  1
  Te  Te189  1  0.00174071  0.00252383  0.16929550  1
  Te  Te190  1  0.00216321  0.00188796  0.49501316  1
  Te  Te191  1  0.00339550  0.00043648  0.83345000  1
  Te  Te192  1  -0.00216128  0.33412784  0.16530595  1
  Te  Te193  1  0.00544233  0.33204511  0.50030081  1
  Te  Te194  1  0.00091073  0.33393023  0.83505392  1
  Te  Te195  1  -0.00140978  0.66459482  0.16947089  1
  Te  Te196  1  -0.00297426  0.66593206  0.49552183  1
  Te  Te197  1  0.00078012  0.66283373  0.83634929  1
  Te  Te198  1  0.33279983  -0.00052489  0.16894877  1
  Te  Te199  1  0.33927447  -0.00278114  0.49688273  1
  Te  Te200  1  0.33455931  -0.00003681  0.83199149  1
  Te  Te201  1  0.33440800  0.33882982  0.17034105  1
  Te  Te202  1  0.32923496  0.33323037  0.49549503  1
  Te  Te203  1  0.32943816  0.33369965  0.83364971  1
  Te  Te204  1  0.33776176  0.66311272  0.17027408  1
  Te  Te205  1  0.33269018  0.66806815  0.49488438  1
  Te  Te206  1  0.33409822  0.66342942  0.83454843  1
  Te  Te207  1  0.66602659  -0.00754687  0.16952686  1
  Te  Te208  1  0.66269186  -0.00144396  0.49890119  1
  Te  Te209  1  0.66396491  0.00147917  0.83494655  1
  Te  Te210  1  0.67061562  0.33415489  0.17161724  1
  Te  Te211  1  0.66660461  0.33369114  0.49892376  1
  Te  Te212  1  0.66607214  0.33431687  0.83103363  1
  Te  Te213  1  0.66470082  0.66841943  0.16464398  1
  Te  Te214  1  0.66543862  0.66380566  0.49971273  1
  Te  Te215  1  0.66534399  0.66674698  0.83787506  1
