# generated using pymatgen
data_AgSbTe2
_symmetry_space_group_name_H-M   'P 1'
_cell_length_a   18.34802648
_cell_length_b   18.34125191
_cell_length_c   18.34727249
_cell_angle_alpha   89.99982411
_cell_angle_beta   89.99967736
_cell_angle_gamma   90.00127379
_symmetry_Int_Tables_number   1
_chemical_formula_structural   AgSbTe2
_chemical_formula_sum   'Ag54 Sb54 Te108'
_cell_volume   6174.33010552
_cell_formula_units_Z   54
loop_
 _symmetry_equiv_pos_site_id
 _symmetry_equiv_pos_as_xyz
  1  'x, y, z'
loop_
 _atom_site_type_symbol
 _atom_site_label
 _atom_site_symmetry_multiplicity
 _atom_site_fract_x
 _atom_site_fract_y
 _atom_site_fract_z
 _atom_site_occupancy
  Ag  Ag0  1  0.49040915  0.82917419  0.67001101  1
  Ag  Ag1  1  0.32936788  0.34566747  0.32702985  1
  Ag  Ag2  1  0.17434029  0.51878402  0.66607109  1
  Ag  Ag3  1  0.66340771  0.82882457  0.83153211  1
  Ag  Ag4  1  0.49617725  0.34197765  0.16073455  1
  Ag  Ag5  1  0.01212664  0.67310554  0.66992804  1
  Ag  Ag6  1  0.33744356  0.82387947  0.51094275  1
  Ag  Ag7  1  0.16500177  0.14643572  0.66795322  1
  Ag  Ag8  1  0.66580257  0.16124719  0.50833321  1
  Ag  Ag9  1  0.17681593  0.66825646  0.82524772  1
  Ag  Ag10  1  0.32695192  -0.01374486  0.66087500  1
  Ag  Ag11  1  0.16857719  -0.01316174  0.82339022  1
  Ag  Ag12  1  0.65740375  0.33258795  -0.00053383  1
  Ag  Ag13  1  0.65897955  0.82895038  0.50848663  1
  Ag  Ag14  1  0.32891483  -0.01238290  0.33501921  1
  Ag  Ag15  1  0.33522604  0.83122302  0.16545104  1
  Ag  Ag16  1  0.34014092  0.34247052  0.00526364  1
  Ag  Ag17  1  0.49167993  0.50894261  0.67493799  1
  Ag  Ag18  1  0.50362285  0.17559842  -0.00063978  1
  Ag  Ag19  1  0.32962380  0.82611548  0.82590424  1
  Ag  Ag20  1  0.49325940  0.66709229  0.82760118  1
  Ag  Ag21  1  0.17232231  0.83125048  -0.00838595  1
  Ag  Ag22  1  0.17091292  -0.00860763  0.50832543  1
  Ag  Ag23  1  0.00220595  0.33635128  0.00474719  1
  Ag  Ag24  1  0.01081549  -0.01004021  0.66531200  1
  Ag  Ag25  1  0.33116964  0.66925571  0.66615639  1
  Ag  Ag26  1  0.49218468  0.66751728  0.16482229  1
  Ag  Ag27  1  0.65647380  0.83239777  0.15927418  1
  Ag  Ag28  1  0.65702754  0.51006161  0.50869942  1
  Ag  Ag29  1  0.17006955  -0.00861740  0.16896803  1
  Ag  Ag30  1  0.33599810  0.50968384  0.82716091  1
  Ag  Ag31  1  0.49443491  -0.01380565  0.16443904  1
  Ag  Ag32  1  0.83534591  0.15763636  0.67388751  1
  Ag  Ag33  1  0.49679593  0.50066334  -0.00307332  1
  Ag  Ag34  1  0.17670149  0.67074370  0.16592366  1
  Ag  Ag35  1  0.83878914  -0.00357863  0.16551661  1
  Ag  Ag36  1  0.66713955  0.16409741  0.83347749  1
  Ag  Ag37  1  0.16975509  0.50493984  0.33898750  1
  Ag  Ag38  1  0.82591440  0.16241200  -0.00566997  1
  Ag  Ag39  1  0.17411218  0.83258425  0.67260858  1
  Ag  Ag40  1  0.82916532  0.66990655  0.83181623  1
  Ag  Ag41  1  0.00806387  0.33546502  0.32721366  1
  Ag  Ag42  1  0.49118227  0.66649056  0.50993868  1
  Ag  Ag43  1  0.00355039  0.50175692  0.15749359  1
  Ag  Ag44  1  0.33661596  0.51021359  0.50907647  1
  Ag  Ag45  1  0.01153111  0.50456961  0.83436851  1
  Ag  Ag46  1  0.65452840  0.66730697  0.33821073  1
  Ag  Ag47  1  0.01115160  0.00158922  0.33377821  1
  Ag  Ag48  1  0.33424848  0.66868749  0.34453153  1
  Ag  Ag49  1  0.83386732  0.83479090  -0.00620816  1
  Ag  Ag50  1  0.83321681  0.83467476  0.67312625  1
  Ag  Ag51  1  0.33357511  0.66605691  -0.01621055  1
  Ag  Ag52  1  0.65749727  0.51070796  0.83056765  1
  Ag  Ag53  1  0.17745291  0.67045578  0.51098752  1
  Sb  Sb54  1  0.83415434  0.50579155  0.66964185  1
  Sb  Sb55  1  0.83113676  0.50221236  -0.00166580  1
  Sb  Sb56  1  0.33581066  0.16494419  0.50133099  1
  Sb  Sb57  1  0.17285853  0.50679047  -0.00242659  1
  Sb  Sb58  1  0.49894012  0.34004224  0.49617658  1
  Sb  Sb59  1  0.66545598  -0.00448174  0.66603541  1
  Sb  Sb60  1  0.83155743  0.33624153  0.83438197  1
  Sb  Sb61  1  0.66448040  0.16151261  0.16386601  1
  Sb  Sb62  1  0.49649769  -0.00785416  0.83580136  1
  Sb  Sb63  1  0.17105841  0.33621652  0.16625241  1
  Sb  Sb64  1  0.49926789  0.16288220  0.67128864  1
  Sb  Sb65  1  0.49665007  0.82844057  -0.00178923  1
  Sb  Sb66  1  0.83322440  0.16467325  0.33262913  1
  Sb  Sb67  1  0.49899866  0.16680817  0.33047413  1
  Sb  Sb68  1  0.16845532  0.16135544  -0.00412594  1
  Sb  Sb69  1  0.00028318  0.16545450  0.50200368  1
  Sb  Sb70  1  0.00660362  0.66498778  -0.00532662  1
  Sb  Sb71  1  0.33322012  0.34018636  0.66786360  1
  Sb  Sb72  1  0.83678355  -0.00247847  0.49858743  1
  Sb  Sb73  1  0.49753749  0.82917811  0.33438850  1
  Sb  Sb74  1  0.83045601  0.66907036  0.50650757  1
  Sb  Sb75  1  0.33539689  0.16178814  0.16530228  1
  Sb  Sb76  1  0.00197915  0.33524215  0.66784050  1
  Sb  Sb77  1  0.49480968  -0.00806287  0.49785081  1
  Sb  Sb78  1  0.00031155  0.00080810  -0.00203646  1
  Sb  Sb79  1  0.83217431  0.67266145  0.16063033  1
  Sb  Sb80  1  0.65892493  0.66538737  -0.00260150  1
  Sb  Sb81  1  0.33292704  -0.00726301  0.00084840  1
  Sb  Sb82  1  0.16871641  0.33625239  0.49993200  1
  Sb  Sb83  1  0.00823369  0.66828914  0.33561265  1
  Sb  Sb84  1  0.50063944  0.34381849  0.83894405  1
  Sb  Sb85  1  0.83883266  0.50165429  0.33413103  1
  Sb  Sb86  1  0.66545078  -0.00046426  0.00006236  1
  Sb  Sb87  1  0.00032822  0.16715333  0.16565929  1
  Sb  Sb88  1  0.00498941  0.82724756  0.83047996  1
  Sb  Sb89  1  0.66374555  0.33975012  0.32956111  1
  Sb  Sb90  1  0.83726660  -0.00541453  0.83362413  1
  Sb  Sb91  1  -0.00150550  0.17001484  0.83294210  1
  Sb  Sb92  1  0.00601532  0.83359898  0.50425661  1
  Sb  Sb93  1  0.33129536  0.51182811  0.16650969  1
  Sb  Sb94  1  0.49210258  0.50534553  0.33224560  1
  Sb  Sb95  1  0.83029161  0.83271503  0.33289373  1
  Sb  Sb96  1  0.65709013  0.66884555  0.66640929  1
  Sb  Sb97  1  0.66603660  0.50521472  0.16468724  1
  Sb  Sb98  1  0.66593666  0.33413556  0.67156765  1
  Sb  Sb99  1  0.17100781  0.83075945  0.33602473  1
  Sb  Sb100  1  0.83188270  0.33285739  0.50098851  1
  Sb  Sb101  1  0.66297241  -0.00533493  0.33217400  1
  Sb  Sb102  1  0.00502888  0.83056075  0.16687288  1
  Sb  Sb103  1  0.00585261  0.50288452  0.50364152  1
  Sb  Sb104  1  0.83243656  0.32978367  0.16271586  1
  Sb  Sb105  1  0.16751928  0.33984739  0.83398548  1
  Sb  Sb106  1  0.33659016  0.16443149  0.83543384  1
  Sb  Sb107  1  0.16802739  0.16517398  0.33656936  1
  Te  Te108  1  0.16653733  0.16004866  0.16551044  1
  Te  Te109  1  0.16689643  0.16335195  0.50714249  1
  Te  Te110  1  0.16715646  0.16702369  0.82800137  1
  Te  Te111  1  0.16163506  0.50120994  0.16559221  1
  Te  Te112  1  0.17073109  0.50291555  0.50306664  1
  Te  Te113  1  0.17050138  0.50565287  0.83056191  1
  Te  Te114  1  0.16865074  0.83116845  0.16744617  1
  Te  Te115  1  0.17180028  0.83162827  0.50175816  1
  Te  Te116  1  0.16725660  0.83002064  0.83496386  1
  Te  Te117  1  0.50155043  0.16909015  0.16196892  1
  Te  Te118  1  0.50641259  0.16802114  0.50234170  1
  Te  Te119  1  0.50490472  0.16297108  0.83656845  1
  Te  Te120  1  0.50148236  0.50350868  0.16258160  1
  Te  Te121  1  0.49804565  0.50463170  0.49842723  1
  Te  Te122  1  0.49785137  0.50488577  0.83368106  1
  Te  Te123  1  0.50008860  0.83008483  0.16420703  1
  Te  Te124  1  0.49801376  0.82833294  0.50315739  1
  Te  Te125  1  0.50157406  0.82875288  0.83148502  1
  Te  Te126  1  0.83255881  0.15951485  0.16277425  1
  Te  Te127  1  0.82682697  0.16567823  0.50298517  1
  Te  Te128  1  0.82984440  0.16549249  0.83413511  1
  Te  Te129  1  0.84005379  0.50036928  0.16696500  1
  Te  Te130  1  0.82454239  0.50027124  0.50160734  1
  Te  Te131  1  0.82598280  0.50459939  0.83254346  1
  Te  Te132  1  0.83332940  0.83794871  0.16505504  1
  Te  Te133  1  0.82494996  0.83407232  0.50315498  1
  Te  Te134  1  0.83211997  0.83258496  0.83503789  1
  Te  Te135  1  0.16644566  -0.00568460  0.00666768  1
  Te  Te136  1  0.16840780  0.00063301  0.32836004  1
  Te  Te137  1  0.16738532  -0.00831422  0.66612257  1
  Te  Te138  1  0.16273993  0.33045132  0.00010380  1
  Te  Te139  1  0.16792254  0.33394615  0.33273414  1
  Te  Te140  1  0.16583978  0.33180476  0.66644627  1
  Te  Te141  1  0.17130263  0.67161702  0.00570218  1
  Te  Te142  1  0.16953362  0.66321769  0.32671500  1
  Te  Te143  1  0.16831563  0.67244612  0.66845208  1
  Te  Te144  1  0.49839878  0.00548241  0.00437417  1
  Te  Te145  1  0.49317507  0.00143021  0.32701653  1
  Te  Te146  1  0.49280485  -0.00670866  0.66646000  1
  Te  Te147  1  0.49938628  0.33574941  0.00048163  1
  Te  Te148  1  0.49579573  0.33447180  0.32546177  1
  Te  Te149  1  0.50020480  0.33656557  0.66504132  1
  Te  Te150  1  0.49480302  0.66329529  0.00240582  1
  Te  Te151  1  0.49822950  0.66588273  0.32762000  1
  Te  Te152  1  0.49687832  0.66682504  0.66676335  1
  Te  Te153  1  0.83392943  -0.00085590  0.00260294  1
  Te  Te154  1  0.83517101  0.00072565  0.32852195  1
  Te  Te155  1  0.83492743  -0.00112871  0.66593378  1
  Te  Te156  1  0.83676345  0.33057729  0.00023595  1
  Te  Te157  1  0.83824115  0.33282576  0.33200424  1
  Te  Te158  1  0.83394068  0.32329154  0.66663284  1
  Te  Te159  1  0.83459892  0.67118348  -0.00621350  1
  Te  Te160  1  0.83493505  0.66619198  0.33400572  1
  Te  Te161  1  0.83909188  0.67083520  0.67165077  1
  Te  Te162  1  -0.00239619  0.17245333  -0.00063269  1
  Te  Te163  1  0.00044228  0.16514209  0.33390907  1
  Te  Te164  1  0.00060373  0.16670792  0.66658827  1
  Te  Te165  1  -0.00147436  0.49746530  -0.00235689  1
  Te  Te166  1  0.00624551  0.49808793  0.33507510  1
  Te  Te167  1  0.00189967  0.50203706  0.67226472  1
  Te  Te168  1  -0.00428688  0.83357694  -0.00055661  1
  Te  Te169  1  -0.00136705  0.84039678  0.33485485  1
  Te  Te170  1  -0.00582051  0.83364222  0.66624567  1
  Te  Te171  1  0.33696386  0.17530446  0.00000321  1
  Te  Te172  1  0.33314731  0.16976519  0.33310671  1
  Te  Te173  1  0.32874052  0.17029621  0.66755935  1
  Te  Te174  1  0.33574987  0.50319491  -0.00057684  1
  Te  Te175  1  0.32779413  0.50327784  0.33247527  1
  Te  Te176  1  0.33224377  0.50055480  0.66673175  1
  Te  Te177  1  0.33133982  0.82723079  0.00416102  1
  Te  Te178  1  0.33327622  0.83062488  0.32631772  1
  Te  Te179  1  0.33381443  0.83133826  0.66785952  1
  Te  Te180  1  0.66666290  0.16732642  -0.00083204  1
  Te  Te181  1  0.66758517  0.16920569  0.33838266  1
  Te  Te182  1  0.66828791  0.16620010  0.66872617  1
  Te  Te183  1  0.66360072  0.49709310  -0.00361637  1
  Te  Te184  1  0.66866571  0.50640536  0.33391466  1
  Te  Te185  1  0.66566166  0.49909498  0.66834181  1
  Te  Te186  1  0.66841898  0.83246779  -0.00203846  1
  Te  Te187  1  0.66531211  0.82761038  0.33458503  1
  Te  Te188  1  0.67278154  0.83360140  0.66959511  1
  Te  Te189  1  0.00051847  -0.00033104  0.16830618  1
  Te  Te190  1  0.00643781  -0.00038536  0.49972671  1
  Te  Te191  1  0.00810928  0.00242988  0.82886522  1
  Te  Te192  1  0.00051068  0.33719246  0.16763530  1
  Te  Te193  1  -0.00075657  0.33382784  0.49214660  1
  Te  Te194  1  -0.00122402  0.34111548  0.83624959  1
  Te  Te195  1  -0.00050002  0.66140003  0.16738519  1
  Te  Te196  1  0.00187110  0.66695505  0.50506736  1
  Te  Te197  1  -0.00119020  0.66199468  0.83124352  1
  Te  Te198  1  0.33407749  -0.00431634  0.16749639  1
  Te  Te199  1  0.32956773  -0.00022585  0.49750323  1
  Te  Te200  1  0.32804916  -0.00330077  0.83188615  1
  Te  Te201  1  0.33630949  0.33097153  0.16588599  1
  Te  Te202  1  0.33386352  0.33420957  0.49386494  1
  Te  Te203  1  0.33350278  0.33553636  0.83835117  1
  Te  Te204  1  0.33330190  0.66845281  0.17437997  1
  Te  Te205  1  0.33324400  0.66681343  0.50247767  1
  Te  Te206  1  0.33462970  0.66860463  0.82802164  1
  Te  Te207  1  0.66205382  -0.00761852  0.16864697  1
  Te  Te208  1  0.66459666  -0.00188410  0.49802076  1
  Te  Te209  1  0.66638641  -0.00187728  0.83212063  1
  Te  Te210  1  0.66243197  0.33387804  0.16189043  1
  Te  Te211  1  0.66619507  0.33551681  0.49767584  1
  Te  Te212  1  0.66695071  0.32946877  0.83990796  1
  Te  Te213  1  0.66735664  0.67317034  0.16787991  1
  Te  Te214  1  0.66518631  0.66754796  0.49839445  1
  Te  Te215  1  0.66833582  0.66801870  0.83279900  1
