# generated using pymatgen
data_AgSbTe2
_symmetry_space_group_name_H-M   'P 1'
_cell_length_a   18.34382440
_cell_length_b   18.34942458
_cell_length_c   18.34516086
_cell_angle_alpha   90.00493103
_cell_angle_beta   89.99443734
_cell_angle_gamma   90.00474794
_symmetry_Int_Tables_number   1
_chemical_formula_structural   AgSbTe2
_chemical_formula_sum   'Ag54 Sb54 Te108'
_cell_volume   6174.95579915
_cell_formula_units_Z   54
loop_
 _symmetry_equiv_pos_site_id
 _symmetry_equiv_pos_as_xyz
  1  'x, y, z'
loop_
 _atom_site_type_symbol
 _atom_site_label
 _atom_site_symmetry_multiplicity
 _atom_site_fract_x
 _atom_site_fract_y
 _atom_site_fract_z
 _atom_site_occupancy
  Ag  Ag0  1  0.49499955  0.50167299  0.33061756  1
  Ag  Ag1  1  0.67135567  0.00024891  0.65283976  1
  Ag  Ag2  1  0.49851772  0.66959818  0.17002609  1
  Ag  Ag3  1  0.66151002  0.00022920  0.33894067  1
  Ag  Ag4  1  0.65817319  0.49751599  0.16713416  1
  Ag  Ag5  1  -0.00360412  0.84120807  0.17298456  1
  Ag  Ag6  1  0.67821792  0.16192745  0.17546560  1
  Ag  Ag7  1  0.33975099  0.49938624  0.17734316  1
  Ag  Ag8  1  0.33388674  0.33427364  0.33722879  1
  Ag  Ag9  1  0.34252835  -0.00593230  0.33695383  1
  Ag  Ag10  1  0.49873664  0.33393509  0.82530520  1
  Ag  Ag11  1  0.00427988  0.83680408  0.49791021  1
  Ag  Ag12  1  0.83487215  0.01016065  0.82484215  1
  Ag  Ag13  1  0.66254983  0.84606619  0.17368641  1
  Ag  Ag14  1  0.32982873  0.17027028  0.82232807  1
  Ag  Ag15  1  0.33467781  0.16629239  0.49985694  1
  Ag  Ag16  1  0.49724756  0.49626559  0.01353649  1
  Ag  Ag17  1  0.83825826  0.32625433  0.83503305  1
  Ag  Ag18  1  -0.00938072  0.16286292  0.16197675  1
  Ag  Ag19  1  0.16968716  -0.00220155  0.50124507  1
  Ag  Ag20  1  0.67706040  0.15832640  0.49677429  1
  Ag  Ag21  1  0.17288853  0.33017672  0.50170928  1
  Ag  Ag22  1  -0.00054632  0.48839867  0.83569780  1
  Ag  Ag23  1  0.49622959  0.84095510  0.33622282  1
  Ag  Ag24  1  0.83509581  0.32338290  0.49956738  1
  Ag  Ag25  1  0.83591945  0.16901385  0.01267835  1
  Ag  Ag26  1  0.81888282  0.00765063  0.50058502  1
  Ag  Ag27  1  0.16059225  0.16813571  0.66199182  1
  Ag  Ag28  1  0.16523914  0.84182690  0.65810432  1
  Ag  Ag29  1  0.34293393  0.83155683  0.17792966  1
  Ag  Ag30  1  0.83322222  0.16573829  0.32741887  1
  Ag  Ag31  1  0.50122460  0.83474939  0.65378931  1
  Ag  Ag32  1  -0.00093127  0.33026512  0.66065434  1
  Ag  Ag33  1  0.83655588  0.16438832  0.66412264  1
  Ag  Ag34  1  0.51146456  -0.00529318  0.17940272  1
  Ag  Ag35  1  -0.00902004  0.17001332  0.83254942  1
  Ag  Ag36  1  0.33702001  0.84304320  0.49537077  1
  Ag  Ag37  1  0.83436321  0.32057094  0.16494561  1
  Ag  Ag38  1  0.17082966  0.49446640  0.66302720  1
  Ag  Ag39  1  0.49501196  0.49810376  0.66108936  1
  Ag  Ag40  1  0.33489134  0.49160322  0.49453099  1
  Ag  Ag41  1  0.83353300  0.84473639  0.66006323  1
  Ag  Ag42  1  0.00022817  0.66660368  0.00209007  1
  Ag  Ag43  1  0.82800201  0.00832371  0.17003337  1
  Ag  Ag44  1  0.33674343  0.67010513  0.33578301  1
  Ag  Ag45  1  0.50442946  -0.00126960  0.49588121  1
  Ag  Ag46  1  0.33506040  0.33502734  0.00669104  1
  Ag  Ag47  1  0.49088651  0.32724626  0.50081906  1
  Ag  Ag48  1  0.65579103  0.84494199  0.49597903  1
  Ag  Ag49  1  -0.00053623  0.33069083  0.33958639  1
  Ag  Ag50  1  0.83927590  0.48964222  0.00190528  1
  Ag  Ag51  1  0.17122766  0.67814249  0.50135856  1
  Ag  Ag52  1  0.16503607  0.49744966  -0.00278842  1
  Ag  Ag53  1  -0.00345964  0.00157613  0.00464699  1
  Sb  Sb54  1  0.66401780  0.67311203  0.66217977  1
  Sb  Sb55  1  0.49398340  0.66991052  0.49357013  1
  Sb  Sb56  1  0.65993909  0.67322000  0.33184075  1
  Sb  Sb57  1  -0.00345371  0.16503482  0.50180508  1
  Sb  Sb58  1  -0.00154766  0.83741846  0.82962682  1
  Sb  Sb59  1  0.33239779  0.66706689  0.65817547  1
  Sb  Sb60  1  0.50382239  0.17057264  0.00076688  1
  Sb  Sb61  1  0.82750148  0.48892752  0.32765603  1
  Sb  Sb62  1  0.49735807  0.65894058  0.83805055  1
  Sb  Sb63  1  0.16070523  0.00330531  0.82601364  1
  Sb  Sb64  1  0.17481782  0.49788481  0.33757939  1
  Sb  Sb65  1  0.16496734  0.82933463  -0.00257539  1
  Sb  Sb66  1  0.00596193  0.66468022  0.33080055  1
  Sb  Sb67  1  0.16184868  0.16732902  0.34070332  1
  Sb  Sb68  1  0.50303214  0.33261249  0.17179454  1
  Sb  Sb69  1  0.50135671  0.16823003  0.66211704  1
  Sb  Sb70  1  0.16482452  -0.00071435  0.17336852  1
  Sb  Sb71  1  0.00180698  0.66424077  0.66899484  1
  Sb  Sb72  1  0.83923519  0.67154980  0.49986385  1
  Sb  Sb73  1  0.32882747  0.00476212  0.00745452  1
  Sb  Sb74  1  0.67229680  0.00162310  0.00621270  1
  Sb  Sb75  1  0.83038535  0.66916036  0.16691804  1
  Sb  Sb76  1  -0.00681208  0.00477426  0.66508870  1
  Sb  Sb77  1  0.83645428  0.66425390  0.83499667  1
  Sb  Sb78  1  0.16323582  0.33378042  0.17091201  1
  Sb  Sb79  1  0.33431607  0.16792803  0.17436733  1
  Sb  Sb80  1  0.00643014  0.49722678  0.50360231  1
  Sb  Sb81  1  0.83368449  0.49406795  0.66858970  1
  Sb  Sb82  1  0.33077486  0.49284899  0.83215856  1
  Sb  Sb83  1  0.67032560  0.66431170  0.00438074  1
  Sb  Sb84  1  0.32979382  0.65710026  0.00959665  1
  Sb  Sb85  1  0.66772955  0.83793146  0.82854069  1
  Sb  Sb86  1  0.17440799  0.83500845  0.34026711  1
  Sb  Sb87  1  0.66872289  0.49694945  0.83640168  1
  Sb  Sb88  1  0.49835369  0.82965976  0.00839423  1
  Sb  Sb89  1  0.33524769  0.84335037  0.82787689  1
  Sb  Sb90  1  -0.00067064  0.49784274  0.16215929  1
  Sb  Sb91  1  0.83477603  0.83828125  -0.00064025  1
  Sb  Sb92  1  0.16670140  0.66427260  0.82780397  1
  Sb  Sb93  1  0.00044020  0.33168684  -0.00127128  1
  Sb  Sb94  1  0.32896905  0.33267172  0.66116975  1
  Sb  Sb95  1  0.82800309  0.84176621  0.33752223  1
  Sb  Sb96  1  0.16429562  0.33301454  0.82691474  1
  Sb  Sb97  1  0.66475809  0.32584383  0.33370982  1
  Sb  Sb98  1  0.66742914  0.33294770  0.00273354  1
  Sb  Sb99  1  -0.00330550  0.00369976  0.33374589  1
  Sb  Sb100  1  0.16162139  0.17142520  -0.00506867  1
  Sb  Sb101  1  0.50365484  0.16408458  0.33604593  1
  Sb  Sb102  1  0.17120274  0.66622240  0.17110907  1
  Sb  Sb103  1  0.67236431  0.16712889  0.83105896  1
  Sb  Sb104  1  0.33645825  0.00144193  0.65615165  1
  Sb  Sb105  1  0.50458005  0.00676783  0.82718967  1
  Sb  Sb106  1  0.65926153  0.49722070  0.49516232  1
  Sb  Sb107  1  0.67006724  0.32817211  0.66368562  1
  Te  Te108  1  0.16065612  0.16614461  0.16473885  1
  Te  Te109  1  0.16490299  0.16987317  0.50334494  1
  Te  Te110  1  0.16804272  0.16704026  0.82695441  1
  Te  Te111  1  0.17147019  0.50100134  0.16095743  1
  Te  Te112  1  0.17039207  0.49019775  0.50327243  1
  Te  Te113  1  0.16237535  0.49949158  0.83133960  1
  Te  Te114  1  0.16146406  0.83266129  0.16483950  1
  Te  Te115  1  0.16825916  0.83565883  0.50151664  1
  Te  Te116  1  0.16763008  0.83377294  0.82078313  1
  Te  Te117  1  0.50356865  0.16049147  0.16629757  1
  Te  Te118  1  0.49544106  0.16735822  0.50065391  1
  Te  Te119  1  0.49767063  0.17381622  0.83202929  1
  Te  Te120  1  0.49819060  0.49349263  0.16955934  1
  Te  Te121  1  0.49671085  0.50256545  0.50004652  1
  Te  Te122  1  0.50020952  0.49407492  0.82633576  1
  Te  Te123  1  0.50094924  0.83510280  0.16913296  1
  Te  Te124  1  0.49745556  0.83228428  0.49651675  1
  Te  Te125  1  0.49999959  0.83345456  0.83083072  1
  Te  Te126  1  0.83387450  0.16514877  0.16879186  1
  Te  Te127  1  0.83533459  0.16576677  0.50383537  1
  Te  Te128  1  0.83292152  0.16820953  0.82478586  1
  Te  Te129  1  0.83108387  0.50069256  0.16081270  1
  Te  Te130  1  0.83087864  0.49937104  0.49911905  1
  Te  Te131  1  0.83695653  0.49560172  0.83743512  1
  Te  Te132  1  0.83354504  0.83604151  0.16753392  1
  Te  Te133  1  0.83828919  0.83526774  0.50141176  1
  Te  Te134  1  0.83314226  0.83701769  0.82762350  1
  Te  Te135  1  0.15971579  -0.00060097  -0.00111549  1
  Te  Te136  1  0.17386021  0.00155346  0.34067497  1
  Te  Te137  1  0.16725199  0.00167575  0.66163421  1
  Te  Te138  1  0.17182971  0.33837562  0.00039359  1
  Te  Te139  1  0.16479441  0.33313305  0.33841517  1
  Te  Te140  1  0.16206073  0.33273509  0.66293394  1
  Te  Te141  1  0.16217632  0.66068759  -0.00091812  1
  Te  Te142  1  0.17380841  0.66504662  0.34032251  1
  Te  Te143  1  0.16621049  0.65988814  0.66079202  1
  Te  Te144  1  0.49848828  -0.00062760  -0.00188470  1
  Te  Te145  1  0.50001509  0.00068306  0.33508542  1
  Te  Te146  1  0.50603579  -0.00358469  0.66311427  1
  Te  Te147  1  0.49706692  0.33647545  0.00089916  1
  Te  Te148  1  0.49786832  0.33638080  0.33882803  1
  Te  Te149  1  0.50229416  0.33551875  0.66235907  1
  Te  Te150  1  0.49874522  0.65870848  0.00628584  1
  Te  Te151  1  0.49525461  0.66397572  0.32810656  1
  Te  Te152  1  0.49928669  0.66734917  0.66998560  1
  Te  Te153  1  0.83741148  0.00312951  0.00600801  1
  Te  Te154  1  0.83122697  0.00459796  0.33535670  1
  Te  Te155  1  0.83327118  0.00189821  0.66260309  1
  Te  Te156  1  0.83366675  0.33104783  -0.00100231  1
  Te  Te157  1  0.83288068  0.32731128  0.33497057  1
  Te  Te158  1  0.83661699  0.33187314  0.66710096  1
  Te  Te159  1  0.83943917  0.66211072  -0.00005573  1
  Te  Te160  1  0.83522245  0.66321666  0.33305521  1
  Te  Te161  1  0.83309345  0.67227976  0.66801415  1
  Te  Te162  1  -0.00299114  0.16533562  -0.00228502  1
  Te  Te163  1  -0.00473716  0.17007233  0.32773350  1
  Te  Te164  1  0.00037639  0.16951212  0.66924548  1
  Te  Te165  1  0.00047986  0.49838626  -0.00198086  1
  Te  Te166  1  -0.00143296  0.49493127  0.33231254  1
  Te  Te167  1  0.00178913  0.49568525  0.67172452  1
  Te  Te168  1  0.00042436  0.83409943  0.00048721  1
  Te  Te169  1  -0.00074657  0.83187829  0.33322237  1
  Te  Te170  1  0.00109274  0.83188998  0.66299843  1
  Te  Te171  1  0.33277284  0.17306311  0.00378516  1
  Te  Te172  1  0.33113050  0.17277631  0.33864477  1
  Te  Te173  1  0.33073192  0.16649684  0.66412540  1
  Te  Te174  1  0.33444904  0.49504098  -0.00115818  1
  Te  Te175  1  0.33513874  0.49539958  0.33493729  1
  Te  Te176  1  0.33333591  0.50043954  0.66435056  1
  Te  Te177  1  0.33101275  0.83360831  0.00290028  1
  Te  Te178  1  0.33604626  0.83435854  0.33476404  1
  Te  Te179  1  0.33388312  0.83430415  0.66127185  1
  Te  Te180  1  0.67378176  0.16709979  0.00371271  1
  Te  Te181  1  0.67024835  0.16171216  0.33588235  1
  Te  Te182  1  0.66964621  0.16145758  0.66113817  1
  Te  Te183  1  0.66270257  0.49947715  0.00424077  1
  Te  Te184  1  0.66007850  0.50180737  0.32781386  1
  Te  Te185  1  0.66176327  0.50243066  0.66549065  1
  Te  Te186  1  0.66657220  0.83237090  0.00871223  1
  Te  Te187  1  0.66223105  0.83826284  0.33299803  1
  Te  Te188  1  0.66512152  0.83857496  0.66264558  1
  Te  Te189  1  -0.00076796  0.00024725  0.16739297  1
  Te  Te190  1  0.00849940  -0.00407052  0.49922886  1
  Te  Te191  1  -0.00583447  0.00471331  0.83780280  1
  Te  Te192  1  -0.00453634  0.33073786  0.17070664  1
  Te  Te193  1  -0.00488148  0.33377024  0.49999537  1
  Te  Te194  1  -0.00145107  0.33016078  0.83276743  1
  Te  Te195  1  0.00057898  0.67055558  0.16387289  1
  Te  Te196  1  0.00776309  0.67006113  0.49927891  1
  Te  Te197  1  0.00062633  0.66538355  0.84039224  1
  Te  Te198  1  0.33309376  -0.00276936  0.17243777  1
  Te  Te199  1  0.33543568  0.00237079  0.49721931  1
  Te  Te200  1  0.33398919  0.00967930  0.83726297  1
  Te  Te201  1  0.33226122  0.33599400  0.17031321  1
  Te  Te202  1  0.33362042  0.33230445  0.49984395  1
  Te  Te203  1  0.33506608  0.32863810  0.83424555  1
  Te  Te204  1  0.33731160  0.66708829  0.17325562  1
  Te  Te205  1  0.32997127  0.66554707  0.49499384  1
  Te  Te206  1  0.33296139  0.67094015  0.83598332  1
  Te  Te207  1  0.66787989  0.00234686  0.16705902  1
  Te  Te208  1  0.66418184  0.00002746  0.49785495  1
  Te  Te209  1  0.67417402  0.00106058  0.83315952  1
  Te  Te210  1  0.67320185  0.33365623  0.16827181  1
  Te  Te211  1  0.67180021  0.32947851  0.49932893  1
  Te  Te212  1  0.66434933  0.33287960  0.83267683  1
  Te  Te213  1  0.66025875  0.66096611  0.16704262  1
  Te  Te214  1  0.66900709  0.67427939  0.49797412  1
  Te  Te215  1  0.66693664  0.66803231  0.83472537  1
