# generated using pymatgen
data_AgSbTe2
_symmetry_space_group_name_H-M   'P 1'
_cell_length_a   18.34043893
_cell_length_b   18.34083198
_cell_length_c   18.33596234
_cell_angle_alpha   90.00097827
_cell_angle_beta   90.00173336
_cell_angle_gamma   89.99958975
_symmetry_Int_Tables_number   1
_chemical_formula_structural   AgSbTe2
_chemical_formula_sum   'Ag54 Sb54 Te108'
_cell_volume   6167.83100169
_cell_formula_units_Z   54
loop_
 _symmetry_equiv_pos_site_id
 _symmetry_equiv_pos_as_xyz
  1  'x, y, z'
loop_
 _atom_site_type_symbol
 _atom_site_label
 _atom_site_symmetry_multiplicity
 _atom_site_fract_x
 _atom_site_fract_y
 _atom_site_fract_z
 _atom_site_occupancy
  Ag  Ag0  1  0.17775459  0.33567346  0.49161255  1
  Ag  Ag1  1  0.16640907  0.16735260  0.00896993  1
  Ag  Ag2  1  0.00622863  0.17645520  0.16802334  1
  Ag  Ag3  1  0.32518556  0.82653950  0.17084163  1
  Ag  Ag4  1  0.33903199  0.49337753  0.50036164  1
  Ag  Ag5  1  0.83394596  0.00228767  0.83571377  1
  Ag  Ag6  1  -0.00143844  0.83134078  0.83911740  1
  Ag  Ag7  1  0.49353209  0.50331560  0.65662205  1
  Ag  Ag8  1  0.16602490  0.83177891  0.00602238  1
  Ag  Ag9  1  0.00708395  0.83209837  0.16757301  1
  Ag  Ag10  1  0.32298665  0.17400732  0.17310276  1
  Ag  Ag11  1  0.33422977  0.49829585  0.82831689  1
  Ag  Ag12  1  0.66580414  0.49802323  0.83013585  1
  Ag  Ag13  1  0.84307452  0.66124100  0.16148465  1
  Ag  Ag14  1  0.17263810  0.17286623  0.32694139  1
  Ag  Ag15  1  0.49409245  0.65812683  0.49897491  1
  Ag  Ag16  1  0.00337659  0.83203872  0.48914794  1
  Ag  Ag17  1  0.83509168  0.66409920  0.83834540  1
  Ag  Ag18  1  0.33328331  0.17066520  0.83236919  1
  Ag  Ag19  1  0.49508660  0.82684673  0.65544328  1
  Ag  Ag20  1  0.17187788  0.17117308  0.66222941  1
  Ag  Ag21  1  0.65214407  0.82272761  0.49668339  1
  Ag  Ag22  1  0.16447849  0.49992724  0.00571303  1
  Ag  Ag23  1  0.65916677  0.17282703  0.50163140  1
  Ag  Ag24  1  0.32979609  0.66509592  0.00023213  1
  Ag  Ag25  1  0.83344654  0.33292913  0.49447915  1
  Ag  Ag26  1  0.83993665  0.83130934  0.33453302  1
  Ag  Ag27  1  0.33481891  0.65864308  0.65780599  1
  Ag  Ag28  1  0.16590491  0.66084080  0.16968688  1
  Ag  Ag29  1  0.49161471  0.16860486  0.33801083  1
  Ag  Ag30  1  0.49689516  0.50066549  0.34414039  1
  Ag  Ag31  1  0.66439489  0.66768987  0.33571972  1
  Ag  Ag32  1  0.00866209  0.49540509  0.16369734  1
  Ag  Ag33  1  0.66573686  0.16934055  0.82829487  1
  Ag  Ag34  1  0.32363154  0.00113306  0.00000655  1
  Ag  Ag35  1  -0.00010010  0.00222883  0.32452214  1
  Ag  Ag36  1  0.32842478  0.33026003  0.34017364  1
  Ag  Ag37  1  0.84474141  0.33838337  0.17193452  1
  Ag  Ag38  1  0.01016812  0.32974402  0.32976762  1
  Ag  Ag39  1  0.50037231  0.00103678  0.83363576  1
  Ag  Ag40  1  0.17906161  0.66258645  0.49466461  1
  Ag  Ag41  1  0.32570382  0.50090114  0.16604171  1
  Ag  Ag42  1  0.84331081  0.49909328  0.00103909  1
  Ag  Ag43  1  0.33467977  0.17880459  0.49357556  1
  Ag  Ag44  1  0.83593073  0.16901407  0.67052962  1
  Ag  Ag45  1  0.16394661  0.33248822  0.17140401  1
  Ag  Ag46  1  0.33644429  0.82542816  0.49396192  1
  Ag  Ag47  1  0.84084104  0.16953497  -0.00191667  1
  Ag  Ag48  1  0.49725661  0.83107959  0.33930300  1
  Ag  Ag49  1  0.33246813  0.33657385  0.65347946  1
  Ag  Ag50  1  0.00521593  -0.00003597  0.00405383  1
  Ag  Ag51  1  0.48702993  0.34783126  0.49901399  1
  Ag  Ag52  1  0.65317608  0.49913970  0.50156673  1
  Ag  Ag53  1  -0.00314031  0.50344160  0.84314619  1
  Sb  Sb54  1  0.67059151  0.83217374  0.82735565  1
  Sb  Sb55  1  0.83482081  0.16622485  0.33327347  1
  Sb  Sb56  1  0.66628934  0.50019019  0.16850284  1
  Sb  Sb57  1  0.33038136  0.33329291  0.00384917  1
  Sb  Sb58  1  0.66473185  0.66571771  0.00262614  1
  Sb  Sb59  1  0.00517328  0.33315414  0.65937006  1
  Sb  Sb60  1  0.67040285  0.00152862  -0.00314320  1
  Sb  Sb61  1  -0.00021546  0.00117629  0.66960320  1
  Sb  Sb62  1  0.50055160  0.66844399  0.82731267  1
  Sb  Sb63  1  0.00113247  0.16700400  0.84033639  1
  Sb  Sb64  1  0.66195549  0.33344148  0.66217601  1
  Sb  Sb65  1  0.00154278  0.33138574  0.00753697  1
  Sb  Sb66  1  0.00460035  0.16501129  0.49378469  1
  Sb  Sb67  1  0.49473273  0.16570916  0.00063129  1
  Sb  Sb68  1  0.00695632  0.66741741  0.00243834  1
  Sb  Sb69  1  0.32971790  0.83254753  0.83418049  1
  Sb  Sb70  1  0.00523026  0.50164029  0.49469883  1
  Sb  Sb71  1  0.82923014  0.49593134  0.67093694  1
  Sb  Sb72  1  0.17395366  0.49289930  0.32631383  1
  Sb  Sb73  1  0.84127286  0.83137078  0.00393518  1
  Sb  Sb74  1  -0.00189407  0.66678570  0.32998355  1
  Sb  Sb75  1  0.16795261  0.00286504  0.49850591  1
  Sb  Sb76  1  0.16749146  0.33353466  0.83499196  1
  Sb  Sb77  1  0.16610714  0.00089940  0.83783649  1
  Sb  Sb78  1  0.17412528  0.49626549  0.66846948  1
  Sb  Sb79  1  0.49710583  0.33199983  0.82611378  1
  Sb  Sb80  1  0.32919875  0.00449187  0.32988897  1
  Sb  Sb81  1  0.00622629  0.66609073  0.66711952  1
  Sb  Sb82  1  0.49335904  0.66585290  0.17478201  1
  Sb  Sb83  1  0.83530094  0.00324210  0.50228738  1
  Sb  Sb84  1  0.67080918  0.33408639  -0.00120194  1
  Sb  Sb85  1  0.49664275  0.16843015  0.66135464  1
  Sb  Sb86  1  0.83454601  0.33349857  0.83336126  1
  Sb  Sb87  1  0.33584958  0.66119761  0.33630888  1
  Sb  Sb88  1  0.16597553  0.66438282  0.83625868  1
  Sb  Sb89  1  0.48934732  0.83362919  0.00240650  1
  Sb  Sb90  1  0.49459919  0.50039970  -0.00127683  1
  Sb  Sb91  1  0.66936049  -0.00324722  0.33534250  1
  Sb  Sb92  1  0.16754247  0.83603488  0.32873824  1
  Sb  Sb93  1  0.16558915  0.00396467  0.16590497  1
  Sb  Sb94  1  0.82981750  0.50270285  0.32906926  1
  Sb  Sb95  1  0.49182329  0.33470782  0.17796125  1
  Sb  Sb96  1  0.66396898  0.33719632  0.33735610  1
  Sb  Sb97  1  0.66827911  0.16932837  0.16865823  1
  Sb  Sb98  1  0.66190910  0.66465755  0.66129431  1
  Sb  Sb99  1  0.83086089  0.83549005  0.66283948  1
  Sb  Sb100  1  0.83947619  0.00072132  0.16315205  1
  Sb  Sb101  1  0.33473021  0.00253842  0.67013771  1
  Sb  Sb102  1  0.17107690  0.83534679  0.66562170  1
  Sb  Sb103  1  0.66501181  0.00193348  0.66652439  1
  Sb  Sb104  1  0.49424381  0.00019289  0.16421195  1
  Sb  Sb105  1  0.49853236  -0.00236258  0.50245305  1
  Sb  Sb106  1  0.83108055  0.66421275  0.49948040  1
  Sb  Sb107  1  0.66911078  0.82940720  0.17477030  1
  Te  Te108  1  0.16629455  0.16840264  0.16607409  1
  Te  Te109  1  0.16983057  0.16986959  0.50104548  1
  Te  Te110  1  0.17062001  0.16797991  0.83551981  1
  Te  Te111  1  0.16809881  0.50118904  0.16583272  1
  Te  Te112  1  0.16894486  0.50028081  0.50023770  1
  Te  Te113  1  0.17046913  0.49967385  0.83999989  1
  Te  Te114  1  0.16741823  0.83010893  0.16554350  1
  Te  Te115  1  0.16782051  0.83017765  0.49986491  1
  Te  Te116  1  0.15964985  0.83276935  0.83667048  1
  Te  Te117  1  0.49728274  0.16776404  0.17238244  1
  Te  Te118  1  0.49829516  0.16366201  0.49855675  1
  Te  Te119  1  0.50052914  0.16467645  0.83222008  1
  Te  Te120  1  0.49449559  0.49937382  0.16966400  1
  Te  Te121  1  0.49854470  0.50240197  0.50027104  1
  Te  Te122  1  0.49802387  0.49975746  0.83123142  1
  Te  Te123  1  0.49613978  0.83280362  0.17216170  1
  Te  Te124  1  0.49777567  0.83603182  0.49884199  1
  Te  Te125  1  0.50164856  0.83708009  0.83289107  1
  Te  Te126  1  0.83531686  0.16911297  0.16229391  1
  Te  Te127  1  0.83474317  0.16960981  0.50205482  1
  Te  Te128  1  0.83380208  0.16738926  0.83582250  1
  Te  Te129  1  0.83132327  0.50095557  0.16209163  1
  Te  Te130  1  0.83587212  0.49548309  0.50139185  1
  Te  Te131  1  0.83239701  0.49979062  0.83714022  1
  Te  Te132  1  0.83681072  0.82868590  0.17100162  1
  Te  Te133  1  0.83892223  0.83335430  0.49706854  1
  Te  Te134  1  0.83633469  0.83231601  0.83218473  1
  Te  Te135  1  0.16520711  0.00122689  0.00022771  1
  Te  Te136  1  0.15855980  0.00995950  0.33383986  1
  Te  Te137  1  0.16671496  0.00978118  0.66798573  1
  Te  Te138  1  0.16675935  0.33304078  0.00510756  1
  Te  Te139  1  0.16755339  0.33178979  0.33298379  1
  Te  Te140  1  0.17170865  0.32958966  0.66165795  1
  Te  Te141  1  0.17187312  0.66516798  0.00265218  1
  Te  Te142  1  0.16550778  0.66839501  0.33394740  1
  Te  Te143  1  0.17363147  0.66715188  0.66033212  1
  Te  Te144  1  0.49734760  -0.00025536  -0.00641074  1
  Te  Te145  1  0.50049238  -0.00064227  0.33209130  1
  Te  Te146  1  0.49943464  -0.00566207  0.67459038  1
  Te  Te147  1  0.50203425  0.33283388  0.00286429  1
  Te  Te148  1  0.49766968  0.33171836  0.34040339  1
  Te  Te149  1  0.49378890  0.33699300  0.65956614  1
  Te  Te150  1  0.49152394  0.66742915  0.00133588  1
  Te  Te151  1  0.50255249  0.66853709  0.33833335  1
  Te  Te152  1  0.49586743  0.66637684  0.66186093  1
  Te  Te153  1  0.83792137  0.00193327  -0.00385674  1
  Te  Te154  1  0.83913522  -0.00619722  0.33300562  1
  Te  Te155  1  0.83282222  0.00646560  0.67424693  1
  Te  Te156  1  0.83524403  0.33395896  0.00424132  1
  Te  Te157  1  0.83324496  0.33369364  0.33157732  1
  Te  Te158  1  0.83485723  0.32792150  0.66157264  1
  Te  Te159  1  0.83135622  0.66392904  0.00038533  1
  Te  Te160  1  0.82904563  0.67083754  0.33117541  1
  Te  Te161  1  0.83463539  0.66627359  0.67423205  1
  Te  Te162  1  0.00130949  0.16367297  0.00404920  1
  Te  Te163  1  -0.00082074  0.16651291  0.32816336  1
  Te  Te164  1  -0.00032113  0.16713670  0.66739236  1
  Te  Te165  1  0.00151616  0.50082821  0.00227223  1
  Te  Te166  1  -0.00234176  0.49464222  0.32650174  1
  Te  Te167  1  -0.00038735  0.49996332  0.67321856  1
  Te  Te168  1  0.00389353  0.83609613  0.00147812  1
  Te  Te169  1  0.00089013  0.83328716  0.33036617  1
  Te  Te170  1  0.00084807  0.83391616  0.67008316  1
  Te  Te171  1  0.33081183  0.16569619  -0.00267321  1
  Te  Te172  1  0.33227165  0.16656406  0.33330444  1
  Te  Te173  1  0.33277658  0.16872134  0.66936886  1
  Te  Te174  1  0.33039311  0.50048582  0.00299277  1
  Te  Te175  1  0.33725810  0.49543614  0.33460961  1
  Te  Te176  1  0.33398445  0.49913774  0.66623447  1
  Te  Te177  1  0.32658136  0.83390419  0.00242127  1
  Te  Te178  1  0.33418037  0.83707715  0.33177313  1
  Te  Te179  1  0.33600396  0.83136548  0.66531474  1
  Te  Te180  1  0.67032288  0.16693220  -0.00463029  1
  Te  Te181  1  0.66407238  0.16545655  0.33795445  1
  Te  Te182  1  0.66944350  0.16751784  0.66675691  1
  Te  Te183  1  0.66716925  0.50103982  -0.00625812  1
  Te  Te184  1  0.66070659  0.50365578  0.33752404  1
  Te  Te185  1  0.66131901  0.49980830  0.66640264  1
  Te  Te186  1  0.66595579  0.83322241  -0.00060827  1
  Te  Te187  1  0.66375328  0.83074348  0.33897583  1
  Te  Te188  1  0.66156372  0.83259621  0.65782028  1
  Te  Te189  1  -0.00051412  -0.00636729  0.16493778  1
  Te  Te190  1  0.00036582  -0.00785662  0.49824775  1
  Te  Te191  1  -0.00384630  -0.00159821  0.83721643  1
  Te  Te192  1  0.00212834  0.33457790  0.16972113  1
  Te  Te193  1  -0.00306414  0.33354785  0.49253514  1
  Te  Te194  1  0.00056274  0.34194391  0.82936366  1
  Te  Te195  1  0.00166242  0.66641425  0.16718612  1
  Te  Te196  1  0.00055163  0.67120688  0.49932261  1
  Te  Te197  1  -0.00277026  0.66549650  0.83338534  1
  Te  Te198  1  0.33311267  -0.00026597  0.16011301  1
  Te  Te199  1  0.33247127  -0.00639457  0.50063884  1
  Te  Te200  1  0.33506760  0.00201023  0.83798942  1
  Te  Te201  1  0.32867331  0.33309508  0.17058213  1
  Te  Te202  1  0.33286336  0.33303001  0.49824602  1
  Te  Te203  1  0.33337808  0.33384050  0.83203620  1
  Te  Te204  1  0.32964248  0.66592720  0.16694644  1
  Te  Te205  1  0.33528674  0.66752536  0.49867572  1
  Te  Te206  1  0.33403312  0.66307731  0.83460259  1
  Te  Te207  1  0.66649909  -0.00063799  0.16550041  1
  Te  Te208  1  0.66808203  0.00714227  0.49994262  1
  Te  Te209  1  0.66902393  0.00420858  0.83305617  1
  Te  Te210  1  0.67436833  0.33405167  0.16755600  1
  Te  Te211  1  0.67227724  0.33349071  0.49967530  1
  Te  Te212  1  0.66550571  0.33271581  0.83116338  1
  Te  Te213  1  0.67129213  0.66553988  0.17209847  1
  Te  Te214  1  0.66645209  0.66441366  0.49672597  1
  Te  Te215  1  0.67017963  0.66248641  0.83341301  1
