# generated using pymatgen
data_AgSbTe2
_symmetry_space_group_name_H-M   'P 1'
_cell_length_a   18.34209881
_cell_length_b   18.34938623
_cell_length_c   18.34893488
_cell_angle_alpha   89.99984910
_cell_angle_beta   89.99962705
_cell_angle_gamma   89.99895482
_symmetry_Int_Tables_number   1
_chemical_formula_structural   AgSbTe2
_chemical_formula_sum   'Ag54 Sb54 Te108'
_cell_volume   6175.63230058
_cell_formula_units_Z   54
loop_
 _symmetry_equiv_pos_site_id
 _symmetry_equiv_pos_as_xyz
  1  'x, y, z'
loop_
 _atom_site_type_symbol
 _atom_site_label
 _atom_site_symmetry_multiplicity
 _atom_site_fract_x
 _atom_site_fract_y
 _atom_site_fract_z
 _atom_site_occupancy
  Ag  Ag0  1  0.66643529  0.50024858  0.83148824  1
  Ag  Ag1  1  0.67506587  0.66255264  0.65801236  1
  Ag  Ag2  1  0.33499665  0.34389492  0.01401909  1
  Ag  Ag3  1  0.16989631  0.82592470  0.01117168  1
  Ag  Ag4  1  0.82719275  0.17718995  0.33605088  1
  Ag  Ag5  1  0.83138100  0.82036042  0.65938263  1
  Ag  Ag6  1  0.49779777  0.00167107  0.83788510  1
  Ag  Ag7  1  0.16298267  0.50455642  0.65697190  1
  Ag  Ag8  1  0.32599822  0.50460788  0.48739346  1
  Ag  Ag9  1  0.83034332  0.50147462  0.00804935  1
  Ag  Ag10  1  -0.00231077  0.66366894  0.65310865  1
  Ag  Ag11  1  0.48782369  0.49435401  0.32999217  1
  Ag  Ag12  1  -0.00363332  0.16968593  0.49615071  1
  Ag  Ag13  1  0.32776203  0.49709196  0.17390374  1
  Ag  Ag14  1  0.50107392  0.33575214  0.48819453  1
  Ag  Ag15  1  0.66285928  0.16558970  0.17109792  1
  Ag  Ag16  1  0.01396178  0.66208732  0.34236098  1
  Ag  Ag17  1  0.83032363  0.33911426  0.17644198  1
  Ag  Ag18  1  0.01143209  0.50218391  0.17653038  1
  Ag  Ag19  1  0.01150561  0.66347808  0.00464924  1
  Ag  Ag20  1  0.17395767  0.50494515  0.33386624  1
  Ag  Ag21  1  0.16655284  0.66290980  0.17401935  1
  Ag  Ag22  1  0.66630451  0.66802476  0.33535697  1
  Ag  Ag23  1  0.50242447  0.17495605  0.32885707  1
  Ag  Ag24  1  0.32469721  0.65859182  0.33217099  1
  Ag  Ag25  1  0.17941122  0.34324961  0.16711862  1
  Ag  Ag26  1  0.00092688  0.50604589  0.49239701  1
  Ag  Ag27  1  0.17064939  -0.00991050  0.16942077  1
  Ag  Ag28  1  0.33821742  0.00019480  0.00502246  1
  Ag  Ag29  1  0.33548182  0.16534668  0.83900700  1
  Ag  Ag30  1  0.49172640  0.83097341  0.33256002  1
  Ag  Ag31  1  0.83489403  0.49943624  0.33684311  1
  Ag  Ag32  1  0.83245247  -0.00668189  0.49787148  1
  Ag  Ag33  1  0.00116503  0.81713879  0.49808350  1
  Ag  Ag34  1  0.15370194  0.66427433  0.48757689  1
  Ag  Ag35  1  0.65872324  -0.00053907  0.01170700  1
  Ag  Ag36  1  0.66753899  0.83698984  0.17277866  1
  Ag  Ag37  1  0.83569266  0.50374486  0.65447671  1
  Ag  Ag38  1  0.49621203  0.33502238  0.17122861  1
  Ag  Ag39  1  0.33847182  0.34724939  0.33021516  1
  Ag  Ag40  1  0.84254402  0.66114045  0.49842083  1
  Ag  Ag41  1  0.66440749  -0.00225623  0.66343439  1
  Ag  Ag42  1  0.33595807  -0.00103728  0.65951494  1
  Ag  Ag43  1  0.33847370  -0.00420152  0.33236949  1
  Ag  Ag44  1  0.83103935  0.34426796  0.49382164  1
  Ag  Ag45  1  0.49782245  0.49443953  0.00946191  1
  Ag  Ag46  1  0.66156715  -0.00442286  0.32992111  1
  Ag  Ag47  1  0.17148521  0.34442977  0.84262158  1
  Ag  Ag48  1  0.49605027  0.17149047  0.00785650  1
  Ag  Ag49  1  0.16742811  0.66226459  0.83900379  1
  Ag  Ag50  1  0.17527028  0.81797124  0.33119994  1
  Ag  Ag51  1  0.66729455  0.34491491  0.66534793  1
  Ag  Ag52  1  0.32873468  0.82422354  0.49223866  1
  Ag  Ag53  1  0.32837094  0.66500512  0.01102801  1
  Sb  Sb54  1  0.66413714  0.49927773  0.16816234  1
  Sb  Sb55  1  0.00023000  -0.00494248  0.33469864  1
  Sb  Sb56  1  0.50180260  0.16593811  0.66373927  1
  Sb  Sb57  1  0.00117197  0.82424395  0.17367926  1
  Sb  Sb58  1  0.82371677  0.00154033  0.82673321  1
  Sb  Sb59  1  0.67072234  0.50016912  0.50033785  1
  Sb  Sb60  1  0.33622426  0.33273731  0.66255724  1
  Sb  Sb61  1  0.00582647  0.16779693  0.83026061  1
  Sb  Sb62  1  0.00269014  0.82924843  0.82796389  1
  Sb  Sb63  1  0.66579684  0.83000436  0.83388191  1
  Sb  Sb64  1  0.83155834  0.17074622  0.65689790  1
  Sb  Sb65  1  -0.00343655  0.34254837  0.66263418  1
  Sb  Sb66  1  0.49564761  0.00525797  0.16722025  1
  Sb  Sb67  1  0.83180951  0.00334584  0.17363864  1
  Sb  Sb68  1  0.66793224  0.83306878  0.49467882  1
  Sb  Sb69  1  0.49414560  0.83385846  0.00818336  1
  Sb  Sb70  1  0.33060460  0.66883352  0.66043651  1
  Sb  Sb71  1  0.16858747  0.17262546  0.66504105  1
  Sb  Sb72  1  0.50073552  0.50006818  0.66190238  1
  Sb  Sb73  1  0.66047939  0.16826447  0.83718047  1
  Sb  Sb74  1  0.83761860  0.65938593  0.17554601  1
  Sb  Sb75  1  -0.00082231  -0.00691302  0.66207680  1
  Sb  Sb76  1  0.33406481  0.82938012  0.17377472  1
  Sb  Sb77  1  0.50217363  0.00371732  0.49623165  1
  Sb  Sb78  1  0.66369525  0.33533903  0.33531226  1
  Sb  Sb79  1  0.49944428  0.66164814  0.49495912  1
  Sb  Sb80  1  0.49450462  0.66108608  0.17083112  1
  Sb  Sb81  1  0.82553577  0.17208263  0.00822923  1
  Sb  Sb82  1  0.66997576  0.16699535  0.49261251  1
  Sb  Sb83  1  0.66358682  0.66724908  0.00434303  1
  Sb  Sb84  1  0.33037994  0.16803670  0.49736872  1
  Sb  Sb85  1  0.00050656  0.50279648  0.83353285  1
  Sb  Sb86  1  0.33292647  0.83582397  0.83199217  1
  Sb  Sb87  1  0.00679878  0.34116087  0.00333390  1
  Sb  Sb88  1  0.16651041  0.34375028  0.49519032  1
  Sb  Sb89  1  0.16478702  -0.00758406  0.49453565  1
  Sb  Sb90  1  0.66083574  0.33280424  0.00015817  1
  Sb  Sb91  1  0.83369706  0.82912200  0.33864135  1
  Sb  Sb92  1  0.49600268  0.66742690  0.83489683  1
  Sb  Sb93  1  0.16455676  0.82591538  0.66118299  1
  Sb  Sb94  1  0.33380064  0.49687549  0.83676524  1
  Sb  Sb95  1  0.16895511  0.17081632  0.33194898  1
  Sb  Sb96  1  0.17468490  0.16548898  0.00215777  1
  Sb  Sb97  1  0.83638502  0.82675221  -0.00188394  1
  Sb  Sb98  1  0.16961860  0.50671607  0.00683734  1
  Sb  Sb99  1  0.83575791  0.33718817  0.83257142  1
  Sb  Sb100  1  0.00070490  0.34419898  0.33387805  1
  Sb  Sb101  1  0.83735273  0.66328850  0.82594226  1
  Sb  Sb102  1  0.00298279  -0.00603633  0.00237649  1
  Sb  Sb103  1  0.17533298  -0.00306476  0.83750727  1
  Sb  Sb104  1  0.33743705  0.17174782  0.16550598  1
  Sb  Sb105  1  0.49516106  0.33089737  0.83607136  1
  Sb  Sb106  1  0.50287270  0.83473711  0.65890095  1
  Sb  Sb107  1  -0.00399468  0.17397955  0.17322112  1
  Te  Te108  1  0.16301251  0.17291826  0.16675838  1
  Te  Te109  1  0.15939010  0.16640362  0.49969355  1
  Te  Te110  1  0.17346618  0.16891272  0.83332863  1
  Te  Te111  1  0.16775968  0.50121820  0.16749135  1
  Te  Te112  1  0.16423292  0.50290879  0.49691360  1
  Te  Te113  1  0.16746149  0.50188943  0.83088627  1
  Te  Te114  1  0.16644388  0.83012911  0.17034101  1
  Te  Te115  1  0.16625867  0.82831570  0.49556753  1
  Te  Te116  1  0.16709513  0.82774098  0.83603033  1
  Te  Te117  1  0.50267649  0.17132286  0.16738036  1
  Te  Te118  1  0.49930060  0.17369736  0.49368507  1
  Te  Te119  1  0.49557582  0.16287972  0.83614597  1
  Te  Te120  1  0.49843754  0.49603945  0.16865246  1
  Te  Te121  1  0.49536690  0.49543096  0.49465025  1
  Te  Te122  1  0.50360174  0.49943342  0.83414813  1
  Te  Te123  1  0.50665856  0.83209665  0.17354651  1
  Te  Te124  1  0.49317726  0.83449521  0.49251911  1
  Te  Te125  1  0.50018118  0.84029378  0.83332778  1
  Te  Te126  1  0.82831214  0.17207618  0.17392607  1
  Te  Te127  1  0.83560346  0.16857517  0.49414182  1
  Te  Te128  1  0.83523186  0.16862244  0.83441337  1
  Te  Te129  1  0.82970672  0.49700696  0.16605834  1
  Te  Te130  1  0.83371683  0.50086516  0.49839514  1
  Te  Te131  1  0.82840109  0.49900883  0.83630950  1
  Te  Te132  1  0.82958831  0.83417545  0.16503297  1
  Te  Te133  1  0.83451129  0.83311180  0.50237139  1
  Te  Te134  1  0.83436367  0.83416226  0.82381937  1
  Te  Te135  1  0.17058340  -0.00509443  0.00518255  1
  Te  Te136  1  0.16872250  0.00256412  0.32896806  1
  Te  Te137  1  0.17200910  -0.00056373  0.66786704  1
  Te  Te138  1  0.17370137  0.33304548  0.00321029  1
  Te  Te139  1  0.17281963  0.33765552  0.32828344  1
  Te  Te140  1  0.16709434  0.34058995  0.66625091  1
  Te  Te141  1  0.17150088  0.66676182  -0.00019548  1
  Te  Te142  1  0.16921055  0.66396681  0.33322231  1
  Te  Te143  1  0.16558652  0.66310513  0.66735876  1
  Te  Te144  1  0.49920355  -0.00155390  0.00089777  1
  Te  Te145  1  0.50186073  -0.00115930  0.33277722  1
  Te  Te146  1  0.49844716  -0.00015344  0.66719063  1
  Te  Te147  1  0.49522519  0.33261892  0.00133456  1
  Te  Te148  1  0.50081883  0.33475886  0.33110237  1
  Te  Te149  1  0.50618503  0.33277663  0.66514015  1
  Te  Te150  1  0.49354284  0.66234869  0.00031522  1
  Te  Te151  1  0.50639205  0.66655335  0.33285482  1
  Te  Te152  1  0.50905869  0.66797956  0.66682637  1
  Te  Te153  1  0.82955617  -0.00047273  -0.00127067  1
  Te  Te154  1  0.83002823  -0.00015000  0.33730175  1
  Te  Te155  1  0.83073036  0.00246907  0.66047063  1
  Te  Te156  1  0.83276748  0.33931433  0.00115663  1
  Te  Te157  1  0.83307467  0.33509750  0.33557952  1
  Te  Te158  1  0.82902823  0.33946518  0.66490430  1
  Te  Te159  1  0.83222105  0.66247388  -0.00093700  1
  Te  Te160  1  0.82687389  0.66460539  0.33821314  1
  Te  Te161  1  0.83425323  0.66285713  0.66501659  1
  Te  Te162  1  -0.00298267  0.16502642  0.00005665  1
  Te  Te163  1  -0.00418587  0.16531614  0.33665685  1
  Te  Te164  1  0.00008011  0.16673330  0.66158865  1
  Te  Te165  1  -0.00523038  0.50398516  0.00056054  1
  Te  Te166  1  -0.00521047  0.50328873  0.33280935  1
  Te  Te167  1  -0.00076671  0.50549336  0.66722891  1
  Te  Te168  1  0.00539781  0.82635687  0.00058707  1
  Te  Te169  1  0.00310837  0.82725057  0.33849280  1
  Te  Te170  1  -0.00386867  0.82590422  0.66003954  1
  Te  Te171  1  0.33834026  0.16065191  -0.00045640  1
  Te  Te172  1  0.33688164  0.15656778  0.33251990  1
  Te  Te173  1  0.33428967  0.16064464  0.66934789  1
  Te  Te174  1  0.33653319  0.50105795  0.00104970  1
  Te  Te175  1  0.33322905  0.50269371  0.33222414  1
  Te  Te176  1  0.33098710  0.50001228  0.66466892  1
  Te  Te177  1  0.33028106  0.83161537  0.00014112  1
  Te  Te178  1  0.33281851  0.83697990  0.33407647  1
  Te  Te179  1  0.33383938  0.83777026  0.66046734  1
  Te  Te180  1  0.65952243  0.16129654  0.00437591  1
  Te  Te181  1  0.66471063  0.16693063  0.33052989  1
  Te  Te182  1  0.66669914  0.15695916  0.66885394  1
  Te  Te183  1  0.66390900  0.50041315  -0.00244855  1
  Te  Te184  1  0.67379592  0.50366063  0.33338611  1
  Te  Te185  1  0.66730215  0.50286814  0.66780389  1
  Te  Te186  1  0.66667971  0.83804143  0.00242050  1
  Te  Te187  1  0.66758718  0.83537678  0.33242088  1
  Te  Te188  1  0.66977925  0.83566156  0.66631819  1
  Te  Te189  1  0.00643311  0.00024508  0.16644211  1
  Te  Te190  1  -0.00530879  0.00358542  0.50022239  1
  Te  Te191  1  0.00027176  0.00045275  0.83224674  1
  Te  Te192  1  -0.00709859  0.34115341  0.16700472  1
  Te  Te193  1  -0.00460491  0.33344308  0.49942835  1
  Te  Te194  1  0.01147442  0.33225614  0.83383170  1
  Te  Te195  1  0.00330264  0.66153504  0.16480373  1
  Te  Te196  1  -0.00182384  0.66180028  0.49811281  1
  Te  Te197  1  0.00607109  0.66724116  0.84325495  1
  Te  Te198  1  0.33009735  -0.00078644  0.16619104  1
  Te  Te199  1  0.33274196  0.00042387  0.49849594  1
  Te  Te200  1  0.33727135  0.00258362  0.83795664  1
  Te  Te201  1  0.33582577  0.33480250  0.16945586  1
  Te  Te202  1  0.33529494  0.33616744  0.49513780  1
  Te  Te203  1  0.32893826  0.32902197  0.83054028  1
  Te  Te204  1  0.32992762  0.66339795  0.17027292  1
  Te  Te205  1  0.33417920  0.66529462  0.49652469  1
  Te  Te206  1  0.32939999  0.66704208  0.83116980  1
  Te  Te207  1  0.66766548  0.00178671  0.16990004  1
  Te  Te208  1  0.66974576  0.00025675  0.49992986  1
  Te  Te209  1  0.66005584  0.00037625  0.83004852  1
  Te  Te210  1  0.66811373  0.33004759  0.16496846  1
  Te  Te211  1  0.66806797  0.33228365  0.50526090  1
  Te  Te212  1  0.66674057  0.33604822  0.82851767  1
  Te  Te213  1  0.66765508  0.67168455  0.17057054  1
  Te  Te214  1  0.66781904  0.66762018  0.50018530  1
  Te  Te215  1  0.66544002  0.66296989  0.83319912  1
