# generated using pymatgen
data_AgSbTe2
_symmetry_space_group_name_H-M   'P 1'
_cell_length_a   18.35640782
_cell_length_b   18.35241832
_cell_length_c   18.35244133
_cell_angle_alpha   89.99774023
_cell_angle_beta   89.99889823
_cell_angle_gamma   90.00056370
_symmetry_Int_Tables_number   1
_chemical_formula_structural   AgSbTe2
_chemical_formula_sum   'Ag54 Sb54 Te108'
_cell_volume   6182.65256087
_cell_formula_units_Z   54
loop_
 _symmetry_equiv_pos_site_id
 _symmetry_equiv_pos_as_xyz
  1  'x, y, z'
loop_
 _atom_site_type_symbol
 _atom_site_label
 _atom_site_symmetry_multiplicity
 _atom_site_fract_x
 _atom_site_fract_y
 _atom_site_fract_z
 _atom_site_occupancy
  Ag  Ag0  1  0.67727193  0.32016050  0.66582650  1
  Ag  Ag1  1  -0.00069236  0.49887797  0.81875727  1
  Ag  Ag2  1  0.33758923  0.66991524  -0.00234706  1
  Ag  Ag3  1  0.83544378  0.49337703  0.33886600  1
  Ag  Ag4  1  0.50141956  0.66928146  0.82700955  1
  Ag  Ag5  1  0.83233971  0.00276205  0.17099555  1
  Ag  Ag6  1  0.83622339  0.66595874  0.16705161  1
  Ag  Ag7  1  -0.00449043  0.15897658  0.82351274  1
  Ag  Ag8  1  -0.00300158  0.50115557  0.17536727  1
  Ag  Ag9  1  0.50911499  0.49727687  0.33555342  1
  Ag  Ag10  1  0.66567035  0.67290233  -0.00090080  1
  Ag  Ag11  1  0.16572624  0.83641210  -0.01026256  1
  Ag  Ag12  1  0.84078488  0.84163623  0.66598311  1
  Ag  Ag13  1  0.00334740  -0.00296355  0.65836126  1
  Ag  Ag14  1  0.83666733  0.00271118  0.82154130  1
  Ag  Ag15  1  0.15437512  0.49540254  0.33808140  1
  Ag  Ag16  1  0.83096151  0.16143933  0.00496303  1
  Ag  Ag17  1  0.00033262  0.68092603  0.66750071  1
  Ag  Ag18  1  0.00180970  0.84333532  0.82310454  1
  Ag  Ag19  1  0.00495746  0.84579715  0.50765173  1
  Ag  Ag20  1  0.15872138  0.67461204  0.16725556  1
  Ag  Ag21  1  0.67335321  0.00547601  0.33497060  1
  Ag  Ag22  1  0.67073709  0.49442937  0.50044749  1
  Ag  Ag23  1  0.83494980  0.32126199  0.17287463  1
  Ag  Ag24  1  0.50705649  0.00012366  0.82715238  1
  Ag  Ag25  1  0.50287950  0.31744729  0.82830684  1
  Ag  Ag26  1  0.66856027  0.16414201  0.50157975  1
  Ag  Ag27  1  0.50587962  0.16430480  0.66461819  1
  Ag  Ag28  1  -0.00711266  0.00548250  0.34302021  1
  Ag  Ag29  1  0.83928852  0.50346611  0.65963389  1
  Ag  Ag30  1  0.15645196  0.16014623  0.66228949  1
  Ag  Ag31  1  0.15752696  0.50024372  0.66006089  1
  Ag  Ag32  1  0.50089200  0.66781803  0.50234719  1
  Ag  Ag33  1  0.34219436  0.16254658  0.82460640  1
  Ag  Ag34  1  0.66838489  0.00184877  -0.00343913  1
  Ag  Ag35  1  0.66816946  0.16229867  0.82182578  1
  Ag  Ag36  1  0.51333033  0.00249330  0.17120329  1
  Ag  Ag37  1  0.67283185  0.00156190  0.66712046  1
  Ag  Ag38  1  0.83850394  0.00045486  0.50467578  1
  Ag  Ag39  1  0.67111356  0.16206981  0.17454521  1
  Ag  Ag40  1  0.15250366  0.00037821  0.82207162  1
  Ag  Ag41  1  0.51176030  0.16328276  0.34361588  1
  Ag  Ag42  1  0.31878233  0.00409447  0.66698866  1
  Ag  Ag43  1  0.15349269  0.00034590  0.50837158  1
  Ag  Ag44  1  0.32614856  0.84328462  0.50133197  1
  Ag  Ag45  1  0.50077265  0.84777884  0.33795414  1
  Ag  Ag46  1  0.00034560  0.16133509  0.50141814  1
  Ag  Ag47  1  0.15567887  0.84578487  0.66741634  1
  Ag  Ag48  1  0.83333563  0.16266621  0.33126036  1
  Ag  Ag49  1  0.32539914  0.16112638  0.50549578  1
  Ag  Ag50  1  0.15868114  -0.00129381  0.17086127  1
  Ag  Ag51  1  -0.00406139  0.32481035  0.66437779  1
  Ag  Ag52  1  -0.00370506  0.32318984  0.34120891  1
  Ag  Ag53  1  0.15554428  0.16033036  0.34355976  1
  Sb  Sb54  1  0.66944376  0.49676695  0.82837309  1
  Sb  Sb55  1  0.50182980  0.66980030  0.16912352  1
  Sb  Sb56  1  0.32902768  0.33086026  0.33315752  1
  Sb  Sb57  1  0.83301065  0.32390662  0.83097404  1
  Sb  Sb58  1  0.50143022  0.50226451  0.00327296  1
  Sb  Sb59  1  0.50582988  0.16248489  -0.00723843  1
  Sb  Sb60  1  0.50076844  0.49493619  0.66505344  1
  Sb  Sb61  1  -0.00177176  0.33163871  -0.00162762  1
  Sb  Sb62  1  0.16612679  0.32525564  0.82925493  1
  Sb  Sb63  1  -0.00388508  0.49869817  0.50126242  1
  Sb  Sb64  1  0.83440513  0.32465428  0.49965590  1
  Sb  Sb65  1  0.49665909  0.83563236  0.00169064  1
  Sb  Sb66  1  0.33128050  0.32202613  0.66676698  1
  Sb  Sb67  1  -0.00145256  0.66764911  -0.00310870  1
  Sb  Sb68  1  0.16103685  0.15797611  -0.00333355  1
  Sb  Sb69  1  0.83698698  0.83971440  -0.00317908  1
  Sb  Sb70  1  -0.00548976  0.00056607  -0.00375444  1
  Sb  Sb71  1  -0.00584404  0.16719937  0.17275784  1
  Sb  Sb72  1  0.32719059  0.50316362  0.16834495  1
  Sb  Sb73  1  0.83193691  0.67041047  0.49904143  1
  Sb  Sb74  1  0.66845421  0.66992167  0.66836965  1
  Sb  Sb75  1  0.66993047  0.32672686  -0.00519598  1
  Sb  Sb76  1  0.67016519  0.84300383  0.83296088  1
  Sb  Sb77  1  0.67206508  0.32588066  0.33970250  1
  Sb  Sb78  1  0.16582881  0.67158992  0.83416566  1
  Sb  Sb79  1  0.33397852  0.66742936  0.33182277  1
  Sb  Sb80  1  0.67375254  0.49670741  0.17266883  1
  Sb  Sb81  1  0.66759118  0.83910402  0.49955990  1
  Sb  Sb82  1  0.50230614  0.33190534  0.50288968  1
  Sb  Sb83  1  0.83119478  0.83982538  0.33697045  1
  Sb  Sb84  1  0.33484495  0.33351498  -0.00321206  1
  Sb  Sb85  1  0.66689998  0.66951311  0.33106167  1
  Sb  Sb86  1  0.66727782  0.84225803  0.16690242  1
  Sb  Sb87  1  -0.00103348  0.66864740  0.33699988  1
  Sb  Sb88  1  0.83562366  0.16053845  0.66214704  1
  Sb  Sb89  1  0.00020438  0.83453895  0.16730672  1
  Sb  Sb90  1  0.33672423  0.16246768  0.16866118  1
  Sb  Sb91  1  0.33483684  0.49922470  0.50006702  1
  Sb  Sb92  1  0.16864248  0.83851901  0.33829617  1
  Sb  Sb93  1  0.16427683  0.50717839  0.00082597  1
  Sb  Sb94  1  0.32962288  0.84006160  0.82934549  1
  Sb  Sb95  1  0.32986335  0.67126385  0.66847870  1
  Sb  Sb96  1  0.33042371  0.49840711  0.83069154  1
  Sb  Sb97  1  0.16728981  0.67142145  0.49844725  1
  Sb  Sb98  1  0.33295042  0.00233469  0.33996387  1
  Sb  Sb99  1  0.33211941  0.83594488  0.16973420  1
  Sb  Sb100  1  0.33486495  -0.00239022  -0.00652348  1
  Sb  Sb101  1  0.15838887  0.33099409  0.17061304  1
  Sb  Sb102  1  0.50107315  0.00127107  0.50136181  1
  Sb  Sb103  1  0.49989968  0.84024924  0.66329335  1
  Sb  Sb104  1  0.16371966  0.32373559  0.50243598  1
  Sb  Sb105  1  0.50866779  0.32623013  0.16650910  1
  Sb  Sb106  1  0.83198426  0.67010052  0.83448660  1
  Sb  Sb107  1  0.83396704  0.49828504  0.00103588  1
  Te  Te108  1  0.16727262  0.16176584  0.16634628  1
  Te  Te109  1  0.16564886  0.16196362  0.50127697  1
  Te  Te110  1  0.16062815  0.16023724  0.83050059  1
  Te  Te111  1  0.15971811  0.49897557  0.16885797  1
  Te  Te112  1  0.16724830  0.50233736  0.49826878  1
  Te  Te113  1  0.16287292  0.49973090  0.83227265  1
  Te  Te114  1  0.16629453  0.83304324  0.17066226  1
  Te  Te115  1  0.16698809  0.83710208  0.50453353  1
  Te  Te116  1  0.16412068  0.83777263  0.82908768  1
  Te  Te117  1  0.50436272  0.16280663  0.16943253  1
  Te  Te118  1  0.50688537  0.16746978  0.50266765  1
  Te  Te119  1  0.50405786  0.16138106  0.83098155  1
  Te  Te120  1  0.49977536  0.49748549  0.17338687  1
  Te  Te121  1  0.50113456  0.50182063  0.49757498  1
  Te  Te122  1  0.49967457  0.50813409  0.83502487  1
  Te  Te123  1  0.49951057  0.83921896  0.17342513  1
  Te  Te124  1  0.50139238  0.82831836  0.49714816  1
  Te  Te125  1  0.49889292  0.83364909  0.83377228  1
  Te  Te126  1  0.83435801  0.16417524  0.16918542  1
  Te  Te127  1  0.83120028  0.16186039  0.49335672  1
  Te  Te128  1  0.83149766  0.16415620  0.83663541  1
  Te  Te129  1  0.83718281  0.50593306  0.16688055  1
  Te  Te130  1  0.83077771  0.50372935  0.49913781  1
  Te  Te131  1  0.83647258  0.49955439  0.83267289  1
  Te  Te132  1  0.83432398  0.83084656  0.16612964  1
  Te  Te133  1  0.83623356  0.83739148  0.50404122  1
  Te  Te134  1  0.83900792  0.83813876  0.82971460  1
  Te  Te135  1  0.16864751  -0.00569824  0.00862656  1
  Te  Te136  1  0.16746004  0.00244143  0.33015361  1
  Te  Te137  1  0.16419404  0.00439178  0.66706524  1
  Te  Te138  1  0.16818755  0.33323269  0.00042351  1
  Te  Te139  1  0.15955372  0.33509529  0.33296597  1
  Te  Te140  1  0.16167448  0.33799469  0.66783468  1
  Te  Te141  1  0.16649984  0.67347209  0.00464148  1
  Te  Te142  1  0.16709699  0.66403901  0.32805301  1
  Te  Te143  1  0.16289019  0.66133764  0.66647625  1
  Te  Te144  1  0.50450685  -0.00083745  0.00439726  1
  Te  Te145  1  0.49801424  0.00440217  0.33276333  1
  Te  Te146  1  0.51168569  0.00339240  0.66865676  1
  Te  Te147  1  0.50104610  0.33436165  -0.00757435  1
  Te  Te148  1  0.50063129  0.33290638  0.33209733  1
  Te  Te149  1  0.49990564  0.32982243  0.67038516  1
  Te  Te150  1  0.50177439  0.66829309  0.00062389  1
  Te  Te151  1  0.50075973  0.65826142  0.33648988  1
  Te  Te152  1  0.49859760  0.66656479  0.66648263  1
  Te  Te153  1  0.82826873  0.00111775  0.00875755  1
  Te  Te154  1  0.83359498  -0.00036626  0.33250905  1
  Te  Te155  1  0.83378030  0.00057835  0.66510893  1
  Te  Te156  1  0.83345662  0.32681690  0.00644244  1
  Te  Te157  1  0.83661029  0.33494415  0.33355605  1
  Te  Te158  1  0.83362937  0.34268533  0.66648389  1
  Te  Te159  1  0.82808087  0.66836659  0.00311502  1
  Te  Te160  1  0.83261277  0.66470154  0.32934501  1
  Te  Te161  1  0.83662808  0.66440414  0.66653483  1
  Te  Te162  1  -0.00612679  0.16785488  -0.01035030  1
  Te  Te163  1  -0.00122520  0.16549870  0.33261691  1
  Te  Te164  1  -0.00142815  0.16460369  0.66510945  1
  Te  Te165  1  0.00009524  0.49987698  0.00284322  1
  Te  Te166  1  -0.00329035  0.50371188  0.33357915  1
  Te  Te167  1  -0.00127934  0.48779217  0.66189794  1
  Te  Te168  1  0.00634592  0.83152109  -0.00336745  1
  Te  Te169  1  0.00015239  0.83963835  0.33836985  1
  Te  Te170  1  -0.00130165  0.83772242  0.66809355  1
  Te  Te171  1  0.33184803  0.16769273  -0.00606807  1
  Te  Te172  1  0.33151548  0.16815172  0.33621694  1
  Te  Te173  1  0.33397736  0.16383804  0.66694116  1
  Te  Te174  1  0.33284887  0.50808496  0.00012832  1
  Te  Te175  1  0.33217460  0.49884619  0.33295430  1
  Te  Te176  1  0.32744805  0.49989477  0.66578356  1
  Te  Te177  1  0.32790830  0.82900133  0.00060699  1
  Te  Te178  1  0.33978768  0.83299051  0.34035008  1
  Te  Te179  1  0.33294916  0.83834756  0.66139429  1
  Te  Te180  1  0.67047695  0.16260642  0.00206242  1
  Te  Te181  1  0.66890739  0.16612897  0.33491395  1
  Te  Te182  1  0.67092326  0.16375197  0.66463016  1
  Te  Te183  1  0.66681302  0.50239062  0.00048565  1
  Te  Te184  1  0.66979511  0.49928590  0.33798392  1
  Te  Te185  1  0.66829133  0.50381859  0.66076536  1
  Te  Te186  1  0.66632107  0.83446187  0.00016760  1
  Te  Te187  1  0.66012571  0.83980404  0.33289692  1
  Te  Te188  1  0.67043334  0.83822368  0.66670496  1
  Te  Te189  1  -0.00252236  -0.00105033  0.16499112  1
  Te  Te190  1  -0.00078432  0.00212847  0.49803755  1
  Te  Te191  1  -0.00332803  0.00011287  0.83607714  1
  Te  Te192  1  -0.00623555  0.33687638  0.16751972  1
  Te  Te193  1  0.00035072  0.32728042  0.49987031  1
  Te  Te194  1  -0.00000716  0.33831380  0.82896981  1
  Te  Te195  1  -0.00023455  0.66551370  0.16674721  1
  Te  Te196  1  0.00056401  0.67186449  0.50746113  1
  Te  Te197  1  -0.00048558  0.65999716  0.82799638  1
  Te  Te198  1  0.33037661  0.00034398  0.16347216  1
  Te  Te199  1  0.33626502  0.00194227  0.50569213  1
  Te  Te200  1  0.33841756  0.00421404  0.82869690  1
  Te  Te201  1  0.33542281  0.33356790  0.16393347  1
  Te  Te202  1  0.33364826  0.32424388  0.49880809  1
  Te  Te203  1  0.33970699  0.32739467  0.83377806  1
  Te  Te204  1  0.33146837  0.66769237  0.16041225  1
  Te  Te205  1  0.33902263  0.66883148  0.50026359  1
  Te  Te206  1  0.33621813  0.66661272  0.83672813  1
  Te  Te207  1  0.67009413  0.00314206  0.17025278  1
  Te  Te208  1  0.66824037  0.00271281  0.49740138  1
  Te  Te209  1  0.66883798  0.00223110  0.83387860  1
  Te  Te210  1  0.67460963  0.32778525  0.16518015  1
  Te  Te211  1  0.66743142  0.33453307  0.50752211  1
  Te  Te212  1  0.66417706  0.33010954  0.82727808  1
  Te  Te213  1  0.66965238  0.66446666  0.16247621  1
  Te  Te214  1  0.66269093  0.66588543  0.49987895  1
  Te  Te215  1  0.66343341  0.66530331  0.83660064  1
