# generated using pymatgen
data_AgSbTe2
_symmetry_space_group_name_H-M   'P 1'
_cell_length_a   18.33261712
_cell_length_b   18.33347882
_cell_length_c   18.33356515
_cell_angle_alpha   90.00371505
_cell_angle_beta   90.00381270
_cell_angle_gamma   89.99872627
_symmetry_Int_Tables_number   1
_chemical_formula_structural   AgSbTe2
_chemical_formula_sum   'Ag54 Sb54 Te108'
_cell_volume   6161.92309446
_cell_formula_units_Z   54
loop_
 _symmetry_equiv_pos_site_id
 _symmetry_equiv_pos_as_xyz
  1  'x, y, z'
loop_
 _atom_site_type_symbol
 _atom_site_label
 _atom_site_symmetry_multiplicity
 _atom_site_fract_x
 _atom_site_fract_y
 _atom_site_fract_z
 _atom_site_occupancy
  Ag  Ag0  1  0.83573688  -0.00616910  0.16958511  1
  Ag  Ag1  1  0.32849015  0.83030568  0.49959192  1
  Ag  Ag2  1  0.83937320  0.33662947  0.49348781  1
  Ag  Ag3  1  0.15666706  0.83270890  0.33120559  1
  Ag  Ag4  1  0.15663339  0.33268333  0.50934411  1
  Ag  Ag5  1  -0.00312146  0.50167613  0.50284276  1
  Ag  Ag6  1  0.33980890  -0.00514745  0.00178150  1
  Ag  Ag7  1  0.15407918  0.50322940  -0.00120952  1
  Ag  Ag8  1  -0.00276258  0.67034287  0.32369797  1
  Ag  Ag9  1  0.83441157  0.50916445  0.32342512  1
  Ag  Ag10  1  0.66911583  0.17306071  0.84256389  1
  Ag  Ag11  1  0.83977290  0.82853684  0.33006373  1
  Ag  Ag12  1  0.51485943  0.50699926  -0.00033502  1
  Ag  Ag13  1  0.50067831  0.83253171  0.32907627  1
  Ag  Ag14  1  -0.00626926  0.66275239  0.00643191  1
  Ag  Ag15  1  0.66978386  0.00287079  0.32460668  1
  Ag  Ag16  1  0.83059451  0.34253889  0.16882191  1
  Ag  Ag17  1  0.50804671  0.67018281  0.16407891  1
  Ag  Ag18  1  0.49741364  0.16601198  0.66770141  1
  Ag  Ag19  1  0.50579224  0.82803215  0.00536943  1
  Ag  Ag20  1  0.16018211  0.33624279  0.82988994  1
  Ag  Ag21  1  0.67262173  0.49785117  0.15921217  1
  Ag  Ag22  1  0.83025924  0.82672759  0.01193753  1
  Ag  Ag23  1  0.67286690  0.49352754  0.84525675  1
  Ag  Ag24  1  0.67043348  0.32785866  0.32110652  1
  Ag  Ag25  1  -0.00103356  0.49545708  0.84102441  1
  Ag  Ag26  1  0.49724944  0.83441503  0.66785013  1
  Ag  Ag27  1  -0.00311599  0.82789945  0.48991045  1
  Ag  Ag28  1  0.83562538  -0.01034530  0.49030198  1
  Ag  Ag29  1  0.83563187  0.66873950  0.16736806  1
  Ag  Ag30  1  0.15363600  0.66969321  0.16450530  1
  Ag  Ag31  1  0.66797899  -0.00066675  0.00581697  1
  Ag  Ag32  1  -0.00703747  0.34455260  -0.00468369  1
  Ag  Ag33  1  -0.00065491  0.17683876  0.83477079  1
  Ag  Ag34  1  -0.00706964  0.16190655  0.16488113  1
  Ag  Ag35  1  0.50342812  0.33321809  0.83402480  1
  Ag  Ag36  1  0.67402354  0.17016740  0.16366451  1
  Ag  Ag37  1  0.32083386  0.33425729  0.66821705  1
  Ag  Ag38  1  0.16401220  0.17245181  0.66522676  1
  Ag  Ag39  1  0.00285810  0.32930692  0.67572059  1
  Ag  Ag40  1  0.67618385  0.65636861  0.00283950  1
  Ag  Ag41  1  0.33271117  0.67147109  0.66384063  1
  Ag  Ag42  1  0.32377743  0.67109188  0.33423391  1
  Ag  Ag43  1  0.15626637  -0.00706342  0.16801255  1
  Ag  Ag44  1  -0.00143862  0.00277939  0.66625781  1
  Ag  Ag45  1  0.83799326  0.83387175  0.65854573  1
  Ag  Ag46  1  -0.00225319  0.82962150  0.17119892  1
  Ag  Ag47  1  0.50364708  0.16324125  0.33264059  1
  Ag  Ag48  1  0.83066949  0.50527927  0.00553751  1
  Ag  Ag49  1  0.16650995  0.16358674  0.33144543  1
  Ag  Ag50  1  0.83779740  0.67222299  0.48776584  1
  Ag  Ag51  1  0.33373777  0.83037427  0.83180675  1
  Ag  Ag52  1  0.67511388  0.34451373  0.00314874  1
  Ag  Ag53  1  0.16626545  0.66060786  0.84131979  1
  Sb  Sb54  1  -0.00003434  0.16783230  0.49802956  1
  Sb  Sb55  1  -0.00554911  -0.00468004  0.33331374  1
  Sb  Sb56  1  0.15782290  0.50354577  0.32843195  1
  Sb  Sb57  1  0.16337916  0.17010195  0.00119792  1
  Sb  Sb58  1  0.50903628  0.50228961  0.32677111  1
  Sb  Sb59  1  0.33327510  0.33130457  -0.00492147  1
  Sb  Sb60  1  0.67165597  0.33142258  0.67130441  1
  Sb  Sb61  1  0.32965836  -0.00193319  0.66919837  1
  Sb  Sb62  1  0.67281392  0.66889768  0.32453957  1
  Sb  Sb63  1  0.32928454  0.50277836  0.83474052  1
  Sb  Sb64  1  0.33348556  0.16439400  0.16758618  1
  Sb  Sb65  1  0.50005921  0.49939626  0.67423728  1
  Sb  Sb66  1  0.67175507  0.00042048  0.66820789  1
  Sb  Sb67  1  0.83572147  0.50294754  0.66776801  1
  Sb  Sb68  1  0.50145609  0.33310977  0.50485203  1
  Sb  Sb69  1  0.33729861  0.50296869  0.16600878  1
  Sb  Sb70  1  0.66824850  0.16715530  0.49689335  1
  Sb  Sb71  1  0.33513015  -0.00762463  0.33009280  1
  Sb  Sb72  1  0.49610799  0.66449448  0.83965960  1
  Sb  Sb73  1  0.16028773  0.00152885  0.49490350  1
  Sb  Sb74  1  0.32916669  0.83163508  0.16828551  1
  Sb  Sb75  1  0.67366364  0.83242624  0.49660096  1
  Sb  Sb76  1  -0.00790582  0.50368737  0.16225290  1
  Sb  Sb77  1  0.83247804  0.16967655  0.00374696  1
  Sb  Sb78  1  0.83604875  0.33488560  0.83670335  1
  Sb  Sb79  1  0.83849282  0.66623699  0.83976146  1
  Sb  Sb80  1  0.33216385  0.67039011  0.00207169  1
  Sb  Sb81  1  0.66368310  0.83272579  0.83840331  1
  Sb  Sb82  1  0.16481435  0.82873059  0.00505716  1
  Sb  Sb83  1  0.33556790  0.33740465  0.33866194  1
  Sb  Sb84  1  0.83349903  -0.00157709  0.83890361  1
  Sb  Sb85  1  0.33120907  0.16185613  0.50084964  1
  Sb  Sb86  1  0.16530665  0.83594763  0.66222991  1
  Sb  Sb87  1  0.67533326  0.83335862  0.16559846  1
  Sb  Sb88  1  0.50641174  -0.00526369  0.16607679  1
  Sb  Sb89  1  0.16484682  0.00105652  0.83809641  1
  Sb  Sb90  1  0.15542783  0.33585037  0.16434496  1
  Sb  Sb91  1  0.16363434  0.49540316  0.67229544  1
  Sb  Sb92  1  0.50361261  0.66937181  0.49479016  1
  Sb  Sb93  1  -0.00425143  -0.00180298  0.00171508  1
  Sb  Sb94  1  0.50062980  0.00286125  0.83415155  1
  Sb  Sb95  1  -0.00667812  0.33736118  0.33059527  1
  Sb  Sb96  1  0.50919641  0.33598822  0.16145614  1
  Sb  Sb97  1  0.83675721  0.16462998  0.66664625  1
  Sb  Sb98  1  0.50489697  0.16694719  0.00076572  1
  Sb  Sb99  1  0.83365888  0.16470080  0.32981121  1
  Sb  Sb100  1  0.00234208  0.66710584  0.66797162  1
  Sb  Sb101  1  0.32527409  0.50443297  0.50076023  1
  Sb  Sb102  1  0.33223868  0.16565041  0.83209776  1
  Sb  Sb103  1  0.50557388  -0.00317444  0.49843148  1
  Sb  Sb104  1  0.66491340  0.66858007  0.67419827  1
  Sb  Sb105  1  0.00270378  0.83105810  0.83568608  1
  Sb  Sb106  1  0.67628893  0.49921905  0.49501032  1
  Sb  Sb107  1  0.15994992  0.66440061  0.49777747  1
  Te  Te108  1  0.16476935  0.16755117  0.17015998  1
  Te  Te109  1  0.16716928  0.17044435  0.49884717  1
  Te  Te110  1  0.16286323  0.16934676  0.83073019  1
  Te  Te111  1  0.16881585  0.50447684  0.16095205  1
  Te  Te112  1  0.15881265  0.49401190  0.49725484  1
  Te  Te113  1  0.16298089  0.49967170  0.83767130  1
  Te  Te114  1  0.16218974  0.83129890  0.17060842  1
  Te  Te115  1  0.16296937  0.83326081  0.49414515  1
  Te  Te116  1  0.17127473  0.83194187  0.83264251  1
  Te  Te117  1  0.50384465  0.16634702  0.17179497  1
  Te  Te118  1  0.49958483  0.16525370  0.50020318  1
  Te  Te119  1  0.50080050  0.17122785  0.83116937  1
  Te  Te120  1  0.50714943  0.50485496  0.16046872  1
  Te  Te121  1  0.50085503  0.50075796  0.49956037  1
  Te  Te122  1  0.50121349  0.49567206  0.83905237  1
  Te  Te123  1  0.49787901  0.83050113  0.16559257  1
  Te  Te124  1  0.49723915  0.83273197  0.50027600  1
  Te  Te125  1  0.49620936  0.83288354  0.83178117  1
  Te  Te126  1  0.83328505  0.16091758  0.16662431  1
  Te  Te127  1  0.83394641  0.17005244  0.49961358  1
  Te  Te128  1  0.83450451  0.16629931  0.83334550  1
  Te  Te129  1  0.83170687  0.50056036  0.16588662  1
  Te  Te130  1  0.83836819  0.49814932  0.50090925  1
  Te  Te131  1  0.83577277  0.50108595  0.83733101  1
  Te  Te132  1  0.83668317  0.83170012  0.16911170  1
  Te  Te133  1  0.83594813  0.83257068  0.49773112  1
  Te  Te134  1  0.83246791  0.83304592  0.82663088  1
  Te  Te135  1  0.16502568  0.00002598  0.00652612  1
  Te  Te136  1  0.16799539  -0.00050726  0.32862568  1
  Te  Te137  1  0.16188151  0.00702137  0.66563896  1
  Te  Te138  1  0.16524157  0.33820033  -0.00466654  1
  Te  Te139  1  0.16894744  0.33263166  0.33323614  1
  Te  Te140  1  0.16388975  0.33229330  0.66787411  1
  Te  Te141  1  0.16612973  0.66449758  0.00154218  1
  Te  Te142  1  0.16340914  0.66870376  0.33081762  1
  Te  Te143  1  0.17147400  0.66697862  0.66798640  1
  Te  Te144  1  0.50231684  -0.00538369  0.00092044  1
  Te  Te145  1  0.50442523  0.00014383  0.33281754  1
  Te  Te146  1  0.49925492  -0.00078801  0.66589674  1
  Te  Te147  1  0.50126781  0.33510555  -0.00529471  1
  Te  Te148  1  0.50479987  0.33172982  0.33458349  1
  Te  Te149  1  0.50220303  0.33065427  0.67225203  1
  Te  Te150  1  0.49816322  0.66838416  0.00380556  1
  Te  Te151  1  0.50385460  0.66969181  0.32780560  1
  Te  Te152  1  0.49624436  0.67124202  0.66637812  1
  Te  Te153  1  0.83018567  -0.00775651  0.00543422  1
  Te  Te154  1  0.82998307  -0.00189464  0.33185905  1
  Te  Te155  1  0.83709119  -0.00320486  0.66595044  1
  Te  Te156  1  0.83375466  0.33497432  0.00321152  1
  Te  Te157  1  0.82994636  0.33126932  0.33094862  1
  Te  Te158  1  0.83964264  0.33298936  0.65970996  1
  Te  Te159  1  0.83429261  0.66739783  0.00106428  1
  Te  Te160  1  0.83431963  0.66835013  0.32990347  1
  Te  Te161  1  0.83342736  0.67256340  0.66520816  1
  Te  Te162  1  -0.00048396  0.16761885  -0.00076618  1
  Te  Te163  1  0.00586546  0.16689315  0.32857646  1
  Te  Te164  1  0.00192792  0.16851857  0.66631982  1
  Te  Te165  1  -0.00306853  0.50177563  0.00060135  1
  Te  Te166  1  -0.00614197  0.50613461  0.33821539  1
  Te  Te167  1  -0.00026434  0.49530672  0.66650799  1
  Te  Te168  1  -0.00466583  0.82903911  0.00176712  1
  Te  Te169  1  -0.00087000  0.83168093  0.33195055  1
  Te  Te170  1  -0.00200520  0.83563443  0.66763734  1
  Te  Te171  1  0.33512211  0.15809077  -0.00034603  1
  Te  Te172  1  0.33488905  0.16737522  0.33450990  1
  Te  Te173  1  0.33400873  0.16887346  0.66663683  1
  Te  Te174  1  0.33473769  0.49927001  0.00012452  1
  Te  Te175  1  0.33544497  0.50834968  0.33468032  1
  Te  Te176  1  0.33353479  0.50093492  0.66604366  1
  Te  Te177  1  0.33428904  0.83532165  -0.00242521  1
  Te  Te178  1  0.33884827  0.82968490  0.33555655  1
  Te  Te179  1  0.33327767  0.83324495  0.66506125  1
  Te  Te180  1  0.66677653  0.16228035  0.00145934  1
  Te  Te181  1  0.66551470  0.16661882  0.33110181  1
  Te  Te182  1  0.66068960  0.16568664  0.67061603  1
  Te  Te183  1  0.67010538  0.50015624  0.00075199  1
  Te  Te184  1  0.67444745  0.49490453  0.32815119  1
  Te  Te185  1  0.66669189  0.50075076  0.67522294  1
  Te  Te186  1  0.66667906  0.83725782  -0.00052172  1
  Te  Te187  1  0.66064599  0.83744651  0.33324187  1
  Te  Te188  1  0.66174648  0.83436614  0.66855166  1
  Te  Te189  1  -0.00205126  0.00093922  0.16624107  1
  Te  Te190  1  -0.00490080  -0.00349013  0.50369966  1
  Te  Te191  1  0.00067246  0.00357514  0.82902229  1
  Te  Te192  1  -0.00730714  0.32778246  0.16212646  1
  Te  Te193  1  -0.00047680  0.33386135  0.49634214  1
  Te  Te194  1  -0.00014524  0.33411365  0.83527582  1
  Te  Te195  1  -0.00250792  0.66681660  0.16582422  1
  Te  Te196  1  -0.00353710  0.66737009  0.50250974  1
  Te  Te197  1  0.00627037  0.66233437  0.83570897  1
  Te  Te198  1  0.32781285  -0.00043947  0.16220387  1
  Te  Te199  1  0.33265533  -0.01004088  0.50027146  1
  Te  Te200  1  0.33231416  -0.00614129  0.83850791  1
  Te  Te201  1  0.33347866  0.33327193  0.16709663  1
  Te  Te202  1  0.33184361  0.33465988  0.50750609  1
  Te  Te203  1  0.33034612  0.33342183  0.82844629  1
  Te  Te204  1  0.33433918  0.66659726  0.17314630  1
  Te  Te205  1  0.33346414  0.67057078  0.49896857  1
  Te  Te206  1  0.32848205  0.66997328  0.82999932  1
  Te  Te207  1  0.66999252  0.00260630  0.16658869  1
  Te  Te208  1  0.67584570  0.00024731  0.49701451  1
  Te  Te209  1  0.66685293  0.00740795  0.83826836  1
  Te  Te210  1  0.66994108  0.33111262  0.16272161  1
  Te  Te211  1  0.67133414  0.33447510  0.49895784  1
  Te  Te212  1  0.66789776  0.33280534  0.83667959  1
  Te  Te213  1  0.66890948  0.66571932  0.16157992  1
  Te  Te214  1  0.67622131  0.66439114  0.50275741  1
  Te  Te215  1  0.66538123  0.66179530  0.84183148  1
