# generated using pymatgen
data_AgSbTe2
_symmetry_space_group_name_H-M   'P 1'
_cell_length_a   18.35512492
_cell_length_b   18.35504481
_cell_length_c   18.32930837
_cell_angle_alpha   89.99973587
_cell_angle_beta   90.00180490
_cell_angle_gamma   90.00158681
_symmetry_Int_Tables_number   1
_chemical_formula_structural   AgSbTe2
_chemical_formula_sum   'Ag54 Sb54 Te108'
_cell_volume   6175.31152116
_cell_formula_units_Z   54
loop_
 _symmetry_equiv_pos_site_id
 _symmetry_equiv_pos_as_xyz
  1  'x, y, z'
loop_
 _atom_site_type_symbol
 _atom_site_label
 _atom_site_symmetry_multiplicity
 _atom_site_fract_x
 _atom_site_fract_y
 _atom_site_fract_z
 _atom_site_occupancy
  Ag  Ag0  1  0.83974369  0.67280538  0.16628182  1
  Ag  Ag1  1  0.66564143  0.50082422  0.82558165  1
  Ag  Ag2  1  0.33404939  0.33128267  0.66005208  1
  Ag  Ag3  1  0.84265216  -0.00733733  0.16985928  1
  Ag  Ag4  1  0.00065233  0.00560580  0.66104599  1
  Ag  Ag5  1  0.50810156  -0.00272370  0.82703657  1
  Ag  Ag6  1  0.16411921  0.84375887  0.66722873  1
  Ag  Ag7  1  0.32405938  -0.00214722  0.66255608  1
  Ag  Ag8  1  0.65868291  0.00020232  0.33158357  1
  Ag  Ag9  1  0.67264432  0.83498746  0.82933913  1
  Ag  Ag10  1  0.66188558  0.33258488  0.33928809  1
  Ag  Ag11  1  0.33894647  0.83431493  0.82583748  1
  Ag  Ag12  1  0.49906796  -0.00286485  0.17991447  1
  Ag  Ag13  1  0.00635063  0.32343049  0.33782354  1
  Ag  Ag14  1  0.66993795  0.15878760  0.82807180  1
  Ag  Ag15  1  0.32517146  0.50787013  0.17346362  1
  Ag  Ag16  1  0.15646373  -0.00683076  0.17798327  1
  Ag  Ag17  1  0.33267153  0.33448734  0.34026961  1
  Ag  Ag18  1  0.15694024  0.16432310  0.66395515  1
  Ag  Ag19  1  0.16729771  0.33174980  0.50184598  1
  Ag  Ag20  1  0.84456170  0.15919720  0.66902299  1
  Ag  Ag21  1  0.83559837  0.83404702  -0.01421532  1
  Ag  Ag22  1  0.83584361  0.49807536  0.66987512  1
  Ag  Ag23  1  -0.00637885  0.16030744  0.81857695  1
  Ag  Ag24  1  0.33337535  -0.00351219  0.33367243  1
  Ag  Ag25  1  0.66179673  0.33458838  0.66654349  1
  Ag  Ag26  1  0.00331694  0.31946219  0.66295164  1
  Ag  Ag27  1  0.84140832  0.84241226  0.67445840  1
  Ag  Ag28  1  0.16670788  0.66559244  0.49599212  1
  Ag  Ag29  1  0.83202729  -0.00845859  0.82426646  1
  Ag  Ag30  1  0.49787720  0.83840824  0.33453825  1
  Ag  Ag31  1  0.50956287  0.68036045  0.82688555  1
  Ag  Ag32  1  0.00053079  0.49966772  0.17082150  1
  Ag  Ag33  1  0.84211120  0.00083145  0.50720837  1
  Ag  Ag34  1  0.50045720  0.48616881  0.67026975  1
  Ag  Ag35  1  0.50346891  0.33299848  0.82308960  1
  Ag  Ag36  1  0.33331253  0.67109792  0.32984959  1
  Ag  Ag37  1  0.00210737  0.00385394  0.33444241  1
  Ag  Ag38  1  -0.00076727  0.15678737  0.17003774  1
  Ag  Ag39  1  0.49749209  0.83585094  0.67269116  1
  Ag  Ag40  1  0.00144901  0.16412203  0.50463279  1
  Ag  Ag41  1  0.00083366  0.84025855  0.16556430  1
  Ag  Ag42  1  0.32742342  0.83431629  0.16959730  1
  Ag  Ag43  1  0.49381332  0.33259570  0.50309094  1
  Ag  Ag44  1  0.16572055  0.49463893  0.65913165  1
  Ag  Ag45  1  0.66858564  0.50111875  0.17024429  1
  Ag  Ag46  1  -0.01353694  0.84109381  0.83064118  1
  Ag  Ag47  1  0.16189414  0.00172296  0.49989090  1
  Ag  Ag48  1  0.82844801  0.67864312  0.83171946  1
  Ag  Ag49  1  0.50156911  0.15815498  0.33347328  1
  Ag  Ag50  1  0.66172191  0.66932678  0.32993885  1
  Ag  Ag51  1  0.16297275  0.67115012  0.17412481  1
  Ag  Ag52  1  0.00070230  0.33240455  -0.00500673  1
  Ag  Ag53  1  0.16886063  0.50021977  0.33601314  1
  Sb  Sb54  1  0.50135455  0.16562296  0.00131769  1
  Sb  Sb55  1  0.16168661  0.83416680  -0.00056515  1
  Sb  Sb56  1  0.66892901  0.83243051  0.16541574  1
  Sb  Sb57  1  0.50092429  0.49910039  -0.00441401  1
  Sb  Sb58  1  0.16369267  0.33412994  0.17631155  1
  Sb  Sb59  1  0.49817673  0.00478085  0.50067464  1
  Sb  Sb60  1  0.32793270  0.16125536  0.17298715  1
  Sb  Sb61  1  0.16469240  0.66920351  0.82923105  1
  Sb  Sb62  1  0.67225633  0.33434447  -0.00433231  1
  Sb  Sb63  1  0.16561474  0.16664048  0.33911950  1
  Sb  Sb64  1  0.66791563  0.66747484  -0.00005729  1
  Sb  Sb65  1  0.00278054  0.49292062  0.49777755  1
  Sb  Sb66  1  0.32766393  0.16776900  0.49985211  1
  Sb  Sb67  1  0.00026063  0.67090018  0.66657590  1
  Sb  Sb68  1  0.49994136  0.67008289  0.16614680  1
  Sb  Sb69  1  0.66945258  0.00288629  0.66568614  1
  Sb  Sb70  1  0.33848197  0.50353693  0.83118805  1
  Sb  Sb71  1  -0.00108136  0.00165888  -0.00077212  1
  Sb  Sb72  1  0.83427771  0.50461853  -0.00205645  1
  Sb  Sb73  1  0.33089105  0.49782226  0.49620981  1
  Sb  Sb74  1  0.83075941  0.83688274  0.33434214  1
  Sb  Sb75  1  0.49648258  0.49999046  0.33629785  1
  Sb  Sb76  1  0.33329999  0.66883288  0.00466001  1
  Sb  Sb77  1  -0.00450159  0.49833393  0.83134081  1
  Sb  Sb78  1  0.66925542  -0.00146950  0.00060919  1
  Sb  Sb79  1  0.33227656  0.83562567  0.49919723  1
  Sb  Sb80  1  0.17065584  0.83358794  0.33515482  1
  Sb  Sb81  1  0.83691534  0.33321318  0.16810249  1
  Sb  Sb82  1  0.82981987  0.33034304  0.82792710  1
  Sb  Sb83  1  0.66724488  0.49841891  0.50110544  1
  Sb  Sb84  1  0.83723259  0.67220031  0.50091355  1
  Sb  Sb85  1  0.66612368  0.66322227  0.66609524  1
  Sb  Sb86  1  0.49968123  0.33093242  0.17207637  1
  Sb  Sb87  1  0.16287329  -0.00203991  0.82740092  1
  Sb  Sb88  1  0.16406615  0.49964047  0.00497915  1
  Sb  Sb89  1  0.67136202  0.16680520  0.16665126  1
  Sb  Sb90  1  0.33233970  0.66863773  0.66192622  1
  Sb  Sb91  1  0.16135708  0.16534732  -0.00490810  1
  Sb  Sb92  1  0.83639339  0.32823000  0.50377465  1
  Sb  Sb93  1  0.66621779  0.83545185  0.50432317  1
  Sb  Sb94  1  0.49592275  0.66377440  0.50193064  1
  Sb  Sb95  1  0.83382860  0.16334988  0.33727297  1
  Sb  Sb96  1  0.32884389  0.33562535  -0.00096708  1
  Sb  Sb97  1  0.50046489  0.16731350  0.66278608  1
  Sb  Sb98  1  0.33334636  -0.00191596  0.00126444  1
  Sb  Sb99  1  0.50414449  0.83466104  -0.00313446  1
  Sb  Sb100  1  0.33437858  0.16184748  0.82793291  1
  Sb  Sb101  1  0.00320921  0.66992840  0.33001808  1
  Sb  Sb102  1  -0.00187554  0.66568598  0.00207224  1
  Sb  Sb103  1  0.67147386  0.16602761  0.50364275  1
  Sb  Sb104  1  0.00210215  0.84215520  0.50165307  1
  Sb  Sb105  1  0.16869685  0.33311130  0.82103852  1
  Sb  Sb106  1  0.83655932  0.16023214  -0.00614243  1
  Sb  Sb107  1  0.83556760  0.50013452  0.33472792  1
  Te  Te108  1  0.16098670  0.16306052  0.16606535  1
  Te  Te109  1  0.16175086  0.16558236  0.50380769  1
  Te  Te110  1  0.15934968  0.16579828  0.82737972  1
  Te  Te111  1  0.16584049  0.50118254  0.17122182  1
  Te  Te112  1  0.16600818  0.49879392  0.49826467  1
  Te  Te113  1  0.16751460  0.50246773  0.83060527  1
  Te  Te114  1  0.16554291  0.83300915  0.16676621  1
  Te  Te115  1  0.16629006  0.83516447  0.50706982  1
  Te  Te116  1  0.17449194  0.83113913  0.82951071  1
  Te  Te117  1  0.50116053  0.16179164  0.17085861  1
  Te  Te118  1  0.50307678  0.17246899  0.49350413  1
  Te  Te119  1  0.50246971  0.16093184  0.83367221  1
  Te  Te120  1  0.50431451  0.50034176  0.16526838  1
  Te  Te121  1  0.49963391  0.49508768  0.50871098  1
  Te  Te122  1  0.50291432  0.49564020  0.82970161  1
  Te  Te123  1  0.50038615  0.83564219  0.16765019  1
  Te  Te124  1  0.49988377  0.83282040  0.50055879  1
  Te  Te125  1  0.49887453  0.83700802  0.83386746  1
  Te  Te126  1  0.83783146  0.16157673  0.16474713  1
  Te  Te127  1  0.83908972  0.16133973  0.50574140  1
  Te  Te128  1  0.83410698  0.16423865  0.82929236  1
  Te  Te129  1  0.83398908  0.50415529  0.16665499  1
  Te  Te130  1  0.83519366  0.50354871  0.50807463  1
  Te  Te131  1  0.82924327  0.50255819  0.83062361  1
  Te  Te132  1  0.83403476  0.83273327  0.17047418  1
  Te  Te133  1  0.83405826  0.83845432  0.51048901  1
  Te  Te134  1  0.83155799  0.83435408  0.82988383  1
  Te  Te135  1  0.16788837  -0.00013481  0.01555035  1
  Te  Te136  1  0.16688956  0.00039936  0.33658920  1
  Te  Te137  1  0.16523150  0.00067605  0.66637593  1
  Te  Te138  1  0.15989280  0.33314542  -0.00152098  1
  Te  Te139  1  0.16859131  0.33355290  0.34020931  1
  Te  Te140  1  0.16715679  0.33480812  0.66201650  1
  Te  Te141  1  0.16566821  0.66675389  0.01218955  1
  Te  Te142  1  0.16912016  0.66586405  0.33331858  1
  Te  Te143  1  0.16755043  0.65852762  0.66156775  1
  Te  Te144  1  0.50113022  0.00074926  -0.00446851  1
  Te  Te145  1  0.49777616  -0.00171451  0.33857322  1
  Te  Te146  1  0.49979005  -0.00114121  0.66681069  1
  Te  Te147  1  0.49935517  0.33177235  -0.00636463  1
  Te  Te148  1  0.49890208  0.33528564  0.33637827  1
  Te  Te149  1  0.49861959  0.32933046  0.66515435  1
  Te  Te150  1  0.50020214  0.66659813  -0.01365945  1
  Te  Te151  1  0.49859402  0.66960801  0.33436232  1
  Te  Te152  1  0.49897258  0.67332951  0.66840906  1
  Te  Te153  1  0.83299102  -0.00597480  0.00707408  1
  Te  Te154  1  0.84035666  0.00066764  0.32947595  1
  Te  Te155  1  0.83140485  0.00043694  0.66759145  1
  Te  Te156  1  0.84116781  0.33309211  -0.00057030  1
  Te  Te157  1  0.82913457  0.33258628  0.33582778  1
  Te  Te158  1  0.83426252  0.33826734  0.66565238  1
  Te  Te159  1  0.83340959  0.67252559  0.00244611  1
  Te  Te160  1  0.82873397  0.66790589  0.33143810  1
  Te  Te161  1  0.83263064  0.66449943  0.66864724  1
  Te  Te162  1  -0.00024276  0.17451880  0.00965153  1
  Te  Te163  1  -0.00039168  0.16465847  0.33130284  1
  Te  Te164  1  -0.00005937  0.16470653  0.66390823  1
  Te  Te165  1  -0.00039707  0.49170597  0.00484928  1
  Te  Te166  1  0.00369576  0.49996315  0.33069902  1
  Te  Te167  1  0.00142663  0.50067720  0.66652098  1
  Te  Te168  1  -0.00402134  0.83274351  -0.00034947  1
  Te  Te169  1  -0.00006976  0.83957134  0.32745089  1
  Te  Te170  1  0.00182119  0.83667464  0.66947356  1
  Te  Te171  1  0.33172195  0.16830640  -0.00027172  1
  Te  Te172  1  0.33892115  0.16839442  0.33342743  1
  Te  Te173  1  0.33016386  0.16587066  0.66668926  1
  Te  Te174  1  0.33262438  0.50048388  0.01209469  1
  Te  Te175  1  0.33085873  0.49613345  0.33026063  1
  Te  Te176  1  0.33384550  0.49760862  0.66812221  1
  Te  Te177  1  0.33277926  0.83374645  0.00676774  1
  Te  Te178  1  0.33582085  0.83621483  0.33048240  1
  Te  Te179  1  0.33394371  0.83443113  0.66627274  1
  Te  Te180  1  0.66847237  0.16811973  -0.01157260  1
  Te  Te181  1  0.66434409  0.16802327  0.33230967  1
  Te  Te182  1  0.66766457  0.17252288  0.67059614  1
  Te  Te183  1  0.66726826  0.49940936  0.00664998  1
  Te  Te184  1  0.66725903  0.49614996  0.33179075  1
  Te  Te185  1  0.66279393  0.49707885  0.66737311  1
  Te  Te186  1  0.67386420  0.83324924  -0.00896212  1
  Te  Te187  1  0.66133742  0.83551436  0.33357384  1
  Te  Te188  1  0.66149939  0.83299408  0.67067297  1
  Te  Te189  1  -0.00004358  -0.00254029  0.16311484  1
  Te  Te190  1  0.00144927  0.00228311  0.50076970  1
  Te  Te191  1  -0.00243798  -0.00011604  0.83353211  1
  Te  Te192  1  -0.00053251  0.33934881  0.17963295  1
  Te  Te193  1  0.00235140  0.32807824  0.49937234  1
  Te  Te194  1  0.00055492  0.33077793  0.82580991  1
  Te  Te195  1  -0.00033940  0.66493566  0.16688974  1
  Te  Te196  1  0.00672470  0.66801232  0.49764205  1
  Te  Te197  1  -0.00515205  0.67148130  0.83494151  1
  Te  Te198  1  0.33936877  -0.00300513  0.16962060  1
  Te  Te199  1  0.32925155  0.00148017  0.50099560  1
  Te  Te200  1  0.33174702  -0.00465442  0.83069733  1
  Te  Te201  1  0.33259211  0.33473696  0.16895267  1
  Te  Te202  1  0.33235161  0.33267387  0.50071584  1
  Te  Te203  1  0.33998969  0.33380676  0.83112954  1
  Te  Te204  1  0.33357248  0.66850754  0.17093323  1
  Te  Te205  1  0.32788186  0.66679955  0.49021969  1
  Te  Te206  1  0.33422231  0.67209434  0.83461036  1
  Te  Te207  1  0.66092776  0.00093075  0.17070364  1
  Te  Te208  1  0.67048908  0.00108171  0.49106011  1
  Te  Te209  1  0.66927471  -0.00105002  0.83241159  1
  Te  Te210  1  0.66832824  0.33615176  0.16823068  1
  Te  Te211  1  0.66595750  0.33256061  0.50040324  1
  Te  Te212  1  0.66380453  0.34024957  0.83102782  1
  Te  Te213  1  0.66758038  0.66469937  0.16958659  1
  Te  Te214  1  0.66741794  0.66698309  0.48971364  1
  Te  Te215  1  0.66839620  0.66383712  0.83254584  1
