# generated using pymatgen
data_AgSbTe2
_symmetry_space_group_name_H-M   'P 1'
_cell_length_a   18.32067048
_cell_length_b   18.32543873
_cell_length_c   18.32412680
_cell_angle_alpha   89.99883528
_cell_angle_beta   89.99922652
_cell_angle_gamma   89.99854023
_symmetry_Int_Tables_number   1
_chemical_formula_structural   AgSbTe2
_chemical_formula_sum   'Ag54 Sb54 Te108'
_cell_volume   6152.03832622
_cell_formula_units_Z   54
loop_
 _symmetry_equiv_pos_site_id
 _symmetry_equiv_pos_as_xyz
  1  'x, y, z'
loop_
 _atom_site_type_symbol
 _atom_site_label
 _atom_site_symmetry_multiplicity
 _atom_site_fract_x
 _atom_site_fract_y
 _atom_site_fract_z
 _atom_site_occupancy
  Ag  Ag0  1  0.66306246  0.16713379  0.83874155  1
  Ag  Ag1  1  0.00282248  0.50011723  0.49788475  1
  Ag  Ag2  1  -0.00273152  0.82461027  0.84190767  1
  Ag  Ag3  1  0.49726420  0.66851073  0.83349973  1
  Ag  Ag4  1  0.00537321  0.33290307  0.00499527  1
  Ag  Ag5  1  0.67163241  0.66953905  0.67247182  1
  Ag  Ag6  1  0.83107495  0.82626299  0.67659463  1
  Ag  Ag7  1  0.32812767  0.16535956  0.49838370  1
  Ag  Ag8  1  0.84324639  0.83463323  0.32986902  1
  Ag  Ag9  1  0.68110980  0.50866478  0.83306555  1
  Ag  Ag10  1  0.33278681  -0.00409621  0.66116998  1
  Ag  Ag11  1  0.00057734  -0.00676956  0.00720316  1
  Ag  Ag12  1  0.84208508  -0.00243305  0.16851065  1
  Ag  Ag13  1  0.16422899  0.33540066  0.84200323  1
  Ag  Ag14  1  0.32464724  0.50604355  0.16659225  1
  Ag  Ag15  1  0.33013235  0.67154497  0.33285811  1
  Ag  Ag16  1  0.33097698  0.66337687  0.00154757  1
  Ag  Ag17  1  0.16702301  -0.00629316  0.83602354  1
  Ag  Ag18  1  0.00638116  0.17032710  0.48791828  1
  Ag  Ag19  1  0.33238228  0.16956179  0.83166231  1
  Ag  Ag20  1  0.84115282  0.34744379  0.83493557  1
  Ag  Ag21  1  0.50152780  -0.00019002  0.16896883  1
  Ag  Ag22  1  0.66687147  0.16410957  0.16804313  1
  Ag  Ag23  1  0.84139312  0.66690683  0.51311189  1
  Ag  Ag24  1  0.00051614  0.84030427  0.15985013  1
  Ag  Ag25  1  0.16317334  0.83615731  0.32793477  1
  Ag  Ag26  1  0.32639370  0.50998365  0.49917657  1
  Ag  Ag27  1  0.17017138  0.66504721  0.16585775  1
  Ag  Ag28  1  0.67434867  0.32424208  0.32983770  1
  Ag  Ag29  1  0.00438017  0.49705818  0.16165170  1
  Ag  Ag30  1  0.84402779  0.82867137  -0.00555983  1
  Ag  Ag31  1  0.83785305  0.50730969  -0.00852029  1
  Ag  Ag32  1  0.16565440  0.16092794  0.33204397  1
  Ag  Ag33  1  0.33179458  0.33585693  0.67139745  1
  Ag  Ag34  1  0.16970257  0.66721154  0.49872522  1
  Ag  Ag35  1  0.67686459  0.82386004  0.83191337  1
  Ag  Ag36  1  0.49630135  0.82975756  0.67043222  1
  Ag  Ag37  1  0.33546012  0.66812285  0.66766796  1
  Ag  Ag38  1  0.66636630  0.00341874  0.32773449  1
  Ag  Ag39  1  -0.00037351  0.16153402  0.16956623  1
  Ag  Ag40  1  0.32419170  0.33720609  -0.00275920  1
  Ag  Ag41  1  0.16315552  0.33770375  0.16249542  1
  Ag  Ag42  1  0.49726238  0.16581702  0.00519429  1
  Ag  Ag43  1  0.83260202  0.66255752  0.83043765  1
  Ag  Ag44  1  0.32841838  -0.00102221  0.33482225  1
  Ag  Ag45  1  0.00025702  0.32589770  0.32372017  1
  Ag  Ag46  1  0.33063949  0.82656419  0.50068947  1
  Ag  Ag47  1  0.48888194  0.67135326  0.16205867  1
  Ag  Ag48  1  0.16721102  0.66833344  0.83493552  1
  Ag  Ag49  1  0.16230884  0.83085681  0.00151934  1
  Ag  Ag50  1  0.00423560  0.00313330  0.32620951  1
  Ag  Ag51  1  0.49363396  0.16315152  0.32628243  1
  Ag  Ag52  1  0.83445788  0.50973481  0.67943287  1
  Ag  Ag53  1  -0.00588934  0.50621497  0.84115645  1
  Sb  Sb54  1  0.49545682  0.16096109  0.66844071  1
  Sb  Sb55  1  0.67218919  0.00058668  0.00436775  1
  Sb  Sb56  1  0.66523923  0.83181908  0.50328389  1
  Sb  Sb57  1  0.16851584  -0.00443938  0.49928459  1
  Sb  Sb58  1  0.66915066  0.50236286  0.50371967  1
  Sb  Sb59  1  -0.00163820  0.66598881  0.66926901  1
  Sb  Sb60  1  0.67217378  0.83768743  0.16318278  1
  Sb  Sb61  1  0.49531613  -0.00015779  0.49406544  1
  Sb  Sb62  1  0.16029782  0.50514955  0.00060283  1
  Sb  Sb63  1  0.32826662  -0.00119584  0.00255025  1
  Sb  Sb64  1  0.50064211  0.50714378  0.66977288  1
  Sb  Sb65  1  0.00406979  -0.00171514  0.66740914  1
  Sb  Sb66  1  0.32772172  0.33130484  0.33157097  1
  Sb  Sb67  1  0.49706005  0.49766741  0.33189973  1
  Sb  Sb68  1  0.00477553  0.33537780  0.67058381  1
  Sb  Sb69  1  0.66400192  0.33717344  0.66853770  1
  Sb  Sb70  1  0.83671286  -0.00692563  0.49328156  1
  Sb  Sb71  1  0.49788150  0.83467865  -0.00243686  1
  Sb  Sb72  1  0.32788625  0.50037129  0.83440979  1
  Sb  Sb73  1  0.66902528  0.49662652  0.16257806  1
  Sb  Sb74  1  0.32925809  0.83266525  0.82966135  1
  Sb  Sb75  1  0.00661592  0.66906948  0.33192672  1
  Sb  Sb76  1  0.16357173  0.50163644  0.66719244  1
  Sb  Sb77  1  0.83689008  0.50492184  0.33172406  1
  Sb  Sb78  1  0.84230343  0.33048374  0.16246014  1
  Sb  Sb79  1  0.66350995  0.66992236  0.33585065  1
  Sb  Sb80  1  0.16675738  0.83065406  0.66908005  1
  Sb  Sb81  1  0.49560902  0.83768545  0.33426076  1
  Sb  Sb82  1  0.66651755  0.16660777  0.49409266  1
  Sb  Sb83  1  0.16607999  0.50302972  0.33064556  1
  Sb  Sb84  1  0.83806387  0.67084296  0.16246193  1
  Sb  Sb85  1  0.32573761  0.82695608  0.17122324  1
  Sb  Sb86  1  0.49204790  0.66844187  0.50209900  1
  Sb  Sb87  1  0.00597345  0.66864516  -0.00145752  1
  Sb  Sb88  1  0.83842631  0.16130868  0.33146583  1
  Sb  Sb89  1  0.66946960  0.33126713  0.00180213  1
  Sb  Sb90  1  0.83831966  -0.00600743  0.83831557  1
  Sb  Sb91  1  0.16393340  -0.00281936  0.16641077  1
  Sb  Sb92  1  0.49569027  0.33195338  0.49840016  1
  Sb  Sb93  1  0.83342443  0.16667593  0.66967690  1
  Sb  Sb94  1  0.16656032  0.33666666  0.49674591  1
  Sb  Sb95  1  0.49462590  0.33147975  0.16622850  1
  Sb  Sb96  1  0.66229635  -0.00580592  0.66674156  1
  Sb  Sb97  1  0.16944622  0.16709302  0.66408179  1
  Sb  Sb98  1  0.50064977  0.49850913  -0.00120681  1
  Sb  Sb99  1  0.49610278  -0.00317926  0.83805714  1
  Sb  Sb100  1  0.83325297  0.16589041  0.00066297  1
  Sb  Sb101  1  0.66392266  0.66717147  -0.00687787  1
  Sb  Sb102  1  0.00315738  0.16840615  0.83771553  1
  Sb  Sb103  1  0.16833815  0.16624176  0.00368685  1
  Sb  Sb104  1  0.49745884  0.33615211  0.83504650  1
  Sb  Sb105  1  0.33117902  0.16859411  0.16744051  1
  Sb  Sb106  1  0.83743820  0.33948166  0.50342589  1
  Sb  Sb107  1  0.00302648  0.83081246  0.49849855  1
  Te  Te108  1  0.16296803  0.16933823  0.17058441  1
  Te  Te109  1  0.16689671  0.16676151  0.49512924  1
  Te  Te110  1  0.17060522  0.17082221  0.83341576  1
  Te  Te111  1  0.16577333  0.50148574  0.16586795  1
  Te  Te112  1  0.16619958  0.50450682  0.50026637  1
  Te  Te113  1  0.15955853  0.50128835  0.83345326  1
  Te  Te114  1  0.16117029  0.83096836  0.16717438  1
  Te  Te115  1  0.17019152  0.82866691  0.49624099  1
  Te  Te116  1  0.16293668  0.83045320  0.83471010  1
  Te  Te117  1  0.49983347  0.16589902  0.16693293  1
  Te  Te118  1  0.49533220  0.16597466  0.49477591  1
  Te  Te119  1  0.49734209  0.16613089  0.83568483  1
  Te  Te120  1  0.49882842  0.50579254  0.16541001  1
  Te  Te121  1  0.49234268  0.50019996  0.50078003  1
  Te  Te122  1  0.50558862  0.50784346  0.83404284  1
  Te  Te123  1  0.50252842  0.83239779  0.16578152  1
  Te  Te124  1  0.49363261  0.83381713  0.50634662  1
  Te  Te125  1  0.50262012  0.82936736  0.83146162  1
  Te  Te126  1  0.83250995  0.16139637  0.16583241  1
  Te  Te127  1  0.83777249  0.16782976  0.50171610  1
  Te  Te128  1  0.82995335  0.16505299  0.83356571  1
  Te  Te129  1  0.83820770  0.50108300  0.16197018  1
  Te  Te130  1  0.83737235  0.50687029  0.49995159  1
  Te  Te131  1  0.83661355  0.50267074  0.83472162  1
  Te  Te132  1  0.83833194  0.83637080  0.16742841  1
  Te  Te133  1  0.83389134  0.82594706  0.49764133  1
  Te  Te134  1  0.83604389  0.83341150  0.83534773  1
  Te  Te135  1  0.16187365  -0.00402818  -0.00362327  1
  Te  Te136  1  0.16696004  -0.00119173  0.33311110  1
  Te  Te137  1  0.17257069  -0.00073172  0.67393281  1
  Te  Te138  1  0.16659405  0.33177457  0.00122598  1
  Te  Te139  1  0.16124176  0.32834213  0.32955661  1
  Te  Te140  1  0.17256521  0.33434795  0.67349351  1
  Te  Te141  1  0.17147305  0.67024929  -0.00042689  1
  Te  Te142  1  0.17090657  0.66980372  0.33194177  1
  Te  Te143  1  0.17315422  0.66693129  0.66737015  1
  Te  Te144  1  0.49926254  0.00374554  0.00609802  1
  Te  Te145  1  0.49757442  0.00326448  0.32867154  1
  Te  Te146  1  0.49377129  -0.00764009  0.66739736  1
  Te  Te147  1  0.49437542  0.32727690  0.00035813  1
  Te  Te148  1  0.50286881  0.32603386  0.33164542  1
  Te  Te149  1  0.49246537  0.33310195  0.66651152  1
  Te  Te150  1  0.49336594  0.66670591  -0.00067320  1
  Te  Te151  1  0.49452687  0.66688590  0.32967367  1
  Te  Te152  1  0.49694936  0.67117177  0.66889639  1
  Te  Te153  1  0.84005522  -0.00451116  0.00552587  1
  Te  Te154  1  0.83729873  -0.00527001  0.32946760  1
  Te  Te155  1  0.83245254  -0.00588989  0.66429432  1
  Te  Te156  1  0.83734192  0.33412872  -0.00502837  1
  Te  Te157  1  0.83631652  0.33496783  0.33431924  1
  Te  Te158  1  0.83228606  0.33561413  0.67352244  1
  Te  Te159  1  0.83091116  0.66866380  -0.00438738  1
  Te  Te160  1  0.83136027  0.67377380  0.33153983  1
  Te  Te161  1  0.83463552  0.66805831  0.66940024  1
  Te  Te162  1  0.00044983  0.16949301  0.00590645  1
  Te  Te163  1  0.00068942  0.16511974  0.33056106  1
  Te  Te164  1  0.00046826  0.16690008  0.65747434  1
  Te  Te165  1  -0.00324054  0.49667864  0.00029812  1
  Te  Te166  1  0.00002742  0.49692944  0.33367843  1
  Te  Te167  1  -0.00609671  0.49882058  0.66240002  1
  Te  Te168  1  0.00141648  0.83250963  0.00054295  1
  Te  Te169  1  0.00243061  0.83537531  0.33396451  1
  Te  Te170  1  -0.00640930  0.83513958  0.66970518  1
  Te  Te171  1  0.33533525  0.16734473  -0.00283086  1
  Te  Te172  1  0.33179123  0.16604645  0.33477057  1
  Te  Te173  1  0.33432258  0.16440775  0.66787866  1
  Te  Te174  1  0.33458842  0.50026377  0.00313035  1
  Te  Te175  1  0.33310961  0.50177798  0.33362626  1
  Te  Te176  1  0.33318522  0.50135402  0.66445807  1
  Te  Te177  1  0.32892508  0.82867229  -0.00048682  1
  Te  Te178  1  0.33113205  0.83460442  0.33743572  1
  Te  Te179  1  0.33281423  0.83302984  0.66385405  1
  Te  Te180  1  0.66170078  0.16696857  0.00143160  1
  Te  Te181  1  0.66736679  0.16439438  0.33082282  1
  Te  Te182  1  0.66395368  0.16606033  0.66905034  1
  Te  Te183  1  0.67370996  0.49827465  -0.00575969  1
  Te  Te184  1  0.66619395  0.49526625  0.33315758  1
  Te  Te185  1  0.67141399  0.50409566  0.67135104  1
  Te  Te186  1  0.66951089  0.83471091  -0.00727714  1
  Te  Te187  1  0.66768455  0.83941210  0.33345056  1
  Te  Te188  1  0.66847859  0.83026140  0.67033075  1
  Te  Te189  1  0.00226541  -0.00021033  0.16683623  1
  Te  Te190  1  0.00188690  0.00454620  0.49541484  1
  Te  Te191  1  0.00598037  0.00056299  0.83550214  1
  Te  Te192  1  0.00191867  0.33500933  0.16580502  1
  Te  Te193  1  0.00104003  0.33486247  0.49861624  1
  Te  Te194  1  0.00152388  0.33281589  0.83632111  1
  Te  Te195  1  0.00504652  0.66194171  0.16680576  1
  Te  Te196  1  0.00328157  0.66287615  0.49905415  1
  Te  Te197  1  0.00281980  0.66596439  0.83317282  1
  Te  Te198  1  0.33642270  -0.00048705  0.17107423  1
  Te  Te199  1  0.33176558  0.00442431  0.49914789  1
  Te  Te200  1  0.32929635  0.00325290  0.83401558  1
  Te  Te201  1  0.32734736  0.33912206  0.16335565  1
  Te  Te202  1  0.33122002  0.33022013  0.50361347  1
  Te  Te203  1  0.33128437  0.33342902  0.83512262  1
  Te  Te204  1  0.33133996  0.66614870  0.16761766  1
  Te  Te205  1  0.33124528  0.66662104  0.49947075  1
  Te  Te206  1  0.33157581  0.66566829  0.83202023  1
  Te  Te207  1  0.66419526  0.00396290  0.16972868  1
  Te  Te208  1  0.66729831  0.00066913  0.49186735  1
  Te  Te209  1  0.66570237  0.00646542  0.83305316  1
  Te  Te210  1  0.66689901  0.32830916  0.17033756  1
  Te  Te211  1  0.66738752  0.33375248  0.49326651  1
  Te  Te212  1  0.66734109  0.32813508  0.83294865  1
  Te  Te213  1  0.66153414  0.66517494  0.16779747  1
  Te  Te214  1  0.67103238  0.66576882  0.50582885  1
  Te  Te215  1  0.66864567  0.66760379  0.83145266  1
