# generated using pymatgen
data_AgSbTe2
_symmetry_space_group_name_H-M   'P 1'
_cell_length_a   18.34900849
_cell_length_b   18.35249930
_cell_length_c   18.35467496
_cell_angle_alpha   89.99800032
_cell_angle_beta   89.99772841
_cell_angle_gamma   90.00524647
_symmetry_Int_Tables_number   1
_chemical_formula_structural   AgSbTe2
_chemical_formula_sum   'Ag54 Sb54 Te108'
_cell_volume   6180.93979577
_cell_formula_units_Z   54
loop_
 _symmetry_equiv_pos_site_id
 _symmetry_equiv_pos_as_xyz
  1  'x, y, z'
loop_
 _atom_site_type_symbol
 _atom_site_label
 _atom_site_symmetry_multiplicity
 _atom_site_fract_x
 _atom_site_fract_y
 _atom_site_fract_z
 _atom_site_occupancy
  Ag  Ag0  1  0.66974188  0.66333415  0.00082158  1
  Ag  Ag1  1  0.33386079  0.66731960  0.32117684  1
  Ag  Ag2  1  0.84537810  0.49231489  0.00194887  1
  Ag  Ag3  1  0.66411858  0.49423292  0.16149136  1
  Ag  Ag4  1  0.50213699  0.16721868  0.68040300  1
  Ag  Ag5  1  0.33699565  0.16134362  0.83879401  1
  Ag  Ag6  1  0.66678830  0.16490764  0.83726172  1
  Ag  Ag7  1  0.32895156  0.66747922  0.66809543  1
  Ag  Ag8  1  0.83943163  0.33403020  0.16033069  1
  Ag  Ag9  1  0.49855387  0.49306702  0.00470173  1
  Ag  Ag10  1  0.15747145  0.17361980  -0.00251219  1
  Ag  Ag11  1  0.66707975  0.33168388  0.67034083  1
  Ag  Ag12  1  0.32419607  0.00225919  -0.00166489  1
  Ag  Ag13  1  0.50169126  0.00272774  0.83528362  1
  Ag  Ag14  1  0.00237448  0.00036265  0.68218086  1
  Ag  Ag15  1  0.01097329  0.49998240  0.15461296  1
  Ag  Ag16  1  0.00300026  0.83398171  0.83785052  1
  Ag  Ag17  1  0.15938823  0.33989452  0.84015572  1
  Ag  Ag18  1  -0.00042114  0.33884874  -0.00187227  1
  Ag  Ag19  1  0.66619064  0.17410191  0.15760400  1
  Ag  Ag20  1  0.17248404  0.65857888  0.15929421  1
  Ag  Ag21  1  0.32527238  0.50701312  0.16314345  1
  Ag  Ag22  1  0.00038856  0.65640121  -0.00286142  1
  Ag  Ag23  1  0.66361380  0.83950748  0.83734365  1
  Ag  Ag24  1  0.66179542  0.82948428  0.15795610  1
  Ag  Ag25  1  0.33185746  0.83715946  0.83935303  1
  Ag  Ag26  1  0.50135829  0.34479072  0.16412250  1
  Ag  Ag27  1  0.49870210  0.83393355  0.67300750  1
  Ag  Ag28  1  0.15951994  0.49348314  0.00195506  1
  Ag  Ag29  1  0.00411050  0.48819828  0.83859716  1
  Ag  Ag30  1  0.01029547  0.82569129  0.15748959  1
  Ag  Ag31  1  0.66490843  0.16947019  0.51162788  1
  Ag  Ag32  1  0.16399810  0.00349027  0.49911808  1
  Ag  Ag33  1  0.84386155  0.32727396  0.84152048  1
  Ag  Ag34  1  -0.00015802  0.33683889  0.68111240  1
  Ag  Ag35  1  0.16284155  0.50101828  0.67552511  1
  Ag  Ag36  1  0.16159852  0.66111819  0.84147109  1
  Ag  Ag37  1  0.49858442  0.83007760  0.32340087  1
  Ag  Ag38  1  0.49039805  0.66082397  0.16451358  1
  Ag  Ag39  1  0.50264759  0.17020829  -0.00132996  1
  Ag  Ag40  1  0.16442569  0.49964172  0.31856227  1
  Ag  Ag41  1  0.00433138  0.00515657  -0.00119007  1
  Ag  Ag42  1  0.83364667  0.16847431  0.31939245  1
  Ag  Ag43  1  0.83834785  0.17142837  -0.00172681  1
  Ag  Ag44  1  0.33338436  0.82562477  0.16063651  1
  Ag  Ag45  1  0.00326381  0.49834765  0.50973417  1
  Ag  Ag46  1  0.50233340  0.33629447  0.49584302  1
  Ag  Ag47  1  -0.00193528  0.17314008  0.83686915  1
  Ag  Ag48  1  0.00958189  0.65533174  0.68233773  1
  Ag  Ag49  1  0.84416305  0.00663412  0.83623439  1
  Ag  Ag50  1  0.16538966  -0.00081978  0.16098941  1
  Ag  Ag51  1  0.49872487  0.66120914  0.49459750  1
  Ag  Ag52  1  0.00017625  0.33492788  0.31875246  1
  Ag  Ag53  1  0.15668466  0.34458873  0.15788473  1
  Sb  Sb54  1  0.00606524  0.66046578  0.32628354  1
  Sb  Sb55  1  0.66140616  0.83617933  0.50283841  1
  Sb  Sb56  1  0.83805055  0.00492147  0.50641168  1
  Sb  Sb57  1  0.67022292  0.33210818  0.33023974  1
  Sb  Sb58  1  0.66806297  0.00473292  0.67210232  1
  Sb  Sb59  1  0.49689134  0.49866189  0.67089085  1
  Sb  Sb60  1  0.66557633  0.00172039  0.33122432  1
  Sb  Sb61  1  0.49843835  -0.00255101  0.15943942  1
  Sb  Sb62  1  0.32621840  0.50048839  0.83922155  1
  Sb  Sb63  1  0.67077582  0.49792224  0.83961899  1
  Sb  Sb64  1  0.49698453  0.00091557  0.50639521  1
  Sb  Sb65  1  0.00083514  0.00432602  0.32527831  1
  Sb  Sb66  1  0.00191489  0.82992410  0.50454089  1
  Sb  Sb67  1  0.33676376  0.16695672  0.50907661  1
  Sb  Sb68  1  0.83631628  0.00589366  0.15888534  1
  Sb  Sb69  1  0.65977595  0.66685629  0.32262953  1
  Sb  Sb70  1  0.83069899  0.83821566  0.32676072  1
  Sb  Sb71  1  0.66865823  0.00127623  -0.00271339  1
  Sb  Sb72  1  0.16918511  0.66621753  0.50042777  1
  Sb  Sb73  1  0.84126100  0.49730965  0.67458766  1
  Sb  Sb74  1  0.16374489  0.83167623  0.00013350  1
  Sb  Sb75  1  0.83121627  0.66456388  0.50160364  1
  Sb  Sb76  1  0.33214042  0.33704353  0.66831884  1
  Sb  Sb77  1  0.33581889  0.16692598  0.15868742  1
  Sb  Sb78  1  0.16088285  0.17155417  0.32304499  1
  Sb  Sb79  1  0.33042275  0.50210666  0.49619624  1
  Sb  Sb80  1  0.33199390  -0.00470987  0.32494636  1
  Sb  Sb81  1  -0.00232459  0.17166317  0.50713487  1
  Sb  Sb82  1  0.83527459  0.66099123  0.16343660  1
  Sb  Sb83  1  0.84190370  0.66513638  0.83726168  1
  Sb  Sb84  1  0.84179832  0.49310655  0.32394430  1
  Sb  Sb85  1  0.50013142  0.32738875  0.83879550  1
  Sb  Sb86  1  0.33328921  0.83191988  0.50036566  1
  Sb  Sb87  1  0.32644343  0.33006118  0.00054592  1
  Sb  Sb88  1  0.82947805  0.16923609  0.67522474  1
  Sb  Sb89  1  0.49574218  0.50272492  0.32436848  1
  Sb  Sb90  1  0.16778533  0.16918511  0.67624492  1
  Sb  Sb91  1  0.66521613  0.66410631  0.67378848  1
  Sb  Sb92  1  0.50313507  0.16476712  0.32972071  1
  Sb  Sb93  1  0.16293864  0.00150798  0.83898203  1
  Sb  Sb94  1  0.16830601  0.83077194  0.67056787  1
  Sb  Sb95  1  0.83588203  0.83404728  -0.00144981  1
  Sb  Sb96  1  0.83136487  0.83420146  0.67202237  1
  Sb  Sb97  1  0.33014633  0.33640595  0.32856254  1
  Sb  Sb98  1  0.83254039  0.33234791  0.50027280  1
  Sb  Sb99  1  0.16989294  0.82882549  0.32783738  1
  Sb  Sb100  1  0.67345329  0.33436864  -0.00105041  1
  Sb  Sb101  1  0.33019380  -0.00373713  0.67423498  1
  Sb  Sb102  1  0.49489426  0.67029470  0.83803877  1
  Sb  Sb103  1  0.66697403  0.49652650  0.49662160  1
  Sb  Sb104  1  0.16679032  0.33279197  0.50016536  1
  Sb  Sb105  1  0.32943009  0.66843960  0.00055207  1
  Sb  Sb106  1  0.50021693  0.83385915  -0.00096132  1
  Sb  Sb107  1  -0.00191733  0.17393185  0.15579147  1
  Te  Te108  1  0.16745695  0.16337597  0.15874025  1
  Te  Te109  1  0.16738954  0.16349569  0.49947249  1
  Te  Te110  1  0.16369515  0.16859000  0.83765320  1
  Te  Te111  1  0.16621268  0.49950200  0.16316396  1
  Te  Te112  1  0.16290867  0.49994982  0.50796240  1
  Te  Te113  1  0.16553214  0.50112301  0.83658440  1
  Te  Te114  1  0.16744200  0.83507779  0.16734127  1
  Te  Te115  1  0.16552616  0.83991546  0.49846160  1
  Te  Te116  1  0.16775215  0.82647114  0.83303915  1
  Te  Te117  1  0.50366203  0.16468863  0.16312985  1
  Te  Te118  1  0.50444711  0.16929938  0.49723784  1
  Te  Te119  1  0.50145894  0.16682809  0.83628577  1
  Te  Te120  1  0.50478532  0.50327781  0.16650523  1
  Te  Te121  1  0.49981147  0.49928087  0.50202073  1
  Te  Te122  1  0.49942984  0.50034788  0.83939578  1
  Te  Te123  1  0.49962743  0.83291688  0.16619058  1
  Te  Te124  1  0.49999818  0.83052384  0.50615207  1
  Te  Te125  1  0.49906658  0.83483129  0.83261406  1
  Te  Te126  1  0.83212280  0.17002194  0.16220668  1
  Te  Te127  1  0.82585439  0.16662846  0.50014106  1
  Te  Te128  1  0.83280657  0.16718366  0.83537118  1
  Te  Te129  1  0.82687272  0.49436610  0.16181469  1
  Te  Te130  1  0.83757184  0.50043232  0.49676546  1
  Te  Te131  1  0.83889759  0.49557114  0.84119119  1
  Te  Te132  1  0.82648214  0.83595322  0.16603354  1
  Te  Te133  1  0.83129650  0.83478035  0.49841789  1
  Te  Te134  1  0.82974877  0.83687798  0.83334518  1
  Te  Te135  1  0.16631136  0.00110003  0.00106140  1
  Te  Te136  1  0.16655893  0.00108214  0.32927521  1
  Te  Te137  1  0.16223049  0.00092556  0.66381173  1
  Te  Te138  1  0.16517859  0.33282168  0.00084694  1
  Te  Te139  1  0.16245149  0.33830724  0.33181743  1
  Te  Te140  1  0.16295312  0.33728462  0.66794052  1
  Te  Te141  1  0.16366179  0.66473123  0.00119991  1
  Te  Te142  1  0.17288013  0.66175407  0.33297729  1
  Te  Te143  1  0.16599909  0.66467481  0.66363214  1
  Te  Te144  1  0.50057084  0.00444322  -0.00622626  1
  Te  Te145  1  0.49806564  -0.00815449  0.33671167  1
  Te  Te146  1  0.49891734  0.00102999  0.67210585  1
  Te  Te147  1  0.49872800  0.33171520  0.00452375  1
  Te  Te148  1  0.50014591  0.33262479  0.33181677  1
  Te  Te149  1  0.50116216  0.33044457  0.66689628  1
  Te  Te150  1  0.50239090  0.66642109  0.00516649  1
  Te  Te151  1  0.49574439  0.66855053  0.33065022  1
  Te  Te152  1  0.49771197  0.66771571  0.66971029  1
  Te  Te153  1  0.83671504  0.00544798  -0.00665946  1
  Te  Te154  1  0.83328567  0.00761649  0.33478331  1
  Te  Te155  1  0.84152691  0.00028298  0.67359511  1
  Te  Te156  1  0.83436167  0.33260872  0.00073653  1
  Te  Te157  1  0.83724205  0.32709333  0.33112001  1
  Te  Te158  1  0.83540638  0.33463370  0.66900442  1
  Te  Te159  1  0.83471225  0.66195119  0.00030914  1
  Te  Te160  1  0.83275889  0.66891538  0.33504971  1
  Te  Te161  1  0.83912492  0.66594912  0.66664947  1
  Te  Te162  1  -0.00123395  0.16551378  -0.00284536  1
  Te  Te163  1  -0.00418757  0.17244278  0.33765341  1
  Te  Te164  1  0.00116133  0.16839640  0.67304375  1
  Te  Te165  1  0.00252671  0.50044557  -0.00139202  1
  Te  Te166  1  0.00418324  0.49582922  0.33088137  1
  Te  Te167  1  0.00164734  0.49914124  0.67045026  1
  Te  Te168  1  -0.00183707  0.83758316  0.00121230  1
  Te  Te169  1  -0.00178247  0.83348774  0.33028723  1
  Te  Te170  1  -0.00056258  0.83570113  0.66977190  1
  Te  Te171  1  0.33809385  0.16258740  -0.00342774  1
  Te  Te172  1  0.33158766  0.16483668  0.33495173  1
  Te  Te173  1  0.34003261  0.16645140  0.67576586  1
  Te  Te174  1  0.33865032  0.50119192  0.00515785  1
  Te  Te175  1  0.32800459  0.50360993  0.32906409  1
  Te  Te176  1  0.32834441  0.50545403  0.66735858  1
  Te  Te177  1  0.33401607  0.83804101  -0.00016694  1
  Te  Te178  1  0.33729219  0.82825821  0.32991103  1
  Te  Te179  1  0.33660046  0.82989674  0.66936439  1
  Te  Te180  1  0.66546174  0.16671246  -0.00138796  1
  Te  Te181  1  0.67096439  0.16639398  0.32326355  1
  Te  Te182  1  0.66322261  0.16909984  0.67021766  1
  Te  Te183  1  0.65830212  0.50254654  0.00206391  1
  Te  Te184  1  0.66926824  0.50046387  0.32699250  1
  Te  Te185  1  0.66720405  0.49413328  0.66515153  1
  Te  Te186  1  0.66795099  0.83107487  -0.00247681  1
  Te  Te187  1  0.66133887  0.83408563  0.33280854  1
  Te  Te188  1  0.66160461  0.83122733  0.67263090  1
  Te  Te189  1  0.00311163  -0.00485373  0.16182854  1
  Te  Te190  1  0.00447587  -0.00037452  0.49607920  1
  Te  Te191  1  0.00291330  -0.00754137  0.83764782  1
  Te  Te192  1  -0.00034948  0.33547900  0.16254177  1
  Te  Te193  1  0.00074748  0.33854961  0.50141948  1
  Te  Te194  1  0.00204512  0.33118827  0.83615155  1
  Te  Te195  1  0.00150793  0.66593520  0.16274087  1
  Te  Te196  1  -0.00139088  0.66054650  0.49844381  1
  Te  Te197  1  0.00062574  0.67558967  0.83593464  1
  Te  Te198  1  0.33062720  -0.00172976  0.15982760  1
  Te  Te199  1  0.32698305  0.00094169  0.49975565  1
  Te  Te200  1  0.33256635  -0.00062050  0.83710827  1
  Te  Te201  1  0.34018746  0.33598665  0.16730877  1
  Te  Te202  1  0.34186602  0.33319721  0.49981649  1
  Te  Te203  1  0.32802284  0.32880663  0.83273955  1
  Te  Te204  1  0.33166243  0.66758051  0.16341573  1
  Te  Te205  1  0.33896552  0.66696677  0.50511083  1
  Te  Te206  1  0.32745315  0.67033937  0.83135892  1
  Te  Te207  1  0.66815483  -0.00361848  0.16552137  1
  Te  Te208  1  0.66739422  0.00789826  0.50147418  1
  Te  Te209  1  0.66291361  -0.00017893  0.83177213  1
  Te  Te210  1  0.66208063  0.33273615  0.16564202  1
  Te  Te211  1  0.66305026  0.33118124  0.50262715  1
  Te  Te212  1  0.66738185  0.33060442  0.82928750  1
  Te  Te213  1  0.66918213  0.67005658  0.16050251  1
  Te  Te214  1  0.65948055  0.66620651  0.50275301  1
  Te  Te215  1  0.66803547  0.66741644  0.83877007  1
