# generated using pymatgen
data_AgSbTe2
_symmetry_space_group_name_H-M   'P 1'
_cell_length_a   18.33546261
_cell_length_b   18.34171900
_cell_length_c   18.34267135
_cell_angle_alpha   90.00018492
_cell_angle_beta   90.00412142
_cell_angle_gamma   89.99918798
_symmetry_Int_Tables_number   1
_chemical_formula_structural   AgSbTe2
_chemical_formula_sum   'Ag54 Sb54 Te108'
_cell_volume   6168.71195180
_cell_formula_units_Z   54
loop_
 _symmetry_equiv_pos_site_id
 _symmetry_equiv_pos_as_xyz
  1  'x, y, z'
loop_
 _atom_site_type_symbol
 _atom_site_label
 _atom_site_symmetry_multiplicity
 _atom_site_fract_x
 _atom_site_fract_y
 _atom_site_fract_z
 _atom_site_occupancy
  Ag  Ag0  1  0.66235048  0.17157216  0.16276652  1
  Ag  Ag1  1  0.16695875  0.00319641  0.49736705  1
  Ag  Ag2  1  0.32852907  0.01087617  0.00995708  1
  Ag  Ag3  1  0.33287433  0.67402777  0.32385768  1
  Ag  Ag4  1  0.17435157  0.84192515  0.00165193  1
  Ag  Ag5  1  0.33969323  0.49962535  0.16500770  1
  Ag  Ag6  1  0.50574222  0.00112835  0.49499166  1
  Ag  Ag7  1  0.83335676  0.00420675  0.16910026  1
  Ag  Ag8  1  0.66614804  0.48781635  0.49273701  1
  Ag  Ag9  1  0.82680647  0.33147672  0.16487422  1
  Ag  Ag10  1  0.66545827  0.16892866  0.49345196  1
  Ag  Ag11  1  0.49663657  0.49802271  0.32119655  1
  Ag  Ag12  1  0.00814087  -0.00111305  0.01093006  1
  Ag  Ag13  1  0.66882133  0.01214881  0.65797431  1
  Ag  Ag14  1  0.67114078  0.32793369  0.32157704  1
  Ag  Ag15  1  0.34094193  0.32557612  0.00315159  1
  Ag  Ag16  1  0.67291879  0.00777584  0.33554925  1
  Ag  Ag17  1  0.82846524  0.00108203  0.48854813  1
  Ag  Ag18  1  0.17752302  0.16231931  0.00288635  1
  Ag  Ag19  1  -0.00202622  0.32636770  0.33192653  1
  Ag  Ag20  1  0.00835289  0.83840911  0.48539446  1
  Ag  Ag21  1  0.00422462  0.83450408  0.16598066  1
  Ag  Ag22  1  0.33646052  0.17238017  0.84633922  1
  Ag  Ag23  1  0.66454590  0.33173138  0.00391182  1
  Ag  Ag24  1  0.16952036  0.16836669  0.33251334  1
  Ag  Ag25  1  0.34017830  0.49278350  0.84970274  1
  Ag  Ag26  1  0.32832398  0.83865986  0.48586157  1
  Ag  Ag27  1  0.33135530  0.83449736  0.16412360  1
  Ag  Ag28  1  0.66335451  0.17204145  0.84299081  1
  Ag  Ag29  1  0.49737878  0.65498482  0.16523644  1
  Ag  Ag30  1  0.49130740  0.83548481  0.00342031  1
  Ag  Ag31  1  0.65474387  0.48704593  0.16383111  1
  Ag  Ag32  1  0.82805377  0.33376719  0.84853641  1
  Ag  Ag33  1  0.16961445  0.16687975  0.65742766  1
  Ag  Ag34  1  0.16581865  0.49338616  0.66035442  1
  Ag  Ag35  1  0.49934593  0.49313769  0.00442027  1
  Ag  Ag36  1  0.33129451  -0.00156056  0.32763494  1
  Ag  Ag37  1  0.82090251  0.49124795  0.00346422  1
  Ag  Ag38  1  0.33156309  0.66514376  0.00523606  1
  Ag  Ag39  1  0.66489788  0.49046299  0.83987910  1
  Ag  Ag40  1  0.33818800  0.16775341  0.16321120  1
  Ag  Ag41  1  0.66889783  0.32971708  0.67362315  1
  Ag  Ag42  1  0.16713274  0.84112057  0.66516106  1
  Ag  Ag43  1  0.00793862  0.67107162  0.00523221  1
  Ag  Ag44  1  0.51073481  0.34011117  0.16619560  1
  Ag  Ag45  1  0.16832248  0.32404003  0.49639388  1
  Ag  Ag46  1  0.49437300  0.17241815  0.00249587  1
  Ag  Ag47  1  -0.00387168  0.00101407  0.33057140  1
  Ag  Ag48  1  0.66683805  0.84114218  0.83750458  1
  Ag  Ag49  1  0.17402154  0.49092811  0.33356148  1
  Ag  Ag50  1  0.82726775  0.49533681  0.67368520  1
  Ag  Ag51  1  -0.00106375  0.50199859  0.16666383  1
  Ag  Ag52  1  0.82581985  0.17138365  0.00262539  1
  Ag  Ag53  1  0.83573351  0.84090650  0.33116437  1
  Sb  Sb54  1  0.33394648  0.00085652  0.66516239  1
  Sb  Sb55  1  0.33628076  0.33266781  0.67241008  1
  Sb  Sb56  1  0.50173950  0.49766762  0.66976083  1
  Sb  Sb57  1  0.00008433  0.16725130  0.83744192  1
  Sb  Sb58  1  0.83153159  0.66141393  0.83716168  1
  Sb  Sb59  1  0.33398589  0.16273807  0.49549325  1
  Sb  Sb60  1  0.49885807  0.66883449  0.49245369  1
  Sb  Sb61  1  0.33484382  0.50181524  0.49319436  1
  Sb  Sb62  1  0.50068863  0.33050296  0.49240854  1
  Sb  Sb63  1  -0.00259401  0.33169038  0.00701256  1
  Sb  Sb64  1  0.83176550  0.66883306  0.49782967  1
  Sb  Sb65  1  0.83093544  0.16971000  0.67048621  1
  Sb  Sb66  1  0.66477751  0.00854375  0.00411805  1
  Sb  Sb67  1  0.66356644  0.65775918  0.00145955  1
  Sb  Sb68  1  0.50129384  0.16644656  0.67098411  1
  Sb  Sb69  1  0.49927125  0.66569794  0.84252849  1
  Sb  Sb70  1  0.00655153  0.66943331  0.32657557  1
  Sb  Sb71  1  0.83498757  0.83292648  0.66306958  1
  Sb  Sb72  1  -0.00132930  0.33392409  0.65955129  1
  Sb  Sb73  1  0.16725269  0.67015346  0.49756821  1
  Sb  Sb74  1  0.66521450  0.83578765  0.16397727  1
  Sb  Sb75  1  -0.00112211  0.16479359  0.16749342  1
  Sb  Sb76  1  0.66711127  0.66276440  0.66739188  1
  Sb  Sb77  1  0.33106267  0.66608674  0.66810951  1
  Sb  Sb78  1  0.83294866  0.83559922  0.00393309  1
  Sb  Sb79  1  0.83052129  0.33000147  0.49485477  1
  Sb  Sb80  1  -0.00197293  0.83491561  0.83901566  1
  Sb  Sb81  1  0.33510319  0.83468068  0.84229003  1
  Sb  Sb82  1  0.49954677  0.00289090  0.16806924  1
  Sb  Sb83  1  0.17360910  0.49765706  0.00307165  1
  Sb  Sb84  1  -0.00140439  0.00005844  0.66084786  1
  Sb  Sb85  1  0.83148082  0.66409786  0.16563795  1
  Sb  Sb86  1  0.66300822  0.66365854  0.33056350  1
  Sb  Sb87  1  0.49934432  0.83431854  0.32873575  1
  Sb  Sb88  1  0.82931882  0.00433508  0.83789312  1
  Sb  Sb89  1  0.16707003  0.33360911  0.17021676  1
  Sb  Sb90  1  0.50829862  0.33300394  0.84520355  1
  Sb  Sb91  1  0.33300465  0.33059182  0.32571108  1
  Sb  Sb92  1  -0.00014938  0.16308000  0.49627334  1
  Sb  Sb93  1  0.49761363  0.83695345  0.66948563  1
  Sb  Sb94  1  0.16824444  0.00210464  0.83412227  1
  Sb  Sb95  1  0.16500912  0.33203210  0.83195459  1
  Sb  Sb96  1  0.50031180  0.16806791  0.32682814  1
  Sb  Sb97  1  -0.00088320  0.49846057  0.84082631  1
  Sb  Sb98  1  0.83117881  0.16180296  0.32739279  1
  Sb  Sb99  1  0.50072128  0.00122916  0.83552313  1
  Sb  Sb100  1  0.00193939  0.66571300  0.66982942  1
  Sb  Sb101  1  0.16820593  0.66521182  0.83742973  1
  Sb  Sb102  1  0.16712433  0.83863403  0.33058443  1
  Sb  Sb103  1  0.17535253  0.66542488  0.16654093  1
  Sb  Sb104  1  0.16614631  0.00146973  0.17006507  1
  Sb  Sb105  1  -0.00113699  0.50219195  0.49465190  1
  Sb  Sb106  1  0.66470755  0.84074458  0.49994517  1
  Sb  Sb107  1  0.83052580  0.49937837  0.32793235  1
  Te  Te108  1  0.17205038  0.16708983  0.16545566  1
  Te  Te109  1  0.16707623  0.16589583  0.49806646  1
  Te  Te110  1  0.17048040  0.16731474  0.83952492  1
  Te  Te111  1  0.16074888  0.49968370  0.17149890  1
  Te  Te112  1  0.16629412  0.49968956  0.49825360  1
  Te  Te113  1  0.16792330  0.49919453  0.82963837  1
  Te  Te114  1  0.16695401  0.83286324  0.16275791  1
  Te  Te115  1  0.16796397  0.83559166  0.49819663  1
  Te  Te116  1  0.16522727  0.83281266  0.83170065  1
  Te  Te117  1  0.50018271  0.16842354  0.16228906  1
  Te  Te118  1  0.50300454  0.16233510  0.50040264  1
  Te  Te119  1  0.49980633  0.16646703  0.83880015  1
  Te  Te120  1  0.49709776  0.49865170  0.16495790  1
  Te  Te121  1  0.50545481  0.50112126  0.50041543  1
  Te  Te122  1  0.49942317  0.49965348  0.83733396  1
  Te  Te123  1  0.49723005  0.83517805  0.16129318  1
  Te  Te124  1  0.49469968  0.83842507  0.50025859  1
  Te  Te125  1  0.50535307  0.83284660  0.83844821  1
  Te  Te126  1  0.83236603  0.16637731  0.16382948  1
  Te  Te127  1  0.82916599  0.16078338  0.50297510  1
  Te  Te128  1  0.82968499  0.17175723  0.83765846  1
  Te  Te129  1  0.83733555  0.49855614  0.16323278  1
  Te  Te130  1  0.82848801  0.50023481  0.49976753  1
  Te  Te131  1  0.83223503  0.49538414  0.83626633  1
  Te  Te132  1  0.83224681  0.83580423  0.17047892  1
  Te  Te133  1  0.83314255  0.83800482  0.49661459  1
  Te  Te134  1  0.82725405  0.83291439  0.83159877  1
  Te  Te135  1  0.16781073  0.00068413  -0.00247039  1
  Te  Te136  1  0.16885851  0.00282928  0.33660388  1
  Te  Te137  1  0.16602253  0.00164373  0.66393173  1
  Te  Te138  1  0.16531802  0.32589594  -0.00279925  1
  Te  Te139  1  0.16651761  0.33113172  0.33607321  1
  Te  Te140  1  0.16681687  0.33147329  0.66278522  1
  Te  Te141  1  0.16760092  0.66988047  0.00001212  1
  Te  Te142  1  0.17394914  0.65556862  0.33410364  1
  Te  Te143  1  0.16615199  0.66384416  0.66731836  1
  Te  Te144  1  0.49658326  -0.00246617  0.00038085  1
  Te  Te145  1  0.49593978  0.00062371  0.33696954  1
  Te  Te146  1  0.50591998  -0.00035633  0.65959494  1
  Te  Te147  1  0.50051851  0.33320208  0.00430667  1
  Te  Te148  1  0.50555858  0.33768738  0.32742003  1
  Te  Te149  1  0.50733467  0.33284143  0.66138280  1
  Te  Te150  1  0.49687479  0.66759946  0.00484162  1
  Te  Te151  1  0.49443808  0.66222548  0.32785533  1
  Te  Te152  1  0.49876690  0.66791697  0.66553259  1
  Te  Te153  1  0.83182097  0.00429543  0.00550904  1
  Te  Te154  1  0.83436558  0.00148321  0.33128718  1
  Te  Te155  1  0.82877420  -0.00055023  0.66648976  1
  Te  Te156  1  0.83548600  0.33383531  0.00440337  1
  Te  Te157  1  0.83337965  0.33296071  0.32708656  1
  Te  Te158  1  0.83073989  0.33747505  0.66072145  1
  Te  Te159  1  0.83627914  0.66324089  0.00088731  1
  Te  Te160  1  0.83405833  0.67724527  0.33288576  1
  Te  Te161  1  0.83541153  0.65800747  0.66655929  1
  Te  Te162  1  0.00004600  0.16113082  0.00087998  1
  Te  Te163  1  0.00572714  0.16448180  0.33386433  1
  Te  Te164  1  0.00829879  0.16719983  0.66781806  1
  Te  Te165  1  0.00556422  0.50010932  0.00640052  1
  Te  Te166  1  -0.00062239  0.50180013  0.32885946  1
  Te  Te167  1  0.00311301  0.50055574  0.66460650  1
  Te  Te168  1  -0.00000385  0.83703081  0.00484141  1
  Te  Te169  1  0.00127616  0.83573576  0.32864728  1
  Te  Te170  1  0.00566558  0.83213416  0.66920317  1
  Te  Te171  1  0.33513783  0.16709847  0.00252544  1
  Te  Te172  1  0.33086276  0.16248441  0.32760710  1
  Te  Te173  1  0.32889356  0.16721806  0.67050024  1
  Te  Te174  1  0.33294051  0.50183251  0.00386065  1
  Te  Te175  1  0.33498839  0.49692450  0.32948047  1
  Te  Te176  1  0.32912566  0.50011140  0.66438293  1
  Te  Te177  1  0.33200899  0.82983069  0.00183309  1
  Te  Te178  1  0.33357128  0.83514378  0.32857852  1
  Te  Te179  1  0.32731950  0.83264012  0.67183648  1
  Te  Te180  1  0.66643840  0.16881585  0.00212706  1
  Te  Te181  1  0.66564889  0.16721105  0.33175073  1
  Te  Te182  1  0.66659516  0.16813425  0.66868913  1
  Te  Te183  1  0.66322830  0.49675639  0.00137215  1
  Te  Te184  1  0.66477220  0.49857480  0.33086992  1
  Te  Te185  1  0.66901152  0.49757834  0.67300339  1
  Te  Te186  1  0.66573096  0.83414053  -0.00324675  1
  Te  Te187  1  0.66856044  0.83547209  0.33361961  1
  Te  Te188  1  0.66626897  0.83182370  0.67043213  1
  Te  Te189  1  -0.00241888  -0.00071497  0.16841494  1
  Te  Te190  1  0.00192808  -0.00421634  0.49730696  1
  Te  Te191  1  -0.00223800  -0.00004973  0.83967522  1
  Te  Te192  1  -0.00154599  0.33436099  0.17389711  1
  Te  Te193  1  0.00499591  0.33530801  0.49113620  1
  Te  Te194  1  -0.00968280  0.33386653  0.82966789  1
  Te  Te195  1  -0.00308682  0.66971833  0.16239580  1
  Te  Te196  1  -0.00104393  0.67701618  0.50002168  1
  Te  Te197  1  -0.00059448  0.66706188  0.84383535  1
  Te  Te198  1  0.33361484  -0.00093451  0.16659249  1
  Te  Te199  1  0.32872107  -0.00253408  0.49994566  1
  Te  Te200  1  0.33510586  0.00434544  0.83640326  1
  Te  Te201  1  0.33179789  0.33426488  0.16220746  1
  Te  Te202  1  0.32803568  0.33351725  0.50251406  1
  Te  Te203  1  0.33184671  0.33406472  0.83848875  1
  Te  Te204  1  0.33537531  0.66723579  0.16672520  1
  Te  Te205  1  0.33440422  0.67399551  0.49755060  1
  Te  Te206  1  0.33391231  0.66124245  0.83821910  1
  Te  Te207  1  0.67076372  0.00281505  0.17338773  1
  Te  Te208  1  0.66776896  0.00194107  0.49771585  1
  Te  Te209  1  0.66626039  0.00282992  0.82966201  1
  Te  Te210  1  0.66816816  0.33158248  0.16452060  1
  Te  Te211  1  0.66614948  0.32963736  0.49907242  1
  Te  Te212  1  0.66830034  0.33267060  0.83274979  1
  Te  Te213  1  0.65984001  0.66440186  0.16653394  1
  Te  Te214  1  0.66556698  0.65800470  0.49970453  1
  Te  Te215  1  0.66580718  0.66592185  0.83300299  1
