# generated using pymatgen
data_AgSbTe2
_symmetry_space_group_name_H-M   'P 1'
_cell_length_a   18.31775584
_cell_length_b   18.32632195
_cell_length_c   18.32751358
_cell_angle_alpha   89.99810823
_cell_angle_beta   89.99886861
_cell_angle_gamma   90.00011284
_symmetry_Int_Tables_number   1
_chemical_formula_structural   AgSbTe2
_chemical_formula_sum   'Ag54 Sb54 Te108'
_cell_volume   6152.49298485
_cell_formula_units_Z   54
loop_
 _symmetry_equiv_pos_site_id
 _symmetry_equiv_pos_as_xyz
  1  'x, y, z'
loop_
 _atom_site_type_symbol
 _atom_site_label
 _atom_site_symmetry_multiplicity
 _atom_site_fract_x
 _atom_site_fract_y
 _atom_site_fract_z
 _atom_site_occupancy
  Ag  Ag0  1  0.82705932  -0.00377824  0.16657888  1
  Ag  Ag1  1  0.33601032  0.83717839  0.17306057  1
  Ag  Ag2  1  0.33130316  0.67537592  0.00644127  1
  Ag  Ag3  1  0.83264420  0.16644929  -0.00288066  1
  Ag  Ag4  1  0.33733414  0.33303044  0.66700566  1
  Ag  Ag5  1  0.66869612  0.67265985  0.33340527  1
  Ag  Ag6  1  -0.00729158  0.83684766  0.49507544  1
  Ag  Ag7  1  0.66898861  0.48964792  0.16451537  1
  Ag  Ag8  1  0.82854515  0.00653738  0.83492741  1
  Ag  Ag9  1  0.33913892  0.49479714  0.17014485  1
  Ag  Ag10  1  0.83231932  0.67558492  0.49703382  1
  Ag  Ag11  1  0.51037913  0.33253374  0.83376714  1
  Ag  Ag12  1  0.82848260  0.49296651  0.00224842  1
  Ag  Ag13  1  -0.00623784  0.16077861  0.50345183  1
  Ag  Ag14  1  0.82820110  -0.00459875  0.49854001  1
  Ag  Ag15  1  0.33187635  -0.00201531  0.00283187  1
  Ag  Ag16  1  0.83145276  0.83743650  0.00487705  1
  Ag  Ag17  1  0.33191111  0.33312699  0.32997129  1
  Ag  Ag18  1  0.82943283  0.50460783  0.33161976  1
  Ag  Ag19  1  0.67359001  0.83525252  0.83726932  1
  Ag  Ag20  1  0.17154382  0.66728751  0.82860439  1
  Ag  Ag21  1  0.50285204  0.49649838  0.66710571  1
  Ag  Ag22  1  0.82911582  0.49720810  0.66724848  1
  Ag  Ag23  1  0.83245238  0.83313204  0.65742433  1
  Ag  Ag24  1  0.67167981  0.83807106  0.16886224  1
  Ag  Ag25  1  0.33666215  -0.00780294  0.33222605  1
  Ag  Ag26  1  0.50030833  0.67239676  0.49842588  1
  Ag  Ag27  1  -0.01080367  0.16803700  0.83173274  1
  Ag  Ag28  1  0.33609777  0.16540567  0.16485460  1
  Ag  Ag29  1  0.33327334  0.16336731  0.84000643  1
  Ag  Ag30  1  0.66881566  0.33563968  0.67796847  1
  Ag  Ag31  1  0.17020767  0.66932552  0.49812418  1
  Ag  Ag32  1  0.33520277  0.00036126  0.66685462  1
  Ag  Ag33  1  0.17067413  0.50529077  0.33606292  1
  Ag  Ag34  1  0.66810375  -0.00347519  0.33242609  1
  Ag  Ag35  1  0.66982344  0.33166405  -0.00685596  1
  Ag  Ag36  1  -0.01411931  0.83537805  0.17626195  1
  Ag  Ag37  1  0.83291616  0.83278653  0.33301201  1
  Ag  Ag38  1  0.16994492  0.49976428  0.66337615  1
  Ag  Ag39  1  0.32939122  0.83398277  0.49092812  1
  Ag  Ag40  1  0.82327798  0.32600950  0.83786828  1
  Ag  Ag41  1  0.33598471  0.83965384  0.83423229  1
  Ag  Ag42  1  0.66937880  0.17271382  0.16467489  1
  Ag  Ag43  1  0.17371930  0.83125156  0.33469769  1
  Ag  Ag44  1  0.50245053  -0.00419147  0.49899899  1
  Ag  Ag45  1  -0.01113797  0.33232020  0.66700996  1
  Ag  Ag46  1  0.50734686  0.33327423  0.16334768  1
  Ag  Ag47  1  0.67014446  0.48917900  0.83463925  1
  Ag  Ag48  1  0.67252835  0.16345922  0.49454985  1
  Ag  Ag49  1  0.67211954  0.17717199  0.83701094  1
  Ag  Ag50  1  0.16916053  0.16687550  0.00139237  1
  Ag  Ag51  1  0.33284907  0.67360902  0.33295828  1
  Ag  Ag52  1  0.17109946  0.16191692  0.33121566  1
  Ag  Ag53  1  0.82489644  0.32908344  0.15865625  1
  Sb  Sb54  1  0.33367358  0.15987481  0.49695819  1
  Sb  Sb55  1  0.50225520  0.00451662  0.82821548  1
  Sb  Sb56  1  0.66830567  0.66316893  0.66164155  1
  Sb  Sb57  1  -0.00535818  0.50296662  0.16871953  1
  Sb  Sb58  1  0.50197278  0.83318688  -0.00003225  1
  Sb  Sb59  1  0.66830078  0.49749083  0.49912312  1
  Sb  Sb60  1  0.50000433  0.83339292  0.33421270  1
  Sb  Sb61  1  0.66466914  0.33199410  0.33019967  1
  Sb  Sb62  1  0.17157357  0.66763267  0.17169591  1
  Sb  Sb63  1  0.16707284  0.33458496  0.83218506  1
  Sb  Sb64  1  0.66492126  0.66471692  0.00432118  1
  Sb  Sb65  1  0.49883488  0.66307464  0.17206084  1
  Sb  Sb66  1  -0.00195651  0.00047682  -0.00010328  1
  Sb  Sb67  1  0.83184172  0.16827392  0.67202308  1
  Sb  Sb68  1  0.50479610  0.49839337  -0.00174198  1
  Sb  Sb69  1  0.83206209  0.33056832  0.50170079  1
  Sb  Sb70  1  0.66684817  0.00366605  0.00280291  1
  Sb  Sb71  1  -0.00998784  0.33081932  -0.00463976  1
  Sb  Sb72  1  0.33275714  0.50557287  0.49567558  1
  Sb  Sb73  1  0.33917101  0.32998755  0.00092768  1
  Sb  Sb74  1  0.83005318  0.67000792  0.17217108  1
  Sb  Sb75  1  0.49841465  0.66312605  0.82883672  1
  Sb  Sb76  1  0.16851060  -0.00048555  0.16845473  1
  Sb  Sb77  1  -0.00346819  0.83853229  0.83102410  1
  Sb  Sb78  1  0.16746585  0.83601261  0.00449676  1
  Sb  Sb79  1  0.00175312  0.66866669  -0.00078532  1
  Sb  Sb80  1  0.49997031  0.50027494  0.33530405  1
  Sb  Sb81  1  -0.00353656  -0.00192574  0.33382913  1
  Sb  Sb82  1  0.83440969  0.16496861  0.33043142  1
  Sb  Sb83  1  -0.00665309  0.49418292  0.83089574  1
  Sb  Sb84  1  0.50280304  0.16714049  -0.00010056  1
  Sb  Sb85  1  0.50188486  0.00415100  0.17173685  1
  Sb  Sb86  1  0.33270033  0.66686841  0.66292571  1
  Sb  Sb87  1  0.33733507  0.49864284  0.83458888  1
  Sb  Sb88  1  0.49603844  0.16686254  0.33308691  1
  Sb  Sb89  1  0.16609334  0.49703410  0.00058747  1
  Sb  Sb90  1  0.50318883  0.83013365  0.66493981  1
  Sb  Sb91  1  0.50030631  0.17281350  0.66693786  1
  Sb  Sb92  1  0.16529770  0.82878099  0.66149474  1
  Sb  Sb93  1  0.16755216  -0.00422187  0.49761774  1
  Sb  Sb94  1  -0.00080101  0.66282206  0.66514848  1
  Sb  Sb95  1  0.16869220  0.33177451  0.16793295  1
  Sb  Sb96  1  0.66985891  0.83684556  0.49619195  1
  Sb  Sb97  1  0.49986932  0.33200350  0.50124042  1
  Sb  Sb98  1  0.00042696  0.00373506  0.66511411  1
  Sb  Sb99  1  0.83418803  0.66686382  0.83033874  1
  Sb  Sb100  1  0.16824435  0.17163230  0.66609204  1
  Sb  Sb101  1  0.66525927  0.00345031  0.66377654  1
  Sb  Sb102  1  -0.00140869  0.50136323  0.50051701  1
  Sb  Sb103  1  0.00296217  0.33096121  0.33655673  1
  Sb  Sb104  1  0.00035837  0.67000857  0.33557459  1
  Sb  Sb105  1  0.16784068  0.33594875  0.50049854  1
  Sb  Sb106  1  0.16815604  -0.00159157  0.83343330  1
  Sb  Sb107  1  -0.00325448  0.16290330  0.16607846  1
  Te  Te108  1  0.16768809  0.16595538  0.16791617  1
  Te  Te109  1  0.16271858  0.16589315  0.49550011  1
  Te  Te110  1  0.17312622  0.16613476  0.83553821  1
  Te  Te111  1  0.16742534  0.49981801  0.17053678  1
  Te  Te112  1  0.16561467  0.50580633  0.49824971  1
  Te  Te113  1  0.16549755  0.50432914  0.83248288  1
  Te  Te114  1  0.17573361  0.83428187  0.17240488  1
  Te  Te115  1  0.16789294  0.82964447  0.49660157  1
  Te  Te116  1  0.16769204  0.83026433  0.83346295  1
  Te  Te117  1  0.50081184  0.17186725  0.16658857  1
  Te  Te118  1  0.50615409  0.16026547  0.50043784  1
  Te  Te119  1  0.49878854  0.17171553  0.83306506  1
  Te  Te120  1  0.50107666  0.49483239  0.16626582  1
  Te  Te121  1  0.50028433  0.50235846  0.50604648  1
  Te  Te122  1  0.50611144  0.49579322  0.82921615  1
  Te  Te123  1  0.49750081  0.83395077  0.16537905  1
  Te  Te124  1  0.49582159  0.83330860  0.50170742  1
  Te  Te125  1  0.49647590  0.83289047  0.83239243  1
  Te  Te126  1  0.83201935  0.16596855  0.16404667  1
  Te  Te127  1  0.83325403  0.16252597  0.49874859  1
  Te  Te128  1  0.83131872  0.16640143  0.83507991  1
  Te  Te129  1  0.83084320  0.50156315  0.16834073  1
  Te  Te130  1  0.83430951  0.50238677  0.49804549  1
  Te  Te131  1  0.82899159  0.50008056  0.83099551  1
  Te  Te132  1  0.82976433  0.83383973  0.16958215  1
  Te  Te133  1  0.83138210  0.83467559  0.49763820  1
  Te  Te134  1  0.83386675  0.83370401  0.83700285  1
  Te  Te135  1  0.17270778  0.00606113  0.00033055  1
  Te  Te136  1  0.17289876  -0.00238717  0.33292110  1
  Te  Te137  1  0.17551714  -0.00068191  0.66584622  1
  Te  Te138  1  0.16345572  0.32734145  0.00041372  1
  Te  Te139  1  0.17145281  0.33796721  0.33369794  1
  Te  Te140  1  0.17454696  0.34013746  0.66670379  1
  Te  Te141  1  0.17212593  0.66569467  -0.00356679  1
  Te  Te142  1  0.16859920  0.66765952  0.33694688  1
  Te  Te143  1  0.16573701  0.66080875  0.66361332  1
  Te  Te144  1  0.49066286  -0.00040613  -0.00150514  1
  Te  Te145  1  0.50197869  0.00047889  0.33908896  1
  Te  Te146  1  0.49479208  -0.00161020  0.66049898  1
  Te  Te147  1  0.50801218  0.33386376  -0.00052333  1
  Te  Te148  1  0.49165035  0.33422218  0.32966231  1
  Te  Te149  1  0.49900664  0.33787118  0.66766812  1
  Te  Te150  1  0.49015621  0.66576711  -0.00163873  1
  Te  Te151  1  0.49885009  0.66550263  0.33944174  1
  Te  Te152  1  0.50058032  0.65896829  0.65951078  1
  Te  Te153  1  0.83159564  -0.00050446  -0.00062462  1
  Te  Te154  1  0.83020835  -0.00112034  0.33325422  1
  Te  Te155  1  0.83288088  -0.00363472  0.66639227  1
  Te  Te156  1  0.82923040  0.33249275  -0.00085605  1
  Te  Te157  1  0.83429029  0.33794041  0.33226303  1
  Te  Te158  1  0.83032171  0.33514727  0.66783567  1
  Te  Te159  1  0.83322542  0.66897724  -0.00108312  1
  Te  Te160  1  0.83304041  0.66648216  0.33692863  1
  Te  Te161  1  0.83387575  0.66613075  0.66157830  1
  Te  Te162  1  -0.00021784  0.16569292  -0.00379026  1
  Te  Te163  1  0.00903501  0.16581398  0.33678994  1
  Te  Te164  1  0.00168253  0.17105810  0.66597117  1
  Te  Te165  1  -0.00915019  0.50063682  0.00014380  1
  Te  Te166  1  0.00287860  0.49920933  0.33297534  1
  Te  Te167  1  -0.00094580  0.49242636  0.66619132  1
  Te  Te168  1  -0.00391580  0.83365491  0.00311759  1
  Te  Te169  1  -0.00220894  0.83468088  0.33488670  1
  Te  Te170  1  -0.00580593  0.83462385  0.66169792  1
  Te  Te171  1  0.33299129  0.16624831  0.00240433  1
  Te  Te172  1  0.32986248  0.16824086  0.33151884  1
  Te  Te173  1  0.33336111  0.16761013  0.66786985  1
  Te  Te174  1  0.33195787  0.50116377  0.00739095  1
  Te  Te175  1  0.33280228  0.49927920  0.33017350  1
  Te  Te176  1  0.33094921  0.49714243  0.66674622  1
  Te  Te177  1  0.33207462  0.83470892  -0.00224354  1
  Te  Te178  1  0.33456007  0.83340455  0.33310743  1
  Te  Te179  1  0.33336924  0.83523478  0.67234918  1
  Te  Te180  1  0.67095918  0.16841090  0.00170377  1
  Te  Te181  1  0.66697221  0.16287425  0.33022853  1
  Te  Te182  1  0.66628239  0.17151213  0.67336184  1
  Te  Te183  1  0.67064853  0.49937941  0.00270489  1
  Te  Te184  1  0.66953759  0.50105654  0.33038784  1
  Te  Te185  1  0.66904824  0.49722520  0.66673067  1
  Te  Te186  1  0.67032136  0.83292809  0.00227465  1
  Te  Te187  1  0.66960892  0.83387261  0.33104584  1
  Te  Te188  1  0.67205904  0.83358160  0.67194644  1
  Te  Te189  1  -0.00882930  -0.00562773  0.16650648  1
  Te  Te190  1  -0.00533392  -0.00054528  0.50042337  1
  Te  Te191  1  -0.00614610  0.00750107  0.83215607  1
  Te  Te192  1  -0.00940230  0.33292729  0.16761834  1
  Te  Te193  1  0.00009914  0.32749495  0.50589606  1
  Te  Te194  1  -0.00197565  0.32711089  0.82786602  1
  Te  Te195  1  0.00191891  0.67646728  0.16528582  1
  Te  Te196  1  -0.00252986  0.67237963  0.50106277  1
  Te  Te197  1  0.00910971  0.66785856  0.83243066  1
  Te  Te198  1  0.33540968  0.00308000  0.16974968  1
  Te  Te199  1  0.33418012  -0.00416079  0.49678649  1
  Te  Te200  1  0.33493677  0.00136894  0.83273015  1
  Te  Te201  1  0.33410595  0.33100175  0.16755449  1
  Te  Te202  1  0.33478705  0.33176508  0.50156276  1
  Te  Te203  1  0.33504953  0.33038803  0.83236998  1
  Te  Te204  1  0.33500691  0.66864306  0.16996547  1
  Te  Te205  1  0.33230351  0.67112632  0.49600927  1
  Te  Te206  1  0.33182067  0.66706447  0.83371676  1
  Te  Te207  1  0.66689086  -0.00080806  0.16884217  1
  Te  Te208  1  0.66752367  0.00273361  0.49788616  1
  Te  Te209  1  0.66867711  -0.00501104  0.83366201  1
  Te  Te210  1  0.66754383  0.33258869  0.16924910  1
  Te  Te211  1  0.66497302  0.32396654  0.50067021  1
  Te  Te212  1  0.66710766  0.33330811  0.83395573  1
  Te  Te213  1  0.66357792  0.66904835  0.17245622  1
  Te  Te214  1  0.66725969  0.66676504  0.49403180  1
  Te  Te215  1  0.66558932  0.67475837  0.83510018  1
