# generated using pymatgen
data_AgSbTe2
_symmetry_space_group_name_H-M   'P 1'
_cell_length_a   18.33211157
_cell_length_b   18.33486567
_cell_length_c   18.33524489
_cell_angle_alpha   89.99638878
_cell_angle_beta   89.99830507
_cell_angle_gamma   89.99798033
_symmetry_Int_Tables_number   1
_chemical_formula_structural   AgSbTe2
_chemical_formula_sum   'Ag54 Sb54 Te108'
_cell_volume   6162.78387652
_cell_formula_units_Z   54
loop_
 _symmetry_equiv_pos_site_id
 _symmetry_equiv_pos_as_xyz
  1  'x, y, z'
loop_
 _atom_site_type_symbol
 _atom_site_label
 _atom_site_symmetry_multiplicity
 _atom_site_fract_x
 _atom_site_fract_y
 _atom_site_fract_z
 _atom_site_occupancy
  Ag  Ag0  1  -0.00573456  0.82976999  0.16647938  1
  Ag  Ag1  1  0.66671222  0.16663985  0.49396690  1
  Ag  Ag2  1  0.66920240  0.67277552  0.01419447  1
  Ag  Ag3  1  0.32803525  0.32388374  0.66339690  1
  Ag  Ag4  1  0.33055155  0.16217799  0.82155197  1
  Ag  Ag5  1  0.66376798  0.16139728  0.83103822  1
  Ag  Ag6  1  0.16703125  0.32960036  0.82006110  1
  Ag  Ag7  1  0.82803305  0.50389427  0.33573031  1
  Ag  Ag8  1  -0.00156754  0.16800255  0.17215967  1
  Ag  Ag9  1  0.83674568  0.51127615  0.65608487  1
  Ag  Ag10  1  -0.00473152  0.50504722  0.17157505  1
  Ag  Ag11  1  0.50094188  0.83200655  0.66857728  1
  Ag  Ag12  1  0.16365273  0.67404728  0.17266350  1
  Ag  Ag13  1  0.83252229  -0.00912064  0.17363018  1
  Ag  Ag14  1  0.50082249  0.33120584  0.49561298  1
  Ag  Ag15  1  0.67447558  0.51441818  0.17755659  1
  Ag  Ag16  1  0.16393874  0.50071221  0.65987197  1
  Ag  Ag17  1  0.82823633  0.67180309  0.17017358  1
  Ag  Ag18  1  0.66734340  0.33430974  0.33321505  1
  Ag  Ag19  1  0.66583170  -0.00280231  0.65883803  1
  Ag  Ag20  1  0.16403798  0.00443114  0.49958718  1
  Ag  Ag21  1  0.17079600  0.16775679  0.66200376  1
  Ag  Ag22  1  0.82864815  0.83032587  0.00767628  1
  Ag  Ag23  1  0.32853562  0.67498746  0.66106023  1
  Ag  Ag24  1  0.32483117  0.16890249  0.50367789  1
  Ag  Ag25  1  0.16035868  -0.00878965  0.17430329  1
  Ag  Ag26  1  0.67067503  0.50449293  0.49476496  1
  Ag  Ag27  1  0.83106481  -0.00341423  0.49658146  1
  Ag  Ag28  1  0.16748517  0.82839654  0.32433532  1
  Ag  Ag29  1  0.66582932  0.83369573  0.83593961  1
  Ag  Ag30  1  0.67070977  0.16435943  0.17642894  1
  Ag  Ag31  1  0.17111984  0.83251838  0.66654529  1
  Ag  Ag32  1  0.33050201  -0.00194420  0.66429700  1
  Ag  Ag33  1  0.51247473  0.83085198  -0.00055786  1
  Ag  Ag34  1  0.83262660  0.82907676  0.66845747  1
  Ag  Ag35  1  0.51391800  0.66646529  0.17543019  1
  Ag  Ag36  1  0.33409467  0.83529474  0.82780466  1
  Ag  Ag37  1  0.66607992  0.66364433  0.32861486  1
  Ag  Ag38  1  -0.00167133  0.33478384  0.33117972  1
  Ag  Ag39  1  -0.00007288  0.66771496  0.66447216  1
  Ag  Ag40  1  0.17028922  0.32681793  0.50245950  1
  Ag  Ag41  1  0.82824930  0.66837919  0.50061233  1
  Ag  Ag42  1  0.16500984  0.83572638  0.00915905  1
  Ag  Ag43  1  0.16037065  0.50324717  0.33654175  1
  Ag  Ag44  1  0.50749438  0.66427470  0.49478787  1
  Ag  Ag45  1  0.50603140  0.33570920  0.17574122  1
  Ag  Ag46  1  0.00762048  0.16769360  0.49588862  1
  Ag  Ag47  1  0.50583758  0.17036788  0.33578863  1
  Ag  Ag48  1  0.16533571  0.16326850  -0.00142869  1
  Ag  Ag49  1  0.67460829  0.82524764  0.16353340  1
  Ag  Ag50  1  0.00175399  0.33114201  0.01295603  1
  Ag  Ag51  1  0.66830500  0.00214909  0.33513482  1
  Ag  Ag52  1  0.33826419  0.66761780  0.33762725  1
  Ag  Ag53  1  0.83135277  0.67015182  0.82143396  1
  Sb  Sb54  1  -0.00272270  0.66269101  0.33394840  1
  Sb  Sb55  1  0.49785195  0.16256658  0.00521085  1
  Sb  Sb56  1  -0.00067838  0.83227346  0.83612964  1
  Sb  Sb57  1  0.50587952  0.49781056  0.33439246  1
  Sb  Sb58  1  0.83195061  0.33380715  0.49826549  1
  Sb  Sb59  1  0.32901279  0.33015101  -0.00463732  1
  Sb  Sb60  1  0.00314369  0.17003821  0.83224632  1
  Sb  Sb61  1  0.33485582  0.49777212  0.49960619  1
  Sb  Sb62  1  -0.00397267  0.66630094  0.00273295  1
  Sb  Sb63  1  0.50225119  0.00107461  0.50102423  1
  Sb  Sb64  1  0.50090661  0.50579724  0.66267302  1
  Sb  Sb65  1  0.67030448  0.33516839  0.00804694  1
  Sb  Sb66  1  0.66902190  0.67352323  0.66252521  1
  Sb  Sb67  1  0.83181533  0.33592489  0.16911501  1
  Sb  Sb68  1  0.33041291  -0.00217326  -0.00461613  1
  Sb  Sb69  1  0.33171157  0.16697129  0.17096539  1
  Sb  Sb70  1  0.82772462  0.16941822  0.33318802  1
  Sb  Sb71  1  0.16762593  0.00227008  0.82841234  1
  Sb  Sb72  1  0.83394245  0.50757339  0.00518695  1
  Sb  Sb73  1  0.83642659  0.15998677  0.00265264  1
  Sb  Sb74  1  0.82842878  -0.00715248  0.83027412  1
  Sb  Sb75  1  0.00005838  0.50045503  0.83428861  1
  Sb  Sb76  1  0.50477985  -0.00388325  0.17055753  1
  Sb  Sb77  1  -0.00297765  0.49686853  0.49495760  1
  Sb  Sb78  1  0.16350405  0.50058133  0.00276007  1
  Sb  Sb79  1  0.67014186  0.50436628  0.83005765  1
  Sb  Sb80  1  0.66124029  0.32808096  0.65898890  1
  Sb  Sb81  1  0.16616308  0.66675997  0.49822992  1
  Sb  Sb82  1  0.83438865  0.82902588  0.33125546  1
  Sb  Sb83  1  0.00101668  0.83466198  0.49521769  1
  Sb  Sb84  1  -0.00507091  0.00417947  0.33202937  1
  Sb  Sb85  1  0.33464146  0.33683228  0.33870823  1
  Sb  Sb86  1  0.83552170  0.16410099  0.66423579  1
  Sb  Sb87  1  0.33434721  -0.00272148  0.33893964  1
  Sb  Sb88  1  0.33651773  0.67095004  0.00062942  1
  Sb  Sb89  1  0.00132728  -0.00480433  0.66241839  1
  Sb  Sb90  1  0.66818186  -0.00610932  0.00484369  1
  Sb  Sb91  1  0.00135703  0.00104755  0.00563116  1
  Sb  Sb92  1  0.33264757  0.83283798  0.16351911  1
  Sb  Sb93  1  0.16467161  0.66674896  0.83196183  1
  Sb  Sb94  1  0.49940012  0.83089709  0.33412087  1
  Sb  Sb95  1  0.49475248  0.16210358  0.65939889  1
  Sb  Sb96  1  0.16739116  0.16642315  0.33636681  1
  Sb  Sb97  1  0.83601712  0.33663821  0.83201375  1
  Sb  Sb98  1  0.49540718  0.32924963  0.82913579  1
  Sb  Sb99  1  0.33271599  0.50229714  0.17159625  1
  Sb  Sb100  1  0.50032903  -0.00197536  0.83142425  1
  Sb  Sb101  1  0.50404715  0.67100008  0.83125359  1
  Sb  Sb102  1  0.33244275  0.83526398  0.50724044  1
  Sb  Sb103  1  0.66805881  0.83314118  0.49887656  1
  Sb  Sb104  1  0.33087815  0.50190835  0.82746530  1
  Sb  Sb105  1  0.00672780  0.33693723  0.66128095  1
  Sb  Sb106  1  0.50331766  0.50603413  0.00525655  1
  Sb  Sb107  1  0.16563330  0.33340166  0.17117814  1
  Te  Te108  1  0.16430188  0.16574003  0.16564465  1
  Te  Te109  1  0.16652119  0.16601025  0.49922466  1
  Te  Te110  1  0.16841421  0.16835905  0.83354058  1
  Te  Te111  1  0.16297491  0.50175931  0.17021123  1
  Te  Te112  1  0.16507904  0.49828727  0.50074138  1
  Te  Te113  1  0.16643259  0.49368152  0.82866736  1
  Te  Te114  1  0.17016498  0.83426092  0.16698438  1
  Te  Te115  1  0.16530367  0.83806777  0.50677254  1
  Te  Te116  1  0.16821837  0.83419262  0.82698774  1
  Te  Te117  1  0.50135664  0.16749867  0.17016625  1
  Te  Te118  1  0.50690356  0.16784819  0.49751068  1
  Te  Te119  1  0.50102849  0.16656464  0.83573095  1
  Te  Te120  1  0.50509557  0.50232964  0.16760220  1
  Te  Te121  1  0.50725047  0.50057082  0.50036465  1
  Te  Te122  1  0.50065288  0.49905335  0.83429307  1
  Te  Te123  1  0.50067308  0.82847852  0.16533466  1
  Te  Te124  1  0.49954504  0.82688345  0.50384969  1
  Te  Te125  1  0.50263361  0.83257705  0.83250729  1
  Te  Te126  1  0.83573902  0.16246395  0.16634885  1
  Te  Te127  1  0.82916207  0.16226730  0.50026547  1
  Te  Te128  1  0.82738746  0.16671367  0.83355333  1
  Te  Te129  1  0.83369325  0.50216890  0.17027779  1
  Te  Te130  1  0.83101212  0.50046307  0.49789742  1
  Te  Te131  1  0.83356035  0.50775629  0.82882416  1
  Te  Te132  1  0.83412427  0.83274653  0.16923289  1
  Te  Te133  1  0.83512334  0.83427149  0.50253431  1
  Te  Te134  1  0.83154506  0.82966970  0.83101174  1
  Te  Te135  1  0.16666353  -0.00011894  0.00379622  1
  Te  Te136  1  0.16672950  -0.00263437  0.33616487  1
  Te  Te137  1  0.16758389  -0.00000848  0.66264147  1
  Te  Te138  1  0.16313443  0.33120284  0.00279917  1
  Te  Te139  1  0.16665043  0.33562142  0.33824971  1
  Te  Te140  1  0.16801840  0.33172549  0.66252576  1
  Te  Te141  1  0.16589603  0.66998547  0.00095476  1
  Te  Te142  1  0.16355608  0.66755050  0.33427943  1
  Te  Te143  1  0.16608389  0.66706357  0.66642759  1
  Te  Te144  1  0.49829241  -0.01033872  0.00206910  1
  Te  Te145  1  0.50573794  0.00382690  0.33413945  1
  Te  Te146  1  0.50114054  -0.00680804  0.66562570  1
  Te  Te147  1  0.50001878  0.33275130  0.00365998  1
  Te  Te148  1  0.50115896  0.33184772  0.33549758  1
  Te  Te149  1  0.49271539  0.33447096  0.66050891  1
  Te  Te150  1  0.50438397  0.67259626  0.00328767  1
  Te  Te151  1  0.49906338  0.66639998  0.33399008  1
  Te  Te152  1  0.49630505  0.67080183  0.66379497  1
  Te  Te153  1  0.83428993  -0.00865340  0.00598841  1
  Te  Te154  1  0.82807634  -0.00174847  0.33442212  1
  Te  Te155  1  0.83049878  -0.00402073  0.66259037  1
  Te  Te156  1  0.84037311  0.33342847  -0.00145685  1
  Te  Te157  1  0.83183029  0.34203773  0.33345219  1
  Te  Te158  1  0.83359221  0.33863758  0.66770906  1
  Te  Te159  1  0.83092558  0.67195360  0.00845202  1
  Te  Te160  1  0.83152148  0.66437027  0.33372922  1
  Te  Te161  1  0.83033244  0.66808674  0.66228377  1
  Te  Te162  1  0.00401110  0.17013804  0.00212914  1
  Te  Te163  1  -0.00018292  0.17209303  0.33363169  1
  Te  Te164  1  0.00456339  0.16715712  0.66225436  1
  Te  Te165  1  -0.00005640  0.49382907  0.00825349  1
  Te  Te166  1  0.00077708  0.49673438  0.33000556  1
  Te  Te167  1  0.00053435  0.50410066  0.66634283  1
  Te  Te168  1  0.00468120  0.83291783  0.00498672  1
  Te  Te169  1  0.00729625  0.83440065  0.32702001  1
  Te  Te170  1  -0.00295889  0.82895908  0.66728939  1
  Te  Te171  1  0.32780000  0.16498134  -0.00438582  1
  Te  Te172  1  0.34043759  0.16687396  0.33942686  1
  Te  Te173  1  0.33257717  0.16440917  0.66453122  1
  Te  Te174  1  0.33351362  0.50043069  -0.00192034  1
  Te  Te175  1  0.32175554  0.50716936  0.33455227  1
  Te  Te176  1  0.32806563  0.50437936  0.66538920  1
  Te  Te177  1  0.32490632  0.83319436  -0.00962545  1
  Te  Te178  1  0.32875799  0.82861909  0.33488931  1
  Te  Te179  1  0.33243611  0.83486977  0.66770372  1
  Te  Te180  1  0.66589186  0.16541292  -0.00387451  1
  Te  Te181  1  0.66729072  0.16920305  0.33386699  1
  Te  Te182  1  0.66592262  0.16178477  0.66825128  1
  Te  Te183  1  0.66824037  0.50454739  0.00407234  1
  Te  Te184  1  0.66722066  0.50011436  0.33367502  1
  Te  Te185  1  0.67082064  0.49770890  0.66134545  1
  Te  Te186  1  0.66917726  0.83260694  0.00011222  1
  Te  Te187  1  0.66548930  0.83127018  0.32744717  1
  Te  Te188  1  0.66811372  0.83691979  0.66653838  1
  Te  Te189  1  0.00010960  0.00041927  0.16857236  1
  Te  Te190  1  -0.00157896  0.00635501  0.49822315  1
  Te  Te191  1  -0.00251654  0.00228352  0.83292428  1
  Te  Te192  1  -0.00016912  0.32968234  0.17096543  1
  Te  Te193  1  0.00255170  0.32879615  0.49486796  1
  Te  Te194  1  0.00590669  0.33380694  0.83669027  1
  Te  Te195  1  0.00361164  0.66762855  0.16690934  1
  Te  Te196  1  -0.00636887  0.66612678  0.50417307  1
  Te  Te197  1  -0.00688636  0.66619768  0.82806996  1
  Te  Te198  1  0.32588311  0.00128507  0.16858282  1
  Te  Te199  1  0.33139698  0.00595271  0.50375311  1
  Te  Te200  1  0.33334124  0.00057303  0.82571646  1
  Te  Te201  1  0.34333811  0.33420716  0.16606057  1
  Te  Te202  1  0.33428965  0.33129465  0.50297667  1
  Te  Te203  1  0.32824995  0.32916566  0.82766488  1
  Te  Te204  1  0.32483007  0.66605256  0.16956367  1
  Te  Te205  1  0.33479416  0.66529863  0.49993010  1
  Te  Te206  1  0.33357880  0.67210714  0.82804358  1
  Te  Te207  1  0.66859435  0.00477414  0.17041263  1
  Te  Te208  1  0.66801490  0.00007824  0.49771877  1
  Te  Te209  1  0.66656018  -0.00106624  0.82820910  1
  Te  Te210  1  0.66566127  0.32420188  0.17066341  1
  Te  Te211  1  0.66430223  0.32975203  0.49533146  1
  Te  Te212  1  0.66583384  0.33089857  0.83423354  1
  Te  Te213  1  0.66860115  0.66925119  0.16922802  1
  Te  Te214  1  0.66786845  0.66660774  0.49662182  1
  Te  Te215  1  0.67080324  0.67125220  0.83392536  1
