# generated using pymatgen
data_AgSbTe2
_symmetry_space_group_name_H-M   'P 1'
_cell_length_a   18.32375216
_cell_length_b   18.32468744
_cell_length_c   18.32604050
_cell_angle_alpha   89.99879499
_cell_angle_beta   90.00305861
_cell_angle_gamma   89.99788799
_symmetry_Int_Tables_number   1
_chemical_formula_structural   AgSbTe2
_chemical_formula_sum   'Ag54 Sb54 Te108'
_cell_volume   6153.46345719
_cell_formula_units_Z   54
loop_
 _symmetry_equiv_pos_site_id
 _symmetry_equiv_pos_as_xyz
  1  'x, y, z'
loop_
 _atom_site_type_symbol
 _atom_site_label
 _atom_site_symmetry_multiplicity
 _atom_site_fract_x
 _atom_site_fract_y
 _atom_site_fract_z
 _atom_site_occupancy
  Ag  Ag0  1  0.33001455  0.17255384  0.50420004  1
  Ag  Ag1  1  0.83912137  -0.00054194  0.50998589  1
  Ag  Ag2  1  0.00008997  0.33222043  0.66934093  1
  Ag  Ag3  1  -0.00263049  0.50139659  0.16320952  1
  Ag  Ag4  1  0.00226062  0.83320941  0.51136382  1
  Ag  Ag5  1  0.16326862  0.82814149  -0.00948169  1
  Ag  Ag6  1  0.67018231  -0.00085460  -0.00376246  1
  Ag  Ag7  1  0.49437850  0.50364066  0.33072010  1
  Ag  Ag8  1  0.83959427  0.66011102  0.15996028  1
  Ag  Ag9  1  0.83509003  0.82761869  -0.00159816  1
  Ag  Ag10  1  0.33137606  0.66197792  0.33040605  1
  Ag  Ag11  1  0.83254969  0.34207055  0.16280047  1
  Ag  Ag12  1  0.67123595  0.49901844  0.15765346  1
  Ag  Ag13  1  0.49752736  0.16910211  0.66932920  1
  Ag  Ag14  1  0.00493726  0.67260541  0.67398922  1
  Ag  Ag15  1  0.83572114  0.16743031  0.67758003  1
  Ag  Ag16  1  0.32185835  0.82704160  0.83698272  1
  Ag  Ag17  1  0.48890902  0.66380887  0.49732019  1
  Ag  Ag18  1  0.33464346  0.00216209  -0.00339323  1
  Ag  Ag19  1  0.82367819  0.50608016  0.00298595  1
  Ag  Ag20  1  0.16863094  0.66732440  0.50496019  1
  Ag  Ag21  1  0.83427667  0.00228964  0.83372838  1
  Ag  Ag22  1  0.33641434  0.34221475  -0.00465312  1
  Ag  Ag23  1  0.16245154  0.82499296  0.67327447  1
  Ag  Ag24  1  0.66739886  0.34342295  -0.00437090  1
  Ag  Ag25  1  0.17568959  0.50360657  0.33451684  1
  Ag  Ag26  1  0.67375514  0.65616822  -0.00142130  1
  Ag  Ag27  1  0.33253893  0.33320812  0.67273285  1
  Ag  Ag28  1  0.33378961  0.50043834  0.84228496  1
  Ag  Ag29  1  -0.00670593  0.16168076  0.83317964  1
  Ag  Ag30  1  0.66817717  0.33828433  0.32749523  1
  Ag  Ag31  1  0.66456959  0.49801760  0.84422415  1
  Ag  Ag32  1  0.67614629  0.16982869  0.83449555  1
  Ag  Ag33  1  0.33096617  0.16958515  0.83504757  1
  Ag  Ag34  1  0.00242990  0.17222361  0.15761813  1
  Ag  Ag35  1  0.33179070  0.49959718  0.15912300  1
  Ag  Ag36  1  0.16956238  0.17188975  0.33316400  1
  Ag  Ag37  1  0.16339395  -0.00656514  0.50241077  1
  Ag  Ag38  1  -0.00005355  -0.00253329  0.66857471  1
  Ag  Ag39  1  0.83188303  0.16616034  -0.00436338  1
  Ag  Ag40  1  0.00277535  0.66691964  -0.00200433  1
  Ag  Ag41  1  0.33406034  0.50143657  0.49705465  1
  Ag  Ag42  1  0.50160911  0.82190412  0.33606885  1
  Ag  Ag43  1  0.16803387  0.50571191  0.66327217  1
  Ag  Ag44  1  0.00374960  0.83297415  0.83026472  1
  Ag  Ag45  1  0.16697422  0.66951228  0.83531896  1
  Ag  Ag46  1  0.66750432  0.33365355  0.67516126  1
  Ag  Ag47  1  0.32768425  0.66104532  0.00032366  1
  Ag  Ag48  1  0.67418031  0.83208227  0.83738735  1
  Ag  Ag49  1  0.50967820  0.50145739  0.00346480  1
  Ag  Ag50  1  0.16451572  0.66388621  0.15839789  1
  Ag  Ag51  1  0.83213681  0.83195087  0.32741199  1
  Ag  Ag52  1  0.66180531  0.50031756  0.49856276  1
  Ag  Ag53  1  0.32732615  0.17624433  0.15885755  1
  Sb  Sb54  1  0.33160115  -0.00326073  0.33075274  1
  Sb  Sb55  1  0.32445394  0.65875365  0.66920433  1
  Sb  Sb56  1  0.16799414  0.33705780  0.50116138  1
  Sb  Sb57  1  0.66894173  0.00268745  0.32885541  1
  Sb  Sb58  1  0.66239229  0.66098762  0.32831731  1
  Sb  Sb59  1  0.00127681  0.50263570  0.83693164  1
  Sb  Sb60  1  0.16320663  -0.00547539  0.82902473  1
  Sb  Sb61  1  0.00370075  0.16196135  0.50447877  1
  Sb  Sb62  1  0.83450171  -0.00067125  0.15989719  1
  Sb  Sb63  1  -0.00026192  0.83018567  0.16191992  1
  Sb  Sb64  1  0.83135354  0.32816637  0.83921865  1
  Sb  Sb65  1  0.50058458  0.82682672  0.00113231  1
  Sb  Sb66  1  -0.00226664  0.33648551  -0.00275891  1
  Sb  Sb67  1  0.16928311  0.50820547  0.00054483  1
  Sb  Sb68  1  0.49773831  -0.00397240  0.50061940  1
  Sb  Sb69  1  0.16634419  0.82784289  0.33518934  1
  Sb  Sb70  1  0.83114586  0.32999326  0.49886825  1
  Sb  Sb71  1  0.16625571  0.16126687  0.00164005  1
  Sb  Sb72  1  0.83110219  0.50465447  0.32567417  1
  Sb  Sb73  1  0.83756327  0.67019336  0.49593430  1
  Sb  Sb74  1  0.49936635  0.34129973  0.50076350  1
  Sb  Sb75  1  0.49409358  0.17182592  0.33721240  1
  Sb  Sb76  1  0.00038249  -0.00081401  0.33880859  1
  Sb  Sb77  1  0.16886128  0.33918179  0.83283464  1
  Sb  Sb78  1  0.49817368  0.00021737  0.16399710  1
  Sb  Sb79  1  0.50040782  0.17276576  -0.00505644  1
  Sb  Sb80  1  0.16461711  0.16809251  0.66523564  1
  Sb  Sb81  1  0.83583704  0.49441192  0.67305100  1
  Sb  Sb82  1  0.49685928  0.66188104  0.16807651  1
  Sb  Sb83  1  0.83905323  0.67192813  0.84076195  1
  Sb  Sb84  1  0.49498783  0.49635024  0.66686286  1
  Sb  Sb85  1  0.33233836  0.82738534  0.16054343  1
  Sb  Sb86  1  0.49477567  0.83403462  0.66567647  1
  Sb  Sb87  1  0.66272711  0.17085951  0.50746204  1
  Sb  Sb88  1  0.16451199  0.34120681  0.16562119  1
  Sb  Sb89  1  0.50360228  0.00073435  0.83371109  1
  Sb  Sb90  1  0.66927179  0.17519365  0.15744877  1
  Sb  Sb91  1  0.32732126  0.00560793  0.67201097  1
  Sb  Sb92  1  -0.00087647  -0.00432226  -0.00641645  1
  Sb  Sb93  1  0.33596917  0.34136880  0.33169441  1
  Sb  Sb94  1  0.83615387  0.16315221  0.32953474  1
  Sb  Sb95  1  -0.00322733  0.33449467  0.33443629  1
  Sb  Sb96  1  0.16607275  -0.00280462  0.16860308  1
  Sb  Sb97  1  0.49462050  0.66493483  0.83171900  1
  Sb  Sb98  1  0.50282246  0.33719235  0.16555096  1
  Sb  Sb99  1  0.50025953  0.33398612  0.83280715  1
  Sb  Sb100  1  0.00311653  0.50495760  0.49945677  1
  Sb  Sb101  1  0.67472140  0.00502812  0.67360493  1
  Sb  Sb102  1  0.84049572  0.83683538  0.67230891  1
  Sb  Sb103  1  0.00564550  0.66588856  0.32926887  1
  Sb  Sb104  1  0.66813190  0.82501607  0.16003093  1
  Sb  Sb105  1  0.67146729  0.82868101  0.50441290  1
  Sb  Sb106  1  0.32643445  0.82916233  0.50481846  1
  Sb  Sb107  1  0.67209921  0.66074247  0.67345740  1
  Te  Te108  1  0.16655191  0.16552095  0.16930278  1
  Te  Te109  1  0.17026699  0.16578737  0.49751625  1
  Te  Te110  1  0.17053814  0.16586820  0.83310472  1
  Te  Te111  1  0.16919082  0.50445714  0.16942435  1
  Te  Te112  1  0.16813565  0.50388876  0.49888624  1
  Te  Te113  1  0.16922846  0.50582671  0.82831957  1
  Te  Te114  1  0.16594213  0.82617588  0.16445316  1
  Te  Te115  1  0.16231894  0.83168810  0.50047166  1
  Te  Te116  1  0.16474878  0.83217021  0.83300952  1
  Te  Te117  1  0.49097085  0.16769023  0.16821967  1
  Te  Te118  1  0.49336865  0.16418629  0.50532599  1
  Te  Te119  1  0.49294408  0.16587884  0.82846177  1
  Te  Te120  1  0.49550795  0.50016692  0.16688943  1
  Te  Te121  1  0.49770291  0.50515326  0.49995374  1
  Te  Te122  1  0.49893571  0.50108864  0.83644217  1
  Te  Te123  1  0.50061627  0.83238535  0.17591273  1
  Te  Te124  1  0.50058024  0.82767627  0.49721469  1
  Te  Te125  1  0.50074986  0.83293395  0.83241860  1
  Te  Te126  1  0.83730577  0.16739085  0.16291619  1
  Te  Te127  1  0.83277051  0.16055516  0.49917442  1
  Te  Te128  1  0.83420153  0.16474398  0.83499463  1
  Te  Te129  1  0.83398260  0.50143688  0.16440772  1
  Te  Te130  1  0.83083409  0.50002109  0.49920266  1
  Te  Te131  1  0.82934069  0.50040245  0.84064839  1
  Te  Te132  1  0.83312432  0.83057937  0.16328774  1
  Te  Te133  1  0.83803039  0.83790025  0.50108491  1
  Te  Te134  1  0.83355423  0.83737956  0.83769855  1
  Te  Te135  1  0.17154596  -0.00985695  0.00050214  1
  Te  Te136  1  0.16766915  0.00251515  0.34006091  1
  Te  Te137  1  0.16083726  -0.00338417  0.66159679  1
  Te  Te138  1  0.17402480  0.33096848  -0.00005402  1
  Te  Te139  1  0.16622178  0.33263062  0.33342144  1
  Te  Te140  1  0.16804608  0.33914112  0.66643729  1
  Te  Te141  1  0.16654073  0.66868802  -0.00116364  1
  Te  Te142  1  0.17128354  0.66373884  0.33570090  1
  Te  Te143  1  0.16406588  0.66608110  0.66636015  1
  Te  Te144  1  0.49704015  -0.00159562  0.00001497  1
  Te  Te145  1  0.50103096  -0.00479998  0.33353898  1
  Te  Te146  1  0.50140352  0.00713981  0.66534407  1
  Te  Te147  1  0.49965503  0.34020558  0.00033285  1
  Te  Te148  1  0.50819675  0.33972621  0.33385058  1
  Te  Te149  1  0.50041864  0.32818285  0.66568537  1
  Te  Te150  1  0.49764676  0.66145497  -0.00042475  1
  Te  Te151  1  0.49646814  0.66342017  0.33503890  1
  Te  Te152  1  0.50283009  0.66732725  0.65821882  1
  Te  Te153  1  0.83239704  0.00162938  -0.00410913  1
  Te  Te154  1  0.83246951  -0.00618891  0.33505099  1
  Te  Te155  1  0.83856255  0.00357577  0.66852939  1
  Te  Te156  1  0.83298167  0.32983634  0.00415962  1
  Te  Te157  1  0.82843085  0.33228472  0.32741834  1
  Te  Te158  1  0.83317035  0.32814840  0.66569694  1
  Te  Te159  1  0.83288768  0.66721551  0.00061103  1
  Te  Te160  1  0.83384764  0.67254500  0.32732613  1
  Te  Te161  1  0.84222698  0.66400651  0.66571786  1
  Te  Te162  1  -0.00143670  0.16682070  -0.00306984  1
  Te  Te163  1  0.00539579  0.16762666  0.33111035  1
  Te  Te164  1  -0.00238465  0.16798111  0.66953577  1
  Te  Te165  1  -0.00243775  0.50317742  0.00363026  1
  Te  Te166  1  0.00489353  0.49883583  0.32757406  1
  Te  Te167  1  0.00387306  0.49769417  0.66818912  1
  Te  Te168  1  -0.00173922  0.82934798  -0.00284923  1
  Te  Te169  1  -0.00511423  0.83330541  0.33271129  1
  Te  Te170  1  0.00166421  0.83255150  0.66989614  1
  Te  Te171  1  0.33439733  0.16708388  -0.00096336  1
  Te  Te172  1  0.33101174  0.16695198  0.33519393  1
  Te  Te173  1  0.33198312  0.17058485  0.66833746  1
  Te  Te174  1  0.32964769  0.50045623  -0.00056971  1
  Te  Te175  1  0.33417884  0.50103850  0.33627672  1
  Te  Te176  1  0.33087270  0.49412464  0.66599044  1
  Te  Te177  1  0.33477159  0.82928480  -0.00378263  1
  Te  Te178  1  0.33604908  0.82766405  0.33304720  1
  Te  Te179  1  0.32822384  0.83592994  0.67399645  1
  Te  Te180  1  0.66736418  0.16512273  -0.00513723  1
  Te  Te181  1  0.66479231  0.17293390  0.33243902  1
  Te  Te182  1  0.67060255  0.17117850  0.67162819  1
  Te  Te183  1  0.66662319  0.49998043  0.00092420  1
  Te  Te184  1  0.66491242  0.49786605  0.33697396  1
  Te  Te185  1  0.66711106  0.49444613  0.66477465  1
  Te  Te186  1  0.66754377  0.83713991  -0.00363201  1
  Te  Te187  1  0.66823929  0.83294604  0.33397733  1
  Te  Te188  1  0.66518405  0.83229338  0.67431016  1
  Te  Te189  1  0.00056101  0.00884352  0.16606422  1
  Te  Te190  1  0.00010806  -0.00361052  0.50466470  1
  Te  Te191  1  -0.00276010  0.00089986  0.82975729  1
  Te  Te192  1  -0.00440422  0.33340535  0.16621001  1
  Te  Te193  1  -0.00149019  0.33354172  0.50758355  1
  Te  Te194  1  0.00109901  0.32958582  0.82904829  1
  Te  Te195  1  0.00102922  0.66430787  0.16258381  1
  Te  Te196  1  0.00442929  0.67158883  0.50119791  1
  Te  Te197  1  0.00436427  0.66854530  0.83539132  1
  Te  Te198  1  0.33168034  0.00452919  0.16064643  1
  Te  Te199  1  0.32906650  0.00123760  0.49999578  1
  Te  Te200  1  0.33285559  0.00167374  0.83763622  1
  Te  Te201  1  0.33200662  0.33558567  0.16411440  1
  Te  Te202  1  0.33377945  0.33392649  0.50194635  1
  Te  Te203  1  0.33318597  0.33590939  0.83360074  1
  Te  Te204  1  0.33037168  0.66237634  0.16482125  1
  Te  Te205  1  0.33019784  0.66452497  0.50162615  1
  Te  Te206  1  0.32955245  0.66512981  0.83516017  1
  Te  Te207  1  0.66605801  0.00200325  0.15888308  1
  Te  Te208  1  0.67087595  -0.00039554  0.49942274  1
  Te  Te209  1  0.67028138  0.00181001  0.83726845  1
  Te  Te210  1  0.67036140  0.33809675  0.16108093  1
  Te  Te211  1  0.66620946  0.33840001  0.50417066  1
  Te  Te212  1  0.66623837  0.33379617  0.83501682  1
  Te  Te213  1  0.66979410  0.65963819  0.16073228  1
  Te  Te214  1  0.66853857  0.66107826  0.50099953  1
  Te  Te215  1  0.66549404  0.66489163  0.83818683  1
