# generated using pymatgen
data_AgSbTe2
_symmetry_space_group_name_H-M   'P 1'
_cell_length_a   18.32577469
_cell_length_b   18.32477472
_cell_length_c   18.32019403
_cell_angle_alpha   89.99889000
_cell_angle_beta   89.99956236
_cell_angle_gamma   90.00509361
_symmetry_Int_Tables_number   1
_chemical_formula_structural   AgSbTe2
_chemical_formula_sum   'Ag54 Sb54 Te108'
_cell_volume   6152.20862601
_cell_formula_units_Z   54
loop_
 _symmetry_equiv_pos_site_id
 _symmetry_equiv_pos_as_xyz
  1  'x, y, z'
loop_
 _atom_site_type_symbol
 _atom_site_label
 _atom_site_symmetry_multiplicity
 _atom_site_fract_x
 _atom_site_fract_y
 _atom_site_fract_z
 _atom_site_occupancy
  Ag  Ag0  1  0.83700754  -0.00483223  0.83756437  1
  Ag  Ag1  1  0.00377091  -0.01012164  0.67332130  1
  Ag  Ag2  1  0.49919152  0.66926710  0.82959699  1
  Ag  Ag3  1  0.00410899  0.50655772  0.50372757  1
  Ag  Ag4  1  0.83283701  0.33627563  0.49796244  1
  Ag  Ag5  1  0.84161326  0.66848422  0.83595229  1
  Ag  Ag6  1  0.66790362  0.83153675  0.50572709  1
  Ag  Ag7  1  0.16900610  0.66933743  0.50340519  1
  Ag  Ag8  1  0.66350275  0.33535236  0.00271030  1
  Ag  Ag9  1  0.49402876  0.66540168  0.50922898  1
  Ag  Ag10  1  0.83155862  0.50372073  0.00459534  1
  Ag  Ag11  1  0.33686568  0.33344121  0.00378791  1
  Ag  Ag12  1  0.50784390  -0.00667015  0.15494458  1
  Ag  Ag13  1  0.15751693  0.83148145  0.66467401  1
  Ag  Ag14  1  0.66357842  0.50269038  0.16251407  1
  Ag  Ag15  1  0.49474102  0.50306497  0.32405596  1
  Ag  Ag16  1  0.83228876  0.65842442  0.15828093  1
  Ag  Ag17  1  0.50196008  0.83115686  -0.00290949  1
  Ag  Ag18  1  0.33323351  0.00171048  0.67205227  1
  Ag  Ag19  1  0.16609251  0.66037756  0.16567784  1
  Ag  Ag20  1  0.00511402  0.16462174  0.83693731  1
  Ag  Ag21  1  0.00003927  0.82421497  0.50852136  1
  Ag  Ag22  1  -0.00283767  0.50157121  0.16123123  1
  Ag  Ag23  1  0.33101086  0.16501074  0.82979328  1
  Ag  Ag24  1  0.82676299  -0.00085168  0.15650801  1
  Ag  Ag25  1  0.34376601  0.00533808  -0.00550949  1
  Ag  Ag26  1  0.16700680  -0.01009286  0.50499885  1
  Ag  Ag27  1  0.33517295  0.65882055  0.33302218  1
  Ag  Ag28  1  0.50033850  0.51163724  0.66863349  1
  Ag  Ag29  1  0.50363143  0.50719341  0.00446560  1
  Ag  Ag30  1  -0.00003470  0.51002354  0.83555273  1
  Ag  Ag31  1  0.65995647  0.66791472  0.66659629  1
  Ag  Ag32  1  0.50190928  0.82900756  0.67175406  1
  Ag  Ag33  1  0.33189965  0.34107598  0.32616275  1
  Ag  Ag34  1  0.16549967  0.34150161  0.16181010  1
  Ag  Ag35  1  0.33270239  0.17020431  0.50467856  1
  Ag  Ag36  1  -0.00357261  0.17143116  0.15888778  1
  Ag  Ag37  1  0.66530515  0.34031071  0.67158175  1
  Ag  Ag38  1  0.83396905  0.33966682  0.16503932  1
  Ag  Ag39  1  0.16631481  0.33579780  0.83763835  1
  Ag  Ag40  1  -0.00497578  -0.00479007  -0.00583303  1
  Ag  Ag41  1  0.33923163  0.50005202  0.16982264  1
  Ag  Ag42  1  0.15770341  0.66238622  0.82928015  1
  Ag  Ag43  1  0.66239383  0.00139614  0.00225625  1
  Ag  Ag44  1  0.83908359  0.83018173  0.66719831  1
  Ag  Ag45  1  0.66980823  0.16710489  0.16391105  1
  Ag  Ag46  1  0.49832157  0.16150199  0.66885905  1
  Ag  Ag47  1  0.49958790  -0.00570967  0.83726298  1
  Ag  Ag48  1  -0.00160985  0.67101724  0.67371339  1
  Ag  Ag49  1  0.50268029  0.66243677  0.16243652  1
  Ag  Ag50  1  -0.00313708  0.66617379  -0.00760260  1
  Ag  Ag51  1  0.16909015  0.16765370  0.33210765  1
  Ag  Ag52  1  0.66526273  0.83001664  0.16536631  1
  Ag  Ag53  1  0.33414427  0.50172107  0.49394364  1
  Sb  Sb54  1  0.33747060  0.32993819  0.66793627  1
  Sb  Sb55  1  0.49559211  -0.00727404  0.50636952  1
  Sb  Sb56  1  0.16600971  -0.00101918  0.82939054  1
  Sb  Sb57  1  0.16609970  0.16740530  0.00128443  1
  Sb  Sb58  1  0.17083074  0.16141552  0.66542757  1
  Sb  Sb59  1  0.83061708  0.50560556  0.67140544  1
  Sb  Sb60  1  0.82808216  0.83186185  -0.00340364  1
  Sb  Sb61  1  0.16588001  0.33733485  0.49982474  1
  Sb  Sb62  1  0.66547430  0.50361578  0.49907201  1
  Sb  Sb63  1  0.49568116  0.33401795  0.83410601  1
  Sb  Sb64  1  0.33468226  0.66265332  0.00258822  1
  Sb  Sb65  1  0.83812586  0.16821306  0.32891590  1
  Sb  Sb66  1  0.66503539  -0.00017502  0.32310543  1
  Sb  Sb67  1  -0.00500582  0.82968007  0.16800551  1
  Sb  Sb68  1  0.66159771  0.16420785  0.49878090  1
  Sb  Sb69  1  0.33133374  0.49677961  0.83501392  1
  Sb  Sb70  1  0.66085431  0.66532723  0.33256662  1
  Sb  Sb71  1  0.83391050  0.16657002  0.00113021  1
  Sb  Sb72  1  0.66284086  0.33558886  0.32853920  1
  Sb  Sb73  1  -0.00091242  0.33782073  0.00161615  1
  Sb  Sb74  1  0.83012177  0.50060692  0.32648459  1
  Sb  Sb75  1  0.16580807  0.50032594  0.00193034  1
  Sb  Sb76  1  0.66502141  0.16525681  0.83733376  1
  Sb  Sb77  1  0.00600221  0.66384910  0.33324260  1
  Sb  Sb78  1  -0.00029644  0.83179410  0.82892047  1
  Sb  Sb79  1  0.49968976  0.16304644  -0.00260529  1
  Sb  Sb80  1  0.66771903  0.66626005  -0.00095726  1
  Sb  Sb81  1  -0.00420493  0.33645714  0.66899989  1
  Sb  Sb82  1  0.33344270  0.00130786  0.33327552  1
  Sb  Sb83  1  0.00605444  0.33497414  0.32994720  1
  Sb  Sb84  1  0.49995802  0.33839665  0.16368293  1
  Sb  Sb85  1  0.33319244  0.17233974  0.16453780  1
  Sb  Sb86  1  0.82998461  0.16327188  0.66834469  1
  Sb  Sb87  1  0.33576061  0.83746298  0.83190840  1
  Sb  Sb88  1  0.00115410  0.00104882  0.33141351  1
  Sb  Sb89  1  0.16971389  0.83088780  -0.00499482  1
  Sb  Sb90  1  0.16577557  -0.00008149  0.16759346  1
  Sb  Sb91  1  0.83744504  0.00009687  0.50386154  1
  Sb  Sb92  1  0.83260109  0.83158214  0.33466360  1
  Sb  Sb93  1  0.49403781  0.17145381  0.33437664  1
  Sb  Sb94  1  0.83747181  0.33516846  0.83786679  1
  Sb  Sb95  1  0.33296738  0.82924027  0.50314429  1
  Sb  Sb96  1  0.33424258  0.67067796  0.66568821  1
  Sb  Sb97  1  0.17437599  0.49808843  0.33036497  1
  Sb  Sb98  1  0.83509715  0.66404425  0.50244327  1
  Sb  Sb99  1  0.66513941  -0.00520644  0.67300895  1
  Sb  Sb100  1  0.00512934  0.16751384  0.50200773  1
  Sb  Sb101  1  0.49989041  0.82723006  0.33227051  1
  Sb  Sb102  1  0.66809368  0.50155992  0.83819979  1
  Sb  Sb103  1  0.50163355  0.34153307  0.50296380  1
  Sb  Sb104  1  0.16988984  0.50571320  0.66646176  1
  Sb  Sb105  1  0.16681249  0.83383337  0.33764954  1
  Sb  Sb106  1  0.33891010  0.82760789  0.16405931  1
  Sb  Sb107  1  0.66515234  0.83155003  0.83316460  1
  Te  Te108  1  0.16389390  0.16754991  0.16964141  1
  Te  Te109  1  0.17102442  0.16980262  0.49764238  1
  Te  Te110  1  0.16632104  0.16903763  0.83281595  1
  Te  Te111  1  0.16329353  0.50044008  0.16684032  1
  Te  Te112  1  0.16590361  0.50504925  0.49941926  1
  Te  Te113  1  0.16249349  0.50204364  0.83343903  1
  Te  Te114  1  0.16535674  0.82667156  0.16806647  1
  Te  Te115  1  0.16563633  0.83066007  0.50372363  1
  Te  Te116  1  0.16921949  0.82309619  0.82680510  1
  Te  Te117  1  0.50357113  0.16224633  0.16694791  1
  Te  Te118  1  0.49408160  0.16462828  0.50382285  1
  Te  Te119  1  0.49715697  0.16288354  0.82932103  1
  Te  Te120  1  0.49875690  0.50026658  0.16351473  1
  Te  Te121  1  0.49957873  0.50624577  0.50611242  1
  Te  Te122  1  0.49983940  0.50347523  0.83130285  1
  Te  Te123  1  0.50394503  0.83190868  0.16553689  1
  Te  Te124  1  0.50326177  0.82623718  0.50192111  1
  Te  Te125  1  0.50040122  0.83264908  0.83496293  1
  Te  Te126  1  0.83525982  0.16759111  0.16681884  1
  Te  Te127  1  0.83237454  0.17267738  0.49856677  1
  Te  Te128  1  0.83916430  0.16272823  0.83331883  1
  Te  Te129  1  0.83544944  0.50020215  0.16465577  1
  Te  Te130  1  0.83496694  0.49603449  0.49907439  1
  Te  Te131  1  0.83838024  0.50365377  0.83938157  1
  Te  Te132  1  0.82814659  0.83459059  0.16704415  1
  Te  Te133  1  0.83255002  0.83341405  0.50510988  1
  Te  Te134  1  0.83150671  0.83185948  0.82855195  1
  Te  Te135  1  0.16378194  -0.00253358  -0.00098827  1
  Te  Te136  1  0.16703663  0.00471235  0.34076901  1
  Te  Te137  1  0.16631046  -0.00480539  0.66432313  1
  Te  Te138  1  0.17026987  0.33371842  0.00158647  1
  Te  Te139  1  0.17254817  0.32929644  0.33086518  1
  Te  Te140  1  0.16607902  0.33394700  0.67251141  1
  Te  Te141  1  0.16349344  0.66780598  0.00059364  1
  Te  Te142  1  0.17323898  0.66691492  0.33387619  1
  Te  Te143  1  0.16656973  0.67050736  0.66614943  1
  Te  Te144  1  0.50085604  0.00035214  -0.00182888  1
  Te  Te145  1  0.49832854  0.00084451  0.32778766  1
  Te  Te146  1  0.49844612  -0.00176402  0.67094042  1
  Te  Te147  1  0.50128520  0.33777494  -0.00176337  1
  Te  Te148  1  0.49248849  0.33975441  0.33510126  1
  Te  Te149  1  0.50579079  0.33073822  0.66791657  1
  Te  Te150  1  0.50000572  0.66814676  0.00068167  1
  Te  Te151  1  0.49526953  0.66239762  0.32913351  1
  Te  Te152  1  0.49827255  0.66830173  0.66843661  1
  Te  Te153  1  0.83479028  -0.00174326  -0.00146957  1
  Te  Te154  1  0.83358785  0.00010123  0.32552002  1
  Te  Te155  1  0.83528159  -0.00475265  0.67077366  1
  Te  Te156  1  0.82970727  0.33911645  0.00434956  1
  Te  Te157  1  0.83291115  0.33332518  0.32947797  1
  Te  Te158  1  0.82654274  0.33363859  0.66791995  1
  Te  Te159  1  0.83431341  0.66586453  -0.00195019  1
  Te  Te160  1  0.83277005  0.66659271  0.32210548  1
  Te  Te161  1  0.83633866  0.67005685  0.66904083  1
  Te  Te162  1  0.00008949  0.16272642  -0.00028137  1
  Te  Te163  1  0.00735364  0.16711804  0.32914230  1
  Te  Te164  1  -0.00056526  0.16438487  0.67109890  1
  Te  Te165  1  -0.00200473  0.50357986  0.00059464  1
  Te  Te166  1  -0.00151733  0.49940543  0.33396890  1
  Te  Te167  1  -0.00043648  0.50478808  0.66777951  1
  Te  Te168  1  0.00061568  0.83228021  0.00189776  1
  Te  Te169  1  -0.00020791  0.83368162  0.34730364  1
  Te  Te170  1  -0.00021353  0.83200050  0.66528742  1
  Te  Te171  1  0.33303310  0.16736497  -0.00409454  1
  Te  Te172  1  0.33010817  0.16971779  0.33688425  1
  Te  Te173  1  0.33656559  0.16326600  0.66723482  1
  Te  Te174  1  0.33856613  0.49565117  0.00287045  1
  Te  Te175  1  0.33622978  0.49974148  0.33337450  1
  Te  Te176  1  0.33909615  0.49856716  0.66347807  1
  Te  Te177  1  0.34002105  0.84168325  -0.00066807  1
  Te  Te178  1  0.33289842  0.82649332  0.33329478  1
  Te  Te179  1  0.34126450  0.84189295  0.66564275  1
  Te  Te180  1  0.66640664  0.16933367  0.00481568  1
  Te  Te181  1  0.66485066  0.16795477  0.32567636  1
  Te  Te182  1  0.66082457  0.16764482  0.66605699  1
  Te  Te183  1  0.66583250  0.49908441  0.00323194  1
  Te  Te184  1  0.65767501  0.50000583  0.32561734  1
  Te  Te185  1  0.66301243  0.50128364  0.66640674  1
  Te  Te186  1  0.66212787  0.83752097  0.00604319  1
  Te  Te187  1  0.66685048  0.83307939  0.33520738  1
  Te  Te188  1  0.66246456  0.83085810  0.66590331  1
  Te  Te189  1  -0.00190088  -0.00033336  0.16319780  1
  Te  Te190  1  0.00348645  0.00073522  0.50418088  1
  Te  Te191  1  0.00057309  0.00048079  0.83313002  1
  Te  Te192  1  0.00119066  0.33382278  0.16486294  1
  Te  Te193  1  -0.00439463  0.33786723  0.50058484  1
  Te  Te194  1  0.00539446  0.32909012  0.83491429  1
  Te  Te195  1  0.00130259  0.66461483  0.16621140  1
  Te  Te196  1  0.00093802  0.66489341  0.49989897  1
  Te  Te197  1  -0.00085926  0.66718881  0.83317762  1
  Te  Te198  1  0.33502287  0.00059052  0.16285339  1
  Te  Te199  1  0.32955567  0.00281316  0.50135637  1
  Te  Te200  1  0.33296680  0.00419172  0.83346158  1
  Te  Te201  1  0.33098831  0.33644192  0.16454742  1
  Te  Te202  1  0.33296034  0.33632144  0.49943110  1
  Te  Te203  1  0.32791145  0.32879871  0.83716568  1
  Te  Te204  1  0.33230031  0.66142522  0.16712066  1
  Te  Te205  1  0.33334007  0.66310244  0.49986287  1
  Te  Te206  1  0.33752505  0.66470279  0.83424234  1
  Te  Te207  1  0.66741114  -0.00062752  0.16175160  1
  Te  Te208  1  0.66704549  -0.00571561  0.49891122  1
  Te  Te209  1  0.66693089  0.00098081  0.84104806  1
  Te  Te210  1  0.66843902  0.33505167  0.16399577  1
  Te  Te211  1  0.67138490  0.33211518  0.50158404  1
  Te  Te212  1  0.66817950  0.33248655  0.83503277  1
  Te  Te213  1  0.66504045  0.66564319  0.16607889  1
  Te  Te214  1  0.66748719  0.67026371  0.50339932  1
  Te  Te215  1  0.66281444  0.66533671  0.82718894  1
