# generated using pymatgen
data_AgSbTe2
_symmetry_space_group_name_H-M   'P 1'
_cell_length_a   18.33761457
_cell_length_b   18.32720482
_cell_length_c   18.33318153
_cell_angle_alpha   89.99684139
_cell_angle_beta   89.99832582
_cell_angle_gamma   89.99822246
_symmetry_Int_Tables_number   1
_chemical_formula_structural   AgSbTe2
_chemical_formula_sum   'Ag54 Sb54 Te108'
_cell_volume   6161.36463441
_cell_formula_units_Z   54
loop_
 _symmetry_equiv_pos_site_id
 _symmetry_equiv_pos_as_xyz
  1  'x, y, z'
loop_
 _atom_site_type_symbol
 _atom_site_label
 _atom_site_symmetry_multiplicity
 _atom_site_fract_x
 _atom_site_fract_y
 _atom_site_fract_z
 _atom_site_occupancy
  Ag  Ag0  1  0.49744375  0.49687936  0.33873719  1
  Ag  Ag1  1  -0.00685856  0.66747271  -0.00383748  1
  Ag  Ag2  1  0.83646336  0.16143786  -0.00306892  1
  Ag  Ag3  1  0.34287517  0.49971681  0.82664975  1
  Ag  Ag4  1  0.17674106  0.49983764  0.66861420  1
  Ag  Ag5  1  0.33844285  0.49364916  0.50780683  1
  Ag  Ag6  1  0.50343902  0.65955652  0.83504002  1
  Ag  Ag7  1  0.15566028  0.66309068  0.16746984  1
  Ag  Ag8  1  0.33445328  0.00371074  0.67271559  1
  Ag  Ag9  1  0.83047455  0.82496897  0.67668661  1
  Ag  Ag10  1  0.33065358  0.17535482  0.49992455  1
  Ag  Ag11  1  0.66561390  -0.00429475  0.33142410  1
  Ag  Ag12  1  0.66723374  -0.00832541  -0.00417787  1
  Ag  Ag13  1  0.49421692  0.33949497  0.16524863  1
  Ag  Ag14  1  0.83220334  0.66922175  0.50826586  1
  Ag  Ag15  1  0.00548813  0.33879885  0.32595539  1
  Ag  Ag16  1  0.33016913  0.32951843  -0.00368454  1
  Ag  Ag17  1  0.67126167  0.82590567  0.50481828  1
  Ag  Ag18  1  0.83135030  0.83240898  -0.00462816  1
  Ag  Ag19  1  0.00400852  0.33629376  0.00009796  1
  Ag  Ag20  1  0.33699580  0.83744234  0.83297875  1
  Ag  Ag21  1  0.33361932  0.65835644  0.33252184  1
  Ag  Ag22  1  -0.01149696  0.66305844  0.67736232  1
  Ag  Ag23  1  0.50401651  0.49625148  0.66890864  1
  Ag  Ag24  1  0.16579958  0.16891550  0.00225351  1
  Ag  Ag25  1  -0.00421921  0.50800478  0.82955597  1
  Ag  Ag26  1  0.17997221  -0.00135983  0.83289715  1
  Ag  Ag27  1  0.67449267  0.67203364  -0.00908875  1
  Ag  Ag28  1  0.33541018  0.00393460  -0.00856841  1
  Ag  Ag29  1  0.33805098  0.33810619  0.67110288  1
  Ag  Ag30  1  0.65564408  0.34606567  0.67128849  1
  Ag  Ag31  1  0.82881047  0.33530175  0.83334208  1
  Ag  Ag32  1  0.50003450  0.33785870  0.82854347  1
  Ag  Ag33  1  0.49121687  0.17630428  0.33773106  1
  Ag  Ag34  1  0.50356493  0.66193661  0.16432978  1
  Ag  Ag35  1  0.66361144  0.50973554  0.82554118  1
  Ag  Ag36  1  -0.00122616  0.66375276  0.32699194  1
  Ag  Ag37  1  0.49675066  0.17760189  0.66600406  1
  Ag  Ag38  1  0.67238672  0.82876166  0.15741070  1
  Ag  Ag39  1  0.67102491  0.65987517  0.67391693  1
  Ag  Ag40  1  0.16903322  0.00338311  0.50685524  1
  Ag  Ag41  1  0.82938521  -0.01112214  0.83528634  1
  Ag  Ag42  1  0.83054983  0.82949223  0.32591366  1
  Ag  Ag43  1  0.67040731  0.82833519  0.83508825  1
  Ag  Ag44  1  0.33521784  0.33769193  0.33488894  1
  Ag  Ag45  1  -0.01276411  0.82672361  0.83645096  1
  Ag  Ag46  1  0.00742353  0.16789122  0.49844319  1
  Ag  Ag47  1  -0.00951928  0.82516998  0.15843303  1
  Ag  Ag48  1  0.81949365  0.50835533  0.66936914  1
  Ag  Ag49  1  0.66194822  0.50667332  0.51294161  1
  Ag  Ag50  1  0.17202639  0.33704291  0.16648215  1
  Ag  Ag51  1  0.17043918  0.16981628  0.33323552  1
  Ag  Ag52  1  0.83637635  0.67168391  0.16744733  1
  Ag  Ag53  1  0.49729566  -0.00456114  0.83318390  1
  Sb  Sb54  1  0.33454547  0.49868594  0.16623789  1
  Sb  Sb55  1  -0.00234697  -0.00158906  -0.00321706  1
  Sb  Sb56  1  0.16291936  0.82914892  0.66913002  1
  Sb  Sb57  1  0.66409383  0.50748843  0.16431578  1
  Sb  Sb58  1  0.83474201  0.16337762  0.32921115  1
  Sb  Sb59  1  0.83445781  0.33785374  0.50553253  1
  Sb  Sb60  1  0.33293279  0.66563026  0.00064063  1
  Sb  Sb61  1  0.16751323  0.66836447  0.83618829  1
  Sb  Sb62  1  0.16667218  0.49621162  -0.00423046  1
  Sb  Sb63  1  0.33843757  0.83154905  0.50458910  1
  Sb  Sb64  1  0.00384434  -0.00488126  0.66940407  1
  Sb  Sb65  1  0.66798013  0.67044215  0.33390080  1
  Sb  Sb66  1  0.16183984  0.83524483  0.33208347  1
  Sb  Sb67  1  0.16837026  0.32949579  0.49520191  1
  Sb  Sb68  1  0.83420728  0.50554349  -0.00947952  1
  Sb  Sb69  1  0.66610270  0.33524027  -0.00682294  1
  Sb  Sb70  1  0.83008515  0.50639141  0.33992015  1
  Sb  Sb71  1  0.83208015  -0.00876228  0.16014534  1
  Sb  Sb72  1  0.82910596  0.16763638  0.67095772  1
  Sb  Sb73  1  0.16735899  0.00086812  0.16340553  1
  Sb  Sb74  1  -0.00580804  0.83304425  0.50226141  1
  Sb  Sb75  1  0.49720283  0.33515020  0.50480857  1
  Sb  Sb76  1  0.16139212  0.83628841  -0.00176927  1
  Sb  Sb77  1  0.16284182  0.66921490  0.49710613  1
  Sb  Sb78  1  0.50596371  0.83049165  0.33231494  1
  Sb  Sb79  1  0.50115440  -0.00073745  0.16277658  1
  Sb  Sb80  1  0.66183783  -0.00371584  0.67151054  1
  Sb  Sb81  1  0.49937737  0.49914767  -0.00680703  1
  Sb  Sb82  1  0.66609613  0.16491305  0.83334135  1
  Sb  Sb83  1  0.33348348  0.17014712  0.16995125  1
  Sb  Sb84  1  0.66122990  0.33229675  0.33741204  1
  Sb  Sb85  1  0.17111389  0.49623231  0.33792853  1
  Sb  Sb86  1  0.33636350  0.66222843  0.66551351  1
  Sb  Sb87  1  0.00002752  0.50581247  0.16221649  1
  Sb  Sb88  1  0.33682740  0.00249381  0.33458502  1
  Sb  Sb89  1  0.33438073  0.16687367  0.82826367  1
  Sb  Sb90  1  0.17228094  0.16934657  0.66596501  1
  Sb  Sb91  1  0.17052792  0.33174264  0.83744609  1
  Sb  Sb92  1  0.49740697  0.00153304  0.50601000  1
  Sb  Sb93  1  0.66416871  0.16710659  0.50110266  1
  Sb  Sb94  1  0.50556217  0.82871930  0.67186707  1
  Sb  Sb95  1  0.83344325  0.33972603  0.16003576  1
  Sb  Sb96  1  0.00027830  0.16677243  0.83141835  1
  Sb  Sb97  1  0.50560066  0.66288250  0.50149826  1
  Sb  Sb98  1  0.00049125  0.49839378  0.50479376  1
  Sb  Sb99  1  -0.00319326  -0.00215140  0.33449441  1
  Sb  Sb100  1  0.66553590  0.16340562  0.16545063  1
  Sb  Sb101  1  0.83450041  -0.00550398  0.50524612  1
  Sb  Sb102  1  0.82731022  0.66765478  0.83090745  1
  Sb  Sb103  1  0.49796934  0.16740582  -0.00206254  1
  Sb  Sb104  1  0.33501120  0.82920553  0.16096216  1
  Sb  Sb105  1  0.00281675  0.33962614  0.67083249  1
  Sb  Sb106  1  0.00130680  0.16564063  0.16732422  1
  Sb  Sb107  1  0.50803343  0.83221993  -0.00307658  1
  Te  Te108  1  0.16620274  0.17065276  0.16677075  1
  Te  Te109  1  0.16897985  0.16391509  0.49926129  1
  Te  Te110  1  0.16522640  0.15990449  0.83797940  1
  Te  Te111  1  0.16697990  0.49982303  0.16753179  1
  Te  Te112  1  0.17237318  0.50122853  0.50597439  1
  Te  Te113  1  0.16352237  0.49993195  0.82891609  1
  Te  Te114  1  0.16519964  0.82768117  0.16657599  1
  Te  Te115  1  0.16738085  0.84162257  0.50050639  1
  Te  Te116  1  0.17393183  0.83844408  0.83311908  1
  Te  Te117  1  0.50101996  0.17108175  0.17300305  1
  Te  Te118  1  0.49593112  0.16609911  0.49928594  1
  Te  Te119  1  0.50039217  0.17241980  0.83010452  1
  Te  Te120  1  0.50008153  0.50004742  0.17201416  1
  Te  Te121  1  0.49942144  0.50068660  0.50031978  1
  Te  Te122  1  0.50230963  0.49922927  0.83147186  1
  Te  Te123  1  0.50445576  0.82746452  0.16656421  1
  Te  Te124  1  0.50909135  0.83283046  0.50134905  1
  Te  Te125  1  0.49753292  0.83503883  0.83318863  1
  Te  Te126  1  0.83386806  0.16708023  0.15900613  1
  Te  Te127  1  0.83654936  0.16563290  0.49950816  1
  Te  Te128  1  0.83411947  0.17204423  0.83798564  1
  Te  Te129  1  0.83181482  0.50902054  0.16816396  1
  Te  Te130  1  0.83048751  0.50491547  0.50731818  1
  Te  Te131  1  0.83394709  0.49606408  0.82872975  1
  Te  Te132  1  0.83197791  0.83078213  0.16611800  1
  Te  Te133  1  0.83003411  0.83025141  0.50067107  1
  Te  Te134  1  0.83122462  0.83108167  0.83432831  1
  Te  Te135  1  0.16961867  0.00549771  -0.00324540  1
  Te  Te136  1  0.16672821  0.00664147  0.33300656  1
  Te  Te137  1  0.17121332  0.00008705  0.66963151  1
  Te  Te138  1  0.16738670  0.33050030  0.00380373  1
  Te  Te139  1  0.16719172  0.33068313  0.32935584  1
  Te  Te140  1  0.17184759  0.33754927  0.66728218  1
  Te  Te141  1  0.16403321  0.66607806  0.00687464  1
  Te  Te142  1  0.16563543  0.66670936  0.32982283  1
  Te  Te143  1  0.16401691  0.66151793  0.66545920  1
  Te  Te144  1  0.49979563  0.00252245  -0.00511061  1
  Te  Te145  1  0.50420419  0.00244504  0.33212214  1
  Te  Te146  1  0.49454686  0.00071860  0.67294720  1
  Te  Te147  1  0.49691874  0.33237385  0.00293394  1
  Te  Te148  1  0.49784544  0.33445273  0.33106934  1
  Te  Te149  1  0.49752919  0.33461270  0.66872288  1
  Te  Te150  1  0.50133262  0.66555340  -0.00004837  1
  Te  Te151  1  0.49703985  0.66343237  0.33255312  1
  Te  Te152  1  0.50404168  0.66122888  0.67055803  1
  Te  Te153  1  0.83085099  -0.00120604  -0.00426303  1
  Te  Te154  1  0.82814146  -0.00538312  0.33489765  1
  Te  Te155  1  0.83293719  -0.00152133  0.67325459  1
  Te  Te156  1  0.83587684  0.33336944  -0.00378862  1
  Te  Te157  1  0.83657147  0.33340766  0.33084817  1
  Te  Te158  1  0.83454977  0.33441264  0.67299303  1
  Te  Te159  1  0.83391621  0.66965551  0.00331238  1
  Te  Te160  1  0.83597881  0.66919650  0.33068634  1
  Te  Te161  1  0.83243169  0.66753076  0.66746317  1
  Te  Te162  1  0.00086883  0.16977011  0.00013026  1
  Te  Te163  1  0.00237898  0.16840688  0.33508754  1
  Te  Te164  1  -0.00021796  0.16858526  0.66045227  1
  Te  Te165  1  0.00036685  0.50008844  -0.00598830  1
  Te  Te166  1  -0.00041625  0.49958030  0.33523152  1
  Te  Te167  1  -0.00020393  0.50360240  0.66938547  1
  Te  Te168  1  -0.00431325  0.83133550  -0.00176851  1
  Te  Te169  1  -0.00517130  0.82931304  0.33350049  1
  Te  Te170  1  -0.00494071  0.82710371  0.67077149  1
  Te  Te171  1  0.33082566  0.16878621  0.00187808  1
  Te  Te172  1  0.33228289  0.16718232  0.33777561  1
  Te  Te173  1  0.33590041  0.16899234  0.66120727  1
  Te  Te174  1  0.33232569  0.49450592  -0.01016928  1
  Te  Te175  1  0.33591917  0.49805936  0.33339537  1
  Te  Te176  1  0.33642093  0.50007258  0.66707404  1
  Te  Te177  1  0.33180422  0.83540926  -0.00646275  1
  Te  Te178  1  0.33300933  0.83114094  0.33353513  1
  Te  Te179  1  0.33366254  0.83447609  0.67102197  1
  Te  Te180  1  0.67136163  0.16290394  0.00112456  1
  Te  Te181  1  0.66476528  0.16131733  0.33372904  1
  Te  Te182  1  0.65975574  0.17031788  0.66523943  1
  Te  Te183  1  0.66697322  0.50602442  -0.00630122  1
  Te  Te184  1  0.66101821  0.49926751  0.33679635  1
  Te  Te185  1  0.66456008  0.50063263  0.66887735  1
  Te  Te186  1  0.66964982  0.83199343  -0.00249930  1
  Te  Te187  1  0.67027988  0.83545973  0.33477216  1
  Te  Te188  1  0.67021016  0.83135742  0.66960710  1
  Te  Te189  1  0.00114277  -0.01098686  0.16690702  1
  Te  Te190  1  0.00561610  0.00497755  0.50091861  1
  Te  Te191  1  -0.00739376  -0.00533982  0.83267211  1
  Te  Te192  1  0.00108442  0.33473259  0.16510593  1
  Te  Te193  1  0.00045902  0.33026736  0.49435834  1
  Te  Te194  1  0.00080929  0.33416948  0.83811969  1
  Te  Te195  1  -0.00117570  0.66771123  0.16633371  1
  Te  Te196  1  -0.00415137  0.66657720  0.49607858  1
  Te  Te197  1  0.00450906  0.66732327  0.83573577  1
  Te  Te198  1  0.33401622  -0.00165703  0.15770712  1
  Te  Te199  1  0.32963083  -0.00019598  0.50250979  1
  Te  Te200  1  0.33658557  0.00278157  0.83319574  1
  Te  Te201  1  0.33340995  0.33419949  0.16679107  1
  Te  Te202  1  0.33214971  0.33458562  0.49642479  1
  Te  Te203  1  0.33500569  0.33456615  0.83281911  1
  Te  Te204  1  0.34000739  0.66584039  0.17016191  1
  Te  Te205  1  0.33218098  0.66429651  0.49342211  1
  Te  Te206  1  0.33737715  0.66415856  0.83408275  1
  Te  Te207  1  0.66537643  -0.00690007  0.16362901  1
  Te  Te208  1  0.66604308  -0.00226501  0.49921041  1
  Te  Te209  1  0.66591797  -0.00252248  0.83579045  1
  Te  Te210  1  0.66253952  0.33472738  0.16614037  1
  Te  Te211  1  0.66926256  0.33781560  0.50650948  1
  Te  Te212  1  0.66516398  0.33310419  0.83104729  1
  Te  Te213  1  0.66403888  0.67029143  0.16681976  1
  Te  Te214  1  0.67078567  0.66603256  0.50014852  1
  Te  Te215  1  0.66371242  0.66822556  0.83320521  1
