# generated using pymatgen
data_AgSbTe2
_symmetry_space_group_name_H-M   'P 1'
_cell_length_a   18.34152376
_cell_length_b   18.33585210
_cell_length_c   18.33635808
_cell_angle_alpha   90.00258976
_cell_angle_beta   89.99963845
_cell_angle_gamma   89.99890084
_symmetry_Int_Tables_number   1
_chemical_formula_structural   AgSbTe2
_chemical_formula_sum   'Ag54 Sb54 Te108'
_cell_volume   6166.65413105
_cell_formula_units_Z   54
loop_
 _symmetry_equiv_pos_site_id
 _symmetry_equiv_pos_as_xyz
  1  'x, y, z'
loop_
 _atom_site_type_symbol
 _atom_site_label
 _atom_site_symmetry_multiplicity
 _atom_site_fract_x
 _atom_site_fract_y
 _atom_site_fract_z
 _atom_site_occupancy
  Ag  Ag0  1  0.16673570  0.15873469  0.34460778  1
  Ag  Ag1  1  0.32966336  0.48463477  0.83368965  1
  Ag  Ag2  1  0.66826448  0.83766725  0.82492986  1
  Ag  Ag3  1  0.33955584  0.66602206  0.66717073  1
  Ag  Ag4  1  0.48337444  0.32955619  0.83101575  1
  Ag  Ag5  1  0.00026063  0.83632014  0.16871630  1
  Ag  Ag6  1  0.83639032  0.83587429  0.34124420  1
  Ag  Ag7  1  0.83074019  0.83517744  0.66219708  1
  Ag  Ag8  1  0.83674106  -0.00668468  0.17185244  1
  Ag  Ag9  1  0.83754749  0.67569958  0.16530966  1
  Ag  Ag10  1  0.83885394  -0.00190380  0.82981388  1
  Ag  Ag11  1  -0.00102984  0.83660414  0.83111500  1
  Ag  Ag12  1  0.00693181  0.17330990  0.83046367  1
  Ag  Ag13  1  0.49909344  0.82927810  0.00176706  1
  Ag  Ag14  1  0.66662852  -0.00595475  0.66746016  1
  Ag  Ag15  1  0.33159281  0.83255260  0.17649452  1
  Ag  Ag16  1  0.66159873  0.67890483  0.66677422  1
  Ag  Ag17  1  0.83152739  0.49575530  -0.00265490  1
  Ag  Ag18  1  -0.00124306  0.83853553  0.50094082  1
  Ag  Ag19  1  0.01007538  0.16494157  0.50696428  1
  Ag  Ag20  1  0.16698955  0.66815091  0.83501344  1
  Ag  Ag21  1  0.49191248  0.33134297  0.51158250  1
  Ag  Ag22  1  0.32704445  0.17164977  0.82595280  1
  Ag  Ag23  1  0.00473899  0.48567486  0.83093922  1
  Ag  Ag24  1  0.49255550  0.83063479  0.33769235  1
  Ag  Ag25  1  0.16538973  0.16915382  -0.01203489  1
  Ag  Ag26  1  0.65687539  0.33297745  0.67170156  1
  Ag  Ag27  1  0.34108747  0.84447392  0.49665114  1
  Ag  Ag28  1  0.49833061  0.33730477  0.15436184  1
  Ag  Ag29  1  0.00634587  0.33131990  0.67484523  1
  Ag  Ag30  1  0.17143220  0.00347413  0.50332845  1
  Ag  Ag31  1  0.32933181  0.16214525  0.50566986  1
  Ag  Ag32  1  0.49846383  0.00347609  0.82554558  1
  Ag  Ag33  1  0.85237689  0.32907612  0.83338860  1
  Ag  Ag34  1  0.33236592  -0.00448881  0.34021130  1
  Ag  Ag35  1  0.49881314  0.17000190  0.66736954  1
  Ag  Ag36  1  0.49845449  0.50535194  0.33198606  1
  Ag  Ag37  1  0.17139407  0.32095624  0.50871450  1
  Ag  Ag38  1  0.49245277  -0.00598615  0.50521709  1
  Ag  Ag39  1  0.00325854  0.16341079  0.16100963  1
  Ag  Ag40  1  0.49778156  0.67737511  0.49965317  1
  Ag  Ag41  1  0.83655409  -0.00574655  0.50400579  1
  Ag  Ag42  1  0.16778048  0.32814236  0.82844684  1
  Ag  Ag43  1  0.49802570  0.66903641  0.17051144  1
  Ag  Ag44  1  0.33537519  0.33230641  0.67294524  1
  Ag  Ag45  1  0.17344346  0.83773494  0.33585947  1
  Ag  Ag46  1  0.65547308  0.33483598  -0.01282336  1
  Ag  Ag47  1  0.00086421  0.48981553  0.50541608  1
  Ag  Ag48  1  0.33586533  0.33258848  -0.01376984  1
  Ag  Ag49  1  0.16938785  0.67338621  0.16317228  1
  Ag  Ag50  1  0.00407333  0.33148369  -0.01232560  1
  Ag  Ag51  1  0.66159298  0.83689212  0.50626498  1
  Ag  Ag52  1  0.16550194  0.00954122  0.82777736  1
  Ag  Ag53  1  0.50143412  0.49492638  0.00107875  1
  Sb  Sb54  1  0.33884500  0.00297267  0.66242652  1
  Sb  Sb55  1  0.00051574  0.50001900  0.16317132  1
  Sb  Sb56  1  0.16254388  -0.00244874  0.17009617  1
  Sb  Sb57  1  0.66534127  0.49784443  0.83345972  1
  Sb  Sb58  1  0.66268407  -0.00378855  0.34130484  1
  Sb  Sb59  1  0.32886568  0.16345240  0.16743566  1
  Sb  Sb60  1  0.66476384  0.66477869  -0.00502661  1
  Sb  Sb61  1  0.67049838  0.16617634  0.16392761  1
  Sb  Sb62  1  0.49886600  0.49490161  0.66892527  1
  Sb  Sb63  1  0.84002126  0.17071667  -0.00372971  1
  Sb  Sb64  1  0.33575447  0.50518447  0.16094154  1
  Sb  Sb65  1  0.00626998  -0.00294821  0.33761492  1
  Sb  Sb66  1  0.66612883  0.00239002  -0.00808582  1
  Sb  Sb67  1  0.00053410  0.33133449  0.33629499  1
  Sb  Sb68  1  0.16280487  0.83474254  0.66240853  1
  Sb  Sb69  1  0.17243357  0.16776215  0.66638639  1
  Sb  Sb70  1  0.16807388  0.49493498  -0.00415300  1
  Sb  Sb71  1  0.33462724  0.66415411  -0.00494215  1
  Sb  Sb72  1  0.49701551  0.66686489  0.82976777  1
  Sb  Sb73  1  0.49378394  0.17092898  -0.00629800  1
  Sb  Sb74  1  0.17034157  0.33361408  0.16364528  1
  Sb  Sb75  1  0.33499175  0.67268592  0.33700553  1
  Sb  Sb76  1  0.66287837  0.16088341  0.50370840  1
  Sb  Sb77  1  0.84287321  0.15864087  0.33546571  1
  Sb  Sb78  1  -0.00508917  0.00550454  0.66722484  1
  Sb  Sb79  1  0.33393322  0.32789919  0.33718146  1
  Sb  Sb80  1  0.83150865  0.33227572  0.15738893  1
  Sb  Sb81  1  0.66159374  0.33343500  0.33817196  1
  Sb  Sb82  1  0.66385849  0.50071214  0.16407432  1
  Sb  Sb83  1  0.83127971  0.50576916  0.33080980  1
  Sb  Sb84  1  0.83077013  0.83152930  -0.00191292  1
  Sb  Sb85  1  0.17186798  0.50159736  0.33501811  1
  Sb  Sb86  1  0.66520706  0.16674125  0.83148445  1
  Sb  Sb87  1  0.49283827  0.16394163  0.33981901  1
  Sb  Sb88  1  0.83587077  0.32693729  0.50877121  1
  Sb  Sb89  1  0.83030837  0.67496916  0.49801330  1
  Sb  Sb90  1  0.33316327  0.00297252  0.00010192  1
  Sb  Sb91  1  0.00125951  0.67136351  0.33352950  1
  Sb  Sb92  1  0.82993224  0.16174309  0.66826229  1
  Sb  Sb93  1  0.00007298  0.66292697  -0.00149087  1
  Sb  Sb94  1  0.00037160  0.66549318  0.66774615  1
  Sb  Sb95  1  0.66646410  0.50383858  0.50289821  1
  Sb  Sb96  1  0.83649441  0.66743546  0.83537603  1
  Sb  Sb97  1  0.17090796  0.67128012  0.50163821  1
  Sb  Sb98  1  0.66287789  0.67115272  0.33773259  1
  Sb  Sb99  1  0.16696070  0.49748168  0.66888924  1
  Sb  Sb100  1  0.33305423  0.83764006  0.82842894  1
  Sb  Sb101  1  0.16958344  0.83813004  0.00130507  1
  Sb  Sb102  1  0.50435264  0.83754994  0.66421231  1
  Sb  Sb103  1  0.83459308  0.50189403  0.67116658  1
  Sb  Sb104  1  0.66731602  0.83323692  0.16703058  1
  Sb  Sb105  1  0.33233415  0.49638737  0.50574566  1
  Sb  Sb106  1  0.00003257  0.00449021  -0.00247647  1
  Sb  Sb107  1  0.50257892  -0.00272164  0.16814819  1
  Te  Te108  1  0.16218984  0.16613030  0.16866787  1
  Te  Te109  1  0.16724683  0.16495334  0.50187379  1
  Te  Te110  1  0.16669610  0.16663330  0.83016735  1
  Te  Te111  1  0.16709464  0.50928273  0.16709122  1
  Te  Te112  1  0.16047434  0.50055052  0.49763817  1
  Te  Te113  1  0.16502299  0.50216497  0.83483792  1
  Te  Te114  1  0.16495506  0.83297306  0.16864216  1
  Te  Te115  1  0.16199234  0.83487593  0.49566714  1
  Te  Te116  1  0.16429913  0.83211645  0.83383291  1
  Te  Te117  1  0.50000774  0.16941820  0.16833130  1
  Te  Te118  1  0.49625119  0.16965216  0.50266144  1
  Te  Te119  1  0.49898090  0.16541509  0.83085192  1
  Te  Te120  1  0.49912746  0.49937816  0.16502607  1
  Te  Te121  1  0.50010803  0.49394580  0.49618880  1
  Te  Te122  1  0.49683134  0.49811914  0.83841131  1
  Te  Te123  1  0.49995334  0.83283196  0.16874520  1
  Te  Te124  1  0.49984401  0.83468966  0.50019203  1
  Te  Te125  1  0.50096036  0.83544870  0.83553721  1
  Te  Te126  1  0.84166507  0.16162201  0.16710099  1
  Te  Te127  1  0.83864188  0.15766498  0.50015107  1
  Te  Te128  1  0.83979674  0.16580017  0.83267796  1
  Te  Te129  1  0.83367744  0.50465454  0.16327571  1
  Te  Te130  1  0.83993898  0.50044076  0.49739884  1
  Te  Te131  1  0.83839472  0.49849961  0.83715140  1
  Te  Te132  1  0.83446305  0.83394133  0.16430846  1
  Te  Te133  1  0.83636652  0.83534584  0.50066372  1
  Te  Te134  1  0.83321993  0.83493194  0.83320756  1
  Te  Te135  1  0.16746977  0.00662588  -0.00840344  1
  Te  Te136  1  0.17129250  -0.00219920  0.33657145  1
  Te  Te137  1  0.16673812  -0.00083883  0.66699330  1
  Te  Te138  1  0.16713058  0.33004196  0.00015533  1
  Te  Te139  1  0.16697963  0.33218088  0.33581136  1
  Te  Te140  1  0.16687159  0.33378862  0.66569358  1
  Te  Te141  1  0.16750265  0.66731773  0.00022792  1
  Te  Te142  1  0.16808314  0.67220944  0.32822151  1
  Te  Te143  1  0.17088326  0.66686205  0.67136139  1
  Te  Te144  1  0.50087850  -0.00298377  -0.00239326  1
  Te  Te145  1  0.49568469  -0.00428115  0.33737034  1
  Te  Te146  1  0.50419864  0.00355176  0.66555583  1
  Te  Te147  1  0.49707980  0.33281723  -0.00414382  1
  Te  Te148  1  0.49998086  0.33337699  0.33480110  1
  Te  Te149  1  0.49597130  0.33291269  0.66993885  1
  Te  Te150  1  0.50059521  0.66594309  0.00263223  1
  Te  Te151  1  0.49960706  0.66885339  0.33355319  1
  Te  Te152  1  0.50094809  0.66391387  0.66293048  1
  Te  Te153  1  0.83201868  0.00050509  -0.00735900  1
  Te  Te154  1  0.83112755  -0.00574055  0.33503027  1
  Te  Te155  1  0.82848850  -0.00398803  0.66838089  1
  Te  Te156  1  0.83688101  0.33648456  -0.00498612  1
  Te  Te157  1  0.83072082  0.33493344  0.33147937  1
  Te  Te158  1  0.83374323  0.33361058  0.67361163  1
  Te  Te159  1  0.83183223  0.66035537  0.00578233  1
  Te  Te160  1  0.83105300  0.67232563  0.32506113  1
  Te  Te161  1  0.82771835  0.67211602  0.66675412  1
  Te  Te162  1  0.00465234  0.17076711  -0.00222110  1
  Te  Te163  1  0.00755275  0.16510395  0.33379639  1
  Te  Te164  1  -0.00458977  0.17215114  0.66697751  1
  Te  Te165  1  -0.00234040  0.49446249  -0.00497365  1
  Te  Te166  1  -0.00003875  0.50027472  0.33904018  1
  Te  Te167  1  -0.00107187  0.49613709  0.66766155  1
  Te  Te168  1  0.00029023  0.83253452  0.00221670  1
  Te  Te169  1  -0.00344176  0.83369360  0.33002971  1
  Te  Te170  1  -0.00505017  0.83285880  0.66697766  1
  Te  Te171  1  0.32720287  0.17096888  -0.00063471  1
  Te  Te172  1  0.32676967  0.16000695  0.33628157  1
  Te  Te173  1  0.33895854  0.16839303  0.66597891  1
  Te  Te174  1  0.33727229  0.49528592  -0.00568622  1
  Te  Te175  1  0.33937705  0.50023587  0.33358124  1
  Te  Te176  1  0.33353875  0.49874791  0.67349105  1
  Te  Te177  1  0.33874233  0.83365069  0.00246382  1
  Te  Te178  1  0.33332800  0.83440845  0.33653428  1
  Te  Te179  1  0.33192192  0.82900461  0.66005944  1
  Te  Te180  1  0.66725469  0.17613267  -0.00020261  1
  Te  Te181  1  0.66915067  0.16524135  0.33316533  1
  Te  Te182  1  0.66026193  0.17256825  0.66657824  1
  Te  Te183  1  0.66567637  0.49463328  -0.00116717  1
  Te  Te184  1  0.65799977  0.50133339  0.33446092  1
  Te  Te185  1  0.66780947  0.49351250  0.66678714  1
  Te  Te186  1  0.65997831  0.83371952  -0.00492451  1
  Te  Te187  1  0.66902368  0.83382042  0.33962523  1
  Te  Te188  1  0.66730997  0.83469715  0.66653849  1
  Te  Te189  1  -0.00409021  -0.00123875  0.16543741  1
  Te  Te190  1  0.00133879  -0.00017163  0.50181765  1
  Te  Te191  1  0.00082954  -0.00374647  0.83268744  1
  Te  Te192  1  0.00015521  0.32969805  0.16505763  1
  Te  Te193  1  0.00059767  0.32969826  0.50219662  1
  Te  Te194  1  0.00786424  0.33034679  0.83226224  1
  Te  Te195  1  0.00047357  0.66925993  0.16595424  1
  Te  Te196  1  0.00037179  0.67240220  0.50151399  1
  Te  Te197  1  0.00480914  0.67582183  0.83218442  1
  Te  Te198  1  0.33334166  -0.00610952  0.17101995  1
  Te  Te199  1  0.33250042  0.00121772  0.50081419  1
  Te  Te200  1  0.33454174  0.00491893  0.83227479  1
  Te  Te201  1  0.33876483  0.33317945  0.16696579  1
  Te  Te202  1  0.33179050  0.33162979  0.50299034  1
  Te  Te203  1  0.32779799  0.32918891  0.83152817  1
  Te  Te204  1  0.33605528  0.67218443  0.16492736  1
  Te  Te205  1  0.33762318  0.66343282  0.50627103  1
  Te  Te206  1  0.32898482  0.66961608  0.82795048  1
  Te  Te207  1  0.67589813  0.00079255  0.16464993  1
  Te  Te208  1  0.66738211  -0.00361948  0.50620660  1
  Te  Te209  1  0.66424389  -0.00056026  0.82878759  1
  Te  Te210  1  0.66010072  0.33244727  0.16585016  1
  Te  Te211  1  0.66556003  0.33301572  0.50634370  1
  Te  Te212  1  0.66352852  0.33338759  0.83172338  1
  Te  Te213  1  0.65984708  0.66780332  0.16516590  1
  Te  Te214  1  0.66175559  0.67097185  0.50548398  1
  Te  Te215  1  0.66689322  0.67106512  0.82729810  1
