# generated using pymatgen
data_AgSbTe2
_symmetry_space_group_name_H-M   'P 1'
_cell_length_a   18.33321050
_cell_length_b   18.33524131
_cell_length_c   18.32712121
_cell_angle_alpha   90.00149650
_cell_angle_beta   89.99833683
_cell_angle_gamma   90.00166749
_symmetry_Int_Tables_number   1
_chemical_formula_structural   AgSbTe2
_chemical_formula_sum   'Ag54 Sb54 Te108'
_cell_volume   6160.54886454
_cell_formula_units_Z   54
loop_
 _symmetry_equiv_pos_site_id
 _symmetry_equiv_pos_as_xyz
  1  'x, y, z'
loop_
 _atom_site_type_symbol
 _atom_site_label
 _atom_site_symmetry_multiplicity
 _atom_site_fract_x
 _atom_site_fract_y
 _atom_site_fract_z
 _atom_site_occupancy
  Ag  Ag0  1  0.49488393  -0.00335843  0.49453113  1
  Ag  Ag1  1  0.49964106  0.67847831  0.49314089  1
  Ag  Ag2  1  0.66808960  0.32420688  0.00360800  1
  Ag  Ag3  1  -0.01071984  0.16804567  0.16398916  1
  Ag  Ag4  1  0.66249224  0.83537783  0.16933071  1
  Ag  Ag5  1  0.50299634  0.83349127  0.01057846  1
  Ag  Ag6  1  0.65598673  0.84120042  0.49045394  1
  Ag  Ag7  1  0.82047353  0.16666559  0.32545716  1
  Ag  Ag8  1  0.65617685  0.16221536  0.48697994  1
  Ag  Ag9  1  0.83283236  0.83583066  0.00376679  1
  Ag  Ag10  1  0.66665330  0.16084412  0.16861016  1
  Ag  Ag11  1  0.66194052  0.16746160  0.84507098  1
  Ag  Ag12  1  0.50390724  0.33316869  0.16568234  1
  Ag  Ag13  1  0.82871221  0.16460940  0.00519816  1
  Ag  Ag14  1  0.00138951  0.49868513  0.50511136  1
  Ag  Ag15  1  0.34173136  0.67412119  0.33218053  1
  Ag  Ag16  1  0.34090726  0.84375566  0.49527183  1
  Ag  Ag17  1  0.83222776  0.33006950  0.50077756  1
  Ag  Ag18  1  0.65850270  0.50632281  0.16640753  1
  Ag  Ag19  1  0.00069470  0.50695249  0.82569361  1
  Ag  Ag20  1  0.16875521  0.32895886  0.50139597  1
  Ag  Ag21  1  0.34454294  0.50843257  0.16978697  1
  Ag  Ag22  1  0.33334513  0.00304709  0.65595321  1
  Ag  Ag23  1  0.50564139  0.67515320  0.17525408  1
  Ag  Ag24  1  0.16683997  0.50076257  0.33304670  1
  Ag  Ag25  1  0.50171579  0.66838291  0.83013996  1
  Ag  Ag26  1  0.34207719  0.16759354  0.82632212  1
  Ag  Ag27  1  0.50339066  -0.00735917  0.17565323  1
  Ag  Ag28  1  0.49773096  0.32742004  0.50171553  1
  Ag  Ag29  1  0.18120208  0.00185871  0.49923918  1
  Ag  Ag30  1  0.50039880  0.33250327  0.83222354  1
  Ag  Ag31  1  0.49835782  0.50374497  0.66496349  1
  Ag  Ag32  1  0.82674953  0.66970352  0.16503931  1
  Ag  Ag33  1  -0.00335808  0.83221608  0.16028013  1
  Ag  Ag34  1  0.65923336  0.00176171  0.32954814  1
  Ag  Ag35  1  0.00106386  0.83265012  0.50664180  1
  Ag  Ag36  1  0.50329664  0.16272176  0.33558943  1
  Ag  Ag37  1  0.00006759  0.82617604  0.83330985  1
  Ag  Ag38  1  -0.00093287  0.50133154  0.16648035  1
  Ag  Ag39  1  -0.00361426  0.33010834  -0.00077708  1
  Ag  Ag40  1  0.15565558  0.66842919  0.83319857  1
  Ag  Ag41  1  0.15981352  0.83707924  0.00140247  1
  Ag  Ag42  1  0.34145907  -0.00355775  0.34252528  1
  Ag  Ag43  1  0.65899296  0.67458416  0.32859996  1
  Ag  Ag44  1  0.83975276  0.66878133  0.83975174  1
  Ag  Ag45  1  -0.00009808  0.66798895  0.66974632  1
  Ag  Ag46  1  0.00590958  -0.00801861  0.66318511  1
  Ag  Ag47  1  0.33665701  0.32862275  0.66275598  1
  Ag  Ag48  1  0.00433394  0.33660821  0.66500289  1
  Ag  Ag49  1  0.49864238  0.82977235  0.65435317  1
  Ag  Ag50  1  0.66487775  0.00299890  0.01181800  1
  Ag  Ag51  1  0.16207401  0.16290954  0.00183955  1
  Ag  Ag52  1  0.34533567  0.83003318  0.17185234  1
  Ag  Ag53  1  0.33985969  0.15630765  0.50139826  1
  Sb  Sb54  1  0.16896734  0.83000324  0.33117173  1
  Sb  Sb55  1  0.33478514  0.66957319  0.00431758  1
  Sb  Sb56  1  0.83417450  0.50043147  0.00235113  1
  Sb  Sb57  1  0.83073549  0.83681011  0.32846111  1
  Sb  Sb58  1  0.16850443  0.33563083  0.83074072  1
  Sb  Sb59  1  0.66611283  0.49813993  0.49399520  1
  Sb  Sb60  1  0.83162008  0.33623615  0.83222021  1
  Sb  Sb61  1  0.50535634  0.16351191  0.00375602  1
  Sb  Sb62  1  0.33601608  0.33148104  0.33825641  1
  Sb  Sb63  1  -0.00023039  0.33350790  0.33397984  1
  Sb  Sb64  1  0.34009429  0.16457873  0.16908328  1
  Sb  Sb65  1  0.00030841  -0.00060590  0.33587469  1
  Sb  Sb66  1  -0.00352388  0.00037876  -0.00076744  1
  Sb  Sb67  1  0.83274445  0.50016293  0.66652889  1
  Sb  Sb68  1  0.83077434  0.66530786  0.49679233  1
  Sb  Sb69  1  0.82958955  0.33330724  0.16759449  1
  Sb  Sb70  1  0.66768656  0.49905049  0.83967880  1
  Sb  Sb71  1  0.82920865  0.00272778  0.49884309  1
  Sb  Sb72  1  0.66163991  0.33200491  0.66747302  1
  Sb  Sb73  1  0.83363662  -0.00277089  0.83485054  1
  Sb  Sb74  1  0.33845822  -0.00031325  0.00184285  1
  Sb  Sb75  1  0.33539951  0.32996696  -0.00224927  1
  Sb  Sb76  1  0.66714778  0.83571449  0.83911211  1
  Sb  Sb77  1  -0.00057339  0.66673366  0.33473617  1
  Sb  Sb78  1  0.83459220  0.49671633  0.33086950  1
  Sb  Sb79  1  0.16687208  -0.00238158  0.83069512  1
  Sb  Sb80  1  0.49806509  0.16582033  0.66042067  1
  Sb  Sb81  1  0.66620838  0.66833574  0.66303709  1
  Sb  Sb82  1  0.33304488  0.83603176  0.83233230  1
  Sb  Sb83  1  0.16856512  0.16621821  0.66889368  1
  Sb  Sb84  1  0.83259189  0.83249231  0.66945411  1
  Sb  Sb85  1  0.16766083  0.66768062  0.16388234  1
  Sb  Sb86  1  0.17227569  -0.00158614  0.17084830  1
  Sb  Sb87  1  0.82568951  -0.00296194  0.16633163  1
  Sb  Sb88  1  0.33228223  0.49970416  0.49583434  1
  Sb  Sb89  1  0.33161191  0.49894812  0.83608870  1
  Sb  Sb90  1  0.16904560  0.16842592  0.33165606  1
  Sb  Sb91  1  -0.00059959  0.66697670  -0.00289648  1
  Sb  Sb92  1  0.33449421  0.66745782  0.66279169  1
  Sb  Sb93  1  0.83338946  0.16791965  0.66754583  1
  Sb  Sb94  1  0.16772466  0.83384625  0.66748863  1
  Sb  Sb95  1  0.16298383  0.50021165  0.00320594  1
  Sb  Sb96  1  0.66244701  -0.00065059  0.66279990  1
  Sb  Sb97  1  0.16898599  0.33391282  0.16853147  1
  Sb  Sb98  1  0.49751459  0.49933772  0.33428771  1
  Sb  Sb99  1  -0.00139747  0.16743062  0.83768976  1
  Sb  Sb100  1  0.16912306  0.66849133  0.50199297  1
  Sb  Sb101  1  0.50125319  0.50314783  0.00109228  1
  Sb  Sb102  1  0.50027407  0.84012865  0.33303242  1
  Sb  Sb103  1  0.00063252  0.16747677  0.49730707  1
  Sb  Sb104  1  0.66491665  0.32928987  0.32953423  1
  Sb  Sb105  1  0.49958487  0.00059562  0.83083566  1
  Sb  Sb106  1  0.66656245  0.67095341  0.00715466  1
  Sb  Sb107  1  0.16767422  0.49961346  0.66261385  1
  Te  Te108  1  0.16565580  0.16663693  0.16290638  1
  Te  Te109  1  0.16917893  0.16697592  0.49901240  1
  Te  Te110  1  0.16775978  0.16693792  0.84077835  1
  Te  Te111  1  0.15967946  0.50001091  0.17062038  1
  Te  Te112  1  0.16258147  0.49924165  0.49635755  1
  Te  Te113  1  0.16237853  0.50544133  0.83414595  1
  Te  Te114  1  0.15743262  0.83360996  0.16136007  1
  Te  Te115  1  0.16104387  0.83609728  0.49971768  1
  Te  Te116  1  0.16497565  0.83007201  0.83820149  1
  Te  Te117  1  0.50329436  0.17151892  0.16949262  1
  Te  Te118  1  0.49949871  0.16703532  0.49990860  1
  Te  Te119  1  0.50063068  0.16815604  0.83471593  1
  Te  Te120  1  0.50083338  0.49731695  0.16680344  1
  Te  Te121  1  0.50083860  0.49324059  0.50308937  1
  Te  Te122  1  0.49983711  0.49912465  0.83087734  1
  Te  Te123  1  0.50194186  0.83225440  0.16840194  1
  Te  Te124  1  0.49937465  0.83467964  0.49746070  1
  Te  Te125  1  0.50008605  0.83173892  0.83518970  1
  Te  Te126  1  0.83085779  0.16771226  0.16550585  1
  Te  Te127  1  0.83175562  0.17056302  0.49925378  1
  Te  Te128  1  0.82829666  0.16758299  0.83935700  1
  Te  Te129  1  0.83831937  0.50446923  0.16709057  1
  Te  Te130  1  0.83832255  0.49494898  0.49917592  1
  Te  Te131  1  0.83820107  0.50693287  0.83408814  1
  Te  Te132  1  0.83566010  0.83083541  0.16354539  1
  Te  Te133  1  0.84079334  0.83219077  0.50041839  1
  Te  Te134  1  0.83532082  0.82875272  0.83797795  1
  Te  Te135  1  0.16717322  -0.00137742  0.00096864  1
  Te  Te136  1  0.17072847  0.00054898  0.33975626  1
  Te  Te137  1  0.16771705  0.00012323  0.66096659  1
  Te  Te138  1  0.16216405  0.32950129  -0.00010771  1
  Te  Te139  1  0.16789627  0.33727724  0.33986468  1
  Te  Te140  1  0.16726708  0.33319398  0.66247906  1
  Te  Te141  1  0.16782601  0.67190089  -0.00683068  1
  Te  Te142  1  0.17045684  0.66165247  0.33365205  1
  Te  Te143  1  0.16285380  0.66638031  0.67187162  1
  Te  Te144  1  0.50487243  -0.00456753  0.00073228  1
  Te  Te145  1  0.50113737  0.00261124  0.33310225  1
  Te  Te146  1  0.49565032  -0.00629245  0.66260478  1
  Te  Te147  1  0.50273721  0.33353371  -0.00098141  1
  Te  Te148  1  0.49965989  0.32794887  0.33410926  1
  Te  Te149  1  0.49796158  0.33326210  0.66796831  1
  Te  Te150  1  0.50061793  0.67077390  -0.00041897  1
  Te  Te151  1  0.49946626  0.66230845  0.33335546  1
  Te  Te152  1  0.49970998  0.66765761  0.66387905  1
  Te  Te153  1  0.82774903  -0.00008173  -0.00019400  1
  Te  Te154  1  0.82967083  0.00784100  0.33316574  1
  Te  Te155  1  0.84368819  0.00027048  0.66691897  1
  Te  Te156  1  0.83407809  0.32922731  -0.00050215  1
  Te  Te157  1  0.83251450  0.32653703  0.33972526  1
  Te  Te158  1  0.83881787  0.33425531  0.66231491  1
  Te  Te159  1  0.83270477  0.67047744  0.00164087  1
  Te  Te160  1  0.82881935  0.66646176  0.32776287  1
  Te  Te161  1  0.83796052  0.66629768  0.66978504  1
  Te  Te162  1  -0.00322663  0.16681184  0.00271575  1
  Te  Te163  1  0.00046771  0.16527916  0.32454983  1
  Te  Te164  1  0.00079739  0.17201426  0.66832365  1
  Te  Te165  1  0.00019405  0.49326559  0.00384225  1
  Te  Te166  1  0.00289233  0.50053496  0.33174109  1
  Te  Te167  1  0.00032866  0.49913192  0.66588644  1
  Te  Te168  1  -0.00256456  0.83465583  -0.00199237  1
  Te  Te169  1  -0.00033910  0.83364788  0.33311455  1
  Te  Te170  1  0.00011684  0.83131442  0.66914475  1
  Te  Te171  1  0.32770541  0.16599209  -0.00207521  1
  Te  Te172  1  0.33621989  0.16139753  0.33729648  1
  Te  Te173  1  0.33266260  0.16709164  0.66548466  1
  Te  Te174  1  0.33134956  0.49849143  0.00977229  1
  Te  Te175  1  0.33005672  0.50144227  0.32806900  1
  Te  Te176  1  0.33721941  0.49626400  0.66750438  1
  Te  Te177  1  0.33738119  0.83478162  0.00429125  1
  Te  Te178  1  0.33138300  0.83361521  0.33340532  1
  Te  Te179  1  0.33594347  0.83567894  0.66300783  1
  Te  Te180  1  0.66643855  0.16432116  0.00328897  1
  Te  Te181  1  0.66417229  0.16558820  0.33115872  1
  Te  Te182  1  0.66807875  0.16561980  0.66869653  1
  Te  Te183  1  0.66764772  0.49078063  0.00774433  1
  Te  Te184  1  0.66730995  0.50566592  0.32562833  1
  Te  Te185  1  0.65968924  0.50016800  0.66700480  1
  Te  Te186  1  0.66753029  0.83719302  0.00337958  1
  Te  Te187  1  0.66898368  0.83514760  0.33229738  1
  Te  Te188  1  0.66179026  0.83399399  0.66069518  1
  Te  Te189  1  0.00241626  -0.00248052  0.16760376  1
  Te  Te190  1  -0.00242565  -0.00163373  0.50314873  1
  Te  Te191  1  0.00115289  -0.00484061  0.82701093  1
  Te  Te192  1  0.00002353  0.33215280  0.16419901  1
  Te  Te193  1  0.00317137  0.33386637  0.50109071  1
  Te  Te194  1  -0.00011388  0.33584265  0.83282065  1
  Te  Te195  1  -0.00143858  0.66764002  0.16696206  1
  Te  Te196  1  -0.00017400  0.66596622  0.50264675  1
  Te  Te197  1  -0.00223747  0.66650019  0.83314782  1
  Te  Te198  1  0.34050196  -0.00470681  0.16984015  1
  Te  Te199  1  0.33674759  -0.00022357  0.49958475  1
  Te  Te200  1  0.33249890  0.00668854  0.82811650  1
  Te  Te201  1  0.33822121  0.33465707  0.16647216  1
  Te  Te202  1  0.33519842  0.33502423  0.50301279  1
  Te  Te203  1  0.33712555  0.33051473  0.82921191  1
  Te  Te204  1  0.33471924  0.66886044  0.17046254  1
  Te  Te205  1  0.33748522  0.66787294  0.49526395  1
  Te  Te206  1  0.34274191  0.66659277  0.83214837  1
  Te  Te207  1  0.66327918  -0.00134412  0.16899237  1
  Te  Te208  1  0.66277571  0.00075038  0.49807686  1
  Te  Te209  1  0.66683400  0.00605726  0.83140584  1
  Te  Te210  1  0.66542257  0.33165770  0.16416283  1
  Te  Te211  1  0.66421241  0.32962632  0.50011804  1
  Te  Te212  1  0.66346595  0.33128420  0.83706024  1
  Te  Te213  1  0.66536497  0.66922223  0.16759256  1
  Te  Te214  1  0.66272270  0.66747747  0.49469334  1
  Te  Te215  1  0.66164068  0.66628127  0.83306597  1
