# generated using pymatgen
data_AgSbTe2
_symmetry_space_group_name_H-M   'P 1'
_cell_length_a   18.30055145
_cell_length_b   18.30155026
_cell_length_c   18.29959695
_cell_angle_alpha   90.00134068
_cell_angle_beta   90.00061351
_cell_angle_gamma   89.99953828
_symmetry_Int_Tables_number   1
_chemical_formula_structural   AgSbTe2
_chemical_formula_sum   'Ag54 Sb54 Te108'
_cell_volume   6129.05586279
_cell_formula_units_Z   54
loop_
 _symmetry_equiv_pos_site_id
 _symmetry_equiv_pos_as_xyz
  1  'x, y, z'
loop_
 _atom_site_type_symbol
 _atom_site_label
 _atom_site_symmetry_multiplicity
 _atom_site_fract_x
 _atom_site_fract_y
 _atom_site_fract_z
 _atom_site_occupancy
  Ag  Ag0  1  0.67210168  0.17020988  0.82882158  1
  Ag  Ag1  1  0.17522555  0.82931049  0.33336744  1
  Ag  Ag2  1  0.33343751  0.49860901  0.49426143  1
  Ag  Ag3  1  0.82909053  0.83785210  0.66520856  1
  Ag  Ag4  1  0.49972222  0.16538936  0.66422505  1
  Ag  Ag5  1  0.83472001  0.32711260  0.83140404  1
  Ag  Ag6  1  0.00460662  0.50103953  0.49706703  1
  Ag  Ag7  1  0.16345024  0.16777472  -0.00828128  1
  Ag  Ag8  1  0.50038876  0.49714755  0.66601493  1
  Ag  Ag9  1  0.49350060  0.83004898  0.34102678  1
  Ag  Ag10  1  0.15628992  0.00708157  0.82946856  1
  Ag  Ag11  1  0.50447874  0.67201175  0.49831937  1
  Ag  Ag12  1  0.33319711  0.16818109  0.16841035  1
  Ag  Ag13  1  0.00524500  0.50508012  0.16841386  1
  Ag  Ag14  1  0.66389282  0.67259305  0.66351657  1
  Ag  Ag15  1  0.66450484  0.16353422  0.50704870  1
  Ag  Ag16  1  0.17301644  0.33484393  0.50454228  1
  Ag  Ag17  1  0.16176683  0.66716029  0.83337619  1
  Ag  Ag18  1  0.66509703  0.16196623  0.16691447  1
  Ag  Ag19  1  0.50016283  -0.00393875  0.50410893  1
  Ag  Ag20  1  0.33305710  0.33335727  0.33341360  1
  Ag  Ag21  1  0.00312659  0.32623800  0.67023428  1
  Ag  Ag22  1  0.49977928  0.33400468  0.82565607  1
  Ag  Ag23  1  0.00267416  0.16488330  0.16073193  1
  Ag  Ag24  1  0.50453797  0.83704599  0.66007188  1
  Ag  Ag25  1  -0.00399153  0.00362086  0.67483690  1
  Ag  Ag26  1  0.00063283  0.84651803  0.83483859  1
  Ag  Ag27  1  0.33787614  0.83390333  0.49330513  1
  Ag  Ag28  1  -0.00015527  -0.00117359  -0.01218364  1
  Ag  Ag29  1  0.82638531  0.67039212  0.50047017  1
  Ag  Ag30  1  0.16407607  0.32807454  0.82812788  1
  Ag  Ag31  1  0.84388029  0.00515473  0.82588540  1
  Ag  Ag32  1  0.50268915  0.66858851  0.17355154  1
  Ag  Ag33  1  0.33326677  -0.00607411  0.33896646  1
  Ag  Ag34  1  0.33136416  0.49886475  0.17336089  1
  Ag  Ag35  1  0.66660686  0.66861420  0.33639882  1
  Ag  Ag36  1  -0.00312592  0.66857339  0.00374259  1
  Ag  Ag37  1  0.66969739  0.66409578  -0.00093138  1
  Ag  Ag38  1  0.33540859  0.83331655  0.17527861  1
  Ag  Ag39  1  0.16901702  0.50356055  0.33568689  1
  Ag  Ag40  1  0.82924459  -0.00345391  0.50874282  1
  Ag  Ag41  1  0.66488418  0.49715483  0.83377645  1
  Ag  Ag42  1  0.00146073  0.15869967  0.83317060  1
  Ag  Ag43  1  0.83257871  0.50184895  -0.00179817  1
  Ag  Ag44  1  0.33905374  0.00036853  0.66063679  1
  Ag  Ag45  1  0.33318941  0.33382072  0.00292700  1
  Ag  Ag46  1  0.16652423  0.16607536  0.67260177  1
  Ag  Ag47  1  0.66320179  0.83141380  0.16795526  1
  Ag  Ag48  1  0.66810179  -0.00158692  0.66483402  1
  Ag  Ag49  1  -0.00225786  0.66639851  0.32923315  1
  Ag  Ag50  1  0.49402774  0.33516612  0.50632649  1
  Ag  Ag51  1  0.00026770  0.83026276  0.16456170  1
  Ag  Ag52  1  0.50186898  0.50042463  -0.00397643  1
  Ag  Ag53  1  0.83249917  0.16595628  0.33338213  1
  Sb  Sb54  1  0.67006032  0.83385469  0.83183920  1
  Sb  Sb55  1  0.83750772  0.16918924  -0.00154767  1
  Sb  Sb56  1  0.49888138  -0.00471042  0.17264604  1
  Sb  Sb57  1  0.83147512  0.15876463  0.66690391  1
  Sb  Sb58  1  0.66250844  0.50104139  0.50471185  1
  Sb  Sb59  1  0.33841739  0.16682209  0.49722580  1
  Sb  Sb60  1  0.49430589  0.50619604  0.33610617  1
  Sb  Sb61  1  0.33272580  0.32813647  0.66409196  1
  Sb  Sb62  1  0.49691278  0.17134608  -0.00450493  1
  Sb  Sb63  1  0.00297071  0.83020531  0.49955690  1
  Sb  Sb64  1  0.66401046  -0.00291491  0.33941237  1
  Sb  Sb65  1  0.33402965  0.66882952  0.33346189  1
  Sb  Sb66  1  0.83664520  0.82973080  -0.00434524  1
  Sb  Sb67  1  0.50163075  0.00608431  0.82302165  1
  Sb  Sb68  1  0.16685445  0.49662074  0.00192731  1
  Sb  Sb69  1  0.66463157  0.50287836  0.16217213  1
  Sb  Sb70  1  0.83491097  0.33258560  0.16155889  1
  Sb  Sb71  1  0.83429932  0.00073946  0.16681581  1
  Sb  Sb72  1  0.50148208  0.16343937  0.33830253  1
  Sb  Sb73  1  0.33705710  0.49728245  0.83209578  1
  Sb  Sb74  1  0.50037896  0.66261613  0.83041711  1
  Sb  Sb75  1  0.83539996  0.66765154  0.83054270  1
  Sb  Sb76  1  0.33951498  0.67062645  0.66440395  1
  Sb  Sb77  1  0.32867474  0.00466174  0.00044098  1
  Sb  Sb78  1  -0.00287811  0.49757595  0.83361302  1
  Sb  Sb79  1  0.83354421  0.33245816  0.50584865  1
  Sb  Sb80  1  0.17048535  0.49464811  0.66298087  1
  Sb  Sb81  1  0.50076617  0.82833924  0.00144216  1
  Sb  Sb82  1  0.16821071  0.66288797  0.50085539  1
  Sb  Sb83  1  0.16396489  0.83612667  0.00190128  1
  Sb  Sb84  1  0.16583775  0.66705120  0.16681286  1
  Sb  Sb85  1  0.65888411  0.83471961  0.49970665  1
  Sb  Sb86  1  0.33330713  0.66198925  0.00229579  1
  Sb  Sb87  1  0.49680932  0.33640038  0.16742602  1
  Sb  Sb88  1  0.32941154  0.83548203  0.83179228  1
  Sb  Sb89  1  0.83156743  0.83472127  0.33904937  1
  Sb  Sb90  1  0.82885213  0.50352555  0.66962401  1
  Sb  Sb91  1  0.66278187  0.33719222  -0.00364332  1
  Sb  Sb92  1  0.00457201  0.33252386  -0.00574456  1
  Sb  Sb93  1  0.16851836  0.00441897  0.50539227  1
  Sb  Sb94  1  0.16633844  0.16711562  0.33445081  1
  Sb  Sb95  1  0.00506844  0.33584870  0.33703172  1
  Sb  Sb96  1  0.16735100  0.83871441  0.66451387  1
  Sb  Sb97  1  0.00261145  -0.00261875  0.33454509  1
  Sb  Sb98  1  0.66580231  0.32970164  0.66916042  1
  Sb  Sb99  1  0.83147446  0.66747759  0.17007740  1
  Sb  Sb100  1  0.83793504  0.49863249  0.33125592  1
  Sb  Sb101  1  0.66183034  0.33466953  0.33512559  1
  Sb  Sb102  1  -0.00398811  0.66846415  0.66698415  1
  Sb  Sb103  1  0.67138404  -0.00260098  -0.00534789  1
  Sb  Sb104  1  -0.00349402  0.16911911  0.50399548  1
  Sb  Sb105  1  0.16853670  0.33290161  0.16655785  1
  Sb  Sb106  1  0.32769175  0.16791888  0.83385242  1
  Sb  Sb107  1  0.16620304  0.00024909  0.16398926  1
  Te  Te108  1  0.16546955  0.16652606  0.16597696  1
  Te  Te109  1  0.16603762  0.17398922  0.50374645  1
  Te  Te110  1  0.16535616  0.16779375  0.83230961  1
  Te  Te111  1  0.16722635  0.49997282  0.17135040  1
  Te  Te112  1  0.16846208  0.49638462  0.49718669  1
  Te  Te113  1  0.16754463  0.49512033  0.83259677  1
  Te  Te114  1  0.16601913  0.83356618  0.17204871  1
  Te  Te115  1  0.17381764  0.83241819  0.49464368  1
  Te  Te116  1  0.16212532  0.83419234  0.83326819  1
  Te  Te117  1  0.49878468  0.16559074  0.16514713  1
  Te  Te118  1  0.50453632  0.16554810  0.50319944  1
  Te  Te119  1  0.50298219  0.17276118  0.82882826  1
  Te  Te120  1  0.49660353  0.50395871  0.16498605  1
  Te  Te121  1  0.49765440  0.49912406  0.50277791  1
  Te  Te122  1  0.50270858  0.49665490  0.83234944  1
  Te  Te123  1  0.49986219  0.82933912  0.16695923  1
  Te  Te124  1  0.49788668  0.83268872  0.50078790  1
  Te  Te125  1  0.49909255  0.83342034  0.82845715  1
  Te  Te126  1  0.83444959  0.16688753  0.16922665  1
  Te  Te127  1  0.82850449  0.16537334  0.49632457  1
  Te  Te128  1  0.83375553  0.16715703  0.83311391  1
  Te  Te129  1  0.83777634  0.49985394  0.16125325  1
  Te  Te130  1  0.83563852  0.50302515  0.49997153  1
  Te  Te131  1  0.82852996  0.49745079  0.83693989  1
  Te  Te132  1  0.83650666  0.83440797  0.16756705  1
  Te  Te133  1  0.83494704  0.83316271  0.50462578  1
  Te  Te134  1  0.83796038  0.83757841  0.82797559  1
  Te  Te135  1  0.16142109  0.00494488  -0.00576527  1
  Te  Te136  1  0.17184632  -0.00326291  0.33551945  1
  Te  Te137  1  0.16387557  0.00422988  0.66968894  1
  Te  Te138  1  0.17188321  0.32882588  -0.00391612  1
  Te  Te139  1  0.17200733  0.33584210  0.33819558  1
  Te  Te140  1  0.16606005  0.32923869  0.66658209  1
  Te  Te141  1  0.16160817  0.66622298  -0.00500560  1
  Te  Te142  1  0.15969310  0.66602271  0.33401317  1
  Te  Te143  1  0.16614435  0.66677173  0.67209295  1
  Te  Te144  1  0.50035212  -0.00094270  -0.00256661  1
  Te  Te145  1  0.49544442  -0.00577044  0.33981857  1
  Te  Te146  1  0.50103823  0.00044779  0.66372912  1
  Te  Te147  1  0.49468960  0.33849806  -0.00298770  1
  Te  Te148  1  0.49369969  0.33353022  0.33911737  1
  Te  Te149  1  0.49941133  0.33275151  0.66617103  1
  Te  Te150  1  0.50267812  0.66112726  -0.00007639  1
  Te  Te151  1  0.50304936  0.67039399  0.33469978  1
  Te  Te152  1  0.50473495  0.66703856  0.66452921  1
  Te  Te153  1  0.83940075  -0.00035584  -0.00581738  1
  Te  Te154  1  0.83309490  0.00504978  0.33902302  1
  Te  Te155  1  0.83265612  -0.00160191  0.66597804  1
  Te  Te156  1  0.83292059  0.33994352  -0.00719210  1
  Te  Te157  1  0.83187341  0.32740660  0.33528737  1
  Te  Te158  1  0.83893257  0.33515732  0.67245950  1
  Te  Te159  1  0.83409250  0.66278197  -0.00078280  1
  Te  Te160  1  0.83342079  0.66610425  0.33997784  1
  Te  Te161  1  0.82738004  0.67132324  0.66143721  1
  Te  Te162  1  0.00254496  0.16565579  0.00021112  1
  Te  Te163  1  -0.00339566  0.16687284  0.32952801  1
  Te  Te164  1  0.00104346  0.16587231  0.66935501  1
  Te  Te165  1  -0.00103866  0.50239104  0.00391955  1
  Te  Te166  1  0.00324965  0.50236900  0.33192043  1
  Te  Te167  1  0.00066485  0.49876679  0.66248053  1
  Te  Te168  1  0.00065942  0.83149212  0.00212717  1
  Te  Te169  1  0.00081597  0.82925180  0.33041994  1
  Te  Te170  1  -0.00154231  0.83630566  0.66874389  1
  Te  Te171  1  0.32943838  0.17031194  0.00660330  1
  Te  Te172  1  0.33347711  0.16753620  0.32731115  1
  Te  Te173  1  0.33497126  0.16057005  0.66640065  1
  Te  Te174  1  0.33629900  0.49530909  0.00418976  1
  Te  Te175  1  0.32943665  0.49997562  0.33360809  1
  Te  Te176  1  0.33964183  0.50056047  0.66085333  1
  Te  Te177  1  0.33307927  0.83396064  0.00801061  1
  Te  Te178  1  0.33371164  0.83354727  0.33274775  1
  Te  Te179  1  0.33682043  0.83899883  0.66383448  1
  Te  Te180  1  0.66638491  0.16566108  -0.00003287  1
  Te  Te181  1  0.66905207  0.16706313  0.32944793  1
  Te  Te182  1  0.66385348  0.16386262  0.66811606  1
  Te  Te183  1  0.66519438  0.50348542  -0.00277410  1
  Te  Te184  1  0.66786033  0.50642971  0.33209694  1
  Te  Te185  1  0.66142614  0.50308881  0.67188691  1
  Te  Te186  1  0.66727447  0.82754759  0.00595731  1
  Te  Te187  1  0.66429945  0.82948906  0.32729570  1
  Te  Te188  1  0.66549594  0.83396243  0.66667307  1
  Te  Te189  1  -0.00030706  0.00060492  0.16649727  1
  Te  Te190  1  -0.00365847  -0.00002567  0.50409477  1
  Te  Te191  1  -0.00024624  0.00158535  0.83260480  1
  Te  Te192  1  0.00064327  0.33207655  0.16695326  1
  Te  Te193  1  0.00201019  0.33799223  0.50481334  1
  Te  Te194  1  0.00159786  0.33132066  0.82961091  1
  Te  Te195  1  -0.00081409  0.66685986  0.16632979  1
  Te  Te196  1  -0.00119471  0.66200374  0.49781867  1
  Te  Te197  1  0.00295618  0.66583308  0.83619513  1
  Te  Te198  1  0.33297414  -0.00038493  0.16940353  1
  Te  Te199  1  0.33515985  -0.00007079  0.50027890  1
  Te  Te200  1  0.33049070  -0.00009766  0.83001181  1
  Te  Te201  1  0.33349787  0.33471224  0.16848052  1
  Te  Te202  1  0.33411958  0.33390038  0.49831558  1
  Te  Te203  1  0.33442782  0.33333320  0.83625422  1
  Te  Te204  1  0.33746564  0.66592228  0.16654587  1
  Te  Te205  1  0.33847391  0.66509341  0.49983940  1
  Te  Te206  1  0.32472606  0.66701930  0.83408468  1
  Te  Te207  1  0.66681209  0.00079900  0.16516138  1
  Te  Te208  1  0.66658742  0.00222168  0.50349981  1
  Te  Te209  1  0.66936627  0.00323423  0.82835737  1
  Te  Te210  1  0.66597935  0.32602967  0.16688862  1
  Te  Te211  1  0.66175910  0.32792067  0.50051364  1
  Te  Te212  1  0.66608568  0.33199131  0.83323770  1
  Te  Te213  1  0.66465949  0.66819380  0.16593228  1
  Te  Te214  1  0.66507312  0.66658276  0.50090316  1
  Te  Te215  1  0.66698108  0.66489946  0.83476049  1
