# generated using pymatgen
data_AgSbTe2
_symmetry_space_group_name_H-M   'P 1'
_cell_length_a   18.33843534
_cell_length_b   18.33882835
_cell_length_c   18.33115525
_cell_angle_alpha   90.00067648
_cell_angle_beta   89.99865601
_cell_angle_gamma   89.99946157
_symmetry_Int_Tables_number   1
_chemical_formula_structural   AgSbTe2
_chemical_formula_sum   'Ag54 Sb54 Te108'
_cell_volume   6164.86682733
_cell_formula_units_Z   54
loop_
 _symmetry_equiv_pos_site_id
 _symmetry_equiv_pos_as_xyz
  1  'x, y, z'
loop_
 _atom_site_type_symbol
 _atom_site_label
 _atom_site_symmetry_multiplicity
 _atom_site_fract_x
 _atom_site_fract_y
 _atom_site_fract_z
 _atom_site_occupancy
  Ag  Ag0  1  0.17383292  0.00488408  0.50193622  1
  Ag  Ag1  1  0.49476594  0.66951591  0.50187578  1
  Ag  Ag2  1  0.01271399  -0.00085937  0.66177121  1
  Ag  Ag3  1  0.00323211  0.66239411  0.33338278  1
  Ag  Ag4  1  0.49749724  0.00711621  0.17504198  1
  Ag  Ag5  1  0.33124646  0.50085969  0.50010190  1
  Ag  Ag6  1  0.66296815  0.33253140  0.66770794  1
  Ag  Ag7  1  0.48776212  0.49668414  0.33687306  1
  Ag  Ag8  1  0.65880232  0.16839656  0.17225004  1
  Ag  Ag9  1  0.49747147  0.17080076  0.33176459  1
  Ag  Ag10  1  0.33487559  0.66005813  0.66351052  1
  Ag  Ag11  1  0.00907253  0.66899563  0.65735476  1
  Ag  Ag12  1  0.17092919  0.66305424  0.49881658  1
  Ag  Ag13  1  0.17104345  0.17353089  0.01481490  1
  Ag  Ag14  1  0.01619425  0.16815672  0.17117653  1
  Ag  Ag15  1  0.00323256  0.83153501  0.49952450  1
  Ag  Ag16  1  0.16906654  0.17786334  0.33160157  1
  Ag  Ag17  1  0.66094773  0.16870571  0.49493259  1
  Ag  Ag18  1  0.33282853  -0.00078152  0.66714442  1
  Ag  Ag19  1  0.83570917  0.17225990  0.33440843  1
  Ag  Ag20  1  0.49785008  0.16678592  0.65655506  1
  Ag  Ag21  1  0.66176879  0.33659104  0.00255562  1
  Ag  Ag22  1  0.17404766  0.50024889  0.65521524  1
  Ag  Ag23  1  0.16675744  0.65522792  0.16994307  1
  Ag  Ag24  1  0.17174584  0.50045323  0.01137417  1
  Ag  Ag25  1  0.17728658  0.33584550  0.17637479  1
  Ag  Ag26  1  0.49355681  -0.00140332  0.49798009  1
  Ag  Ag27  1  0.49678501  0.83223692  0.00585176  1
  Ag  Ag28  1  0.65317043  0.66189288  0.66489066  1
  Ag  Ag29  1  0.01285908  0.33791596  0.33204064  1
  Ag  Ag30  1  0.66204379  0.83334389  0.16489437  1
  Ag  Ag31  1  0.17120708  0.49206721  0.33340688  1
  Ag  Ag32  1  0.83096261  0.16792210  0.65872952  1
  Ag  Ag33  1  0.33362290  0.17757038  0.16874482  1
  Ag  Ag34  1  0.49633248  0.82832561  0.65909895  1
  Ag  Ag35  1  0.82980383  0.82643111  0.00482882  1
  Ag  Ag36  1  0.33266327  0.33431976  0.00906046  1
  Ag  Ag37  1  0.66942732  0.66531397  0.00239159  1
  Ag  Ag38  1  0.83221117  0.83108168  0.32935678  1
  Ag  Ag39  1  0.33210298  0.00147395  -0.00104559  1
  Ag  Ag40  1  0.16984453  0.17073671  0.65861859  1
  Ag  Ag41  1  0.00526364  0.66695865  0.00725767  1
  Ag  Ag42  1  0.48862106  0.32790729  0.16989719  1
  Ag  Ag43  1  0.50182937  0.83383775  0.33371545  1
  Ag  Ag44  1  0.33117580  0.50140942  0.82610890  1
  Ag  Ag45  1  0.32593121  0.33609612  0.32424450  1
  Ag  Ag46  1  0.83137191  0.33415044  0.83534717  1
  Ag  Ag47  1  0.33431811  0.82959681  0.83248298  1
  Ag  Ag48  1  0.33059593  0.49095793  0.17010409  1
  Ag  Ag49  1  0.49002497  0.50643162  0.65735015  1
  Ag  Ag50  1  0.16841434  0.33593567  0.48892549  1
  Ag  Ag51  1  0.83727911  0.50379761  0.00588964  1
  Ag  Ag52  1  0.17327052  0.82516693  0.00314321  1
  Ag  Ag53  1  0.83839042  0.49493839  0.32885759  1
  Sb  Sb54  1  0.33615798  0.33500916  0.66621791  1
  Sb  Sb55  1  0.65925538  0.00248060  0.66434887  1
  Sb  Sb56  1  0.83402701  0.49695184  0.66647210  1
  Sb  Sb57  1  0.65974410  -0.00087791  0.00375949  1
  Sb  Sb58  1  0.17005840  -0.00080000  0.82801581  1
  Sb  Sb59  1  0.00197476  0.16817530  0.83438381  1
  Sb  Sb60  1  0.33579706  0.00550675  0.33473613  1
  Sb  Sb61  1  0.50072263  0.33398370  0.83595179  1
  Sb  Sb62  1  0.32882232  0.65833135  0.33820177  1
  Sb  Sb63  1  0.83671617  0.33251596  0.49999332  1
  Sb  Sb64  1  0.83333793  0.66188446  0.83641244  1
  Sb  Sb65  1  0.33740708  0.83431146  0.16239389  1
  Sb  Sb66  1  0.16560406  0.33520339  0.83524713  1
  Sb  Sb67  1  0.83479699  0.00308016  0.83313963  1
  Sb  Sb68  1  0.17342072  0.00506751  0.17089408  1
  Sb  Sb69  1  0.00306261  0.16345406  0.49550943  1
  Sb  Sb70  1  0.49424321  0.33304361  0.49605728  1
  Sb  Sb71  1  0.49681945  -0.00063594  0.83091403  1
  Sb  Sb72  1  0.66091061  0.49880924  0.16646253  1
  Sb  Sb73  1  0.00959609  0.50604104  0.49624531  1
  Sb  Sb74  1  0.16924039  0.83052661  0.33135056  1
  Sb  Sb75  1  0.66009334  0.49567597  0.50021241  1
  Sb  Sb76  1  0.00533767  0.50048669  0.83502083  1
  Sb  Sb77  1  0.83547637  0.16906764  0.00480269  1
  Sb  Sb78  1  0.33404319  0.17104009  0.49649515  1
  Sb  Sb79  1  0.83349837  0.00186214  0.49984827  1
  Sb  Sb80  1  0.49455359  0.16460303  0.00740245  1
  Sb  Sb81  1  0.00497541  0.83123800  0.83125641  1
  Sb  Sb82  1  0.00921454  -0.00427434  -0.00213734  1
  Sb  Sb83  1  0.33310905  0.17007330  0.83552843  1
  Sb  Sb84  1  0.82846359  0.00046710  0.16763755  1
  Sb  Sb85  1  0.49510900  0.50268737  0.00268791  1
  Sb  Sb86  1  0.66344750  0.00243442  0.33345857  1
  Sb  Sb87  1  0.00852601  0.49613717  0.16960709  1
  Sb  Sb88  1  0.00429908  0.33786851  0.00670762  1
  Sb  Sb89  1  0.00093993  0.33371158  0.66059994  1
  Sb  Sb90  1  0.66574500  0.16948192  0.83263199  1
  Sb  Sb91  1  0.66356577  0.33145596  0.33231463  1
  Sb  Sb92  1  0.83394995  0.33299607  0.16553749  1
  Sb  Sb93  1  0.83421262  0.66621887  0.49866393  1
  Sb  Sb94  1  0.00307967  0.00066348  0.33723022  1
  Sb  Sb95  1  0.83840679  0.66589642  0.16620397  1
  Sb  Sb96  1  0.66457138  0.83497589  0.49688739  1
  Sb  Sb97  1  0.33182507  0.66570568  -0.00273221  1
  Sb  Sb98  1  0.83102139  0.83591246  0.66607808  1
  Sb  Sb99  1  0.49708953  0.66632441  0.82645308  1
  Sb  Sb100  1  0.49434959  0.66573921  0.17192109  1
  Sb  Sb101  1  0.17288146  0.83020769  0.66682424  1
  Sb  Sb102  1  -0.00219816  0.83614467  0.16992180  1
  Sb  Sb103  1  0.66089712  0.83048131  0.83790875  1
  Sb  Sb104  1  0.66104967  0.49909640  0.83374337  1
  Sb  Sb105  1  0.33291940  0.83019744  0.50277302  1
  Sb  Sb106  1  0.66822588  0.66682760  0.33289575  1
  Sb  Sb107  1  0.16856243  0.66559035  0.83203871  1
  Te  Te108  1  0.17215322  0.16697246  0.17101816  1
  Te  Te109  1  0.16795863  0.16518339  0.49901688  1
  Te  Te110  1  0.16700407  0.16711880  0.82593262  1
  Te  Te111  1  0.16882802  0.49753358  0.17051597  1
  Te  Te112  1  0.16959304  0.50196814  0.49633515  1
  Te  Te113  1  0.17225556  0.49914378  0.83257656  1
  Te  Te114  1  0.16661188  0.83518719  0.16224407  1
  Te  Te115  1  0.16409612  0.82963545  0.49944555  1
  Te  Te116  1  0.17225971  0.83324312  0.84435933  1
  Te  Te117  1  0.49815393  0.16691966  0.16833905  1
  Te  Te118  1  0.49982408  0.16709646  0.49696753  1
  Te  Te119  1  0.49899840  0.16663780  0.81844306  1
  Te  Te120  1  0.49399016  0.49708437  0.17140156  1
  Te  Te121  1  0.49554696  0.49935800  0.49788580  1
  Te  Te122  1  0.49210258  0.49927444  0.82672886  1
  Te  Te123  1  0.50203894  0.83203766  0.16892026  1
  Te  Te124  1  0.50065316  0.83394959  0.49839104  1
  Te  Te125  1  0.49403863  0.83314792  0.83490563  1
  Te  Te126  1  0.82255839  0.16559202  0.17220838  1
  Te  Te127  1  0.82877464  0.16606843  0.49748387  1
  Te  Te128  1  0.83400005  0.17131040  0.83152158  1
  Te  Te129  1  0.83148507  0.50021176  0.16608443  1
  Te  Te130  1  0.83237362  0.49950787  0.49352765  1
  Te  Te131  1  0.83309473  0.49475603  0.83671136  1
  Te  Te132  1  0.82922057  0.83377821  0.16712382  1
  Te  Te133  1  0.83542941  0.83439349  0.49508511  1
  Te  Te134  1  0.83335486  0.83444136  0.84044493  1
  Te  Te135  1  0.17197797  0.00448766  0.00018360  1
  Te  Te136  1  0.16876676  0.00095033  0.34152999  1
  Te  Te137  1  0.17065042  -0.00248728  0.66228997  1
  Te  Te138  1  0.16796854  0.33432886  0.00166947  1
  Te  Te139  1  0.16831283  0.33312926  0.33260339  1
  Te  Te140  1  0.16674472  0.33455013  0.66680523  1
  Te  Te141  1  0.16640528  0.66295894  0.00090600  1
  Te  Te142  1  0.16345391  0.66688822  0.33513689  1
  Te  Te143  1  0.16805932  0.66495557  0.66352720  1
  Te  Te144  1  0.49348978  -0.00374205  0.00139006  1
  Te  Te145  1  0.49876054  0.00009422  0.33516232  1
  Te  Te146  1  0.49522187  -0.00008888  0.66370263  1
  Te  Te147  1  0.50081470  0.33338053  0.00372840  1
  Te  Te148  1  0.49894361  0.33410326  0.33050905  1
  Te  Te149  1  0.50287002  0.33187864  0.66671123  1
  Te  Te150  1  0.50395233  0.67054833  0.00250986  1
  Te  Te151  1  0.50087633  0.66369303  0.33918967  1
  Te  Te152  1  0.49643177  0.66578300  0.66289613  1
  Te  Te153  1  0.83601417  -0.00549820  -0.00049694  1
  Te  Te154  1  0.83462874  -0.00204539  0.33361583  1
  Te  Te155  1  0.83368371  0.00636430  0.66693142  1
  Te  Te156  1  0.83406115  0.33618450  -0.00187651  1
  Te  Te157  1  0.83315860  0.33207369  0.33301160  1
  Te  Te158  1  0.83169638  0.32909998  0.66781892  1
  Te  Te159  1  0.83119261  0.66559053  0.00096632  1
  Te  Te160  1  0.83770027  0.66953449  0.33252547  1
  Te  Te161  1  0.83549166  0.66711462  0.66785573  1
  Te  Te162  1  0.00573239  0.16617970  0.00484854  1
  Te  Te163  1  -0.00050790  0.16653129  0.33133138  1
  Te  Te164  1  0.00332331  0.16511024  0.66547822  1
  Te  Te165  1  -0.00100075  0.50577262  0.00190275  1
  Te  Te166  1  -0.00176583  0.50088736  0.33211838  1
  Te  Te167  1  0.00364199  0.50532528  0.66678949  1
  Te  Te168  1  -0.00027054  0.82857721  0.00015860  1
  Te  Te169  1  -0.00161315  0.83053886  0.33581281  1
  Te  Te170  1  -0.00106003  0.83131215  0.66367468  1
  Te  Te171  1  0.33022297  0.16728354  0.00162559  1
  Te  Te172  1  0.33498606  0.17113842  0.33045720  1
  Te  Te173  1  0.33147207  0.16636245  0.66790207  1
  Te  Te174  1  0.33126655  0.49896903  0.00388530  1
  Te  Te175  1  0.33155270  0.49788980  0.33336163  1
  Te  Te176  1  0.33214187  0.49741474  0.66509303  1
  Te  Te177  1  0.33450784  0.83266651  -0.00349722  1
  Te  Te178  1  0.34097010  0.83322623  0.33300165  1
  Te  Te179  1  0.33698785  0.83525121  0.66898071  1
  Te  Te180  1  0.66680026  0.17046519  0.00399050  1
  Te  Te181  1  0.66444836  0.16789145  0.33319126  1
  Te  Te182  1  0.66695637  0.16876089  0.66613274  1
  Te  Te183  1  0.66656087  0.50039170  -0.00000518  1
  Te  Te184  1  0.67367720  0.49975187  0.33289138  1
  Te  Te185  1  0.66563590  0.50033554  0.66718159  1
  Te  Te186  1  0.66564059  0.83229319  0.00320953  1
  Te  Te187  1  0.66654394  0.83245630  0.32890586  1
  Te  Te188  1  0.66121292  0.82887414  0.66738330  1
  Te  Te189  1  -0.00007344  0.00783705  0.16555276  1
  Te  Te190  1  0.00222002  -0.00518671  0.50438521  1
  Te  Te191  1  0.00099591  -0.00034246  0.82155414  1
  Te  Te192  1  0.00219668  0.32704928  0.17258683  1
  Te  Te193  1  0.00728867  0.33252191  0.49268781  1
  Te  Te194  1  -0.00852199  0.33419758  0.83334177  1
  Te  Te195  1  0.00697815  0.66865076  0.16743104  1
  Te  Te196  1  0.00107145  0.67066327  0.49867093  1
  Te  Te197  1  0.00006453  0.66668988  0.83244737  1
  Te  Te198  1  0.33926672  0.00147875  0.16361592  1
  Te  Te199  1  0.33407220  -0.00059224  0.50382946  1
  Te  Te200  1  0.33340239  -0.00384989  0.83348783  1
  Te  Te201  1  0.33234946  0.33410901  0.16506515  1
  Te  Te202  1  0.32758610  0.33867484  0.49787185  1
  Te  Te203  1  0.33329793  0.33916527  0.84254921  1
  Te  Te204  1  0.32644346  0.66343038  0.16654301  1
  Te  Te205  1  0.33340339  0.66376845  0.50352913  1
  Te  Te206  1  0.33311049  0.66553428  0.82529702  1
  Te  Te207  1  0.65814316  0.00027200  0.16639405  1
  Te  Te208  1  0.65820351  0.00652707  0.50084528  1
  Te  Te209  1  0.66694287  -0.00027807  0.83427127  1
  Te  Te210  1  0.66549057  0.33171889  0.16235713  1
  Te  Te211  1  0.66679674  0.32839252  0.50611904  1
  Te  Te212  1  0.66997645  0.33403222  0.83510352  1
  Te  Te213  1  0.66569897  0.66998813  0.16284611  1
  Te  Te214  1  0.66200397  0.66642006  0.50465936  1
  Te  Te215  1  0.66611684  0.66576486  0.83341962  1
