# generated using pymatgen
data_AgSbTe2
_symmetry_space_group_name_H-M   'P 1'
_cell_length_a   18.33571608
_cell_length_b   18.33122662
_cell_length_c   18.34224431
_cell_angle_alpha   89.99785586
_cell_angle_beta   89.99969326
_cell_angle_gamma   90.00238713
_symmetry_Int_Tables_number   1
_chemical_formula_structural   AgSbTe2
_chemical_formula_sum   'Ag54 Sb54 Te108'
_cell_volume   6165.12483523
_cell_formula_units_Z   54
loop_
 _symmetry_equiv_pos_site_id
 _symmetry_equiv_pos_as_xyz
  1  'x, y, z'
loop_
 _atom_site_type_symbol
 _atom_site_label
 _atom_site_symmetry_multiplicity
 _atom_site_fract_x
 _atom_site_fract_y
 _atom_site_fract_z
 _atom_site_occupancy
  Ag  Ag0  1  0.84126851  0.00032161  0.82584884  1
  Ag  Ag1  1  0.15818279  0.00363114  0.83109894  1
  Ag  Ag2  1  0.16910334  0.82964154  -0.00120350  1
  Ag  Ag3  1  0.00417439  0.83451956  0.49541699  1
  Ag  Ag4  1  0.32827083  0.82037425  0.50368350  1
  Ag  Ag5  1  0.16546385  0.33578939  0.82607732  1
  Ag  Ag6  1  0.16329561  0.50137509  -0.00282747  1
  Ag  Ag7  1  0.49349682  0.83413295  0.00612935  1
  Ag  Ag8  1  -0.00159600  0.83859296  0.17690800  1
  Ag  Ag9  1  0.50000728  0.51046444  0.33997095  1
  Ag  Ag10  1  0.00055976  0.16392960  0.82466499  1
  Ag  Ag11  1  0.83725483  0.50980894  0.33811827  1
  Ag  Ag12  1  0.00898679  0.50008884  0.50188665  1
  Ag  Ag13  1  0.48537282  0.65821751  0.48719565  1
  Ag  Ag14  1  0.67536325  0.00213513  -0.00031774  1
  Ag  Ag15  1  -0.00280897  0.66924504  0.33554039  1
  Ag  Ag16  1  0.65900382  0.66844113  0.33508947  1
  Ag  Ag17  1  0.49498593  0.33851566  0.16695316  1
  Ag  Ag18  1  0.32652324  0.17362097  0.50334749  1
  Ag  Ag19  1  0.00393134  0.33404586  0.66487432  1
  Ag  Ag20  1  0.50092347  0.16683113  0.00043964  1
  Ag  Ag21  1  0.84388861  0.49846319  0.65616360  1
  Ag  Ag22  1  0.32419376  0.50602135  0.50065224  1
  Ag  Ag23  1  0.67853837  -0.00680919  0.33696785  1
  Ag  Ag24  1  -0.00102777  0.00619767  0.66497663  1
  Ag  Ag25  1  0.50014742  0.66497037  0.17803129  1
  Ag  Ag26  1  0.00288689  0.16286174  0.50603229  1
  Ag  Ag27  1  0.49248716  0.33323705  0.83244711  1
  Ag  Ag28  1  0.66687971  0.50010021  0.49728148  1
  Ag  Ag29  1  0.83972702  0.50087366  0.00135216  1
  Ag  Ag30  1  0.32535393  0.00033703  0.66529111  1
  Ag  Ag31  1  0.16237516  0.49650531  0.65883300  1
  Ag  Ag32  1  0.17034696  0.34411487  0.50859685  1
  Ag  Ag33  1  0.17383056  0.65542828  0.49645745  1
  Ag  Ag34  1  0.33231684  0.66457217  0.65378064  1
  Ag  Ag35  1  0.33123524  0.83345092  0.82551093  1
  Ag  Ag36  1  0.83734154  0.82915743  0.33253382  1
  Ag  Ag37  1  0.68123854  0.00071544  0.66390005  1
  Ag  Ag38  1  0.33217680  0.66780308  0.00140552  1
  Ag  Ag39  1  -0.00054869  0.15883516  0.16738096  1
  Ag  Ag40  1  0.00331004  0.49412060  0.82026391  1
  Ag  Ag41  1  0.83872434  -0.00055430  0.49934991  1
  Ag  Ag42  1  0.83397784  0.66905708  0.17539386  1
  Ag  Ag43  1  0.83944982  0.15983415  0.66565526  1
  Ag  Ag44  1  0.16395526  0.50292081  0.34636004  1
  Ag  Ag45  1  0.49039313  0.34129796  0.49959124  1
  Ag  Ag46  1  0.16727035  0.33717087  0.16563242  1
  Ag  Ag47  1  0.66209790  0.33199905  -0.00045055  1
  Ag  Ag48  1  0.50356626  0.82266586  0.33155322  1
  Ag  Ag49  1  -0.00462687  0.00030520  -0.00169991  1
  Ag  Ag50  1  0.32271530  0.33441769  0.66224246  1
  Ag  Ag51  1  0.34725353  0.66517666  0.34402908  1
  Ag  Ag52  1  -0.00372728  -0.00683523  0.33876447  1
  Ag  Ag53  1  0.83873515  -0.00521475  0.17312123  1
  Sb  Sb54  1  0.33255370  0.34187864  0.34366434  1
  Sb  Sb55  1  0.32977572  -0.00939472  0.34304745  1
  Sb  Sb56  1  0.83663470  0.16118609  0.33755961  1
  Sb  Sb57  1  0.16771392  0.16762960  -0.00153880  1
  Sb  Sb58  1  0.00161393  0.33493460  0.33899794  1
  Sb  Sb59  1  0.33052169  -0.00526700  -0.00537031  1
  Sb  Sb60  1  0.67159285  0.16579094  0.16563422  1
  Sb  Sb61  1  0.16522283  0.17248383  0.33560584  1
  Sb  Sb62  1  0.50173180  0.16784840  0.66860611  1
  Sb  Sb63  1  0.32942589  0.83153875  0.16890152  1
  Sb  Sb64  1  0.66165986  0.83637843  0.83504014  1
  Sb  Sb65  1  0.83647322  0.83472145  0.65954513  1
  Sb  Sb66  1  0.00408021  0.66890516  0.00568977  1
  Sb  Sb67  1  0.00111108  0.50026073  0.17169856  1
  Sb  Sb68  1  0.50259041  -0.00096482  0.49989152  1
  Sb  Sb69  1  0.15962427  -0.00027447  0.50565452  1
  Sb  Sb70  1  0.66700599  0.50020641  0.17226199  1
  Sb  Sb71  1  0.67113717  0.16612996  0.83365524  1
  Sb  Sb72  1  0.66323837  0.66774512  0.00710860  1
  Sb  Sb73  1  0.67139119  0.83345268  0.16947085  1
  Sb  Sb74  1  0.49622170  0.66287278  0.83332614  1
  Sb  Sb75  1  0.83857197  0.33085083  0.83232575  1
  Sb  Sb76  1  0.49979821  0.16685004  0.33121958  1
  Sb  Sb77  1  0.00487748  0.83783551  0.83096607  1
  Sb  Sb78  1  0.16741309  0.66408669  0.82940548  1
  Sb  Sb79  1  0.49663244  0.83358403  0.66333465  1
  Sb  Sb80  1  0.15847897  0.17326479  0.66571674  1
  Sb  Sb81  1  0.33266813  0.50115258  0.17358575  1
  Sb  Sb82  1  0.50620780  -0.00338099  0.16525829  1
  Sb  Sb83  1  0.33516579  0.33771528  -0.00592315  1
  Sb  Sb84  1  0.16189980  0.82692016  0.33269236  1
  Sb  Sb85  1  0.32695747  0.50251303  0.82646268  1
  Sb  Sb86  1  0.66874740  0.16928010  0.50059940  1
  Sb  Sb87  1  0.49572852  0.49844726  0.65817714  1
  Sb  Sb88  1  0.83655083  0.66675797  0.49339763  1
  Sb  Sb89  1  0.83620607  0.66903274  0.83762579  1
  Sb  Sb90  1  0.00538179  0.66375203  0.65833331  1
  Sb  Sb91  1  0.66420552  0.33738619  0.33166900  1
  Sb  Sb92  1  0.66694952  0.83146079  0.49614773  1
  Sb  Sb93  1  0.32839493  0.16488594  0.82710173  1
  Sb  Sb94  1  0.67153953  0.49757372  0.82914467  1
  Sb  Sb95  1  0.83534422  0.33447576  0.16583587  1
  Sb  Sb96  1  -0.00062245  0.33157964  -0.00343339  1
  Sb  Sb97  1  0.15768481  0.00031151  0.16255312  1
  Sb  Sb98  1  0.66892876  0.33129649  0.66865403  1
  Sb  Sb99  1  0.32996253  0.16949794  0.17043047  1
  Sb  Sb100  1  0.16862258  0.83039549  0.66807003  1
  Sb  Sb101  1  0.49905638  0.00307509  0.83463245  1
  Sb  Sb102  1  0.83342661  0.16579288  -0.00322774  1
  Sb  Sb103  1  0.83801661  0.33449810  0.50080745  1
  Sb  Sb104  1  0.16668544  0.66275010  0.17195729  1
  Sb  Sb105  1  0.66266135  0.66742401  0.65621828  1
  Sb  Sb106  1  0.83568850  0.83455885  0.00608776  1
  Sb  Sb107  1  0.49936550  0.50045726  0.00458831  1
  Te  Te108  1  0.16217753  0.17334522  0.16635757  1
  Te  Te109  1  0.16472225  0.16976479  0.49954104  1
  Te  Te110  1  0.16134449  0.16793574  0.83390813  1
  Te  Te111  1  0.16723441  0.49628486  0.15654585  1
  Te  Te112  1  0.16483177  0.49902724  0.50161694  1
  Te  Te113  1  0.16334242  0.49757600  0.83730956  1
  Te  Te114  1  0.16025035  0.83216580  0.16027646  1
  Te  Te115  1  0.16659155  0.83261101  0.50027045  1
  Te  Te116  1  0.17093959  0.83402661  0.83759962  1
  Te  Te117  1  0.49879983  0.17020290  0.16308947  1
  Te  Te118  1  0.49868546  0.17160262  0.49978778  1
  Te  Te119  1  0.49878564  0.17218171  0.83882029  1
  Te  Te120  1  0.49957754  0.50102404  0.17287826  1
  Te  Te121  1  0.49944727  0.49927237  0.49893986  1
  Te  Te122  1  0.50069713  0.49380069  0.83295383  1
  Te  Te123  1  0.49815282  0.82983092  0.16836745  1
  Te  Te124  1  0.49644678  0.83119925  0.49576510  1
  Te  Te125  1  0.49309207  0.83372915  0.83754096  1
  Te  Te126  1  0.83953760  0.16435647  0.16632750  1
  Te  Te127  1  0.83689550  0.16487429  0.50456111  1
  Te  Te128  1  0.83981887  0.16192425  0.82951294  1
  Te  Te129  1  0.83386415  0.50284264  0.16659831  1
  Te  Te130  1  0.83282110  0.50020127  0.49782320  1
  Te  Te131  1  0.83890922  0.50006374  0.83737206  1
  Te  Te132  1  0.83827132  0.83306498  0.17038453  1
  Te  Te133  1  0.83670890  0.83730550  0.49369048  1
  Te  Te134  1  0.83221251  0.83890805  0.83429384  1
  Te  Te135  1  0.16307407  -0.00122206  -0.00535804  1
  Te  Te136  1  0.16002783  -0.00007583  0.33168910  1
  Te  Te137  1  0.16567785  -0.00207632  0.67165267  1
  Te  Te138  1  0.16755184  0.33549574  0.00002929  1
  Te  Te139  1  0.16752319  0.34116795  0.32886113  1
  Te  Te140  1  0.16433481  0.33578308  0.66729707  1
  Te  Te141  1  0.16925446  0.66670515  0.00109591  1
  Te  Te142  1  0.15956443  0.66230846  0.33587518  1
  Te  Te143  1  0.17253569  0.66087691  0.66206158  1
  Te  Te144  1  0.50171008  -0.00211683  0.00023110  1
  Te  Te145  1  0.50281571  -0.00297156  0.33231129  1
  Te  Te146  1  0.49869724  0.00121775  0.66794419  1
  Te  Te147  1  0.50084407  0.33438055  0.00240030  1
  Te  Te148  1  0.49940707  0.33442791  0.33201374  1
  Te  Te149  1  0.50045774  0.33207919  0.66663163  1
  Te  Te150  1  0.49747059  0.67036430  0.00143085  1
  Te  Te151  1  0.50308075  0.66651881  0.33312900  1
  Te  Te152  1  0.49369743  0.66639174  0.66384030  1
  Te  Te153  1  0.83414538  -0.00031775  0.00239299  1
  Te  Te154  1  0.83587364  -0.00016247  0.33428632  1
  Te  Te155  1  0.83809261  -0.00290197  0.66462073  1
  Te  Te156  1  0.82707264  0.33778494  0.00033291  1
  Te  Te157  1  0.83118299  0.34273634  0.33169327  1
  Te  Te158  1  0.83711176  0.33710389  0.66719356  1
  Te  Te159  1  0.83225409  0.66296058  0.00622538  1
  Te  Te160  1  0.83727798  0.66771396  0.33235394  1
  Te  Te161  1  0.83151996  0.66111524  0.66808856  1
  Te  Te162  1  -0.00007485  0.16254186  0.00113238  1
  Te  Te163  1  -0.00018358  0.16382981  0.33417783  1
  Te  Te164  1  -0.00278086  0.16655637  0.66617354  1
  Te  Te165  1  -0.00062045  0.50037849  0.00244280  1
  Te  Te166  1  0.00085754  0.50080881  0.33652443  1
  Te  Te167  1  0.00127498  0.50148944  0.66395726  1
  Te  Te168  1  0.00316601  0.83669442  -0.00132378  1
  Te  Te169  1  0.00017767  0.83358212  0.33538374  1
  Te  Te170  1  0.00095216  0.83617089  0.66138508  1
  Te  Te171  1  0.33968547  0.16516086  -0.00025954  1
  Te  Te172  1  0.33325479  0.16299354  0.34143244  1
  Te  Te173  1  0.33463928  0.16710193  0.66255485  1
  Te  Te174  1  0.33083773  0.50508606  -0.00225900  1
  Te  Te175  1  0.33247961  0.50598264  0.33854169  1
  Te  Te176  1  0.33013827  0.49878499  0.66272447  1
  Te  Te177  1  0.33207354  0.83174960  0.00211181  1
  Te  Te178  1  0.33479250  0.82681024  0.33824518  1
  Te  Te179  1  0.33316221  0.83229210  0.66469759  1
  Te  Te180  1  0.66289301  0.16487681  -0.00038369  1
  Te  Te181  1  0.66788633  0.15748133  0.33341236  1
  Te  Te182  1  0.67534778  0.16107033  0.66670664  1
  Te  Te183  1  0.66883137  0.49849738  -0.00151315  1
  Te  Te184  1  0.66632204  0.50206085  0.33749047  1
  Te  Te185  1  0.67388978  0.49999544  0.66091733  1
  Te  Te186  1  0.66144041  0.83764533  0.00073752  1
  Te  Te187  1  0.66684122  0.83360162  0.33372857  1
  Te  Te188  1  0.66603614  0.84046358  0.66614625  1
  Te  Te189  1  -0.00211160  -0.00106272  0.16496384  1
  Te  Te190  1  -0.00071342  0.00080850  0.50096795  1
  Te  Te191  1  0.00052501  -0.00084050  0.83280318  1
  Te  Te192  1  0.00319081  0.32869236  0.16587887  1
  Te  Te193  1  0.00318984  0.33403966  0.50381127  1
  Te  Te194  1  0.00337564  0.33375219  0.83022010  1
  Te  Te195  1  -0.00278428  0.67019602  0.17164967  1
  Te  Te196  1  0.00200024  0.66657164  0.49627076  1
  Te  Te197  1  -0.00018488  0.66083044  0.83334894  1
  Te  Te198  1  0.33284976  0.00190909  0.16999482  1
  Te  Te199  1  0.33361527  0.00337474  0.50593792  1
  Te  Te200  1  0.33062043  -0.00331886  0.82706095  1
  Te  Te201  1  0.33378284  0.33329088  0.16570877  1
  Te  Te202  1  0.33138989  0.33330710  0.50322751  1
  Te  Te203  1  0.33051566  0.33272657  0.82683059  1
  Te  Te204  1  0.33712623  0.66694164  0.16327579  1
  Te  Te205  1  0.33040973  0.66540708  0.49835334  1
  Te  Te206  1  0.33334107  0.67245591  0.83951328  1
  Te  Te207  1  0.67371047  0.00033953  0.16403482  1
  Te  Te208  1  0.67068176  0.00109037  0.50005354  1
  Te  Te209  1  0.67022528  0.00092960  0.83434081  1
  Te  Te210  1  0.66169875  0.33251868  0.16140358  1
  Te  Te211  1  0.66090526  0.33732745  0.50027815  1
  Te  Te212  1  0.66084465  0.33270430  0.83749455  1
  Te  Te213  1  0.66636910  0.66684485  0.17335279  1
  Te  Te214  1  0.66282424  0.66286388  0.49499010  1
  Te  Te215  1  0.66610506  0.66711843  0.83173073  1
