# generated using pymatgen
data_AgSbTe2
_symmetry_space_group_name_H-M   'P 1'
_cell_length_a   18.32902550
_cell_length_b   18.32269741
_cell_length_c   18.32290945
_cell_angle_alpha   90.00038516
_cell_angle_beta   90.00175862
_cell_angle_gamma   89.99864567
_symmetry_Int_Tables_number   1
_chemical_formula_structural   AgSbTe2
_chemical_formula_sum   'Ag54 Sb54 Te108'
_cell_volume   6153.51438456
_cell_formula_units_Z   54
loop_
 _symmetry_equiv_pos_site_id
 _symmetry_equiv_pos_as_xyz
  1  'x, y, z'
loop_
 _atom_site_type_symbol
 _atom_site_label
 _atom_site_symmetry_multiplicity
 _atom_site_fract_x
 _atom_site_fract_y
 _atom_site_fract_z
 _atom_site_occupancy
  Ag  Ag0  1  0.16489417  0.83395822  0.32676884  1
  Ag  Ag1  1  0.33751833  -0.01038332  0.00030622  1
  Ag  Ag2  1  0.83484244  0.83416917  0.66114063  1
  Ag  Ag3  1  0.83371320  0.66983434  0.17425643  1
  Ag  Ag4  1  0.65639272  -0.00275194  0.00110358  1
  Ag  Ag5  1  -0.00259655  0.51051492  0.16162749  1
  Ag  Ag6  1  0.66872472  0.50992835  0.17276501  1
  Ag  Ag7  1  -0.00103960  0.83507850  0.83602976  1
  Ag  Ag8  1  0.67059190  0.16970205  0.83722899  1
  Ag  Ag9  1  -0.00965881  0.67099802  0.32990859  1
  Ag  Ag10  1  0.33692716  0.33578839  0.00064071  1
  Ag  Ag11  1  0.16809995  0.83065935  0.00858282  1
  Ag  Ag12  1  0.16359869  -0.00205926  0.83279986  1
  Ag  Ag13  1  0.82575708  0.67289743  0.49276632  1
  Ag  Ag14  1  0.50000329  0.16334932  -0.00115158  1
  Ag  Ag15  1  0.66402237  0.33084833  0.00119307  1
  Ag  Ag16  1  0.50261916  0.67441211  0.17180701  1
  Ag  Ag17  1  -0.00347057  0.17156292  0.82581275  1
  Ag  Ag18  1  0.33259712  0.16953181  0.49830376  1
  Ag  Ag19  1  0.83626262  0.83209885  0.00987474  1
  Ag  Ag20  1  0.33978291  0.33268303  0.33589780  1
  Ag  Ag21  1  0.32819055  0.49907041  0.83784310  1
  Ag  Ag22  1  0.33933847  0.49798371  0.50227137  1
  Ag  Ag23  1  -0.00119668  0.82885705  0.16983952  1
  Ag  Ag24  1  0.16386925  0.67070161  0.16585888  1
  Ag  Ag25  1  0.16656210  0.15926610  0.33698818  1
  Ag  Ag26  1  0.33622072  0.66860555  0.66542177  1
  Ag  Ag27  1  0.00454606  0.49333519  0.84049132  1
  Ag  Ag28  1  0.50426804  0.83327924  0.65953711  1
  Ag  Ag29  1  0.50385958  0.83227937  0.32717897  1
  Ag  Ag30  1  0.49961894  -0.01182372  0.16151833  1
  Ag  Ag31  1  0.67031343  0.66992238  0.33178566  1
  Ag  Ag32  1  0.49895817  0.83822827  0.01103226  1
  Ag  Ag33  1  0.66726674  0.82846310  0.49031512  1
  Ag  Ag34  1  0.00239978  0.15988486  0.50683064  1
  Ag  Ag35  1  0.49694150  -0.01131385  0.49746400  1
  Ag  Ag36  1  0.82850830  0.33656250  0.50407056  1
  Ag  Ag37  1  0.83297147  0.82909495  0.33274808  1
  Ag  Ag38  1  0.33333892  0.67211440  0.00252804  1
  Ag  Ag39  1  0.50383622  0.33177382  0.83770416  1
  Ag  Ag40  1  0.16746282  0.50448506  0.00069652  1
  Ag  Ag41  1  -0.00700044  0.83620823  0.49625289  1
  Ag  Ag42  1  0.66114046  0.50684340  0.49209831  1
  Ag  Ag43  1  0.66334123  0.33862906  0.33515122  1
  Ag  Ag44  1  0.00003791  0.00137635  0.66633109  1
  Ag  Ag45  1  0.34486677  0.83021767  0.16355378  1
  Ag  Ag46  1  -0.00522339  0.32440037  0.67386193  1
  Ag  Ag47  1  0.83808513  0.16577106  0.66703040  1
  Ag  Ag48  1  0.16814515  -0.00086034  0.50133580  1
  Ag  Ag49  1  0.65742830  0.82763612  0.17227783  1
  Ag  Ag50  1  -0.00419567  0.33579294  -0.00676657  1
  Ag  Ag51  1  0.50357151  0.33472421  0.50042198  1
  Ag  Ag52  1  0.50502721  0.67388809  0.49331403  1
  Ag  Ag53  1  0.83790982  0.33095855  0.83082046  1
  Sb  Sb54  1  0.00083726  0.16507998  0.16658946  1
  Sb  Sb55  1  0.50110178  0.33621403  0.16723878  1
  Sb  Sb56  1  0.33054855  -0.00404838  0.66884772  1
  Sb  Sb57  1  0.16985560  0.16454163  0.00364309  1
  Sb  Sb58  1  0.33331682  0.00059786  0.33117802  1
  Sb  Sb59  1  0.16060620  0.16536028  0.66253756  1
  Sb  Sb60  1  0.66420396  -0.00539559  0.33042591  1
  Sb  Sb61  1  0.67010863  -0.00210510  0.66951494  1
  Sb  Sb62  1  0.33641740  0.66647594  0.33170189  1
  Sb  Sb63  1  0.83787230  0.00348140  0.83225233  1
  Sb  Sb64  1  0.66558444  0.16444742  0.16274592  1
  Sb  Sb65  1  0.49674357  0.00130413  0.83682676  1
  Sb  Sb66  1  0.67079076  0.83713329  0.83882524  1
  Sb  Sb67  1  0.50154987  0.50602966  0.33451840  1
  Sb  Sb68  1  0.33152881  0.33640782  0.66611820  1
  Sb  Sb69  1  0.17082817  -0.01040368  0.16638465  1
  Sb  Sb70  1  0.33185609  0.17089515  0.83214635  1
  Sb  Sb71  1  0.83436919  0.50108065  0.66608061  1
  Sb  Sb72  1  0.16645879  0.67038302  0.84017987  1
  Sb  Sb73  1  0.33455456  0.50615557  0.16481032  1
  Sb  Sb74  1  0.67087123  0.33280279  0.66573897  1
  Sb  Sb75  1  0.33406734  0.16290445  0.16832789  1
  Sb  Sb76  1  -0.00185564  0.33714107  0.33344635  1
  Sb  Sb77  1  -0.00053027  0.50128996  0.49965315  1
  Sb  Sb78  1  0.49878163  0.66522302  0.83422575  1
  Sb  Sb79  1  0.83711770  0.16410360  0.34124890  1
  Sb  Sb80  1  0.16675007  0.50099702  0.67227565  1
  Sb  Sb81  1  0.66336965  0.66994424  0.65595901  1
  Sb  Sb82  1  0.00282651  -0.00983604  0.33875490  1
  Sb  Sb83  1  0.83757518  0.50420325  0.00081319  1
  Sb  Sb84  1  0.16237846  0.32985947  0.83583944  1
  Sb  Sb85  1  0.66695825  0.16591114  0.50281822  1
  Sb  Sb86  1  0.49881946  0.50410269  0.66334122  1
  Sb  Sb87  1  0.49577546  0.50038248  -0.00008060  1
  Sb  Sb88  1  0.83568798  0.66614343  0.83311694  1
  Sb  Sb89  1  0.33681810  0.83236965  0.49533800  1
  Sb  Sb90  1  0.49829676  0.16323505  0.33200743  1
  Sb  Sb91  1  0.16797423  0.50437679  0.32911583  1
  Sb  Sb92  1  0.16503141  0.83371150  0.66595894  1
  Sb  Sb93  1  0.82793176  -0.01173272  0.16355069  1
  Sb  Sb94  1  0.16793887  0.32901800  0.49738740  1
  Sb  Sb95  1  0.50388081  0.16318625  0.66844583  1
  Sb  Sb96  1  0.16837628  0.67302122  0.49334606  1
  Sb  Sb97  1  0.83100014  0.50841687  0.33406720  1
  Sb  Sb98  1  0.00217905  0.67066186  0.66179685  1
  Sb  Sb99  1  0.33000110  0.83011120  0.84028578  1
  Sb  Sb100  1  0.83340477  -0.00642742  0.50116834  1
  Sb  Sb101  1  0.00477716  0.66680931  0.00818761  1
  Sb  Sb102  1  0.83087875  0.34039822  0.16732811  1
  Sb  Sb103  1  0.00214690  -0.00246809  -0.00459920  1
  Sb  Sb104  1  0.16686849  0.33977468  0.16537729  1
  Sb  Sb105  1  0.83050628  0.16430358  -0.00518789  1
  Sb  Sb106  1  0.66723570  0.49278107  0.83603157  1
  Sb  Sb107  1  0.66161352  0.66819591  0.00952279  1
  Te  Te108  1  0.16654944  0.16530659  0.17584785  1
  Te  Te109  1  0.16496624  0.16249361  0.49692790  1
  Te  Te110  1  0.16166188  0.16034452  0.83480343  1
  Te  Te111  1  0.16423501  0.50703325  0.16151015  1
  Te  Te112  1  0.17195625  0.50228781  0.49939614  1
  Te  Te113  1  0.16599844  0.49981111  0.83995627  1
  Te  Te114  1  0.15939731  0.83086010  0.16705741  1
  Te  Te115  1  0.16523947  0.83818798  0.49662209  1
  Te  Te116  1  0.16219206  0.83680042  0.83577609  1
  Te  Te117  1  0.50014727  0.16159623  0.16060496  1
  Te  Te118  1  0.49778219  0.17137484  0.50082792  1
  Te  Te119  1  0.49993188  0.17126570  0.83590742  1
  Te  Te120  1  0.50604294  0.50738225  0.16696165  1
  Te  Te121  1  0.50009524  0.49567951  0.49956053  1
  Te  Te122  1  0.49788762  0.49344707  0.83163467  1
  Te  Te123  1  0.50108069  0.83257478  0.16688637  1
  Te  Te124  1  0.49872764  0.83244331  0.50030016  1
  Te  Te125  1  0.50160657  0.83283604  0.82817424  1
  Te  Te126  1  0.83400064  0.16483086  0.16962834  1
  Te  Te127  1  0.83649129  0.16905887  0.50563772  1
  Te  Te128  1  0.83589555  0.17102087  0.83015725  1
  Te  Te129  1  0.83315966  0.50795432  0.16698584  1
  Te  Te130  1  0.83065613  0.49792912  0.50069476  1
  Te  Te131  1  0.83729637  0.49325798  0.83332521  1
  Te  Te132  1  0.83794182  0.82894733  0.16742308  1
  Te  Te133  1  0.83230357  0.83237183  0.49915114  1
  Te  Te134  1  0.83784000  0.83344148  0.82920208  1
  Te  Te135  1  0.17124290  -0.00321480  -0.00134422  1
  Te  Te136  1  0.16827192  -0.00191245  0.33811128  1
  Te  Te137  1  0.16270903  -0.00064467  0.66540401  1
  Te  Te138  1  0.16978317  0.33361186  0.00046387  1
  Te  Te139  1  0.16976541  0.33197895  0.33197851  1
  Te  Te140  1  0.15716187  0.33355495  0.66585088  1
  Te  Te141  1  0.17108814  0.66905104  0.00497323  1
  Te  Te142  1  0.16686980  0.67197461  0.32636685  1
  Te  Te143  1  0.17502913  0.66692563  0.66589351  1
  Te  Te144  1  0.49815275  -0.00061861  -0.00181712  1
  Te  Te145  1  0.49870973  -0.00486324  0.33649750  1
  Te  Te146  1  0.49919843  -0.00472594  0.66250792  1
  Te  Te147  1  0.50090974  0.33325675  0.00097623  1
  Te  Te148  1  0.50035840  0.33073310  0.33513678  1
  Te  Te149  1  0.50010852  0.33183195  0.66364650  1
  Te  Te150  1  0.49476517  0.67095543  0.00136777  1
  Te  Te151  1  0.50274588  0.67185166  0.33410773  1
  Te  Te152  1  0.49638197  0.67145936  0.66414484  1
  Te  Te153  1  0.82873770  -0.00667159  -0.00177279  1
  Te  Te154  1  0.83270327  -0.00823550  0.33201803  1
  Te  Te155  1  0.83889253  -0.00240453  0.66651873  1
  Te  Te156  1  0.83266391  0.33280084  -0.00111145  1
  Te  Te157  1  0.82868951  0.33156471  0.33697941  1
  Te  Te158  1  0.83641569  0.33383857  0.66605301  1
  Te  Te159  1  0.83102215  0.67332318  0.00095181  1
  Te  Te160  1  0.83112801  0.67126897  0.33474474  1
  Te  Te161  1  0.83365325  0.67288036  0.66201282  1
  Te  Te162  1  0.00012297  0.17099703  -0.00216625  1
  Te  Te163  1  0.00492512  0.16724713  0.33669421  1
  Te  Te164  1  -0.00218164  0.16522554  0.66569547  1
  Te  Te165  1  0.00274273  0.49884819  0.00065353  1
  Te  Te166  1  0.00181536  0.50616511  0.32727074  1
  Te  Te167  1  0.00109657  0.49931824  0.67132939  1
  Te  Te168  1  -0.00016472  0.83329480  -0.00239549  1
  Te  Te169  1  0.00066685  0.83087239  0.33505083  1
  Te  Te170  1  -0.00126937  0.83442191  0.66478451  1
  Te  Te171  1  0.33729321  0.17391056  0.00018566  1
  Te  Te172  1  0.33078725  0.17080430  0.33721026  1
  Te  Te173  1  0.33438373  0.16626749  0.65969230  1
  Te  Te174  1  0.32974315  0.49703402  -0.00025713  1
  Te  Te175  1  0.33277443  0.49269526  0.33648261  1
  Te  Te176  1  0.33251387  0.50453515  0.66607437  1
  Te  Te177  1  0.33333269  0.83192792  0.00122208  1
  Te  Te178  1  0.33110674  0.83317395  0.32699554  1
  Te  Te179  1  0.33611621  0.82893289  0.66835470  1
  Te  Te180  1  0.66394052  0.16965367  -0.00260392  1
  Te  Te181  1  0.66786338  0.17272107  0.33238307  1
  Te  Te182  1  0.67378045  0.16539128  0.67455775  1
  Te  Te183  1  0.66744258  0.49449315  0.00370294  1
  Te  Te184  1  0.66638942  0.49865429  0.33340809  1
  Te  Te185  1  0.66643598  0.50140979  0.65848324  1
  Te  Te186  1  0.66416995  0.83438510  0.00211394  1
  Te  Te187  1  0.66498683  0.83320459  0.33261976  1
  Te  Te188  1  0.66883290  0.83448366  0.66681115  1
  Te  Te189  1  -0.00010351  -0.00469001  0.16509087  1
  Te  Te190  1  -0.00012408  -0.00078272  0.50348633  1
  Te  Te191  1  0.00307827  -0.00242264  0.83049950  1
  Te  Te192  1  -0.00132759  0.33658265  0.16220287  1
  Te  Te193  1  -0.00363101  0.33390858  0.49912380  1
  Te  Te194  1  -0.00045095  0.33290928  0.83459749  1
  Te  Te195  1  -0.00248823  0.66795448  0.16806020  1
  Te  Te196  1  -0.00144130  0.66982445  0.49434341  1
  Te  Te197  1  0.00034567  0.66713142  0.83105452  1
  Te  Te198  1  0.33807683  -0.00450827  0.16168285  1
  Te  Te199  1  0.33359410  0.00303378  0.50111635  1
  Te  Te200  1  0.32729414  0.00133343  0.83806704  1
  Te  Te201  1  0.33453736  0.33415407  0.16535017  1
  Te  Te202  1  0.33470316  0.33426631  0.50066453  1
  Te  Te203  1  0.33481772  0.33758219  0.83427983  1
  Te  Te204  1  0.33681223  0.66928857  0.16437616  1
  Te  Te205  1  0.33662982  0.66364291  0.50013347  1
  Te  Te206  1  0.33331428  0.65964836  0.83672076  1
  Te  Te207  1  0.66076806  -0.00484905  0.16176331  1
  Te  Te208  1  0.66008932  -0.00428752  0.50065294  1
  Te  Te209  1  0.66540055  0.00586201  0.83977576  1
  Te  Te210  1  0.66672465  0.33563516  0.16674556  1
  Te  Te211  1  0.66657426  0.33115298  0.49882484  1
  Te  Te212  1  0.66530622  0.33094359  0.83580978  1
  Te  Te213  1  0.66619306  0.66769078  0.17020970  1
  Te  Te214  1  0.66551125  0.66774671  0.49444099  1
  Te  Te215  1  0.66733094  0.66334478  0.83230939  1
