# generated using pymatgen
data_AgSbTe2
_symmetry_space_group_name_H-M   'P 1'
_cell_length_a   18.34258563
_cell_length_b   18.34952833
_cell_length_c   18.34515720
_cell_angle_alpha   90.00275721
_cell_angle_beta   90.00119897
_cell_angle_gamma   90.00084573
_symmetry_Int_Tables_number   1
_chemical_formula_structural   AgSbTe2
_chemical_formula_sum   'Ag54 Sb54 Te108'
_cell_volume   6174.57254254
_cell_formula_units_Z   54
loop_
 _symmetry_equiv_pos_site_id
 _symmetry_equiv_pos_as_xyz
  1  'x, y, z'
loop_
 _atom_site_type_symbol
 _atom_site_label
 _atom_site_symmetry_multiplicity
 _atom_site_fract_x
 _atom_site_fract_y
 _atom_site_fract_z
 _atom_site_occupancy
  Ag  Ag0  1  -0.00239711  0.50155163  0.16625915  1
  Ag  Ag1  1  0.48704092  0.66203060  0.83937891  1
  Ag  Ag2  1  0.00153243  0.50609559  0.49652989  1
  Ag  Ag3  1  0.84727201  0.34382916  0.84293618  1
  Ag  Ag4  1  0.67378400  0.50366023  0.16831397  1
  Ag  Ag5  1  0.49528593  0.33985714  0.49256328  1
  Ag  Ag6  1  0.32653617  0.33716110  0.32111771  1
  Ag  Ag7  1  0.84649255  0.34448681  0.16017612  1
  Ag  Ag8  1  0.32750082  0.66872869  0.67899988  1
  Ag  Ag9  1  0.84756507  0.66094459  0.83299410  1
  Ag  Ag10  1  0.49788135  0.82171019  0.32933783  1
  Ag  Ag11  1  0.84050085  0.50423571  0.67445954  1
  Ag  Ag12  1  0.33166957  0.82782945  0.15843649  1
  Ag  Ag13  1  0.16380638  0.17707469  0.33027303  1
  Ag  Ag14  1  0.83845302  0.82191372  0.66710410  1
  Ag  Ag15  1  0.32858917  0.66469516  -0.00348032  1
  Ag  Ag16  1  0.33416753  0.84322839  0.83824788  1
  Ag  Ag17  1  0.17046980  0.00035047  0.83152790  1
  Ag  Ag18  1  0.00441648  -0.00098635  -0.00205368  1
  Ag  Ag19  1  0.00648835  0.17363157  0.83989084  1
  Ag  Ag20  1  0.49967287  0.50132315  0.66845941  1
  Ag  Ag21  1  -0.00193477  0.66718472  0.67679241  1
  Ag  Ag22  1  -0.00169064  0.83155928  0.49801643  1
  Ag  Ag23  1  0.66592959  0.66510543  0.32623098  1
  Ag  Ag24  1  0.49432632  0.16989752  -0.00275669  1
  Ag  Ag25  1  -0.00337517  0.50387419  0.83563982  1
  Ag  Ag26  1  0.00091386  0.17629393  0.15918220  1
  Ag  Ag27  1  0.32763598  0.00080064  -0.00672665  1
  Ag  Ag28  1  0.16639513  0.33501168  0.84025581  1
  Ag  Ag29  1  0.00411133  -0.00750264  0.66427473  1
  Ag  Ag30  1  0.84235031  0.66208388  0.16240304  1
  Ag  Ag31  1  0.48670258  -0.00199365  0.83457914  1
  Ag  Ag32  1  0.49090377  0.33731491  0.83971554  1
  Ag  Ag33  1  0.32427497  -0.00907918  0.68148443  1
  Ag  Ag34  1  0.33628477  0.33556055  -0.00007347  1
  Ag  Ag35  1  0.00184809  0.66623714  -0.00202206  1
  Ag  Ag36  1  0.00756441  0.33563596  0.32448856  1
  Ag  Ag37  1  0.66392783  0.82100855  0.16899748  1
  Ag  Ag38  1  0.84090270  0.17425068  -0.00060291  1
  Ag  Ag39  1  0.32921536  0.50081916  0.49826008  1
  Ag  Ag40  1  0.16730156  0.66412761  0.83915391  1
  Ag  Ag41  1  0.15883771  0.66056892  0.16123052  1
  Ag  Ag42  1  0.00120352  0.82252486  0.16913808  1
  Ag  Ag43  1  0.49463719  0.50100339  0.33049879  1
  Ag  Ag44  1  0.49954890  0.66156275  0.16443487  1
  Ag  Ag45  1  0.16256766  -0.00004059  0.50630885  1
  Ag  Ag46  1  0.83887941  0.49922789  -0.00050254  1
  Ag  Ag47  1  0.49142731  0.34339969  0.16449465  1
  Ag  Ag48  1  0.16401581  0.33879429  0.16747921  1
  Ag  Ag49  1  0.32384663  0.15493106  0.83694070  1
  Ag  Ag50  1  0.00340670  0.00185927  0.33626180  1
  Ag  Ag51  1  0.16615707  0.49694431  0.33149254  1
  Ag  Ag52  1  0.84021654  0.66710007  0.50997797  1
  Ag  Ag53  1  0.84611711  -0.01013739  0.50270287  1
  Sb  Sb54  1  0.66694786  0.16704835  0.49695901  1
  Sb  Sb55  1  0.83942449  -0.00363717  0.16736551  1
  Sb  Sb56  1  0.32693491  0.50224487  0.83087586  1
  Sb  Sb57  1  0.83412469  0.33879893  0.49854281  1
  Sb  Sb58  1  0.00157115  0.16467845  0.50013965  1
  Sb  Sb59  1  0.84220035  -0.00190781  0.83073664  1
  Sb  Sb60  1  0.66403230  0.34019562  0.32919109  1
  Sb  Sb61  1  0.83552977  0.82952445  0.33446652  1
  Sb  Sb62  1  0.16152343  0.49969618  0.00398321  1
  Sb  Sb63  1  0.32741181  0.16787079  0.15798083  1
  Sb  Sb64  1  0.66888709  0.66500976  0.00637735  1
  Sb  Sb65  1  0.66953779  -0.00328985  0.66874187  1
  Sb  Sb66  1  0.16478668  0.16855259  0.00067280  1
  Sb  Sb67  1  0.50144753  0.49909796  0.00089413  1
  Sb  Sb68  1  0.66846977  0.50223761  0.49362365  1
  Sb  Sb69  1  0.33544263  0.66129161  0.32818611  1
  Sb  Sb70  1  0.67215927  -0.00798348  0.33184087  1
  Sb  Sb71  1  0.16530205  0.50234880  0.66477854  1
  Sb  Sb72  1  0.49180964  0.17404972  0.32509353  1
  Sb  Sb73  1  0.00049874  0.33787454  0.66879633  1
  Sb  Sb74  1  0.00605343  0.82923836  0.83248601  1
  Sb  Sb75  1  0.49560396  0.83300516  0.00393687  1
  Sb  Sb76  1  0.66681988  0.16757887  0.83541944  1
  Sb  Sb77  1  0.33210419  0.17073996  0.50481751  1
  Sb  Sb78  1  -0.00195134  0.66416205  0.32958616  1
  Sb  Sb79  1  0.49483582  0.17214681  0.67606767  1
  Sb  Sb80  1  0.16142167  0.66771870  0.49974328  1
  Sb  Sb81  1  0.32989979  0.50261081  0.16970013  1
  Sb  Sb82  1  0.83785867  0.82928636  -0.00220143  1
  Sb  Sb83  1  0.67314588  0.82966833  0.49420797  1
  Sb  Sb84  1  0.16293185  0.00010609  0.16259142  1
  Sb  Sb85  1  0.16608136  0.16419856  0.66848239  1
  Sb  Sb86  1  0.32693937  0.00390847  0.33064784  1
  Sb  Sb87  1  0.67177315  0.66468652  0.66506678  1
  Sb  Sb88  1  0.00246065  0.33593086  0.00354248  1
  Sb  Sb89  1  0.49711303  -0.00232191  0.16190880  1
  Sb  Sb90  1  0.84335789  0.16712527  0.32742145  1
  Sb  Sb91  1  0.66615873  0.33521157  0.00109906  1
  Sb  Sb92  1  0.66583998  0.33707468  0.66782670  1
  Sb  Sb93  1  0.32873295  0.82862623  0.50159875  1
  Sb  Sb94  1  0.66703363  -0.00066041  0.00001685  1
  Sb  Sb95  1  0.16864913  0.82991276  0.33015173  1
  Sb  Sb96  1  0.49474909  0.00287981  0.50572339  1
  Sb  Sb97  1  0.33342001  0.33799017  0.67139399  1
  Sb  Sb98  1  0.83865368  0.16895208  0.67324996  1
  Sb  Sb99  1  0.50015763  0.66123840  0.49846788  1
  Sb  Sb100  1  0.16112222  0.83348634  0.66734922  1
  Sb  Sb101  1  0.16747676  0.83123023  -0.00051335  1
  Sb  Sb102  1  0.83738208  0.50135669  0.32917844  1
  Sb  Sb103  1  0.67185235  0.17152965  0.16550764  1
  Sb  Sb104  1  0.16869845  0.33245163  0.49632602  1
  Sb  Sb105  1  0.50151429  0.82719063  0.66466846  1
  Sb  Sb106  1  0.66180093  0.82914998  0.83871338  1
  Sb  Sb107  1  0.67169644  0.50163262  0.83889017  1
  Te  Te108  1  0.16114774  0.17040444  0.17055973  1
  Te  Te109  1  0.16798060  0.16183106  0.49392756  1
  Te  Te110  1  0.16557684  0.16767972  0.83333431  1
  Te  Te111  1  0.16327371  0.49923181  0.16989129  1
  Te  Te112  1  0.16431912  0.49960460  0.49602131  1
  Te  Te113  1  0.15818611  0.50099844  0.83167601  1
  Te  Te114  1  0.16645549  0.82686367  0.16694047  1
  Te  Te115  1  0.15962364  0.83846015  0.49762937  1
  Te  Te116  1  0.17447552  0.83075754  0.83253146  1
  Te  Te117  1  0.50109780  0.16850686  0.15894569  1
  Te  Te118  1  0.49918015  0.17376757  0.50019813  1
  Te  Te119  1  0.49987042  0.17362412  0.83830899  1
  Te  Te120  1  0.49670212  0.50110615  0.16630958  1
  Te  Te121  1  0.50158569  0.49832940  0.49819128  1
  Te  Te122  1  0.50409877  0.50110327  0.83388289  1
  Te  Te123  1  0.49624022  0.83273769  0.16983301  1
  Te  Te124  1  0.50060330  0.83442986  0.49287879  1
  Te  Te125  1  0.49511691  0.82727071  0.83243987  1
  Te  Te126  1  0.83928853  0.16727019  0.16059432  1
  Te  Te127  1  0.83251002  0.16753406  0.50064894  1
  Te  Te128  1  0.83612453  0.16818015  0.83918632  1
  Te  Te129  1  0.83648895  0.50110662  0.16839030  1
  Te  Te130  1  0.83789006  0.50266011  0.50193653  1
  Te  Te131  1  0.83456208  0.50100299  0.83412666  1
  Te  Te132  1  0.83870585  0.82859674  0.16619815  1
  Te  Te133  1  0.83878081  0.83056928  0.50108401  1
  Te  Te134  1  0.83034665  0.82850441  0.82951302  1
  Te  Te135  1  0.16622559  0.00093229  -0.00490407  1
  Te  Te136  1  0.16218297  -0.00052951  0.33143589  1
  Te  Te137  1  0.16524363  -0.00092506  0.66905080  1
  Te  Te138  1  0.17496303  0.33467886  0.00091698  1
  Te  Te139  1  0.16679983  0.33632139  0.33432021  1
  Te  Te140  1  0.16701307  0.33260597  0.67536164  1
  Te  Te141  1  0.16628867  0.66508274  0.00105664  1
  Te  Te142  1  0.16758687  0.65999711  0.32875358  1
  Te  Te143  1  0.16471439  0.66680895  0.66887382  1
  Te  Te144  1  0.49671487  0.00340229  -0.00560512  1
  Te  Te145  1  0.49966062  0.00424967  0.33550488  1
  Te  Te146  1  0.49746417  -0.00093930  0.67166127  1
  Te  Te147  1  0.49858062  0.33326365  0.00184396  1
  Te  Te148  1  0.49630673  0.33773489  0.32837113  1
  Te  Te149  1  0.49919561  0.33975729  0.67063300  1
  Te  Te150  1  0.49625159  0.66603872  0.00084949  1
  Te  Te151  1  0.50113258  0.66303759  0.33255194  1
  Te  Te152  1  0.50002625  0.66267118  0.66650815  1
  Te  Te153  1  0.83794755  0.00269721  -0.00115868  1
  Te  Te154  1  0.84031890  -0.00031113  0.34036052  1
  Te  Te155  1  0.83763805  0.00091238  0.66279347  1
  Te  Te156  1  0.83310461  0.33456948  0.00016616  1
  Te  Te157  1  0.83608721  0.33272084  0.32829145  1
  Te  Te158  1  0.83304655  0.34072846  0.67137936  1
  Te  Te159  1  0.83646050  0.66441737  -0.00023183  1
  Te  Te160  1  0.82855778  0.66628864  0.32429554  1
  Te  Te161  1  0.83546229  0.66263544  0.66932647  1
  Te  Te162  1  -0.00039456  0.16636163  -0.00115290  1
  Te  Te163  1  0.00447438  0.16689963  0.33251417  1
  Te  Te164  1  0.00071708  0.16007023  0.67473092  1
  Te  Te165  1  -0.00337978  0.50402365  -0.00126901  1
  Te  Te166  1  0.00218705  0.49772734  0.33325281  1
  Te  Te167  1  -0.00056630  0.50377974  0.66751132  1
  Te  Te168  1  0.00019520  0.83249383  0.00597561  1
  Te  Te169  1  0.00153637  0.83788691  0.33311984  1
  Te  Te170  1  -0.00380264  0.83161781  0.66533727  1
  Te  Te171  1  0.33475433  0.16686997  -0.00424646  1
  Te  Te172  1  0.32603570  0.17353292  0.33381496  1
  Te  Te173  1  0.33261754  0.15782853  0.67476799  1
  Te  Te174  1  0.33440071  0.50124252  -0.00079962  1
  Te  Te175  1  0.33417388  0.49607845  0.33708690  1
  Te  Te176  1  0.33561807  0.50520316  0.66071448  1
  Te  Te177  1  0.33350101  0.83065176  -0.00093885  1
  Te  Te178  1  0.33774327  0.83410229  0.33247868  1
  Te  Te179  1  0.33554766  0.83018998  0.66862222  1
  Te  Te180  1  0.66792569  0.16496040  0.00113231  1
  Te  Te181  1  0.66688101  0.16447745  0.33143080  1
  Te  Te182  1  0.66610476  0.16603475  0.66547205  1
  Te  Te183  1  0.67835247  0.50025006  0.00913192  1
  Te  Te184  1  0.65938953  0.50452017  0.32699289  1
  Te  Te185  1  0.66144240  0.50094192  0.66500417  1
  Te  Te186  1  0.66688583  0.83399751  0.01039355  1
  Te  Te187  1  0.66051705  0.82824421  0.32732566  1
  Te  Te188  1  0.67591122  0.83240600  0.66591857  1
  Te  Te189  1  0.00032078  -0.00053049  0.16295266  1
  Te  Te190  1  0.00249945  0.00287382  0.50139798  1
  Te  Te191  1  0.00399848  -0.00452005  0.83601414  1
  Te  Te192  1  0.00312374  0.33529771  0.16578798  1
  Te  Te193  1  -0.00015867  0.33706254  0.49744135  1
  Te  Te194  1  0.00319232  0.33364341  0.83340874  1
  Te  Te195  1  0.00079671  0.66363429  0.16723664  1
  Te  Te196  1  -0.00179412  0.66706974  0.49739135  1
  Te  Te197  1  0.00386060  0.66841088  0.83564154  1
  Te  Te198  1  0.33117451  -0.00508601  0.16058875  1
  Te  Te199  1  0.32716669  -0.00005416  0.50113994  1
  Te  Te200  1  0.33098302  -0.00058283  0.83661735  1
  Te  Te201  1  0.33175717  0.33129512  0.16377721  1
  Te  Te202  1  0.33612236  0.33839998  0.50346179  1
  Te  Te203  1  0.33117281  0.33741719  0.83616736  1
  Te  Te204  1  0.33731915  0.66906100  0.16491690  1
  Te  Te205  1  0.33110658  0.66214528  0.50436037  1
  Te  Te206  1  0.32975609  0.66096891  0.83503963  1
  Te  Te207  1  0.66792661  -0.00450833  0.16709782  1
  Te  Te208  1  0.66987278  -0.00074965  0.50035684  1
  Te  Te209  1  0.65706193  -0.00180584  0.83375888  1
  Te  Te210  1  0.66402024  0.33890111  0.16734199  1
  Te  Te211  1  0.65832985  0.33359410  0.49789014  1
  Te  Te212  1  0.65967629  0.33390273  0.83318126  1
  Te  Te213  1  0.65964881  0.66461055  0.16677205  1
  Te  Te214  1  0.67669020  0.66692161  0.49294841  1
  Te  Te215  1  0.65979330  0.66723069  0.83386133  1
