# generated using pymatgen
data_AgSbTe2
_symmetry_space_group_name_H-M   'P 1'
_cell_length_a   18.31217891
_cell_length_b   18.31621828
_cell_length_c   18.31680197
_cell_angle_alpha   89.99781126
_cell_angle_beta   90.00441781
_cell_angle_gamma   90.00042130
_symmetry_Int_Tables_number   1
_chemical_formula_structural   AgSbTe2
_chemical_formula_sum   'Ag54 Sb54 Te108'
_cell_volume   6143.63607328
_cell_formula_units_Z   54
loop_
 _symmetry_equiv_pos_site_id
 _symmetry_equiv_pos_as_xyz
  1  'x, y, z'
loop_
 _atom_site_type_symbol
 _atom_site_label
 _atom_site_symmetry_multiplicity
 _atom_site_fract_x
 _atom_site_fract_y
 _atom_site_fract_z
 _atom_site_occupancy
  Ag  Ag0  1  0.34547324  0.16829008  0.83351930  1
  Ag  Ag1  1  0.66947472  0.33581428  0.33202838  1
  Ag  Ag2  1  0.66779321  0.49703840  0.49427476  1
  Ag  Ag3  1  0.50604530  0.32136652  0.83094227  1
  Ag  Ag4  1  -0.00817535  0.16614907  0.83213711  1
  Ag  Ag5  1  0.83561226  0.48985287  0.66077095  1
  Ag  Ag6  1  0.50592573  0.32890708  0.16841362  1
  Ag  Ag7  1  0.49783991  0.16246645  -0.01067064  1
  Ag  Ag8  1  0.34099107  0.83440000  0.17250950  1
  Ag  Ag9  1  0.34108605  -0.00291818  0.66555382  1
  Ag  Ag10  1  0.16857403  0.49773820  0.66149609  1
  Ag  Ag11  1  0.49965327  0.84153337  -0.00383340  1
  Ag  Ag12  1  0.49904611  0.00197947  0.16526076  1
  Ag  Ag13  1  0.33982328  0.00220604  -0.00594117  1
  Ag  Ag14  1  -0.00355692  0.83792837  0.82825081  1
  Ag  Ag15  1  0.33365151  0.82938058  0.49759828  1
  Ag  Ag16  1  0.65910637  0.82888530  0.16702444  1
  Ag  Ag17  1  0.17074628  0.66438350  0.16922125  1
  Ag  Ag18  1  -0.00949177  0.00590736  0.33741980  1
  Ag  Ag19  1  0.50084990  0.00777424  0.83143167  1
  Ag  Ag20  1  0.83128580  0.17387406  0.33999152  1
  Ag  Ag21  1  0.66351836  0.33649996  0.00023314  1
  Ag  Ag22  1  0.82360132  0.33425120  0.17730418  1
  Ag  Ag23  1  0.33074170  0.50322958  0.50307366  1
  Ag  Ag24  1  0.49940067  0.33084393  0.50056081  1
  Ag  Ag25  1  0.17028877  0.34098858  0.50051390  1
  Ag  Ag26  1  0.49877903  0.00317074  0.50345430  1
  Ag  Ag27  1  0.00061802  0.66633159  -0.00209279  1
  Ag  Ag28  1  0.49762298  0.84344797  0.67117283  1
  Ag  Ag29  1  0.33533938  0.49577680  0.82567488  1
  Ag  Ag30  1  0.82646119  0.01297714  0.82755788  1
  Ag  Ag31  1  0.66147661  0.65584021  0.32895369  1
  Ag  Ag32  1  -0.01321291  0.33144729  0.34099979  1
  Ag  Ag33  1  0.33525874  0.66578720  0.66054335  1
  Ag  Ag34  1  0.82564381  0.32899165  0.82244279  1
  Ag  Ag35  1  0.00144506  0.49722301  0.50142836  1
  Ag  Ag36  1  0.82874203  0.49215509  0.34178109  1
  Ag  Ag37  1  -0.01006639  0.33504690  0.66101859  1
  Ag  Ag38  1  0.82822103  0.17118367  0.66900239  1
  Ag  Ag39  1  0.66646401  0.49694063  0.17356058  1
  Ag  Ag40  1  0.17536940  0.17293059  -0.00350602  1
  Ag  Ag41  1  0.33737952  0.66619611  0.34017037  1
  Ag  Ag42  1  0.82631233  -0.00064349  0.50088951  1
  Ag  Ag43  1  0.49979888  0.66843325  0.83361876  1
  Ag  Ag44  1  0.66466268  0.66092423  0.00537081  1
  Ag  Ag45  1  0.66978453  0.33265365  0.66801864  1
  Ag  Ag46  1  0.34082186  0.33471603  0.33772539  1
  Ag  Ag47  1  0.66068820  0.16998118  0.83158365  1
  Ag  Ag48  1  0.16828774  0.49783362  -0.00394245  1
  Ag  Ag49  1  0.00589016  0.83136731  0.50326670  1
  Ag  Ag50  1  0.50239490  0.16541284  0.67423033  1
  Ag  Ag51  1  0.34227116  -0.00037168  0.33662453  1
  Ag  Ag52  1  0.66320985  0.00478426  0.33460221  1
  Ag  Ag53  1  0.17229703  0.65924258  0.49716752  1
  Sb  Sb54  1  0.49855396  0.83736496  0.33215616  1
  Sb  Sb55  1  0.83123976  0.83540726  0.33487339  1
  Sb  Sb56  1  0.83407719  0.49707594  -0.00116552  1
  Sb  Sb57  1  0.16516537  0.49928392  0.33936378  1
  Sb  Sb58  1  0.66033815  0.00630159  0.66293453  1
  Sb  Sb59  1  0.49805036  0.49435912  0.66607194  1
  Sb  Sb60  1  0.83150019  0.66123341  0.16807745  1
  Sb  Sb61  1  0.82848898  0.16926762  -0.00701803  1
  Sb  Sb62  1  -0.00393633  0.33565817  -0.00215651  1
  Sb  Sb63  1  0.34022559  0.32983876  0.00166759  1
  Sb  Sb64  1  -0.00314221  0.17138443  0.50281526  1
  Sb  Sb65  1  0.16422643  0.16910423  0.33119647  1
  Sb  Sb66  1  0.49342361  0.66653342  0.50236827  1
  Sb  Sb67  1  0.17194900  0.00206637  0.83329083  1
  Sb  Sb68  1  0.33705191  0.50310529  0.17075193  1
  Sb  Sb69  1  0.65820479  0.00305657  0.00255449  1
  Sb  Sb70  1  0.82899713  0.83669320  0.66654198  1
  Sb  Sb71  1  0.17206488  0.83123918  -0.00052895  1
  Sb  Sb72  1  -0.00279845  0.49941492  0.17173863  1
  Sb  Sb73  1  0.66127934  0.49176849  0.83233894  1
  Sb  Sb74  1  0.00122793  0.00375450  0.66411340  1
  Sb  Sb75  1  0.66106970  0.83114742  0.49622993  1
  Sb  Sb76  1  0.82406555  0.00610930  0.17024476  1
  Sb  Sb77  1  0.17500943  -0.00368461  0.16693816  1
  Sb  Sb78  1  0.33629217  0.16750857  0.50340762  1
  Sb  Sb79  1  0.82859150  0.66331973  0.83270955  1
  Sb  Sb80  1  0.66469528  0.17368545  0.16391362  1
  Sb  Sb81  1  0.50596580  0.49609164  0.33484782  1
  Sb  Sb82  1  0.00287012  0.49752523  0.82786671  1
  Sb  Sb83  1  0.17090259  0.00014633  0.49889719  1
  Sb  Sb84  1  0.83505579  0.66631213  0.49939481  1
  Sb  Sb85  1  0.65965139  0.65896315  0.66561156  1
  Sb  Sb86  1  0.82891490  0.33354802  0.50086339  1
  Sb  Sb87  1  0.00538427  0.66220600  0.66815768  1
  Sb  Sb88  1  0.82766552  0.83433463  -0.00104587  1
  Sb  Sb89  1  0.33609049  0.83492461  0.83080924  1
  Sb  Sb90  1  0.50457909  0.16732614  0.33495513  1
  Sb  Sb91  1  0.49842500  0.49756631  -0.00144142  1
  Sb  Sb92  1  0.66468157  0.83837149  0.83706130  1
  Sb  Sb93  1  0.16910882  0.33322499  0.82931436  1
  Sb  Sb94  1  0.00063776  0.66459603  0.33399555  1
  Sb  Sb95  1  0.33787804  0.33416376  0.66316925  1
  Sb  Sb96  1  0.16937274  0.33797709  0.17016078  1
  Sb  Sb97  1  0.33714322  0.16182638  0.16313925  1
  Sb  Sb98  1  0.17131110  0.66482465  0.83264434  1
  Sb  Sb99  1  0.66762078  0.17377293  0.50368429  1
  Sb  Sb100  1  -0.00180146  0.16716757  0.16376986  1
  Sb  Sb101  1  0.17032243  0.83200408  0.33476891  1
  Sb  Sb102  1  0.00459022  -0.00189071  -0.00073862  1
  Sb  Sb103  1  0.16799893  0.17260839  0.67035035  1
  Sb  Sb104  1  0.00060062  0.83271377  0.16872605  1
  Sb  Sb105  1  0.49955211  0.66956495  0.16407807  1
  Sb  Sb106  1  0.33607837  0.66932151  -0.00042364  1
  Sb  Sb107  1  0.17270677  0.82854147  0.66530116  1
  Te  Te108  1  0.16668204  0.16770883  0.15705187  1
  Te  Te109  1  0.16594511  0.17538274  0.50039644  1
  Te  Te110  1  0.16387585  0.16775414  0.83821977  1
  Te  Te111  1  0.16744550  0.50482763  0.16179078  1
  Te  Te112  1  0.16899816  0.49952369  0.50037428  1
  Te  Te113  1  0.17239627  0.50007620  0.83293082  1
  Te  Te114  1  0.17173486  0.82639086  0.16540031  1
  Te  Te115  1  0.16824595  0.82883135  0.50094865  1
  Te  Te116  1  0.15644571  0.83330728  0.83268497  1
  Te  Te117  1  0.50036588  0.16646391  0.16169981  1
  Te  Te118  1  0.50119539  0.16461099  0.50590929  1
  Te  Te119  1  0.50084730  0.16538915  0.83216438  1
  Te  Te120  1  0.50523497  0.49291801  0.16570111  1
  Te  Te121  1  0.49750911  0.49542318  0.50129731  1
  Te  Te122  1  0.49420811  0.50531447  0.83262242  1
  Te  Te123  1  0.49979477  0.83540915  0.16422041  1
  Te  Te124  1  0.49478797  0.83805488  0.50512970  1
  Te  Te125  1  0.50002719  0.83409338  0.83355558  1
  Te  Te126  1  0.83223255  0.17330540  0.17104614  1
  Te  Te127  1  0.83322578  0.15723561  0.50142146  1
  Te  Te128  1  0.83315845  0.16854191  0.83139255  1
  Te  Te129  1  0.82894422  0.49418663  0.16871712  1
  Te  Te130  1  0.83349224  0.50163974  0.50106005  1
  Te  Te131  1  0.83366650  0.49360877  0.82765117  1
  Te  Te132  1  0.82672219  0.83472920  0.16603911  1
  Te  Te133  1  0.83695500  0.83999672  0.50206900  1
  Te  Te134  1  0.83731579  0.83587185  0.83214589  1
  Te  Te135  1  0.17436380  0.00436624  0.00153912  1
  Te  Te136  1  0.16759549  0.00144461  0.33251415  1
  Te  Te137  1  0.17573952  0.00104787  0.66541334  1
  Te  Te138  1  0.16535133  0.33517693  0.00137182  1
  Te  Te139  1  0.16996812  0.33248167  0.33756468  1
  Te  Te140  1  0.16388038  0.33851807  0.66229050  1
  Te  Te141  1  0.16619013  0.66377007  0.00128296  1
  Te  Te142  1  0.16926862  0.66565447  0.33303639  1
  Te  Te143  1  0.17269817  0.66043407  0.66301766  1
  Te  Te144  1  0.49881584  0.00098235  -0.00087559  1
  Te  Te145  1  0.50180376  0.00298339  0.33465598  1
  Te  Te146  1  0.50041050  0.00255684  0.66659388  1
  Te  Te147  1  0.50381144  0.33099167  -0.00259012  1
  Te  Te148  1  0.50059195  0.32996572  0.33520354  1
  Te  Te149  1  0.50299563  0.32915338  0.66752857  1
  Te  Te150  1  0.50411851  0.66824494  -0.00269948  1
  Te  Te151  1  0.49960201  0.66718213  0.33290829  1
  Te  Te152  1  0.49495805  0.66846499  0.67005285  1
  Te  Te153  1  0.83446639  0.00077642  -0.00506924  1
  Te  Te154  1  0.83118189  0.00192558  0.33515050  1
  Te  Te155  1  0.83350573  0.00434434  0.66724355  1
  Te  Te156  1  0.82779784  0.33368238  0.00132941  1
  Te  Te157  1  0.83107339  0.33233339  0.33676810  1
  Te  Te158  1  0.83213195  0.33221762  0.66479398  1
  Te  Te159  1  0.83145027  0.66578759  -0.00013004  1
  Te  Te160  1  0.82824705  0.66232373  0.33317079  1
  Te  Te161  1  0.83209372  0.66269215  0.66718862  1
  Te  Te162  1  0.00182814  0.16621487  -0.00630210  1
  Te  Te163  1  -0.00365067  0.16769964  0.33227345  1
  Te  Te164  1  -0.00099803  0.17070764  0.67161142  1
  Te  Te165  1  0.00439980  0.50449848  -0.00015241  1
  Te  Te166  1  -0.00587563  0.49642097  0.33905564  1
  Te  Te167  1  0.00020564  0.49708847  0.66223748  1
  Te  Te168  1  0.00040975  0.82882599  -0.00156853  1
  Te  Te169  1  -0.00047825  0.83621965  0.33862247  1
  Te  Te170  1  -0.00073300  0.83337638  0.66441234  1
  Te  Te171  1  0.33565179  0.16402623  -0.00294172  1
  Te  Te172  1  0.33310502  0.16564307  0.33280581  1
  Te  Te173  1  0.33539563  0.16406624  0.67230543  1
  Te  Te174  1  0.32817147  0.50014462  -0.00081941  1
  Te  Te175  1  0.33262788  0.50019192  0.33773953  1
  Te  Te176  1  0.33203656  0.50028602  0.66473966  1
  Te  Te177  1  0.33865760  0.83758490  0.00138642  1
  Te  Te178  1  0.33358634  0.83396064  0.33591946  1
  Te  Te179  1  0.33694769  0.83405980  0.66419164  1
  Te  Te180  1  0.66193686  0.17198014  -0.00553698  1
  Te  Te181  1  0.67089939  0.16665285  0.33383997  1
  Te  Te182  1  0.66733169  0.17087942  0.66962702  1
  Te  Te183  1  0.66693897  0.49933135  0.00254117  1
  Te  Te184  1  0.66898469  0.49807207  0.33406497  1
  Te  Te185  1  0.66940044  0.49393117  0.66156610  1
  Te  Te186  1  0.66090866  0.83005127  0.00423128  1
  Te  Te187  1  0.66588183  0.83420769  0.32896796  1
  Te  Te188  1  0.65990033  0.82986111  0.66642756  1
  Te  Te189  1  -0.00047183  -0.00156406  0.17354638  1
  Te  Te190  1  0.00290987  -0.00191719  0.49644363  1
  Te  Te191  1  -0.00105222  0.00043563  0.83307521  1
  Te  Te192  1  -0.00145181  0.33369188  0.17184948  1
  Te  Te193  1  0.00060603  0.33604151  0.50000163  1
  Te  Te194  1  -0.00253747  0.33054769  0.83128209  1
  Te  Te195  1  0.00379965  0.66770261  0.16233279  1
  Te  Te196  1  0.00585515  0.66670711  0.49966895  1
  Te  Te197  1  -0.00175716  0.66892001  0.83666838  1
  Te  Te198  1  0.33848305  -0.00491712  0.17254017  1
  Te  Te199  1  0.33578880  -0.00137843  0.49876290  1
  Te  Te200  1  0.33819954  0.00185311  0.83281441  1
  Te  Te201  1  0.33835693  0.33405242  0.17427538  1
  Te  Te202  1  0.33727657  0.33360748  0.49750253  1
  Te  Te203  1  0.33779059  0.33324319  0.83368819  1
  Te  Te204  1  0.33177916  0.67044222  0.17064151  1
  Te  Te205  1  0.33262500  0.66639894  0.49933043  1
  Te  Te206  1  0.33803619  0.66510842  0.83042682  1
  Te  Te207  1  0.66074165  -0.00298272  0.17096659  1
  Te  Te208  1  0.66409817  -0.00291576  0.49499775  1
  Te  Te209  1  0.66542716  0.00522531  0.83293477  1
  Te  Te210  1  0.66467303  0.33485420  0.16937247  1
  Te  Te211  1  0.66181025  0.33732497  0.49715792  1
  Te  Te212  1  0.66540991  0.33262145  0.83270381  1
  Te  Te213  1  0.66655038  0.66475944  0.16780173  1
  Te  Te214  1  0.66597524  0.66138392  0.49504587  1
  Te  Te215  1  0.66155928  0.66639252  0.83627833  1
