# generated using pymatgen
data_AgSbTe2
_symmetry_space_group_name_H-M   'P 1'
_cell_length_a   18.33659076
_cell_length_b   18.32328100
_cell_length_c   18.33803968
_cell_angle_alpha   89.99985485
_cell_angle_beta   90.00011183
_cell_angle_gamma   89.99903405
_symmetry_Int_Tables_number   1
_chemical_formula_structural   AgSbTe2
_chemical_formula_sum   'Ag54 Sb54 Te108'
_cell_volume   6161.33386340
_cell_formula_units_Z   54
loop_
 _symmetry_equiv_pos_site_id
 _symmetry_equiv_pos_as_xyz
  1  'x, y, z'
loop_
 _atom_site_type_symbol
 _atom_site_label
 _atom_site_symmetry_multiplicity
 _atom_site_fract_x
 _atom_site_fract_y
 _atom_site_fract_z
 _atom_site_occupancy
  Ag  Ag0  1  0.33266791  -0.00088562  0.66795983  1
  Ag  Ag1  1  -0.00383203  0.33469885  -0.00459469  1
  Ag  Ag2  1  0.66825771  0.34068293  0.67469743  1
  Ag  Ag3  1  0.49537667  0.33468612  0.15320257  1
  Ag  Ag4  1  0.50210544  0.49990731  0.33637133  1
  Ag  Ag5  1  0.66965767  0.65792808  -0.01041447  1
  Ag  Ag6  1  0.32944670  0.16432820  0.50469185  1
  Ag  Ag7  1  0.33846425  0.82653369  0.82862255  1
  Ag  Ag8  1  0.83266216  0.82514833  0.33207873  1
  Ag  Ag9  1  0.50687074  0.49916401  -0.01161576  1
  Ag  Ag10  1  0.16987683  0.01410957  0.82955528  1
  Ag  Ag11  1  0.83587538  0.17820969  -0.00835111  1
  Ag  Ag12  1  0.34185370  0.67092916  0.67005061  1
  Ag  Ag13  1  0.66035844  0.66113696  0.67171584  1
  Ag  Ag14  1  0.32527485  0.17265941  0.83106795  1
  Ag  Ag15  1  0.17557566  0.83171711  0.67082647  1
  Ag  Ag16  1  0.83241805  0.33695963  0.83569308  1
  Ag  Ag17  1  0.16615038  0.16810259  0.67085138  1
  Ag  Ag18  1  0.49535551  0.82242564  0.67063680  1
  Ag  Ag19  1  0.33261444  0.00472904  0.34258501  1
  Ag  Ag20  1  0.65621203  0.82025867  0.83574168  1
  Ag  Ag21  1  0.00267797  0.17005138  0.16657690  1
  Ag  Ag22  1  0.82718017  0.49656325  -0.00592557  1
  Ag  Ag23  1  0.00071645  0.16899155  0.50357927  1
  Ag  Ag24  1  0.66655768  0.33984862  -0.00699182  1
  Ag  Ag25  1  0.50417550  0.50305195  0.67125752  1
  Ag  Ag26  1  0.16530379  0.66119222  0.16631189  1
  Ag  Ag27  1  0.82619624  0.65879548  0.83310158  1
  Ag  Ag28  1  0.16781049  0.49867823  0.33286480  1
  Ag  Ag29  1  0.50175403  0.66418830  0.50669851  1
  Ag  Ag30  1  0.66962721  0.17431915  0.50317501  1
  Ag  Ag31  1  0.66425308  0.50029856  0.50929998  1
  Ag  Ag32  1  0.50074323  0.33754924  0.83609164  1
  Ag  Ag33  1  0.33675076  0.33328683  -0.00474078  1
  Ag  Ag34  1  -0.00003297  0.66395765  0.33170414  1
  Ag  Ag35  1  0.83070227  0.66251979  0.50339027  1
  Ag  Ag36  1  0.83269146  0.00423729  0.16780193  1
  Ag  Ag37  1  0.16630750  0.66427824  0.50616474  1
  Ag  Ag38  1  0.00574753  0.17447496  0.82963045  1
  Ag  Ag39  1  0.50372839  0.82175168  -0.01466898  1
  Ag  Ag40  1  0.16960679  0.33172343  0.15997322  1
  Ag  Ag41  1  0.84212401  0.17013976  0.66791634  1
  Ag  Ag42  1  -0.00592483  0.66055385  -0.00086273  1
  Ag  Ag43  1  0.84188693  0.16991623  0.33483121  1
  Ag  Ag44  1  0.34060399  0.49462226  0.83296795  1
  Ag  Ag45  1  0.49687058  0.00004225  0.50184986  1
  Ag  Ag46  1  0.66653083  0.83001979  0.15756178  1
  Ag  Ag47  1  -0.00458357  0.32851450  0.67788343  1
  Ag  Ag48  1  0.16661005  0.33363209  0.83664626  1
  Ag  Ag49  1  0.16372514  0.17197644  0.33841499  1
  Ag  Ag50  1  0.83198476  0.50112594  0.33255279  1
  Ag  Ag51  1  0.16555789  0.66289497  0.82899360  1
  Ag  Ag52  1  0.32523340  0.16987703  0.16569403  1
  Ag  Ag53  1  0.66245343  0.50105257  0.83110511  1
  Sb  Sb54  1  0.49707237  0.16956899  0.66621392  1
  Sb  Sb55  1  0.50331717  0.17360843  -0.00108949  1
  Sb  Sb56  1  0.66078418  0.00029149  0.66660421  1
  Sb  Sb57  1  0.17235163  0.49842640  0.66655517  1
  Sb  Sb58  1  0.66606979  0.82755490  0.50337855  1
  Sb  Sb59  1  -0.00452135  0.49765082  0.49863077  1
  Sb  Sb60  1  0.33754518  0.83761289  0.16012070  1
  Sb  Sb61  1  0.83666488  0.00372922  0.83617158  1
  Sb  Sb62  1  0.00237831  0.00176688  0.33383426  1
  Sb  Sb63  1  0.66535064  0.00058480  0.33482641  1
  Sb  Sb64  1  0.33676232  0.66044235  -0.00903426  1
  Sb  Sb65  1  0.33516435  0.33231319  0.67497922  1
  Sb  Sb66  1  0.66599654  0.00095174  -0.00164089  1
  Sb  Sb67  1  0.50121950  0.33637540  0.50451010  1
  Sb  Sb68  1  0.32852882  0.66908545  0.33947516  1
  Sb  Sb69  1  0.16646483  0.49739451  0.00059607  1
  Sb  Sb70  1  0.66785209  0.17346254  0.82925858  1
  Sb  Sb71  1  0.67241283  0.66416752  0.33463577  1
  Sb  Sb72  1  0.00204384  0.83294262  0.83335501  1
  Sb  Sb73  1  0.00041721  0.83460204  0.50120366  1
  Sb  Sb74  1  0.83259883  0.33477650  0.50602476  1
  Sb  Sb75  1  -0.00035139  0.33384108  0.33049386  1
  Sb  Sb76  1  0.66799019  0.33573341  0.33166379  1
  Sb  Sb77  1  0.17150920  0.00164119  0.50466151  1
  Sb  Sb78  1  0.83450837  0.32961244  0.15835452  1
  Sb  Sb79  1  0.17284486  0.82758178  -0.00851131  1
  Sb  Sb80  1  0.83080981  0.83387060  0.66521189  1
  Sb  Sb81  1  0.00702179  0.00825957  0.66770734  1
  Sb  Sb82  1  0.82700393  0.82849065  0.00221870  1
  Sb  Sb83  1  0.50307955  0.65911151  0.82698796  1
  Sb  Sb84  1  0.00069355  0.49585120  0.16615630  1
  Sb  Sb85  1  0.50333319  0.82942245  0.33678687  1
  Sb  Sb86  1  0.83667929  0.66769242  0.16538507  1
  Sb  Sb87  1  -0.00288887  0.83447108  0.16577362  1
  Sb  Sb88  1  -0.00026318  0.66030128  0.66874480  1
  Sb  Sb89  1  0.50196556  0.00444061  0.17032655  1
  Sb  Sb90  1  -0.00166481  0.49400434  0.83442151  1
  Sb  Sb91  1  0.66614643  0.50276956  0.16072791  1
  Sb  Sb92  1  0.82634614  0.49564150  0.66974074  1
  Sb  Sb93  1  0.49451328  0.00060467  0.82879478  1
  Sb  Sb94  1  0.33404888  0.83622841  0.50857070  1
  Sb  Sb95  1  0.33226728  0.32965504  0.32794778  1
  Sb  Sb96  1  0.16153648  0.17096964  -0.00354313  1
  Sb  Sb97  1  0.16379516  0.83146449  0.33742064  1
  Sb  Sb98  1  0.16669744  0.33388017  0.50267834  1
  Sb  Sb99  1  0.49759293  0.17178944  0.33556474  1
  Sb  Sb100  1  0.33796916  0.49730378  0.50421763  1
  Sb  Sb101  1  0.66995326  0.16731614  0.16907822  1
  Sb  Sb102  1  0.33343741  0.49463271  0.16151499  1
  Sb  Sb103  1  -0.00131558  0.00499190  -0.00059276  1
  Sb  Sb104  1  0.82816895  0.00223358  0.49725589  1
  Sb  Sb105  1  0.33400918  0.00676018  -0.00571732  1
  Sb  Sb106  1  0.49615512  0.66124665  0.16864373  1
  Sb  Sb107  1  0.16473274  0.00551302  0.16426001  1
  Te  Te108  1  0.16561004  0.16832453  0.16627164  1
  Te  Te109  1  0.16753304  0.16669211  0.49859846  1
  Te  Te110  1  0.16586437  0.17198286  0.83345290  1
  Te  Te111  1  0.16751240  0.49954503  0.17087219  1
  Te  Te112  1  0.16745193  0.50333615  0.49524824  1
  Te  Te113  1  0.17165261  0.49869173  0.83370040  1
  Te  Te114  1  0.16657264  0.83221470  0.16654240  1
  Te  Te115  1  0.16608069  0.82701022  0.50628796  1
  Te  Te116  1  0.16851539  0.82377809  0.82885709  1
  Te  Te117  1  0.49779952  0.17288235  0.16737405  1
  Te  Te118  1  0.50046413  0.16482459  0.49965468  1
  Te  Te119  1  0.49652605  0.17122064  0.83405801  1
  Te  Te120  1  0.49899821  0.49431231  0.17383491  1
  Te  Te121  1  0.50311469  0.50284660  0.49945882  1
  Te  Te122  1  0.50084801  0.49791228  0.83234700  1
  Te  Te123  1  0.50557976  0.83403941  0.16786183  1
  Te  Te124  1  0.50083393  0.82920118  0.50480688  1
  Te  Te125  1  0.49789712  0.83645247  0.82999859  1
  Te  Te126  1  0.83415441  0.16554283  0.17313110  1
  Te  Te127  1  0.83320009  0.16751064  0.49966661  1
  Te  Te128  1  0.83451099  0.16813672  0.83175757  1
  Te  Te129  1  0.83307533  0.49860340  0.17241838  1
  Te  Te130  1  0.82884549  0.50277096  0.49677579  1
  Te  Te131  1  0.83119686  0.49998353  0.83503898  1
  Te  Te132  1  0.82958704  0.83730790  0.17006694  1
  Te  Te133  1  0.83316799  0.83008434  0.49464708  1
  Te  Te134  1  0.83263421  0.83180021  0.83295648  1
  Te  Te135  1  0.16641703  -0.00358266  -0.00842681  1
  Te  Te136  1  0.17111606  0.00302508  0.33314609  1
  Te  Te137  1  0.17248709  0.00272268  0.66960545  1
  Te  Te138  1  0.16495701  0.33478281  -0.00040980  1
  Te  Te139  1  0.16563895  0.33289875  0.33069111  1
  Te  Te140  1  0.16477321  0.33043053  0.67008441  1
  Te  Te141  1  0.16544363  0.66346010  -0.00025079  1
  Te  Te142  1  0.16334041  0.66692313  0.33514177  1
  Te  Te143  1  0.16407326  0.66520004  0.66722518  1
  Te  Te144  1  0.49978283  -0.00638884  0.00179963  1
  Te  Te145  1  0.49431701  -0.00104910  0.33841508  1
  Te  Te146  1  0.49374220  -0.00093458  0.66179365  1
  Te  Te147  1  0.50143965  0.33560327  -0.00354424  1
  Te  Te148  1  0.50040026  0.34023056  0.33268153  1
  Te  Te149  1  0.50521881  0.33814700  0.67153883  1
  Te  Te150  1  0.50386609  0.66292084  0.00397365  1
  Te  Te151  1  0.49745537  0.66208105  0.33870172  1
  Te  Te152  1  0.50122171  0.66512919  0.66529140  1
  Te  Te153  1  0.83351772  0.00436601  0.00501950  1
  Te  Te154  1  0.83381732  0.00509867  0.33025372  1
  Te  Te155  1  0.83268600  0.00682319  0.66649009  1
  Te  Te156  1  0.83426946  0.33558843  -0.00224711  1
  Te  Te157  1  0.83406358  0.33344641  0.33180638  1
  Te  Te158  1  0.83067944  0.32989383  0.67195572  1
  Te  Te159  1  0.83140551  0.66349138  -0.00192741  1
  Te  Te160  1  0.83743002  0.66436289  0.33229381  1
  Te  Te161  1  0.83173833  0.66780983  0.66722532  1
  Te  Te162  1  -0.00459964  0.17014874  0.00093109  1
  Te  Te163  1  0.00254480  0.16735207  0.33229891  1
  Te  Te164  1  0.00254720  0.16952387  0.66768701  1
  Te  Te165  1  -0.00498077  0.50035727  0.00053505  1
  Te  Te166  1  0.00131010  0.50334834  0.33264382  1
  Te  Te167  1  0.00036032  0.48996176  0.66506823  1
  Te  Te168  1  -0.00042281  0.82524061  0.00048596  1
  Te  Te169  1  -0.00580068  0.82853785  0.33358598  1
  Te  Te170  1  0.00475479  0.83473906  0.66664148  1
  Te  Te171  1  0.33509881  0.17264306  -0.00102103  1
  Te  Te172  1  0.33141751  0.16491644  0.33335097  1
  Te  Te173  1  0.33050017  0.16681555  0.66816006  1
  Te  Te174  1  0.33904330  0.49412982  -0.00528278  1
  Te  Te175  1  0.32972521  0.50094722  0.33405699  1
  Te  Te176  1  0.33940604  0.50410283  0.67060434  1
  Te  Te177  1  0.34130029  0.83370486  -0.00706585  1
  Te  Te178  1  0.33371957  0.84021779  0.33033587  1
  Te  Te179  1  0.33412622  0.83169449  0.67010231  1
  Te  Te180  1  0.67393149  0.17097903  0.00014138  1
  Te  Te181  1  0.66999930  0.16786624  0.33894343  1
  Te  Te182  1  0.66681782  0.16768217  0.66252845  1
  Te  Te183  1  0.66668315  0.50007192  -0.00130516  1
  Te  Te184  1  0.66734042  0.49979312  0.33627567  1
  Te  Te185  1  0.66571963  0.50065170  0.66876068  1
  Te  Te186  1  0.66284665  0.83322434  -0.00289583  1
  Te  Te187  1  0.67200170  0.83280106  0.33151605  1
  Te  Te188  1  0.66334600  0.82963313  0.67089726  1
  Te  Te189  1  -0.00442661  0.00662035  0.16653378  1
  Te  Te190  1  -0.00084747  0.00791798  0.49994119  1
  Te  Te191  1  0.00616814  0.00654846  0.83442658  1
  Te  Te192  1  0.00451498  0.32881051  0.16175940  1
  Te  Te193  1  -0.00003540  0.32725123  0.50273923  1
  Te  Te194  1  -0.00107218  0.33260363  0.83567347  1
  Te  Te195  1  0.00503523  0.66703286  0.16589761  1
  Te  Te196  1  -0.00216455  0.66616296  0.49877708  1
  Te  Te197  1  0.00055906  0.66524515  0.83642163  1
  Te  Te198  1  0.33343692  0.00718748  0.16624296  1
  Te  Te199  1  0.33582307  0.00319280  0.50276757  1
  Te  Te200  1  0.32909693  0.00473175  0.82958924  1
  Te  Te201  1  0.33113038  0.32943705  0.16227896  1
  Te  Te202  1  0.33371078  0.32541125  0.50050836  1
  Te  Te203  1  0.33160562  0.33400007  0.83405652  1
  Te  Te204  1  0.32607900  0.66805046  0.16591933  1
  Te  Te205  1  0.33295885  0.66607614  0.50646111  1
  Te  Te206  1  0.32875681  0.66731261  0.83096272  1
  Te  Te207  1  0.66990830  -0.00474378  0.16701495  1
  Te  Te208  1  0.65969323  0.00391904  0.50039294  1
  Te  Te209  1  0.66685323  -0.00658643  0.83217151  1
  Te  Te210  1  0.66062001  0.33353242  0.15994748  1
  Te  Te211  1  0.66649539  0.33539908  0.50257546  1
  Te  Te212  1  0.66857534  0.33404928  0.83349847  1
  Te  Te213  1  0.66565620  0.67098062  0.16372187  1
  Te  Te214  1  0.66884019  0.66332517  0.50131065  1
  Te  Te215  1  0.66615512  0.66376921  0.83263998  1
