# generated using pymatgen
data_AgSbTe2
_symmetry_space_group_name_H-M   'P 1'
_cell_length_a   18.32953242
_cell_length_b   18.33875770
_cell_length_c   18.33479637
_cell_angle_alpha   90.00099110
_cell_angle_beta   89.99779132
_cell_angle_gamma   90.00061157
_symmetry_Int_Tables_number   1
_chemical_formula_structural   AgSbTe2
_chemical_formula_sum   'Ag54 Sb54 Te108'
_cell_volume   6163.07410107
_cell_formula_units_Z   54
loop_
 _symmetry_equiv_pos_site_id
 _symmetry_equiv_pos_as_xyz
  1  'x, y, z'
loop_
 _atom_site_type_symbol
 _atom_site_label
 _atom_site_symmetry_multiplicity
 _atom_site_fract_x
 _atom_site_fract_y
 _atom_site_fract_z
 _atom_site_occupancy
  Ag  Ag0  1  0.34716934  0.67163564  0.00269493  1
  Ag  Ag1  1  0.16684444  0.34303916  0.16582991  1
  Ag  Ag2  1  0.16187244  0.83622487  0.66643938  1
  Ag  Ag3  1  0.49848079  0.50630093  0.33093276  1
  Ag  Ag4  1  0.16440410  0.82859132  0.33333158  1
  Ag  Ag5  1  0.82693849  0.50739969  0.00025216  1
  Ag  Ag6  1  0.00545293  0.83563379  0.83653673  1
  Ag  Ag7  1  0.50100147  0.16416166  -0.00351632  1
  Ag  Ag8  1  0.66887171  0.50616372  0.15944284  1
  Ag  Ag9  1  0.66713449  0.83316810  0.50257476  1
  Ag  Ag10  1  -0.00093086  0.50650635  0.16822139  1
  Ag  Ag11  1  0.33283223  0.15933411  0.16395816  1
  Ag  Ag12  1  0.66430597  0.50052820  0.83796124  1
  Ag  Ag13  1  0.50513280  0.33377819  0.50856594  1
  Ag  Ag14  1  0.50103835  0.66764541  0.49815021  1
  Ag  Ag15  1  0.16196454  0.66609293  0.17074088  1
  Ag  Ag16  1  0.66095732  0.66796542  0.00495308  1
  Ag  Ag17  1  0.00896487  0.66898292  0.33272656  1
  Ag  Ag18  1  0.33171408  -0.00271086  0.33744241  1
  Ag  Ag19  1  0.50091474  0.66471963  0.15890248  1
  Ag  Ag20  1  0.50780929  0.51271549  0.00241366  1
  Ag  Ag21  1  0.33131667  0.83398654  0.83827467  1
  Ag  Ag22  1  0.33190364  0.83192532  0.15745635  1
  Ag  Ag23  1  0.66266510  -0.00939730  -0.00595004  1
  Ag  Ag24  1  -0.00250617  0.15526324  0.82974818  1
  Ag  Ag25  1  0.16389244  0.51072594  0.33069649  1
  Ag  Ag26  1  0.00575039  -0.01234195  0.34078210  1
  Ag  Ag27  1  0.00233007  -0.00626600  0.66682694  1
  Ag  Ag28  1  -0.00392717  -0.01174764  -0.00747744  1
  Ag  Ag29  1  0.33450463  0.00054851  0.66499836  1
  Ag  Ag30  1  0.84070927  0.82428513  -0.00004202  1
  Ag  Ag31  1  0.50365035  -0.00221601  0.50673090  1
  Ag  Ag32  1  0.49902546  0.82644366  -0.00333002  1
  Ag  Ag33  1  -0.00062486  0.51131838  0.49391626  1
  Ag  Ag34  1  0.50304389  -0.00218411  0.83369500  1
  Ag  Ag35  1  0.66534503  0.16354940  0.50758701  1
  Ag  Ag36  1  0.50292005  0.33339885  0.83085943  1
  Ag  Ag37  1  0.83244760  0.33537135  0.50318622  1
  Ag  Ag38  1  0.15671625  0.66994513  0.49141056  1
  Ag  Ag39  1  0.66235937  0.32754244  0.66656988  1
  Ag  Ag40  1  0.50073581  0.67040490  0.84487375  1
  Ag  Ag41  1  -0.00335670  0.66919528  0.00401896  1
  Ag  Ag42  1  0.00024846  0.34085698  -0.00102989  1
  Ag  Ag43  1  0.83791285  0.66423291  0.16210668  1
  Ag  Ag44  1  0.00066835  0.82935605  0.50522733  1
  Ag  Ag45  1  0.16475560  0.82988140  0.00016818  1
  Ag  Ag46  1  0.00183221  0.67539683  0.66342461  1
  Ag  Ag47  1  0.83349034  0.50107244  0.66792716  1
  Ag  Ag48  1  0.66305841  0.16717929  0.82896260  1
  Ag  Ag49  1  0.66449635  0.66617362  0.32465136  1
  Ag  Ag50  1  0.66141665  0.00367550  0.67133692  1
  Ag  Ag51  1  -0.00198694  0.16267712  0.50708776  1
  Ag  Ag52  1  0.16187207  0.15698232  0.66611878  1
  Ag  Ag53  1  0.33916854  0.32696681  0.66719357  1
  Sb  Sb54  1  0.33265212  0.50109106  0.49968738  1
  Sb  Sb55  1  0.34238718  0.50525736  0.83451868  1
  Sb  Sb56  1  0.66495468  0.83458350  0.83381540  1
  Sb  Sb57  1  0.66577179  -0.00711597  0.33624408  1
  Sb  Sb58  1  0.83620052  0.66435573  0.49728773  1
  Sb  Sb59  1  0.83156896  0.16709334  -0.00118030  1
  Sb  Sb60  1  0.16694064  -0.00586936  0.16716061  1
  Sb  Sb61  1  0.32995654  0.67030198  0.67010021  1
  Sb  Sb62  1  0.66190084  0.82519742  0.16492709  1
  Sb  Sb63  1  0.33139061  0.67208459  0.32799676  1
  Sb  Sb64  1  0.83953413  0.82890552  0.32967616  1
  Sb  Sb65  1  0.16781514  -0.00320992  0.83149080  1
  Sb  Sb66  1  0.66450882  0.33984659  0.34043143  1
  Sb  Sb67  1  0.16058304  0.50383364  0.66200074  1
  Sb  Sb68  1  0.49623786  0.34080470  0.16303143  1
  Sb  Sb69  1  0.66993602  0.50195326  0.50087225  1
  Sb  Sb70  1  0.49996232  0.16614842  0.67017486  1
  Sb  Sb71  1  0.16591734  0.16360346  0.33694388  1
  Sb  Sb72  1  0.83084432  -0.00150080  0.83299372  1
  Sb  Sb73  1  0.49978180  0.16816935  0.33191487  1
  Sb  Sb74  1  0.83579327  -0.00900142  0.16306107  1
  Sb  Sb75  1  0.16564388  -0.00566094  0.50203367  1
  Sb  Sb76  1  0.33243422  0.33703516  -0.00273340  1
  Sb  Sb77  1  0.33105352  0.83379991  0.50106354  1
  Sb  Sb78  1  0.66771344  0.33938220  -0.00663518  1
  Sb  Sb79  1  0.49547705  0.82779228  0.33198467  1
  Sb  Sb80  1  0.33595667  -0.00865195  -0.00321582  1
  Sb  Sb81  1  0.83911122  0.82888167  0.67104897  1
  Sb  Sb82  1  0.83420105  0.16902511  0.66622002  1
  Sb  Sb83  1  0.33711509  0.16077434  0.83468413  1
  Sb  Sb84  1  0.49890658  -0.00645875  0.16336407  1
  Sb  Sb85  1  0.49621678  0.83553864  0.66995120  1
  Sb  Sb86  1  0.00148574  0.33818673  0.33245590  1
  Sb  Sb87  1  0.50526830  0.49849532  0.66736156  1
  Sb  Sb88  1  0.66017203  0.17249536  0.16156242  1
  Sb  Sb89  1  0.33490826  0.16402627  0.50122598  1
  Sb  Sb90  1  0.66951616  0.66835014  0.66810566  1
  Sb  Sb91  1  0.83683456  0.34161944  0.16697857  1
  Sb  Sb92  1  0.83447159  0.16615204  0.33603676  1
  Sb  Sb93  1  -0.00114147  0.33206143  0.66973721  1
  Sb  Sb94  1  0.33212609  0.50606455  0.16618341  1
  Sb  Sb95  1  0.16967229  0.33156265  0.83517459  1
  Sb  Sb96  1  0.82828470  0.33571577  0.82949487  1
  Sb  Sb97  1  0.16789177  0.66929788  0.83710504  1
  Sb  Sb98  1  0.16333361  0.50813523  0.00624790  1
  Sb  Sb99  1  -0.00572007  0.50432397  0.83579526  1
  Sb  Sb100  1  0.83274796  0.00129949  0.50183079  1
  Sb  Sb101  1  0.83432758  0.50379781  0.33154960  1
  Sb  Sb102  1  0.33376481  0.33012080  0.33588857  1
  Sb  Sb103  1  0.16742495  0.16154786  -0.00246490  1
  Sb  Sb104  1  0.16510345  0.33718412  0.49772717  1
  Sb  Sb105  1  0.00695249  0.82530084  0.16299390  1
  Sb  Sb106  1  0.82932684  0.66684490  0.84172231  1
  Sb  Sb107  1  0.00483852  0.16994744  0.16502236  1
  Te  Te108  1  0.17174984  0.16839768  0.16687106  1
  Te  Te109  1  0.16276722  0.16849719  0.50469244  1
  Te  Te110  1  0.16068267  0.16641235  0.82856140  1
  Te  Te111  1  0.16454560  0.50318041  0.17009845  1
  Te  Te112  1  0.16095137  0.50533363  0.49418767  1
  Te  Te113  1  0.16832936  0.49978229  0.83301382  1
  Te  Te114  1  0.17178792  0.82869899  0.16695793  1
  Te  Te115  1  0.16359188  0.82947606  0.50018712  1
  Te  Te116  1  0.16631712  0.83222605  0.83306430  1
  Te  Te117  1  0.49485668  0.16918550  0.16240800  1
  Te  Te118  1  0.50343448  0.16776636  0.49871057  1
  Te  Te119  1  0.50204244  0.16404836  0.83628921  1
  Te  Te120  1  0.50043813  0.50363963  0.16621962  1
  Te  Te121  1  0.50112839  0.49890654  0.49790664  1
  Te  Te122  1  0.50505099  0.50046284  0.83490958  1
  Te  Te123  1  0.49471977  0.82690387  0.16275234  1
  Te  Te124  1  0.50171355  0.83510045  0.50028662  1
  Te  Te125  1  0.49970966  0.83425465  0.83560184  1
  Te  Te126  1  0.83198486  0.16942102  0.16782703  1
  Te  Te127  1  0.83216641  0.17164228  0.50022567  1
  Te  Te128  1  0.83504010  0.16807460  0.83357709  1
  Te  Te129  1  0.83474931  0.50440012  0.16346907  1
  Te  Te130  1  0.83809411  0.49691675  0.50150219  1
  Te  Te131  1  0.82625058  0.50041215  0.83578625  1
  Te  Te132  1  0.82956078  0.82499377  0.15909498  1
  Te  Te133  1  0.83489918  0.83241385  0.49939793  1
  Te  Te134  1  0.84299036  0.83270562  0.84089093  1
  Te  Te135  1  0.16046037  -0.00663606  -0.00054454  1
  Te  Te136  1  0.16631529  -0.00392707  0.33452802  1
  Te  Te137  1  0.16450411  -0.00213462  0.66584104  1
  Te  Te138  1  0.16382969  0.33327641  0.00400333  1
  Te  Te139  1  0.16843170  0.33620973  0.32812375  1
  Te  Te140  1  0.17173917  0.33341368  0.66651777  1
  Te  Te141  1  0.15766574  0.67076522  0.00317192  1
  Te  Te142  1  0.16866050  0.66752930  0.33309947  1
  Te  Te143  1  0.16268540  0.67148449  0.66393124  1
  Te  Te144  1  0.50201208  0.00120743  -0.00145495  1
  Te  Te145  1  0.49666539  -0.00063092  0.33544634  1
  Te  Te146  1  0.50196534  -0.00013512  0.66646211  1
  Te  Te147  1  0.49942858  0.32806750  -0.00479858  1
  Te  Te148  1  0.49871862  0.33945783  0.33600405  1
  Te  Te149  1  0.50131504  0.33277376  0.66817058  1
  Te  Te150  1  0.50315065  0.66748786  0.00013046  1
  Te  Te151  1  0.49850399  0.66471816  0.33850598  1
  Te  Te152  1  0.49956154  0.66706020  0.65827185  1
  Te  Te153  1  0.83403508  -0.00244120  0.00014532  1
  Te  Te154  1  0.84214763  -0.00167693  0.33105367  1
  Te  Te155  1  0.83466742  -0.00221246  0.66623142  1
  Te  Te156  1  0.83945656  0.33744579  0.00026977  1
  Te  Te157  1  0.83304672  0.33425524  0.34104349  1
  Te  Te158  1  0.82958157  0.33840121  0.66313155  1
  Te  Te159  1  0.83515027  0.66576523  0.00202411  1
  Te  Te160  1  0.82794054  0.66609196  0.32523836  1
  Te  Te161  1  0.83871072  0.66149162  0.66764500  1
  Te  Te162  1  -0.00007179  0.16393978  -0.00378209  1
  Te  Te163  1  0.00112073  0.16448225  0.33839110  1
  Te  Te164  1  0.00080891  0.16570377  0.66796363  1
  Te  Te165  1  -0.00100591  0.50279253  0.00150555  1
  Te  Te166  1  0.00140012  0.50378679  0.33237435  1
  Te  Te167  1  -0.00498206  0.50099970  0.66557480  1
  Te  Te168  1  0.00163922  0.83138413  0.00128944  1
  Te  Te169  1  0.00382526  0.83032383  0.33383146  1
  Te  Te170  1  0.00071624  0.83331067  0.66504595  1
  Te  Te171  1  0.33554890  0.16667276  0.00259681  1
  Te  Te172  1  0.33285201  0.15891610  0.32831792  1
  Te  Te173  1  0.32618033  0.16294208  0.66767952  1
  Te  Te174  1  0.33952203  0.50625377  -0.00012741  1
  Te  Te175  1  0.33514764  0.49862509  0.33333509  1
  Te  Te176  1  0.33141141  0.49558986  0.66745146  1
  Te  Te177  1  0.33282382  0.83192967  -0.00179879  1
  Te  Te178  1  0.32767180  0.83884447  0.33293116  1
  Te  Te179  1  0.32685688  0.83725016  0.67096921  1
  Te  Te180  1  0.66383666  0.16608937  -0.00380414  1
  Te  Te181  1  0.66629290  0.16494627  0.33657156  1
  Te  Te182  1  0.66719912  0.16504218  0.66672067  1
  Te  Te183  1  0.66652722  0.50021539  -0.00063832  1
  Te  Te184  1  0.66343780  0.50594835  0.33114550  1
  Te  Te185  1  0.67200441  0.49938916  0.67026813  1
  Te  Te186  1  0.66144932  0.83218096  -0.00118085  1
  Te  Te187  1  0.66685936  0.82847469  0.33923533  1
  Te  Te188  1  0.66871192  0.83775374  0.66353289  1
  Te  Te189  1  -0.00001028  0.00309751  0.16751540  1
  Te  Te190  1  -0.00114532  0.00041966  0.50154817  1
  Te  Te191  1  -0.00019590  -0.00214011  0.83220766  1
  Te  Te192  1  0.00448858  0.33827376  0.16320849  1
  Te  Te193  1  -0.00141259  0.32900842  0.50086297  1
  Te  Te194  1  0.00045151  0.33372576  0.83822267  1
  Te  Te195  1  0.00169623  0.66549046  0.16845921  1
  Te  Te196  1  -0.00207820  0.66851088  0.49745853  1
  Te  Te197  1  0.00044738  0.67070682  0.83176808  1
  Te  Te198  1  0.33346680  -0.00274351  0.16809524  1
  Te  Te199  1  0.33968945  0.00057790  0.50318017  1
  Te  Te200  1  0.34028142  -0.00436949  0.82906731  1
  Te  Te201  1  0.32805481  0.33092171  0.16645527  1
  Te  Te202  1  0.33846201  0.33214300  0.50553841  1
  Te  Te203  1  0.33940853  0.33160488  0.82873628  1
  Te  Te204  1  0.33438315  0.67048075  0.16259262  1
  Te  Te205  1  0.33848686  0.66678576  0.50132635  1
  Te  Te206  1  0.33846425  0.67234243  0.83763490  1
  Te  Te207  1  0.66753456  0.00275574  0.16268894  1
  Te  Te208  1  0.66493133  0.00075261  0.49959488  1
  Te  Te209  1  0.66399764  0.00143994  0.83344216  1
  Te  Te210  1  0.66704962  0.34133708  0.16894884  1
  Te  Te211  1  0.66516098  0.33292816  0.50447747  1
  Te  Te212  1  0.66303619  0.32899935  0.82851301  1
  Te  Te213  1  0.66129830  0.66430759  0.16570747  1
  Te  Te214  1  0.66666570  0.66984277  0.49964169  1
  Te  Te215  1  0.66093519  0.66605227  0.83581460  1
