# generated using pymatgen
data_AgSbTe2
_symmetry_space_group_name_H-M   'P 1'
_cell_length_a   18.32441080
_cell_length_b   18.32437239
_cell_length_c   18.31565276
_cell_angle_alpha   89.99733565
_cell_angle_beta   90.00194477
_cell_angle_gamma   89.99954927
_symmetry_Int_Tables_number   1
_chemical_formula_structural   AgSbTe2
_chemical_formula_sum   'Ag54 Sb54 Te108'
_cell_volume   6150.09081605
_cell_formula_units_Z   54
loop_
 _symmetry_equiv_pos_site_id
 _symmetry_equiv_pos_as_xyz
  1  'x, y, z'
loop_
 _atom_site_type_symbol
 _atom_site_label
 _atom_site_symmetry_multiplicity
 _atom_site_fract_x
 _atom_site_fract_y
 _atom_site_fract_z
 _atom_site_occupancy
  Ag  Ag0  1  0.83535230  0.83527211  0.33837781  1
  Ag  Ag1  1  0.33031812  0.00402128  -0.00851209  1
  Ag  Ag2  1  0.49625960  0.32977376  0.50177556  1
  Ag  Ag3  1  0.84080878  0.33494252  0.83153537  1
  Ag  Ag4  1  0.83412331  0.16995515  -0.00270173  1
  Ag  Ag5  1  0.83684586  0.49408721  -0.00894386  1
  Ag  Ag6  1  0.49338597  0.15994301  -0.00111170  1
  Ag  Ag7  1  0.33259976  0.65528411  0.66152651  1
  Ag  Ag8  1  0.16944996  0.16015496  -0.00609126  1
  Ag  Ag9  1  0.66686778  0.16618696  0.16217545  1
  Ag  Ag10  1  0.84685536  0.00768236  0.83591656  1
  Ag  Ag11  1  0.00024533  0.50315132  0.15736132  1
  Ag  Ag12  1  0.66309118  0.83115209  0.49508954  1
  Ag  Ag13  1  0.48999934  -0.00127733  0.50233371  1
  Ag  Ag14  1  0.50164266  0.83300422  0.33302281  1
  Ag  Ag15  1  0.48596996  0.49846480  0.66706362  1
  Ag  Ag16  1  0.16927313  -0.00592254  0.50659382  1
  Ag  Ag17  1  0.33133070  0.83078886  0.50348158  1
  Ag  Ag18  1  0.17282893  0.49850667  0.66567130  1
  Ag  Ag19  1  0.67391678  0.49862340  0.83516037  1
  Ag  Ag20  1  0.66582111  0.33460815  -0.00301620  1
  Ag  Ag21  1  0.33563591  0.32408053  -0.01113418  1
  Ag  Ag22  1  0.00643572  0.16858607  0.83609404  1
  Ag  Ag23  1  -0.00191076  0.33175223  0.34034804  1
  Ag  Ag24  1  0.00779857  -0.00176056  -0.00613482  1
  Ag  Ag25  1  -0.00009444  0.83283703  0.16854181  1
  Ag  Ag26  1  0.00312600  0.83596425  0.49546464  1
  Ag  Ag27  1  0.33026036  0.49322327  0.82577223  1
  Ag  Ag28  1  0.66277733  0.66937714  0.33227811  1
  Ag  Ag29  1  0.16998020  0.67052268  0.49974087  1
  Ag  Ag30  1  0.66943157  0.66302045  0.00317140  1
  Ag  Ag31  1  0.00246495  0.33577997  0.66981886  1
  Ag  Ag32  1  -0.00216816  0.66957660  -0.00008138  1
  Ag  Ag33  1  0.49870919  -0.00694446  0.15556327  1
  Ag  Ag34  1  0.33093591  0.50498359  0.51259092  1
  Ag  Ag35  1  0.33273290  0.84273379  0.83313228  1
  Ag  Ag36  1  0.83774046  0.49730959  0.67304578  1
  Ag  Ag37  1  0.16469150  0.50034928  0.34382854  1
  Ag  Ag38  1  0.16641711  0.00698246  0.83511627  1
  Ag  Ag39  1  0.49417126  0.84188423  0.00498006  1
  Ag  Ag40  1  0.83686554  0.16396260  0.33141950  1
  Ag  Ag41  1  0.16410432  0.32924882  0.83282030  1
  Ag  Ag42  1  -0.00008003  -0.00094476  0.33351233  1
  Ag  Ag43  1  0.83760156  0.66509012  0.49899241  1
  Ag  Ag44  1  -0.00187769  0.49038355  0.83281114  1
  Ag  Ag45  1  0.32521852  0.16687588  0.83479018  1
  Ag  Ag46  1  0.83453666  0.33711299  0.50680131  1
  Ag  Ag47  1  0.33552953  0.66848815  0.34293923  1
  Ag  Ag48  1  0.50035988  0.67350848  0.16662007  1
  Ag  Ag49  1  0.48862657  0.00082482  0.84027336  1
  Ag  Ag50  1  0.00244270  0.00369959  0.67569080  1
  Ag  Ag51  1  0.17024719  0.84053294  -0.00342780  1
  Ag  Ag52  1  0.32741472  0.34098618  0.67133424  1
  Ag  Ag53  1  0.33323035  0.16591683  0.50578956  1
  Sb  Sb54  1  0.33013981  -0.00332134  0.33625821  1
  Sb  Sb55  1  0.66394506  0.16394240  0.49401042  1
  Sb  Sb56  1  0.67039587  -0.00065067  0.66734894  1
  Sb  Sb57  1  0.16255638  0.49986721  -0.00718447  1
  Sb  Sb58  1  0.16810805  0.66718543  0.16988834  1
  Sb  Sb59  1  0.66397473  0.00112387  -0.00012810  1
  Sb  Sb60  1  0.50000587  0.33348781  0.16771927  1
  Sb  Sb61  1  0.50195422  0.49965879  -0.00544135  1
  Sb  Sb62  1  0.00453721  0.16328275  0.50463375  1
  Sb  Sb63  1  0.16207799  0.16940567  0.33159846  1
  Sb  Sb64  1  0.83489938  0.83405532  0.00223363  1
  Sb  Sb65  1  0.00055574  0.66804897  0.33217485  1
  Sb  Sb66  1  0.66979217  -0.00504576  0.33381822  1
  Sb  Sb67  1  0.33204363  0.66854456  -0.00205951  1
  Sb  Sb68  1  0.16603205  0.83110857  0.33465809  1
  Sb  Sb69  1  0.67189671  0.33750962  0.33085156  1
  Sb  Sb70  1  -0.00094722  0.33165541  -0.00740665  1
  Sb  Sb71  1  0.33715846  0.16457162  0.15963513  1
  Sb  Sb72  1  0.00381239  0.66357836  0.66936627  1
  Sb  Sb73  1  0.49589438  0.83130875  0.66486782  1
  Sb  Sb74  1  0.49741913  0.66843849  0.83722148  1
  Sb  Sb75  1  0.16727009  0.17118615  0.67372651  1
  Sb  Sb76  1  -0.00303998  0.16562526  0.16067989  1
  Sb  Sb77  1  0.49461800  0.50622945  0.33853076  1
  Sb  Sb78  1  0.00388298  0.50209539  0.50419964  1
  Sb  Sb79  1  0.83408437  0.66318507  0.83128097  1
  Sb  Sb80  1  0.49400500  0.33091807  0.83091575  1
  Sb  Sb81  1  0.16364804  0.33492464  0.15934608  1
  Sb  Sb82  1  0.49452797  0.66977703  0.49693490  1
  Sb  Sb83  1  0.67146483  0.49935759  0.15993309  1
  Sb  Sb84  1  0.16810992  0.66572782  0.82989304  1
  Sb  Sb85  1  0.66759890  0.17176082  0.84041871  1
  Sb  Sb86  1  0.33284000  0.83322567  0.16547410  1
  Sb  Sb87  1  0.66671656  0.83475847  0.16933182  1
  Sb  Sb88  1  0.16799131  0.83128519  0.66775120  1
  Sb  Sb89  1  0.16803256  -0.00150684  0.16172265  1
  Sb  Sb90  1  0.66372904  0.50351284  0.50434562  1
  Sb  Sb91  1  0.16680365  0.33301849  0.50706965  1
  Sb  Sb92  1  0.83606707  0.33326814  0.16195383  1
  Sb  Sb93  1  0.83635233  0.82925873  0.66207381  1
  Sb  Sb94  1  0.50267541  0.15937299  0.32976413  1
  Sb  Sb95  1  0.83217563  0.66778473  0.16949716  1
  Sb  Sb96  1  0.32906649  0.33723948  0.34028056  1
  Sb  Sb97  1  0.00472635  0.83721241  0.83426711  1
  Sb  Sb98  1  0.83861510  0.50073184  0.33463670  1
  Sb  Sb99  1  0.66189567  0.83024377  0.83314488  1
  Sb  Sb100  1  0.32900353  0.50141434  0.16461221  1
  Sb  Sb101  1  0.83862760  -0.00022890  0.50277056  1
  Sb  Sb102  1  0.32801567  0.00172791  0.67018970  1
  Sb  Sb103  1  0.49594543  0.16960893  0.67123703  1
  Sb  Sb104  1  0.66284248  0.66395028  0.66525835  1
  Sb  Sb105  1  0.83666350  0.17163823  0.67058883  1
  Sb  Sb106  1  0.66717794  0.33670896  0.67281444  1
  Sb  Sb107  1  0.83250597  0.00046417  0.16340513  1
  Te  Te108  1  0.16690520  0.16692490  0.15717380  1
  Te  Te109  1  0.17272342  0.16211073  0.49885803  1
  Te  Te110  1  0.16669267  0.16703735  0.83630477  1
  Te  Te111  1  0.15984672  0.50091571  0.16974467  1
  Te  Te112  1  0.16989989  0.49916526  0.50259440  1
  Te  Te113  1  0.16686638  0.49888150  0.82916457  1
  Te  Te114  1  0.16003826  0.83277534  0.15992787  1
  Te  Te115  1  0.16831667  0.83265576  0.50033558  1
  Te  Te116  1  0.17195882  0.83517442  0.83648178  1
  Te  Te117  1  0.50434951  0.16514565  0.16163274  1
  Te  Te118  1  0.49629553  0.16548584  0.49815291  1
  Te  Te119  1  0.49943087  0.16224949  0.83837424  1
  Te  Te120  1  0.50067250  0.50331158  0.16831767  1
  Te  Te121  1  0.49615663  0.49615265  0.50437043  1
  Te  Te122  1  0.49491330  0.49884266  0.82804013  1
  Te  Te123  1  0.50008842  0.83420334  0.16750584  1
  Te  Te124  1  0.49631236  0.83557812  0.49831125  1
  Te  Te125  1  0.49613494  0.83864446  0.83616303  1
  Te  Te126  1  0.82957026  0.16641736  0.16575482  1
  Te  Te127  1  0.83288562  0.17026306  0.49647283  1
  Te  Te128  1  0.83367760  0.16742765  0.83592696  1
  Te  Te129  1  0.84026070  0.50093913  0.16097794  1
  Te  Te130  1  0.83258552  0.49904364  0.50131347  1
  Te  Te131  1  0.83645929  0.50055932  0.83431090  1
  Te  Te132  1  0.83899794  0.83419807  0.17432790  1
  Te  Te133  1  0.83649811  0.83300336  0.49686126  1
  Te  Te134  1  0.83147661  0.83810908  0.83157504  1
  Te  Te135  1  0.16793920  -0.00019428  -0.00109446  1
  Te  Te136  1  0.16146971  0.00053486  0.33530242  1
  Te  Te137  1  0.16148251  -0.00037095  0.66689852  1
  Te  Te138  1  0.17107451  0.33150699  -0.00685868  1
  Te  Te139  1  0.16084122  0.33709313  0.33247359  1
  Te  Te140  1  0.16428022  0.33731115  0.67162771  1
  Te  Te141  1  0.16217731  0.67100808  0.00133372  1
  Te  Te142  1  0.17002726  0.66348306  0.33773379  1
  Te  Te143  1  0.17045511  0.66145675  0.66082898  1
  Te  Te144  1  0.50063548  -0.00043320  -0.00161530  1
  Te  Te145  1  0.49929142  -0.00619262  0.33920239  1
  Te  Te146  1  0.50061490  0.00039812  0.66340641  1
  Te  Te147  1  0.50010384  0.33063953  0.00027369  1
  Te  Te148  1  0.50087196  0.33238964  0.33931422  1
  Te  Te149  1  0.49893122  0.33652545  0.66200214  1
  Te  Te150  1  0.50161511  0.66737907  0.00458702  1
  Te  Te151  1  0.50001429  0.67112981  0.33073911  1
  Te  Te152  1  0.49528652  0.66043863  0.66739909  1
  Te  Te153  1  0.83484963  0.00228770  -0.00403231  1
  Te  Te154  1  0.83748193  0.00028594  0.33382338  1
  Te  Te155  1  0.83970509  0.00049448  0.67289842  1
  Te  Te156  1  0.83280109  0.33300669  -0.00419454  1
  Te  Te157  1  0.83648037  0.33153764  0.33637831  1
  Te  Te158  1  0.83452033  0.33610660  0.66810529  1
  Te  Te159  1  0.83391033  0.66551219  0.00031632  1
  Te  Te160  1  0.83099786  0.66982104  0.33836704  1
  Te  Te161  1  0.83330039  0.66128005  0.65971971  1
  Te  Te162  1  -0.00313426  0.16410283  -0.00300676  1
  Te  Te163  1  -0.00312615  0.16640385  0.33196620  1
  Te  Te164  1  0.00084596  0.16786870  0.67292349  1
  Te  Te165  1  -0.00190739  0.49896855  -0.00249076  1
  Te  Te166  1  0.00352141  0.49832511  0.33497891  1
  Te  Te167  1  -0.00198252  0.49841151  0.67076036  1
  Te  Te168  1  -0.00079996  0.83532202  0.00029226  1
  Te  Te169  1  -0.00024286  0.83472615  0.33427496  1
  Te  Te170  1  0.00112672  0.83562492  0.66119137  1
  Te  Te171  1  0.33389116  0.16509909  -0.00274135  1
  Te  Te172  1  0.33234159  0.16748776  0.33743217  1
  Te  Te173  1  0.33331885  0.17358453  0.66699473  1
  Te  Te174  1  0.33232390  0.49824335  -0.00383425  1
  Te  Te175  1  0.32712323  0.50415023  0.33263336  1
  Te  Te176  1  0.32981615  0.49823872  0.66834643  1
  Te  Te177  1  0.33405441  0.83395772  -0.00204239  1
  Te  Te178  1  0.33515161  0.83029435  0.33574847  1
  Te  Te179  1  0.33339309  0.83090089  0.66762149  1
  Te  Te180  1  0.67137686  0.16767731  0.00227216  1
  Te  Te181  1  0.67328636  0.16777498  0.32700125  1
  Te  Te182  1  0.66617855  0.16759291  0.66485047  1
  Te  Te183  1  0.66925186  0.50073754  -0.00358485  1
  Te  Te184  1  0.66690468  0.50687836  0.33155161  1
  Te  Te185  1  0.67542548  0.50101148  0.67341712  1
  Te  Te186  1  0.66325612  0.82670819  0.00039077  1
  Te  Te187  1  0.66676115  0.82936920  0.33546193  1
  Te  Te188  1  0.66621116  0.83134339  0.65787537  1
  Te  Te189  1  0.00024938  -0.00278750  0.16755461  1
  Te  Te190  1  0.00304149  -0.00198812  0.49775743  1
  Te  Te191  1  0.00434225  -0.00031132  0.83411770  1
  Te  Te192  1  -0.00005923  0.33697837  0.17547624  1
  Te  Te193  1  -0.00272718  0.33179312  0.50333073  1
  Te  Te194  1  0.00043311  0.33116806  0.83229282  1
  Te  Te195  1  -0.00010565  0.66708134  0.16252341  1
  Te  Te196  1  0.00140745  0.67138485  0.50058964  1
  Te  Te197  1  0.00010095  0.66563198  0.83874048  1
  Te  Te198  1  0.33958911  -0.00077847  0.16277739  1
  Te  Te199  1  0.32998469  -0.00235842  0.50237327  1
  Te  Te200  1  0.33028387  0.00148223  0.83169621  1
  Te  Te201  1  0.33283122  0.33353608  0.16127671  1
  Te  Te202  1  0.33413991  0.33402620  0.50255539  1
  Te  Te203  1  0.33392173  0.33133493  0.83172032  1
  Te  Te204  1  0.33914762  0.66627795  0.17129964  1
  Te  Te205  1  0.33321975  0.66679232  0.50040733  1
  Te  Te206  1  0.33253860  0.66445269  0.82897632  1
  Te  Te207  1  0.65994592  0.00399375  0.16739425  1
  Te  Te208  1  0.66227066  -0.00504685  0.50037153  1
  Te  Te209  1  0.66447914  -0.00079195  0.83170795  1
  Te  Te210  1  0.66699529  0.32966865  0.16000301  1
  Te  Te211  1  0.66836378  0.33357341  0.49935060  1
  Te  Te212  1  0.67103022  0.33858859  0.83882582  1
  Te  Te213  1  0.66286385  0.66678886  0.16566804  1
  Te  Te214  1  0.66890200  0.66999968  0.49766120  1
  Te  Te215  1  0.66603762  0.66147456  0.83803160  1
