# generated using pymatgen
data_AgSbTe2
_symmetry_space_group_name_H-M   'P 1'
_cell_length_a   18.35204637
_cell_length_b   18.34443185
_cell_length_c   18.35017824
_cell_angle_alpha   89.99777397
_cell_angle_beta   90.00200271
_cell_angle_gamma   90.00028269
_symmetry_Int_Tables_number   1
_chemical_formula_structural   AgSbTe2
_chemical_formula_sum   'Ag54 Sb54 Te108'
_cell_volume   6177.73180023
_cell_formula_units_Z   54
loop_
 _symmetry_equiv_pos_site_id
 _symmetry_equiv_pos_as_xyz
  1  'x, y, z'
loop_
 _atom_site_type_symbol
 _atom_site_label
 _atom_site_symmetry_multiplicity
 _atom_site_fract_x
 _atom_site_fract_y
 _atom_site_fract_z
 _atom_site_occupancy
  Ag  Ag0  1  0.17693776  0.83114193  0.32454683  1
  Ag  Ag1  1  0.65901237  0.67098950  0.32567620  1
  Ag  Ag2  1  0.83340951  0.50211790  0.33113371  1
  Ag  Ag3  1  0.49650830  0.51148238  0.00028219  1
  Ag  Ag4  1  0.82861219  -0.00013302  0.16118184  1
  Ag  Ag5  1  0.00012692  0.50976158  0.83413941  1
  Ag  Ag6  1  0.49210670  -0.00800026  0.84224544  1
  Ag  Ag7  1  0.82923204  0.50467199  0.66791556  1
  Ag  Ag8  1  0.01263577  0.50150640  0.50005093  1
  Ag  Ag9  1  0.82407486  0.83166698  0.66879301  1
  Ag  Ag10  1  0.33481091  0.82546640  0.49979777  1
  Ag  Ag11  1  0.00394982  0.83176696  0.83534244  1
  Ag  Ag12  1  0.17623398  -0.00767858  0.16010964  1
  Ag  Ag13  1  0.17164591  0.15010129  0.00035462  1
  Ag  Ag14  1  0.33380423  0.67033843  -0.00340812  1
  Ag  Ag15  1  0.33554939  0.33434441  -0.00129103  1
  Ag  Ag16  1  0.65303664  0.34083711  0.00216126  1
  Ag  Ag17  1  0.66129513  -0.00648299  0.00155802  1
  Ag  Ag18  1  0.01451938  -0.00769371  0.00139238  1
  Ag  Ag19  1  0.17275623  0.34579531  0.49775524  1
  Ag  Ag20  1  0.65317000  0.67178329  0.00357749  1
  Ag  Ag21  1  0.33148452  0.15558675  0.15901627  1
  Ag  Ag22  1  0.49482738  0.66662366  0.50686766  1
  Ag  Ag23  1  0.66372232  0.83573517  0.16581503  1
  Ag  Ag24  1  0.49532762  0.83103494  0.33140047  1
  Ag  Ag25  1  0.65959366  -0.00845129  0.32043824  1
  Ag  Ag26  1  0.33681871  0.34331820  0.66665426  1
  Ag  Ag27  1  0.17322997  -0.00925683  0.84433107  1
  Ag  Ag28  1  0.01370648  0.67357577  -0.00401949  1
  Ag  Ag29  1  0.16838672  0.67523970  0.16209432  1
  Ag  Ag30  1  0.83317554  -0.00203415  0.84261108  1
  Ag  Ag31  1  0.49075147  0.34554430  0.50108911  1
  Ag  Ag32  1  0.49426691  0.67069224  0.83802510  1
  Ag  Ag33  1  0.17597116  0.83353031  0.00412713  1
  Ag  Ag34  1  0.49813102  0.51076072  0.66124955  1
  Ag  Ag35  1  0.17453839  0.66482678  0.49307305  1
  Ag  Ag36  1  0.82783087  0.50210915  0.00254837  1
  Ag  Ag37  1  0.33736536  -0.00770534  0.67733024  1
  Ag  Ag38  1  0.33259045  0.50566453  0.49482906  1
  Ag  Ag39  1  0.00747029  -0.00392511  0.32232658  1
  Ag  Ag40  1  0.33078421  -0.00286880  0.00021163  1
  Ag  Ag41  1  0.65673417  -0.00435064  0.67640964  1
  Ag  Ag42  1  0.17435974  0.67112467  0.84353656  1
  Ag  Ag43  1  0.49848797  0.83032779  0.67358086  1
  Ag  Ag44  1  0.83000335  0.33931447  0.16195419  1
  Ag  Ag45  1  0.49283045  0.51120176  0.33625764  1
  Ag  Ag46  1  0.33708534  0.66830780  0.66280370  1
  Ag  Ag47  1  0.33308307  -0.00385141  0.31997280  1
  Ag  Ag48  1  0.17532505  0.51009958  0.33603255  1
  Ag  Ag49  1  0.49479816  0.83203964  -0.00054958  1
  Ag  Ag50  1  0.33165156  0.15973516  0.84000504  1
  Ag  Ag51  1  0.33455263  0.50012643  0.17038820  1
  Ag  Ag52  1  0.00197841  0.16784208  0.49877452  1
  Ag  Ag53  1  0.49478343  -0.00361265  0.15932059  1
  Sb  Sb54  1  0.65938724  0.33274121  0.67059540  1
  Sb  Sb55  1  0.00267647  -0.00305188  0.67092256  1
  Sb  Sb56  1  0.33231450  0.83581471  0.83474865  1
  Sb  Sb57  1  0.00102259  0.33292711  0.33373749  1
  Sb  Sb58  1  0.65964298  0.83270318  0.49741513  1
  Sb  Sb59  1  0.00726029  0.82963251  0.50400052  1
  Sb  Sb60  1  0.49672055  0.33690876  0.83450615  1
  Sb  Sb61  1  0.83205010  0.66438548  0.50065002  1
  Sb  Sb62  1  0.83559365  0.66825849  0.16391833  1
  Sb  Sb63  1  0.16990649  -0.00319802  0.49861950  1
  Sb  Sb64  1  0.00294235  0.50100982  0.16576092  1
  Sb  Sb65  1  0.83620163  0.16494378  0.00112046  1
  Sb  Sb66  1  0.00682264  0.66561331  0.67050927  1
  Sb  Sb67  1  0.66675386  0.50246985  0.83722958  1
  Sb  Sb68  1  0.33517795  0.67078570  0.33358972  1
  Sb  Sb69  1  0.66653484  0.16412615  0.49977437  1
  Sb  Sb70  1  0.16710225  0.33332245  0.16874980  1
  Sb  Sb71  1  0.65851410  0.67019030  0.66946385  1
  Sb  Sb72  1  0.49744833  0.16055340  0.33275965  1
  Sb  Sb73  1  0.16956456  0.16572039  0.66846982  1
  Sb  Sb74  1  0.17090429  0.50702213  0.00329378  1
  Sb  Sb75  1  0.00022570  0.83529122  0.16186951  1
  Sb  Sb76  1  0.83418862  0.16402886  0.66787968  1
  Sb  Sb77  1  0.83368904  0.67030038  0.83492478  1
  Sb  Sb78  1  0.49660136  0.16076888  0.66756011  1
  Sb  Sb79  1  0.17178863  0.50259146  0.66266332  1
  Sb  Sb80  1  0.00596444  0.16126989  0.83303944  1
  Sb  Sb81  1  0.33614074  0.83233521  0.16824783  1
  Sb  Sb82  1  0.66020144  0.16064246  0.83656625  1
  Sb  Sb83  1  0.83082149  0.83213349  0.33632190  1
  Sb  Sb84  1  0.33103448  0.16867124  0.49992237  1
  Sb  Sb85  1  0.66589207  0.83382264  0.83797007  1
  Sb  Sb86  1  0.00183513  0.66863690  0.33081024  1
  Sb  Sb87  1  0.16819886  0.16128525  0.33084266  1
  Sb  Sb88  1  0.66497541  0.33705529  0.32851333  1
  Sb  Sb89  1  0.33382969  0.33415408  0.33318558  1
  Sb  Sb90  1  0.83198861  0.83378196  -0.00355934  1
  Sb  Sb91  1  0.50137103  0.33214325  0.16556983  1
  Sb  Sb92  1  0.66255105  0.15887872  0.16398924  1
  Sb  Sb93  1  0.83285850  0.33375497  0.83778883  1
  Sb  Sb94  1  0.49715959  -0.00546145  0.49994898  1
  Sb  Sb95  1  0.65907198  0.50189969  0.49838730  1
  Sb  Sb96  1  0.00441393  0.33454443  0.00002151  1
  Sb  Sb97  1  0.83394428  0.16724161  0.33133621  1
  Sb  Sb98  1  0.33197927  0.50323645  0.83348021  1
  Sb  Sb99  1  0.49250706  0.67223066  0.16344892  1
  Sb  Sb100  1  0.66237420  0.50614903  0.16496935  1
  Sb  Sb101  1  0.83344860  -0.00111503  0.49918870  1
  Sb  Sb102  1  0.00461544  0.16152867  0.16829473  1
  Sb  Sb103  1  0.17415299  0.83164454  0.67042637  1
  Sb  Sb104  1  0.83426235  0.33843318  0.49693077  1
  Sb  Sb105  1  0.49212267  0.15739794  -0.00082894  1
  Sb  Sb106  1  0.17001601  0.33681220  0.83186037  1
  Sb  Sb107  1  0.00467724  0.33787065  0.66393574  1
  Te  Te108  1  0.17182963  0.16637883  0.16335749  1
  Te  Te109  1  0.16232562  0.16788861  0.49947432  1
  Te  Te110  1  0.17072843  0.16621549  0.83754854  1
  Te  Te111  1  0.16979830  0.49916932  0.17368551  1
  Te  Te112  1  0.17058977  0.50274351  0.49971833  1
  Te  Te113  1  0.16062212  0.50568193  0.83208247  1
  Te  Te114  1  0.16370838  0.83529956  0.16577667  1
  Te  Te115  1  0.17181166  0.82797168  0.49877473  1
  Te  Te116  1  0.16388114  0.83180484  0.83527455  1
  Te  Te117  1  0.49243411  0.16076630  0.16799677  1
  Te  Te118  1  0.50149435  0.17970859  0.49990367  1
  Te  Te119  1  0.49234432  0.15862799  0.83232127  1
  Te  Te120  1  0.49609968  0.49820580  0.16513865  1
  Te  Te121  1  0.49701528  0.50411749  0.49951964  1
  Te  Te122  1  0.50015848  0.50587587  0.83775791  1
  Te  Te123  1  0.50244932  0.83657677  0.16803407  1
  Te  Te124  1  0.49489687  0.82812135  0.49486708  1
  Te  Te125  1  0.50175901  0.83323907  0.83460926  1
  Te  Te126  1  0.83329441  0.16161991  0.16688913  1
  Te  Te127  1  0.84079377  0.16977811  0.50042147  1
  Te  Te128  1  0.83449321  0.15999282  0.83229237  1
  Te  Te129  1  0.83196694  0.49961376  0.16480397  1
  Te  Te130  1  0.83487859  0.49982954  0.49913546  1
  Te  Te131  1  0.83648737  0.49903792  0.83520873  1
  Te  Te132  1  0.82841794  0.83908266  0.16855238  1
  Te  Te133  1  0.83537546  0.83182779  0.50891465  1
  Te  Te134  1  0.83535907  0.83764232  0.82902596  1
  Te  Te135  1  0.16905610  -0.00481400  0.00065894  1
  Te  Te136  1  0.16707512  -0.00450713  0.33104046  1
  Te  Te137  1  0.17182341  -0.00103742  0.66997434  1
  Te  Te138  1  0.17536762  0.33605581  0.00012126  1
  Te  Te139  1  0.16666434  0.33755644  0.33809566  1
  Te  Te140  1  0.17512796  0.33320393  0.66202050  1
  Te  Te141  1  0.16960057  0.66937516  0.00140550  1
  Te  Te142  1  0.16542077  0.66996908  0.33208361  1
  Te  Te143  1  0.17549455  0.66755714  0.66693328  1
  Te  Te144  1  0.50048497  -0.00310187  -0.00066919  1
  Te  Te145  1  0.49904772  -0.00491566  0.33409043  1
  Te  Te146  1  0.49869224  -0.00603860  0.66559471  1
  Te  Te147  1  0.49642309  0.33721678  0.00003121  1
  Te  Te148  1  0.50237130  0.33829472  0.33574019  1
  Te  Te149  1  0.49620444  0.33779798  0.66692640  1
  Te  Te150  1  0.49596454  0.66993070  0.00123319  1
  Te  Te151  1  0.50079018  0.66849987  0.32882382  1
  Te  Te152  1  0.49887799  0.66909864  0.66696432  1
  Te  Te153  1  0.82364981  0.00027415  0.00076957  1
  Te  Te154  1  0.83250479  0.00052638  0.33131988  1
  Te  Te155  1  0.83397896  -0.00333359  0.66687915  1
  Te  Te156  1  0.83821436  0.33658380  0.00336770  1
  Te  Te157  1  0.83241770  0.33797816  0.32788982  1
  Te  Te158  1  0.83021424  0.33825521  0.66690301  1
  Te  Te159  1  0.83202606  0.66171417  -0.00117799  1
  Te  Te160  1  0.83345286  0.66215901  0.33230806  1
  Te  Te161  1  0.82928054  0.66581611  0.66770253  1
  Te  Te162  1  0.00846208  0.16225963  -0.00108170  1
  Te  Te163  1  0.00112132  0.16066201  0.33894424  1
  Te  Te164  1  0.00055665  0.16919020  0.66010621  1
  Te  Te165  1  0.00010344  0.50231179  -0.00245493  1
  Te  Te166  1  -0.00218581  0.50053788  0.33681032  1
  Te  Te167  1  -0.00589202  0.50070434  0.66740805  1
  Te  Te168  1  -0.00243150  0.83305725  -0.00367767  1
  Te  Te169  1  0.00017157  0.83848181  0.33616207  1
  Te  Te170  1  -0.00318596  0.83106147  0.67213423  1
  Te  Te171  1  0.33311646  0.16527842  0.00053840  1
  Te  Te172  1  0.33329098  0.15889342  0.32875548  1
  Te  Te173  1  0.33390183  0.16240621  0.66875538  1
  Te  Te174  1  0.33642784  0.50048338  -0.00229181  1
  Te  Te175  1  0.33392256  0.49849765  0.33346620  1
  Te  Te176  1  0.33843368  0.50152823  0.66676432  1
  Te  Te177  1  0.33435677  0.83305721  0.00220641  1
  Te  Te178  1  0.33393533  0.83616080  0.33485954  1
  Te  Te179  1  0.33751078  0.83139862  0.66140255  1
  Te  Te180  1  0.66813834  0.16856704  -0.00031854  1
  Te  Te181  1  0.66594836  0.15778754  0.33370168  1
  Te  Te182  1  0.66660435  0.15860507  0.66764551  1
  Te  Te183  1  0.66568775  0.50072908  0.00191081  1
  Te  Te184  1  0.66864701  0.50373015  0.33096008  1
  Te  Te185  1  0.66648045  0.49884008  0.66709313  1
  Te  Te186  1  0.66675780  0.83195086  0.00396142  1
  Te  Te187  1  0.66644673  0.83232895  0.33144702  1
  Te  Te188  1  0.66333612  0.83680056  0.66437873  1
  Te  Te189  1  -0.00197172  0.00054869  0.16382868  1
  Te  Te190  1  0.00093113  -0.00029617  0.50084376  1
  Te  Te191  1  0.00086115  -0.00261015  0.83709183  1
  Te  Te192  1  -0.00803857  0.33154108  0.16629199  1
  Te  Te193  1  0.00349790  0.33899182  0.49984700  1
  Te  Te194  1  0.00098460  0.33705436  0.83182651  1
  Te  Te195  1  0.00668909  0.66705367  0.15978323  1
  Te  Te196  1  0.00340955  0.66068394  0.50065219  1
  Te  Te197  1  -0.00039651  0.66842074  0.83620938  1
  Te  Te198  1  0.33372349  -0.00406378  0.16335089  1
  Te  Te199  1  0.33379805  0.00130985  0.50520298  1
  Te  Te200  1  0.33279386  -0.00210741  0.83622497  1
  Te  Te201  1  0.33329319  0.33966965  0.16321817  1
  Te  Te202  1  0.33251703  0.33358842  0.50012752  1
  Te  Te203  1  0.33339141  0.32798648  0.83311812  1
  Te  Te204  1  0.32762852  0.65954181  0.16107549  1
  Te  Te205  1  0.33470598  0.66576853  0.49737178  1
  Te  Te206  1  0.33323173  0.66648667  0.83459686  1
  Te  Te207  1  0.66507873  -0.00174123  0.16440435  1
  Te  Te208  1  0.66637797  0.00013504  0.50177948  1
  Te  Te209  1  0.66910808  0.00014707  0.83424671  1
  Te  Te210  1  0.67088439  0.33101993  0.16078527  1
  Te  Te211  1  0.66305504  0.33187831  0.50098645  1
  Te  Te212  1  0.66555226  0.33073888  0.84190865  1
  Te  Te213  1  0.66956707  0.67296244  0.16499283  1
  Te  Te214  1  0.66296111  0.66737504  0.49487267  1
  Te  Te215  1  0.65894514  0.66674760  0.84049870  1
