# generated using pymatgen
data_AgSbTe2
_symmetry_space_group_name_H-M   'P 1'
_cell_length_a   18.34313200
_cell_length_b   18.34990670
_cell_length_c   18.34098221
_cell_angle_alpha   90.00061258
_cell_angle_beta   90.00181421
_cell_angle_gamma   89.99555643
_symmetry_Int_Tables_number   1
_chemical_formula_structural   AgSbTe2
_chemical_formula_sum   'Ag54 Sb54 Te108'
_cell_volume   6173.47849765
_cell_formula_units_Z   54
loop_
 _symmetry_equiv_pos_site_id
 _symmetry_equiv_pos_as_xyz
  1  'x, y, z'
loop_
 _atom_site_type_symbol
 _atom_site_label
 _atom_site_symmetry_multiplicity
 _atom_site_fract_x
 _atom_site_fract_y
 _atom_site_fract_z
 _atom_site_occupancy
  Ag  Ag0  1  -0.00986768  0.16602104  0.50507409  1
  Ag  Ag1  1  0.49751104  0.67177662  0.17021433  1
  Ag  Ag2  1  0.84405585  0.66439601  0.84220760  1
  Ag  Ag3  1  -0.00306238  0.82269549  0.83909305  1
  Ag  Ag4  1  0.83199791  0.00372481  0.50186365  1
  Ag  Ag5  1  0.66608207  -0.00158077  0.00986766  1
  Ag  Ag6  1  0.15770458  0.50751678  -0.00297202  1
  Ag  Ag7  1  0.15604659  0.66618774  0.82860873  1
  Ag  Ag8  1  0.50652668  0.83249429  0.32647965  1
  Ag  Ag9  1  -0.00586297  0.50706351  0.50645261  1
  Ag  Ag10  1  0.50911409  -0.00604487  0.49970839  1
  Ag  Ag11  1  0.16193918  -0.01168508  0.16428402  1
  Ag  Ag12  1  0.67134003  0.15703374  0.16988070  1
  Ag  Ag13  1  0.83790173  0.66587038  0.49982987  1
  Ag  Ag14  1  -0.00451626  0.83285152  0.16237259  1
  Ag  Ag15  1  -0.01006664  -0.00227446  0.33576904  1
  Ag  Ag16  1  0.67097012  -0.00092778  0.33059008  1
  Ag  Ag17  1  0.50538769  0.83480304  0.00818799  1
  Ag  Ag18  1  0.67205376  0.17071566  0.49333578  1
  Ag  Ag19  1  0.50109969  0.66514116  0.49872461  1
  Ag  Ag20  1  0.83895452  0.67217702  0.15921535  1
  Ag  Ag21  1  0.51213267  0.34363300  0.49528492  1
  Ag  Ag22  1  0.33720965  -0.00240934  0.00306855  1
  Ag  Ag23  1  0.83438211  0.82944810  0.00666949  1
  Ag  Ag24  1  0.15608753  0.16531530  0.00214133  1
  Ag  Ag25  1  0.15516858  0.66392627  0.50806392  1
  Ag  Ag26  1  0.83032812  0.33144188  0.50196246  1
  Ag  Ag27  1  -0.00716501  0.15886709  0.16144279  1
  Ag  Ag28  1  0.33518702  0.66775424  0.33147036  1
  Ag  Ag29  1  0.83911635  0.50790685  -0.00715857  1
  Ag  Ag30  1  0.83693233  0.34469154  0.83232832  1
  Ag  Ag31  1  0.49757051  0.82617969  0.65804281  1
  Ag  Ag32  1  -0.00206575  0.51156257  0.83350718  1
  Ag  Ag33  1  0.33962182  0.82987075  0.16534742  1
  Ag  Ag34  1  0.49848935  0.50828760  0.66008946  1
  Ag  Ag35  1  0.15825270  0.82584475  0.66707749  1
  Ag  Ag36  1  0.83027782  0.83364086  0.32592913  1
  Ag  Ag37  1  0.00165850  0.66999165  0.67817824  1
  Ag  Ag38  1  0.16289221  0.67041135  0.16581150  1
  Ag  Ag39  1  0.66773735  0.49603762  0.50272829  1
  Ag  Ag40  1  0.50287722  0.33720799  0.16989733  1
  Ag  Ag41  1  0.83737443  -0.00236730  0.83132820  1
  Ag  Ag42  1  0.16055277  0.50824820  0.66830832  1
  Ag  Ag43  1  0.50168787  0.15643772  0.00206093  1
  Ag  Ag44  1  -0.00550196  0.16524070  0.83864731  1
  Ag  Ag45  1  0.33406860  0.51257126  0.16792858  1
  Ag  Ag46  1  0.66856449  0.83592540  0.16647257  1
  Ag  Ag47  1  0.68102154  0.50097817  0.83129528  1
  Ag  Ag48  1  0.83574393  0.16315314  0.66241366  1
  Ag  Ag49  1  0.66727789  0.32714862  0.33624060  1
  Ag  Ag50  1  -0.00241485  0.34360542  -0.00082369  1
  Ag  Ag51  1  -0.00238514  -0.00771237  0.66546627  1
  Ag  Ag52  1  -0.00168792  0.66352369  -0.00947243  1
  Ag  Ag53  1  0.34090847  0.50476618  0.49800698  1
  Sb  Sb54  1  0.33696481  0.17239246  0.49993193  1
  Sb  Sb55  1  0.67475599  0.16939258  0.83466176  1
  Sb  Sb56  1  0.51077370  0.33534097  0.83360141  1
  Sb  Sb57  1  0.32893961  -0.00381155  0.66857805  1
  Sb  Sb58  1  0.66432128  0.67089765  0.33378410  1
  Sb  Sb59  1  -0.00775244  0.32805807  0.33148798  1
  Sb  Sb60  1  0.67475476  0.82998383  0.83886288  1
  Sb  Sb61  1  0.15599395  0.33960720  0.83628733  1
  Sb  Sb62  1  0.34324820  0.34117101  0.33185716  1
  Sb  Sb63  1  0.32728018  0.67096809  0.00849528  1
  Sb  Sb64  1  0.50070643  0.50389977  -0.00047887  1
  Sb  Sb65  1  -0.00382523  -0.00411459  0.00035619  1
  Sb  Sb66  1  -0.00313527  0.33695766  0.67151890  1
  Sb  Sb67  1  0.15982208  0.34167794  0.50197396  1
  Sb  Sb68  1  0.50158787  0.50806377  0.33961468  1
  Sb  Sb69  1  0.50210364  0.66778464  0.83285134  1
  Sb  Sb70  1  0.83039890  0.33835624  0.16667555  1
  Sb  Sb71  1  0.33055769  0.33174362  0.00198572  1
  Sb  Sb72  1  0.83550484  0.50055403  0.66864706  1
  Sb  Sb73  1  0.83497080  0.16314692  -0.00157903  1
  Sb  Sb74  1  0.66644947  0.83401396  0.49489140  1
  Sb  Sb75  1  0.00256140  0.50438884  0.16294151  1
  Sb  Sb76  1  0.15456911  0.16506461  0.67162879  1
  Sb  Sb77  1  0.16189081  0.83145896  0.00144132  1
  Sb  Sb78  1  -0.00219100  0.83192441  0.50068033  1
  Sb  Sb79  1  0.33559274  0.33718236  0.66444322  1
  Sb  Sb80  1  0.15663692  -0.00555803  0.83923143  1
  Sb  Sb81  1  0.16356772  0.83049628  0.33294551  1
  Sb  Sb82  1  0.33515059  0.16303455  0.16463512  1
  Sb  Sb83  1  0.67341179  -0.00168949  0.66295159  1
  Sb  Sb84  1  0.16222520  -0.00456304  0.49661708  1
  Sb  Sb85  1  0.67022988  0.33638180  0.65818471  1
  Sb  Sb86  1  0.32559085  0.66690014  0.66011650  1
  Sb  Sb87  1  0.83520927  0.83443905  0.66676723  1
  Sb  Sb88  1  0.32828169  0.83163546  0.83896714  1
  Sb  Sb89  1  0.32737833  0.50293691  0.83413062  1
  Sb  Sb90  1  0.16915548  0.33694366  0.16537612  1
  Sb  Sb91  1  0.50770867  0.16663006  0.66642598  1
  Sb  Sb92  1  0.83272071  0.50644583  0.33491594  1
  Sb  Sb93  1  0.50187078  -0.00518480  0.16707368  1
  Sb  Sb94  1  0.00047903  0.67080191  0.33207986  1
  Sb  Sb95  1  0.33643885  0.82601495  0.49332164  1
  Sb  Sb96  1  0.67406197  0.67053078  0.00168434  1
  Sb  Sb97  1  0.67173734  0.33008291  0.00483378  1
  Sb  Sb98  1  0.16655326  0.50383197  0.33373588  1
  Sb  Sb99  1  0.83554241  -0.00637649  0.16822340  1
  Sb  Sb100  1  0.83117513  0.15809364  0.33858802  1
  Sb  Sb101  1  0.50373095  0.16148994  0.32904260  1
  Sb  Sb102  1  0.66338666  0.50340576  0.16783148  1
  Sb  Sb103  1  0.32528255  0.16513796  0.83697004  1
  Sb  Sb104  1  0.33650985  -0.00814170  0.32861269  1
  Sb  Sb105  1  0.67245388  0.66640507  0.66447573  1
  Sb  Sb106  1  0.16219726  0.16345431  0.32779332  1
  Sb  Sb107  1  0.50797935  -0.00182469  0.83266541  1
  Te  Te108  1  0.16605543  0.16888925  0.16040847  1
  Te  Te109  1  0.16501084  0.16784057  0.50148537  1
  Te  Te110  1  0.15796480  0.16711922  0.84006869  1
  Te  Te111  1  0.17071068  0.50407055  0.16263493  1
  Te  Te112  1  0.16423130  0.50447021  0.50185033  1
  Te  Te113  1  0.16153245  0.50466415  0.83466809  1
  Te  Te114  1  0.16105367  0.83107731  0.16666260  1
  Te  Te115  1  0.16849489  0.82577601  0.50475456  1
  Te  Te116  1  0.16097638  0.82800806  0.82989673  1
  Te  Te117  1  0.50331987  0.16670012  0.16216675  1
  Te  Te118  1  0.50433810  0.16577323  0.50080455  1
  Te  Te119  1  0.50084985  0.16749093  0.83838593  1
  Te  Te120  1  0.49712827  0.50397290  0.16598874  1
  Te  Te121  1  0.50219009  0.50187228  0.50023377  1
  Te  Te122  1  0.49841420  0.49970995  0.82741360  1
  Te  Te123  1  0.50186037  0.83442600  0.16641859  1
  Te  Te124  1  0.50038949  0.83153909  0.49967374  1
  Te  Te125  1  0.50020018  0.83355761  0.83639502  1
  Te  Te126  1  0.83181461  0.16952037  0.16630483  1
  Te  Te127  1  0.83271038  0.16398083  0.49966506  1
  Te  Te128  1  0.83639258  0.16163363  0.83167002  1
  Te  Te129  1  0.83340831  0.50808671  0.16293896  1
  Te  Te130  1  0.83241049  0.50187288  0.50189089  1
  Te  Te131  1  0.83839191  0.50273608  0.83155262  1
  Te  Te132  1  0.83367012  0.83193729  0.16605452  1
  Te  Te133  1  0.83208386  0.83100519  0.49910728  1
  Te  Te134  1  0.83780524  0.83028346  0.83313438  1
  Te  Te135  1  0.16868704  0.00079473  0.00344009  1
  Te  Te136  1  0.16474138  -0.00198261  0.32683918  1
  Te  Te137  1  0.16028565  -0.00434100  0.66676725  1
  Te  Te138  1  0.16236616  0.33045338  0.00038530  1
  Te  Te139  1  0.16795497  0.33224127  0.33390592  1
  Te  Te140  1  0.16757949  0.34036948  0.66826637  1
  Te  Te141  1  0.16183336  0.66642912  0.00543769  1
  Te  Te142  1  0.17238202  0.66759853  0.32808502  1
  Te  Te143  1  0.16335987  0.66577347  0.66494664  1
  Te  Te144  1  0.50380141  -0.00291736  -0.00084438  1
  Te  Te145  1  0.50333211  -0.00489320  0.33909392  1
  Te  Te146  1  0.49793010  -0.00136440  0.66222479  1
  Te  Te147  1  0.49972809  0.33409588  0.00315588  1
  Te  Te148  1  0.50656606  0.33046441  0.33429632  1
  Te  Te149  1  0.50119137  0.33535688  0.66069711  1
  Te  Te150  1  0.49956211  0.67234426  0.00203991  1
  Te  Te151  1  0.49892986  0.67292530  0.33208705  1
  Te  Te152  1  0.49978005  0.66678929  0.66558976  1
  Te  Te153  1  0.82906234  -0.00432424  -0.00287969  1
  Te  Te154  1  0.83190630  -0.00647187  0.33642783  1
  Te  Te155  1  0.83851985  0.00082290  0.66356437  1
  Te  Te156  1  0.83752386  0.33577227  -0.00144620  1
  Te  Te157  1  0.82809556  0.33570050  0.33779901  1
  Te  Te158  1  0.83469785  0.32614106  0.66505897  1
  Te  Te159  1  0.83584196  0.66812820  0.00028000  1
  Te  Te160  1  0.83222816  0.67290733  0.33720482  1
  Te  Te161  1  0.83921387  0.66779086  0.65964828  1
  Te  Te162  1  -0.00125998  0.16146360  0.00254705  1
  Te  Te163  1  -0.00091374  0.16008946  0.33004809  1
  Te  Te164  1  -0.00379466  0.16600575  0.66376266  1
  Te  Te165  1  -0.00082068  0.50177229  0.00074269  1
  Te  Te166  1  -0.00015736  0.49675090  0.34235054  1
  Te  Te167  1  0.00155376  0.50286152  0.66709836  1
  Te  Te168  1  -0.00305239  0.83022961  -0.00006676  1
  Te  Te169  1  -0.00340980  0.83799962  0.32937022  1
  Te  Te170  1  -0.00006639  0.83210700  0.66705592  1
  Te  Te171  1  0.33849904  0.16165744  -0.00014119  1
  Te  Te172  1  0.33202213  0.16655308  0.33341944  1
  Te  Te173  1  0.33119890  0.16647072  0.66800948  1
  Te  Te174  1  0.33002456  0.49953781  0.00388642  1
  Te  Te175  1  0.33372612  0.50654059  0.33206454  1
  Te  Te176  1  0.33427989  0.50124305  0.66279414  1
  Te  Te177  1  0.33603082  0.83681983  0.00538241  1
  Te  Te178  1  0.33744198  0.82854008  0.32628308  1
  Te  Te179  1  0.33717054  0.83403123  0.66858756  1
  Te  Te180  1  0.66393381  0.16238095  0.00286034  1
  Te  Te181  1  0.66597862  0.16255395  0.33201715  1
  Te  Te182  1  0.67338106  0.16623552  0.66256913  1
  Te  Te183  1  0.67006354  0.49898137  -0.00319197  1
  Te  Te184  1  0.66728778  0.49364693  0.33835210  1
  Te  Te185  1  0.66169891  0.50122260  0.66549253  1
  Te  Te186  1  0.66802109  0.83629749  0.00384974  1
  Te  Te187  1  0.66735985  0.83648479  0.32960029  1
  Te  Te188  1  0.65641430  0.83316336  0.66916612  1
  Te  Te189  1  0.00104344  -0.00031013  0.16673680  1
  Te  Te190  1  -0.00105508  0.00103552  0.49926610  1
  Te  Te191  1  -0.00416942  0.00411766  0.83142327  1
  Te  Te192  1  -0.00043349  0.33074513  0.16288925  1
  Te  Te193  1  -0.00643235  0.32749936  0.49924431  1
  Te  Te194  1  -0.00631579  0.32713902  0.83827047  1
  Te  Te195  1  -0.00154621  0.66889453  0.16813559  1
  Te  Te196  1  -0.00044688  0.66568786  0.49653031  1
  Te  Te197  1  0.00019018  0.66696663  0.83383423  1
  Te  Te198  1  0.32800310  -0.00409019  0.16317168  1
  Te  Te199  1  0.33530935  0.00166535  0.49861655  1
  Te  Te200  1  0.33344915  -0.00025154  0.84119190  1
  Te  Te201  1  0.34208003  0.33528469  0.16736551  1
  Te  Te202  1  0.33673881  0.34123073  0.49742348  1
  Te  Te203  1  0.33535033  0.33356912  0.83338134  1
  Te  Te204  1  0.33615967  0.66955320  0.16806520  1
  Te  Te205  1  0.34155593  0.66228843  0.49545477  1
  Te  Te206  1  0.32720873  0.66651505  0.83421028  1
  Te  Te207  1  0.66706772  -0.00116824  0.16875198  1
  Te  Te208  1  0.66849089  0.00024077  0.49806988  1
  Te  Te209  1  0.67548778  0.00027381  0.83429723  1
  Te  Te210  1  0.66273104  0.33410919  0.17187100  1
  Te  Te211  1  0.66889903  0.33236613  0.49724057  1
  Te  Te212  1  0.67628021  0.33888098  0.83485750  1
  Te  Te213  1  0.66474065  0.67131414  0.16752354  1
  Te  Te214  1  0.66444958  0.66298653  0.49934453  1
  Te  Te215  1  0.67132127  0.66025480  0.83274281  1
