# generated using pymatgen
data_AgSbTe2
_symmetry_space_group_name_H-M   'P 1'
_cell_length_a   18.33811318
_cell_length_b   18.33641378
_cell_length_c   18.33907992
_cell_angle_alpha   90.00061474
_cell_angle_beta   89.99856556
_cell_angle_gamma   90.00134664
_symmetry_Int_Tables_number   1
_chemical_formula_structural   AgSbTe2
_chemical_formula_sum   'Ag54 Sb54 Te108'
_cell_volume   6166.61155555
_cell_formula_units_Z   54
loop_
 _symmetry_equiv_pos_site_id
 _symmetry_equiv_pos_as_xyz
  1  'x, y, z'
loop_
 _atom_site_type_symbol
 _atom_site_label
 _atom_site_symmetry_multiplicity
 _atom_site_fract_x
 _atom_site_fract_y
 _atom_site_fract_z
 _atom_site_occupancy
  Ag  Ag0  1  0.31887778  0.50270936  0.15982009  1
  Ag  Ag1  1  0.00440204  0.50344774  0.84152207  1
  Ag  Ag2  1  0.83962390  0.50091852  0.32734449  1
  Ag  Ag3  1  0.16349450  -0.00677866  0.50199814  1
  Ag  Ag4  1  0.33122123  0.50592664  0.49936503  1
  Ag  Ag5  1  0.32789287  0.66316124  -0.00056179  1
  Ag  Ag6  1  0.83474373  0.33642951  0.84949877  1
  Ag  Ag7  1  -0.00424839  0.66313285  0.33778817  1
  Ag  Ag8  1  0.49370984  0.50196186  0.00282383  1
  Ag  Ag9  1  -0.00525394  0.34454329  0.32685849  1
  Ag  Ag10  1  0.84417856  0.49511705  0.00919044  1
  Ag  Ag11  1  0.67260928  0.83114477  0.83581805  1
  Ag  Ag12  1  0.51086970  0.33629968  0.16615726  1
  Ag  Ag13  1  -0.00569635  0.33795419  0.00696199  1
  Ag  Ag14  1  -0.00183995  0.16139325  0.49713615  1
  Ag  Ag15  1  0.67651305  0.33732120  0.32676400  1
  Ag  Ag16  1  0.84252902  0.66416748  0.48789902  1
  Ag  Ag17  1  0.15533833  0.34596749  0.16348549  1
  Ag  Ag18  1  0.68088490  0.65718576  0.33512028  1
  Ag  Ag19  1  0.84054642  0.49969072  0.66427888  1
  Ag  Ag20  1  0.83685754  0.81588087  0.33099390  1
  Ag  Ag21  1  0.16580718  0.66269557  0.83784173  1
  Ag  Ag22  1  0.50142442  0.16426825  0.66125325  1
  Ag  Ag23  1  0.16192048  0.17402563  -0.00018825  1
  Ag  Ag24  1  0.49990892  0.83130338  0.66772306  1
  Ag  Ag25  1  0.83798484  0.18211863  0.00946881  1
  Ag  Ag26  1  0.67080974  0.50401950  0.49640416  1
  Ag  Ag27  1  0.32266160  0.66296130  0.66912336  1
  Ag  Ag28  1  0.32206049  0.50174972  0.84025759  1
  Ag  Ag29  1  0.00395873  0.49864647  0.16505982  1
  Ag  Ag30  1  0.83505081  0.17364465  0.66359901  1
  Ag  Ag31  1  0.67294363  0.17470621  0.16870357  1
  Ag  Ag32  1  0.49257173  0.82642207  -0.00291923  1
  Ag  Ag33  1  0.49820553  0.66601150  0.50035966  1
  Ag  Ag34  1  0.83440060  0.33587348  0.16439718  1
  Ag  Ag35  1  0.16466619  0.50153589  0.00520773  1
  Ag  Ag36  1  0.16106175  0.66455016  0.50113333  1
  Ag  Ag37  1  -0.00279017  -0.00044855  0.33517553  1
  Ag  Ag38  1  0.68029867  0.33583639  0.00864818  1
  Ag  Ag39  1  0.00255948  0.82281236  0.83228475  1
  Ag  Ag40  1  0.32982353  0.17269748  0.83483929  1
  Ag  Ag41  1  0.83542032  0.01041020  0.17034616  1
  Ag  Ag42  1  0.50690520  0.16857238  0.33635698  1
  Ag  Ag43  1  0.84138558  0.65398299  0.17591187  1
  Ag  Ag44  1  0.00118998  0.82754662  0.49876697  1
  Ag  Ag45  1  0.15625216  0.50269010  0.32021732  1
  Ag  Ag46  1  0.00432580  0.66336825  0.65841341  1
  Ag  Ag47  1  0.16731895  0.81833261  -0.00093250  1
  Ag  Ag48  1  0.49584733  -0.00418182  0.49969979  1
  Ag  Ag49  1  0.16352265  0.65740435  0.16205063  1
  Ag  Ag50  1  0.16039692  0.50559355  0.66906283  1
  Ag  Ag51  1  0.83404426  0.17428267  0.32715220  1
  Ag  Ag52  1  0.16548482  -0.00847432  0.83387151  1
  Ag  Ag53  1  0.33190664  0.82212262  0.16322351  1
  Sb  Sb54  1  0.49837594  0.50164877  0.66783480  1
  Sb  Sb55  1  0.66981644  0.33452615  0.66544070  1
  Sb  Sb56  1  0.33392805  0.34063857  0.66873562  1
  Sb  Sb57  1  0.83311420  0.83003716  0.66382636  1
  Sb  Sb58  1  0.84012509  0.00392964  0.83751737  1
  Sb  Sb59  1  -0.00195532  0.34114765  0.66539139  1
  Sb  Sb60  1  0.67354977  0.00228212  0.33357939  1
  Sb  Sb61  1  0.33185171  -0.00648482  0.66747618  1
  Sb  Sb62  1  0.66928798  0.66517833  0.66233671  1
  Sb  Sb63  1  0.16072634  0.17131932  0.32920687  1
  Sb  Sb64  1  0.83747584  0.82830985  0.00454948  1
  Sb  Sb65  1  0.32943438  0.82592794  0.49747797  1
  Sb  Sb66  1  0.32742771  -0.00034827  0.33423283  1
  Sb  Sb67  1  0.33154153  0.33591290  0.33021419  1
  Sb  Sb68  1  0.00134600  -0.00436348  0.66284118  1
  Sb  Sb69  1  0.66633479  -0.00040039  0.66557990  1
  Sb  Sb70  1  0.00214257  0.17029824  0.83154883  1
  Sb  Sb71  1  0.66743206  0.00367873  0.00091331  1
  Sb  Sb72  1  0.50225097  0.49675921  0.32915405  1
  Sb  Sb73  1  0.00235691  0.82470415  0.16678383  1
  Sb  Sb74  1  0.16275253  0.34177719  0.49297812  1
  Sb  Sb75  1  0.50113641  0.33581376  0.49495219  1
  Sb  Sb76  1  0.16001902  -0.00175684  0.16682671  1
  Sb  Sb77  1  0.67376396  0.49422464  0.17064567  1
  Sb  Sb78  1  0.66664157  0.16522089  0.83672848  1
  Sb  Sb79  1  0.66336138  0.66015543  0.00549130  1
  Sb  Sb80  1  0.33534627  0.17167671  0.16187019  1
  Sb  Sb81  1  0.33051409  -0.00592234  -0.00043480  1
  Sb  Sb82  1  0.00009671  0.50503037  0.49551873  1
  Sb  Sb83  1  0.32913617  0.66309603  0.33206711  1
  Sb  Sb84  1  0.50486986  0.83378335  0.33394445  1
  Sb  Sb85  1  0.83656759  -0.00252759  0.49427263  1
  Sb  Sb86  1  0.67087988  0.50285263  0.83292629  1
  Sb  Sb87  1  0.83605766  0.34144975  0.49142674  1
  Sb  Sb88  1  0.32954792  0.34308029  0.00092400  1
  Sb  Sb89  1  0.66597328  0.83347932  0.16393698  1
  Sb  Sb90  1  0.16546902  0.17164871  0.67011400  1
  Sb  Sb91  1  0.50407467  0.33448056  0.83933000  1
  Sb  Sb92  1  0.15999018  0.34165959  0.84074540  1
  Sb  Sb93  1  0.16821675  0.82392570  0.66988449  1
  Sb  Sb94  1  0.00105492  0.00487462  0.00548300  1
  Sb  Sb95  1  0.66909415  0.82710438  0.50159446  1
  Sb  Sb96  1  0.00686070  0.65813016  0.00202913  1
  Sb  Sb97  1  0.84185180  0.66050812  0.83498654  1
  Sb  Sb98  1  0.49454816  0.66708294  0.83034195  1
  Sb  Sb99  1  -0.00685200  0.17636814  0.17191855  1
  Sb  Sb100  1  0.15969249  0.82557581  0.33085749  1
  Sb  Sb101  1  0.50046786  0.16991030  0.00125979  1
  Sb  Sb102  1  0.50343713  0.00353823  0.17098930  1
  Sb  Sb103  1  0.33130626  0.16986400  0.50348404  1
  Sb  Sb104  1  0.67159123  0.17166158  0.49389400  1
  Sb  Sb105  1  0.32854539  0.82726169  0.83697966  1
  Sb  Sb106  1  0.49826327  0.66038855  0.16982701  1
  Sb  Sb107  1  0.49418557  -0.00201221  0.82974338  1
  Te  Te108  1  0.16842822  0.16728516  0.16059158  1
  Te  Te109  1  0.16376641  0.16614244  0.50026667  1
  Te  Te110  1  0.16925185  0.16979705  0.83607502  1
  Te  Te111  1  0.16407342  0.50112855  0.16549478  1
  Te  Te112  1  0.16880326  0.50378211  0.50743887  1
  Te  Te113  1  0.16523458  0.50155781  0.83267371  1
  Te  Te114  1  0.17051705  0.83149447  0.16131478  1
  Te  Te115  1  0.16281053  0.83222746  0.49935834  1
  Te  Te116  1  0.16377127  0.83131222  0.83587293  1
  Te  Te117  1  0.50357646  0.17099489  0.16969814  1
  Te  Te118  1  0.49944983  0.16682325  0.50010773  1
  Te  Te119  1  0.49655094  0.16589014  0.82948296  1
  Te  Te120  1  0.49697781  0.49631356  0.16278151  1
  Te  Te121  1  0.49717567  0.50368141  0.50034218  1
  Te  Te122  1  0.49874935  0.49953977  0.83812118  1
  Te  Te123  1  0.49722014  0.83423978  0.16243464  1
  Te  Te124  1  0.49940936  0.83188335  0.50172920  1
  Te  Te125  1  0.49845082  0.83398480  0.83478265  1
  Te  Te126  1  0.83325998  0.17071840  0.16697112  1
  Te  Te127  1  0.83562189  0.16472808  0.50254638  1
  Te  Te128  1  0.83315788  0.17007942  0.83103653  1
  Te  Te129  1  0.83444049  0.49758716  0.16746243  1
  Te  Te130  1  0.83283507  0.50476829  0.50166074  1
  Te  Te131  1  0.83530487  0.49642188  0.83024718  1
  Te  Te132  1  0.83308904  0.83280913  0.17047451  1
  Te  Te133  1  0.83718560  0.82917107  0.49586652  1
  Te  Te134  1  0.83746779  0.83420236  0.83371644  1
  Te  Te135  1  0.16567661  0.00652727  -0.00278302  1
  Te  Te136  1  0.16027452  0.00103397  0.33850085  1
  Te  Te137  1  0.16678181  0.00167067  0.66466523  1
  Te  Te138  1  0.16384062  0.33537467  0.00361461  1
  Te  Te139  1  0.16136886  0.33897450  0.32583175  1
  Te  Te140  1  0.16634246  0.34136764  0.66625897  1
  Te  Te141  1  0.16796651  0.66278172  0.00160306  1
  Te  Te142  1  0.16351290  0.66240123  0.33401650  1
  Te  Te143  1  0.16564555  0.66488895  0.66528524  1
  Te  Te144  1  0.49965803  -0.00644528  0.00042275  1
  Te  Te145  1  0.49955898  0.00339775  0.33823826  1
  Te  Te146  1  0.49898252  0.00002779  0.66188057  1
  Te  Te147  1  0.50113164  0.33581251  0.00527433  1
  Te  Te148  1  0.50220669  0.32915855  0.32811190  1
  Te  Te149  1  0.50194983  0.32661252  0.66741017  1
  Te  Te150  1  0.49570510  0.66657868  0.00061491  1
  Te  Te151  1  0.50141000  0.66737801  0.33909111  1
  Te  Te152  1  0.50083251  0.66868453  0.66210611  1
  Te  Te153  1  0.83333477  0.00129064  0.00645700  1
  Te  Te154  1  0.83773263  0.01334187  0.33116911  1
  Te  Te155  1  0.83322707  0.00512180  0.66702806  1
  Te  Te156  1  0.83549077  0.33644230  0.00479008  1
  Te  Te157  1  0.83497244  0.33444112  0.33139642  1
  Te  Te158  1  0.83287503  0.33441433  0.66266351  1
  Te  Te159  1  0.83157014  0.65942663  0.00479194  1
  Te  Te160  1  0.83533433  0.66012017  0.33222637  1
  Te  Te161  1  0.83734856  0.66355952  0.66681109  1
  Te  Te162  1  -0.00081393  0.17223940  -0.00142480  1
  Te  Te163  1  -0.00124485  0.16360923  0.33647347  1
  Te  Te164  1  -0.00340920  0.16722657  0.66271861  1
  Te  Te165  1  0.00188545  0.49781168  0.00078069  1
  Te  Te166  1  -0.00084413  0.50183456  0.33393262  1
  Te  Te167  1  -0.00061237  0.50323114  0.66687169  1
  Te  Te168  1  0.00487943  0.83591870  -0.00511825  1
  Te  Te169  1  -0.00422142  0.83024709  0.33417481  1
  Te  Te170  1  -0.00006221  0.82779342  0.66646092  1
  Te  Te171  1  0.33149742  0.16563578  -0.00503126  1
  Te  Te172  1  0.33872565  0.16703491  0.33347618  1
  Te  Te173  1  0.33583828  0.16726234  0.67082444  1
  Te  Te174  1  0.33061878  0.50329096  -0.00000910  1
  Te  Te175  1  0.33136157  0.49974498  0.33522842  1
  Te  Te176  1  0.33439737  0.50526385  0.66743300  1
  Te  Te177  1  0.33063275  0.82832330  0.00173826  1
  Te  Te178  1  0.33392642  0.83381145  0.32515650  1
  Te  Te179  1  0.33953437  0.82557346  0.66648303  1
  Te  Te180  1  0.66990192  0.17154621  0.00401042  1
  Te  Te181  1  0.66802906  0.16962904  0.33010025  1
  Te  Te182  1  0.66682190  0.16704727  0.66633898  1
  Te  Te183  1  0.66179221  0.49529404  -0.00194807  1
  Te  Te184  1  0.66698326  0.49840007  0.33626838  1
  Te  Te185  1  0.67016979  0.49976987  0.66092348  1
  Te  Te186  1  0.66575876  0.83213619  -0.00394050  1
  Te  Te187  1  0.67452374  0.83134194  0.33272133  1
  Te  Te188  1  0.66171638  0.83244025  0.67243567  1
  Te  Te189  1  -0.00541500  -0.00331313  0.17302736  1
  Te  Te190  1  0.00185929  -0.00337045  0.49719527  1
  Te  Te191  1  0.00640743  -0.00128340  0.83280307  1
  Te  Te192  1  -0.00238990  0.33614299  0.16706805  1
  Te  Te193  1  0.00074049  0.32313463  0.49431544  1
  Te  Te194  1  -0.00613611  0.33842545  0.83387717  1
  Te  Te195  1  0.00155547  0.66197231  0.16985195  1
  Te  Te196  1  0.00103592  0.66668414  0.49892503  1
  Te  Te197  1  0.00457689  0.66463475  0.83241894  1
  Te  Te198  1  0.33331769  -0.00218866  0.16745521  1
  Te  Te199  1  0.33161266  0.00018257  0.50017650  1
  Te  Te200  1  0.32501721  0.00426851  0.83276902  1
  Te  Te201  1  0.33174349  0.33926130  0.16675162  1
  Te  Te202  1  0.33238457  0.34173933  0.50002657  1
  Te  Te203  1  0.33496319  0.33539558  0.83376708  1
  Te  Te204  1  0.33189110  0.66306017  0.16504081  1
  Te  Te205  1  0.33158880  0.66468527  0.50113327  1
  Te  Te206  1  0.32856500  0.66234443  0.83403199  1
  Te  Te207  1  0.67271554  0.00648396  0.16671723  1
  Te  Te208  1  0.65724739  -0.00046593  0.49918608  1
  Te  Te209  1  0.66714068  -0.00746531  0.83352463  1
  Te  Te210  1  0.66887941  0.33330281  0.16753826  1
  Te  Te211  1  0.66587498  0.34041600  0.49320536  1
  Te  Te212  1  0.67282035  0.33348911  0.83711795  1
  Te  Te213  1  0.66936135  0.66780888  0.17320764  1
  Te  Te214  1  0.66515980  0.66385401  0.49597235  1
  Te  Te215  1  0.66677791  0.67163361  0.83483750  1
