# generated using pymatgen
data_AgSbTe2
_symmetry_space_group_name_H-M   'P 1'
_cell_length_a   18.34035535
_cell_length_b   18.34019374
_cell_length_c   18.34134681
_cell_angle_alpha   90.00107408
_cell_angle_beta   90.00161706
_cell_angle_gamma   89.99750025
_symmetry_Int_Tables_number   1
_chemical_formula_structural   AgSbTe2
_chemical_formula_sum   'Ag54 Sb54 Te108'
_cell_volume   6169.39940471
_cell_formula_units_Z   54
loop_
 _symmetry_equiv_pos_site_id
 _symmetry_equiv_pos_as_xyz
  1  'x, y, z'
loop_
 _atom_site_type_symbol
 _atom_site_label
 _atom_site_symmetry_multiplicity
 _atom_site_fract_x
 _atom_site_fract_y
 _atom_site_fract_z
 _atom_site_occupancy
  Ag  Ag0  1  0.31826358  0.32779085  0.33670968  1
  Ag  Ag1  1  0.16648893  0.32620670  0.17120097  1
  Ag  Ag2  1  0.00066530  0.66562493  0.01006721  1
  Ag  Ag3  1  0.83797599  0.48880181  0.67021593  1
  Ag  Ag4  1  0.16087449  0.48818707  0.66612698  1
  Ag  Ag5  1  0.16373306  0.00778513  0.16871627  1
  Ag  Ag6  1  0.66714564  0.83519505  0.49637634  1
  Ag  Ag7  1  0.00295485  0.32802438  0.66322432  1
  Ag  Ag8  1  0.50799616  0.82927035  0.33951941  1
  Ag  Ag9  1  0.00133368  0.01078673  0.66442762  1
  Ag  Ag10  1  0.00332805  0.16766901  0.16763245  1
  Ag  Ag11  1  0.00317173  0.01252623  0.00323553  1
  Ag  Ag12  1  0.50681595  0.16727324  0.66883753  1
  Ag  Ag13  1  0.16952830  0.83446894  0.66355970  1
  Ag  Ag14  1  0.66770097  0.48564511  0.83005685  1
  Ag  Ag15  1  0.15697925  0.16823353  0.33414120  1
  Ag  Ag16  1  0.49741148  0.32743401  0.16884516  1
  Ag  Ag17  1  0.83744855  0.16842915  -0.00350413  1
  Ag  Ag18  1  0.83520268  0.33186238  0.83277926  1
  Ag  Ag19  1  0.67360818  0.16874709  0.16349555  1
  Ag  Ag20  1  0.67093451  0.32607523  0.33314442  1
  Ag  Ag21  1  0.66990148  0.67351926  0.33289654  1
  Ag  Ag22  1  0.16352405  0.01203485  0.82500755  1
  Ag  Ag23  1  0.00327718  0.16857052  0.49454038  1
  Ag  Ag24  1  0.83123859  0.16940351  0.67092841  1
  Ag  Ag25  1  0.66393536  0.16779466  0.83238636  1
  Ag  Ag26  1  0.83574617  0.48514097  -0.00698342  1
  Ag  Ag27  1  0.50535638  0.16877811  -0.00495017  1
  Ag  Ag28  1  0.32999997  0.16889607  0.82653726  1
  Ag  Ag29  1  0.00082060  0.48591269  0.50134548  1
  Ag  Ag30  1  0.00016613  0.83691733  0.49597504  1
  Ag  Ag31  1  0.67738861  0.32945213  -0.00805551  1
  Ag  Ag32  1  -0.00355361  0.33081942  0.00084588  1
  Ag  Ag33  1  0.00051873  0.32411387  0.33732632  1
  Ag  Ag34  1  0.49929274  0.67173135  0.50023205  1
  Ag  Ag35  1  0.49617607  0.66838485  0.16869038  1
  Ag  Ag36  1  0.16430366  0.67183043  0.16717062  1
  Ag  Ag37  1  0.66658569  0.00387904  0.34011559  1
  Ag  Ag38  1  0.00487998  0.84086133  0.17309582  1
  Ag  Ag39  1  0.32325363  0.83119422  0.17072103  1
  Ag  Ag40  1  0.32402559  0.16944536  0.50599326  1
  Ag  Ag41  1  0.83162311  0.83969712  0.33561300  1
  Ag  Ag42  1  0.32261995  0.32910817  0.66362822  1
  Ag  Ag43  1  0.67121697  0.01079317  0.66207223  1
  Ag  Ag44  1  0.16243587  0.01022222  0.50310041  1
  Ag  Ag45  1  0.16472232  0.32781646  0.50330840  1
  Ag  Ag46  1  0.67580625  0.32880114  0.67299447  1
  Ag  Ag47  1  0.49530474  0.83617834  0.65943683  1
  Ag  Ag48  1  0.33464461  0.66351410  0.66609380  1
  Ag  Ag49  1  -0.00207309  0.66823240  0.33163516  1
  Ag  Ag50  1  0.50032458  0.66778146  0.82678293  1
  Ag  Ag51  1  0.83834935  0.16718380  0.33319605  1
  Ag  Ag52  1  0.16062657  0.32945402  0.82307492  1
  Ag  Ag53  1  0.15658313  0.16706489  0.00470133  1
  Sb  Sb54  1  0.33088036  0.32935165  -0.00075926  1
  Sb  Sb55  1  0.33189152  0.83684176  0.49897469  1
  Sb  Sb56  1  0.50176464  0.16703637  0.33494636  1
  Sb  Sb57  1  0.83854547  0.00899046  0.83130769  1
  Sb  Sb58  1  0.00187590  0.17057597  0.83418182  1
  Sb  Sb59  1  0.33064402  0.66923366  -0.00121078  1
  Sb  Sb60  1  0.66927978  0.66016532  0.00556474  1
  Sb  Sb61  1  0.82969479  0.65858685  0.83431686  1
  Sb  Sb62  1  0.33319162  0.66465603  0.33566574  1
  Sb  Sb63  1  0.83618404  0.32929811  0.16199757  1
  Sb  Sb64  1  0.16231405  0.16705027  0.66471498  1
  Sb  Sb65  1  0.32921559  0.00580575  0.66599677  1
  Sb  Sb66  1  0.16836249  0.66439030  0.83414724  1
  Sb  Sb67  1  0.83956592  0.33073652  0.50708188  1
  Sb  Sb68  1  0.67316942  0.00997617  -0.00056290  1
  Sb  Sb69  1  -0.00294074  0.49580690  0.82922690  1
  Sb  Sb70  1  0.16503635  0.83912748  0.33373698  1
  Sb  Sb71  1  0.32637897  0.00406591  0.00027910  1
  Sb  Sb72  1  0.33501708  0.00384623  0.33386558  1
  Sb  Sb73  1  0.50142029  0.50189666  0.33291094  1
  Sb  Sb74  1  0.33176446  0.50014714  0.16755475  1
  Sb  Sb75  1  0.83333911  0.66727839  0.49900667  1
  Sb  Sb76  1  0.67024659  0.16573615  0.50146720  1
  Sb  Sb77  1  0.66242673  0.66405843  0.66349696  1
  Sb  Sb78  1  0.67155842  0.49930111  0.50277221  1
  Sb  Sb79  1  0.83827046  0.00564993  0.16890486  1
  Sb  Sb80  1  0.50121314  0.49743114  0.66737057  1
  Sb  Sb81  1  0.50308300  0.33127699  0.83369377  1
  Sb  Sb82  1  0.00371656  0.66371998  0.66280389  1
  Sb  Sb83  1  0.83850355  0.00321713  0.49887512  1
  Sb  Sb84  1  0.16299211  0.83873299  0.00121722  1
  Sb  Sb85  1  0.32782768  0.16619823  0.16705361  1
  Sb  Sb86  1  0.15914777  0.49104162  -0.00285510  1
  Sb  Sb87  1  0.33681903  0.49449021  0.83057334  1
  Sb  Sb88  1  0.66933479  0.83854029  0.17508268  1
  Sb  Sb89  1  0.83499758  0.83699178  0.66117374  1
  Sb  Sb90  1  0.33147686  0.83643987  0.83299922  1
  Sb  Sb91  1  0.83757723  0.83780894  0.00564759  1
  Sb  Sb92  1  0.49942615  -0.00049453  0.50116245  1
  Sb  Sb93  1  0.32844834  0.49609342  0.50217279  1
  Sb  Sb94  1  0.16358420  0.49198539  0.33588083  1
  Sb  Sb95  1  0.50182598  0.83592927  0.00043764  1
  Sb  Sb96  1  0.49623901  0.33422701  0.49797847  1
  Sb  Sb97  1  0.16684575  0.66599906  0.49769256  1
  Sb  Sb98  1  0.49748401  0.00228828  0.16742108  1
  Sb  Sb99  1  -0.00295207  0.00353155  0.33556308  1
  Sb  Sb100  1  0.66557736  0.83841829  0.82472863  1
  Sb  Sb101  1  0.49720681  0.00262477  0.83067955  1
  Sb  Sb102  1  0.00009969  0.49476689  0.17016930  1
  Sb  Sb103  1  0.83591359  0.66789990  0.16928193  1
  Sb  Sb104  1  0.66701252  0.48934703  0.16597337  1
  Sb  Sb105  1  0.83628630  0.49417358  0.33435282  1
  Sb  Sb106  1  0.50493214  0.49413127  -0.00049563  1
  Sb  Sb107  1  0.00057950  0.83481836  0.83119329  1
  Te  Te108  1  0.16703695  0.16747009  0.16723756  1
  Te  Te109  1  0.16380329  0.16824271  0.49983146  1
  Te  Te110  1  0.16845247  0.16866966  0.83556855  1
  Te  Te111  1  0.16700914  0.49993376  0.16453962  1
  Te  Te112  1  0.16144998  0.49857481  0.50534487  1
  Te  Te113  1  0.16895553  0.49537180  0.82683896  1
  Te  Te114  1  0.16415888  0.83132351  0.16576663  1
  Te  Te115  1  0.16438131  0.83364791  0.50216868  1
  Te  Te116  1  0.16682225  0.83340859  0.82894353  1
  Te  Te117  1  0.49728954  0.16956904  0.16718067  1
  Te  Te118  1  0.49415042  0.16749536  0.50566968  1
  Te  Te119  1  0.50317450  0.16585767  0.83095665  1
  Te  Te120  1  0.49929663  0.50277020  0.16543809  1
  Te  Te121  1  0.50052483  0.50823589  0.49993993  1
  Te  Te122  1  0.50609258  0.50684593  0.83453044  1
  Te  Te123  1  0.50066688  0.83283977  0.16800298  1
  Te  Te124  1  0.49862846  0.83308628  0.50000818  1
  Te  Te125  1  0.49935910  0.82930248  0.83081599  1
  Te  Te126  1  0.83310922  0.16637560  0.16965977  1
  Te  Te127  1  0.84094183  0.16671304  0.49557184  1
  Te  Te128  1  0.82860030  0.17124617  0.83220387  1
  Te  Te129  1  0.83219907  0.50075701  0.15898272  1
  Te  Te130  1  0.83986102  0.50072340  0.50503713  1
  Te  Te131  1  0.82818313  0.49503220  0.83184013  1
  Te  Te132  1  0.83958846  0.83493006  0.17460568  1
  Te  Te133  1  0.83347484  0.83326209  0.49481408  1
  Te  Te134  1  0.83248379  0.83338500  0.83331408  1
  Te  Te135  1  0.16046544  0.00407877  0.00306427  1
  Te  Te136  1  0.16872683  0.00693802  0.33201359  1
  Te  Te137  1  0.16314012  -0.00240411  0.66639331  1
  Te  Te138  1  0.16318133  0.32831678  0.00364621  1
  Te  Te139  1  0.16262448  0.33105514  0.33324986  1
  Te  Te140  1  0.16386765  0.33081771  0.66478483  1
  Te  Te141  1  0.16293405  0.66544947  0.00274171  1
  Te  Te142  1  0.16414073  0.66535492  0.32870270  1
  Te  Te143  1  0.17252511  0.67370895  0.66770600  1
  Te  Te144  1  0.50163111  0.00629290  -0.00104909  1
  Te  Te145  1  0.50502326  -0.00663293  0.33398179  1
  Te  Te146  1  0.50378773  -0.00055169  0.66693583  1
  Te  Te147  1  0.50003263  0.32927842  0.00497657  1
  Te  Te148  1  0.50836207  0.33396347  0.32959093  1
  Te  Te149  1  0.49987231  0.32889578  0.66572422  1
  Te  Te150  1  0.49954693  0.66672932  0.00628764  1
  Te  Te151  1  0.49791366  0.66893206  0.33107871  1
  Te  Te152  1  0.49753718  0.66493625  0.66617069  1
  Te  Te153  1  0.84244576  0.00616081  -0.00111243  1
  Te  Te154  1  0.82535050  0.00273030  0.33319050  1
  Te  Te155  1  0.83474577  0.00404702  0.66577407  1
  Te  Te156  1  0.83416190  0.32913740  -0.00104877  1
  Te  Te157  1  0.83585890  0.32970577  0.33247892  1
  Te  Te158  1  0.83481835  0.33071636  0.66914160  1
  Te  Te159  1  0.83857477  0.66925042  0.00015422  1
  Te  Te160  1  0.83382755  0.66383867  0.33429658  1
  Te  Te161  1  0.83333603  0.66430929  0.66773794  1
  Te  Te162  1  -0.00056898  0.16877362  -0.00148473  1
  Te  Te163  1  -0.00046109  0.16480665  0.33144874  1
  Te  Te164  1  -0.00591847  0.16807499  0.66938492  1
  Te  Te165  1  -0.00524756  0.49771311  -0.00084666  1
  Te  Te166  1  -0.00129508  0.50524456  0.34045176  1
  Te  Te167  1  -0.00017284  0.50008458  0.66249087  1
  Te  Te168  1  -0.00021931  0.82826847  0.00630143  1
  Te  Te169  1  -0.00032203  0.83442218  0.33175408  1
  Te  Te170  1  0.00244672  0.83240118  0.66276817  1
  Te  Te171  1  0.34111540  0.16654786  -0.00340771  1
  Te  Te172  1  0.33502627  0.17117652  0.33602070  1
  Te  Te173  1  0.33657421  0.16849401  0.66650138  1
  Te  Te174  1  0.33254597  0.50119979  -0.00133748  1
  Te  Te175  1  0.33278636  0.48862474  0.33469207  1
  Te  Te176  1  0.32923018  0.49674383  0.66757948  1
  Te  Te177  1  0.33382825  0.83524692  0.00592923  1
  Te  Te178  1  0.33603721  0.83209060  0.32983175  1
  Te  Te179  1  0.33491953  0.83481182  0.66719674  1
  Te  Te180  1  0.66799833  0.16894313  0.00298249  1
  Te  Te181  1  0.66773222  0.16469839  0.33389733  1
  Te  Te182  1  0.66756900  0.16770648  0.66318107  1
  Te  Te183  1  0.67278738  0.49336140  -0.00391770  1
  Te  Te184  1  0.67002196  0.49893484  0.33373065  1
  Te  Te185  1  0.67058757  0.49574377  0.67013506  1
  Te  Te186  1  0.66888197  0.83518882  -0.00031393  1
  Te  Te187  1  0.66819619  0.83273543  0.33507977  1
  Te  Te188  1  0.66433067  0.83373607  0.65813858  1
  Te  Te189  1  0.00362458  0.00345584  0.16649233  1
  Te  Te190  1  0.00417605  -0.00082240  0.50263010  1
  Te  Te191  1  0.00525564  -0.00363796  0.82804193  1
  Te  Te192  1  0.00401644  0.32988095  0.16809311  1
  Te  Te193  1  0.00170866  0.32979462  0.49982287  1
  Te  Te194  1  0.00106972  0.33677220  0.83213984  1
  Te  Te195  1  0.00171637  0.66167263  0.16991391  1
  Te  Te196  1  -0.00019946  0.67708520  0.49426483  1
  Te  Te197  1  -0.00159608  0.66590530  0.83864379  1
  Te  Te198  1  0.32724374  -0.00656802  0.16686351  1
  Te  Te199  1  0.32434112  0.00666830  0.49979165  1
  Te  Te200  1  0.32572513  0.00568744  0.83388252  1
  Te  Te201  1  0.33300878  0.33360501  0.16933267  1
  Te  Te202  1  0.33016889  0.33051177  0.50048432  1
  Te  Te203  1  0.33169141  0.32807049  0.83034123  1
  Te  Te204  1  0.33203148  0.66973122  0.16638547  1
  Te  Te205  1  0.33764929  0.66614560  0.50508376  1
  Te  Te206  1  0.33838382  0.66765038  0.82858164  1
  Te  Te207  1  0.66586914  0.00795420  0.16808948  1
  Te  Te208  1  0.66554809  -0.00340037  0.50204325  1
  Te  Te209  1  0.66780675  0.00638830  0.82940936  1
  Te  Te210  1  0.66421159  0.32880237  0.17085165  1
  Te  Te211  1  0.66492366  0.33444203  0.49656048  1
  Te  Te212  1  0.66432668  0.32933660  0.83250127  1
  Te  Te213  1  0.66432387  0.66779442  0.17264896  1
  Te  Te214  1  0.66340949  0.66759259  0.49499769  1
  Te  Te215  1  0.66015000  0.67177974  0.83681790  1
