# generated using pymatgen
data_AgSbTe2
_symmetry_space_group_name_H-M   'P 1'
_cell_length_a   18.33052132
_cell_length_b   18.33148644
_cell_length_c   18.33054813
_cell_angle_alpha   89.99984117
_cell_angle_beta   90.00103332
_cell_angle_gamma   89.99814645
_symmetry_Int_Tables_number   1
_chemical_formula_structural   AgSbTe2
_chemical_formula_sum   'Ag54 Sb54 Te108'
_cell_volume   6159.53531627
_cell_formula_units_Z   54
loop_
 _symmetry_equiv_pos_site_id
 _symmetry_equiv_pos_as_xyz
  1  'x, y, z'
loop_
 _atom_site_type_symbol
 _atom_site_label
 _atom_site_symmetry_multiplicity
 _atom_site_fract_x
 _atom_site_fract_y
 _atom_site_fract_z
 _atom_site_occupancy
  Ag  Ag0  1  0.32591224  0.33257522  0.33539840  1
  Ag  Ag1  1  0.33201731  0.33329886  0.00102825  1
  Ag  Ag2  1  0.49912905  0.16368456  0.66783753  1
  Ag  Ag3  1  0.66819359  0.50599394  0.49705728  1
  Ag  Ag4  1  0.16730609  0.16556009  0.66520781  1
  Ag  Ag5  1  0.67302379  0.49828729  0.17763126  1
  Ag  Ag6  1  0.33295350  0.83348572  0.15695392  1
  Ag  Ag7  1  0.66530692  0.16167131  0.82369694  1
  Ag  Ag8  1  0.00058784  0.33591531  0.66599812  1
  Ag  Ag9  1  0.66610654  0.16878225  0.16973705  1
  Ag  Ag10  1  0.83017077  0.66600337  0.82653097  1
  Ag  Ag11  1  0.34083213  0.49028865  0.49969800  1
  Ag  Ag12  1  0.66673343  0.00079683  0.66721614  1
  Ag  Ag13  1  0.16292531  0.32412553  0.83277245  1
  Ag  Ag14  1  0.32660767  0.17170466  0.50678875  1
  Ag  Ag15  1  0.84499644  0.33236241  0.82556962  1
  Ag  Ag16  1  0.83745118  0.50096707  0.66082820  1
  Ag  Ag17  1  0.50865893  0.66016359  0.50472149  1
  Ag  Ag18  1  0.49451358  0.83506339  -0.01076617  1
  Ag  Ag19  1  0.83253020  0.82323034  0.33977799  1
  Ag  Ag20  1  0.33954560  0.83565543  0.83740002  1
  Ag  Ag21  1  0.51122243  0.49918658  0.33912350  1
  Ag  Ag22  1  0.16867055  0.00722491  0.16510396  1
  Ag  Ag23  1  0.15527524  0.49020696  0.66632438  1
  Ag  Ag24  1  0.16419278  0.32663175  0.16445947  1
  Ag  Ag25  1  0.50423844  0.67424183  0.82683079  1
  Ag  Ag26  1  0.16846869  0.84068693  0.67024396  1
  Ag  Ag27  1  0.33534286  0.67415742  -0.00237288  1
  Ag  Ag28  1  0.50293308  0.33772853  0.49976784  1
  Ag  Ag29  1  0.16493524  0.16975801  0.34250806  1
  Ag  Ag30  1  0.17539526  0.83455832  -0.01252596  1
  Ag  Ag31  1  0.49452644  0.00165969  0.16536045  1
  Ag  Ag32  1  0.65893000  0.83653768  0.82567426  1
  Ag  Ag33  1  0.00374126  0.33222897  0.34288894  1
  Ag  Ag34  1  0.16538696  0.00535761  0.51018182  1
  Ag  Ag35  1  0.00848353  0.17352510  0.82498476  1
  Ag  Ag36  1  -0.00271117  0.49254415  0.82278419  1
  Ag  Ag37  1  0.50085031  0.83535297  0.67111991  1
  Ag  Ag38  1  0.82929766  0.50247263  0.34297308  1
  Ag  Ag39  1  0.16331267  0.00590080  0.82672621  1
  Ag  Ag40  1  0.82876113  0.65769194  0.49926994  1
  Ag  Ag41  1  0.67041275  0.66258474  0.33723279  1
  Ag  Ag42  1  0.49878056  0.16288123  -0.01095493  1
  Ag  Ag43  1  0.00726844  0.16893328  0.50504410  1
  Ag  Ag44  1  0.67038375  0.82494261  0.50550981  1
  Ag  Ag45  1  0.83456199  0.00464031  0.83013459  1
  Ag  Ag46  1  0.66512869  0.16876516  0.50436597  1
  Ag  Ag47  1  0.83220070  0.66268769  0.17997439  1
  Ag  Ag48  1  -0.00172815  0.65611950  0.66650570  1
  Ag  Ag49  1  0.00667187  0.17325419  0.16863750  1
  Ag  Ag50  1  -0.00783520  0.83480550  0.50229388  1
  Ag  Ag51  1  0.32812892  0.16460492  0.82786889  1
  Ag  Ag52  1  0.83194774  0.33958783  0.50341139  1
  Ag  Ag53  1  -0.00323511  0.49318372  0.16780593  1
  Sb  Sb54  1  -0.00677859  0.65976825  0.33924794  1
  Sb  Sb55  1  0.16428389  0.32800808  0.50330023  1
  Sb  Sb56  1  0.49751207  0.33113183  0.82676347  1
  Sb  Sb57  1  0.49821088  0.50052396  0.00322022  1
  Sb  Sb58  1  0.83185370  0.83135575  -0.00158626  1
  Sb  Sb59  1  0.00041027  0.00715835  0.33518915  1
  Sb  Sb60  1  0.49801775  0.00223764  0.49974111  1
  Sb  Sb61  1  0.50371518  0.66895910  0.16716564  1
  Sb  Sb62  1  0.33383060  0.00207856  0.66821186  1
  Sb  Sb63  1  0.83570668  0.17178363  0.66751227  1
  Sb  Sb64  1  0.82989221  0.16799942  -0.00375972  1
  Sb  Sb65  1  0.49933491  -0.00181587  0.83362701  1
  Sb  Sb66  1  0.66703912  -0.00192108  0.33826301  1
  Sb  Sb67  1  0.66333489  0.66741419  0.00083051  1
  Sb  Sb68  1  0.67264212  0.50058845  0.82782872  1
  Sb  Sb69  1  0.66867216  0.33807700  0.33679413  1
  Sb  Sb70  1  0.67078344  0.67028034  0.66058287  1
  Sb  Sb71  1  -0.00294734  0.49535875  0.50292819  1
  Sb  Sb72  1  0.16619538  0.66822158  0.83066690  1
  Sb  Sb73  1  0.00480089  0.33214908  -0.00392312  1
  Sb  Sb74  1  0.33522632  0.83467036  0.50345769  1
  Sb  Sb75  1  0.33230238  0.00556551  0.33333381  1
  Sb  Sb76  1  0.49719603  0.33012706  0.17157256  1
  Sb  Sb77  1  0.00075808  0.83417145  0.82693029  1
  Sb  Sb78  1  0.32722827  0.33133957  0.66422290  1
  Sb  Sb79  1  0.83399015  -0.00121957  0.16364137  1
  Sb  Sb80  1  0.67244525  0.32827910  0.66329067  1
  Sb  Sb81  1  0.00371577  0.00116989  -0.00172127  1
  Sb  Sb82  1  0.66107456  0.33141102  -0.00015841  1
  Sb  Sb83  1  0.83657681  0.17081191  0.33598809  1
  Sb  Sb84  1  0.32997814  0.49896879  0.82772874  1
  Sb  Sb85  1  0.33387288  -0.00209613  -0.00176191  1
  Sb  Sb86  1  0.00243960  0.66685664  -0.00567297  1
  Sb  Sb87  1  0.17252262  0.16336765  -0.00476316  1
  Sb  Sb88  1  0.83306936  0.82814327  0.66349600  1
  Sb  Sb89  1  0.16323562  0.49138509  0.33918962  1
  Sb  Sb90  1  0.49663641  0.17247512  0.33889705  1
  Sb  Sb91  1  0.33186241  0.50083925  0.17170834  1
  Sb  Sb92  1  0.00378937  0.83305554  0.17251314  1
  Sb  Sb93  1  0.83481981  0.00110095  0.50504125  1
  Sb  Sb94  1  0.66272414  0.83430169  0.16698041  1
  Sb  Sb95  1  0.33222095  0.16420931  0.16439744  1
  Sb  Sb96  1  0.33137602  0.66717902  0.66856652  1
  Sb  Sb97  1  0.66350651  0.00077460  -0.00600773  1
  Sb  Sb98  1  0.50262822  0.49972944  0.66065287  1
  Sb  Sb99  1  0.83335605  0.49972270  -0.00089792  1
  Sb  Sb100  1  0.16351145  0.66897397  0.50283991  1
  Sb  Sb101  1  0.16229813  0.66590971  0.16578175  1
  Sb  Sb102  1  0.16714118  0.50110225  -0.00472413  1
  Sb  Sb103  1  0.83873699  0.33769709  0.16917598  1
  Sb  Sb104  1  0.50369355  0.82830119  0.33723030  1
  Sb  Sb105  1  0.16348289  0.84150435  0.33819850  1
  Sb  Sb106  1  -0.00111281  0.00318927  0.66687945  1
  Sb  Sb107  1  0.33850309  0.66218678  0.33279709  1
  Te  Te108  1  0.16681388  0.16694655  0.16073324  1
  Te  Te109  1  0.16664742  0.16610034  0.50235581  1
  Te  Te110  1  0.16709662  0.16540083  0.83400876  1
  Te  Te111  1  0.16245661  0.49691696  0.16731360  1
  Te  Te112  1  0.16932589  0.50139501  0.50677621  1
  Te  Te113  1  0.16220937  0.49870386  0.82734451  1
  Te  Te114  1  0.16980442  0.83438902  0.17005559  1
  Te  Te115  1  0.16699631  0.83908869  0.50513403  1
  Te  Te116  1  0.16587798  0.83494813  0.83019413  1
  Te  Te117  1  0.50173508  0.16425013  0.16941660  1
  Te  Te118  1  0.50182449  0.16678272  0.50379247  1
  Te  Te119  1  0.50173714  0.16619294  0.82956990  1
  Te  Te120  1  0.50280539  0.49964441  0.17311965  1
  Te  Te121  1  0.50267502  0.49945030  0.49977129  1
  Te  Te122  1  0.50174289  0.50490573  0.83257347  1
  Te  Te123  1  0.49639441  0.83643321  0.16698649  1
  Te  Te124  1  0.50344627  0.83356184  0.50519544  1
  Te  Te125  1  0.49929107  0.83505831  0.83118462  1
  Te  Te126  1  0.83150158  0.16668001  0.16663185  1
  Te  Te127  1  0.83068148  0.16901190  0.49967881  1
  Te  Te128  1  0.82980645  0.16745697  0.83324957  1
  Te  Te129  1  0.83312975  0.50172329  0.16591728  1
  Te  Te130  1  0.83482428  0.49890623  0.50045277  1
  Te  Te131  1  0.83573927  0.50044936  0.83146916  1
  Te  Te132  1  0.83347096  0.82884468  0.16750902  1
  Te  Te133  1  0.83138053  0.83592269  0.49899464  1
  Te  Te134  1  0.83226185  0.83033194  0.83350003  1
  Te  Te135  1  0.16746223  -0.00689528  0.00332414  1
  Te  Te136  1  0.16627153  0.00887299  0.32795665  1
  Te  Te137  1  0.16575834  0.00220108  0.66789677  1
  Te  Te138  1  0.17218911  0.33413845  -0.00125279  1
  Te  Te139  1  0.16428601  0.32892603  0.32981814  1
  Te  Te140  1  0.16183412  0.32970545  0.67126451  1
  Te  Te141  1  0.17323609  0.67257707  -0.00056117  1
  Te  Te142  1  0.16701878  0.66737653  0.33376953  1
  Te  Te143  1  0.16076460  0.67083507  0.66643721  1
  Te  Te144  1  0.50001443  0.00059390  0.00612974  1
  Te  Te145  1  0.50008082  -0.00120713  0.32548306  1
  Te  Te146  1  0.50472000  0.00096916  0.66530924  1
  Te  Te147  1  0.49331870  0.33023597  -0.00051300  1
  Te  Te148  1  0.49538385  0.33853354  0.33912020  1
  Te  Te149  1  0.49993562  0.32828989  0.65922190  1
  Te  Te150  1  0.49570329  0.66931192  -0.00179271  1
  Te  Te151  1  0.50564139  0.66099884  0.33762018  1
  Te  Te152  1  0.49936233  0.66832991  0.66629970  1
  Te  Te153  1  0.83338505  -0.00142538  -0.01008401  1
  Te  Te154  1  0.83344334  -0.00847350  0.33165594  1
  Te  Te155  1  0.82792705  -0.00237449  0.67237721  1
  Te  Te156  1  0.83068832  0.33331666  -0.01064177  1
  Te  Te157  1  0.83952104  0.33812589  0.33693479  1
  Te  Te158  1  0.83814562  0.33763376  0.66559595  1
  Te  Te159  1  0.83319770  0.66767468  -0.00818525  1
  Te  Te160  1  0.83156318  0.66396005  0.33779636  1
  Te  Te161  1  0.83661466  0.66312568  0.66531082  1
  Te  Te162  1  -0.00104470  0.16600400  0.00426834  1
  Te  Te163  1  0.00289181  0.17245929  0.33315064  1
  Te  Te164  1  0.00211243  0.16963533  0.66651429  1
  Te  Te165  1  0.00140916  0.50150209  0.00539016  1
  Te  Te166  1  -0.00352009  0.49379230  0.33020639  1
  Te  Te167  1  -0.00092856  0.49793764  0.66579902  1
  Te  Te168  1  0.00680807  0.83281997  0.00153375  1
  Te  Te169  1  -0.00455149  0.83151718  0.34085108  1
  Te  Te170  1  0.00319571  0.83422981  0.66172593  1
  Te  Te171  1  0.33915003  0.17099443  -0.00325371  1
  Te  Te172  1  0.32875121  0.17226265  0.33641297  1
  Te  Te173  1  0.33251356  0.16713241  0.66742908  1
  Te  Te174  1  0.33308150  0.49748903  0.00030262  1
  Te  Te175  1  0.33163698  0.49473227  0.33884608  1
  Te  Te176  1  0.33105422  0.49969695  0.65964331  1
  Te  Te177  1  0.33564803  0.83377869  -0.00287473  1
  Te  Te178  1  0.33327370  0.83220642  0.33170767  1
  Te  Te179  1  0.33396593  0.83383529  0.67148257  1
  Te  Te180  1  0.65883026  0.16677997  0.00306171  1
  Te  Te181  1  0.66711980  0.16623420  0.33448691  1
  Te  Te182  1  0.66732331  0.16420327  0.66621011  1
  Te  Te183  1  0.66447788  0.49962465  0.01052167  1
  Te  Te184  1  0.66912120  0.50020089  0.33568777  1
  Te  Te185  1  0.67221228  0.49808989  0.65944258  1
  Te  Te186  1  0.65994450  0.83334646  -0.00556931  1
  Te  Te187  1  0.67064817  0.82966339  0.33737064  1
  Te  Te188  1  0.66586034  0.83566165  0.66662906  1
  Te  Te189  1  0.00367593  0.00464710  0.16714757  1
  Te  Te190  1  0.00392447  0.00326122  0.49993809  1
  Te  Te191  1  0.00076226  0.00559560  0.83327377  1
  Te  Te192  1  0.00238204  0.33257380  0.16284696  1
  Te  Te193  1  -0.00197098  0.32994159  0.50190855  1
  Te  Te194  1  0.00175480  0.33284981  0.83287925  1
  Te  Te195  1  -0.00635386  0.66368881  0.16634668  1
  Te  Te196  1  -0.00436740  0.66977416  0.50504880  1
  Te  Te197  1  -0.00396693  0.66348475  0.82863579  1
  Te  Te198  1  0.33115114  -0.00368613  0.16747062  1
  Te  Te199  1  0.32716264  0.00606729  0.49888398  1
  Te  Te200  1  0.32618006  0.00202593  0.83282753  1
  Te  Te201  1  0.32892530  0.33351857  0.16857745  1
  Te  Te202  1  0.33195156  0.33108061  0.49874844  1
  Te  Te203  1  0.33058546  0.33149900  0.83525146  1
  Te  Te204  1  0.33352354  0.67003056  0.16294171  1
  Te  Te205  1  0.33783524  0.66533209  0.49952971  1
  Te  Te206  1  0.33723791  0.66786582  0.83607288  1
  Te  Te207  1  0.66746733  0.00500117  0.16784084  1
  Te  Te208  1  0.66638861  0.00502334  0.50473673  1
  Te  Te209  1  0.66623295  0.00049432  0.82931448  1
  Te  Te210  1  0.66765686  0.33072197  0.16779035  1
  Te  Te211  1  0.66841402  0.32995454  0.49878974  1
  Te  Te212  1  0.66688739  0.33014977  0.83237718  1
  Te  Te213  1  0.67138628  0.66525888  0.17076261  1
  Te  Te214  1  0.66806482  0.66668839  0.49859174  1
  Te  Te215  1  0.66622087  0.66765400  0.83352110  1
