# generated using pymatgen
data_AgSbTe2
_symmetry_space_group_name_H-M   'P 1'
_cell_length_a   18.35999109
_cell_length_b   18.37319257
_cell_length_c   18.35793375
_cell_angle_alpha   90.00240439
_cell_angle_beta   89.99908967
_cell_angle_gamma   90.00006881
_symmetry_Int_Tables_number   1
_chemical_formula_structural   AgSbTe2
_chemical_formula_sum   'Ag54 Sb54 Te108'
_cell_volume   6192.71211233
_cell_formula_units_Z   54
loop_
 _symmetry_equiv_pos_site_id
 _symmetry_equiv_pos_as_xyz
  1  'x, y, z'
loop_
 _atom_site_type_symbol
 _atom_site_label
 _atom_site_symmetry_multiplicity
 _atom_site_fract_x
 _atom_site_fract_y
 _atom_site_fract_z
 _atom_site_occupancy
  Ag  Ag0  1  0.83026967  0.16763186  0.66800044  1
  Ag  Ag1  1  -0.00667548  -0.01211019  -0.00395109  1
  Ag  Ag2  1  0.83506702  0.82928172  -0.00120295  1
  Ag  Ag3  1  0.51044448  0.83199378  0.34113896  1
  Ag  Ag4  1  0.14854552  0.82577172  -0.00160212  1
  Ag  Ag5  1  0.67183698  0.83114448  0.82561656  1
  Ag  Ag6  1  -0.01257071  0.67454384  -0.00930123  1
  Ag  Ag7  1  -0.01186083  0.82752938  0.50488813  1
  Ag  Ag8  1  -0.00984834  0.83174412  0.15188570  1
  Ag  Ag9  1  0.83254016  0.67151799  0.83959983  1
  Ag  Ag10  1  0.82710100  -0.00955376  0.50243533  1
  Ag  Ag11  1  0.82853645  0.67116257  0.50179336  1
  Ag  Ag12  1  0.34315002  0.33612381  0.66683321  1
  Ag  Ag13  1  0.83100566  0.16121631  -0.00501566  1
  Ag  Ag14  1  0.83519766  -0.01123717  0.83612218  1
  Ag  Ag15  1  0.50855860  0.17116804  0.00604797  1
  Ag  Ag16  1  0.66509897  0.33360980  0.34327152  1
  Ag  Ag17  1  0.15459851  -0.00271681  0.83308349  1
  Ag  Ag18  1  0.50599109  0.17439010  0.33530369  1
  Ag  Ag19  1  0.34990242  0.66589220  0.66679038  1
  Ag  Ag20  1  -0.00933274  0.83133779  0.83768365  1
  Ag  Ag21  1  0.50730896  0.34137445  0.49938100  1
  Ag  Ag22  1  0.51082806  0.66740612  0.17518919  1
  Ag  Ag23  1  0.82977161  0.67160294  0.15348954  1
  Ag  Ag24  1  0.66831743  0.50238481  0.50258607  1
  Ag  Ag25  1  0.83101876  0.83283045  0.34050665  1
  Ag  Ag26  1  0.66880533  0.67074451  0.66573789  1
  Ag  Ag27  1  -0.00654563  0.33810373  -0.00937520  1
  Ag  Ag28  1  0.66611634  0.83142106  0.50441942  1
  Ag  Ag29  1  -0.01242699  0.50865282  0.50491556  1
  Ag  Ag30  1  0.83342829  -0.01052252  0.15788775  1
  Ag  Ag31  1  0.34466586  -0.00472370  0.66449295  1
  Ag  Ag32  1  0.50293556  0.82287961  0.66098672  1
  Ag  Ag33  1  0.66481318  0.16860962  0.50283312  1
  Ag  Ag34  1  -0.01290592  0.66615978  0.66768627  1
  Ag  Ag35  1  0.33719278  0.83210428  0.16759680  1
  Ag  Ag36  1  0.50589420  0.50171725  -0.00185176  1
  Ag  Ag37  1  0.15338271  0.33417490  0.83153113  1
  Ag  Ag38  1  0.14888078  0.50651217  -0.00528819  1
  Ag  Ag39  1  0.50545592  0.49681864  0.34506071  1
  Ag  Ag40  1  -0.01186552  0.34149297  0.66894588  1
  Ag  Ag41  1  0.66615389  0.33580315  0.66262034  1
  Ag  Ag42  1  0.50900621  0.66705511  0.50236374  1
  Ag  Ag43  1  0.82553629  0.50489372  0.33830514  1
  Ag  Ag44  1  0.51029822  -0.00722181  0.50104707  1
  Ag  Ag45  1  0.67356731  0.66637887  -0.00764292  1
  Ag  Ag46  1  0.50147282  0.50593754  0.66260811  1
  Ag  Ag47  1  0.82718362  0.16075721  0.33758228  1
  Ag  Ag48  1  0.34566015  0.33090159  0.34174183  1
  Ag  Ag49  1  0.33484814  0.49995003  0.83217389  1
  Ag  Ag50  1  0.33970536  -0.00015385  0.34360331  1
  Ag  Ag51  1  0.83493736  0.33556304  0.83361803  1
  Ag  Ag52  1  0.66663784  -0.01143934  0.66196406  1
  Ag  Ag53  1  0.83239189  0.51372627  0.00136698  1
  Sb  Sb54  1  0.33312355  0.33623071  -0.00327711  1
  Sb  Sb55  1  0.16347192  0.83473006  0.32919034  1
  Sb  Sb56  1  0.50085064  0.33973670  0.17269574  1
  Sb  Sb57  1  -0.00407692  0.50550667  0.16432216  1
  Sb  Sb58  1  0.17076258  0.33529323  0.50684309  1
  Sb  Sb59  1  0.50459782  -0.00016680  0.82825322  1
  Sb  Sb60  1  0.66581115  0.00278796  0.34255453  1
  Sb  Sb61  1  0.16086386  0.66632484  0.83239229  1
  Sb  Sb62  1  0.66798932  0.16519767  0.17179188  1
  Sb  Sb63  1  0.16267666  -0.00373356  0.16091592  1
  Sb  Sb64  1  -0.00347458  -0.00224238  0.33136936  1
  Sb  Sb65  1  -0.00664129  0.33473329  0.33761507  1
  Sb  Sb66  1  0.17045280  0.49944611  0.67187415  1
  Sb  Sb67  1  0.16649549  0.33530187  0.15902818  1
  Sb  Sb68  1  0.16945256  0.83368390  0.67130317  1
  Sb  Sb69  1  0.83276088  0.33511426  0.16270426  1
  Sb  Sb70  1  0.16967882  0.16592965  0.33491248  1
  Sb  Sb71  1  0.33067137  -0.00128503  -0.00317223  1
  Sb  Sb72  1  0.66619425  0.50471404  0.82890285  1
  Sb  Sb73  1  -0.00655551  0.66817234  0.33383013  1
  Sb  Sb74  1  0.34010552  0.49993040  0.50563531  1
  Sb  Sb75  1  0.33360984  0.82996097  0.83502328  1
  Sb  Sb76  1  0.33628537  0.16971801  0.83096440  1
  Sb  Sb77  1  0.50573051  0.66639502  0.82974382  1
  Sb  Sb78  1  0.67178814  0.33752466  -0.00439439  1
  Sb  Sb79  1  0.82472291  0.33421157  0.50426765  1
  Sb  Sb80  1  0.82849487  0.49967779  0.66559587  1
  Sb  Sb81  1  0.34220734  0.66742567  0.33690254  1
  Sb  Sb82  1  0.50580110  -0.00586527  0.17384328  1
  Sb  Sb83  1  0.16058069  0.16684295  0.66895441  1
  Sb  Sb84  1  0.34369612  0.16690586  0.50097828  1
  Sb  Sb85  1  0.33703125  0.16153180  0.16848520  1
  Sb  Sb86  1  -0.01339929  0.16566701  0.50234337  1
  Sb  Sb87  1  0.50799348  0.83080878  0.00162390  1
  Sb  Sb88  1  0.33422675  0.66588523  -0.00387733  1
  Sb  Sb89  1  0.66808720  0.66352396  0.34080429  1
  Sb  Sb90  1  0.67427977  -0.00526386  -0.00610178  1
  Sb  Sb91  1  -0.00574854  0.16538640  0.83306217  1
  Sb  Sb92  1  0.16281632  0.66887622  0.16350767  1
  Sb  Sb93  1  0.33740731  0.50510143  0.16382355  1
  Sb  Sb94  1  0.50699426  0.16803546  0.66171422  1
  Sb  Sb95  1  0.50485891  0.33481481  0.82859679  1
  Sb  Sb96  1  0.66650951  0.50493793  0.17149576  1
  Sb  Sb97  1  0.82452624  0.83235333  0.66593984  1
  Sb  Sb98  1  -0.00076870  0.50210766  0.83043005  1
  Sb  Sb99  1  0.16814403  0.49800274  0.33061726  1
  Sb  Sb100  1  0.16508821  -0.00245823  0.50556626  1
  Sb  Sb101  1  0.16284335  0.66673900  0.50234459  1
  Sb  Sb102  1  0.67203273  0.83068864  0.17072696  1
  Sb  Sb103  1  -0.00558759  0.16124930  0.16388198  1
  Sb  Sb104  1  0.33948397  0.83375554  0.49737626  1
  Sb  Sb105  1  -0.00913720  -0.00595035  0.67095673  1
  Sb  Sb106  1  0.67014169  0.16315843  0.82848072  1
  Sb  Sb107  1  0.16186739  0.16651040  -0.00358225  1
  Te  Te108  1  0.16731346  0.16682220  0.16629597  1
  Te  Te109  1  0.16378085  0.16615836  0.49987102  1
  Te  Te110  1  0.16854311  0.16676745  0.83384211  1
  Te  Te111  1  0.16818144  0.50044089  0.15636235  1
  Te  Te112  1  0.15824926  0.49912163  0.49785493  1
  Te  Te113  1  0.17050627  0.49688874  0.83807903  1
  Te  Te114  1  0.16431383  0.83401362  0.16092549  1
  Te  Te115  1  0.15837450  0.83369096  0.49900169  1
  Te  Te116  1  0.16685366  0.83680744  0.83892051  1
  Te  Te117  1  0.50108798  0.16521997  0.16858782  1
  Te  Te118  1  0.50555379  0.16438405  0.49559926  1
  Te  Te119  1  0.50236899  0.16760833  0.84544370  1
  Te  Te120  1  0.50000099  0.50872192  0.16080936  1
  Te  Te121  1  0.50026456  0.50145547  0.50187186  1
  Te  Te122  1  0.49719261  0.49951779  0.83525817  1
  Te  Te123  1  0.50077282  0.82736692  0.16948403  1
  Te  Te124  1  0.50078496  0.83235122  0.50031942  1
  Te  Te125  1  0.50298514  0.83462096  0.82908163  1
  Te  Te126  1  0.83343594  0.16323999  0.17039098  1
  Te  Te127  1  0.82557019  0.16741413  0.49785332  1
  Te  Te128  1  0.83247328  0.17248280  0.83256626  1
  Te  Te129  1  0.83345318  0.50589241  0.16647300  1
  Te  Te130  1  0.83086397  0.49940206  0.49932985  1
  Te  Te131  1  0.83220524  0.49785739  0.83908788  1
  Te  Te132  1  0.83205645  0.83201787  0.16923355  1
  Te  Te133  1  0.83026630  0.83295352  0.50196875  1
  Te  Te134  1  0.83362492  0.83184326  0.83015756  1
  Te  Te135  1  0.16180736  -0.00165631  -0.00620547  1
  Te  Te136  1  0.17590558  0.00110242  0.33374078  1
  Te  Te137  1  0.17051268  0.00121608  0.67352326  1
  Te  Te138  1  0.16515096  0.33559000  -0.00742354  1
  Te  Te139  1  0.16898960  0.33202789  0.33256764  1
  Te  Te140  1  0.17205661  0.33290821  0.67405846  1
  Te  Te141  1  0.16586197  0.66625672  -0.00108384  1
  Te  Te142  1  0.16899684  0.66482963  0.33330422  1
  Te  Te143  1  0.16561426  0.66657159  0.66672019  1
  Te  Te144  1  0.50072506  0.00268302  0.00208365  1
  Te  Te145  1  0.49847929  -0.00655399  0.33626857  1
  Te  Te146  1  0.50358095  0.00387186  0.66209526  1
  Te  Te147  1  0.50271124  0.33451878  0.00281217  1
  Te  Te148  1  0.50288835  0.33546238  0.33461966  1
  Te  Te149  1  0.50224097  0.33334782  0.66230372  1
  Te  Te150  1  0.50219564  0.66395801  -0.00100906  1
  Te  Te151  1  0.50076358  0.66721290  0.33472735  1
  Te  Te152  1  0.50612159  0.66578862  0.66598910  1
  Te  Te153  1  0.83520973  0.00050183  -0.00322738  1
  Te  Te154  1  0.83365260  -0.00242185  0.33986852  1
  Te  Te155  1  0.83153108  0.00602480  0.66499040  1
  Te  Te156  1  0.83512860  0.32498234  -0.00102464  1
  Te  Te157  1  0.82934568  0.33719842  0.32961240  1
  Te  Te158  1  0.83150624  0.33459717  0.66931507  1
  Te  Te159  1  0.83380821  0.66831049  -0.00228396  1
  Te  Te160  1  0.83397877  0.66578550  0.34336640  1
  Te  Te161  1  0.83010964  0.66327634  0.66137094  1
  Te  Te162  1  -0.00587134  0.17608675  -0.00028669  1
  Te  Te163  1  -0.00598613  0.16732090  0.33343258  1
  Te  Te164  1  -0.00734079  0.17459636  0.66603634  1
  Te  Te165  1  -0.00625445  0.49869788  -0.00073772  1
  Te  Te166  1  -0.00166556  0.49929826  0.33639257  1
  Te  Te167  1  0.00276572  0.50200649  0.66421260  1
  Te  Te168  1  -0.00518143  0.83299103  -0.00293029  1
  Te  Te169  1  -0.00411012  0.83448109  0.34074761  1
  Te  Te170  1  0.00452691  0.82863669  0.66661401  1
  Te  Te171  1  0.33772988  0.16722064  0.00053057  1
  Te  Te172  1  0.33782696  0.16704869  0.33346588  1
  Te  Te173  1  0.33188868  0.17008938  0.66664606  1
  Te  Te174  1  0.34293130  0.49998540  -0.00373041  1
  Te  Te175  1  0.33627710  0.49376180  0.33254909  1
  Te  Te176  1  0.33718712  0.49944900  0.66934307  1
  Te  Te177  1  0.33774880  0.83369326  0.00451709  1
  Te  Te178  1  0.33070493  0.83628151  0.32974014  1
  Te  Te179  1  0.33887813  0.83345352  0.66665574  1
  Te  Te180  1  0.66921416  0.16876726  -0.00008886  1
  Te  Te181  1  0.66638072  0.16872270  0.33635305  1
  Te  Te182  1  0.66995582  0.17359992  0.66289474  1
  Te  Te183  1  0.67041705  0.50287913  -0.00130125  1
  Te  Te184  1  0.66547970  0.49806141  0.33666857  1
  Te  Te185  1  0.66244980  0.49868462  0.66439465  1
  Te  Te186  1  0.67319940  0.82840926  -0.00507653  1
  Te  Te187  1  0.66886928  0.83377658  0.33861611  1
  Te  Te188  1  0.66209559  0.83203302  0.66546470  1
  Te  Te189  1  -0.00486699  -0.00577888  0.16251810  1
  Te  Te190  1  -0.00280435  -0.00273787  0.50137810  1
  Te  Te191  1  -0.00318058  -0.00256701  0.83466466  1
  Te  Te192  1  0.00196475  0.33381434  0.16502072  1
  Te  Te193  1  0.00331289  0.33358731  0.50598551  1
  Te  Te194  1  -0.00250130  0.33385512  0.83053441  1
  Te  Te195  1  -0.00472771  0.67253157  0.16419922  1
  Te  Te196  1  -0.00212102  0.66624757  0.50256273  1
  Te  Te197  1  -0.00385988  0.66924656  0.83099653  1
  Te  Te198  1  0.33436434  -0.00573992  0.16707703  1
  Te  Te199  1  0.33210369  0.00036394  0.50260141  1
  Te  Te200  1  0.33546545  -0.00002578  0.82656982  1
  Te  Te201  1  0.33253962  0.33171069  0.17060453  1
  Te  Te202  1  0.33762172  0.33339093  0.50048836  1
  Te  Te203  1  0.33749052  0.33719181  0.82893315  1
  Te  Te204  1  0.33354132  0.67276214  0.16726679  1
  Te  Te205  1  0.33249171  0.66666356  0.50704476  1
  Te  Te206  1  0.33133396  0.66188871  0.82771445  1
  Te  Te207  1  0.67437751  -0.00160291  0.16257222  1
  Te  Te208  1  0.66676408  -0.00303841  0.50253301  1
  Te  Te209  1  0.67233065  -0.00437159  0.82577616  1
  Te  Te210  1  0.66664476  0.33360428  0.17289845  1
  Te  Te211  1  0.66460431  0.33611477  0.50007698  1
  Te  Te212  1  0.67253032  0.33333420  0.82780182  1
  Te  Te213  1  0.66867721  0.66670982  0.15714213  1
  Te  Te214  1  0.66606524  0.66576066  0.50095512  1
  Te  Te215  1  0.67192404  0.66859810  0.82992621  1
