# generated using pymatgen
data_AgSbTe2
_symmetry_space_group_name_H-M   'P 1'
_cell_length_a   18.32510890
_cell_length_b   18.33217161
_cell_length_c   18.32134270
_cell_angle_alpha   89.99883873
_cell_angle_beta   90.00005593
_cell_angle_gamma   89.99712837
_symmetry_Int_Tables_number   1
_chemical_formula_structural   AgSbTe2
_chemical_formula_sum   'Ag54 Sb54 Te108'
_cell_volume   6154.85428749
_cell_formula_units_Z   54
loop_
 _symmetry_equiv_pos_site_id
 _symmetry_equiv_pos_as_xyz
  1  'x, y, z'
loop_
 _atom_site_type_symbol
 _atom_site_label
 _atom_site_symmetry_multiplicity
 _atom_site_fract_x
 _atom_site_fract_y
 _atom_site_fract_z
 _atom_site_occupancy
  Ag  Ag0  1  0.82802549  -0.00848260  0.83371036  1
  Ag  Ag1  1  0.66315228  0.16781774  0.50338784  1
  Ag  Ag2  1  0.17455389  0.50398381  0.66860306  1
  Ag  Ag3  1  0.66958095  0.00042614  0.00439452  1
  Ag  Ag4  1  0.50525872  0.16795240  0.65889230  1
  Ag  Ag5  1  0.82794905  -0.00552923  0.16701512  1
  Ag  Ag6  1  0.34139481  0.33646333  0.66227907  1
  Ag  Ag7  1  0.17166254  0.65760895  0.16615161  1
  Ag  Ag8  1  0.66734700  0.66123571  0.66741493  1
  Ag  Ag9  1  0.82645759  0.83221439  0.67068644  1
  Ag  Ag10  1  0.49542869  0.65934464  0.17135044  1
  Ag  Ag11  1  0.16811258  0.82559897  0.67190299  1
  Ag  Ag12  1  0.01067554  0.49596313  0.16786447  1
  Ag  Ag13  1  0.34522868  0.16805768  0.50237033  1
  Ag  Ag14  1  0.66910070  -0.00275965  0.32833728  1
  Ag  Ag15  1  0.50268120  0.17101697  0.33570106  1
  Ag  Ag16  1  0.67073586  0.83161161  0.83126779  1
  Ag  Ag17  1  0.83014775  0.83245872  0.32513132  1
  Ag  Ag18  1  0.66895039  0.16304952  0.17115033  1
  Ag  Ag19  1  0.16941811  0.17427528  0.00280049  1
  Ag  Ag20  1  0.32418318  0.50188181  0.17616472  1
  Ag  Ag21  1  0.16662811  0.34497776  0.16474476  1
  Ag  Ag22  1  0.82940848  0.83508435  0.00440006  1
  Ag  Ag23  1  0.82863702  0.67245646  0.83145769  1
  Ag  Ag24  1  0.83084517  0.66894328  0.16988941  1
  Ag  Ag25  1  -0.00644016  0.66676733  0.32673787  1
  Ag  Ag26  1  0.33310917  0.50075702  0.83022155  1
  Ag  Ag27  1  0.16439460  -0.00687582  0.83191350  1
  Ag  Ag28  1  0.16803447  0.49656244  0.01177700  1
  Ag  Ag29  1  0.34098122  0.00138812  0.66695526  1
  Ag  Ag30  1  0.83342419  0.33327641  0.16859826  1
  Ag  Ag31  1  0.66768887  0.49423691  0.50672176  1
  Ag  Ag32  1  0.66353577  0.33211474  0.66475775  1
  Ag  Ag33  1  0.82120367  0.50102534  0.66905745  1
  Ag  Ag34  1  0.82847577  0.33368444  0.49832312  1
  Ag  Ag35  1  0.66434277  0.50479015  0.82639055  1
  Ag  Ag36  1  0.50096599  0.16873204  0.00388364  1
  Ag  Ag37  1  -0.01053614  0.17541226  0.16658360  1
  Ag  Ag38  1  0.82270039  0.16746515  0.66624968  1
  Ag  Ag39  1  0.00084467  0.33281970  0.00611753  1
  Ag  Ag40  1  0.33508991  0.66067378  0.66538472  1
  Ag  Ag41  1  0.16594656  0.66470419  0.83222495  1
  Ag  Ag42  1  0.66695564  0.00509441  0.66623602  1
  Ag  Ag43  1  0.49612913  0.49596595  0.32925486  1
  Ag  Ag44  1  0.67036166  0.83724093  0.16683779  1
  Ag  Ag45  1  0.33622864  0.65967332  0.32599999  1
  Ag  Ag46  1  -0.01224136  -0.00293762  0.32887329  1
  Ag  Ag47  1  0.33775449  0.34089001  0.33253995  1
  Ag  Ag48  1  0.33727766  0.82180085  0.16869526  1
  Ag  Ag49  1  0.50338284  0.00830342  0.50119924  1
  Ag  Ag50  1  0.66717626  0.66876473  0.32816175  1
  Ag  Ag51  1  0.50071481  0.33427189  0.83178535  1
  Ag  Ag52  1  0.17576803  0.50301863  0.32237228  1
  Ag  Ag53  1  0.50016254  0.33507572  0.16841331  1
  Sb  Sb54  1  0.16262472  0.83062200  -0.00329042  1
  Sb  Sb55  1  0.83483591  0.50270936  -0.00193567  1
  Sb  Sb56  1  0.83116687  0.50363456  0.33356724  1
  Sb  Sb57  1  0.16327249  0.82654074  0.33372648  1
  Sb  Sb58  1  0.50724911  0.83861589  0.00296433  1
  Sb  Sb59  1  -0.00301883  0.33519064  0.67169981  1
  Sb  Sb60  1  0.82547482  0.00434326  0.49950761  1
  Sb  Sb61  1  -0.00442537  0.49936299  0.49518342  1
  Sb  Sb62  1  0.50213797  0.66772083  0.49552897  1
  Sb  Sb63  1  0.66191393  0.33410197  0.33688324  1
  Sb  Sb64  1  0.17071728  0.00177759  0.50473109  1
  Sb  Sb65  1  0.33525185  0.17185193  0.82839617  1
  Sb  Sb66  1  -0.00017550  0.66150148  0.00690396  1
  Sb  Sb67  1  0.33431852  0.83544797  0.49826450  1
  Sb  Sb68  1  -0.00968854  0.83245681  0.83278926  1
  Sb  Sb69  1  0.82929529  0.66315942  0.50038961  1
  Sb  Sb70  1  0.33741394  0.82824212  0.83454892  1
  Sb  Sb71  1  0.00271298  0.50132314  0.83769858  1
  Sb  Sb72  1  0.50182768  0.66008578  0.83576276  1
  Sb  Sb73  1  0.16863590  0.66354130  0.49916464  1
  Sb  Sb74  1  0.16528530  0.33462702  0.49569612  1
  Sb  Sb75  1  0.50338616  0.83662093  0.66728825  1
  Sb  Sb76  1  0.00253602  0.33534572  0.32499628  1
  Sb  Sb77  1  -0.00200945  0.83359885  0.49935887  1
  Sb  Sb78  1  -0.00184454  0.66488564  0.66427936  1
  Sb  Sb79  1  0.66783793  0.83612679  0.49934856  1
  Sb  Sb80  1  -0.00620480  0.00433473  0.00511327  1
  Sb  Sb81  1  0.82707149  0.33533340  0.83331909  1
  Sb  Sb82  1  0.66571779  0.50060302  0.16706596  1
  Sb  Sb83  1  -0.00524374  0.00064938  0.66358394  1
  Sb  Sb84  1  0.50230923  0.49495311  0.66266701  1
  Sb  Sb85  1  0.33174412  0.33421350  0.00385990  1
  Sb  Sb86  1  -0.00539777  0.16738727  0.49320943  1
  Sb  Sb87  1  0.83018078  0.16318360  0.00072374  1
  Sb  Sb88  1  0.17054933  0.16794732  0.67179588  1
  Sb  Sb89  1  0.33697743  0.00150486  -0.00425461  1
  Sb  Sb90  1  0.16274380  -0.00121338  0.16261251  1
  Sb  Sb91  1  0.66654953  0.16479469  0.82946877  1
  Sb  Sb92  1  0.66778705  0.32901130  -0.00144354  1
  Sb  Sb93  1  0.49596303  0.49522812  0.00442938  1
  Sb  Sb94  1  0.33882959  0.17113903  0.17125594  1
  Sb  Sb95  1  0.33247829  0.66413803  0.00405838  1
  Sb  Sb96  1  0.33835928  -0.00045538  0.33594590  1
  Sb  Sb97  1  0.17054515  0.17067688  0.32687173  1
  Sb  Sb98  1  -0.00662747  0.82995327  0.16768109  1
  Sb  Sb99  1  0.50577556  0.83229283  0.32969356  1
  Sb  Sb100  1  0.50753922  0.00477068  0.17046556  1
  Sb  Sb101  1  0.50461136  0.00574718  0.82956632  1
  Sb  Sb102  1  -0.00065863  0.16575201  0.83910352  1
  Sb  Sb103  1  0.82526964  0.16374859  0.33207219  1
  Sb  Sb104  1  0.17325631  0.33915865  0.83787946  1
  Sb  Sb105  1  0.50446377  0.32817689  0.49922249  1
  Sb  Sb106  1  0.66885172  0.67094646  0.00134713  1
  Sb  Sb107  1  0.33955099  0.49528305  0.49809987  1
  Te  Te108  1  0.16817539  0.16538336  0.16167471  1
  Te  Te109  1  0.16835419  0.16754342  0.49938036  1
  Te  Te110  1  0.16700655  0.16515515  0.84060306  1
  Te  Te111  1  0.16783104  0.50132099  0.16726815  1
  Te  Te112  1  0.16504633  0.49809934  0.50886601  1
  Te  Te113  1  0.16894105  0.50397715  0.82728682  1
  Te  Te114  1  0.16911390  0.82824948  0.16503916  1
  Te  Te115  1  0.16681161  0.83411459  0.51053599  1
  Te  Te116  1  0.16935187  0.82997132  0.83132631  1
  Te  Te117  1  0.50313025  0.17037013  0.16925140  1
  Te  Te118  1  0.50273410  0.16676104  0.50001284  1
  Te  Te119  1  0.49976135  0.17316433  0.83613747  1
  Te  Te120  1  0.49909243  0.49842211  0.16949614  1
  Te  Te121  1  0.50725235  0.50075864  0.49049494  1
  Te  Te122  1  0.49829551  0.49510312  0.83554381  1
  Te  Te123  1  0.50281682  0.82869044  0.16624855  1
  Te  Te124  1  0.49948474  0.84438956  0.49866147  1
  Te  Te125  1  0.50934638  0.83162922  0.83578971  1
  Te  Te126  1  0.83026295  0.16739488  0.16600085  1
  Te  Te127  1  0.82791534  0.17177802  0.50386254  1
  Te  Te128  1  0.83436200  0.16282826  0.82792214  1
  Te  Te129  1  0.83402892  0.50183281  0.16519790  1
  Te  Te130  1  0.82844215  0.49495444  0.50498633  1
  Te  Te131  1  0.83225305  0.50392985  0.82996452  1
  Te  Te132  1  0.83147177  0.83300864  0.16755921  1
  Te  Te133  1  0.83324034  0.83343659  0.50616225  1
  Te  Te134  1  0.82868978  0.83270420  0.82978024  1
  Te  Te135  1  0.16615423  -0.00002321  -0.00711925  1
  Te  Te136  1  0.16695301  -0.00253672  0.33413958  1
  Te  Te137  1  0.16505185  -0.00001099  0.67242472  1
  Te  Te138  1  0.16613772  0.33468887  0.00387022  1
  Te  Te139  1  0.17180917  0.33863395  0.32804472  1
  Te  Te140  1  0.16875871  0.33738222  0.66734039  1
  Te  Te141  1  0.16584378  0.66247388  -0.00127149  1
  Te  Te142  1  0.17242798  0.66358461  0.33090765  1
  Te  Te143  1  0.16487951  0.66620196  0.66775244  1
  Te  Te144  1  0.50623018  0.00772147  -0.00097892  1
  Te  Te145  1  0.50528704  0.00426989  0.33767602  1
  Te  Te146  1  0.50082120  0.00390937  0.66545573  1
  Te  Te147  1  0.49951553  0.32824592  0.00352364  1
  Te  Te148  1  0.49765634  0.33259276  0.33053544  1
  Te  Te149  1  0.50088669  0.33020340  0.66675083  1
  Te  Te150  1  0.50045723  0.66741456  0.00940853  1
  Te  Te151  1  0.50040344  0.66643757  0.33037669  1
  Te  Te152  1  0.50167500  0.66712080  0.66648774  1
  Te  Te153  1  0.82910254  -0.00227458  -0.00030394  1
  Te  Te154  1  0.82928180  -0.00227743  0.33203132  1
  Te  Te155  1  0.83144147  -0.00100444  0.66735334  1
  Te  Te156  1  0.83686947  0.33319652  0.00511136  1
  Te  Te157  1  0.83322617  0.33428972  0.32913632  1
  Te  Te158  1  0.83067545  0.33560385  0.66856523  1
  Te  Te159  1  0.83464172  0.67098785  -0.00283824  1
  Te  Te160  1  0.82897081  0.66917776  0.33285786  1
  Te  Te161  1  0.83136501  0.66499873  0.66831115  1
  Te  Te162  1  0.00312035  0.17050867  0.00634598  1
  Te  Te163  1  0.00158753  0.16288476  0.32559183  1
  Te  Te164  1  -0.00370981  0.16772906  0.66439319  1
  Te  Te165  1  0.00487693  0.49516179  0.00535902  1
  Te  Te166  1  0.00191211  0.50389911  0.32867895  1
  Te  Te167  1  0.00067606  0.49991520  0.66528425  1
  Te  Te168  1  -0.00947437  0.83461930  0.00008756  1
  Te  Te169  1  -0.00515324  0.83291199  0.33355090  1
  Te  Te170  1  0.00223184  0.83295934  0.66625547  1
  Te  Te171  1  0.33377521  0.16632063  -0.00037288  1
  Te  Te172  1  0.33823229  0.16707334  0.33904267  1
  Te  Te173  1  0.33483237  0.16625768  0.66320394  1
  Te  Te174  1  0.32774868  0.49938251  -0.00628259  1
  Te  Te175  1  0.33407666  0.50093937  0.33463053  1
  Te  Te176  1  0.33612187  0.49939221  0.66433636  1
  Te  Te177  1  0.33362479  0.83425629  0.00758605  1
  Te  Te178  1  0.33252649  0.82924125  0.32930570  1
  Te  Te179  1  0.33138420  0.83363042  0.66675619  1
  Te  Te180  1  0.66350056  0.16229723  0.00376822  1
  Te  Te181  1  0.66294785  0.16631030  0.33196575  1
  Te  Te182  1  0.66542818  0.16718899  0.66724608  1
  Te  Te183  1  0.66539154  0.49878061  -0.00993671  1
  Te  Te184  1  0.66348213  0.50438030  0.33433188  1
  Te  Te185  1  0.66437403  0.50025832  0.66703183  1
  Te  Te186  1  0.67129398  0.83838866  0.00297552  1
  Te  Te187  1  0.67065528  0.83179456  0.33226332  1
  Te  Te188  1  0.66807148  0.83227612  0.66662447  1
  Te  Te189  1  -0.00495223  0.00283742  0.17062099  1
  Te  Te190  1  0.00116067  0.00142616  0.48932717  1
  Te  Te191  1  -0.00014829  -0.00021982  0.83356723  1
  Te  Te192  1  -0.00048927  0.33431947  0.16567435  1
  Te  Te193  1  -0.00965999  0.33241656  0.49969537  1
  Te  Te194  1  0.00031293  0.33322659  0.84263996  1
  Te  Te195  1  -0.00252531  0.66384018  0.16969794  1
  Te  Te196  1  0.00021887  0.66621583  0.48666630  1
  Te  Te197  1  0.00149345  0.66635831  0.83324893  1
  Te  Te198  1  0.33351030  -0.00398221  0.16581965  1
  Te  Te199  1  0.33756079  0.00428508  0.50550569  1
  Te  Te200  1  0.33133513  -0.00254597  0.82774108  1
  Te  Te201  1  0.33483542  0.33632261  0.17018067  1
  Te  Te202  1  0.33105145  0.32907989  0.50085640  1
  Te  Te203  1  0.33853026  0.33869945  0.82780019  1
  Te  Te204  1  0.33287447  0.66284483  0.16675568  1
  Te  Te205  1  0.33521543  0.66678874  0.50573198  1
  Te  Te206  1  0.33298442  0.66263122  0.82787378  1
  Te  Te207  1  0.66856020  -0.00065062  0.16862303  1
  Te  Te208  1  0.66369477  0.00372321  0.50348487  1
  Te  Te209  1  0.66905585  -0.00198203  0.82799537  1
  Te  Te210  1  0.66667868  0.33118329  0.16652546  1
  Te  Te211  1  0.66994214  0.33175138  0.50326035  1
  Te  Te212  1  0.66229438  0.33669271  0.82874882  1
  Te  Te213  1  0.67128526  0.66699154  0.16787591  1
  Te  Te214  1  0.66562604  0.66327585  0.50323232  1
  Te  Te215  1  0.66756363  0.66669144  0.83202353  1
