# generated using pymatgen
data_AgSbTe2
_symmetry_space_group_name_H-M   'P 1'
_cell_length_a   18.34934039
_cell_length_b   18.34872882
_cell_length_c   18.34514041
_cell_angle_alpha   89.99957168
_cell_angle_beta   89.99890288
_cell_angle_gamma   89.99920377
_symmetry_Int_Tables_number   1
_chemical_formula_structural   AgSbTe2
_chemical_formula_sum   'Ag54 Sb54 Te108'
_cell_volume   6176.57158712
_cell_formula_units_Z   54
loop_
 _symmetry_equiv_pos_site_id
 _symmetry_equiv_pos_as_xyz
  1  'x, y, z'
loop_
 _atom_site_type_symbol
 _atom_site_label
 _atom_site_symmetry_multiplicity
 _atom_site_fract_x
 _atom_site_fract_y
 _atom_site_fract_z
 _atom_site_occupancy
  Ag  Ag0  1  0.49339114  0.83040475  0.66155558  1
  Ag  Ag1  1  0.66941127  0.50304299  0.17196088  1
  Ag  Ag2  1  0.16962340  0.50053774  0.00488305  1
  Ag  Ag3  1  0.65653454  0.82476662  0.16999833  1
  Ag  Ag4  1  0.66548509  0.49369235  0.49393588  1
  Ag  Ag5  1  0.49793371  0.33271211  0.49878828  1
  Ag  Ag6  1  0.00732580  0.00720243  0.33390147  1
  Ag  Ag7  1  0.16370362  0.66635951  0.50004384  1
  Ag  Ag8  1  0.32731392  0.15870388  0.17582112  1
  Ag  Ag9  1  0.16198244  0.32565214  0.17522406  1
  Ag  Ag10  1  0.82944323  0.66555841  0.83806941  1
  Ag  Ag11  1  0.16073360  0.33000641  0.49381574  1
  Ag  Ag12  1  0.33196714  0.84287377  0.16509182  1
  Ag  Ag13  1  0.16857092  0.00550288  0.17381750  1
  Ag  Ag14  1  0.32973799  0.48812555  0.49871647  1
  Ag  Ag15  1  0.00507995  0.84056936  0.16924310  1
  Ag  Ag16  1  0.16714798  0.00546983  0.49360727  1
  Ag  Ag17  1  0.50150963  0.50256137  0.66299979  1
  Ag  Ag18  1  0.84498475  0.33018659  0.49930410  1
  Ag  Ag19  1  0.00045562  0.66385073  0.65489279  1
  Ag  Ag20  1  0.49880298  0.34221181  0.82206354  1
  Ag  Ag21  1  0.16749372  0.16666281  0.33346200  1
  Ag  Ag22  1  0.33363302  0.15904781  0.83164025  1
  Ag  Ag23  1  0.00196425  0.33499949  0.01433041  1
  Ag  Ag24  1  0.83086516  0.66917172  0.16734982  1
  Ag  Ag25  1  0.48921551  0.00717531  0.49570900  1
  Ag  Ag26  1  0.85053058  0.00808957  0.49491093  1
  Ag  Ag27  1  0.00683187  0.16827206  0.17728522  1
  Ag  Ag28  1  0.84179445  -0.00721488  0.17490513  1
  Ag  Ag29  1  0.00149797  0.48876973  0.49513188  1
  Ag  Ag30  1  0.83636532  0.50182148  0.66171956  1
  Ag  Ag31  1  -0.00188280  0.49699508  0.17629423  1
  Ag  Ag32  1  0.00213637  0.33871935  0.65056284  1
  Ag  Ag33  1  0.32583199  0.32608051  0.33649359  1
  Ag  Ag34  1  0.49977617  0.83495001  0.32875947  1
  Ag  Ag35  1  0.67175999  0.65990105  0.33001006  1
  Ag  Ag36  1  0.32979979  -0.00141182  0.65696256  1
  Ag  Ag37  1  0.50180079  0.66265490  0.83423936  1
  Ag  Ag38  1  0.49638741  0.49887663  0.00067168  1
  Ag  Ag39  1  0.16999788  0.83562441  0.66572287  1
  Ag  Ag40  1  0.66335805  0.17430354  0.49804865  1
  Ag  Ag41  1  0.66556180  0.33757180  0.33574384  1
  Ag  Ag42  1  0.00823845  -0.00141879  0.65271723  1
  Ag  Ag43  1  0.66744038  0.33614591  0.01298328  1
  Ag  Ag44  1  0.50451204  0.67074801  0.17037560  1
  Ag  Ag45  1  0.00656126  0.17404716  0.49676479  1
  Ag  Ag46  1  0.32913826  0.16839779  0.49527588  1
  Ag  Ag47  1  0.00728022  0.32786083  0.33279075  1
  Ag  Ag48  1  0.17005725  0.83126958  0.00778317  1
  Ag  Ag49  1  0.33361614  0.84040811  0.83713664  1
  Ag  Ag50  1  0.33168468  -0.00016474  0.01688000  1
  Ag  Ag51  1  -0.00016544  0.66418217  0.33344385  1
  Ag  Ag52  1  0.32625242  0.00602148  0.33414685  1
  Ag  Ag53  1  0.48435009  -0.00941851  0.17747822  1
  Sb  Sb54  1  0.16691500  0.50213906  0.66202730  1
  Sb  Sb55  1  0.16835707  0.16688980  0.00811820  1
  Sb  Sb56  1  0.66422710  -0.00210758  0.66102075  1
  Sb  Sb57  1  0.66710590  0.16885256  0.17469641  1
  Sb  Sb58  1  0.66020573  0.17069351  0.82812665  1
  Sb  Sb59  1  0.49685905  0.33357071  0.17227839  1
  Sb  Sb60  1  0.33161881  0.67174525  0.66388076  1
  Sb  Sb61  1  0.83924105  0.83225645  0.00533914  1
  Sb  Sb62  1  0.83642694  0.17036319  0.66058305  1
  Sb  Sb63  1  0.00491877  0.83210322  0.83533963  1
  Sb  Sb64  1  0.33571888  0.50050268  0.82913572  1
  Sb  Sb65  1  0.83433536  0.16781517  0.00377287  1
  Sb  Sb66  1  0.33100023  0.32961823  0.65793636  1
  Sb  Sb67  1  0.49729843  0.16701077  0.66112713  1
  Sb  Sb68  1  -0.00037979  0.50021239  0.83028379  1
  Sb  Sb69  1  0.49766456  0.17154095  0.00105508  1
  Sb  Sb70  1  0.50202330  0.50231407  0.33490017  1
  Sb  Sb71  1  0.65902487  0.00335960  0.00771715  1
  Sb  Sb72  1  0.84039569  0.16651215  0.33627548  1
  Sb  Sb73  1  0.33203939  0.32992737  0.00534336  1
  Sb  Sb74  1  0.16401445  0.49480442  0.33305123  1
  Sb  Sb75  1  0.17046143  0.33318356  0.83364682  1
  Sb  Sb76  1  0.66874793  0.66471979  0.66019382  1
  Sb  Sb77  1  0.66544001  0.00299716  0.33442897  1
  Sb  Sb78  1  0.83308568  0.49894004  0.00020498  1
  Sb  Sb79  1  0.00616061  0.16769993  0.83017733  1
  Sb  Sb80  1  0.49333452  0.16288750  0.33460355  1
  Sb  Sb81  1  0.66679820  0.33655266  0.65722586  1
  Sb  Sb82  1  0.00114269  0.83575085  0.49414214  1
  Sb  Sb83  1  0.16738363  0.16122180  0.65661804  1
  Sb  Sb84  1  0.49441579  0.83035831  0.00550783  1
  Sb  Sb85  1  0.83441214  0.49786520  0.33783336  1
  Sb  Sb86  1  0.66405151  0.66202962  0.00953749  1
  Sb  Sb87  1  0.66346085  0.83281524  0.49413547  1
  Sb  Sb88  1  0.16771554  0.66816156  0.82951737  1
  Sb  Sb89  1  0.00626898  0.00361228  0.01115026  1
  Sb  Sb90  1  0.33102109  0.66871631  0.33531519  1
  Sb  Sb91  1  0.83635490  -0.00482921  0.82995385  1
  Sb  Sb92  1  0.83934151  0.33365007  0.17354055  1
  Sb  Sb93  1  0.16502477  0.66872274  0.17169092  1
  Sb  Sb94  1  0.16781248  0.83926292  0.33316467  1
  Sb  Sb95  1  0.49480060  -0.00125254  0.83090043  1
  Sb  Sb96  1  0.83832917  0.82989119  0.66495765  1
  Sb  Sb97  1  0.82935478  0.33793078  0.82776502  1
  Sb  Sb98  1  0.33274447  0.84168857  0.49698867  1
  Sb  Sb99  1  0.83174639  0.83411136  0.33111565  1
  Sb  Sb100  1  0.83779485  0.66347713  0.49573268  1
  Sb  Sb101  1  0.00002596  0.66259282  0.00613138  1
  Sb  Sb102  1  0.17004769  -0.00016094  0.83235331  1
  Sb  Sb103  1  0.65844682  0.83096954  0.83867795  1
  Sb  Sb104  1  0.66513467  0.50039811  0.83391836  1
  Sb  Sb105  1  0.33233169  0.49936633  0.17106456  1
  Sb  Sb106  1  0.49588855  0.66440490  0.49781748  1
  Sb  Sb107  1  0.33412002  0.66960377  0.00079909  1
  Te  Te108  1  0.16623870  0.16661001  0.16889324  1
  Te  Te109  1  0.16674128  0.16796493  0.49698990  1
  Te  Te110  1  0.17530365  0.16815873  0.83551624  1
  Te  Te111  1  0.16404397  0.50062146  0.16262748  1
  Te  Te112  1  0.16277828  0.49511547  0.50075665  1
  Te  Te113  1  0.16808313  0.50020442  0.84296350  1
  Te  Te114  1  0.16815273  0.83289280  0.16676973  1
  Te  Te115  1  0.16735146  0.83205935  0.50397599  1
  Te  Te116  1  0.17384362  0.83297047  0.83127184  1
  Te  Te117  1  0.49814541  0.16116942  0.16688684  1
  Te  Te118  1  0.49688402  0.16605079  0.50053174  1
  Te  Te119  1  0.49510436  0.17078351  0.83272738  1
  Te  Te120  1  0.50242220  0.50243693  0.16472619  1
  Te  Te121  1  0.50292845  0.50015653  0.50163425  1
  Te  Te122  1  0.49984948  0.50098035  0.83145691  1
  Te  Te123  1  0.49796021  0.83287264  0.16580910  1
  Te  Te124  1  0.49959417  0.83337950  0.50193435  1
  Te  Te125  1  0.49435098  0.82942939  0.83177561  1
  Te  Te126  1  0.83677144  0.16270431  0.16631785  1
  Te  Te127  1  0.83668217  0.16756833  0.50110231  1
  Te  Te128  1  0.83120547  0.16555967  0.83309840  1
  Te  Te129  1  0.83428317  0.50247870  0.16500827  1
  Te  Te130  1  0.83766512  0.49869089  0.50381740  1
  Te  Te131  1  0.83219405  0.50576558  0.82567950  1
  Te  Te132  1  0.84059003  0.83161304  0.16572645  1
  Te  Te133  1  0.82924888  0.84349551  0.50153011  1
  Te  Te134  1  0.83057050  0.82661549  0.83340419  1
  Te  Te135  1  0.17153984  -0.00350227  0.00199831  1
  Te  Te136  1  0.16606822  0.00015773  0.33336625  1
  Te  Te137  1  0.16649054  -0.00373522  0.66668588  1
  Te  Te138  1  0.16307891  0.33727487  0.00105818  1
  Te  Te139  1  0.16736873  0.33148055  0.33307406  1
  Te  Te140  1  0.16069507  0.33305988  0.66463434  1
  Te  Te141  1  0.16607175  0.66655651  -0.00081523  1
  Te  Te142  1  0.16241776  0.66851785  0.34006214  1
  Te  Te143  1  0.16140077  0.67058169  0.66332216  1
  Te  Te144  1  0.49240674  -0.00037537  0.00163324  1
  Te  Te145  1  0.50091584  -0.00366155  0.33424002  1
  Te  Te146  1  0.49650128  -0.00267495  0.66228975  1
  Te  Te147  1  0.50175636  0.33916967  0.00659879  1
  Te  Te148  1  0.50177709  0.33460322  0.33808732  1
  Te  Te149  1  0.49907131  0.33642072  0.66428820  1
  Te  Te150  1  0.50052391  0.66042230  -0.00185486  1
  Te  Te151  1  0.49848712  0.67254862  0.32967493  1
  Te  Te152  1  0.50075618  0.66632807  0.66812655  1
  Te  Te153  1  0.83419422  -0.00008783  -0.00045873  1
  Te  Te154  1  0.83571535  -0.00006686  0.33413803  1
  Te  Te155  1  0.83551443  -0.00082121  0.66127736  1
  Te  Te156  1  0.83352280  0.33371527  -0.00347385  1
  Te  Te157  1  0.82971189  0.33270344  0.33988550  1
  Te  Te158  1  0.83658847  0.33847423  0.66272067  1
  Te  Te159  1  0.83212378  0.66607124  -0.00072594  1
  Te  Te160  1  0.83507986  0.66786869  0.32722413  1
  Te  Te161  1  0.83820038  0.66310479  0.66513298  1
  Te  Te162  1  0.00097881  0.17295014  -0.00144948  1
  Te  Te163  1  0.00286291  0.16696734  0.33461544  1
  Te  Te164  1  0.00106570  0.16472866  0.66283466  1
  Te  Te165  1  0.00126834  0.49541987  0.00021437  1
  Te  Te166  1  -0.00033273  0.50149342  0.33520532  1
  Te  Te167  1  0.00155903  0.50083103  0.66340334  1
  Te  Te168  1  0.00809270  0.83447671  0.00437418  1
  Te  Te169  1  -0.00108446  0.82941159  0.32552891  1
  Te  Te170  1  0.00448635  0.83332885  0.66942967  1
  Te  Te171  1  0.33353304  0.16213723  -0.00139190  1
  Te  Te172  1  0.33097489  0.16687018  0.33316726  1
  Te  Te173  1  0.33322264  0.16168993  0.66852540  1
  Te  Te174  1  0.33382762  0.49885656  -0.00001877  1
  Te  Te175  1  0.33337978  0.49691309  0.33944047  1
  Te  Te176  1  0.33763501  0.49948001  0.66074707  1
  Te  Te177  1  0.33002121  0.83554681  0.00169410  1
  Te  Te178  1  0.33839624  0.83607380  0.32908018  1
  Te  Te179  1  0.33284236  0.83608080  0.66364601  1
  Te  Te180  1  0.66648255  0.17485318  -0.00036821  1
  Te  Te181  1  0.66634885  0.17262034  0.33948885  1
  Te  Te182  1  0.66741521  0.16579502  0.65876889  1
  Te  Te183  1  0.66427865  0.49519411  0.00321866  1
  Te  Te184  1  0.66673415  0.50079159  0.33265961  1
  Te  Te185  1  0.66369054  0.50104499  0.66277194  1
  Te  Te186  1  0.66824091  0.83578907  0.00989131  1
  Te  Te187  1  0.66239364  0.83229351  0.32676887  1
  Te  Te188  1  0.66091736  0.83124798  0.66947138  1
  Te  Te189  1  0.00205815  0.00152521  0.17123159  1
  Te  Te190  1  0.00560955  -0.00314465  0.49642276  1
  Te  Te191  1  -0.00059556  0.00041523  0.82815809  1
  Te  Te192  1  -0.00014072  0.33368075  0.17235175  1
  Te  Te193  1  0.00133843  0.33274941  0.49603573  1
  Te  Te194  1  -0.00102889  0.33157116  0.83535717  1
  Te  Te195  1  -0.00164873  0.65993513  0.16960595  1
  Te  Te196  1  0.00215489  0.67103314  0.49723505  1
  Te  Te197  1  -0.00208143  0.66722191  0.83193205  1
  Te  Te198  1  0.33022178  0.00018141  0.17181916  1
  Te  Te199  1  0.32976886  0.00282907  0.49653123  1
  Te  Te200  1  0.33401509  -0.00090710  0.82418172  1
  Te  Te201  1  0.32795247  0.33201564  0.17304861  1
  Te  Te202  1  0.33664906  0.32983373  0.49784562  1
  Te  Te203  1  0.33928119  0.33227626  0.83384976  1
  Te  Te204  1  0.33844949  0.66752564  0.16782643  1
  Te  Te205  1  0.32678045  0.65722563  0.49988042  1
  Te  Te206  1  0.33810091  0.66917081  0.83196913  1
  Te  Te207  1  0.67656028  0.00063272  0.16714649  1
  Te  Te208  1  0.66062382  0.00141046  0.49919591  1
  Te  Te209  1  0.66732355  0.00075320  0.83589857  1
  Te  Te210  1  0.66805758  0.33656486  0.17092535  1
  Te  Te211  1  0.65787769  0.33455697  0.49821459  1
  Te  Te212  1  0.65919607  0.33285001  0.83501013  1
  Te  Te213  1  0.66674019  0.66537895  0.16993174  1
  Te  Te214  1  0.66824817  0.66286271  0.49078082  1
  Te  Te215  1  0.66525633  0.66788949  0.83249209  1
