# generated using pymatgen
data_AgSbTe2
_symmetry_space_group_name_H-M   'P 1'
_cell_length_a   18.33378324
_cell_length_b   18.34045041
_cell_length_c   18.33796081
_cell_angle_alpha   90.00094972
_cell_angle_beta   89.99627411
_cell_angle_gamma   89.99391511
_symmetry_Int_Tables_number   1
_chemical_formula_structural   AgSbTe2
_chemical_formula_sum   'Ag54 Sb54 Te108'
_cell_volume   6166.13638096
_cell_formula_units_Z   54
loop_
 _symmetry_equiv_pos_site_id
 _symmetry_equiv_pos_as_xyz
  1  'x, y, z'
loop_
 _atom_site_type_symbol
 _atom_site_label
 _atom_site_symmetry_multiplicity
 _atom_site_fract_x
 _atom_site_fract_y
 _atom_site_fract_z
 _atom_site_occupancy
  Ag  Ag0  1  0.67208120  0.00623480  0.66664680  1
  Ag  Ag1  1  0.51212906  0.49725642  0.32682887  1
  Ag  Ag2  1  0.83027015  0.16434347  0.65296966  1
  Ag  Ag3  1  0.49868381  0.66898043  0.84052952  1
  Ag  Ag4  1  0.67376068  0.16695286  0.49909731  1
  Ag  Ag5  1  0.83212964  0.00640922  0.82994752  1
  Ag  Ag6  1  0.50993826  0.16405359  0.32740242  1
  Ag  Ag7  1  0.33635045  0.67337586  -0.00160580  1
  Ag  Ag8  1  0.82828696  0.16445373  0.33960003  1
  Ag  Ag9  1  0.50623528  -0.00151435  0.16597535  1
  Ag  Ag10  1  0.66952766  0.32522121  0.65749869  1
  Ag  Ag11  1  0.83615232  0.00773403  0.49343251  1
  Ag  Ag12  1  0.34263283  0.33222305  0.32992351  1
  Ag  Ag13  1  0.50111525  0.83444144  0.66831507  1
  Ag  Ag14  1  -0.00419263  0.00053437  0.33295675  1
  Ag  Ag15  1  -0.01416704  0.16076136  0.49022373  1
  Ag  Ag16  1  0.16988012  0.84321652  0.00140164  1
  Ag  Ag17  1  0.17021439  0.84024339  0.67008927  1
  Ag  Ag18  1  0.82931184  0.31883925  0.48796011  1
  Ag  Ag19  1  0.83604094  0.33101155  0.17220967  1
  Ag  Ag20  1  0.67117629  0.83139756  0.17389612  1
  Ag  Ag21  1  0.33487602  0.83487161  0.83691721  1
  Ag  Ag22  1  0.00082702  0.33283568  0.00304724  1
  Ag  Ag23  1  0.50583386  0.67164503  0.16494545  1
  Ag  Ag24  1  0.82622347  0.84278133  0.32919135  1
  Ag  Ag25  1  0.66725315  0.65430053  0.33004676  1
  Ag  Ag26  1  -0.00393891  0.16616589  0.16897857  1
  Ag  Ag27  1  -0.00701977  0.84187686  0.17032799  1
  Ag  Ag28  1  0.66915765  0.34106032  0.33607865  1
  Ag  Ag29  1  0.67073530  0.50364132  0.17524459  1
  Ag  Ag30  1  0.15735917  0.32928647  0.16214322  1
  Ag  Ag31  1  0.49774907  -0.00183640  0.83817741  1
  Ag  Ag32  1  0.83448640  0.32419394  0.83426140  1
  Ag  Ag33  1  0.82605500  0.66705925  0.17077778  1
  Ag  Ag34  1  0.15668715  0.00084684  0.50324032  1
  Ag  Ag35  1  0.33335172  -0.00103196  -0.00082505  1
  Ag  Ag36  1  0.66974591  0.16493572  0.82833152  1
  Ag  Ag37  1  0.82393775  0.48911718  0.32817564  1
  Ag  Ag38  1  0.66701162  0.48889740  0.48696619  1
  Ag  Ag39  1  0.50379561  0.50478438  0.67458038  1
  Ag  Ag40  1  0.17026193  0.16414433  0.00311793  1
  Ag  Ag41  1  0.16167864  0.32660835  0.83984693  1
  Ag  Ag42  1  -0.00994815  0.48874493  0.16552139  1
  Ag  Ag43  1  0.50941200  0.83718816  0.32841095  1
  Ag  Ag44  1  -0.00952974  0.00163902  0.66189644  1
  Ag  Ag45  1  0.33749523  0.50164156  0.83714905  1
  Ag  Ag46  1  0.16695128  0.00028352  0.83450808  1
  Ag  Ag47  1  0.66658308  0.83961761  0.48989711  1
  Ag  Ag48  1  0.49649789  0.16445033  0.00873528  1
  Ag  Ag49  1  -0.00007464  0.49478185  0.83919719  1
  Ag  Ag50  1  0.33256464  0.16709955  0.16494329  1
  Ag  Ag51  1  0.16350203  0.83800793  0.32985656  1
  Ag  Ag52  1  0.83152405  0.00113217  0.17696861  1
  Ag  Ag53  1  0.49850514  0.49888620  0.00208859  1
  Sb  Sb54  1  0.82963667  0.84455772  0.66040869  1
  Sb  Sb55  1  -0.00549345  0.84285563  0.49393566  1
  Sb  Sb56  1  0.66203857  0.00148212  -0.00253349  1
  Sb  Sb57  1  0.15874265  0.16001187  0.67199745  1
  Sb  Sb58  1  0.66939395  0.16522881  0.17180191  1
  Sb  Sb59  1  0.00326196  0.00519363  0.00198441  1
  Sb  Sb60  1  0.50977086  0.16352749  0.66624745  1
  Sb  Sb61  1  -0.00083353  0.67376353  0.66936163  1
  Sb  Sb62  1  0.33484976  0.83841206  0.16250252  1
  Sb  Sb63  1  0.32990070  0.33006421  0.00420924  1
  Sb  Sb64  1  -0.00742472  0.32640114  0.32420967  1
  Sb  Sb65  1  0.33607226  0.16528381  0.49035756  1
  Sb  Sb66  1  0.16408331  0.00307807  0.16432500  1
  Sb  Sb67  1  0.33758742  0.66806179  0.67397540  1
  Sb  Sb68  1  0.49625224  0.83529172  0.00126946  1
  Sb  Sb69  1  0.33931978  0.33335306  0.66588064  1
  Sb  Sb70  1  0.82987139  0.66969423  0.49175540  1
  Sb  Sb71  1  0.82711155  0.49101121  0.66311086  1
  Sb  Sb72  1  -0.00466174  0.16822360  0.83757771  1
  Sb  Sb73  1  0.16507308  0.50078589  0.33153585  1
  Sb  Sb74  1  0.33548635  0.16514449  0.83966697  1
  Sb  Sb75  1  0.15788983  0.32539048  0.49796580  1
  Sb  Sb76  1  0.83021604  0.49765116  0.00843156  1
  Sb  Sb77  1  0.65901428  0.66610454  0.00989764  1
  Sb  Sb78  1  -0.00966357  0.48936081  0.49521645  1
  Sb  Sb79  1  0.83898283  0.83661085  0.00926273  1
  Sb  Sb80  1  0.66125054  0.84006969  0.83243818  1
  Sb  Sb81  1  0.16983484  0.49635807  -0.00044623  1
  Sb  Sb82  1  0.33533724  0.00015530  0.67325904  1
  Sb  Sb83  1  0.34250753  0.49730848  0.50177070  1
  Sb  Sb84  1  0.50251156  0.66723811  0.49533851  1
  Sb  Sb85  1  0.50205577  0.33085172  0.83468587  1
  Sb  Sb86  1  0.33686384  0.83618094  0.50262619  1
  Sb  Sb87  1  0.16934890  0.50215536  0.66991141  1
  Sb  Sb88  1  0.00432816  0.83447784  0.83785923  1
  Sb  Sb89  1  0.16733388  0.66545688  0.16581756  1
  Sb  Sb90  1  0.67024366  0.33132436  0.00375914  1
  Sb  Sb91  1  0.33139613  0.00248068  0.32706099  1
  Sb  Sb92  1  0.82663230  0.66620307  0.84049655  1
  Sb  Sb93  1  0.66555685  0.66787938  0.66197251  1
  Sb  Sb94  1  0.34284896  0.66435601  0.32396904  1
  Sb  Sb95  1  0.16498110  0.67725846  0.49802767  1
  Sb  Sb96  1  0.67383225  0.00035445  0.33802587  1
  Sb  Sb97  1  -0.00710539  0.32693111  0.67228833  1
  Sb  Sb98  1  0.51083491  0.33260504  0.49684099  1
  Sb  Sb99  1  0.16242836  0.16348771  0.32762737  1
  Sb  Sb100  1  0.17301847  0.67008306  0.83555104  1
  Sb  Sb101  1  0.83255051  0.16714172  0.00455495  1
  Sb  Sb102  1  -0.00791179  0.67303417  0.32956591  1
  Sb  Sb103  1  0.50454583  0.33132190  0.16931632  1
  Sb  Sb104  1  0.50630982  -0.00041701  0.49777594  1
  Sb  Sb105  1  0.33851788  0.49471498  0.16283603  1
  Sb  Sb106  1  0.00490862  0.66286761  0.00326660  1
  Sb  Sb107  1  0.66505613  0.49471064  0.83464490  1
  Te  Te108  1  0.16555321  0.16913122  0.16342040  1
  Te  Te109  1  0.16518195  0.16057739  0.50111500  1
  Te  Te110  1  0.16700658  0.16590037  0.83869539  1
  Te  Te111  1  0.16155808  0.49518403  0.16725969  1
  Te  Te112  1  0.16535531  0.49901688  0.50221601  1
  Te  Te113  1  0.16583803  0.49943633  0.83223731  1
  Te  Te114  1  0.16654227  0.83342124  0.16702149  1
  Te  Te115  1  0.16609600  0.84088707  0.50025743  1
  Te  Te116  1  0.16967087  0.83620909  0.83402219  1
  Te  Te117  1  0.50302925  0.16487280  0.16796089  1
  Te  Te118  1  0.50436574  0.16570427  0.49321146  1
  Te  Te119  1  0.50291327  0.16203047  0.83327068  1
  Te  Te120  1  0.50217980  0.49864275  0.16716394  1
  Te  Te121  1  0.50682165  0.50032872  0.49673545  1
  Te  Te122  1  0.49895286  0.49829118  0.83527150  1
  Te  Te123  1  0.49972040  0.83534598  0.16782992  1
  Te  Te124  1  0.50445083  0.83352412  0.49946649  1
  Te  Te125  1  0.49723364  0.83647009  0.83351242  1
  Te  Te126  1  0.83525857  0.16404443  0.16803185  1
  Te  Te127  1  0.83080923  0.16416104  0.49851922  1
  Te  Te128  1  0.83061107  0.16543726  0.83931522  1
  Te  Te129  1  0.83195998  0.49646554  0.16806165  1
  Te  Te130  1  0.82686133  0.50082914  0.49455210  1
  Te  Te131  1  0.83641336  0.50059285  0.83328210  1
  Te  Te132  1  0.83369808  0.83986006  0.16948693  1
  Te  Te133  1  0.82788787  0.83735915  0.49364818  1
  Te  Te134  1  0.83381493  0.83466409  0.83342484  1
  Te  Te135  1  0.16878628  0.00264560  -0.00212608  1
  Te  Te136  1  0.16313448  -0.00293635  0.33375371  1
  Te  Te137  1  0.16860943  -0.00233507  0.67219813  1
  Te  Te138  1  0.16404799  0.33084474  0.00017722  1
  Te  Te139  1  0.16745978  0.33315334  0.33007174  1
  Te  Te140  1  0.16691032  0.33290834  0.67111559  1
  Te  Te141  1  0.17484652  0.67146257  0.00051215  1
  Te  Te142  1  0.16921719  0.67459377  0.33295534  1
  Te  Te143  1  0.16756945  0.67713567  0.66653982  1
  Te  Te144  1  0.49673417  0.00186270  -0.00004909  1
  Te  Te145  1  0.49686555  -0.00061760  0.33081446  1
  Te  Te146  1  0.50318196  -0.00317356  0.66862811  1
  Te  Te147  1  0.49905478  0.33164839  0.00121723  1
  Te  Te148  1  0.50315321  0.33316201  0.33330844  1
  Te  Te149  1  0.50677228  0.33705218  0.66620760  1
  Te  Te150  1  0.49614414  0.66602159  0.00138817  1
  Te  Te151  1  0.50513195  0.66915117  0.32849010  1
  Te  Te152  1  0.50115865  0.66821826  0.67111149  1
  Te  Te153  1  0.83437850  0.00077232  -0.00843200  1
  Te  Te154  1  0.83643353  0.00236700  0.33373531  1
  Te  Te155  1  0.83218307  0.00337605  0.67019532  1
  Te  Te156  1  0.83839206  0.33335354  -0.00521885  1
  Te  Te157  1  0.83261201  0.33068036  0.33165828  1
  Te  Te158  1  0.82805398  0.32747984  0.67497508  1
  Te  Te159  1  0.83428835  0.66668359  0.00933189  1
  Te  Te160  1  0.82777575  0.67007496  0.32774652  1
  Te  Te161  1  0.83320473  0.66749008  0.66877873  1
  Te  Te162  1  0.00425359  0.17164607  0.00512460  1
  Te  Te163  1  -0.00251037  0.16183085  0.33085633  1
  Te  Te164  1  -0.00700361  0.16061033  0.66682541  1
  Te  Te165  1  0.00139589  0.49587790  0.00165301  1
  Te  Te166  1  -0.00378187  0.50203124  0.32864946  1
  Te  Te167  1  -0.00007534  0.50159003  0.66744110  1
  Te  Te168  1  0.00866730  0.83208938  0.00630989  1
  Te  Te169  1  0.00163751  0.83789374  0.32974117  1
  Te  Te170  1  0.00294794  0.84022218  0.66695635  1
  Te  Te171  1  0.33466800  0.16409255  0.00382996  1
  Te  Te172  1  0.33615851  0.17053213  0.32597742  1
  Te  Te173  1  0.33418724  0.16885336  0.66376232  1
  Te  Te174  1  0.33708271  0.49984681  -0.00413286  1
  Te  Te175  1  0.33603953  0.49599361  0.33348847  1
  Te  Te176  1  0.34114038  0.50044376  0.67211227  1
  Te  Te177  1  0.32998043  0.83639594  -0.00309407  1
  Te  Te178  1  0.33374429  0.83248971  0.33365319  1
  Te  Te179  1  0.33621809  0.83364598  0.67145053  1
  Te  Te180  1  0.65827983  0.16749168  -0.00593238  1
  Te  Te181  1  0.66764240  0.16742327  0.33545615  1
  Te  Te182  1  0.66948344  0.16651980  0.66610006  1
  Te  Te183  1  0.65855827  0.49905573  0.00346517  1
  Te  Te184  1  0.66749555  0.49913669  0.33157950  1
  Te  Te185  1  0.66166743  0.50002692  0.66608858  1
  Te  Te186  1  0.66879100  0.83335910  0.00668036  1
  Te  Te187  1  0.66623510  0.84033316  0.33112223  1
  Te  Te188  1  0.66220610  0.83534710  0.66448894  1
  Te  Te189  1  -0.00249087  0.00111444  0.16739685  1
  Te  Te190  1  -0.00238912  0.00226654  0.50045372  1
  Te  Te191  1  0.00133778  -0.00027891  0.83172075  1
  Te  Te192  1  -0.00259849  0.33114144  0.16478498  1
  Te  Te193  1  -0.00850888  0.32380791  0.50290504  1
  Te  Te194  1  0.00106238  0.33481492  0.83624356  1
  Te  Te195  1  -0.00305383  0.66747702  0.16638925  1
  Te  Te196  1  -0.00101621  0.66296186  0.50115803  1
  Te  Te197  1  -0.00238980  0.65858295  0.83513492  1
  Te  Te198  1  0.33761635  0.00554440  0.16097888  1
  Te  Te199  1  0.32584467  0.00063333  0.50031195  1
  Te  Te200  1  0.33328174  -0.00125342  0.83813861  1
  Te  Te201  1  0.32983716  0.32867773  0.17047947  1
  Te  Te202  1  0.32819381  0.33311565  0.49279697  1
  Te  Te203  1  0.32873894  0.33648194  0.83274767  1
  Te  Te204  1  0.33881476  0.66419295  0.15966491  1
  Te  Te205  1  0.33249111  0.66586241  0.49895695  1
  Te  Te206  1  0.33898764  0.66646746  0.83874034  1
  Te  Te207  1  0.66722738  -0.00212085  0.16383091  1
  Te  Te208  1  0.66918657  0.00084585  0.50600392  1
  Te  Te209  1  0.66686821  0.00281830  0.82968901  1
  Te  Te210  1  0.67397635  0.33508792  0.17091811  1
  Te  Te211  1  0.67211285  0.33134655  0.49863925  1
  Te  Te212  1  0.67054974  0.32879862  0.83325836  1
  Te  Te213  1  0.66568359  0.66760961  0.17008597  1
  Te  Te214  1  0.66627381  0.67164337  0.49326131  1
  Te  Te215  1  0.65976536  0.66715761  0.83434540  1
