# generated using pymatgen
data_AgSbTe2
_symmetry_space_group_name_H-M   'P 1'
_cell_length_a   18.33600794
_cell_length_b   18.34220138
_cell_length_c   18.33599061
_cell_angle_alpha   90.00259664
_cell_angle_beta   89.99817612
_cell_angle_gamma   90.00513780
_symmetry_Int_Tables_number   1
_chemical_formula_structural   AgSbTe2
_chemical_formula_sum   'Ag54 Sb54 Te108'
_cell_volume   6166.81075445
_cell_formula_units_Z   54
loop_
 _symmetry_equiv_pos_site_id
 _symmetry_equiv_pos_as_xyz
  1  'x, y, z'
loop_
 _atom_site_type_symbol
 _atom_site_label
 _atom_site_symmetry_multiplicity
 _atom_site_fract_x
 _atom_site_fract_y
 _atom_site_fract_z
 _atom_site_occupancy
  Ag  Ag0  1  0.83440415  0.17078738  -0.00913583  1
  Ag  Ag1  1  0.16979614  0.00849696  0.16592181  1
  Ag  Ag2  1  0.83289628  0.00121631  0.82595376  1
  Ag  Ag3  1  0.66762908  0.68261318  0.33378554  1
  Ag  Ag4  1  0.32910717  0.66860172  0.67154291  1
  Ag  Ag5  1  0.00129457  0.33101236  -0.00646668  1
  Ag  Ag6  1  0.16254185  -0.00093430  0.83432147  1
  Ag  Ag7  1  0.16701650  0.16558079  0.32540469  1
  Ag  Ag8  1  0.83617076  0.32103787  0.83802225  1
  Ag  Ag9  1  0.48711764  0.33052848  0.16594191  1
  Ag  Ag10  1  0.33415681  0.67296258  0.33072130  1
  Ag  Ag11  1  0.49721838  0.83631015  0.00171096  1
  Ag  Ag12  1  0.32446292  0.33402125  0.67065393  1
  Ag  Ag13  1  0.67489674  0.84183585  0.83100583  1
  Ag  Ag14  1  0.51234664  -0.00120095  0.49634166  1
  Ag  Ag15  1  -0.00185853  0.00325159  0.66277961  1
  Ag  Ag16  1  0.33191055  0.66723240  0.00106227  1
  Ag  Ag17  1  0.32749616  0.16713063  0.16808122  1
  Ag  Ag18  1  0.51413684  -0.00318746  0.83190356  1
  Ag  Ag19  1  0.84085817  0.48946657  -0.00405042  1
  Ag  Ag20  1  0.83159196  0.67020210  0.16273345  1
  Ag  Ag21  1  0.16357351  0.48811836  -0.00175273  1
  Ag  Ag22  1  0.66523281  0.32363141  0.32794832  1
  Ag  Ag23  1  0.67442696  0.32433505  0.00366385  1
  Ag  Ag24  1  0.83960182  0.84204355  0.66878609  1
  Ag  Ag25  1  0.33337568  0.83780002  0.16662827  1
  Ag  Ag26  1  -0.00734873  0.83647715  0.82841254  1
  Ag  Ag27  1  0.67215384  0.84240141  0.49591566  1
  Ag  Ag28  1  0.67221950  -0.00030658  0.34169558  1
  Ag  Ag29  1  0.32426984  0.33377653  0.00615910  1
  Ag  Ag30  1  0.33081330  0.32912837  0.32501415  1
  Ag  Ag31  1  0.83337316  0.68128096  0.83494172  1
  Ag  Ag32  1  0.50516353  0.83755105  0.33150534  1
  Ag  Ag33  1  0.00025457  0.49692455  0.83424522  1
  Ag  Ag34  1  0.83329505  0.00157979  0.50281566  1
  Ag  Ag35  1  0.66893499  0.00373491  -0.01072069  1
  Ag  Ag36  1  0.67514174  0.15893456  0.49818379  1
  Ag  Ag37  1  0.15945956  0.84305205  0.67004887  1
  Ag  Ag38  1  0.33304371  0.83645265  0.83489464  1
  Ag  Ag39  1  0.00423030  0.32119048  0.67363029  1
  Ag  Ag40  1  0.17065573  0.48933694  0.33203727  1
  Ag  Ag41  1  -0.00820199  0.84416452  0.50932305  1
  Ag  Ag42  1  0.17024486  0.32663530  0.16111833  1
  Ag  Ag43  1  0.82652914  0.84399276  0.34041964  1
  Ag  Ag44  1  0.33067225  0.49866354  0.49763417  1
  Ag  Ag45  1  0.67350776  0.15923966  0.83357075  1
  Ag  Ag46  1  0.33169997  0.00022237  0.33130970  1
  Ag  Ag47  1  0.83410763  0.16054210  0.33668026  1
  Ag  Ag48  1  0.16355454  0.17027409  0.00494767  1
  Ag  Ag49  1  0.83882235  0.16007983  0.67010311  1
  Ag  Ag50  1  0.16640041  0.49292068  0.67131869  1
  Ag  Ag51  1  -0.00508900  0.16061405  0.50307339  1
  Ag  Ag52  1  -0.00936960  0.00208428  0.34320255  1
  Ag  Ag53  1  0.15835949  0.16673169  0.66799209  1
  Sb  Sb54  1  0.66420180  0.49875540  0.49708041  1
  Sb  Sb55  1  0.00248963  0.32563880  0.33372977  1
  Sb  Sb56  1  0.32474434  0.50224329  0.83187087  1
  Sb  Sb57  1  0.00211525  0.49762656  0.16142932  1
  Sb  Sb58  1  0.50388143  0.32694222  0.83874186  1
  Sb  Sb59  1  0.48856962  0.49886423  0.66673119  1
  Sb  Sb60  1  0.16914302  0.66724160  0.50050786  1
  Sb  Sb61  1  0.16109690  0.32609596  0.83624214  1
  Sb  Sb62  1  0.32969963  0.16727284  0.49642293  1
  Sb  Sb63  1  0.33330160  0.83395756  0.50005958  1
  Sb  Sb64  1  0.49991837  0.16040264  0.33326582  1
  Sb  Sb65  1  0.83613908  0.33242927  0.16082601  1
  Sb  Sb66  1  0.83313163  0.32305898  0.50436478  1
  Sb  Sb67  1  0.67673124  0.00047588  0.66544552  1
  Sb  Sb68  1  0.16803687  0.33129754  0.50015644  1
  Sb  Sb69  1  0.83613933  -0.00191971  0.16924126  1
  Sb  Sb70  1  0.00442450  0.67351485  0.66858888  1
  Sb  Sb71  1  -0.00274553  0.00641803  -0.00398936  1
  Sb  Sb72  1  0.49330139  0.50143707  0.33354610  1
  Sb  Sb73  1  0.66620196  0.66937914  0.00308465  1
  Sb  Sb74  1  -0.00004330  0.67245006  0.33362803  1
  Sb  Sb75  1  0.49600421  0.00143476  0.16785241  1
  Sb  Sb76  1  0.49665936  0.50080015  -0.00050904  1
  Sb  Sb77  1  0.16707523  0.66693159  0.16575233  1
  Sb  Sb78  1  0.16729903  0.84009109  0.33744372  1
  Sb  Sb79  1  0.49981407  0.83739463  0.66648333  1
  Sb  Sb80  1  0.17085870  0.83735663  -0.00508382  1
  Sb  Sb81  1  0.00422941  0.83649694  0.16526288  1
  Sb  Sb82  1  0.67018840  0.32980186  0.66848691  1
  Sb  Sb83  1  -0.00647325  0.16415425  0.82626529  1
  Sb  Sb84  1  0.67700298  0.49896001  0.83521554  1
  Sb  Sb85  1  0.33015284  0.49698920  0.17023038  1
  Sb  Sb86  1  0.84242161  0.49812583  0.67369044  1
  Sb  Sb87  1  0.49851141  0.67453856  0.49832042  1
  Sb  Sb88  1  0.33483395  0.00089845  0.00243739  1
  Sb  Sb89  1  0.32425994  -0.00050890  0.66439167  1
  Sb  Sb90  1  0.16024273  0.00106200  0.49867908  1
  Sb  Sb91  1  0.50070192  0.66623576  0.16812934  1
  Sb  Sb92  1  0.00168424  0.66274173  -0.00318885  1
  Sb  Sb93  1  0.50141581  0.16219682  0.00117558  1
  Sb  Sb94  1  0.50031058  0.16365350  0.66581157  1
  Sb  Sb95  1  0.00473111  0.49707734  0.50576723  1
  Sb  Sb96  1  0.66467764  0.16546632  0.16716616  1
  Sb  Sb97  1  0.00559022  0.16563635  0.17004359  1
  Sb  Sb98  1  0.83836589  0.49872810  0.32938403  1
  Sb  Sb99  1  0.16449625  0.67158761  0.83285295  1
  Sb  Sb100  1  0.49835822  0.32595303  0.49413856  1
  Sb  Sb101  1  0.66383917  0.83602067  0.16914718  1
  Sb  Sb102  1  0.82934100  0.83802738  -0.00290436  1
  Sb  Sb103  1  0.66886117  0.49823285  0.16662070  1
  Sb  Sb104  1  0.50248144  0.67607735  0.83434772  1
  Sb  Sb105  1  0.33335744  0.16287865  0.83599056  1
  Sb  Sb106  1  0.66504137  0.67094143  0.66427422  1
  Sb  Sb107  1  0.83244802  0.67808082  0.50170564  1
  Te  Te108  1  0.16928201  0.16664690  0.16634267  1
  Te  Te109  1  0.16204801  0.16581563  0.50465864  1
  Te  Te110  1  0.16850156  0.16019337  0.83163319  1
  Te  Te111  1  0.16596848  0.49746288  0.16480769  1
  Te  Te112  1  0.17055974  0.50030003  0.49968197  1
  Te  Te113  1  0.16058465  0.50231542  0.83555910  1
  Te  Te114  1  0.17269522  0.83523946  0.16609375  1
  Te  Te115  1  0.16208024  0.83355135  0.50778097  1
  Te  Te116  1  0.16986718  0.83679243  0.82981729  1
  Te  Te117  1  0.48994014  0.17136602  0.16669332  1
  Te  Te118  1  0.50872384  0.15874281  0.50055251  1
  Te  Te119  1  0.50832858  0.15870814  0.83307158  1
  Te  Te120  1  0.50107055  0.49077465  0.16583282  1
  Te  Te121  1  0.49272715  0.49946843  0.50040501  1
  Te  Te122  1  0.50149235  0.50077207  0.83328315  1
  Te  Te123  1  0.49370630  0.83335320  0.16740004  1
  Te  Te124  1  0.50483105  0.84028809  0.49661541  1
  Te  Te125  1  0.49692787  0.83833058  0.83398593  1
  Te  Te126  1  0.83361042  0.16663549  0.17078473  1
  Te  Te127  1  0.83374099  0.16310462  0.49742461  1
  Te  Te128  1  0.83119150  0.16344298  0.83334523  1
  Te  Te129  1  0.83542438  0.50575239  0.15980825  1
  Te  Te130  1  0.83481001  0.50097632  0.50117868  1
  Te  Te131  1  0.84029014  0.49718453  0.83782451  1
  Te  Te132  1  0.83469939  0.83004206  0.16928337  1
  Te  Te133  1  0.83228343  0.83804269  0.49972278  1
  Te  Te134  1  0.83276851  0.83835877  0.83453605  1
  Te  Te135  1  0.16569147  0.00484046  0.00046692  1
  Te  Te136  1  0.17246700  0.00369043  0.33211699  1
  Te  Te137  1  0.16119201  0.00187476  0.66775175  1
  Te  Te138  1  0.16605088  0.33117352  -0.00236038  1
  Te  Te139  1  0.16747354  0.32935507  0.33226708  1
  Te  Te140  1  0.16578012  0.33068763  0.66883582  1
  Te  Te141  1  0.17246024  0.66315919  0.00040287  1
  Te  Te142  1  0.17161809  0.66419616  0.33140222  1
  Te  Te143  1  0.17175209  0.66296132  0.66713486  1
  Te  Te144  1  0.50394214  -0.00418657  -0.00328604  1
  Te  Te145  1  0.50094904  -0.00415771  0.33342633  1
  Te  Te146  1  0.49287348  0.00022381  0.67074084  1
  Te  Te147  1  0.50023713  0.33316599  0.00358582  1
  Te  Te148  1  0.49868236  0.33347860  0.32893717  1
  Te  Te149  1  0.49315379  0.33198764  0.66720455  1
  Te  Te150  1  0.49424939  0.67207266  0.00152776  1
  Te  Te151  1  0.49907946  0.67183558  0.33177666  1
  Te  Te152  1  0.48951178  0.66713601  0.66637231  1
  Te  Te153  1  0.82939142  0.00597530  0.00110435  1
  Te  Te154  1  0.83247527  0.00070422  0.33100068  1
  Te  Te155  1  0.83797728  -0.00019049  0.66566874  1
  Te  Te156  1  0.83329959  0.33094548  -0.00042512  1
  Te  Te157  1  0.83215785  0.33048419  0.33187011  1
  Te  Te158  1  0.83786001  0.33011049  0.67307145  1
  Te  Te159  1  0.83256901  0.66662821  -0.00196844  1
  Te  Te160  1  0.83140311  0.66520813  0.33248047  1
  Te  Te161  1  0.83291928  0.66782218  0.67302960  1
  Te  Te162  1  0.00033763  0.17097766  0.00109846  1
  Te  Te163  1  0.00128161  0.16304819  0.33763742  1
  Te  Te164  1  -0.00165296  0.16464251  0.66519081  1
  Te  Te165  1  0.00115666  0.49624299  -0.00427106  1
  Te  Te166  1  0.00803695  0.49974739  0.33591692  1
  Te  Te167  1  0.00768443  0.49874850  0.67039926  1
  Te  Te168  1  0.00102757  0.83417966  -0.00649598  1
  Te  Te169  1  -0.00252114  0.83886363  0.33370007  1
  Te  Te170  1  -0.00085861  0.83474865  0.66832613  1
  Te  Te171  1  0.33041158  0.17087355  0.00303806  1
  Te  Te172  1  0.33104686  0.16788408  0.33222880  1
  Te  Te173  1  0.32878727  0.17227195  0.66556687  1
  Te  Te174  1  0.32968998  0.49874266  -0.00051386  1
  Te  Te175  1  0.32924793  0.49722769  0.33608175  1
  Te  Te176  1  0.32563494  0.49855290  0.66473474  1
  Te  Te177  1  0.33572260  0.83348792  -0.00148078  1
  Te  Te178  1  0.33247205  0.83371289  0.33426734  1
  Te  Te179  1  0.33003015  0.83133676  0.66781907  1
  Te  Te180  1  0.66806156  0.16546181  -0.00025357  1
  Te  Te181  1  0.66720979  0.16405950  0.33362349  1
  Te  Te182  1  0.67157630  0.16998580  0.66583092  1
  Te  Te183  1  0.66930945  0.49760875  -0.00063300  1
  Te  Te184  1  0.66672605  0.49362759  0.33430572  1
  Te  Te185  1  0.66546490  0.50048905  0.66530585  1
  Te  Te186  1  0.66153418  0.83570848  -0.00306900  1
  Te  Te187  1  0.66709888  0.83863856  0.33227809  1
  Te  Te188  1  0.67016318  0.83078567  0.66710996  1
  Te  Te189  1  0.00873857  -0.00113843  0.17228448  1
  Te  Te190  1  -0.00285198  0.00031246  0.50033324  1
  Te  Te191  1  -0.00040737  -0.00290080  0.83206380  1
  Te  Te192  1  0.00833032  0.33279814  0.16124937  1
  Te  Te193  1  -0.00033557  0.32905762  0.50646123  1
  Te  Te194  1  -0.00331214  0.33392489  0.83367194  1
  Te  Te195  1  -0.00692027  0.66773320  0.16554183  1
  Te  Te196  1  -0.00000765  0.67144783  0.49968805  1
  Te  Te197  1  -0.00608373  0.67064357  0.83360352  1
  Te  Te198  1  0.33116866  0.00010063  0.16914578  1
  Te  Te199  1  0.33811093  0.00041224  0.49378801  1
  Te  Te200  1  0.32547183  -0.00363485  0.83301292  1
  Te  Te201  1  0.32868301  0.33417479  0.16592127  1
  Te  Te202  1  0.33516520  0.33555030  0.49878323  1
  Te  Te203  1  0.33629072  0.33344260  0.83351500  1
  Te  Te204  1  0.33384718  0.67126435  0.16728110  1
  Te  Te205  1  0.33467648  0.66392125  0.49442628  1
  Te  Te206  1  0.33428274  0.67042574  0.83520873  1
  Te  Te207  1  0.66514949  0.00035459  0.16537498  1
  Te  Te208  1  0.67005263  -0.00061222  0.50108357  1
  Te  Te209  1  0.67042211  -0.00085723  0.83057522  1
  Te  Te210  1  0.66788466  0.33192649  0.16641642  1
  Te  Te211  1  0.66535217  0.33039269  0.49420046  1
  Te  Te212  1  0.67173224  0.33093843  0.83767318  1
  Te  Te213  1  0.67036718  0.66637849  0.17296756  1
  Te  Te214  1  0.66523662  0.66856452  0.49282201  1
  Te  Te215  1  0.67134538  0.67066183  0.83356937  1
