# generated using pymatgen
data_AgSbTe2
_symmetry_space_group_name_H-M   'P 1'
_cell_length_a   18.35064471
_cell_length_b   18.36608499
_cell_length_c   18.35864604
_cell_angle_alpha   90.00259840
_cell_angle_beta   89.99619381
_cell_angle_gamma   90.00203824
_symmetry_Int_Tables_number   1
_chemical_formula_structural   AgSbTe2
_chemical_formula_sum   'Ag54 Sb54 Te108'
_cell_volume   6187.40527754
_cell_formula_units_Z   54
loop_
 _symmetry_equiv_pos_site_id
 _symmetry_equiv_pos_as_xyz
  1  'x, y, z'
loop_
 _atom_site_type_symbol
 _atom_site_label
 _atom_site_symmetry_multiplicity
 _atom_site_fract_x
 _atom_site_fract_y
 _atom_site_fract_z
 _atom_site_occupancy
  Ag  Ag0  1  0.66591022  0.82611575  0.81917932  1
  Ag  Ag1  1  0.00583098  0.66481714  0.66297530  1
  Ag  Ag2  1  0.33811371  0.16974357  0.50313479  1
  Ag  Ag3  1  0.67188739  0.33478040  -0.01281506  1
  Ag  Ag4  1  0.83219520  0.33515601  0.17137738  1
  Ag  Ag5  1  -0.01481522  0.50451617  0.82710893  1
  Ag  Ag6  1  0.34155311  0.67200591  -0.00935268  1
  Ag  Ag7  1  -0.01399885  0.34512364  0.66483678  1
  Ag  Ag8  1  0.16891184  0.66708100  0.50912120  1
  Ag  Ag9  1  -0.00245064  0.83599223  0.17165402  1
  Ag  Ag10  1  0.82827716  0.34428868  0.82625828  1
  Ag  Ag11  1  0.67634068  0.00490074  0.34256366  1
  Ag  Ag12  1  0.33978871  0.82826221  0.50545948  1
  Ag  Ag13  1  0.66632353  0.17044165  0.50549578  1
  Ag  Ag14  1  0.33716457  0.50100724  0.50479508  1
  Ag  Ag15  1  0.50909142  0.16030692  -0.00790926  1
  Ag  Ag16  1  0.67038617  0.50314737  0.82206735  1
  Ag  Ag17  1  0.81997483  0.82601395  0.65883002  1
  Ag  Ag18  1  0.66157906  -0.01076041  0.66250560  1
  Ag  Ag19  1  0.50335252  -0.00149586  0.82892449  1
  Ag  Ag20  1  0.50583840  0.66939743  0.50526215  1
  Ag  Ag21  1  0.67104436  0.33208784  0.66493916  1
  Ag  Ag22  1  0.82621906  0.33763788  0.50129591  1
  Ag  Ag23  1  0.83330444  0.66406209  0.17697171  1
  Ag  Ag24  1  0.15974008  0.66627967  0.81948644  1
  Ag  Ag25  1  0.83134743  0.66327625  0.50667512  1
  Ag  Ag26  1  0.17111572  0.82322324  0.66476831  1
  Ag  Ag27  1  0.50566744  0.15932514  0.66654465  1
  Ag  Ag28  1  0.82899090  0.66230964  0.82631803  1
  Ag  Ag29  1  0.50558019  0.83560003  0.66843084  1
  Ag  Ag30  1  -0.00576968  0.16231327  0.17951964  1
  Ag  Ag31  1  0.83244030  0.49974213  0.33593485  1
  Ag  Ag32  1  0.66667060  0.16903083  0.82194272  1
  Ag  Ag33  1  0.32101117  0.67234751  0.66394637  1
  Ag  Ag34  1  0.66879486  0.66432667  -0.01209636  1
  Ag  Ag35  1  0.33519340  0.33655910  0.66322662  1
  Ag  Ag36  1  0.83186652  0.17022041  0.33489647  1
  Ag  Ag37  1  -0.00833795  -0.00373460  0.33294457  1
  Ag  Ag38  1  0.16717597  0.51113315  0.66503479  1
  Ag  Ag39  1  0.33856695  -0.00446542  -0.00482948  1
  Ag  Ag40  1  0.16546075  -0.00122925  0.16955498  1
  Ag  Ag41  1  0.50093669  0.83535308  -0.00825698  1
  Ag  Ag42  1  0.67005689  0.67714649  0.66783263  1
  Ag  Ag43  1  0.33412845  0.00249053  0.34489968  1
  Ag  Ag44  1  0.67102483  0.50211445  0.50517269  1
  Ag  Ag45  1  0.82995062  0.49677319  -0.01092815  1
  Ag  Ag46  1  0.83402331  0.82579167  0.33940894  1
  Ag  Ag47  1  0.33804562  0.32666227  0.34666376  1
  Ag  Ag48  1  0.66723992  0.82498561  0.50823004  1
  Ag  Ag49  1  0.34243030  -0.00901638  0.66167022  1
  Ag  Ag50  1  0.67501086  0.32872217  0.34559176  1
  Ag  Ag51  1  -0.00719354  0.67151316  0.34546001  1
  Ag  Ag52  1  -0.01608453  0.16852140  0.49862447  1
  Ag  Ag53  1  0.82652054  0.17633399  0.00382876  1
  Sb  Sb54  1  -0.00645702  0.50086408  0.50693451  1
  Sb  Sb55  1  0.50145512  0.50428150  0.66486381  1
  Sb  Sb56  1  0.15756997  0.32822289  0.16926346  1
  Sb  Sb57  1  -0.01089215  0.33291559  -0.00456930  1
  Sb  Sb58  1  0.67232083  0.83360016  0.17009871  1
  Sb  Sb59  1  0.50086889  -0.00410933  0.50760749  1
  Sb  Sb60  1  0.33649302  0.50364039  0.82596260  1
  Sb  Sb61  1  0.34156269  0.16554613  0.82533390  1
  Sb  Sb62  1  0.82873666  -0.00040542  0.49842569  1
  Sb  Sb63  1  0.16194950  0.83441159  0.33930564  1
  Sb  Sb64  1  0.15960734  0.67139439  0.16643990  1
  Sb  Sb65  1  -0.01131253  0.17147792  0.82713626  1
  Sb  Sb66  1  0.17300976  0.83158350  -0.00535903  1
  Sb  Sb67  1  -0.00540217  0.50006032  0.16429644  1
  Sb  Sb68  1  0.66328755  0.00133981  -0.00319355  1
  Sb  Sb69  1  0.16830256  0.16590602  0.00001854  1
  Sb  Sb70  1  0.50761273  0.66935759  0.16774727  1
  Sb  Sb71  1  0.32916834  0.16483972  0.17260999  1
  Sb  Sb72  1  0.67337750  0.16671798  0.16878308  1
  Sb  Sb73  1  0.32834167  0.66855360  0.34390711  1
  Sb  Sb74  1  0.34432092  0.33337533  -0.00485614  1
  Sb  Sb75  1  -0.00768094  0.66707745  -0.00342867  1
  Sb  Sb76  1  0.83078508  0.50654842  0.66775235  1
  Sb  Sb77  1  0.50749718  0.49944977  0.33847342  1
  Sb  Sb78  1  0.50946703  0.33042769  0.16712631  1
  Sb  Sb79  1  0.67161157  0.50016700  0.16857187  1
  Sb  Sb80  1  0.17102293  0.16496504  0.66540881  1
  Sb  Sb81  1  0.50568840  0.33539061  0.50355073  1
  Sb  Sb82  1  0.67466630  0.66634012  0.34276085  1
  Sb  Sb83  1  0.83624078  0.00099734  0.16920491  1
  Sb  Sb84  1  0.16667734  0.33786019  0.50282434  1
  Sb  Sb85  1  0.34090942  0.83145906  0.82386953  1
  Sb  Sb86  1  0.32948686  0.50136438  0.17425985  1
  Sb  Sb87  1  0.50905851  0.50267630  -0.00351737  1
  Sb  Sb88  1  0.16254432  0.50452672  -0.00944882  1
  Sb  Sb89  1  0.82717308  0.83011537  0.00031771  1
  Sb  Sb90  1  0.49729172  0.00041108  0.16206941  1
  Sb  Sb91  1  0.17323664  -0.00659072  0.83296560  1
  Sb  Sb92  1  0.15926765  0.33937793  0.82942452  1
  Sb  Sb93  1  0.50593645  0.67187190  0.82519205  1
  Sb  Sb94  1  0.16083226  0.16558791  0.33748505  1
  Sb  Sb95  1  0.00294316  0.00042358  0.00607873  1
  Sb  Sb96  1  0.82475106  0.16741974  0.66285257  1
  Sb  Sb97  1  -0.00680244  0.33342912  0.34004581  1
  Sb  Sb98  1  -0.00705424  0.82796701  0.83209422  1
  Sb  Sb99  1  0.82603684  -0.00061819  0.83179776  1
  Sb  Sb100  1  0.50634188  0.83574235  0.33977103  1
  Sb  Sb101  1  0.17009918  -0.00579461  0.49834527  1
  Sb  Sb102  1  0.16107923  0.50144219  0.34345072  1
  Sb  Sb103  1  0.51070939  0.32701563  0.82779812  1
  Sb  Sb104  1  0.50549006  0.16411999  0.33793333  1
  Sb  Sb105  1  -0.00490144  0.83243943  0.49837529  1
  Sb  Sb106  1  0.32900196  0.83442755  0.17092986  1
  Sb  Sb107  1  -0.00176688  -0.00283689  0.66057398  1
  Te  Te108  1  0.15674892  0.16075213  0.16720567  1
  Te  Te109  1  0.17882379  0.16644070  0.50056180  1
  Te  Te110  1  0.16445550  0.16586174  0.83432896  1
  Te  Te111  1  0.16277615  0.49924600  0.16623060  1
  Te  Te112  1  0.17063965  0.50538166  0.50545387  1
  Te  Te113  1  0.16684045  0.50641162  0.82566679  1
  Te  Te114  1  0.16032575  0.83749842  0.16625185  1
  Te  Te115  1  0.16847494  0.82755104  0.50418803  1
  Te  Te116  1  0.16447277  0.82635580  0.82789195  1
  Te  Te117  1  0.49809218  0.16637217  0.15771068  1
  Te  Te118  1  0.50124103  0.16835137  0.50377641  1
  Te  Te119  1  0.50558472  0.16205812  0.83177975  1
  Te  Te120  1  0.49852085  0.49971077  0.16714834  1
  Te  Te121  1  0.49953678  0.50840984  0.49962211  1
  Te  Te122  1  0.50958470  0.49843709  0.83284344  1
  Te  Te123  1  0.49875039  0.83299608  0.16147907  1
  Te  Te124  1  0.50242942  0.82933543  0.50315668  1
  Te  Te125  1  0.50584387  0.83667908  0.83192780  1
  Te  Te126  1  0.83677492  0.16794426  0.16782594  1
  Te  Te127  1  0.82726635  0.16758256  0.49819831  1
  Te  Te128  1  0.82740057  0.16699946  0.83779145  1
  Te  Te129  1  0.83531823  0.49940564  0.17214831  1
  Te  Te130  1  0.83185558  0.49874604  0.49773265  1
  Te  Te131  1  0.82775179  0.50109574  0.83118304  1
  Te  Te132  1  0.83800804  0.82978217  0.16807429  1
  Te  Te133  1  0.83082082  0.83205003  0.49887748  1
  Te  Te134  1  0.82673924  0.83053815  0.83287417  1
  Te  Te135  1  0.17526760  -0.00081545  0.00289655  1
  Te  Te136  1  0.17215631  -0.00030087  0.33006989  1
  Te  Te137  1  0.17080867  -0.00404992  0.66722204  1
  Te  Te138  1  0.16848263  0.33517265  -0.00034879  1
  Te  Te139  1  0.17769882  0.33400366  0.33252488  1
  Te  Te140  1  0.17540354  0.33336804  0.66809402  1
  Te  Te141  1  0.17293882  0.66651437  -0.00190416  1
  Te  Te142  1  0.15633520  0.66641610  0.33545367  1
  Te  Te143  1  0.16531383  0.66720905  0.66471873  1
  Te  Te144  1  0.49820309  -0.00071075  -0.00353644  1
  Te  Te145  1  0.49204752  -0.00036697  0.32972969  1
  Te  Te146  1  0.50135694  -0.00139800  0.66854000  1
  Te  Te147  1  0.50951456  0.32960551  -0.00072646  1
  Te  Te148  1  0.49643618  0.33202989  0.33220606  1
  Te  Te149  1  0.49391683  0.32709887  0.66658231  1
  Te  Te150  1  0.50211192  0.66938914  0.00039969  1
  Te  Te151  1  0.49913840  0.66785060  0.33682107  1
  Te  Te152  1  0.50883704  0.67056088  0.66313116  1
  Te  Te153  1  0.83351365  0.00474383  0.00074882  1
  Te  Te154  1  0.83439019  0.00378968  0.33292726  1
  Te  Te155  1  0.82979564  -0.01011299  0.66684659  1
  Te  Te156  1  0.82945383  0.33543381  -0.00029234  1
  Te  Te157  1  0.83326575  0.33197370  0.33740211  1
  Te  Te158  1  0.83106203  0.32922155  0.66428243  1
  Te  Te159  1  0.82869493  0.66482840  -0.00634852  1
  Te  Te160  1  0.83381982  0.66748613  0.33382700  1
  Te  Te161  1  0.82960228  0.66710442  0.66637471  1
  Te  Te162  1  -0.00327868  0.16645616  -0.00138165  1
  Te  Te163  1  -0.00431773  0.16711323  0.33844220  1
  Te  Te164  1  0.00182202  0.16588783  0.65936737  1
  Te  Te165  1  -0.00646994  0.49993740  -0.00851657  1
  Te  Te166  1  -0.00546520  0.50336741  0.33308998  1
  Te  Te167  1  0.00391232  0.50179388  0.66813374  1
  Te  Te168  1  0.00107628  0.83467268  0.00595041  1
  Te  Te169  1  -0.00410220  0.83453540  0.33257783  1
  Te  Te170  1  0.00385012  0.82977733  0.66585660  1
  Te  Te171  1  0.33665328  0.16518544  -0.00072684  1
  Te  Te172  1  0.33534944  0.16585501  0.33759851  1
  Te  Te173  1  0.33742325  0.16398991  0.66329326  1
  Te  Te174  1  0.33432979  0.50288207  0.00066391  1
  Te  Te175  1  0.33261604  0.49925674  0.34110720  1
  Te  Te176  1  0.33433984  0.50290045  0.66342128  1
  Te  Te177  1  0.33772526  0.83272560  0.00162585  1
  Te  Te178  1  0.33378377  0.83757490  0.33932325  1
  Te  Te179  1  0.33476194  0.83118392  0.66462428  1
  Te  Te180  1  0.66771429  0.16609650  0.00341902  1
  Te  Te181  1  0.66910522  0.16740824  0.33533456  1
  Te  Te182  1  0.66595736  0.17283276  0.66525586  1
  Te  Te183  1  0.67193768  0.49963698  0.00240756  1
  Te  Te184  1  0.67207395  0.49510337  0.33870738  1
  Te  Te185  1  0.66485061  0.49051561  0.66358710  1
  Te  Te186  1  0.66213576  0.83278872  0.00268336  1
  Te  Te187  1  0.67210749  0.83708231  0.33749836  1
  Te  Te188  1  0.66533163  0.83466418  0.66420094  1
  Te  Te189  1  0.00211960  0.00094354  0.17163965  1
  Te  Te190  1  0.00250876  0.00674852  0.49351395  1
  Te  Te191  1  0.00224436  0.00055101  0.83320537  1
  Te  Te192  1  -0.00702393  0.32784001  0.16725200  1
  Te  Te193  1  -0.00079444  0.33029726  0.50554228  1
  Te  Te194  1  -0.00759262  0.33944253  0.82609132  1
  Te  Te195  1  -0.00562121  0.66872638  0.16468219  1
  Te  Te196  1  -0.00663910  0.66661012  0.50290099  1
  Te  Te197  1  -0.00301121  0.66442713  0.83011776  1
  Te  Te198  1  0.32825467  0.00002014  0.16532840  1
  Te  Te199  1  0.33420429  -0.00014437  0.50300711  1
  Te  Te200  1  0.33934664  -0.00106194  0.83386830  1
  Te  Te201  1  0.33178612  0.33355415  0.16492015  1
  Te  Te202  1  0.33311815  0.33482826  0.50349713  1
  Te  Te203  1  0.33181690  0.33450986  0.82890165  1
  Te  Te204  1  0.33214134  0.66694901  0.16598716  1
  Te  Te205  1  0.33033569  0.66860315  0.50308913  1
  Te  Te206  1  0.33241764  0.66633064  0.83140824  1
  Te  Te207  1  0.66516274  -0.00099789  0.17856185  1
  Te  Te208  1  0.66546184  0.00442370  0.50119350  1
  Te  Te209  1  0.66331850  0.00358932  0.82995707  1
  Te  Te210  1  0.67393762  0.33352309  0.17202983  1
  Te  Te211  1  0.66640783  0.33398430  0.50237982  1
  Te  Te212  1  0.67093339  0.33099721  0.83096839  1
  Te  Te213  1  0.67356360  0.66708058  0.16056399  1
  Te  Te214  1  0.67010986  0.66543732  0.50173904  1
  Te  Te215  1  0.66663716  0.66647137  0.82969618  1
