# generated using pymatgen
data_AgSbTe2
_symmetry_space_group_name_H-M   'P 1'
_cell_length_a   18.34827896
_cell_length_b   18.34718488
_cell_length_c   18.33838661
_cell_angle_alpha   90.00210625
_cell_angle_beta   89.99814234
_cell_angle_gamma   89.99875255
_symmetry_Int_Tables_number   1
_chemical_formula_structural   AgSbTe2
_chemical_formula_sum   'Ag54 Sb54 Te108'
_cell_volume   6173.42100702
_cell_formula_units_Z   54
loop_
 _symmetry_equiv_pos_site_id
 _symmetry_equiv_pos_as_xyz
  1  'x, y, z'
loop_
 _atom_site_type_symbol
 _atom_site_label
 _atom_site_symmetry_multiplicity
 _atom_site_fract_x
 _atom_site_fract_y
 _atom_site_fract_z
 _atom_site_occupancy
  Ag  Ag0  1  0.33404222  0.67031367  -0.01393720  1
  Ag  Ag1  1  0.17626283  0.32044754  0.83276835  1
  Ag  Ag2  1  0.83184266  0.50185557  0.33357387  1
  Ag  Ag3  1  -0.00758978  0.66675875  0.67206718  1
  Ag  Ag4  1  0.16930886  0.16349163  0.67350761  1
  Ag  Ag5  1  0.66401645  0.34021468  0.66913706  1
  Ag  Ag6  1  0.33494260  -0.00372956  0.34556089  1
  Ag  Ag7  1  0.00067524  -0.00055940  0.33525673  1
  Ag  Ag8  1  0.33585550  0.67300499  0.33362922  1
  Ag  Ag9  1  0.82774444  0.83305327  0.33587964  1
  Ag  Ag10  1  0.50436823  0.83214208  0.67322937  1
  Ag  Ag11  1  0.50489852  0.50419455  0.67032197  1
  Ag  Ag12  1  0.82204678  0.83162770  0.67110458  1
  Ag  Ag13  1  -0.00209168  0.49743589  0.16449094  1
  Ag  Ag14  1  0.65520361  0.15717455  0.83361550  1
  Ag  Ag15  1  0.66557735  0.67581598  0.34021777  1
  Ag  Ag16  1  0.82427684  0.33276153  0.83135730  1
  Ag  Ag17  1  0.34521394  0.83947701  0.82850898  1
  Ag  Ag18  1  0.66627197  0.50772499  0.50993054  1
  Ag  Ag19  1  0.50042711  -0.00485017  0.83178158  1
  Ag  Ag20  1  0.66474825  -0.00531811  0.33538477  1
  Ag  Ag21  1  -0.00094965  0.16780373  0.16755206  1
  Ag  Ag22  1  0.18091911  0.00149179  0.50573150  1
  Ag  Ag23  1  0.00523033  0.16454949  0.49836054  1
  Ag  Ag24  1  0.50312409  0.32619857  0.51195350  1
  Ag  Ag25  1  0.66280673  -0.00077644  -0.01253687  1
  Ag  Ag26  1  0.66268727  0.83284137  0.51009312  1
  Ag  Ag27  1  0.65909952  0.83453538  0.82724302  1
  Ag  Ag28  1  0.34264374  0.84270646  0.50559545  1
  Ag  Ag29  1  0.82337640  0.67488826  0.83088025  1
  Ag  Ag30  1  0.33494624  -0.00024929  0.66175677  1
  Ag  Ag31  1  0.66667935  0.66816865  0.67005442  1
  Ag  Ag32  1  0.17313323  0.16330387  -0.00973560  1
  Ag  Ag33  1  0.50019307  0.15935843  -0.00787257  1
  Ag  Ag34  1  0.50456404  0.33019115  0.82866607  1
  Ag  Ag35  1  0.33497129  0.32632669  0.33739620  1
  Ag  Ag36  1  0.17556017  0.83606863  0.33593241  1
  Ag  Ag37  1  0.82532333  0.83918796  -0.01341845  1
  Ag  Ag38  1  0.50563639  0.83988826  -0.01278665  1
  Ag  Ag39  1  0.66300160  0.50165263  0.82805366  1
  Ag  Ag40  1  0.82285739  0.33221698  0.50393101  1
  Ag  Ag41  1  0.83488472  0.33223028  0.16557104  1
  Ag  Ag42  1  0.49337000  0.00078865  0.50395398  1
  Ag  Ag43  1  0.50111828  0.68049023  0.83165222  1
  Ag  Ag44  1  0.34327840  0.50737183  0.83202177  1
  Ag  Ag45  1  0.16744180  0.66729290  0.15889342  1
  Ag  Ag46  1  -0.00402838  0.50286600  0.83289601  1
  Ag  Ag47  1  0.17755132  0.00327849  0.82911603  1
  Ag  Ag48  1  0.82121564  -0.00875318  0.83503834  1
  Ag  Ag49  1  0.50014733  -0.00069458  0.15707072  1
  Ag  Ag50  1  0.83142384  0.16265129  -0.00595949  1
  Ag  Ag51  1  0.33197623  0.15303270  0.50872738  1
  Ag  Ag52  1  0.34005186  0.16081070  0.83003319  1
  Ag  Ag53  1  0.17780324  0.66883265  0.83391086  1
  Sb  Sb54  1  0.34124662  -0.00388144  -0.00641959  1
  Sb  Sb55  1  0.83206613  0.49997631  -0.00376714  1
  Sb  Sb56  1  0.82902387  0.00229185  0.16360923  1
  Sb  Sb57  1  0.17002996  0.83716619  0.66587744  1
  Sb  Sb58  1  0.50202011  0.67073106  0.50674944  1
  Sb  Sb59  1  0.16366871  0.50591469  0.33377090  1
  Sb  Sb60  1  0.49670518  0.67206906  0.16124199  1
  Sb  Sb61  1  0.66317054  0.67370580  -0.00769350  1
  Sb  Sb62  1  0.33735937  0.67263600  0.66881104  1
  Sb  Sb63  1  -0.00893838  0.49513521  0.50303438  1
  Sb  Sb64  1  0.66240771  0.16312308  0.50759363  1
  Sb  Sb65  1  0.66051723  -0.00383541  0.66905967  1
  Sb  Sb66  1  0.83680523  0.66452157  0.16372085  1
  Sb  Sb67  1  0.50032849  0.83557581  0.33622780  1
  Sb  Sb68  1  0.34047107  0.50119975  0.50495836  1
  Sb  Sb69  1  0.50463778  0.32751440  0.16400693  1
  Sb  Sb70  1  0.83335780  0.16567680  0.33152199  1
  Sb  Sb71  1  0.49866558  0.16160455  0.33268838  1
  Sb  Sb72  1  0.49648644  0.16213337  0.67287721  1
  Sb  Sb73  1  0.00003387  0.83472557  0.16862625  1
  Sb  Sb74  1  0.16755315  0.15937530  0.33426148  1
  Sb  Sb75  1  0.67042378  0.49988524  0.16815771  1
  Sb  Sb76  1  0.50086432  0.50130547  -0.01146648  1
  Sb  Sb77  1  0.00183990  0.32968531  0.33416442  1
  Sb  Sb78  1  0.66647959  0.83426144  0.16556238  1
  Sb  Sb79  1  0.16980443  0.67419468  0.50430223  1
  Sb  Sb80  1  0.00229513  0.16943190  0.83303516  1
  Sb  Sb81  1  0.83013977  0.66582785  0.50474553  1
  Sb  Sb82  1  -0.00162861  0.67067695  0.33697471  1
  Sb  Sb83  1  -0.00431142  0.00215452  0.00084826  1
  Sb  Sb84  1  0.66531316  0.33146612  0.34121350  1
  Sb  Sb85  1  0.66715582  0.32598285  -0.01246875  1
  Sb  Sb86  1  -0.00503876  0.33630339  0.66958307  1
  Sb  Sb87  1  0.83569112  0.16303326  0.67336896  1
  Sb  Sb88  1  -0.00182349  0.33087346  -0.00228732  1
  Sb  Sb89  1  0.67045344  0.16423966  0.15878643  1
  Sb  Sb90  1  0.00390551  -0.00158887  0.66456671  1
  Sb  Sb91  1  0.16349296  0.33481491  0.16247834  1
  Sb  Sb92  1  0.32943061  0.50242752  0.16368447  1
  Sb  Sb93  1  0.33021157  0.16484468  0.16357957  1
  Sb  Sb94  1  0.16641642  0.49799564  -0.00574846  1
  Sb  Sb95  1  -0.00289281  0.83032327  0.83109135  1
  Sb  Sb96  1  0.34053428  0.32754584  0.66689455  1
  Sb  Sb97  1  0.17267553  0.49726345  0.67057076  1
  Sb  Sb98  1  0.82949829  0.00163127  0.50377975  1
  Sb  Sb99  1  0.17035921  0.32456705  0.50571864  1
  Sb  Sb100  1  0.17023728  -0.00203425  0.16686837  1
  Sb  Sb101  1  -0.00167425  0.83828010  0.50039937  1
  Sb  Sb102  1  0.16846608  0.83663081  -0.00191836  1
  Sb  Sb103  1  0.50421949  0.50176408  0.34068038  1
  Sb  Sb104  1  0.33481831  0.33454395  -0.00412601  1
  Sb  Sb105  1  0.00303947  0.66733434  -0.00635126  1
  Sb  Sb106  1  0.82539479  0.50387332  0.66833815  1
  Sb  Sb107  1  0.33503109  0.83487883  0.16756162  1
  Te  Te108  1  0.16131510  0.16741057  0.16237831  1
  Te  Te109  1  0.17083881  0.16137061  0.50029160  1
  Te  Te110  1  0.16362592  0.16447507  0.83398796  1
  Te  Te111  1  0.15999941  0.50456603  0.16494520  1
  Te  Te112  1  0.16531273  0.49750372  0.50135286  1
  Te  Te113  1  0.16536540  0.50742377  0.83317962  1
  Te  Te114  1  0.16655865  0.82808613  0.16979651  1
  Te  Te115  1  0.16771900  0.84062552  0.49701794  1
  Te  Te116  1  0.16734186  0.83489267  0.83415560  1
  Te  Te117  1  0.50000076  0.16121767  0.15831974  1
  Te  Te118  1  0.49550379  0.16610292  0.49992590  1
  Te  Te119  1  0.49885975  0.16858984  0.83380654  1
  Te  Te120  1  0.50009123  0.49847621  0.16425570  1
  Te  Te121  1  0.50683916  0.49659476  0.50670707  1
  Te  Te122  1  0.50166562  0.48985005  0.83046716  1
  Te  Te123  1  0.49968595  0.83949849  0.15585422  1
  Te  Te124  1  0.50140582  0.83566338  0.50245107  1
  Te  Te125  1  0.50041746  0.83570780  0.83195736  1
  Te  Te126  1  0.83790179  0.17035047  0.16272761  1
  Te  Te127  1  0.83200651  0.17064794  0.50114154  1
  Te  Te128  1  0.83794643  0.17019847  0.83535082  1
  Te  Te129  1  0.83742221  0.49651832  0.16820154  1
  Te  Te130  1  0.82763636  0.49476985  0.49580702  1
  Te  Te131  1  0.83179395  0.49709486  0.83362197  1
  Te  Te132  1  0.83408406  0.83321056  0.17620315  1
  Te  Te133  1  0.82852636  0.83357862  0.49645198  1
  Te  Te134  1  0.83487178  0.83306186  0.83061427  1
  Te  Te135  1  0.16606262  0.00366153  -0.00161702  1
  Te  Te136  1  0.16702962  -0.00465391  0.33269209  1
  Te  Te137  1  0.17000925  0.00222911  0.66728379  1
  Te  Te138  1  0.16741701  0.32587037  -0.00621092  1
  Te  Te139  1  0.17299975  0.33554796  0.33285717  1
  Te  Te140  1  0.16682012  0.32838989  0.67344051  1
  Te  Te141  1  0.17046989  0.66855970  -0.00275974  1
  Te  Te142  1  0.16730314  0.67296039  0.33588361  1
  Te  Te143  1  0.16551839  0.66689549  0.67212782  1
  Te  Te144  1  0.50174431  0.00002199  -0.00418847  1
  Te  Te145  1  0.50038374  -0.00053716  0.34085290  1
  Te  Te146  1  0.49631981  -0.00370772  0.66773064  1
  Te  Te147  1  0.49981355  0.32724253  -0.00254808  1
  Te  Te148  1  0.49615574  0.33287055  0.33225146  1
  Te  Te149  1  0.50260643  0.33286907  0.66805886  1
  Te  Te150  1  0.49573045  0.67013367  -0.00531145  1
  Te  Te151  1  0.50235697  0.66718297  0.33003817  1
  Te  Te152  1  0.50317142  0.66765117  0.67136803  1
  Te  Te153  1  0.82884318  -0.00023722  -0.00290101  1
  Te  Te154  1  0.83071067  -0.00176861  0.33343844  1
  Te  Te155  1  0.83568587  -0.00547697  0.67264798  1
  Te  Te156  1  0.83226013  0.32976570  -0.00163651  1
  Te  Te157  1  0.83376985  0.33508427  0.33573471  1
  Te  Te158  1  0.82868139  0.33304948  0.66693805  1
  Te  Te159  1  0.83243283  0.67199308  -0.00470021  1
  Te  Te160  1  0.83089984  0.66632328  0.33238659  1
  Te  Te161  1  0.82923444  0.66982753  0.67062818  1
  Te  Te162  1  -0.00510262  0.16601546  0.00511559  1
  Te  Te163  1  0.00043135  0.16219599  0.33390210  1
  Te  Te164  1  0.00616677  0.16669231  0.66019925  1
  Te  Te165  1  -0.00067116  0.49962811  0.00084197  1
  Te  Te166  1  -0.00477231  0.50064294  0.33227112  1
  Te  Te167  1  0.00132104  0.50457543  0.67047236  1
  Te  Te168  1  -0.01006029  0.83463792  0.00224091  1
  Te  Te169  1  -0.00359889  0.83813720  0.33478323  1
  Te  Te170  1  -0.00455767  0.82759317  0.66422859  1
  Te  Te171  1  0.33340762  0.16674123  -0.00381402  1
  Te  Te172  1  0.33276479  0.16547793  0.33464077  1
  Te  Te173  1  0.33003490  0.16235830  0.66791773  1
  Te  Te174  1  0.33344154  0.50672163  -0.00626721  1
  Te  Te175  1  0.33370289  0.50659430  0.33391026  1
  Te  Te176  1  0.34045566  0.49988181  0.67290482  1
  Te  Te177  1  0.33382615  0.82988133  -0.00416095  1
  Te  Te178  1  0.33465427  0.83477502  0.33414988  1
  Te  Te179  1  0.33514825  0.83763694  0.66655349  1
  Te  Te180  1  0.66776583  0.16071226  -0.00699061  1
  Te  Te181  1  0.66647511  0.16042539  0.33352189  1
  Te  Te182  1  0.66851603  0.17285811  0.67399803  1
  Te  Te183  1  0.66661654  0.50141714  -0.00484254  1
  Te  Te184  1  0.67135381  0.49969193  0.33663399  1
  Te  Te185  1  0.66475812  0.50308552  0.66785752  1
  Te  Te186  1  0.66706421  0.83798812  -0.00138397  1
  Te  Te187  1  0.66586750  0.83361782  0.33192562  1
  Te  Te188  1  0.66525822  0.83374389  0.66729809  1
  Te  Te189  1  0.00097651  0.00390186  0.17261531  1
  Te  Te190  1  -0.00239701  0.00508131  0.49642343  1
  Te  Te191  1  0.00346014  0.00014331  0.83290698  1
  Te  Te192  1  -0.00338051  0.33426966  0.16768826  1
  Te  Te193  1  -0.00162043  0.32642344  0.50122740  1
  Te  Te194  1  -0.00258254  0.34064264  0.83285084  1
  Te  Te195  1  0.00524587  0.66271539  0.16736519  1
  Te  Te196  1  0.00070873  0.66443571  0.50734425  1
  Te  Te197  1  -0.00191621  0.66322509  0.83121327  1
  Te  Te198  1  0.33865843  0.00173983  0.17665003  1
  Te  Te199  1  0.33616591  -0.00185422  0.50115415  1
  Te  Te200  1  0.33602470  -0.00012483  0.83395381  1
  Te  Te201  1  0.33360311  0.33404213  0.17328024  1
  Te  Te202  1  0.33796618  0.33532797  0.49757548  1
  Te  Te203  1  0.33278894  0.32920601  0.83350628  1
  Te  Te204  1  0.32893438  0.66674612  0.17284178  1
  Te  Te205  1  0.33433595  0.67023604  0.49485233  1
  Te  Te206  1  0.33671469  0.66713575  0.82971401  1
  Te  Te207  1  0.66100457  0.00091317  0.17363454  1
  Te  Te208  1  0.66307724  -0.00357151  0.49871112  1
  Te  Te209  1  0.66447358  -0.00164320  0.83056085  1
  Te  Te210  1  0.67396205  0.33258506  0.16818386  1
  Te  Te211  1  0.66359347  0.33000997  0.50430447  1
  Te  Te212  1  0.66592804  0.33637608  0.82991041  1
  Te  Te213  1  0.66632719  0.66491197  0.17492693  1
  Te  Te214  1  0.66611798  0.66854870  0.50059537  1
  Te  Te215  1  0.66387677  0.67024988  0.83213920  1
