# generated using pymatgen
data_AgSbTe2
_symmetry_space_group_name_H-M   'P 1'
_cell_length_a   18.31639608
_cell_length_b   18.32662494
_cell_length_c   18.32579008
_cell_angle_alpha   89.99944853
_cell_angle_beta   90.00128990
_cell_angle_gamma   89.99995564
_symmetry_Int_Tables_number   1
_chemical_formula_structural   AgSbTe2
_chemical_formula_sum   'Ag54 Sb54 Te108'
_cell_volume   6151.55945231
_cell_formula_units_Z   54
loop_
 _symmetry_equiv_pos_site_id
 _symmetry_equiv_pos_as_xyz
  1  'x, y, z'
loop_
 _atom_site_type_symbol
 _atom_site_label
 _atom_site_symmetry_multiplicity
 _atom_site_fract_x
 _atom_site_fract_y
 _atom_site_fract_z
 _atom_site_occupancy
  Ag  Ag0  1  0.83897887  0.82805428  0.33281351  1
  Ag  Ag1  1  0.67072484  0.32572222  -0.00430164  1
  Ag  Ag2  1  0.83270367  0.33400420  0.50655784  1
  Ag  Ag3  1  0.83868255  0.66381230  0.16861523  1
  Ag  Ag4  1  0.83837501  0.50156850  0.32992632  1
  Ag  Ag5  1  0.66929039  0.48956734  0.83732335  1
  Ag  Ag6  1  0.15675372  0.50715670  0.32782637  1
  Ag  Ag7  1  0.83136703  0.33327433  0.82983176  1
  Ag  Ag8  1  0.15527422  0.17536338  0.66628229  1
  Ag  Ag9  1  0.50377658  0.33017582  0.16580359  1
  Ag  Ag10  1  0.33509967  0.66453843  0.66463420  1
  Ag  Ag11  1  0.50720335  0.83926567  -0.00569517  1
  Ag  Ag12  1  0.49537400  0.66657270  0.50337106  1
  Ag  Ag13  1  0.50486416  -0.00244445  0.84060072  1
  Ag  Ag14  1  0.16108165  0.50017891  0.00526468  1
  Ag  Ag15  1  0.82969258  0.83710373  0.66845668  1
  Ag  Ag16  1  0.66408313  0.17556237  0.15433540  1
  Ag  Ag17  1  0.15835116  0.82577077  0.33292562  1
  Ag  Ag18  1  0.50237904  0.16492607  0.32403672  1
  Ag  Ag19  1  0.50879362  0.49386436  0.00020690  1
  Ag  Ag20  1  0.00241320  0.66006490  0.33190476  1
  Ag  Ag21  1  0.16141716  0.33982959  0.16546278  1
  Ag  Ag22  1  -0.00713822  0.33395157  -0.00130390  1
  Ag  Ag23  1  -0.00406560  0.32988011  0.66515148  1
  Ag  Ag24  1  -0.00358012  0.49576280  0.83953005  1
  Ag  Ag25  1  0.33411959  0.83018910  0.50088881  1
  Ag  Ag26  1  0.16323198  0.82940892  0.00529899  1
  Ag  Ag27  1  0.50084299  0.83495804  0.33440659  1
  Ag  Ag28  1  -0.00012015  0.01092427  0.66578906  1
  Ag  Ag29  1  0.66384377  0.83469482  0.83613238  1
  Ag  Ag30  1  0.50436964  0.83066796  0.67183902  1
  Ag  Ag31  1  -0.00026865  0.34114104  0.33065473  1
  Ag  Ag32  1  0.00020043  -0.00132511  0.33352890  1
  Ag  Ag33  1  0.16063227  0.65678111  0.17465160  1
  Ag  Ag34  1  0.67038732  0.49452760  0.16064291  1
  Ag  Ag35  1  0.66501771  0.01273997  -0.00182535  1
  Ag  Ag36  1  0.82865327  0.83941278  -0.00334781  1
  Ag  Ag37  1  0.16186977  -0.00474358  0.50022852  1
  Ag  Ag38  1  0.33392297  0.33476262  0.66686023  1
  Ag  Ag39  1  0.66610776  0.49580300  0.50187537  1
  Ag  Ag40  1  0.66539377  0.17231354  0.84165529  1
  Ag  Ag41  1  0.34417392  0.16903194  0.83133148  1
  Ag  Ag42  1  0.16381164  0.49390149  0.66503577  1
  Ag  Ag43  1  0.00072280  0.49746219  0.16784903  1
  Ag  Ag44  1  -0.00000853  0.16866482  0.50404318  1
  Ag  Ag45  1  0.82439380  0.16773862  -0.00452917  1
  Ag  Ag46  1  0.50417324  0.00735089  0.15813582  1
  Ag  Ag47  1  0.16844263  0.66846732  0.49480181  1
  Ag  Ag48  1  0.50653373  0.33663261  0.49900936  1
  Ag  Ag49  1  0.83718741  0.17426417  0.67161264  1
  Ag  Ag50  1  0.50216331  0.67189843  0.83114391  1
  Ag  Ag51  1  0.51165269  0.16530515  0.00282303  1
  Ag  Ag52  1  0.67132831  0.33322962  0.67597837  1
  Ag  Ag53  1  -0.00607697  0.00472309  -0.00086466  1
  Sb  Sb54  1  -0.00211557  0.49365348  0.49598297  1
  Sb  Sb55  1  0.16381807  0.16889196  -0.00421015  1
  Sb  Sb56  1  0.66915346  -0.00033028  0.32672335  1
  Sb  Sb57  1  0.16856721  0.00051722  0.83149322  1
  Sb  Sb58  1  0.66389940  0.66203098  0.66761466  1
  Sb  Sb59  1  0.33562988  0.33292331  -0.00548632  1
  Sb  Sb60  1  0.83842418  0.00437760  0.50092672  1
  Sb  Sb61  1  0.82939645  0.00497251  0.83463960  1
  Sb  Sb62  1  0.32665200  0.66792958  0.33883441  1
  Sb  Sb63  1  0.83122688  -0.00348822  0.16357817  1
  Sb  Sb64  1  0.00274256  0.83826673  0.49782392  1
  Sb  Sb65  1  0.16445003  0.33584352  0.50073821  1
  Sb  Sb66  1  0.33382962  0.83250581  0.16973166  1
  Sb  Sb67  1  0.83216249  0.33757042  0.16543272  1
  Sb  Sb68  1  0.66305986  0.82825316  0.50406059  1
  Sb  Sb69  1  -0.00062791  0.82804916  0.16750539  1
  Sb  Sb70  1  0.34066101  0.83580201  0.82949136  1
  Sb  Sb71  1  0.32927160  0.49895875  0.16596512  1
  Sb  Sb72  1  0.33383759  0.66714481  -0.00512180  1
  Sb  Sb73  1  0.67130459  0.66637707  0.33280720  1
  Sb  Sb74  1  0.50046287  0.66480541  0.16642394  1
  Sb  Sb75  1  0.83487944  0.66329275  0.49673199  1
  Sb  Sb76  1  0.32998883  -0.00088664  0.33481812  1
  Sb  Sb77  1  0.67077484  0.00435303  0.67380184  1
  Sb  Sb78  1  0.33053678  0.33358431  0.33756704  1
  Sb  Sb79  1  0.16992772  0.66494496  0.83243420  1
  Sb  Sb80  1  0.83629128  0.49607420  0.66410911  1
  Sb  Sb81  1  0.67079036  0.33434966  0.33110567  1
  Sb  Sb82  1  0.82863101  0.66329832  0.83659020  1
  Sb  Sb83  1  0.49645519  -0.00115521  0.49965736  1
  Sb  Sb84  1  0.33060982  0.00101392  0.66687598  1
  Sb  Sb85  1  0.66690585  0.83200267  0.16059302  1
  Sb  Sb86  1  0.66679244  0.66399651  -0.00064269  1
  Sb  Sb87  1  0.50269567  0.50056496  0.33036556  1
  Sb  Sb88  1  0.50789160  0.33277003  0.83489114  1
  Sb  Sb89  1  0.00349669  0.66361951  0.66134224  1
  Sb  Sb90  1  0.50361187  0.16613462  0.67057534  1
  Sb  Sb91  1  -0.00475950  0.17261150  0.16782486  1
  Sb  Sb92  1  0.49940586  0.50175009  0.67032380  1
  Sb  Sb93  1  0.33062368  0.16510148  0.50511320  1
  Sb  Sb94  1  0.83138137  0.16874595  0.33225168  1
  Sb  Sb95  1  0.16620352  0.16662648  0.33712063  1
  Sb  Sb96  1  0.34085009  0.16875867  0.16118888  1
  Sb  Sb97  1  0.83277713  0.49677583  0.00371309  1
  Sb  Sb98  1  0.33493523  0.50365453  0.50222016  1
  Sb  Sb99  1  0.16026803  0.33412202  0.83357023  1
  Sb  Sb100  1  -0.00542568  0.83014589  0.83553811  1
  Sb  Sb101  1  -0.00517234  0.17148705  0.82988224  1
  Sb  Sb102  1  -0.00009962  0.66274023  0.00466986  1
  Sb  Sb103  1  0.33619559  0.49587501  0.83170448  1
  Sb  Sb104  1  0.16673632  0.83242304  0.66458123  1
  Sb  Sb105  1  0.66948866  0.17327929  0.50273200  1
  Sb  Sb106  1  0.16664639  0.00143807  0.16860277  1
  Sb  Sb107  1  0.33880760  -0.00049274  -0.00141755  1
  Te  Te108  1  0.16960491  0.17256313  0.16641297  1
  Te  Te109  1  0.16312061  0.16427038  0.50502715  1
  Te  Te110  1  0.16956639  0.16619444  0.82671815  1
  Te  Te111  1  0.16485281  0.49812834  0.16555831  1
  Te  Te112  1  0.16683939  0.50377782  0.50068378  1
  Te  Te113  1  0.16361345  0.50066944  0.83710689  1
  Te  Te114  1  0.16668874  0.83339916  0.16724395  1
  Te  Te115  1  0.16850686  0.83114221  0.49867078  1
  Te  Te116  1  0.16702627  0.83286027  0.84028976  1
  Te  Te117  1  0.50271959  0.16838131  0.16419421  1
  Te  Te118  1  0.49983534  0.16923642  0.49861052  1
  Te  Te119  1  0.50476430  0.16584457  0.83547448  1
  Te  Te120  1  0.50206400  0.49710376  0.16254345  1
  Te  Te121  1  0.50392210  0.49929480  0.49905738  1
  Te  Te122  1  0.50416048  0.50294963  0.83815208  1
  Te  Te123  1  0.50040671  0.83267503  0.16769324  1
  Te  Te124  1  0.49833170  0.83150534  0.49915593  1
  Te  Te125  1  0.50123693  0.83295798  0.83337444  1
  Te  Te126  1  0.82650891  0.16650989  0.16253654  1
  Te  Te127  1  0.83760591  0.17202625  0.50252081  1
  Te  Te128  1  0.82909555  0.17124886  0.83349712  1
  Te  Te129  1  0.83430230  0.50261817  0.16925632  1
  Te  Te130  1  0.82862018  0.49636867  0.49569308  1
  Te  Te131  1  0.83163533  0.49667453  0.83408948  1
  Te  Te132  1  0.83231058  0.82737270  0.17050587  1
  Te  Te133  1  0.83169077  0.83265947  0.49911588  1
  Te  Te134  1  0.82820533  0.83093593  0.83424817  1
  Te  Te135  1  0.16246576  -0.00286613  0.00049039  1
  Te  Te136  1  0.16162950  -0.00255385  0.33644349  1
  Te  Te137  1  0.16129526  0.00120762  0.66380594  1
  Te  Te138  1  0.16514654  0.33603780  0.00302401  1
  Te  Te139  1  0.16252136  0.33404581  0.33104441  1
  Te  Te140  1  0.16238196  0.33411784  0.66611108  1
  Te  Te141  1  0.16664163  0.66655522  0.00197310  1
  Te  Te142  1  0.16394453  0.66786648  0.33352789  1
  Te  Te143  1  0.17097063  0.66327814  0.66290808  1
  Te  Te144  1  0.50183138  -0.00015117  -0.00011103  1
  Te  Te145  1  0.50051782  -0.00234612  0.33228885  1
  Te  Te146  1  0.50047897  -0.00589487  0.66848369  1
  Te  Te147  1  0.50103460  0.33418569  0.00103378  1
  Te  Te148  1  0.49881963  0.33378765  0.33301718  1
  Te  Te149  1  0.50255604  0.33340924  0.66382398  1
  Te  Te150  1  0.49868205  0.66853655  -0.00180157  1
  Te  Te151  1  0.49857702  0.67066199  0.33651036  1
  Te  Te152  1  0.49831735  0.66821444  0.66458268  1
  Te  Te153  1  0.83399118  -0.00098111  -0.00021866  1
  Te  Te154  1  0.83874041  -0.00365268  0.33252571  1
  Te  Te155  1  0.83864106  -0.00257841  0.66738787  1
  Te  Te156  1  0.83300694  0.33153111  -0.00066446  1
  Te  Te157  1  0.83944346  0.33491889  0.33709616  1
  Te  Te158  1  0.83347550  0.33434605  0.66662714  1
  Te  Te159  1  0.83478011  0.67654638  0.00438377  1
  Te  Te160  1  0.83846990  0.66737052  0.33159996  1
  Te  Te161  1  0.83444765  0.67488256  0.66625694  1
  Te  Te162  1  -0.00259554  0.16871424  -0.00032167  1
  Te  Te163  1  -0.00068804  0.16399276  0.33637667  1
  Te  Te164  1  -0.00263101  0.16792223  0.66838154  1
  Te  Te165  1  -0.00037139  0.49680704  0.00111034  1
  Te  Te166  1  -0.00027930  0.49850839  0.33317773  1
  Te  Te167  1  0.00356370  0.49638731  0.66754175  1
  Te  Te168  1  -0.00026005  0.83569583  0.00023447  1
  Te  Te169  1  0.00000342  0.83677484  0.33304549  1
  Te  Te170  1  -0.00400594  0.83384250  0.66744943  1
  Te  Te171  1  0.33471149  0.16680369  -0.00793995  1
  Te  Te172  1  0.34200523  0.16670029  0.33502530  1
  Te  Te173  1  0.33306950  0.16970513  0.67031565  1
  Te  Te174  1  0.33007863  0.49970801  -0.00172371  1
  Te  Te175  1  0.32245499  0.49971521  0.33417783  1
  Te  Te176  1  0.32723011  0.49798012  0.66754862  1
  Te  Te177  1  0.33101595  0.83320789  -0.00044987  1
  Te  Te178  1  0.33581703  0.83397338  0.33854018  1
  Te  Te179  1  0.33623091  0.83063482  0.66307589  1
  Te  Te180  1  0.66783716  0.16777041  -0.00096122  1
  Te  Te181  1  0.66188804  0.16588835  0.33212024  1
  Te  Te182  1  0.67285971  0.17180498  0.67008733  1
  Te  Te183  1  0.66716088  0.49736897  -0.00090012  1
  Te  Te184  1  0.67137844  0.50042266  0.33119072  1
  Te  Te185  1  0.66748406  0.49382425  0.66940557  1
  Te  Te186  1  0.66612479  0.83162252  -0.00313584  1
  Te  Te187  1  0.66612125  0.83397424  0.33276475  1
  Te  Te188  1  0.66651693  0.83435880  0.67085107  1
  Te  Te189  1  0.00056318  0.00348449  0.16376867  1
  Te  Te190  1  0.00305383  0.00460252  0.50212585  1
  Te  Te191  1  0.00017589  -0.00103416  0.83589945  1
  Te  Te192  1  0.00014978  0.33656605  0.16616742  1
  Te  Te193  1  -0.00117516  0.32959799  0.50277426  1
  Te  Te194  1  -0.00506023  0.33666235  0.83541449  1
  Te  Te195  1  0.00069060  0.66155528  0.17069501  1
  Te  Te196  1  0.00381701  0.66626565  0.49343451  1
  Te  Te197  1  -0.00057034  0.65744858  0.83157899  1
  Te  Te198  1  0.34255525  0.00072738  0.16699780  1
  Te  Te199  1  0.32467144  -0.00609180  0.50116101  1
  Te  Te200  1  0.34087746  0.00663219  0.83215251  1
  Te  Te201  1  0.33608719  0.33321293  0.16726114  1
  Te  Te202  1  0.33818551  0.33278735  0.50611325  1
  Te  Te203  1  0.33289621  0.32885310  0.82619827  1
  Te  Te204  1  0.32474333  0.66663325  0.16569963  1
  Te  Te205  1  0.33412579  0.66918308  0.50441781  1
  Te  Te206  1  0.33996119  0.66653106  0.82524298  1
  Te  Te207  1  0.66274053  0.00158322  0.15976421  1
  Te  Te208  1  0.66674130  0.00034343  0.49983947  1
  Te  Te209  1  0.66344879  -0.00205044  0.83821173  1
  Te  Te210  1  0.66572409  0.33465660  0.16509553  1
  Te  Te211  1  0.66655188  0.33656874  0.49792046  1
  Te  Te212  1  0.66880556  0.33263430  0.83520443  1
  Te  Te213  1  0.67032115  0.65804849  0.16706714  1
  Te  Te214  1  0.66209554  0.65924977  0.50013563  1
  Te  Te215  1  0.66151254  0.66888760  0.83248750  1
