# generated using pymatgen
data_AgSbTe2
_symmetry_space_group_name_H-M   'P 1'
_cell_length_a   18.33541990
_cell_length_b   18.33784309
_cell_length_c   18.33433310
_cell_angle_alpha   90.00136587
_cell_angle_beta   89.99866370
_cell_angle_gamma   90.00029573
_symmetry_Int_Tables_number   1
_chemical_formula_structural   AgSbTe2
_chemical_formula_sum   'Ag54 Sb54 Te108'
_cell_volume   6164.59045884
_cell_formula_units_Z   54
loop_
 _symmetry_equiv_pos_site_id
 _symmetry_equiv_pos_as_xyz
  1  'x, y, z'
loop_
 _atom_site_type_symbol
 _atom_site_label
 _atom_site_symmetry_multiplicity
 _atom_site_fract_x
 _atom_site_fract_y
 _atom_site_fract_z
 _atom_site_occupancy
  Ag  Ag0  1  0.82367783  0.49921533  -0.01126502  1
  Ag  Ag1  1  0.50317652  0.50745359  0.34058649  1
  Ag  Ag2  1  0.67063000  -0.00184251  -0.00378050  1
  Ag  Ag3  1  0.33127229  0.00207097  0.67210946  1
  Ag  Ag4  1  0.83367601  0.82890285  0.66679751  1
  Ag  Ag5  1  -0.01439672  0.50373379  0.83285085  1
  Ag  Ag6  1  0.83148587  0.15342835  0.33378781  1
  Ag  Ag7  1  0.83112246  0.00023621  0.50046239  1
  Ag  Ag8  1  0.82440863  0.50898179  0.67783724  1
  Ag  Ag9  1  0.82951663  -0.00057490  0.83187115  1
  Ag  Ag10  1  0.34046577  0.66903443  0.00123472  1
  Ag  Ag11  1  0.83095932  0.33550998  0.15276424  1
  Ag  Ag12  1  0.34680920  0.66464307  0.32978132  1
  Ag  Ag13  1  -0.01218999  0.34476424  -0.00272181  1
  Ag  Ag14  1  -0.00152672  0.67160215  0.33144682  1
  Ag  Ag15  1  0.33815839  0.33478077  0.33842330  1
  Ag  Ag16  1  0.82628947  0.34723688  0.83570784  1
  Ag  Ag17  1  0.83515396  0.65875473  0.83144384  1
  Ag  Ag18  1  0.67085808  0.34545106  -0.00390175  1
  Ag  Ag19  1  -0.01023164  -0.00856397  0.33328274  1
  Ag  Ag20  1  0.67072544  0.49743304  0.83715860  1
  Ag  Ag21  1  0.66973935  0.82839054  0.16722224  1
  Ag  Ag22  1  0.33665242  0.33059638  0.66400659  1
  Ag  Ag23  1  0.50802174  0.00209670  0.83244036  1
  Ag  Ag24  1  0.66834996  0.17422375  0.83128315  1
  Ag  Ag25  1  0.16185733  0.83425662  -0.00445549  1
  Ag  Ag26  1  0.66313295  0.16895962  0.50832553  1
  Ag  Ag27  1  0.50410413  0.82715892  0.66511463  1
  Ag  Ag28  1  0.67221876  -0.00208672  0.33095003  1
  Ag  Ag29  1  0.50723701  0.50544988  0.66666709  1
  Ag  Ag30  1  0.82849016  0.83688754  0.33511949  1
  Ag  Ag31  1  -0.00383413  0.66774920  -0.00796080  1
  Ag  Ag32  1  -0.00720491  0.83211899  0.16531375  1
  Ag  Ag33  1  0.33995065  0.16867433  0.50139153  1
  Ag  Ag34  1  0.50728310  0.82699697  0.33583300  1
  Ag  Ag35  1  0.15821864  0.83152704  0.67352298  1
  Ag  Ag36  1  0.33302290  -0.00262372  -0.00721644  1
  Ag  Ag37  1  0.50299369  0.66514786  0.17209115  1
  Ag  Ag38  1  0.33366048  0.16756537  0.16806262  1
  Ag  Ag39  1  -0.00370270  -0.00939141  0.67400796  1
  Ag  Ag40  1  0.16635664  0.50853754  0.66992630  1
  Ag  Ag41  1  0.67145216  0.66285320  0.67307662  1
  Ag  Ag42  1  -0.00381439  -0.00494971  -0.00486058  1
  Ag  Ag43  1  0.66201726  0.49871975  0.50675512  1
  Ag  Ag44  1  0.50118820  0.34110100  0.50728400  1
  Ag  Ag45  1  0.50168447  0.66099908  0.49597426  1
  Ag  Ag46  1  0.15639419  0.66495574  0.83253741  1
  Ag  Ag47  1  0.16709262  0.15892987  -0.00757913  1
  Ag  Ag48  1  0.66447704  0.50885038  0.15239051  1
  Ag  Ag49  1  -0.00898274  0.67076430  0.67423833  1
  Ag  Ag50  1  0.51236319  0.50326067  -0.00578875  1
  Ag  Ag51  1  0.66783272  0.65664127  -0.00489419  1
  Ag  Ag52  1  0.50697923  0.33606738  0.83013873  1
  Ag  Ag53  1  0.17017368  0.16253744  0.67177257  1
  Sb  Sb54  1  0.16298749  -0.00371990  0.83314381  1
  Sb  Sb55  1  -0.00224028  0.82588390  0.83607529  1
  Sb  Sb56  1  0.49883126  0.16865594  -0.00115025  1
  Sb  Sb57  1  0.33620140  0.83665035  0.50125944  1
  Sb  Sb58  1  -0.00521238  0.16937768  0.83513615  1
  Sb  Sb59  1  0.82688212  0.67082135  0.50555806  1
  Sb  Sb60  1  0.34082285  0.49836772  0.16680184  1
  Sb  Sb61  1  0.66652229  0.83278509  0.49766483  1
  Sb  Sb62  1  0.16227824  0.00050830  0.50598822  1
  Sb  Sb63  1  0.82806556  0.66530972  0.16140298  1
  Sb  Sb64  1  -0.00245568  0.83343488  0.50029159  1
  Sb  Sb65  1  0.33696295  0.16500222  0.83122856  1
  Sb  Sb66  1  0.17094221  0.66615711  0.50724805  1
  Sb  Sb67  1  0.50419320  0.16652443  0.33442029  1
  Sb  Sb68  1  0.17163955  0.50302218  0.34076681  1
  Sb  Sb69  1  0.16807180  0.66770336  0.15867635  1
  Sb  Sb70  1  0.16354662  0.50437104  -0.00655908  1
  Sb  Sb71  1  0.66536713  0.16578146  0.16312471  1
  Sb  Sb72  1  0.00220490  0.33605934  0.67267206  1
  Sb  Sb73  1  0.83536934  0.83017787  -0.00174722  1
  Sb  Sb74  1  -0.00907502  0.50272795  0.50845175  1
  Sb  Sb75  1  0.16615697  -0.00120592  0.16180897  1
  Sb  Sb76  1  0.50245905  -0.00607589  0.16174452  1
  Sb  Sb77  1  0.16372951  0.83147844  0.33244879  1
  Sb  Sb78  1  -0.00883063  0.50686058  0.15908226  1
  Sb  Sb79  1  0.50483499  0.33986514  0.16496885  1
  Sb  Sb80  1  0.66106071  0.34213679  0.67595444  1
  Sb  Sb81  1  -0.00053458  0.33482690  0.32591770  1
  Sb  Sb82  1  0.16456189  0.16496636  0.33472431  1
  Sb  Sb83  1  0.66355686  0.33179844  0.33001876  1
  Sb  Sb84  1  0.50515727  -0.00046223  0.50516425  1
  Sb  Sb85  1  0.66896615  -0.00549831  0.66941645  1
  Sb  Sb86  1  0.17519562  0.33243204  0.50372077  1
  Sb  Sb87  1  0.50087307  0.82832000  -0.00159788  1
  Sb  Sb88  1  0.33623693  0.66751212  0.66858216  1
  Sb  Sb89  1  0.50478940  0.66465270  0.83271704  1
  Sb  Sb90  1  0.66848199  0.83001008  0.83677047  1
  Sb  Sb91  1  0.83477233  0.16401601  0.66624837  1
  Sb  Sb92  1  0.33628498  -0.00040236  0.33442837  1
  Sb  Sb93  1  0.33678502  0.33298722  -0.00166702  1
  Sb  Sb94  1  0.82414937  0.33022765  0.50544404  1
  Sb  Sb95  1  0.00067139  0.16166903  0.16337190  1
  Sb  Sb96  1  0.82681667  0.50477772  0.33358905  1
  Sb  Sb97  1  -0.00250170  0.16498771  0.50136178  1
  Sb  Sb98  1  0.49796094  0.16926204  0.66713563  1
  Sb  Sb99  1  0.83456956  0.17048070  0.00163975  1
  Sb  Sb100  1  0.16423862  0.33254273  0.16291068  1
  Sb  Sb101  1  0.33456758  0.83347339  0.83325871  1
  Sb  Sb102  1  0.83308615  0.00089523  0.16549517  1
  Sb  Sb103  1  0.66558197  0.67011480  0.33150003  1
  Sb  Sb104  1  0.34268690  0.49637844  0.50242496  1
  Sb  Sb105  1  0.33962564  0.50009728  0.83270168  1
  Sb  Sb106  1  0.33545287  0.83431339  0.16486473  1
  Sb  Sb107  1  0.16643939  0.33662788  0.83302980  1
  Te  Te108  1  0.17196705  0.16650336  0.16447145  1
  Te  Te109  1  0.17202824  0.16672593  0.50461791  1
  Te  Te110  1  0.16655820  0.16773378  0.83286014  1
  Te  Te111  1  0.16568148  0.49959480  0.16971901  1
  Te  Te112  1  0.16416308  0.49915104  0.51001291  1
  Te  Te113  1  0.16756198  0.50402055  0.82830634  1
  Te  Te114  1  0.16157609  0.83284307  0.16107797  1
  Te  Te115  1  0.16808999  0.83334461  0.51057942  1
  Te  Te116  1  0.16687537  0.82804815  0.83359592  1
  Te  Te117  1  0.49390795  0.16683173  0.16730456  1
  Te  Te118  1  0.50222631  0.16984529  0.49995231  1
  Te  Te119  1  0.50692392  0.16706574  0.83370656  1
  Te  Te120  1  0.50550370  0.50463715  0.16361385  1
  Te  Te121  1  0.50304879  0.50007858  0.50210107  1
  Te  Te122  1  0.50491298  0.49843698  0.83141368  1
  Te  Te123  1  0.50302468  0.82726738  0.16980758  1
  Te  Te124  1  0.50095529  0.82962411  0.50097786  1
  Te  Te125  1  0.50146275  0.83813038  0.82727911  1
  Te  Te126  1  0.83313104  0.17440912  0.17255081  1
  Te  Te127  1  0.82867447  0.16297876  0.49637481  1
  Te  Te128  1  0.82780448  0.15912398  0.83391541  1
  Te  Te129  1  0.82542353  0.49637717  0.16568920  1
  Te  Te130  1  0.82377037  0.49915047  0.50337837  1
  Te  Te131  1  0.83148834  0.50277859  0.83345949  1
  Te  Te132  1  0.83210340  0.83227391  0.17070629  1
  Te  Te133  1  0.83210167  0.83961647  0.50072452  1
  Te  Te134  1  0.83286007  0.84071614  0.82712835  1
  Te  Te135  1  0.16881970  -0.00223909  -0.00262250  1
  Te  Te136  1  0.16038327  -0.00105515  0.33521368  1
  Te  Te137  1  0.16670407  -0.00282782  0.66865196  1
  Te  Te138  1  0.16577955  0.32983309  -0.00109027  1
  Te  Te139  1  0.17398131  0.33391988  0.33324386  1
  Te  Te140  1  0.17144557  0.32873537  0.66798237  1
  Te  Te141  1  0.16114448  0.66937299  -0.00538371  1
  Te  Te142  1  0.16382865  0.66719115  0.33410790  1
  Te  Te143  1  0.16854878  0.66927922  0.67117823  1
  Te  Te144  1  0.49597296  -0.00161771  -0.00480165  1
  Te  Te145  1  0.50328293  -0.00656129  0.33384485  1
  Te  Te146  1  0.49861547  -0.00312182  0.66988579  1
  Te  Te147  1  0.50385327  0.33869833  -0.00326960  1
  Te  Te148  1  0.49635879  0.33507183  0.33324909  1
  Te  Te149  1  0.49706838  0.33566478  0.66735832  1
  Te  Te150  1  0.50192063  0.66460699  -0.00156934  1
  Te  Te151  1  0.50354742  0.66684595  0.33362189  1
  Te  Te152  1  0.50010370  0.66570332  0.66635759  1
  Te  Te153  1  0.83507401  -0.00029153  -0.00200343  1
  Te  Te154  1  0.83343613  -0.00358976  0.32970935  1
  Te  Te155  1  0.83607392  -0.00052816  0.66617201  1
  Te  Te156  1  0.83197528  0.33268752  -0.00491049  1
  Te  Te157  1  0.83506146  0.33489900  0.33589758  1
  Te  Te158  1  0.83552086  0.33502840  0.67382333  1
  Te  Te159  1  0.83239674  0.66469076  -0.00369915  1
  Te  Te160  1  0.83719116  0.67322171  0.33469380  1
  Te  Te161  1  0.83238602  0.66744071  0.66700752  1
  Te  Te162  1  0.00619412  0.15708898  0.00089400  1
  Te  Te163  1  -0.00454198  0.16537910  0.33239324  1
  Te  Te164  1  0.00717963  0.16424823  0.66700622  1
  Te  Te165  1  -0.00184284  0.50301231  -0.00473784  1
  Te  Te166  1  0.00036274  0.50478434  0.33325235  1
  Te  Te167  1  0.00108710  0.50289401  0.67147897  1
  Te  Te168  1  -0.00010398  0.83245099  0.00230807  1
  Te  Te169  1  0.00030627  0.83354252  0.33148599  1
  Te  Te170  1  -0.00183327  0.83172141  0.66624119  1
  Te  Te171  1  0.32968662  0.16469900  0.00098117  1
  Te  Te172  1  0.33276431  0.16729248  0.33576598  1
  Te  Te173  1  0.33204381  0.16481256  0.66535879  1
  Te  Te174  1  0.33294053  0.50496662  0.00056877  1
  Te  Te175  1  0.33936947  0.50252674  0.33400180  1
  Te  Te176  1  0.33085195  0.49794025  0.66671625  1
  Te  Te177  1  0.32954291  0.83347924  0.00108803  1
  Te  Te178  1  0.33510733  0.82889578  0.33277056  1
  Te  Te179  1  0.33796577  0.83745510  0.66644127  1
  Te  Te180  1  0.66657398  0.15664875  -0.00352627  1
  Te  Te181  1  0.67071153  0.16235732  0.33178807  1
  Te  Te182  1  0.66744723  0.16521518  0.66760313  1
  Te  Te183  1  0.66797556  0.50076453  -0.00229111  1
  Te  Te184  1  0.66167012  0.50022451  0.33920355  1
  Te  Te185  1  0.66610464  0.50143247  0.66867931  1
  Te  Te186  1  0.66708830  0.83981695  0.00617199  1
  Te  Te187  1  0.66710592  0.83599483  0.33148616  1
  Te  Te188  1  0.66753298  0.82704013  0.66567401  1
  Te  Te189  1  -0.00028526  -0.00598354  0.16448340  1
  Te  Te190  1  -0.00721552  0.00085155  0.49936115  1
  Te  Te191  1  -0.00306817  0.00226968  0.83240279  1
  Te  Te192  1  -0.00595097  0.33454818  0.15890747  1
  Te  Te193  1  -0.00023719  0.33354467  0.49703794  1
  Te  Te194  1  -0.00277429  0.33791295  0.83895623  1
  Te  Te195  1  -0.00019525  0.67139796  0.16721994  1
  Te  Te196  1  0.00145922  0.66591429  0.49824401  1
  Te  Te197  1  -0.00331025  0.66438330  0.83190721  1
  Te  Te198  1  0.33429066  0.00496966  0.16418486  1
  Te  Te199  1  0.33437862  0.00725829  0.50342273  1
  Te  Te200  1  0.33620734  0.00062108  0.83305240  1
  Te  Te201  1  0.33321931  0.32946138  0.16920719  1
  Te  Te202  1  0.34016198  0.32977970  0.50110456  1
  Te  Te203  1  0.33920189  0.33258592  0.82795800  1
  Te  Te204  1  0.33777856  0.66637713  0.16532335  1
  Te  Te205  1  0.33860924  0.66736211  0.49512317  1
  Te  Te206  1  0.33134093  0.66656915  0.84058945  1
  Te  Te207  1  0.66635772  -0.00269605  0.16608166  1
  Te  Te208  1  0.67009230  0.00410572  0.49743070  1
  Te  Te209  1  0.66643070  -0.00332790  0.83392554  1
  Te  Te210  1  0.67017124  0.33366544  0.16096565  1
  Te  Te211  1  0.66081772  0.33007837  0.49810079  1
  Te  Te212  1  0.66687231  0.33329107  0.83590127  1
  Te  Te213  1  0.66433688  0.66751065  0.16429793  1
  Te  Te214  1  0.66193153  0.66337650  0.50484121  1
  Te  Te215  1  0.67055323  0.66423680  0.83499032  1
