# generated using pymatgen
data_AgSbTe2
_symmetry_space_group_name_H-M   'P 1'
_cell_length_a   18.33743920
_cell_length_b   18.33370719
_cell_length_c   18.33983310
_cell_angle_alpha   90.00232603
_cell_angle_beta   89.99848077
_cell_angle_gamma   89.99938096
_symmetry_Int_Tables_number   1
_chemical_formula_structural   AgSbTe2
_chemical_formula_sum   'Ag54 Sb54 Te108'
_cell_volume   6165.72791988
_cell_formula_units_Z   54
loop_
 _symmetry_equiv_pos_site_id
 _symmetry_equiv_pos_as_xyz
  1  'x, y, z'
loop_
 _atom_site_type_symbol
 _atom_site_label
 _atom_site_symmetry_multiplicity
 _atom_site_fract_x
 _atom_site_fract_y
 _atom_site_fract_z
 _atom_site_occupancy
  Ag  Ag0  1  0.83355991  0.66335328  0.83653175  1
  Ag  Ag1  1  -0.00632622  0.83188661  0.50209923  1
  Ag  Ag2  1  0.82705613  0.33307635  0.84135652  1
  Ag  Ag3  1  0.82778512  0.17194254  0.00188323  1
  Ag  Ag4  1  0.16215728  0.49780539  0.33809152  1
  Ag  Ag5  1  0.50495492  0.00996766  0.49584401  1
  Ag  Ag6  1  0.66479765  0.33266053  0.65184647  1
  Ag  Ag7  1  0.67018915  0.49006412  0.49416945  1
  Ag  Ag8  1  0.51042449  0.33666794  0.16571719  1
  Ag  Ag9  1  0.34750603  0.32894435  0.00508768  1
  Ag  Ag10  1  0.50658654  0.17561510  0.65852929  1
  Ag  Ag11  1  0.66627350  0.33609875  0.33708474  1
  Ag  Ag12  1  0.15820862  -0.00020834  0.84180577  1
  Ag  Ag13  1  0.34411403  0.32943699  0.33531902  1
  Ag  Ag14  1  0.16821188  0.33733150  0.49739672  1
  Ag  Ag15  1  0.50888974  0.66014023  0.16363248  1
  Ag  Ag16  1  0.82929747  0.17557710  0.33844614  1
  Ag  Ag17  1  0.82255269  0.33413702  0.49495659  1
  Ag  Ag18  1  0.66660262  0.17615625  0.49806803  1
  Ag  Ag19  1  -0.00764227  0.66838850  -0.00346672  1
  Ag  Ag20  1  -0.00325894  0.83281552  0.83387557  1
  Ag  Ag21  1  0.34173772  0.00771048  0.33019695  1
  Ag  Ag22  1  0.15754870  0.65728296  0.50209471  1
  Ag  Ag23  1  0.83451805  0.00898921  0.84267570  1
  Ag  Ag24  1  0.66869622  0.83326571  0.49523380  1
  Ag  Ag25  1  0.15831233  0.49880760  0.00312547  1
  Ag  Ag26  1  0.83457929  0.49270554  0.01225248  1
  Ag  Ag27  1  0.51042566  0.17019815  -0.00369826  1
  Ag  Ag28  1  0.50117334  0.49410624  0.66458732  1
  Ag  Ag29  1  0.50877436  0.33528766  0.83405611  1
  Ag  Ag30  1  0.50432566  0.83573401  0.33176505  1
  Ag  Ag31  1  0.82675064  0.34149279  0.16708860  1
  Ag  Ag32  1  0.50705908  0.66208654  0.83599443  1
  Ag  Ag33  1  0.67117655  0.49629415  0.17288276  1
  Ag  Ag34  1  0.67312400  0.00972393  0.00776925  1
  Ag  Ag35  1  0.33327253  0.66252300  0.66480033  1
  Ag  Ag36  1  -0.01462715  0.16633867  0.50063363  1
  Ag  Ag37  1  0.82693680  0.17102020  0.65655343  1
  Ag  Ag38  1  0.66491310  0.00274236  0.33269161  1
  Ag  Ag39  1  0.66842280  0.65418194  0.33447558  1
  Ag  Ag40  1  0.82887136  0.65448229  0.16677172  1
  Ag  Ag41  1  -0.00202056  0.66479371  0.66453992  1
  Ag  Ag42  1  0.82894726  0.49490341  0.32558436  1
  Ag  Ag43  1  0.33638617  0.00813713  0.00515217  1
  Ag  Ag44  1  0.16822476  0.50171597  0.65664689  1
  Ag  Ag45  1  0.34747962  0.17021359  0.49856852  1
  Ag  Ag46  1  -0.01101107  -0.00288736  -0.00084413  1
  Ag  Ag47  1  0.83115893  0.00389866  0.16143131  1
  Ag  Ag48  1  0.50081248  0.84083491  0.00440730  1
  Ag  Ag49  1  -0.01470957  0.50061919  0.16431672  1
  Ag  Ag50  1  0.16211636  0.00030669  0.16095598  1
  Ag  Ag51  1  0.50948535  0.32881489  0.50012281  1
  Ag  Ag52  1  0.83337624  0.65841048  0.49898682  1
  Ag  Ag53  1  0.66599979  0.32956152  0.00450813  1
  Sb  Sb54  1  0.16461190  0.82748406  0.66588305  1
  Sb  Sb55  1  0.50650604  0.49746315  0.33643874  1
  Sb  Sb56  1  0.34257528  0.33622798  0.66294186  1
  Sb  Sb57  1  0.50503051  0.49479502  -0.00163299  1
  Sb  Sb58  1  0.82558236  0.83175479  0.33546144  1
  Sb  Sb59  1  0.50208786  0.83093856  0.66520006  1
  Sb  Sb60  1  0.82706979  0.00525104  0.49759390  1
  Sb  Sb61  1  -0.00301838  0.83055153  0.16550783  1
  Sb  Sb62  1  0.16882585  0.00199882  0.49824011  1
  Sb  Sb63  1  0.33686297  0.83625182  0.49821590  1
  Sb  Sb64  1  -0.00727143  0.33458631  0.00016810  1
  Sb  Sb65  1  0.33767883  0.49828349  0.16727540  1
  Sb  Sb66  1  0.16357912  0.66509610  0.16971282  1
  Sb  Sb67  1  0.33450715  0.66370603  -0.00314060  1
  Sb  Sb68  1  0.83160982  0.49560459  0.66488641  1
  Sb  Sb69  1  0.33495962  -0.00045452  0.66629092  1
  Sb  Sb70  1  0.16370010  0.17170947  0.33584589  1
  Sb  Sb71  1  0.50555483  0.00433465  0.16800349  1
  Sb  Sb72  1  0.66880792  0.65941433  0.66050313  1
  Sb  Sb73  1  0.50710478  0.16708604  0.33554845  1
  Sb  Sb74  1  -0.00605737  0.16191937  0.83091148  1
  Sb  Sb75  1  0.67112436  0.66476336  0.00478401  1
  Sb  Sb76  1  0.16559229  0.17315770  0.66331139  1
  Sb  Sb77  1  0.66767378  0.49693241  0.83418561  1
  Sb  Sb78  1  0.50510460  0.66335243  0.49983848  1
  Sb  Sb79  1  -0.00868346  0.66491068  0.33447135  1
  Sb  Sb80  1  -0.00705831  0.33815533  0.66384146  1
  Sb  Sb81  1  0.16854002  0.83344128  -0.00028178  1
  Sb  Sb82  1  0.33501587  0.49923848  0.83301531  1
  Sb  Sb83  1  -0.00402107  0.49945447  0.49648486  1
  Sb  Sb84  1  0.16456714  0.16796933  0.00008343  1
  Sb  Sb85  1  0.50435597  0.00221534  0.83585462  1
  Sb  Sb86  1  0.33623387  0.16743755  0.83146758  1
  Sb  Sb87  1  0.16310452  0.66843835  0.82927891  1
  Sb  Sb88  1  0.33610187  0.16701514  0.17142775  1
  Sb  Sb89  1  0.66622221  0.82933313  0.17131007  1
  Sb  Sb90  1  0.82844387  0.83478211  -0.00094497  1
  Sb  Sb91  1  0.66990081  0.83268459  0.83142631  1
  Sb  Sb92  1  0.66813186  0.16985267  0.83287639  1
  Sb  Sb93  1  0.16571094  0.33269706  0.17078679  1
  Sb  Sb94  1  -0.00628141  0.16995248  0.16895256  1
  Sb  Sb95  1  -0.00170365  -0.00291604  0.66990552  1
  Sb  Sb96  1  0.16682803  0.33247589  0.83171890  1
  Sb  Sb97  1  0.66810443  0.00826527  0.66457586  1
  Sb  Sb98  1  0.33687444  0.83523163  0.16689562  1
  Sb  Sb99  1  0.17148408  0.83025906  0.33531541  1
  Sb  Sb100  1  0.33985713  0.66277911  0.33783289  1
  Sb  Sb101  1  0.66809956  0.17526562  0.17123430  1
  Sb  Sb102  1  0.83360610  0.83521617  0.66608438  1
  Sb  Sb103  1  -0.00893217  0.33488478  0.33532014  1
  Sb  Sb104  1  -0.00273476  0.50522714  0.83754692  1
  Sb  Sb105  1  -0.00401885  -0.00008136  0.32953285  1
  Sb  Sb106  1  0.33509048  0.49370290  0.49956423  1
  Sb  Sb107  1  0.33194315  0.83393343  0.83482993  1
  Te  Te108  1  0.16338848  0.15964330  0.16815296  1
  Te  Te109  1  0.16643826  0.17133734  0.50038451  1
  Te  Te110  1  0.16567546  0.16021089  0.83138497  1
  Te  Te111  1  0.16667492  0.50108134  0.16443341  1
  Te  Te112  1  0.16569898  0.49987588  0.49868675  1
  Te  Te113  1  0.16582666  0.49936601  0.83839633  1
  Te  Te114  1  0.16565376  0.83955172  0.16769130  1
  Te  Te115  1  0.16300098  0.83014842  0.49964667  1
  Te  Te116  1  0.16005387  0.83939046  0.83321620  1
  Te  Te117  1  0.49958033  0.17462540  0.15673286  1
  Te  Te118  1  0.50469585  0.16884358  0.49802066  1
  Te  Te119  1  0.50047181  0.17114465  0.83503260  1
  Te  Te120  1  0.50489285  0.49866134  0.16691519  1
  Te  Te121  1  0.50382645  0.49505164  0.50341637  1
  Te  Te122  1  0.50113440  0.49988094  0.82866071  1
  Te  Te123  1  0.50106490  0.82886944  0.16619436  1
  Te  Te124  1  0.50388531  0.83402157  0.49682433  1
  Te  Te125  1  0.50099765  0.82933310  0.83590173  1
  Te  Te126  1  0.83368503  0.16413028  0.16270863  1
  Te  Te127  1  0.82807810  0.16756626  0.49852233  1
  Te  Te128  1  0.83370302  0.16941102  0.84063316  1
  Te  Te129  1  0.82972822  0.49936631  0.16856476  1
  Te  Te130  1  0.83169022  0.49827197  0.49905052  1
  Te  Te131  1  0.83325991  0.50056214  0.83343678  1
  Te  Te132  1  0.83356546  0.83739348  0.16775903  1
  Te  Te133  1  0.83338462  0.83145675  0.50099534  1
  Te  Te134  1  0.83705278  0.82486929  0.83203179  1
  Te  Te135  1  0.17190544  0.00024483  0.00077254  1
  Te  Te136  1  0.16940819  -0.00057372  0.33011477  1
  Te  Te137  1  0.16766889  0.00116421  0.67111886  1
  Te  Te138  1  0.16480530  0.33680717  0.00047263  1
  Te  Te139  1  0.16858773  0.33781213  0.33540986  1
  Te  Te140  1  0.16829068  0.34082775  0.66525717  1
  Te  Te141  1  0.16481940  0.66284104  -0.00000305  1
  Te  Te142  1  0.16996031  0.66155831  0.33836731  1
  Te  Te143  1  0.16404460  0.66139161  0.66403875  1
  Te  Te144  1  0.49938036  0.00292733  -0.00010705  1
  Te  Te145  1  0.50152133  0.00108130  0.33323612  1
  Te  Te146  1  0.49972778  0.00428950  0.66394511  1
  Te  Te147  1  0.50353575  0.33382334  -0.00096061  1
  Te  Te148  1  0.50238719  0.33293693  0.33315357  1
  Te  Te149  1  0.50218759  0.33320842  0.66747307  1
  Te  Te150  1  0.49932932  0.66484272  -0.00059510  1
  Te  Te151  1  0.50423640  0.66903533  0.33033751  1
  Te  Te152  1  0.49998644  0.66370080  0.66953174  1
  Te  Te153  1  0.83147829  -0.00322614  -0.00055473  1
  Te  Te154  1  0.82905509  0.00101728  0.32987386  1
  Te  Te155  1  0.83333779  0.00859025  0.67430365  1
  Te  Te156  1  0.83261259  0.33358290  0.00149082  1
  Te  Te157  1  0.82986510  0.33480022  0.33389130  1
  Te  Te158  1  0.82835764  0.33052461  0.66454989  1
  Te  Te159  1  0.83443235  0.66775816  0.00065743  1
  Te  Te160  1  0.82772629  0.66541562  0.33372886  1
  Te  Te161  1  0.83649205  0.66650479  0.66588567  1
  Te  Te162  1  -0.00364614  0.15866698  0.00006352  1
  Te  Te163  1  -0.00807380  0.16576975  0.33987508  1
  Te  Te164  1  -0.00397819  0.16674321  0.66021681  1
  Te  Te165  1  -0.00393940  0.50129021  0.00273291  1
  Te  Te166  1  -0.00048249  0.50104013  0.32740893  1
  Te  Te167  1  0.00486876  0.50545296  0.66660819  1
  Te  Te168  1  0.00112688  0.83345875  -0.00163789  1
  Te  Te169  1  0.00192675  0.83276322  0.34021959  1
  Te  Te170  1  -0.00043776  0.82680385  0.66457199  1
  Te  Te171  1  0.33208354  0.16813051  -0.00039742  1
  Te  Te172  1  0.33148981  0.16810444  0.33765115  1
  Te  Te173  1  0.33793445  0.16693401  0.65984956  1
  Te  Te174  1  0.32913632  0.49472287  0.00031598  1
  Te  Te175  1  0.32721211  0.49444206  0.33324258  1
  Te  Te176  1  0.33336734  0.50329035  0.66629866  1
  Te  Te177  1  0.34013287  0.83653875  0.00003526  1
  Te  Te178  1  0.34130402  0.83884214  0.33383712  1
  Te  Te179  1  0.33309665  0.82517949  0.66651243  1
  Te  Te180  1  0.66791571  0.16658702  0.00008219  1
  Te  Te181  1  0.67100737  0.16565503  0.33646573  1
  Te  Te182  1  0.66610997  0.17201481  0.66264422  1
  Te  Te183  1  0.67245880  0.49759408  0.00381363  1
  Te  Te184  1  0.66730986  0.49713200  0.33379088  1
  Te  Te185  1  0.66343251  0.49390947  0.66196361  1
  Te  Te186  1  0.65909285  0.83474638  -0.00054383  1
  Te  Te187  1  0.66198531  0.84155559  0.33653594  1
  Te  Te188  1  0.66625641  0.83445385  0.65822300  1
  Te  Te189  1  -0.00213187  -0.00127462  0.16200642  1
  Te  Te190  1  0.00034607  -0.00100830  0.50027035  1
  Te  Te191  1  -0.00331256  -0.00423260  0.83669720  1
  Te  Te192  1  -0.00473467  0.33892569  0.16715357  1
  Te  Te193  1  0.00632926  0.32907844  0.50067390  1
  Te  Te194  1  -0.00619092  0.33243355  0.83212951  1
  Te  Te195  1  -0.00427867  0.66364903  0.16243422  1
  Te  Te196  1  -0.00262466  0.66629364  0.50010314  1
  Te  Te197  1  -0.00200591  0.67092389  0.83595761  1
  Te  Te198  1  0.33377600  0.00154054  0.16752032  1
  Te  Te199  1  0.33719424  0.00443014  0.49721701  1
  Te  Te200  1  0.33215255  -0.00061200  0.83844539  1
  Te  Te201  1  0.33417672  0.33220049  0.16750010  1
  Te  Te202  1  0.33127394  0.32987691  0.49746894  1
  Te  Te203  1  0.33615962  0.33255860  0.84131102  1
  Te  Te204  1  0.33954452  0.66715637  0.16712104  1
  Te  Te205  1  0.33222905  0.66729890  0.50352477  1
  Te  Te206  1  0.33680290  0.66729668  0.82805566  1
  Te  Te207  1  0.66889132  -0.00175105  0.16699416  1
  Te  Te208  1  0.66391595  -0.00290380  0.49833619  1
  Te  Te209  1  0.67333303  -0.00222497  0.83816201  1
  Te  Te210  1  0.66812373  0.33510389  0.16592954  1
  Te  Te211  1  0.66751530  0.33363997  0.49733181  1
  Te  Te212  1  0.66725159  0.33450268  0.84394403  1
  Te  Te213  1  0.66844087  0.66330308  0.17076776  1
  Te  Te214  1  0.67044459  0.66867496  0.49559876  1
  Te  Te215  1  0.66767701  0.66616309  0.83119690  1
