# generated using pymatgen
data_AgSbTe2
_symmetry_space_group_name_H-M   'P 1'
_cell_length_a   18.31900042
_cell_length_b   18.32854765
_cell_length_c   18.32806872
_cell_angle_alpha   90.00034800
_cell_angle_beta   89.99845651
_cell_angle_gamma   89.99880704
_symmetry_Int_Tables_number   1
_chemical_formula_structural   AgSbTe2
_chemical_formula_sum   'Ag54 Sb54 Te108'
_cell_volume   6153.84466731
_cell_formula_units_Z   54
loop_
 _symmetry_equiv_pos_site_id
 _symmetry_equiv_pos_as_xyz
  1  'x, y, z'
loop_
 _atom_site_type_symbol
 _atom_site_label
 _atom_site_symmetry_multiplicity
 _atom_site_fract_x
 _atom_site_fract_y
 _atom_site_fract_z
 _atom_site_occupancy
  Ag  Ag0  1  0.50522511  0.00010514  0.82845419  1
  Ag  Ag1  1  0.00512358  0.66367280  0.66196814  1
  Ag  Ag2  1  0.01103458  0.33835121  0.34440552  1
  Ag  Ag3  1  -0.00210357  0.34005331  0.66230656  1
  Ag  Ag4  1  0.32340234  0.66706005  0.33228914  1
  Ag  Ag5  1  0.66593967  0.16634082  0.50251189  1
  Ag  Ag6  1  0.83056556  0.49280669  -0.00663662  1
  Ag  Ag7  1  0.33398719  0.32975282  -0.00200332  1
  Ag  Ag8  1  0.66686767  0.00148332  0.32799495  1
  Ag  Ag9  1  0.00901872  0.50334341  0.50171113  1
  Ag  Ag10  1  0.33375812  0.16463454  0.17097774  1
  Ag  Ag11  1  0.32955875  0.00336150  0.66558148  1
  Ag  Ag12  1  0.50556251  0.32786302  0.83195350  1
  Ag  Ag13  1  0.17031847  0.17159053  0.33316122  1
  Ag  Ag14  1  0.83304576  0.84431522  0.00030384  1
  Ag  Ag15  1  0.66814343  0.32586448  -0.00939042  1
  Ag  Ag16  1  0.16514294  0.82486261  0.66185839  1
  Ag  Ag17  1  0.32148561  0.49256514  0.49890034  1
  Ag  Ag18  1  0.67159698  0.65985422  0.66586381  1
  Ag  Ag19  1  0.00022843  -0.00026612  0.66393383  1
  Ag  Ag20  1  0.17130386  0.67063502  0.82507265  1
  Ag  Ag21  1  0.66794676  0.49950550  0.16971870  1
  Ag  Ag22  1  0.67350293  0.33381438  0.67064178  1
  Ag  Ag23  1  0.33000491  0.32999871  0.66251923  1
  Ag  Ag24  1  0.33184076  0.83221692  0.83551632  1
  Ag  Ag25  1  0.16480502  0.65662641  0.49835282  1
  Ag  Ag26  1  0.49666939  0.67059723  0.16757090  1
  Ag  Ag27  1  0.83113337  0.17122519  0.67258554  1
  Ag  Ag28  1  0.49097100  0.83355055  0.33133862  1
  Ag  Ag29  1  0.67017220  0.16842390  0.83754511  1
  Ag  Ag30  1  0.16709519  0.50816156  0.34386163  1
  Ag  Ag31  1  0.50374831  0.00065298  0.50363232  1
  Ag  Ag32  1  0.66582379  0.16217689  0.15844305  1
  Ag  Ag33  1  0.16730381  0.83397526  0.00077240  1
  Ag  Ag34  1  0.33376127  0.83435389  0.16839961  1
  Ag  Ag35  1  0.16900119  0.34168317  0.49907724  1
  Ag  Ag36  1  0.82540675  0.00769302  0.83326920  1
  Ag  Ag37  1  0.82617084  0.00069703  0.15734913  1
  Ag  Ag38  1  0.82651441  0.16393584  -0.00657158  1
  Ag  Ag39  1  0.01095867  0.66449391  0.34332341  1
  Ag  Ag40  1  0.17082960  0.82232979  0.33511544  1
  Ag  Ag41  1  0.16823842  0.16550395  0.00373523  1
  Ag  Ag42  1  0.16079718  0.50560103  0.65473691  1
  Ag  Ag43  1  0.66830489  0.49380168  0.50264475  1
  Ag  Ag44  1  0.66294675  0.83728120  0.16630739  1
  Ag  Ag45  1  0.82493377  0.32618176  0.82957503  1
  Ag  Ag46  1  0.00409625  0.82436793  0.50181252  1
  Ag  Ag47  1  0.33229634  0.17137366  0.49764578  1
  Ag  Ag48  1  0.82911760  0.00241143  0.50596938  1
  Ag  Ag49  1  0.83718391  0.49246819  0.66709420  1
  Ag  Ag50  1  0.17345769  0.66961674  0.18332354  1
  Ag  Ag51  1  0.32806870  0.33408940  0.34367166  1
  Ag  Ag52  1  0.67107419  0.00821076  0.00544255  1
  Ag  Ag53  1  0.49635290  0.66991785  0.83269373  1
  Sb  Sb54  1  0.66890469  0.00330592  0.66676028  1
  Sb  Sb55  1  0.16756216  -0.00308720  0.83222716  1
  Sb  Sb56  1  0.83724747  0.49846950  0.33930367  1
  Sb  Sb57  1  0.83055955  0.32916424  0.16058822  1
  Sb  Sb58  1  0.33527903  0.50061439  0.17210049  1
  Sb  Sb59  1  -0.00064766  0.50058032  0.82219316  1
  Sb  Sb60  1  0.16938597  0.33569673  0.17546352  1
  Sb  Sb61  1  0.33775532  0.00220245  -0.00348052  1
  Sb  Sb62  1  0.83511571  0.16621581  0.33429392  1
  Sb  Sb63  1  0.66679834  0.66562472  -0.00315487  1
  Sb  Sb64  1  0.16283660  0.50045656  0.00152122  1
  Sb  Sb65  1  0.33130759  0.66456814  0.00389911  1
  Sb  Sb66  1  0.49459351  0.50471288  0.33482090  1
  Sb  Sb67  1  0.49517564  0.32968958  0.50486224  1
  Sb  Sb68  1  0.16697664  0.00038926  0.50103620  1
  Sb  Sb69  1  0.83538978  0.83570447  0.33025435  1
  Sb  Sb70  1  0.49572923  0.67040545  0.50036418  1
  Sb  Sb71  1  0.00078075  0.16968339  0.50111238  1
  Sb  Sb72  1  0.84066430  0.66807917  0.50229241  1
  Sb  Sb73  1  -0.00222637  0.33259394  -0.00488961  1
  Sb  Sb74  1  0.16426972  0.16879517  0.66611708  1
  Sb  Sb75  1  0.50087870  0.49951742  0.66569147  1
  Sb  Sb76  1  0.50473210  0.49872208  0.00040579  1
  Sb  Sb77  1  0.49645119  0.16209964  0.33471051  1
  Sb  Sb78  1  0.83641366  0.33039720  0.50761451  1
  Sb  Sb79  1  -0.00360986  0.50131227  0.17465518  1
  Sb  Sb80  1  0.83198092  0.66723483  0.83081856  1
  Sb  Sb81  1  0.67022440  0.83629199  0.49740588  1
  Sb  Sb82  1  0.66737416  0.49325842  0.83066163  1
  Sb  Sb83  1  -0.00678560  0.16602947  0.83120860  1
  Sb  Sb84  1  0.66482257  0.32905256  0.33591117  1
  Sb  Sb85  1  0.16849747  0.33649203  0.82778180  1
  Sb  Sb86  1  0.49923928  0.33605624  0.16361581  1
  Sb  Sb87  1  0.33640309  -0.00075861  0.33782242  1
  Sb  Sb88  1  0.66266632  0.83834760  0.83699452  1
  Sb  Sb89  1  0.50499869  0.16691382  0.66635925  1
  Sb  Sb90  1  0.16555999  -0.00355253  0.16701880  1
  Sb  Sb91  1  0.32791098  0.66531752  0.66211423  1
  Sb  Sb92  1  -0.00665586  -0.00087574  -0.00547747  1
  Sb  Sb93  1  0.83196616  0.66955156  0.16531637  1
  Sb  Sb94  1  0.33771906  0.16507183  0.83211906  1
  Sb  Sb95  1  0.33302808  0.50236520  0.82779365  1
  Sb  Sb96  1  0.66631301  0.66911365  0.33562655  1
  Sb  Sb97  1  0.49931094  0.83408572  0.00354848  1
  Sb  Sb98  1  0.00528502  0.83314036  0.82775380  1
  Sb  Sb99  1  0.50377604  0.16592538  -0.00015540  1
  Sb  Sb100  1  0.00062425  0.16597770  0.16784148  1
  Sb  Sb101  1  0.00210129  0.66715462  -0.00207108  1
  Sb  Sb102  1  0.83811848  0.83647154  0.67038065  1
  Sb  Sb103  1  0.49511123  0.83462260  0.66467319  1
  Sb  Sb104  1  -0.00306935  -0.00134491  0.33988626  1
  Sb  Sb105  1  0.00322638  0.83201873  0.17145380  1
  Sb  Sb106  1  0.32747073  0.83347412  0.49871580  1
  Sb  Sb107  1  0.50522173  -0.00392500  0.16746820  1
  Te  Te108  1  0.17023827  0.16642777  0.16562675  1
  Te  Te109  1  0.17124628  0.16803518  0.49866783  1
  Te  Te110  1  0.16746597  0.16677408  0.84010697  1
  Te  Te111  1  0.16611377  0.50861924  0.16864861  1
  Te  Te112  1  0.16572635  0.49720211  0.49939482  1
  Te  Te113  1  0.16656938  0.50659556  0.83237814  1
  Te  Te114  1  0.17006493  0.83029381  0.16715709  1
  Te  Te115  1  0.16409778  0.83484248  0.50034279  1
  Te  Te116  1  0.17098359  0.83185659  0.83430436  1
  Te  Te117  1  0.49949925  0.16677682  0.16743134  1
  Te  Te118  1  0.49975205  0.16084730  0.50005954  1
  Te  Te119  1  0.50591644  0.16606644  0.83301514  1
  Te  Te120  1  0.50694427  0.50773649  0.16735296  1
  Te  Te121  1  0.50953342  0.50134079  0.49928041  1
  Te  Te122  1  0.49955193  0.50600219  0.83385263  1
  Te  Te123  1  0.49776772  0.83079131  0.16948055  1
  Te  Te124  1  0.49949968  0.83874793  0.49413106  1
  Te  Te125  1  0.49484611  0.83366951  0.83335143  1
  Te  Te126  1  0.82952251  0.16224978  0.16418326  1
  Te  Te127  1  0.83050892  0.16312630  0.50151029  1
  Te  Te128  1  0.83011981  0.16728040  0.83345589  1
  Te  Te129  1  0.82771897  0.50026999  0.16552755  1
  Te  Te130  1  0.82646984  0.50015988  0.50619543  1
  Te  Te131  1  0.83320848  0.49901365  0.83222745  1
  Te  Te132  1  0.83070471  0.83706159  0.16243187  1
  Te  Te133  1  0.83888172  0.83990684  0.50040757  1
  Te  Te134  1  0.83298586  0.83593722  0.83953341  1
  Te  Te135  1  0.16596731  -0.00124872  0.00027001  1
  Te  Te136  1  0.16578525  0.00416697  0.33267379  1
  Te  Te137  1  0.16588290  -0.00122295  0.66754244  1
  Te  Te138  1  0.16752186  0.33166762  -0.00106705  1
  Te  Te139  1  0.16932500  0.33125862  0.33540079  1
  Te  Te140  1  0.16725134  0.33526248  0.66380872  1
  Te  Te141  1  0.16609580  0.67023238  -0.00944445  1
  Te  Te142  1  0.16666224  0.66668277  0.33843110  1
  Te  Te143  1  0.16681069  0.66584617  0.66405374  1
  Te  Te144  1  0.50742357  -0.00142048  -0.00823664  1
  Te  Te145  1  0.50493166  -0.00487958  0.33662776  1
  Te  Te146  1  0.49554203  -0.00036096  0.66738682  1
  Te  Te147  1  0.50166490  0.33312657  -0.00573171  1
  Te  Te148  1  0.49077262  0.33465335  0.33258604  1
  Te  Te149  1  0.49702104  0.33372412  0.67258121  1
  Te  Te150  1  0.49890163  0.66642608  -0.00221926  1
  Te  Te151  1  0.49895868  0.67263865  0.33112112  1
  Te  Te152  1  0.50252937  0.66730147  0.66967336  1
  Te  Te153  1  0.83116504  0.00275709  -0.00274228  1
  Te  Te154  1  0.82852185  0.00078773  0.33791574  1
  Te  Te155  1  0.83505591  0.00119371  0.66788899  1
  Te  Te156  1  0.83136336  0.33045900  -0.00582168  1
  Te  Te157  1  0.83856202  0.33280880  0.33311776  1
  Te  Te158  1  0.83310392  0.33263117  0.66833860  1
  Te  Te159  1  0.83500617  0.66537813  -0.00088225  1
  Te  Te160  1  0.83980304  0.66650642  0.33276269  1
  Te  Te161  1  0.83384340  0.66297031  0.66740131  1
  Te  Te162  1  0.00402591  0.16668233  0.00073106  1
  Te  Te163  1  0.00707507  0.17062593  0.33331301  1
  Te  Te164  1  -0.00507779  0.16500214  0.66595974  1
  Te  Te165  1  -0.00834644  0.49882108  0.00183489  1
  Te  Te166  1  0.00351941  0.49914317  0.33963706  1
  Te  Te167  1  -0.00037212  0.50008852  0.66148293  1
  Te  Te168  1  0.00178698  0.83320873  0.00025573  1
  Te  Te169  1  0.00566599  0.83087383  0.33888130  1
  Te  Te170  1  0.00433036  0.83165245  0.66236529  1
  Te  Te171  1  0.33061513  0.16886715  0.00143786  1
  Te  Te172  1  0.33133480  0.16666020  0.33316121  1
  Te  Te173  1  0.33154850  0.16728627  0.66428429  1
  Te  Te174  1  0.33189236  0.49088511  0.00136436  1
  Te  Te175  1  0.32861185  0.49887721  0.33643134  1
  Te  Te176  1  0.32940978  0.49651132  0.66064374  1
  Te  Te177  1  0.32900358  0.83375310  0.00156871  1
  Te  Te178  1  0.33115005  0.83286323  0.33168080  1
  Te  Te179  1  0.32771871  0.83592577  0.66839734  1
  Te  Te180  1  0.66808955  0.16791066  0.00056944  1
  Te  Te181  1  0.66637324  0.16330638  0.33731933  1
  Te  Te182  1  0.67146123  0.16875319  0.66325543  1
  Te  Te183  1  0.67157867  0.49766618  0.00394706  1
  Te  Te184  1  0.66734820  0.49921991  0.33292077  1
  Te  Te185  1  0.66753288  0.49728453  0.66512127  1
  Te  Te186  1  0.66930186  0.83334185  0.00469885  1
  Te  Te187  1  0.66734009  0.83673988  0.32853040  1
  Te  Te188  1  0.66781498  0.82643861  0.66717813  1
  Te  Te189  1  -0.01057281  -0.00059497  0.16783077  1
  Te  Te190  1  -0.00454957  0.00076402  0.50415510  1
  Te  Te191  1  -0.00645563  -0.00094927  0.82534771  1
  Te  Te192  1  -0.00004029  0.33386952  0.17119736  1
  Te  Te193  1  0.00240134  0.33563340  0.50195393  1
  Te  Te194  1  -0.00339752  0.33334259  0.82520573  1
  Te  Te195  1  0.00556713  0.66668363  0.16986002  1
  Te  Te196  1  0.00207034  0.66491948  0.50206127  1
  Te  Te197  1  0.00462479  0.66730785  0.82617393  1
  Te  Te198  1  0.33470118  0.00078846  0.16553639  1
  Te  Te199  1  0.33671985  0.00382747  0.50486789  1
  Te  Te200  1  0.33717085  -0.00282120  0.82869317  1
  Te  Te201  1  0.33430623  0.32901144  0.16141175  1
  Te  Te202  1  0.33334754  0.33229915  0.50218018  1
  Te  Te203  1  0.33700216  0.33377762  0.83178598  1
  Te  Te204  1  0.33418717  0.66792971  0.16996845  1
  Te  Te205  1  0.32954548  0.66342472  0.49432678  1
  Te  Te206  1  0.33412303  0.66952135  0.83384124  1
  Te  Te207  1  0.66628628  0.00025234  0.16594212  1
  Te  Te208  1  0.66653124  0.00134771  0.50019822  1
  Te  Te209  1  0.66601820  0.00390678  0.83309333  1
  Te  Te210  1  0.66539012  0.33131516  0.16744369  1
  Te  Te211  1  0.66457872  0.33014995  0.50293663  1
  Te  Te212  1  0.66551928  0.33110741  0.83196653  1
  Te  Te213  1  0.66378283  0.66864924  0.16684032  1
  Te  Te214  1  0.66564245  0.66665670  0.50414678  1
  Te  Te215  1  0.66285845  0.66790118  0.82889112  1
