# generated using pymatgen
data_AgSbTe2
_symmetry_space_group_name_H-M   'P 1'
_cell_length_a   18.32842260
_cell_length_b   18.33405783
_cell_length_c   18.33714503
_cell_angle_alpha   89.99712039
_cell_angle_beta   89.99619331
_cell_angle_gamma   90.00144526
_symmetry_Int_Tables_number   1
_chemical_formula_structural   AgSbTe2
_chemical_formula_sum   'Ag54 Sb54 Te108'
_cell_volume   6161.91076889
_cell_formula_units_Z   54
loop_
 _symmetry_equiv_pos_site_id
 _symmetry_equiv_pos_as_xyz
  1  'x, y, z'
loop_
 _atom_site_type_symbol
 _atom_site_label
 _atom_site_symmetry_multiplicity
 _atom_site_fract_x
 _atom_site_fract_y
 _atom_site_fract_z
 _atom_site_occupancy
  Ag  Ag0  1  0.17553308  0.33679129  0.48924013  1
  Ag  Ag1  1  0.82830339  -0.00217132  0.83057081  1
  Ag  Ag2  1  0.49645510  0.33256618  0.17264395  1
  Ag  Ag3  1  0.32914939  0.66327702  0.00309278  1
  Ag  Ag4  1  0.50023968  0.00918561  0.50272540  1
  Ag  Ag5  1  0.34010508  0.00474117  0.67033310  1
  Ag  Ag6  1  0.16993810  0.65735046  0.16322178  1
  Ag  Ag7  1  0.17670181  0.17990023  0.33309149  1
  Ag  Ag8  1  0.50463358  0.83713271  0.33388765  1
  Ag  Ag9  1  0.49354556  0.49593830  0.00748857  1
  Ag  Ag10  1  0.17642077  0.49221049  0.33347557  1
  Ag  Ag11  1  0.50064390  0.16232063  0.65900605  1
  Ag  Ag12  1  0.49824499  0.17053081  0.33856386  1
  Ag  Ag13  1  0.33102787  0.49792612  0.49453320  1
  Ag  Ag14  1  0.82462888  0.15830625  0.66587498  1
  Ag  Ag15  1  0.66692002  -0.00369272  0.33378396  1
  Ag  Ag16  1  0.17102413  0.65511919  0.49697261  1
  Ag  Ag17  1  0.00542314  0.65915008  0.00065182  1
  Ag  Ag18  1  0.49849555  0.16839963  0.00145904  1
  Ag  Ag19  1  0.66370787  0.16357728  0.17267143  1
  Ag  Ag20  1  0.00474820  0.33975859  0.00591812  1
  Ag  Ag21  1  0.66876554  0.83384756  0.16883908  1
  Ag  Ag22  1  0.66158996  0.16388628  0.49363384  1
  Ag  Ag23  1  0.17111197  0.50020498  0.66617593  1
  Ag  Ag24  1  0.17282571  0.33923573  0.17666840  1
  Ag  Ag25  1  -0.00935427  0.00013888  0.66747295  1
  Ag  Ag26  1  0.50067801  0.00211718  0.82862624  1
  Ag  Ag27  1  0.17151598  0.34038358  0.83392977  1
  Ag  Ag28  1  0.83021258  0.83471574  0.00104963  1
  Ag  Ag29  1  0.66561468  0.66689396  0.00865388  1
  Ag  Ag30  1  0.49359292  0.49080690  0.32861411  1
  Ag  Ag31  1  0.83463627  0.33258496  0.49824683  1
  Ag  Ag32  1  0.66856908  0.83714081  0.84008888  1
  Ag  Ag33  1  0.33007349  0.33122957  0.65761319  1
  Ag  Ag34  1  0.32828759  0.34013098  0.33973212  1
  Ag  Ag35  1  0.17074562  0.65833626  0.84066261  1
  Ag  Ag36  1  0.49203867  0.32813426  0.48993002  1
  Ag  Ag37  1  0.83746576  0.50689347  0.00031553  1
  Ag  Ag38  1  0.83381842  0.84170106  0.66729308  1
  Ag  Ag39  1  0.83013447  -0.00271016  0.16438009  1
  Ag  Ag40  1  0.66785084  0.00160555  0.66313794  1
  Ag  Ag41  1  0.33535955  0.16874225  0.83242793  1
  Ag  Ag42  1  0.33487463  -0.00207199  -0.00620830  1
  Ag  Ag43  1  0.17207734  0.50201045  0.00120679  1
  Ag  Ag44  1  0.16795135  0.83269924  0.66564525  1
  Ag  Ag45  1  -0.00240611  0.00000501  -0.00055360  1
  Ag  Ag46  1  0.82445116  0.83820715  0.33119010  1
  Ag  Ag47  1  0.01310914  0.32872707  0.33120006  1
  Ag  Ag48  1  0.32999061  0.49619147  0.83257164  1
  Ag  Ag49  1  -0.00614760  0.00385601  0.33466077  1
  Ag  Ag50  1  0.33287536  0.82946116  0.49968901  1
  Ag  Ag51  1  0.33403774  0.65669473  0.33310618  1
  Ag  Ag52  1  0.65566494  0.67612024  0.32756844  1
  Ag  Ag53  1  0.66308407  0.50305752  0.16606785  1
  Sb  Sb54  1  0.01038791  0.49766449  0.49827483  1
  Sb  Sb55  1  0.82729019  0.00233931  0.50215405  1
  Sb  Sb56  1  0.50349112  0.83376386  0.00493059  1
  Sb  Sb57  1  0.33097872  0.66577231  0.66474850  1
  Sb  Sb58  1  0.00641174  0.67295909  0.67256343  1
  Sb  Sb59  1  -0.00505576  0.83411621  0.16531647  1
  Sb  Sb60  1  0.66206236  0.83906055  0.49531848  1
  Sb  Sb61  1  0.00511942  0.66709000  0.32782103  1
  Sb  Sb62  1  0.00995102  0.49998607  0.83698360  1
  Sb  Sb63  1  0.65883079  0.49522341  0.49324235  1
  Sb  Sb64  1  0.83274662  0.33007697  0.16976910  1
  Sb  Sb65  1  0.16924446  -0.00094595  0.83207912  1
  Sb  Sb66  1  0.33632223  0.83430551  0.83024121  1
  Sb  Sb67  1  0.00614388  0.16506279  0.83347358  1
  Sb  Sb68  1  0.00792870  0.32846534  0.66435456  1
  Sb  Sb69  1  0.17354525  0.00405505  0.50056052  1
  Sb  Sb70  1  0.17155104  0.16729806  0.66229363  1
  Sb  Sb71  1  0.16255712  0.00161182  0.16675158  1
  Sb  Sb72  1  0.83202430  0.67076018  0.16416928  1
  Sb  Sb73  1  0.16915022  0.83098992  0.33685653  1
  Sb  Sb74  1  0.49868643  0.84253961  0.66178312  1
  Sb  Sb75  1  0.49184620  0.49108737  0.66468176  1
  Sb  Sb76  1  0.33900541  0.83252130  0.17066192  1
  Sb  Sb77  1  0.82887994  0.16247483  -0.00316998  1
  Sb  Sb78  1  0.66012036  0.15978487  0.83356372  1
  Sb  Sb79  1  0.83043366  0.50125346  0.32837119  1
  Sb  Sb80  1  0.33781545  0.00215163  0.33530761  1
  Sb  Sb81  1  0.00009603  0.49927827  0.16514879  1
  Sb  Sb82  1  0.66767197  0.33795580  0.00155606  1
  Sb  Sb83  1  0.83980488  0.32876250  0.83166508  1
  Sb  Sb84  1  -0.00370537  0.16640059  0.49935402  1
  Sb  Sb85  1  0.83650234  0.67241214  0.83829668  1
  Sb  Sb86  1  0.32973260  0.33724922  0.00103394  1
  Sb  Sb87  1  0.00405934  0.83562121  0.50047739  1
  Sb  Sb88  1  0.16304820  0.82663360  -0.00501439  1
  Sb  Sb89  1  0.17060076  0.17232471  0.00396490  1
  Sb  Sb90  1  0.33915918  0.16798440  0.16414367  1
  Sb  Sb91  1  0.66011314  0.32529759  0.66355142  1
  Sb  Sb92  1  0.49351522  0.32746214  0.83431880  1
  Sb  Sb93  1  0.34000241  0.17028014  0.50319109  1
  Sb  Sb94  1  0.49487257  0.67119077  0.83724842  1
  Sb  Sb95  1  0.66744217  0.67631115  0.66589771  1
  Sb  Sb96  1  0.83747514  0.66420177  0.49776018  1
  Sb  Sb97  1  -0.00456920  0.83583470  0.83428054  1
  Sb  Sb98  1  0.49942177  0.65958310  0.16809678  1
  Sb  Sb99  1  -0.00392616  0.16677577  0.16771302  1
  Sb  Sb100  1  0.83755807  0.49819986  0.67105706  1
  Sb  Sb101  1  0.49395497  0.66621171  0.49505170  1
  Sb  Sb102  1  0.50596176  0.00597445  0.16797095  1
  Sb  Sb103  1  0.66156658  0.32937307  0.33277423  1
  Sb  Sb104  1  0.66621034  -0.00447186  0.00130910  1
  Sb  Sb105  1  0.33487060  0.49881506  0.16862577  1
  Sb  Sb106  1  0.65959238  0.50726350  0.84027190  1
  Sb  Sb107  1  0.82858741  0.16275889  0.33777043  1
  Te  Te108  1  0.16597440  0.17067508  0.17252788  1
  Te  Te109  1  0.16577535  0.17285081  0.49427518  1
  Te  Te110  1  0.17407193  0.16905066  0.83387210  1
  Te  Te111  1  0.16571417  0.49858653  0.16564226  1
  Te  Te112  1  0.17136899  0.49695816  0.49765822  1
  Te  Te113  1  0.17090454  0.50111001  0.83583442  1
  Te  Te114  1  0.16806322  0.83048005  0.16698922  1
  Te  Te115  1  0.17163435  0.83490416  0.50448268  1
  Te  Te116  1  0.16759280  0.83005081  0.82668055  1
  Te  Te117  1  0.50419916  0.17127484  0.16560959  1
  Te  Te118  1  0.50116520  0.16820395  0.49936948  1
  Te  Te119  1  0.49560047  0.16202421  0.83701297  1
  Te  Te120  1  0.50318094  0.49520282  0.16724240  1
  Te  Te121  1  0.49338549  0.49403135  0.49669263  1
  Te  Te122  1  0.49244911  0.50017733  0.83546986  1
  Te  Te123  1  0.50717492  0.83497453  0.17299667  1
  Te  Te124  1  0.49494298  0.83317498  0.49469573  1
  Te  Te125  1  0.50518705  0.83958477  0.83339911  1
  Te  Te126  1  0.82485347  0.16139091  0.16606232  1
  Te  Te127  1  0.82702217  0.17039687  0.50524188  1
  Te  Te128  1  0.83276216  0.16100945  0.82771939  1
  Te  Te129  1  0.82535848  0.49855958  0.16037273  1
  Te  Te130  1  0.83153745  0.49534110  0.50194615  1
  Te  Te131  1  0.83110291  0.49898905  0.83969523  1
  Te  Te132  1  0.82902753  0.83651406  0.16700546  1
  Te  Te133  1  0.83390848  0.83069646  0.50120619  1
  Te  Te134  1  0.82961184  0.83767527  0.83355097  1
  Te  Te135  1  0.16538678  -0.00003337  -0.00035027  1
  Te  Te136  1  0.16370543  0.00014731  0.33267070  1
  Te  Te137  1  0.16842986  -0.00178089  0.66671492  1
  Te  Te138  1  0.16413190  0.33683924  -0.00239618  1
  Te  Te139  1  0.16836214  0.33582539  0.33288962  1
  Te  Te140  1  0.17042504  0.33498091  0.67096260  1
  Te  Te141  1  0.16789472  0.66478564  0.00129777  1
  Te  Te142  1  0.16999996  0.66546383  0.33338793  1
  Te  Te143  1  0.16664062  0.66588286  0.66314375  1
  Te  Te144  1  0.49734683  0.00145566  -0.00117471  1
  Te  Te145  1  0.50203680  0.00326613  0.33423444  1
  Te  Te146  1  0.50011611  0.00247388  0.66671404  1
  Te  Te147  1  0.49911599  0.33452363  0.00172782  1
  Te  Te148  1  0.50078432  0.33256980  0.33264391  1
  Te  Te149  1  0.49283850  0.32484985  0.66489561  1
  Te  Te150  1  0.49849610  0.66287455  0.00125417  1
  Te  Te151  1  0.49722387  0.66596891  0.33317364  1
  Te  Te152  1  0.50142955  0.66583342  0.66647944  1
  Te  Te153  1  0.83343847  -0.00181005  -0.00123985  1
  Te  Te154  1  0.83166483  -0.00151072  0.33543838  1
  Te  Te155  1  0.83123051  -0.00067871  0.66461247  1
  Te  Te156  1  0.84094672  0.33389979  0.00036660  1
  Te  Te157  1  0.83645541  0.33375125  0.33686789  1
  Te  Te158  1  0.83575500  0.33224396  0.66323158  1
  Te  Te159  1  0.83290651  0.66757568  0.00030851  1
  Te  Te160  1  0.83440361  0.67123412  0.33251897  1
  Te  Te161  1  0.83675442  0.67136936  0.66787904  1
  Te  Te162  1  -0.00099254  0.16158092  0.00022415  1
  Te  Te163  1  -0.00056332  0.16556829  0.33291557  1
  Te  Te164  1  -0.00319002  0.16007031  0.66661308  1
  Te  Te165  1  -0.00062478  0.49962391  0.00067517  1
  Te  Te166  1  0.00000277  0.49699643  0.33213733  1
  Te  Te167  1  0.00693827  0.49993756  0.66705739  1
  Te  Te168  1  -0.00617944  0.83994646  -0.00007533  1
  Te  Te169  1  -0.00389443  0.83711849  0.33297931  1
  Te  Te170  1  -0.00059483  0.84027153  0.66728836  1
  Te  Te171  1  0.33729185  0.16404540  -0.00299175  1
  Te  Te172  1  0.33561671  0.16773710  0.33175640  1
  Te  Te173  1  0.33530037  0.16560230  0.66972087  1
  Te  Te174  1  0.33270838  0.50190557  -0.00130388  1
  Te  Te175  1  0.33379052  0.50020447  0.33303961  1
  Te  Te176  1  0.32904819  0.49747099  0.66856993  1
  Te  Te177  1  0.33379783  0.83287461  -0.00028575  1
  Te  Te178  1  0.33793784  0.83352778  0.33832111  1
  Te  Te179  1  0.33133149  0.83598824  0.66284118  1
  Te  Te180  1  0.66035189  0.16842884  0.00215309  1
  Te  Te181  1  0.66280502  0.16311128  0.33333248  1
  Te  Te182  1  0.66371208  0.16147947  0.66748836  1
  Te  Te183  1  0.66209035  0.50535800  0.00318791  1
  Te  Te184  1  0.66420394  0.50443884  0.32817911  1
  Te  Te185  1  0.66735873  0.50286941  0.66781434  1
  Te  Te186  1  0.66924390  0.82912894  0.00345120  1
  Te  Te187  1  0.66606658  0.83434399  0.33351759  1
  Te  Te188  1  0.67004438  0.83927139  0.66662084  1
  Te  Te189  1  -0.00629845  0.00048677  0.16786847  1
  Te  Te190  1  0.00178193  0.00095253  0.49806252  1
  Te  Te191  1  -0.00391425  0.00114696  0.83259480  1
  Te  Te192  1  0.00206371  0.33263737  0.16783153  1
  Te  Te193  1  -0.00093913  0.33246453  0.49595726  1
  Te  Te194  1  0.00763336  0.33231623  0.83750144  1
  Te  Te195  1  0.00715876  0.66709897  0.15966132  1
  Te  Te196  1  0.00863317  0.66643357  0.49958252  1
  Te  Te197  1  0.00747591  0.66776375  0.84169552  1
  Te  Te198  1  0.33245588  -0.00042139  0.15817507  1
  Te  Te199  1  0.33932778  -0.00339010  0.50306246  1
  Te  Te200  1  0.33569720  0.00067157  0.83307573  1
  Te  Te201  1  0.33315851  0.33183771  0.17238893  1
  Te  Te202  1  0.33351007  0.33378460  0.49937837  1
  Te  Te203  1  0.33094557  0.33381632  0.83470086  1
  Te  Te204  1  0.32948564  0.66822773  0.16740336  1
  Te  Te205  1  0.32958522  0.66506924  0.49772161  1
  Te  Te206  1  0.32944158  0.66481406  0.83587473  1
  Te  Te207  1  0.66982181  -0.00126209  0.16865210  1
  Te  Te208  1  0.66114591  0.00354071  0.49869647  1
  Te  Te209  1  0.66697321  -0.00304945  0.83347671  1
  Te  Te210  1  0.66409539  0.33240977  0.16621501  1
  Te  Te211  1  0.66837781  0.32743636  0.50020392  1
  Te  Te212  1  0.66841829  0.33570122  0.83163619  1
  Te  Te213  1  0.66666579  0.66769535  0.16801787  1
  Te  Te214  1  0.66769811  0.66519099  0.49406935  1
  Te  Te215  1  0.66643645  0.67538885  0.83630463  1
