# generated using pymatgen
data_AgSbTe2
_symmetry_space_group_name_H-M   'P 1'
_cell_length_a   18.33852208
_cell_length_b   18.33362477
_cell_length_c   18.32536076
_cell_angle_alpha   89.99983665
_cell_angle_beta   89.99893002
_cell_angle_gamma   90.00145586
_symmetry_Int_Tables_number   1
_chemical_formula_structural   AgSbTe2
_chemical_formula_sum   'Ag54 Sb54 Te108'
_cell_volume   6161.19853910
_cell_formula_units_Z   54
loop_
 _symmetry_equiv_pos_site_id
 _symmetry_equiv_pos_as_xyz
  1  'x, y, z'
loop_
 _atom_site_type_symbol
 _atom_site_label
 _atom_site_symmetry_multiplicity
 _atom_site_fract_x
 _atom_site_fract_y
 _atom_site_fract_z
 _atom_site_occupancy
  Ag  Ag0  1  0.66297900  0.17726939  0.50341311  1
  Ag  Ag1  1  0.33744815  0.66468385  -0.00205523  1
  Ag  Ag2  1  0.66784888  0.49982934  0.82808311  1
  Ag  Ag3  1  0.50295439  0.17297995  0.66624163  1
  Ag  Ag4  1  0.17199230  0.67224936  0.16833282  1
  Ag  Ag5  1  0.82450956  0.16630018  0.33122327  1
  Ag  Ag6  1  0.34267078  0.83121906  0.83534660  1
  Ag  Ag7  1  0.82721221  0.00494330  0.83261180  1
  Ag  Ag8  1  0.50186231  0.34072797  0.49833876  1
  Ag  Ag9  1  0.49780826  0.66501828  0.16201016  1
  Ag  Ag10  1  0.66177286  0.82696636  0.50859253  1
  Ag  Ag11  1  0.17599425  0.50107696  0.33668605  1
  Ag  Ag12  1  0.66435663  0.16724134  0.83194198  1
  Ag  Ag13  1  0.81926283  0.33680195  0.50754742  1
  Ag  Ag14  1  0.66207720  0.49728721  0.50937725  1
  Ag  Ag15  1  0.66883854  0.66388673  0.00012341  1
  Ag  Ag16  1  0.66591939  0.33620133  0.66711820  1
  Ag  Ag17  1  0.17472837  -0.00404143  0.17108086  1
  Ag  Ag18  1  0.33726203  0.83057048  0.50134970  1
  Ag  Ag19  1  0.16892290  -0.00128774  0.49201388  1
  Ag  Ag20  1  0.49877719  -0.00033228  0.83563356  1
  Ag  Ag21  1  0.33120523  0.00170392  0.32512908  1
  Ag  Ag22  1  0.33192812  0.83594395  0.16471508  1
  Ag  Ag23  1  0.83255167  0.82245051  -0.00351317  1
  Ag  Ag24  1  0.82945005  0.82412522  0.67646609  1
  Ag  Ag25  1  0.65844783  0.17180125  0.16937088  1
  Ag  Ag26  1  0.50535694  0.49825844  0.66260859  1
  Ag  Ag27  1  0.00838124  0.00275647  0.32929779  1
  Ag  Ag28  1  0.34353639  0.50905037  0.83447587  1
  Ag  Ag29  1  0.50109885  0.32733738  0.17290987  1
  Ag  Ag30  1  0.17730454  0.66372652  0.49444876  1
  Ag  Ag31  1  -0.00961913  0.16528533  0.83654471  1
  Ag  Ag32  1  0.49750719  0.66462215  0.83322640  1
  Ag  Ag33  1  0.66202959  0.50013497  0.16480925  1
  Ag  Ag34  1  0.33704769  0.66608388  0.67388295  1
  Ag  Ag35  1  0.82549751  0.50266499  0.67381343  1
  Ag  Ag36  1  0.34507792  0.16276231  0.83813500  1
  Ag  Ag37  1  0.33650798  0.33902622  -0.00224599  1
  Ag  Ag38  1  0.00822980  0.83534813  0.16568709  1
  Ag  Ag39  1  0.49859189  0.49654657  0.33846832  1
  Ag  Ag40  1  0.49839106  0.65880648  0.50204791  1
  Ag  Ag41  1  0.34222076  0.15768133  0.16310704  1
  Ag  Ag42  1  -0.00297903  0.49974171  0.50271011  1
  Ag  Ag43  1  -0.00003907  0.16076639  0.16673175  1
  Ag  Ag44  1  -0.01273114  0.66552912  0.00154688  1
  Ag  Ag45  1  0.66485843  0.82980355  0.82951527  1
  Ag  Ag46  1  0.17096266  0.34273417  0.49872536  1
  Ag  Ag47  1  -0.01251180  0.49941095  0.83024957  1
  Ag  Ag48  1  0.50409611  0.17052483  0.32931583  1
  Ag  Ag49  1  0.49272817  0.00857044  0.16650696  1
  Ag  Ag50  1  0.82954906  0.33828278  0.82967804  1
  Ag  Ag51  1  0.83140718  0.50338743  -0.00881242  1
  Ag  Ag52  1  0.82977380  0.66646059  0.15958689  1
  Ag  Ag53  1  0.17214165  0.00128188  0.83482986  1
  Sb  Sb54  1  0.17359508  0.16620228  0.66756734  1
  Sb  Sb55  1  0.66509641  0.33256108  0.34114474  1
  Sb  Sb56  1  0.00050772  0.33022040  0.33346821  1
  Sb  Sb57  1  0.50247067  0.82939403  -0.00261901  1
  Sb  Sb58  1  0.66556637  0.00329618  0.66874671  1
  Sb  Sb59  1  0.34054493  0.50290400  0.16186268  1
  Sb  Sb60  1  0.33952121  0.16342538  0.49960318  1
  Sb  Sb61  1  0.49873078  0.83342314  0.33338075  1
  Sb  Sb62  1  0.66307260  0.00306451  0.33245443  1
  Sb  Sb63  1  0.17456736  0.66932548  0.83655096  1
  Sb  Sb64  1  0.16822897  0.16673616  0.00018310  1
  Sb  Sb65  1  0.83490152  0.00259689  0.50331399  1
  Sb  Sb66  1  0.82627314  0.33556023  0.16546739  1
  Sb  Sb67  1  0.66468488  0.66464853  0.32923074  1
  Sb  Sb68  1  0.16617223  0.83167488  0.66687523  1
  Sb  Sb69  1  0.00142281  0.66840811  0.32818689  1
  Sb  Sb70  1  0.34030141  0.33749975  0.66956518  1
  Sb  Sb71  1  0.66227674  0.33917512  -0.00408390  1
  Sb  Sb72  1  0.66121959  0.66034510  0.67151486  1
  Sb  Sb73  1  0.00310717  0.66434331  0.67199688  1
  Sb  Sb74  1  0.50347239  0.33504009  0.83125884  1
  Sb  Sb75  1  0.83224151  -0.00222335  0.16308897  1
  Sb  Sb76  1  0.33401009  -0.00357036  0.00157620  1
  Sb  Sb77  1  0.17291176  0.33254255  0.17096402  1
  Sb  Sb78  1  -0.00384461  0.50236288  0.16730537  1
  Sb  Sb79  1  0.33552748  -0.00494262  0.66855077  1
  Sb  Sb80  1  -0.00434877  0.17179340  0.50041960  1
  Sb  Sb81  1  0.16981759  0.50117826  0.66363754  1
  Sb  Sb82  1  0.83184685  0.16889577  0.00045688  1
  Sb  Sb83  1  0.50545278  0.50273148  -0.00259310  1
  Sb  Sb84  1  -0.00093148  -0.00419023  0.00344321  1
  Sb  Sb85  1  0.50358211  0.82988542  0.66817016  1
  Sb  Sb86  1  0.82420506  0.66452909  0.83909822  1
  Sb  Sb87  1  0.66714038  -0.00441960  -0.00295909  1
  Sb  Sb88  1  0.16581848  0.83199458  0.00170868  1
  Sb  Sb89  1  0.49763546  0.00031634  0.49941670  1
  Sb  Sb90  1  0.82897405  0.66137646  0.49676637  1
  Sb  Sb91  1  0.16854012  0.83260667  0.33207933  1
  Sb  Sb92  1  0.82885706  0.49449557  0.33581057  1
  Sb  Sb93  1  0.00062054  0.82851079  0.49557707  1
  Sb  Sb94  1  0.16549342  0.33082177  0.82867245  1
  Sb  Sb95  1  0.33704608  0.32948344  0.33081148  1
  Sb  Sb96  1  -0.00685920  0.33485866  0.66652937  1
  Sb  Sb97  1  0.83174137  0.83769362  0.33125128  1
  Sb  Sb98  1  0.33825028  0.50536155  0.50326863  1
  Sb  Sb99  1  -0.00324938  0.83225246  0.83939742  1
  Sb  Sb100  1  0.49978369  0.16931374  0.00158478  1
  Sb  Sb101  1  0.33431417  0.66977526  0.33106134  1
  Sb  Sb102  1  0.16467689  0.50386001  0.00282407  1
  Sb  Sb103  1  0.82674757  0.17129456  0.66729041  1
  Sb  Sb104  1  -0.00081817  0.00033596  0.66620635  1
  Sb  Sb105  1  0.16961847  0.16673124  0.33313591  1
  Sb  Sb106  1  0.66269006  0.83157264  0.16271101  1
  Sb  Sb107  1  0.00168380  0.33692112  -0.00128972  1
  Te  Te108  1  0.16318135  0.16337457  0.16720071  1
  Te  Te109  1  0.16679718  0.16107845  0.50077621  1
  Te  Te110  1  0.16676552  0.16226014  0.83249991  1
  Te  Te111  1  0.16625916  0.50151336  0.17280351  1
  Te  Te112  1  0.17004499  0.50288397  0.49844865  1
  Te  Te113  1  0.16550998  0.49971155  0.83259621  1
  Te  Te114  1  0.16865499  0.83440570  0.16682282  1
  Te  Te115  1  0.16930272  0.83235812  0.49978059  1
  Te  Te116  1  0.16874032  0.83930214  0.83269377  1
  Te  Te117  1  0.50019854  0.16572360  0.16665141  1
  Te  Te118  1  0.50384829  0.16561582  0.49918006  1
  Te  Te119  1  0.50310910  0.16897585  0.83379001  1
  Te  Te120  1  0.50271244  0.50511260  0.16762062  1
  Te  Te121  1  0.50031095  0.50029982  0.49996470  1
  Te  Te122  1  0.50175312  0.50065532  0.83036654  1
  Te  Te123  1  0.49582639  0.82947238  0.16681140  1
  Te  Te124  1  0.49953874  0.83221255  0.50096534  1
  Te  Te125  1  0.50182181  0.83339419  0.83165366  1
  Te  Te126  1  0.83411219  0.16663877  0.16786537  1
  Te  Te127  1  0.82768303  0.17114336  0.49894857  1
  Te  Te128  1  0.83039929  0.16535068  0.83339377  1
  Te  Te129  1  0.82776916  0.50329886  0.16792053  1
  Te  Te130  1  0.83023349  0.49621009  0.49947450  1
  Te  Te131  1  0.83060684  0.50149782  0.83170539  1
  Te  Te132  1  0.83093927  0.82942115  0.16309645  1
  Te  Te133  1  0.83022500  0.83234583  0.50104916  1
  Te  Te134  1  0.83168510  0.83151169  0.83499500  1
  Te  Te135  1  0.16552741  -0.00046147  -0.00071385  1
  Te  Te136  1  0.16884207  0.00099744  0.33123943  1
  Te  Te137  1  0.16671483  -0.00071226  0.66716512  1
  Te  Te138  1  0.17457646  0.33581054  -0.00046177  1
  Te  Te139  1  0.16779802  0.33893787  0.33956488  1
  Te  Te140  1  0.16678439  0.33333983  0.65798305  1
  Te  Te141  1  0.17521955  0.66699244  0.00639658  1
  Te  Te142  1  0.16719916  0.66136818  0.33323592  1
  Te  Te143  1  0.17359612  0.66690012  0.65913343  1
  Te  Te144  1  0.50109543  -0.00165821  -0.00187161  1
  Te  Te145  1  0.49564982  0.00341875  0.33028792  1
  Te  Te146  1  0.49958852  0.00749774  0.67311310  1
  Te  Te147  1  0.49533563  0.33633818  0.00975986  1
  Te  Te148  1  0.50023513  0.33311675  0.33385019  1
  Te  Te149  1  0.50403612  0.33490535  0.66390108  1
  Te  Te150  1  0.49830763  0.66616282  -0.00074100  1
  Te  Te151  1  0.50012536  0.66270077  0.33664681  1
  Te  Te152  1  0.49607245  0.66373881  0.66607599  1
  Te  Te153  1  0.83376068  -0.00380641  -0.00786941  1
  Te  Te154  1  0.83560882  0.00599999  0.33312949  1
  Te  Te155  1  0.83385146  -0.00405951  0.67275665  1
  Te  Te156  1  0.83359765  0.34014642  -0.00532913  1
  Te  Te157  1  0.83445778  0.32552440  0.33710598  1
  Te  Te158  1  0.82811118  0.33728977  0.66750476  1
  Te  Te159  1  0.83054110  0.66440549  0.00159632  1
  Te  Te160  1  0.83358671  0.66766686  0.32334438  1
  Te  Te161  1  0.83538816  0.66392865  0.66524404  1
  Te  Te162  1  -0.00055529  0.16821851  -0.00290418  1
  Te  Te163  1  -0.00004823  0.16295199  0.33214927  1
  Te  Te164  1  0.00018068  0.16689921  0.67484315  1
  Te  Te165  1  -0.00465989  0.50434435  -0.00217344  1
  Te  Te166  1  -0.00080386  0.49966686  0.33821773  1
  Te  Te167  1  -0.00455116  0.50095492  0.66762777  1
  Te  Te168  1  -0.00490444  0.82667291  0.00631331  1
  Te  Te169  1  -0.00085688  0.83999450  0.32631383  1
  Te  Te170  1  -0.00886157  0.83213440  0.66631251  1
  Te  Te171  1  0.33317849  0.16959932  -0.00086679  1
  Te  Te172  1  0.33827038  0.16219136  0.33012786  1
  Te  Te173  1  0.34097645  0.16768149  0.67231025  1
  Te  Te174  1  0.33185880  0.50192973  -0.00538509  1
  Te  Te175  1  0.33648085  0.49806852  0.33166885  1
  Te  Te176  1  0.33811102  0.50438463  0.67356828  1
  Te  Te177  1  0.33318343  0.82721171  -0.00134130  1
  Te  Te178  1  0.33434870  0.84140935  0.33230874  1
  Te  Te179  1  0.33399042  0.82775482  0.66734971  1
  Te  Te180  1  0.66762000  0.16737153  -0.00338909  1
  Te  Te181  1  0.66455892  0.16678154  0.33039052  1
  Te  Te182  1  0.66306877  0.17095887  0.66814975  1
  Te  Te183  1  0.67113681  0.50378665  0.00069749  1
  Te  Te184  1  0.66108043  0.49941220  0.32771822  1
  Te  Te185  1  0.66553032  0.49932377  0.66753520  1
  Te  Te186  1  0.67181181  0.82677468  -0.00525274  1
  Te  Te187  1  0.66668849  0.83467349  0.34435747  1
  Te  Te188  1  0.66995740  0.83291620  0.66861944  1
  Te  Te189  1  -0.00102802  0.00037763  0.16823375  1
  Te  Te190  1  0.00496729  -0.00007080  0.49581990  1
  Te  Te191  1  0.00225420  0.00105108  0.83423232  1
  Te  Te192  1  -0.00011820  0.32631305  0.16482258  1
  Te  Te193  1  0.00553926  0.33919084  0.50037132  1
  Te  Te194  1  -0.00342006  0.33529203  0.83351887  1
  Te  Te195  1  0.00426878  0.66732778  0.16303099  1
  Te  Te196  1  0.00087658  0.66122534  0.49982560  1
  Te  Te197  1  0.00702797  0.66296468  0.83980557  1
  Te  Te198  1  0.33330531  -0.00116998  0.16439473  1
  Te  Te199  1  0.32960913  -0.00516976  0.50050224  1
  Te  Te200  1  0.33553985  -0.00040811  0.83464998  1
  Te  Te201  1  0.33780496  0.32930071  0.16313269  1
  Te  Te202  1  0.33557989  0.33212559  0.50109158  1
  Te  Te203  1  0.33321082  0.32887147  0.83657038  1
  Te  Te204  1  0.33413360  0.66951439  0.16582339  1
  Te  Te205  1  0.33635032  0.67064866  0.49669651  1
  Te  Te206  1  0.33581749  0.66871974  0.83410554  1
  Te  Te207  1  0.66102321  0.00291584  0.16461150  1
  Te  Te208  1  0.66697289  -0.00179584  0.50046169  1
  Te  Te209  1  0.66432739  0.00022733  0.83344626  1
  Te  Te210  1  0.66213069  0.33251521  0.16332209  1
  Te  Te211  1  0.66302034  0.33528931  0.50432816  1
  Te  Te212  1  0.66822979  0.33495253  0.83103208  1
  Te  Te213  1  0.66207217  0.66714241  0.16314591  1
  Te  Te214  1  0.66286537  0.66399889  0.49942441  1
  Te  Te215  1  0.65910482  0.66612915  0.83658881  1
