# generated using pymatgen
data_AgSbTe2
_symmetry_space_group_name_H-M   'P 1'
_cell_length_a   18.32910917
_cell_length_b   18.33570917
_cell_length_c   18.33200716
_cell_angle_alpha   89.99707876
_cell_angle_beta   89.99359141
_cell_angle_gamma   89.99825578
_symmetry_Int_Tables_number   1
_chemical_formula_structural   AgSbTe2
_chemical_formula_sum   'Ag54 Sb54 Te108'
_cell_volume   6160.96986375
_cell_formula_units_Z   54
loop_
 _symmetry_equiv_pos_site_id
 _symmetry_equiv_pos_as_xyz
  1  'x, y, z'
loop_
 _atom_site_type_symbol
 _atom_site_label
 _atom_site_symmetry_multiplicity
 _atom_site_fract_x
 _atom_site_fract_y
 _atom_site_fract_z
 _atom_site_occupancy
  Ag  Ag0  1  0.34347684  0.67075419  0.00567608  1
  Ag  Ag1  1  -0.00641058  0.67652656  0.66578130  1
  Ag  Ag2  1  0.82682315  0.51026617  0.00264427  1
  Ag  Ag3  1  0.67133261  0.82959259  0.16885019  1
  Ag  Ag4  1  0.15632781  0.83977653  0.66684758  1
  Ag  Ag5  1  -0.00699703  0.32985721  0.00120900  1
  Ag  Ag6  1  0.16403775  0.66924338  0.16616602  1
  Ag  Ag7  1  -0.00799070  0.83150714  0.16281729  1
  Ag  Ag8  1  0.49775054  -0.00889786  0.83445722  1
  Ag  Ag9  1  0.66957089  0.67108239  0.33041162  1
  Ag  Ag10  1  0.00991746  0.16844716  0.50279276  1
  Ag  Ag11  1  0.83365024  0.66739824  0.16620188  1
  Ag  Ag12  1  0.16700765  0.32051857  0.49955167  1
  Ag  Ag13  1  0.67061482  -0.00488830  0.66520949  1
  Ag  Ag14  1  0.83075852  0.66428442  0.50130615  1
  Ag  Ag15  1  0.66805153  0.50260615  0.82771969  1
  Ag  Ag16  1  0.82699071  0.82547983  0.33049500  1
  Ag  Ag17  1  0.66891438  0.16753949  0.50109297  1
  Ag  Ag18  1  0.16326172  0.83493362  -0.00055976  1
  Ag  Ag19  1  -0.01070353  0.49793609  0.50129131  1
  Ag  Ag20  1  0.67014870  0.82670472  0.49958976  1
  Ag  Ag21  1  0.16653361  -0.00043187  0.82762598  1
  Ag  Ag22  1  0.00515950  -0.00206142  -0.00732180  1
  Ag  Ag23  1  0.00008247  0.16217608  0.82685052  1
  Ag  Ag24  1  0.16298507  0.15716665  0.65255273  1
  Ag  Ag25  1  0.33228632  0.33047900  0.33489866  1
  Ag  Ag26  1  0.83331354  0.34526456  0.16510084  1
  Ag  Ag27  1  0.32152870  0.16853413  0.49367119  1
  Ag  Ag28  1  0.16645347  0.00803248  0.50862371  1
  Ag  Ag29  1  0.67162198  0.50325698  0.50650460  1
  Ag  Ag30  1  0.33187954  0.16879696  0.17593007  1
  Ag  Ag31  1  0.49961820  0.15979110  -0.00128424  1
  Ag  Ag32  1  0.82989049  0.50911412  0.33659918  1
  Ag  Ag33  1  0.33394839  0.50410880  0.17240767  1
  Ag  Ag34  1  0.83548298  0.16716908  0.33565854  1
  Ag  Ag35  1  0.33920678  0.66655700  0.32731491  1
  Ag  Ag36  1  0.51048521  0.51080187  -0.00515958  1
  Ag  Ag37  1  0.50884436  0.67065221  0.83654769  1
  Ag  Ag38  1  0.66654770  0.66468853  0.00259328  1
  Ag  Ag39  1  0.51115071  0.50904724  0.66975838  1
  Ag  Ag40  1  0.33462118  0.49861900  0.49401972  1
  Ag  Ag41  1  0.17181531  0.16517578  0.34112279  1
  Ag  Ag42  1  0.00208834  -0.00393677  0.67024222  1
  Ag  Ag43  1  0.66778443  0.34626579  0.66523021  1
  Ag  Ag44  1  0.67080972  0.34833566  -0.00129392  1
  Ag  Ag45  1  0.83068082  0.82660533  0.66424655  1
  Ag  Ag46  1  0.33207223  -0.00656871  0.00359154  1
  Ag  Ag47  1  0.50804631  0.83053306  0.33040700  1
  Ag  Ag48  1  0.50363569  0.82939869  -0.00182504  1
  Ag  Ag49  1  0.82668813  0.66542916  0.83351570  1
  Ag  Ag50  1  0.33207856  0.00463861  0.33081652  1
  Ag  Ag51  1  0.82868228  0.82710851  0.00718074  1
  Ag  Ag52  1  0.50767622  0.82982679  0.66946403  1
  Ag  Ag53  1  0.82915309  0.50784922  0.65759498  1
  Sb  Sb54  1  0.66598305  0.33806231  0.33350956  1
  Sb  Sb55  1  -0.00263362  0.50435510  0.16924220  1
  Sb  Sb56  1  -0.00629522  0.66731503  0.33643517  1
  Sb  Sb57  1  0.49799799  -0.00276074  0.16052175  1
  Sb  Sb58  1  0.67045067  0.17026842  0.83012370  1
  Sb  Sb59  1  0.16482092  0.50678101  0.00053981  1
  Sb  Sb60  1  0.16293670  0.32643270  0.82900903  1
  Sb  Sb61  1  0.16351987  0.66895612  0.49698254  1
  Sb  Sb62  1  0.33145661  0.66698711  0.66509252  1
  Sb  Sb63  1  0.33682674  0.83332693  0.49710421  1
  Sb  Sb64  1  0.49711437  0.15985883  0.33237573  1
  Sb  Sb65  1  0.16326746  0.50109386  0.66330528  1
  Sb  Sb66  1  -0.00661266  0.67012359  -0.00297354  1
  Sb  Sb67  1  0.49851521  0.16440317  0.67013590  1
  Sb  Sb68  1  0.49799029  0.33467613  0.49974043  1
  Sb  Sb69  1  0.66487892  -0.00658288  -0.00749445  1
  Sb  Sb70  1  0.66319853  -0.00674031  0.34006156  1
  Sb  Sb71  1  0.16528497  0.67397446  0.83703734  1
  Sb  Sb72  1  0.83103573  0.16574636  0.00414551  1
  Sb  Sb73  1  0.49661079  -0.00132226  0.50500989  1
  Sb  Sb74  1  0.66438636  0.16284240  0.17002861  1
  Sb  Sb75  1  0.83570819  0.16602833  0.66081027  1
  Sb  Sb76  1  0.83337615  -0.00658566  0.83188892  1
  Sb  Sb77  1  0.16664159  0.49841980  0.33556080  1
  Sb  Sb78  1  0.67407818  0.66684816  0.66688264  1
  Sb  Sb79  1  0.32932930  -0.00092122  0.66618985  1
  Sb  Sb80  1  0.16970056  0.15986845  0.00105080  1
  Sb  Sb81  1  0.16391796  0.33648797  0.16972940  1
  Sb  Sb82  1  0.33460400  0.82984802  0.16459638  1
  Sb  Sb83  1  0.83437109  -0.00741708  0.16655821  1
  Sb  Sb84  1  0.16819687  -0.00479680  0.16552277  1
  Sb  Sb85  1  -0.00510658  0.33092019  0.66669586  1
  Sb  Sb86  1  0.50140110  0.50728158  0.33408373  1
  Sb  Sb87  1  0.66632346  0.50671865  0.16553792  1
  Sb  Sb88  1  0.83535990  0.33830384  0.49640034  1
  Sb  Sb89  1  0.34183374  0.50267498  0.83481912  1
  Sb  Sb90  1  0.33677113  0.33393749  0.65829601  1
  Sb  Sb91  1  0.00076739  0.33249834  0.33206760  1
  Sb  Sb92  1  0.50716272  0.66695562  0.50489691  1
  Sb  Sb93  1  0.50206835  0.66694251  0.16024013  1
  Sb  Sb94  1  0.83226076  0.33958010  0.83801484  1
  Sb  Sb95  1  0.83544407  -0.00283166  0.50101541  1
  Sb  Sb96  1  0.16639521  0.83609066  0.33337162  1
  Sb  Sb97  1  0.33051558  0.16322733  0.83265170  1
  Sb  Sb98  1  0.50156709  0.33540303  0.83410603  1
  Sb  Sb99  1  -0.00814398  0.49804839  0.83066962  1
  Sb  Sb100  1  0.00256141  0.00001822  0.33615313  1
  Sb  Sb101  1  0.00278767  0.16227125  0.16873635  1
  Sb  Sb102  1  0.66667845  0.82576282  0.83086799  1
  Sb  Sb103  1  -0.00110242  0.83772325  0.83536426  1
  Sb  Sb104  1  0.33614976  0.83424409  0.83647517  1
  Sb  Sb105  1  -0.00532514  0.83389007  0.50080515  1
  Sb  Sb106  1  0.50460769  0.33433898  0.16497969  1
  Sb  Sb107  1  0.33529803  0.33441089  0.00772643  1
  Te  Te108  1  0.17117296  0.16786465  0.17182846  1
  Te  Te109  1  0.16607895  0.16443406  0.49719479  1
  Te  Te110  1  0.16226855  0.15993697  0.83300281  1
  Te  Te111  1  0.17008077  0.50608702  0.16729916  1
  Te  Te112  1  0.17180492  0.50033101  0.50070280  1
  Te  Te113  1  0.16635062  0.49911620  0.83161401  1
  Te  Te114  1  0.16441714  0.82861028  0.16486090  1
  Te  Te115  1  0.16592912  0.83722334  0.50363184  1
  Te  Te116  1  0.16663825  0.83968481  0.83215641  1
  Te  Te117  1  0.49507725  0.16612934  0.16095318  1
  Te  Te118  1  0.50813915  0.16670045  0.50085996  1
  Te  Te119  1  0.50011859  0.16302854  0.83789147  1
  Te  Te120  1  0.49388388  0.49940642  0.16171586  1
  Te  Te121  1  0.49919083  0.50086717  0.50355580  1
  Te  Te122  1  0.50571194  0.50279465  0.83321492  1
  Te  Te123  1  0.50581374  0.83304857  0.16598494  1
  Te  Te124  1  0.50551575  0.83295692  0.50394531  1
  Te  Te125  1  0.50078523  0.83142164  0.83343006  1
  Te  Te126  1  0.83326891  0.16562250  0.17319011  1
  Te  Te127  1  0.82814856  0.16782212  0.49585732  1
  Te  Te128  1  0.83914520  0.16650331  0.83332420  1
  Te  Te129  1  0.83344651  0.50402579  0.16645402  1
  Te  Te130  1  0.83188267  0.50012714  0.49844529  1
  Te  Te131  1  0.82876008  0.50507158  0.83861766  1
  Te  Te132  1  0.83179057  0.83009941  0.16762702  1
  Te  Te133  1  0.83105095  0.83055620  0.50045982  1
  Te  Te134  1  0.83321701  0.82609863  0.83025304  1
  Te  Te135  1  0.16752396  -0.00486721  -0.00080845  1
  Te  Te136  1  0.17053565  0.00313185  0.33488903  1
  Te  Te137  1  0.16668218  -0.00135475  0.66816518  1
  Te  Te138  1  0.16209311  0.33382804  -0.00020726  1
  Te  Te139  1  0.17024137  0.32964245  0.33693723  1
  Te  Te140  1  0.16605273  0.32962723  0.66122284  1
  Te  Te141  1  0.16729071  0.67384297  0.00278567  1
  Te  Te142  1  0.17030944  0.66784743  0.32851534  1
  Te  Te143  1  0.16154932  0.67321956  0.66725082  1
  Te  Te144  1  0.49852584  -0.00519462  -0.00490299  1
  Te  Te145  1  0.49385139  -0.00808566  0.33350955  1
  Te  Te146  1  0.49939596  -0.00362582  0.67286446  1
  Te  Te147  1  0.50509090  0.33551032  -0.00049279  1
  Te  Te148  1  0.49340633  0.33413641  0.33166577  1
  Te  Te149  1  0.50731934  0.33646712  0.66737438  1
  Te  Te150  1  0.50217536  0.66833882  -0.00197197  1
  Te  Te151  1  0.50156416  0.67179822  0.33557915  1
  Te  Te152  1  0.49699963  0.66779082  0.67270241  1
  Te  Te153  1  0.83701731  -0.00603094  -0.00166323  1
  Te  Te154  1  0.83295784  0.00369447  0.33410123  1
  Te  Te155  1  0.83532067  -0.00409865  0.66662867  1
  Te  Te156  1  0.83116758  0.33046283  0.00385685  1
  Te  Te157  1  0.83239611  0.33096294  0.32743960  1
  Te  Te158  1  0.82720877  0.33681974  0.66743143  1
  Te  Te159  1  0.83323370  0.66892999  0.00142798  1
  Te  Te160  1  0.83269418  0.66788304  0.33354170  1
  Te  Te161  1  0.83516877  0.66611711  0.66498056  1
  Te  Te162  1  0.00036228  0.16302185  0.00151151  1
  Te  Te163  1  -0.00073408  0.16615514  0.33764384  1
  Te  Te164  1  0.00170750  0.16526697  0.66415496  1
  Te  Te165  1  -0.00412074  0.49621475  -0.00005307  1
  Te  Te166  1  -0.00600478  0.49947903  0.33951725  1
  Te  Te167  1  -0.00531901  0.49856121  0.66237732  1
  Te  Te168  1  0.00063962  0.83495201  0.00096580  1
  Te  Te169  1  -0.00568695  0.83494694  0.32844279  1
  Te  Te170  1  -0.00204165  0.83608153  0.66590540  1
  Te  Te171  1  0.33764302  0.16584845  0.00103850  1
  Te  Te172  1  0.33547463  0.16436188  0.33463635  1
  Te  Te173  1  0.32921144  0.16735335  0.66032521  1
  Te  Te174  1  0.33353768  0.50355110  0.00311500  1
  Te  Te175  1  0.33437107  0.50464893  0.33315258  1
  Te  Te176  1  0.33647062  0.49981867  0.66219328  1
  Te  Te177  1  0.33561973  0.83326671  0.00190386  1
  Te  Te178  1  0.33499866  0.83012286  0.33183754  1
  Te  Te179  1  0.33863104  0.83257989  0.66518328  1
  Te  Te180  1  0.66154578  0.16359517  -0.00019194  1
  Te  Te181  1  0.66621957  0.16645427  0.33764915  1
  Te  Te182  1  0.66685647  0.16327401  0.66369987  1
  Te  Te183  1  0.66722639  0.50365167  0.00523723  1
  Te  Te184  1  0.66880932  0.50457905  0.33623044  1
  Te  Te185  1  0.66841386  0.50285014  0.66597055  1
  Te  Te186  1  0.66778005  0.83038501  -0.00029583  1
  Te  Te187  1  0.66752527  0.83224970  0.33659850  1
  Te  Te188  1  0.66830003  0.83307407  0.66445685  1
  Te  Te189  1  0.00143821  -0.00567310  0.16019307  1
  Te  Te190  1  0.00423452  0.00411612  0.50339267  1
  Te  Te191  1  -0.00002019  0.00325306  0.83188566  1
  Te  Te192  1  -0.00420806  0.33310968  0.16147770  1
  Te  Te193  1  0.00442117  0.33300183  0.49958452  1
  Te  Te194  1  -0.00044156  0.32643192  0.83952014  1
  Te  Te195  1  -0.00029582  0.67047069  0.16627127  1
  Te  Te196  1  -0.00394152  0.66345996  0.50437200  1
  Te  Te197  1  -0.00265103  0.66471059  0.82601429  1
  Te  Te198  1  0.33238527  0.00385919  0.16565470  1
  Te  Te199  1  0.32933893  0.00230437  0.49645879  1
  Te  Te200  1  0.33283563  0.00048283  0.84035431  1
  Te  Te201  1  0.33156015  0.33335300  0.17270033  1
  Te  Te202  1  0.33081325  0.33353481  0.49500752  1
  Te  Te203  1  0.33118030  0.33297420  0.83386848  1
  Te  Te204  1  0.33406277  0.66573234  0.16623461  1
  Te  Te205  1  0.33230323  0.66295321  0.49585882  1
  Te  Te206  1  0.33514125  0.66591136  0.84084689  1
  Te  Te207  1  0.66617204  -0.00691554  0.16664144  1
  Te  Te208  1  0.66586569  0.00053069  0.50644223  1
  Te  Te209  1  0.66302663  0.00227517  0.82506925  1
  Te  Te210  1  0.67296079  0.33112073  0.16286033  1
  Te  Te211  1  0.66719574  0.33689205  0.50181827  1
  Te  Te212  1  0.66711345  0.33868658  0.83554180  1
  Te  Te213  1  0.67055829  0.67006683  0.16793990  1
  Te  Te214  1  0.67024383  0.66596042  0.49547994  1
  Te  Te215  1  0.66749207  0.66161041  0.83897586  1
