# generated using pymatgen
data_AgSbTe2
_symmetry_space_group_name_H-M   'P 1'
_cell_length_a   18.32347622
_cell_length_b   18.32758787
_cell_length_c   18.32144632
_cell_angle_alpha   90.00011695
_cell_angle_beta   90.00109936
_cell_angle_gamma   90.00004672
_symmetry_Int_Tables_number   1
_chemical_formula_structural   AgSbTe2
_chemical_formula_sum   'Ag54 Sb54 Te108'
_cell_volume   6152.80191693
_cell_formula_units_Z   54
loop_
 _symmetry_equiv_pos_site_id
 _symmetry_equiv_pos_as_xyz
  1  'x, y, z'
loop_
 _atom_site_type_symbol
 _atom_site_label
 _atom_site_symmetry_multiplicity
 _atom_site_fract_x
 _atom_site_fract_y
 _atom_site_fract_z
 _atom_site_occupancy
  Ag  Ag0  1  0.50654742  0.49072627  0.33322095  1
  Ag  Ag1  1  0.34156737  0.33076632  0.32794364  1
  Ag  Ag2  1  0.66652873  0.33374625  0.32996901  1
  Ag  Ag3  1  0.83107013  0.17164906  0.00952221  1
  Ag  Ag4  1  0.16362972  0.16999493  0.00997498  1
  Ag  Ag5  1  0.82515090  0.01027295  0.16771193  1
  Ag  Ag6  1  -0.00202235  0.17458340  0.16439865  1
  Ag  Ag7  1  0.82687457  0.17322849  0.32710692  1
  Ag  Ag8  1  0.16793339  0.01238373  0.16886383  1
  Ag  Ag9  1  0.82633520  0.83183877  0.33047819  1
  Ag  Ag10  1  0.50842466  0.00209758  0.16861651  1
  Ag  Ag11  1  0.67059687  0.84086987  0.17065348  1
  Ag  Ag12  1  0.34094148  0.00607227  0.33139660  1
  Ag  Ag13  1  0.33476683  0.65757298  -0.00233525  1
  Ag  Ag14  1  0.33192422  0.50022027  0.84008581  1
  Ag  Ag15  1  -0.00370538  0.33884939  0.66723433  1
  Ag  Ag16  1  0.00775845  0.65808424  0.66096468  1
  Ag  Ag17  1  0.16460488  0.33346253  0.84256766  1
  Ag  Ag18  1  -0.00766132  0.49293359  0.16789989  1
  Ag  Ag19  1  0.50328204  0.16686525  0.00850169  1
  Ag  Ag20  1  0.50736044  0.33460055  0.49390289  1
  Ag  Ag21  1  0.00131194  0.17657150  0.84222353  1
  Ag  Ag22  1  0.66813745  0.83321171  0.48790630  1
  Ag  Ag23  1  0.49676123  0.66331262  0.83355850  1
  Ag  Ag24  1  0.66485018  0.33202295  0.66059045  1
  Ag  Ag25  1  0.82702115  0.33921714  0.48766177  1
  Ag  Ag26  1  0.66616193  0.32816576  0.01189154  1
  Ag  Ag27  1  0.82703065  0.49231763  0.32854381  1
  Ag  Ag28  1  -0.00202258  0.82285335  0.50047790  1
  Ag  Ag29  1  0.82498127  0.83329085  0.01133961  1
  Ag  Ag30  1  0.00268755  0.49480799  0.82931428  1
  Ag  Ag31  1  0.16208829  0.33101971  0.16514298  1
  Ag  Ag32  1  0.50007161  0.49461503  0.66310115  1
  Ag  Ag33  1  0.50330046  0.17140862  0.32745606  1
  Ag  Ag34  1  0.66471793  0.00047891  0.32688854  1
  Ag  Ag35  1  0.50124907  0.17144086  0.66582258  1
  Ag  Ag36  1  0.83319983  0.32998208  0.16959559  1
  Ag  Ag37  1  -0.00350464  0.50378805  0.50036366  1
  Ag  Ag38  1  0.33030235  0.66815581  0.66750733  1
  Ag  Ag39  1  0.67111134  0.49863022  0.17084789  1
  Ag  Ag40  1  0.16944655  0.83054005  0.66173799  1
  Ag  Ag41  1  0.16752005  0.65921882  0.17105999  1
  Ag  Ag42  1  0.33636200  0.33722548  0.00986885  1
  Ag  Ag43  1  0.33471520  0.83161853  0.50074962  1
  Ag  Ag44  1  0.66916405  0.66495448  0.33224367  1
  Ag  Ag45  1  0.66115857  0.00403946  0.66311912  1
  Ag  Ag46  1  0.50552168  0.83804781  0.00320589  1
  Ag  Ag47  1  0.16621084  0.16819146  0.32627464  1
  Ag  Ag48  1  0.83212813  0.49230289  0.01159608  1
  Ag  Ag49  1  0.33487687  0.49791577  0.16501555  1
  Ag  Ag50  1  0.16047313  0.66922396  0.49745598  1
  Ag  Ag51  1  0.83932233  0.66195832  0.49651974  1
  Ag  Ag52  1  0.33895862  -0.00595769  0.66136472  1
  Ag  Ag53  1  0.66596989  0.00470165  0.01105598  1
  Sb  Sb54  1  0.66899016  0.16849330  0.83678008  1
  Sb  Sb55  1  0.33741647  0.66497788  0.33355850  1
  Sb  Sb56  1  0.49743821  0.83398698  0.66800380  1
  Sb  Sb57  1  0.16882411  -0.00541059  0.49477757  1
  Sb  Sb58  1  0.17043340  0.65999302  0.83312804  1
  Sb  Sb59  1  0.50091722  0.66282137  0.50134376  1
  Sb  Sb60  1  0.33146693  0.50322600  0.49815195  1
  Sb  Sb61  1  0.16852281  0.00644996  0.83822397  1
  Sb  Sb62  1  0.00312048  0.66324249  -0.00137897  1
  Sb  Sb63  1  0.33549517  0.33582412  0.66546791  1
  Sb  Sb64  1  0.83167749  0.49727863  0.66324779  1
  Sb  Sb65  1  -0.00057818  0.00106779  0.66577745  1
  Sb  Sb66  1  0.16697402  0.50319039  0.66636989  1
  Sb  Sb67  1  0.83521341  0.83355209  0.65964854  1
  Sb  Sb68  1  0.83110144  0.66405764  0.83048250  1
  Sb  Sb69  1  0.66375832  0.66618469  0.00664151  1
  Sb  Sb70  1  0.67359170  0.16627078  0.16782952  1
  Sb  Sb71  1  -0.00407838  0.00157246  0.33126090  1
  Sb  Sb72  1  0.66564648  0.83386962  0.83723239  1
  Sb  Sb73  1  0.49638658  0.33644030  0.83197006  1
  Sb  Sb74  1  0.16625889  0.49256678  0.00259006  1
  Sb  Sb75  1  0.16402796  0.83613770  0.33583801  1
  Sb  Sb76  1  -0.00020894  0.82912455  0.82884959  1
  Sb  Sb77  1  0.82981299  -0.00052869  0.49127866  1
  Sb  Sb78  1  0.50624274  0.83617008  0.32962713  1
  Sb  Sb79  1  0.33111866  0.17283113  0.83513743  1
  Sb  Sb80  1  -0.00197691  0.17081891  0.49749998  1
  Sb  Sb81  1  0.33646792  0.83117516  0.17009801  1
  Sb  Sb82  1  0.66600031  0.49745509  0.83790284  1
  Sb  Sb83  1  0.83214759  0.00236629  0.84135971  1
  Sb  Sb84  1  0.50141114  0.00391221  0.49533107  1
  Sb  Sb85  1  -0.00542570  0.66482457  0.33893233  1
  Sb  Sb86  1  0.33346260  0.82637892  0.83002500  1
  Sb  Sb87  1  0.67096345  0.49987153  0.49076960  1
  Sb  Sb88  1  -0.00586560  0.83123109  0.17148840  1
  Sb  Sb89  1  0.50345489  0.32772686  0.17223504  1
  Sb  Sb90  1  0.32743996  0.17396916  0.16867134  1
  Sb  Sb91  1  -0.00751065  0.00406248  0.00422867  1
  Sb  Sb92  1  0.49876059  -0.00122751  0.83646103  1
  Sb  Sb93  1  0.50107334  0.49639039  0.00387110  1
  Sb  Sb94  1  -0.00596378  0.33407609  0.33302285  1
  Sb  Sb95  1  0.66634902  0.16756360  0.49606431  1
  Sb  Sb96  1  0.16475653  0.33803467  0.49444856  1
  Sb  Sb97  1  0.82939346  0.16910697  0.66625866  1
  Sb  Sb98  1  0.33421494  0.16461655  0.49652205  1
  Sb  Sb99  1  0.49860151  0.66748361  0.16506450  1
  Sb  Sb100  1  0.66483793  0.66424690  0.65894392  1
  Sb  Sb101  1  0.33984410  0.00336014  0.00644349  1
  Sb  Sb102  1  0.16825495  0.83715036  0.00086229  1
  Sb  Sb103  1  -0.00087244  0.33283368  0.00079477  1
  Sb  Sb104  1  0.83827238  0.33437679  0.83894009  1
  Sb  Sb105  1  0.83564416  0.66130668  0.17224293  1
  Sb  Sb106  1  0.16600375  0.49575687  0.32916837  1
  Sb  Sb107  1  0.16983265  0.16495864  0.66602164  1
  Te  Te108  1  0.16409785  0.17011291  0.16777860  1
  Te  Te109  1  0.16525621  0.16616974  0.49201669  1
  Te  Te110  1  0.16168745  0.17326326  0.83434584  1
  Te  Te111  1  0.16714186  0.49800004  0.16622322  1
  Te  Te112  1  0.15984060  0.50684882  0.49822562  1
  Te  Te113  1  0.16566112  0.49352520  0.83370019  1
  Te  Te114  1  0.16469436  0.83130376  0.16624797  1
  Te  Te115  1  0.16652321  0.82892379  0.50192574  1
  Te  Te116  1  0.16521039  0.83530622  0.82764029  1
  Te  Te117  1  0.49579069  0.16139377  0.16712871  1
  Te  Te118  1  0.50019308  0.17339323  0.50141616  1
  Te  Te119  1  0.49975987  0.16745408  0.83177593  1
  Te  Te120  1  0.49948236  0.50023884  0.17127431  1
  Te  Te121  1  0.49945667  0.49550619  0.49980112  1
  Te  Te122  1  0.49745591  0.50309734  0.83205048  1
  Te  Te123  1  0.50450370  0.83714863  0.16242827  1
  Te  Te124  1  0.50120211  0.83228542  0.50026852  1
  Te  Te125  1  0.49942897  0.82770149  0.84063054  1
  Te  Te126  1  0.83732733  0.16817481  0.16674934  1
  Te  Te127  1  0.83395741  0.17281762  0.49360448  1
  Te  Te128  1  0.84147851  0.16702786  0.83866846  1
  Te  Te129  1  0.83290930  0.50033222  0.16827917  1
  Te  Te130  1  0.83641745  0.49926359  0.49749046  1
  Te  Te131  1  0.83848291  0.50104110  0.83868148  1
  Te  Te132  1  0.83099823  0.83046872  0.16894762  1
  Te  Te133  1  0.83126503  0.83284748  0.49605701  1
  Te  Te134  1  0.83416759  0.83323814  0.84089128  1
  Te  Te135  1  0.16963392  0.00646791  0.00602466  1
  Te  Te136  1  0.16997758  0.00378056  0.32867621  1
  Te  Te137  1  0.17035993  -0.00439710  0.66687208  1
  Te  Te138  1  0.17028794  0.32934940  0.00321744  1
  Te  Te139  1  0.17255951  0.32931425  0.32897158  1
  Te  Te140  1  0.16365572  0.33183130  0.66415459  1
  Te  Te141  1  0.17313808  0.66897450  0.00246136  1
  Te  Te142  1  0.16811632  0.66737990  0.33286760  1
  Te  Te143  1  0.16797757  0.66877586  0.66655077  1
  Te  Te144  1  0.50448933  0.00250831  0.00288561  1
  Te  Te145  1  0.50196733  0.00261835  0.33047793  1
  Te  Te146  1  0.49962433  0.00178623  0.66625214  1
  Te  Te147  1  0.50167710  0.32913786  -0.00086576  1
  Te  Te148  1  0.50166224  0.33144110  0.33376238  1
  Te  Te149  1  0.50060879  0.33370660  0.66489375  1
  Te  Te150  1  0.49615112  0.66617229  -0.00288103  1
  Te  Te151  1  0.50628795  0.66094622  0.33377439  1
  Te  Te152  1  0.49666919  0.66393104  0.66879233  1
  Te  Te153  1  0.82665733  0.00114843  0.00639158  1
  Te  Te154  1  0.82907255  0.00288095  0.32734224  1
  Te  Te155  1  0.82687430  0.00133681  0.66718968  1
  Te  Te156  1  0.82969433  0.33255225  0.00390251  1
  Te  Te157  1  0.83117386  0.33289656  0.33089007  1
  Te  Te158  1  0.83106730  0.33222964  0.66463473  1
  Te  Te159  1  0.83307491  0.66918272  -0.00101324  1
  Te  Te160  1  0.82896546  0.66803991  0.33722053  1
  Te  Te161  1  0.83615557  0.66608184  0.66092519  1
  Te  Te162  1  0.00038613  0.16664685  0.00214605  1
  Te  Te163  1  0.00114201  0.16731262  0.32904405  1
  Te  Te164  1  -0.00037886  0.17105175  0.66782360  1
  Te  Te165  1  -0.00507670  0.50017789  0.00385688  1
  Te  Te166  1  -0.00502984  0.50007513  0.33025773  1
  Te  Te167  1  -0.00105969  0.49899502  0.66662376  1
  Te  Te168  1  -0.00498302  0.83299338  -0.00137162  1
  Te  Te169  1  -0.00692952  0.83352609  0.34000047  1
  Te  Te170  1  0.00311049  0.83170482  0.66168989  1
  Te  Te171  1  0.33730767  0.17159241  -0.00164845  1
  Te  Te172  1  0.33871333  0.16553378  0.33419379  1
  Te  Te173  1  0.33862715  0.16282093  0.66672292  1
  Te  Te174  1  0.33383194  0.49786805  0.00132655  1
  Te  Te175  1  0.33649799  0.49739049  0.33000977  1
  Te  Te176  1  0.33709469  0.50396519  0.66649591  1
  Te  Te177  1  0.33830370  0.83276094  -0.00062901  1
  Te  Te178  1  0.33349812  0.83565630  0.33851932  1
  Te  Te179  1  0.33177649  0.83125221  0.66374585  1
  Te  Te180  1  0.66594661  0.16793453  0.00013530  1
  Te  Te181  1  0.66500114  0.16685618  0.33351508  1
  Te  Te182  1  0.66234350  0.16870916  0.66742940  1
  Te  Te183  1  0.67021898  0.49669094  0.00559715  1
  Te  Te184  1  0.66701595  0.49565585  0.33143906  1
  Te  Te185  1  0.66141627  0.49592388  0.66864704  1
  Te  Te186  1  0.66605491  0.83387446  0.00337129  1
  Te  Te187  1  0.66708761  0.83813628  0.33102167  1
  Te  Te188  1  0.66643725  0.83482709  0.66622581  1
  Te  Te189  1  0.00539813  0.00092896  0.16670762  1
  Te  Te190  1  -0.00056413  -0.00545732  0.50086910  1
  Te  Te191  1  0.00094806  0.00533530  0.83323388  1
  Te  Te192  1  0.00010232  0.33418459  0.16751357  1
  Te  Te193  1  -0.00303262  0.33813470  0.50441009  1
  Te  Te194  1  0.00247873  0.33528160  0.83078942  1
  Te  Te195  1  0.00747905  0.66314526  0.16624815  1
  Te  Te196  1  0.00001056  0.66529396  0.50178437  1
  Te  Te197  1  0.00064205  0.66068787  0.82579989  1
  Te  Te198  1  0.33054627  -0.00254884  0.17153116  1
  Te  Te199  1  0.33475850  -0.00563750  0.49933681  1
  Te  Te200  1  0.33283246  -0.00041517  0.82616015  1
  Te  Te201  1  0.33411215  0.33869283  0.16739003  1
  Te  Te202  1  0.33519749  0.33412932  0.49377465  1
  Te  Te203  1  0.32769118  0.34020705  0.83367197  1
  Te  Te204  1  0.32955346  0.66311528  0.16467522  1
  Te  Te205  1  0.33050335  0.67028442  0.50265736  1
  Te  Te206  1  0.33499137  0.66033361  0.83353149  1
  Te  Te207  1  0.66848285  0.00031062  0.16677856  1
  Te  Te208  1  0.66652865  -0.00576318  0.50268784  1
  Te  Te209  1  0.66589779  0.00078819  0.82517292  1
  Te  Te210  1  0.66931295  0.33614370  0.16840697  1
  Te  Te211  1  0.66738195  0.33431641  0.49956340  1
  Te  Te212  1  0.66775991  0.33364434  0.82759048  1
  Te  Te213  1  0.66708380  0.66318806  0.17245105  1
  Te  Te214  1  0.67073611  0.67181395  0.49455287  1
  Te  Te215  1  0.66050816  0.66566418  0.83221243  1
