# generated using pymatgen
data_AgSbTe2
_symmetry_space_group_name_H-M   'P 1'
_cell_length_a   18.34243497
_cell_length_b   18.34823210
_cell_length_c   18.32766803
_cell_angle_alpha   89.99815485
_cell_angle_beta   90.00037049
_cell_angle_gamma   89.99947481
_symmetry_Int_Tables_number   1
_chemical_formula_structural   AgSbTe2
_chemical_formula_sum   'Ag54 Sb54 Te108'
_cell_volume   6168.19965678
_cell_formula_units_Z   54
loop_
 _symmetry_equiv_pos_site_id
 _symmetry_equiv_pos_as_xyz
  1  'x, y, z'
loop_
 _atom_site_type_symbol
 _atom_site_label
 _atom_site_symmetry_multiplicity
 _atom_site_fract_x
 _atom_site_fract_y
 _atom_site_fract_z
 _atom_site_occupancy
  Ag  Ag0  1  0.16859779  0.83692699  0.00865404  1
  Ag  Ag1  1  0.49837061  0.00758509  0.16707102  1
  Ag  Ag2  1  0.16730182  0.33273861  0.50376742  1
  Ag  Ag3  1  0.65805204  0.16438305  0.16077086  1
  Ag  Ag4  1  0.33099137  0.32690699  0.66799924  1
  Ag  Ag5  1  0.65587090  0.16642037  0.83309215  1
  Ag  Ag6  1  0.65556904  0.01030726  0.67160356  1
  Ag  Ag7  1  0.66142221  0.66823196  -0.00140651  1
  Ag  Ag8  1  0.00110254  0.82915385  0.49774467  1
  Ag  Ag9  1  0.16615522  0.48675405  0.66590578  1
  Ag  Ag10  1  0.49922225  0.50312644  0.00090893  1
  Ag  Ag11  1  0.49444955  0.49701326  0.32689197  1
  Ag  Ag12  1  0.49794628  0.32658336  0.16558207  1
  Ag  Ag13  1  0.49900016  0.00263699  0.49377957  1
  Ag  Ag14  1  0.17582824  0.16311066  0.32478678  1
  Ag  Ag15  1  0.33440966  0.66477959  0.00057189  1
  Ag  Ag16  1  0.17235251  0.00968736  0.17070678  1
  Ag  Ag17  1  0.17279320  0.84348664  0.32909988  1
  Ag  Ag18  1  0.82600228  0.33425275  0.83154211  1
  Ag  Ag19  1  0.66629930  0.49878105  0.50189780  1
  Ag  Ag20  1  0.82021309  0.00713091  0.16693014  1
  Ag  Ag21  1  0.33486965  0.00634468  0.32974608  1
  Ag  Ag22  1  0.83043715  0.32530702  0.16230028  1
  Ag  Ag23  1  0.83384432  0.84188051  0.66894239  1
  Ag  Ag24  1  -0.00060790  0.65976918  0.66682889  1
  Ag  Ag25  1  0.33272864  0.66797306  0.32664004  1
  Ag  Ag26  1  0.33809413  0.49596067  0.83772887  1
  Ag  Ag27  1  0.49823249  0.16577872  0.67694059  1
  Ag  Ag28  1  0.01103846  0.33336848  0.66612442  1
  Ag  Ag29  1  0.49849067  0.66421920  0.83557956  1
  Ag  Ag30  1  -0.00141418  0.50309551  0.50232590  1
  Ag  Ag31  1  0.66486693  0.84687909  0.16543153  1
  Ag  Ag32  1  0.00608933  0.67087608  0.33483770  1
  Ag  Ag33  1  0.33811985  0.00976872  0.66680782  1
  Ag  Ag34  1  0.66492641  0.32697734  0.66959569  1
  Ag  Ag35  1  0.33630531  0.48908100  0.16573380  1
  Ag  Ag36  1  0.66419323  -0.00008794  0.00727681  1
  Ag  Ag37  1  0.48901642  0.84674739  0.33082766  1
  Ag  Ag38  1  0.16949605  0.16325746  0.01283467  1
  Ag  Ag39  1  0.01261651  -0.00170737  0.32933083  1
  Ag  Ag40  1  0.33577554  0.83719160  0.83458021  1
  Ag  Ag41  1  0.17983907  0.16975447  0.66629456  1
  Ag  Ag42  1  0.49875432  0.00973120  0.83337783  1
  Ag  Ag43  1  0.49251365  0.16449002  0.32118988  1
  Ag  Ag44  1  0.18040626  0.32275030  0.17081510  1
  Ag  Ag45  1  0.01752250  0.16663339  0.16797402  1
  Ag  Ag46  1  0.33708992  0.16851539  0.82709057  1
  Ag  Ag47  1  0.49952095  0.32819636  0.83364328  1
  Ag  Ag48  1  0.82485184  0.50182429  -0.00105637  1
  Ag  Ag49  1  0.33355748  0.32386573  0.32330360  1
  Ag  Ag50  1  0.83030924  0.66018312  0.83586938  1
  Ag  Ag51  1  0.82198006  0.16794326  0.67188828  1
  Ag  Ag52  1  0.00173429  0.66642443  -0.00088149  1
  Ag  Ag53  1  0.33358350  0.16993118  0.17131640  1
  Sb  Sb54  1  0.83457278  0.17015739  -0.00041852  1
  Sb  Sb55  1  0.82959999  0.00089594  0.49690254  1
  Sb  Sb56  1  0.83254785  0.16625264  0.33026381  1
  Sb  Sb57  1  -0.00019891  0.33667555  -0.00265627  1
  Sb  Sb58  1  0.17453144  0.00217028  0.83821055  1
  Sb  Sb59  1  0.65851368  0.33198941  0.33467324  1
  Sb  Sb60  1  0.83382004  0.66640484  0.16069897  1
  Sb  Sb61  1  0.83646826  0.66610461  0.50715013  1
  Sb  Sb62  1  0.65892896  0.00124518  0.33056475  1
  Sb  Sb63  1  0.17301173  0.33210631  0.83336697  1
  Sb  Sb64  1  0.17141422  0.49915344  -0.00227597  1
  Sb  Sb65  1  0.16468428  0.83700556  0.66397554  1
  Sb  Sb66  1  0.83709208  0.49517509  0.67223873  1
  Sb  Sb67  1  0.00224196  0.16758127  0.49672952  1
  Sb  Sb68  1  0.49789956  0.66612434  0.16298038  1
  Sb  Sb69  1  0.32949667  0.83520596  0.49970125  1
  Sb  Sb70  1  -0.00176417  -0.00252367  0.00723509  1
  Sb  Sb71  1  0.16816880  0.66642631  0.16750885  1
  Sb  Sb72  1  0.33521580  0.33453225  0.00034855  1
  Sb  Sb73  1  0.17252389  0.49601684  0.33643471  1
  Sb  Sb74  1  0.66024289  0.49503272  0.16551723  1
  Sb  Sb75  1  0.49461709  0.16898254  0.00025494  1
  Sb  Sb76  1  0.33553228  0.83735600  0.16605724  1
  Sb  Sb77  1  -0.00115153  0.83820653  0.17080607  1
  Sb  Sb78  1  0.49497700  0.32863187  0.50007046  1
  Sb  Sb79  1  0.32938525  0.66439681  0.67097713  1
  Sb  Sb80  1  0.16506052  0.66252524  0.49876348  1
  Sb  Sb81  1  0.00282390  0.49986422  0.83009919  1
  Sb  Sb82  1  0.66479074  0.33035985  -0.00329974  1
  Sb  Sb83  1  0.66335793  0.66679852  0.32658395  1
  Sb  Sb84  1  0.67020482  0.66605228  0.67407262  1
  Sb  Sb85  1  0.83608233  0.33393725  0.50289818  1
  Sb  Sb86  1  0.66104305  0.83759592  0.83760767  1
  Sb  Sb87  1  0.83569722  0.83428753  0.33416986  1
  Sb  Sb88  1  0.83539157  0.82962555  -0.00338181  1
  Sb  Sb89  1  0.66349904  0.16922108  0.50485350  1
  Sb  Sb90  1  0.66192722  0.49442302  0.83218784  1
  Sb  Sb91  1  0.16978474  0.66703062  0.83483503  1
  Sb  Sb92  1  0.33366754  0.49770826  0.49834965  1
  Sb  Sb93  1  0.49538886  0.49208595  0.66865411  1
  Sb  Sb94  1  0.66842639  0.83190208  0.49725907  1
  Sb  Sb95  1  0.82514588  0.00292410  0.83559221  1
  Sb  Sb96  1  0.00266324  0.16874405  0.83411765  1
  Sb  Sb97  1  0.33448073  0.16713065  0.49896321  1
  Sb  Sb98  1  0.00225259  0.00434198  0.66026261  1
  Sb  Sb99  1  0.49699243  0.83048081  0.00292012  1
  Sb  Sb100  1  0.50273214  0.84258712  0.66547744  1
  Sb  Sb101  1  0.83148436  0.49912582  0.32843013  1
  Sb  Sb102  1  0.00779153  0.33213475  0.33491359  1
  Sb  Sb103  1  0.17156072  0.00622932  0.49378669  1
  Sb  Sb104  1  0.49949050  0.66880363  0.50244987  1
  Sb  Sb105  1  0.33816334  -0.00123762  0.00130624  1
  Sb  Sb106  1  0.00353928  0.83120473  0.83053225  1
  Sb  Sb107  1  0.00470995  0.49508717  0.16924226  1
  Te  Te108  1  0.17332982  0.16685070  0.16927891  1
  Te  Te109  1  0.16482506  0.17248240  0.50687397  1
  Te  Te110  1  0.17145099  0.16685001  0.82551568  1
  Te  Te111  1  0.17284602  0.49332798  0.16679613  1
  Te  Te112  1  0.16320508  0.49505522  0.50465478  1
  Te  Te113  1  0.17419618  0.49997325  0.82834783  1
  Te  Te114  1  0.16691978  0.83527354  0.16914286  1
  Te  Te115  1  0.16184223  0.83466652  0.49469393  1
  Te  Te116  1  0.17379373  0.83454183  0.83576700  1
  Te  Te117  1  0.49671812  0.16786447  0.16268156  1
  Te  Te118  1  0.50200552  0.16151154  0.49718855  1
  Te  Te119  1  0.49788430  0.16926557  0.83666220  1
  Te  Te120  1  0.49631220  0.49906313  0.16640205  1
  Te  Te121  1  0.50288052  0.50013352  0.49819484  1
  Te  Te122  1  0.49745997  0.50109344  0.83453249  1
  Te  Te123  1  0.50317595  0.83415124  0.17085182  1
  Te  Te124  1  0.50065428  0.83763179  0.49303778  1
  Te  Te125  1  0.49553965  0.82776766  0.83283449  1
  Te  Te126  1  0.82240488  0.16610903  0.16469818  1
  Te  Te127  1  0.83299556  0.16670270  0.50863492  1
  Te  Te128  1  0.83489061  0.17066957  0.83177938  1
  Te  Te129  1  0.83328670  0.49626956  0.16037058  1
  Te  Te130  1  0.83483142  0.49931684  0.49810827  1
  Te  Te131  1  0.83244154  0.49909057  0.83870462  1
  Te  Te132  1  0.82810583  0.83726088  0.16517787  1
  Te  Te133  1  0.83754871  0.83359622  0.50626397  1
  Te  Te134  1  0.83287916  0.83255765  0.82868269  1
  Te  Te135  1  0.16663001  -0.00045291  0.00522402  1
  Te  Te136  1  0.17167500  0.00283144  0.33260651  1
  Te  Te137  1  0.17259775  0.00474471  0.66547663  1
  Te  Te138  1  0.16465615  0.32830479  0.00472578  1
  Te  Te139  1  0.17169817  0.32894976  0.33133070  1
  Te  Te140  1  0.16907307  0.33044149  0.67078885  1
  Te  Te141  1  0.16819934  0.66918136  0.00070090  1
  Te  Te142  1  0.16672509  0.66827292  0.33329125  1
  Te  Te143  1  0.15950828  0.66888156  0.66652246  1
  Te  Te144  1  0.50475390  -0.00279828  0.00022000  1
  Te  Te145  1  0.49735290  0.00298746  0.32956241  1
  Te  Te146  1  0.49785618  0.00265581  0.67246951  1
  Te  Te147  1  0.50150339  0.34195575  -0.00074886  1
  Te  Te148  1  0.49391657  0.33197645  0.33245238  1
  Te  Te149  1  0.49810200  0.32878446  0.66780839  1
  Te  Te150  1  0.49727340  0.66436549  -0.00304965  1
  Te  Te151  1  0.49724090  0.66123858  0.33498162  1
  Te  Te152  1  0.50016912  0.66767555  0.67181188  1
  Te  Te153  1  0.82872102  -0.00105289  0.00503220  1
  Te  Te154  1  0.83666243  0.00010847  0.32768793  1
  Te  Te155  1  0.83383735  0.00320893  0.66695992  1
  Te  Te156  1  0.83232798  0.33805356  -0.00150088  1
  Te  Te157  1  0.83356178  0.33305623  0.32778538  1
  Te  Te158  1  0.82704213  0.33072814  0.66864675  1
  Te  Te159  1  0.83541747  0.66392569  -0.00412959  1
  Te  Te160  1  0.83811043  0.66669579  0.33230959  1
  Te  Te161  1  0.83810057  0.66481986  0.67454718  1
  Te  Te162  1  0.00616211  0.16638556  0.00534488  1
  Te  Te163  1  0.00029678  0.16372450  0.32853354  1
  Te  Te164  1  -0.00078600  0.17122333  0.66573212  1
  Te  Te165  1  0.00227875  0.50553634  0.00026362  1
  Te  Te166  1  0.00031760  0.50406036  0.33755944  1
  Te  Te167  1  0.00278662  0.49835734  0.66402959  1
  Te  Te168  1  0.00584262  0.82776997  0.00012632  1
  Te  Te169  1  0.00145033  0.83182017  0.33525155  1
  Te  Te170  1  -0.00266397  0.83389501  0.66258201  1
  Te  Te171  1  0.32792879  0.16521571  -0.00188771  1
  Te  Te172  1  0.33454113  0.16675588  0.33439866  1
  Te  Te173  1  0.33865126  0.16704315  0.66468985  1
  Te  Te174  1  0.33496893  0.50322291  -0.00030195  1
  Te  Te175  1  0.33580765  0.50243550  0.33155739  1
  Te  Te176  1  0.32834389  0.49905120  0.66930573  1
  Te  Te177  1  0.32933879  0.82922107  -0.00204974  1
  Te  Te178  1  0.33204384  0.83087040  0.33291068  1
  Te  Te179  1  0.33326784  0.83308001  0.67130422  1
  Te  Te180  1  0.66755404  0.16241283  -0.00240325  1
  Te  Te181  1  0.66415460  0.16709490  0.32968978  1
  Te  Te182  1  0.66274791  0.16688957  0.66826006  1
  Te  Te183  1  0.66405331  0.50374505  -0.00118241  1
  Te  Te184  1  0.66149477  0.50044436  0.33657332  1
  Te  Te185  1  0.66672623  0.49752960  0.66392959  1
  Te  Te186  1  0.66686576  0.83375470  0.00389459  1
  Te  Te187  1  0.66482127  0.83178249  0.32804871  1
  Te  Te188  1  0.67223703  0.83433373  0.66605244  1
  Te  Te189  1  0.00724161  0.00430358  0.17030020  1
  Te  Te190  1  -0.00100090  -0.00412112  0.49196034  1
  Te  Te191  1  -0.00039649  -0.00032475  0.83333000  1
  Te  Te192  1  -0.00765953  0.32866345  0.16652389  1
  Te  Te193  1  0.00370646  0.33708868  0.50314735  1
  Te  Te194  1  -0.00823376  0.33423094  0.82733825  1
  Te  Te195  1  0.00026803  0.66518367  0.16716830  1
  Te  Te196  1  0.00014831  0.66543243  0.50048528  1
  Te  Te197  1  -0.00382308  0.66649334  0.83334101  1
  Te  Te198  1  0.33527516  0.00226781  0.16770497  1
  Te  Te199  1  0.33869263  -0.00225382  0.50129844  1
  Te  Te200  1  0.33855718  0.00218551  0.83395040  1
  Te  Te201  1  0.33717505  0.33199758  0.16495280  1
  Te  Te202  1  0.32794048  0.33581967  0.50680373  1
  Te  Te203  1  0.33737655  0.33189063  0.83166472  1
  Te  Te204  1  0.33257693  0.66434970  0.16585444  1
  Te  Te205  1  0.33357771  0.66665193  0.49193115  1
  Te  Te206  1  0.33591907  0.66403720  0.83520700  1
  Te  Te207  1  0.66201908  0.00338822  0.16838270  1
  Te  Te208  1  0.66197433  -0.00214261  0.50732285  1
  Te  Te209  1  0.66143826  0.00399051  0.83151970  1
  Te  Te210  1  0.66412784  0.32858137  0.16699207  1
  Te  Te211  1  0.66722850  0.33724175  0.50493466  1
  Te  Te212  1  0.66483538  0.32859132  0.83074910  1
  Te  Te213  1  0.66746223  0.66530583  0.15829806  1
  Te  Te214  1  0.66786699  0.66203695  0.50011485  1
  Te  Te215  1  0.66608131  0.66763689  0.83901844  1
