# generated using pymatgen
data_AgSbTe2
_symmetry_space_group_name_H-M   'P 1'
_cell_length_a   18.31632208
_cell_length_b   18.31622603
_cell_length_c   18.31155410
_cell_angle_alpha   89.99816580
_cell_angle_beta   89.99954291
_cell_angle_gamma   89.99961096
_symmetry_Int_Tables_number   1
_chemical_formula_structural   AgSbTe2
_chemical_formula_sum   'Ag54 Sb54 Te108'
_cell_volume   6143.26811580
_cell_formula_units_Z   54
loop_
 _symmetry_equiv_pos_site_id
 _symmetry_equiv_pos_as_xyz
  1  'x, y, z'
loop_
 _atom_site_type_symbol
 _atom_site_label
 _atom_site_symmetry_multiplicity
 _atom_site_fract_x
 _atom_site_fract_y
 _atom_site_fract_z
 _atom_site_occupancy
  Ag  Ag0  1  0.00649345  0.67071964  0.00314242  1
  Ag  Ag1  1  0.17437218  0.83198550  0.00086379  1
  Ag  Ag2  1  0.83164410  0.00422199  0.49432116  1
  Ag  Ag3  1  0.82714936  0.32508726  0.49829071  1
  Ag  Ag4  1  0.50288454  0.51377015  0.66265596  1
  Ag  Ag5  1  0.34075932  0.00356837  0.33411643  1
  Ag  Ag6  1  -0.00047438  0.00121955  0.00459725  1
  Ag  Ag7  1  0.82504037  0.66747929  0.83640255  1
  Ag  Ag8  1  0.00191126  0.49752361  0.16651155  1
  Ag  Ag9  1  0.82322098  0.84285830  0.33765050  1
  Ag  Ag10  1  0.65971782  0.66892276  0.66643248  1
  Ag  Ag11  1  0.66720655  0.00197767  0.33103594  1
  Ag  Ag12  1  0.16972862  0.50454229  0.00415878  1
  Ag  Ag13  1  0.50238198  0.49938708  0.33278016  1
  Ag  Ag14  1  0.33185710  0.16663092  0.16819632  1
  Ag  Ag15  1  0.16998974  0.16552132  0.00639295  1
  Ag  Ag16  1  0.49819362  0.16447841  0.32800228  1
  Ag  Ag17  1  0.49775632  0.67176739  0.50891412  1
  Ag  Ag18  1  0.83434963  0.16482041  0.00458801  1
  Ag  Ag19  1  -0.00853056  0.32370199  0.32952352  1
  Ag  Ag20  1  0.49662660  0.83613674  -0.00120968  1
  Ag  Ag21  1  0.66353690  0.50320777  0.49629491  1
  Ag  Ag22  1  0.17624323  0.66802469  0.49417199  1
  Ag  Ag23  1  0.33406982  0.33268351  0.00286934  1
  Ag  Ag24  1  0.49869290  0.33357599  0.16502376  1
  Ag  Ag25  1  0.34707723  0.66805576  0.66910080  1
  Ag  Ag26  1  0.49600194  0.16431917  0.00540620  1
  Ag  Ag27  1  0.33554726  0.50116645  0.16487251  1
  Ag  Ag28  1  0.82259774  0.83432306  0.66176723  1
  Ag  Ag29  1  0.66725492  0.32854508  0.33698064  1
  Ag  Ag30  1  0.50391801  0.67305646  0.82353126  1
  Ag  Ag31  1  0.65806813  0.49978001  0.17240935  1
  Ag  Ag32  1  0.83069657  0.16571288  0.66054192  1
  Ag  Ag33  1  0.83337381  0.16234053  0.33195987  1
  Ag  Ag34  1  0.82805348  0.33195780  0.83052376  1
  Ag  Ag35  1  0.33534297  0.16218085  0.48766416  1
  Ag  Ag36  1  0.17198730  0.00188312  0.83969658  1
  Ag  Ag37  1  0.34329855  0.83212510  0.49286331  1
  Ag  Ag38  1  0.17009790  0.16561339  0.32402466  1
  Ag  Ag39  1  0.49940925  -0.00981075  0.83861406  1
  Ag  Ag40  1  0.66554750  -0.00017722  0.00322702  1
  Ag  Ag41  1  0.66625664  0.33847383  0.66302758  1
  Ag  Ag42  1  0.17004796  0.32901420  0.83913938  1
  Ag  Ag43  1  0.00360448  0.17025958  0.16847156  1
  Ag  Ag44  1  0.33091922  0.66771898  0.00231350  1
  Ag  Ag45  1  0.33561086  0.83114476  0.16722987  1
  Ag  Ag46  1  0.50451853  0.82560208  0.66637855  1
  Ag  Ag47  1  0.50247825  0.83550165  0.33513987  1
  Ag  Ag48  1  0.66149106  0.82894253  0.50336150  1
  Ag  Ag49  1  0.50305974  0.33329486  0.83840994  1
  Ag  Ag50  1  0.66279629  0.83189550  0.82621593  1
  Ag  Ag51  1  -0.00433684  0.00598265  0.32677878  1
  Ag  Ag52  1  0.83638429  0.66632994  0.16191105  1
  Ag  Ag53  1  0.16834641  0.66410006  0.16169781  1
  Sb  Sb54  1  -0.00903238  0.33220938  0.66407455  1
  Sb  Sb55  1  0.83418817  -0.00238176  0.17264020  1
  Sb  Sb56  1  -0.00311727  0.00066109  0.66797407  1
  Sb  Sb57  1  0.83002790  -0.00004089  0.83305710  1
  Sb  Sb58  1  0.66639413  -0.00487472  0.66427517  1
  Sb  Sb59  1  0.50536508  0.33598203  0.49687525  1
  Sb  Sb60  1  0.66149913  0.82861880  0.16957281  1
  Sb  Sb61  1  0.33618344  0.50098608  0.84149023  1
  Sb  Sb62  1  0.66596624  0.16302518  0.83398168  1
  Sb  Sb63  1  0.00386223  0.83311959  0.16490519  1
  Sb  Sb64  1  0.82600823  0.49743184  0.33059492  1
  Sb  Sb65  1  0.17303924  0.83122673  0.67078649  1
  Sb  Sb66  1  0.34244552  0.83289842  0.83742563  1
  Sb  Sb67  1  0.17586463  0.50163442  0.67174514  1
  Sb  Sb68  1  0.00079342  0.49946061  0.84034750  1
  Sb  Sb69  1  0.17137207  0.49590147  0.32726499  1
  Sb  Sb70  1  0.16486025  0.33509145  0.49982281  1
  Sb  Sb71  1  -0.00310085  0.83267389  0.49722384  1
  Sb  Sb72  1  0.49768327  0.66336395  0.16618785  1
  Sb  Sb73  1  0.83633731  0.49819851  0.00195672  1
  Sb  Sb74  1  0.33440191  0.16688632  0.83858508  1
  Sb  Sb75  1  0.34208370  0.33732429  0.67136683  1
  Sb  Sb76  1  -0.00117096  0.66838502  0.32590841  1
  Sb  Sb77  1  -0.00383169  0.66702566  0.67204187  1
  Sb  Sb78  1  0.00454575  0.33079792  0.00542922  1
  Sb  Sb79  1  0.50496701  -0.00648075  0.49714864  1
  Sb  Sb80  1  0.49562636  0.49978814  0.00250520  1
  Sb  Sb81  1  0.82810113  0.66926055  0.50113047  1
  Sb  Sb82  1  0.66609602  0.16544363  0.49646908  1
  Sb  Sb83  1  0.83004870  0.83605918  0.00139896  1
  Sb  Sb84  1  0.66406816  0.50284037  0.83293455  1
  Sb  Sb85  1  0.33429052  -0.00035299  0.00547228  1
  Sb  Sb86  1  0.50395502  0.16557990  0.66583717  1
  Sb  Sb87  1  0.33643456  -0.00504939  0.66134426  1
  Sb  Sb88  1  -0.00437137  0.83351464  0.83587123  1
  Sb  Sb89  1  0.17000635  0.83817346  0.32910121  1
  Sb  Sb90  1  0.66525400  0.66780339  0.33751090  1
  Sb  Sb91  1  0.66333929  0.67117932  -0.00337981  1
  Sb  Sb92  1  0.16435623  0.16764481  0.66769616  1
  Sb  Sb93  1  0.82509350  0.50025370  0.66581843  1
  Sb  Sb94  1  -0.00591132  0.50035742  0.49138831  1
  Sb  Sb95  1  0.16982284  0.66825818  0.84060149  1
  Sb  Sb96  1  0.66442540  0.17051598  0.16869238  1
  Sb  Sb97  1  0.16550124  -0.00287134  0.49890309  1
  Sb  Sb98  1  -0.00049148  0.16643341  0.84233218  1
  Sb  Sb99  1  0.82948888  0.33434529  0.16737259  1
  Sb  Sb100  1  0.16727395  0.00079583  0.16280482  1
  Sb  Sb101  1  -0.00115224  0.16655792  0.48901261  1
  Sb  Sb102  1  0.34131755  0.50392111  0.49326507  1
  Sb  Sb103  1  0.17251434  0.33387446  0.16241276  1
  Sb  Sb104  1  0.33910747  0.32579447  0.32726785  1
  Sb  Sb105  1  0.49881757  0.00472606  0.16482985  1
  Sb  Sb106  1  0.33483286  0.67249570  0.32987844  1
  Sb  Sb107  1  0.66188693  0.32898835  0.00046708  1
  Te  Te108  1  0.16855975  0.16817791  0.16646121  1
  Te  Te109  1  0.17249965  0.16652477  0.49905043  1
  Te  Te110  1  0.16665243  0.16767352  0.83545265  1
  Te  Te111  1  0.16914506  0.50129919  0.16360876  1
  Te  Te112  1  0.16693474  0.50574234  0.50002688  1
  Te  Te113  1  0.16730990  0.49467524  0.84096263  1
  Te  Te114  1  0.17213901  0.82819093  0.16211414  1
  Te  Te115  1  0.16961286  0.82795339  0.50103428  1
  Te  Te116  1  0.16598187  0.83739996  0.83882121  1
  Te  Te117  1  0.49838518  0.17110288  0.16634946  1
  Te  Te118  1  0.49517889  0.16444083  0.49655646  1
  Te  Te119  1  0.49990512  0.17222748  0.83666957  1
  Te  Te120  1  0.49848541  0.49684756  0.16875495  1
  Te  Te121  1  0.50441493  0.50306492  0.49783473  1
  Te  Te122  1  0.49999254  0.49738285  0.83014730  1
  Te  Te123  1  0.49476852  0.83160028  0.16738274  1
  Te  Te124  1  0.50043766  0.83339736  0.49731600  1
  Te  Te125  1  0.50223758  0.83215079  0.83641488  1
  Te  Te126  1  0.83499516  0.16673636  0.16653412  1
  Te  Te127  1  0.83278492  0.16646609  0.49615206  1
  Te  Te128  1  0.83272080  0.16948575  0.83667998  1
  Te  Te129  1  0.83793459  0.50564834  0.16671615  1
  Te  Te130  1  0.82573823  0.49701765  0.49903710  1
  Te  Te131  1  0.83341989  0.49985681  0.83359081  1
  Te  Te132  1  0.83273423  0.82563137  0.17110956  1
  Te  Te133  1  0.83035610  0.83394695  0.49867296  1
  Te  Te134  1  0.82740469  0.83133921  0.83220987  1
  Te  Te135  1  0.16686990  0.00243012  -0.00189756  1
  Te  Te136  1  0.16233543  0.00611953  0.33488467  1
  Te  Te137  1  0.16528746  -0.00017749  0.67502747  1
  Te  Te138  1  0.16976524  0.32758672  -0.00254267  1
  Te  Te139  1  0.16245856  0.32684486  0.33514628  1
  Te  Te140  1  0.16706132  0.33441363  0.67462306  1
  Te  Te141  1  0.16893489  0.66831384  0.00052790  1
  Te  Te142  1  0.16594180  0.66628586  0.33218325  1
  Te  Te143  1  0.16745715  0.66654426  0.66681032  1
  Te  Te144  1  0.50044390  0.00098807  -0.00174574  1
  Te  Te145  1  0.50247110  0.00068407  0.33292849  1
  Te  Te146  1  0.50036289  -0.00305650  0.67651271  1
  Te  Te147  1  0.49699429  0.33191270  0.00004552  1
  Te  Te148  1  0.50449668  0.33110714  0.33194206  1
  Te  Te149  1  0.50629556  0.33138309  0.67056679  1
  Te  Te150  1  0.49569365  0.66913915  -0.00224147  1
  Te  Te151  1  0.49959529  0.66826642  0.33607949  1
  Te  Te152  1  0.50228477  0.66935208  0.66645198  1
  Te  Te153  1  0.83365050  0.00425749  -0.00018413  1
  Te  Te154  1  0.83033197  0.00073286  0.33379531  1
  Te  Te155  1  0.83352161  0.00060617  0.66265471  1
  Te  Te156  1  0.83297914  0.32705738  -0.00410460  1
  Te  Te157  1  0.82917263  0.33110326  0.33380523  1
  Te  Te158  1  0.82764841  0.33230711  0.66706676  1
  Te  Te159  1  0.83393918  0.66755174  -0.00158684  1
  Te  Te160  1  0.83419059  0.67046917  0.33065374  1
  Te  Te161  1  0.82984954  0.67039799  0.67075261  1
  Te  Te162  1  0.00183977  0.16396730  0.00657499  1
  Te  Te163  1  -0.00337671  0.16597943  0.32950004  1
  Te  Te164  1  -0.00843928  0.16680003  0.66590370  1
  Te  Te165  1  0.00470305  0.50252409  0.00699760  1
  Te  Te166  1  0.00153782  0.49812860  0.32572195  1
  Te  Te167  1  0.00285876  0.49981653  0.66480547  1
  Te  Te168  1  0.00217964  0.83562093  0.00037808  1
  Te  Te169  1  -0.00210965  0.84023634  0.33208058  1
  Te  Te170  1  -0.00750956  0.83340862  0.66642906  1
  Te  Te171  1  0.33489489  0.16701037  0.00415530  1
  Te  Te172  1  0.33547269  0.16533026  0.33018370  1
  Te  Te173  1  0.33296782  0.16708493  0.66096769  1
  Te  Te174  1  0.32948413  0.49986452  0.00613800  1
  Te  Te175  1  0.33988504  0.49698048  0.32543691  1
  Te  Te176  1  0.34180136  0.50579093  0.66402266  1
  Te  Te177  1  0.33527965  0.83340550  0.00306022  1
  Te  Te178  1  0.33463241  0.83879768  0.33245630  1
  Te  Te179  1  0.33858448  0.82777001  0.66096423  1
  Te  Te180  1  0.66472625  0.16070554  0.00175504  1
  Te  Te181  1  0.66582980  0.16512814  0.33337136  1
  Te  Te182  1  0.67249813  0.17113640  0.66559495  1
  Te  Te183  1  0.66703917  0.49961874  0.00819635  1
  Te  Te184  1  0.66202072  0.49944798  0.33363251  1
  Te  Te185  1  0.66163300  0.50007693  0.66573446  1
  Te  Te186  1  0.66169909  0.83865695  -0.00018396  1
  Te  Te187  1  0.66412898  0.83522927  0.33480734  1
  Te  Te188  1  0.66528194  0.83382388  0.66595930  1
  Te  Te189  1  0.00095852  0.00422245  0.16544483  1
  Te  Te190  1  -0.00487351  -0.00002454  0.49595852  1
  Te  Te191  1  0.00340694  0.00023238  0.83983099  1
  Te  Te192  1  -0.00117054  0.33297374  0.17129633  1
  Te  Te193  1  -0.00682361  0.33474387  0.49347008  1
  Te  Te194  1  -0.00423419  0.33385194  0.83302526  1
  Te  Te195  1  0.00191785  0.66556785  0.16135069  1
  Te  Te196  1  0.00618338  0.66516660  0.50074529  1
  Te  Te197  1  -0.00435157  0.66566788  0.84132966  1
  Te  Te198  1  0.33222934  -0.00015544  0.17508900  1
  Te  Te199  1  0.33173648  -0.00127286  0.49457484  1
  Te  Te200  1  0.33500132  -0.00031230  0.83036698  1
  Te  Te201  1  0.33759747  0.33119565  0.16218880  1
  Te  Te202  1  0.33217279  0.33014852  0.50213615  1
  Te  Te203  1  0.33520901  0.33409715  0.83853311  1
  Te  Te204  1  0.33104859  0.66731693  0.16348236  1
  Te  Te205  1  0.33584380  0.66877810  0.49808584  1
  Te  Te206  1  0.33762583  0.66650795  0.83430842  1
  Te  Te207  1  0.66667452  -0.00163080  0.16660533  1
  Te  Te208  1  0.67119291  -0.00518440  0.49577884  1
  Te  Te209  1  0.66271414  -0.00511816  0.83662605  1
  Te  Te210  1  0.66185802  0.33948545  0.17025258  1
  Te  Te211  1  0.66913594  0.33397562  0.49856068  1
  Te  Te212  1  0.66711435  0.33379644  0.83144659  1
  Te  Te213  1  0.67068633  0.66025804  0.16560049  1
  Te  Te214  1  0.66383447  0.66699177  0.50446791  1
  Te  Te215  1  0.66536604  0.66917732  0.83037770  1
