# generated using pymatgen
data_AgSbTe2
_symmetry_space_group_name_H-M   'P 1'
_cell_length_a   18.34046892
_cell_length_b   18.33353167
_cell_length_c   18.34591358
_cell_angle_alpha   90.00014077
_cell_angle_beta   90.00033665
_cell_angle_gamma   90.00029669
_symmetry_Int_Tables_number   1
_chemical_formula_structural   AgSbTe2
_chemical_formula_sum   'Ag54 Sb54 Te108'
_cell_volume   6168.73212781
_cell_formula_units_Z   54
loop_
 _symmetry_equiv_pos_site_id
 _symmetry_equiv_pos_as_xyz
  1  'x, y, z'
loop_
 _atom_site_type_symbol
 _atom_site_label
 _atom_site_symmetry_multiplicity
 _atom_site_fract_x
 _atom_site_fract_y
 _atom_site_fract_z
 _atom_site_occupancy
  Ag  Ag0  1  0.82867029  0.49848811  0.67320207  1
  Ag  Ag1  1  0.33914066  0.50755281  0.83891901  1
  Ag  Ag2  1  0.66392967  0.33321353  0.66802759  1
  Ag  Ag3  1  0.49315687  0.82602987  0.67412476  1
  Ag  Ag4  1  0.33648148  0.50500356  0.15131771  1
  Ag  Ag5  1  0.33303300  0.00104641  0.67215861  1
  Ag  Ag6  1  0.33789779  0.16590112  0.84483355  1
  Ag  Ag7  1  0.18093401  0.16652136  0.32961081  1
  Ag  Ag8  1  0.49649443  0.16445847  0.33603747  1
  Ag  Ag9  1  0.49787207  0.66774362  0.16231282  1
  Ag  Ag10  1  0.33544369  0.16906756  0.49874265  1
  Ag  Ag11  1  0.66297965  0.66436863  0.33318357  1
  Ag  Ag12  1  0.33723295  0.49933443  0.50470138  1
  Ag  Ag13  1  0.17129111  0.66850140  0.83177741  1
  Ag  Ag14  1  0.33522515  0.66628361  -0.00307461  1
  Ag  Ag15  1  0.17909514  0.16903019  0.00057908  1
  Ag  Ag16  1  0.33351483  -0.00137590  -0.00504792  1
  Ag  Ag17  1  0.48972845  0.16949446  -0.00492338  1
  Ag  Ag18  1  0.01200141  0.82158917  0.83085221  1
  Ag  Ag19  1  0.65196295  0.17205886  0.50000453  1
  Ag  Ag20  1  0.65950528  0.49784463  0.83012262  1
  Ag  Ag21  1  0.65204378  0.17019887  0.16742296  1
  Ag  Ag22  1  0.00321529  0.66595326  0.67155470  1
  Ag  Ag23  1  0.00841317  0.33242448  -0.01010300  1
  Ag  Ag24  1  0.32988164  0.82704429  0.84156122  1
  Ag  Ag25  1  0.33548003  0.16570516  0.15576619  1
  Ag  Ag26  1  0.49052436  0.50417058  -0.00990655  1
  Ag  Ag27  1  0.82965300  0.66719336  0.16401888  1
  Ag  Ag28  1  0.33685278  0.83006650  0.15178388  1
  Ag  Ag29  1  0.33279189  0.33468455  -0.00180657  1
  Ag  Ag30  1  -0.00273820  0.50555683  0.83102572  1
  Ag  Ag31  1  0.00452630  0.00059159  0.67049653  1
  Ag  Ag32  1  0.49872171  0.50202373  0.67271770  1
  Ag  Ag33  1  0.82567736  0.82815923  0.33081650  1
  Ag  Ag34  1  0.66288698  0.33119975  0.34129172  1
  Ag  Ag35  1  0.18049373  0.82617906  -0.00859855  1
  Ag  Ag36  1  0.65635867  0.17436047  0.83119811  1
  Ag  Ag37  1  0.49717931  0.82922310  0.33255410  1
  Ag  Ag38  1  0.17513237  0.66566038  0.50831033  1
  Ag  Ag39  1  0.49436745  0.66221223  0.50498686  1
  Ag  Ag40  1  0.00616175  0.16905392  0.50105238  1
  Ag  Ag41  1  0.50001291  0.32919991  0.50249674  1
  Ag  Ag42  1  0.83439766  0.33968712  0.83098696  1
  Ag  Ag43  1  0.00834491  0.16841023  0.16780803  1
  Ag  Ag44  1  -0.00244824  0.66830208  0.33821804  1
  Ag  Ag45  1  0.49311962  0.66194730  0.83477524  1
  Ag  Ag46  1  0.48993182  0.82258658  -0.00536430  1
  Ag  Ag47  1  0.33499509  0.00609715  0.32841653  1
  Ag  Ag48  1  0.83657023  0.66207826  0.83485552  1
  Ag  Ag49  1  0.83554389  0.00232269  0.83199491  1
  Ag  Ag50  1  0.17490766  0.82964014  0.67465846  1
  Ag  Ag51  1  0.18063712  0.50255983  -0.00404782  1
  Ag  Ag52  1  -0.00506449  0.33416499  0.67293458  1
  Ag  Ag53  1  0.49714446  0.17088334  0.66719682  1
  Sb  Sb54  1  0.83248403  0.66561846  0.50193282  1
  Sb  Sb55  1  0.49526108  -0.00148298  0.16590367  1
  Sb  Sb56  1  0.00546186  0.49826377  0.50839017  1
  Sb  Sb57  1  0.00755124  0.00474589  -0.00668014  1
  Sb  Sb58  1  0.16512975  0.33965233  0.83513690  1
  Sb  Sb59  1  0.83197612  0.50092554  -0.00885548  1
  Sb  Sb60  1  0.83159715  0.33686203  0.16063862  1
  Sb  Sb61  1  0.33270055  0.67109488  0.67473527  1
  Sb  Sb62  1  0.00498343  0.16891189  0.83229309  1
  Sb  Sb63  1  0.65803090  0.83440856  0.16771963  1
  Sb  Sb64  1  0.17171258  0.50545825  0.67462706  1
  Sb  Sb65  1  0.66183339  0.83031754  0.83256406  1
  Sb  Sb66  1  0.83349690  -0.00309391  0.16263467  1
  Sb  Sb67  1  -0.00536288  0.33413688  0.33513787  1
  Sb  Sb68  1  0.17325987  0.33525946  0.50249252  1
  Sb  Sb69  1  0.65989423  0.00181172  0.33327294  1
  Sb  Sb70  1  0.66030589  0.49871725  0.16224977  1
  Sb  Sb71  1  0.66296649  0.00762583  0.66933514  1
  Sb  Sb72  1  0.65854535  0.00374313  -0.00238481  1
  Sb  Sb73  1  0.17223786  0.16296798  0.66995572  1
  Sb  Sb74  1  0.66489882  0.66091420  0.66571546  1
  Sb  Sb75  1  0.16992262  -0.00199287  0.50238531  1
  Sb  Sb76  1  0.65708210  0.66567443  0.00072570  1
  Sb  Sb77  1  0.83380997  0.82953143  -0.00035144  1
  Sb  Sb78  1  0.83139610  0.50533102  0.33722799  1
  Sb  Sb79  1  0.33676953  0.66978884  0.33065626  1
  Sb  Sb80  1  0.83052182  0.17161625  0.66984712  1
  Sb  Sb81  1  0.49711536  0.00460184  0.50120249  1
  Sb  Sb82  1  0.17130420  0.66726828  0.16332928  1
  Sb  Sb83  1  0.50200070  0.33712078  0.82883507  1
  Sb  Sb84  1  0.17275602  0.83477155  0.33282313  1
  Sb  Sb85  1  0.00421748  0.49886313  0.15870238  1
  Sb  Sb86  1  0.17031878  0.00225449  0.16454386  1
  Sb  Sb87  1  0.82845995  0.16280328  0.33239754  1
  Sb  Sb88  1  0.49896975  0.33310596  0.16815069  1
  Sb  Sb89  1  0.82788685  0.33238176  0.50664576  1
  Sb  Sb90  1  0.00160434  0.83377545  0.50683647  1
  Sb  Sb91  1  0.00516937  0.83356273  0.16168063  1
  Sb  Sb92  1  0.66265529  0.83496301  0.49953814  1
  Sb  Sb93  1  0.33539261  0.83210944  0.50438882  1
  Sb  Sb94  1  0.83498132  0.00136897  0.50596116  1
  Sb  Sb95  1  0.16905759  0.33034965  0.16318122  1
  Sb  Sb96  1  0.00673428  0.66223938  -0.00665576  1
  Sb  Sb97  1  0.33606305  0.33027934  0.67197944  1
  Sb  Sb98  1  0.49858721  0.50067580  0.33399569  1
  Sb  Sb99  1  0.65902959  0.49614426  0.50563903  1
  Sb  Sb100  1  0.83373332  0.82861608  0.66754554  1
  Sb  Sb101  1  0.16906759  0.49775875  0.32923345  1
  Sb  Sb102  1  0.49738965  -0.00024849  0.83316035  1
  Sb  Sb103  1  0.83357172  0.16661284  -0.00234794  1
  Sb  Sb104  1  0.66215320  0.33246851  -0.00571841  1
  Sb  Sb105  1  0.00359423  -0.00188946  0.33720919  1
  Sb  Sb106  1  0.16824338  -0.00710363  0.83310683  1
  Sb  Sb107  1  0.33927288  0.32613051  0.33062027  1
  Te  Te108  1  0.16945530  0.16672306  0.16676333  1
  Te  Te109  1  0.16840229  0.16736387  0.49937362  1
  Te  Te110  1  0.17344002  0.16737779  0.83783714  1
  Te  Te111  1  0.17345099  0.50004770  0.15964760  1
  Te  Te112  1  0.17296609  0.50487239  0.49812340  1
  Te  Te113  1  0.16939997  0.50566252  0.83757983  1
  Te  Te114  1  0.17432674  0.83329189  0.16163634  1
  Te  Te115  1  0.16638353  0.82533481  0.50268008  1
  Te  Te116  1  0.16891021  0.83060769  0.83235920  1
  Te  Te117  1  0.49584877  0.16696876  0.17004874  1
  Te  Te118  1  0.49677288  0.16604134  0.49970529  1
  Te  Te119  1  0.49841735  0.16654909  0.83123359  1
  Te  Te120  1  0.49610666  0.50416983  0.16469684  1
  Te  Te121  1  0.49694538  0.50212648  0.50086599  1
  Te  Te122  1  0.49893408  0.50006366  0.83210237  1
  Te  Te123  1  0.49561940  0.83002252  0.16830110  1
  Te  Te124  1  0.50112993  0.82703062  0.49755721  1
  Te  Te125  1  0.49739607  0.83177864  0.83344598  1
  Te  Te126  1  0.83627834  0.16636192  0.16568127  1
  Te  Te127  1  0.84279038  0.16668658  0.49986784  1
  Te  Te128  1  0.83233041  0.16775053  0.83359780  1
  Te  Te129  1  0.83319143  0.50629843  0.16716973  1
  Te  Te130  1  0.83402209  0.49911421  0.51013303  1
  Te  Te131  1  0.83641641  0.50139157  0.83063655  1
  Te  Te132  1  0.83384438  0.82860970  0.16928889  1
  Te  Te133  1  0.83275458  0.83392991  0.49220093  1
  Te  Te134  1  0.83047606  0.82631391  0.83330597  1
  Te  Te135  1  0.17327264  0.00420383  -0.00109442  1
  Te  Te136  1  0.17216803  0.00664359  0.33522867  1
  Te  Te137  1  0.16585174  -0.00655699  0.66697169  1
  Te  Te138  1  0.16794269  0.33153647  -0.00023076  1
  Te  Te139  1  0.16294470  0.32499120  0.33451258  1
  Te  Te140  1  0.15685775  0.33314007  0.66707990  1
  Te  Te141  1  0.17153750  0.66662452  -0.00255118  1
  Te  Te142  1  0.16272858  0.66664338  0.33480158  1
  Te  Te143  1  0.16470193  0.66993146  0.66825898  1
  Te  Te144  1  0.49285881  0.00738008  -0.00021836  1
  Te  Te145  1  0.49503318  -0.00091278  0.33446390  1
  Te  Te146  1  0.49565491  0.00087971  0.66669311  1
  Te  Te147  1  0.49602074  0.33045230  0.00134570  1
  Te  Te148  1  0.50500979  0.32957702  0.33827272  1
  Te  Te149  1  0.50074651  0.33168606  0.66280359  1
  Te  Te150  1  0.49708612  0.66466132  -0.00219577  1
  Te  Te151  1  0.50059186  0.66751181  0.33199872  1
  Te  Te152  1  0.50003116  0.66582592  0.66776496  1
  Te  Te153  1  0.83405998  -0.00262417  -0.00672545  1
  Te  Te154  1  0.83362507  -0.00955479  0.33262950  1
  Te  Te155  1  0.83642855  -0.00221615  0.67201796  1
  Te  Te156  1  0.83693380  0.33411386  -0.00673906  1
  Te  Te157  1  0.82543188  0.33399281  0.33294368  1
  Te  Te158  1  0.83360505  0.33755470  0.67136405  1
  Te  Te159  1  0.83329821  0.66654797  0.00052390  1
  Te  Te160  1  0.83288062  0.66896472  0.33430151  1
  Te  Te161  1  0.83546949  0.66192922  0.66987006  1
  Te  Te162  1  0.00152118  0.17119206  0.00311545  1
  Te  Te163  1  -0.00247620  0.16607128  0.33345310  1
  Te  Te164  1  0.00191061  0.16615638  0.66558385  1
  Te  Te165  1  0.00133201  0.49378063  -0.00465139  1
  Te  Te166  1  0.00013754  0.50579605  0.33274861  1
  Te  Te167  1  0.00378384  0.50180853  0.67086759  1
  Te  Te168  1  0.00397017  0.83473515  -0.00629145  1
  Te  Te169  1  0.00321920  0.82983017  0.33231134  1
  Te  Te170  1  -0.00217613  0.83121511  0.67147376  1
  Te  Te171  1  0.33423553  0.16709202  0.00032975  1
  Te  Te172  1  0.33679048  0.16625722  0.33803553  1
  Te  Te173  1  0.33594512  0.16500147  0.66133917  1
  Te  Te174  1  0.33540325  0.49957812  -0.00297848  1
  Te  Te175  1  0.33099803  0.49749940  0.33861327  1
  Te  Te176  1  0.33813532  0.49777700  0.66602659  1
  Te  Te177  1  0.33524190  0.83352664  -0.00284788  1
  Te  Te178  1  0.33675201  0.83941639  0.33481297  1
  Te  Te179  1  0.33454758  0.83750199  0.66833079  1
  Te  Te180  1  0.66204108  0.16781441  -0.00102546  1
  Te  Te181  1  0.66309631  0.16753290  0.33440450  1
  Te  Te182  1  0.66331721  0.17164381  0.66843194  1
  Te  Te183  1  0.66007658  0.49853554  -0.00656043  1
  Te  Te184  1  0.66698965  0.50047003  0.33225605  1
  Te  Te185  1  0.66262531  0.49543661  0.67046860  1
  Te  Te186  1  0.65655249  0.83518408  0.00118372  1
  Te  Te187  1  0.66260206  0.83046661  0.33258130  1
  Te  Te188  1  0.65794142  0.83501956  0.66564905  1
  Te  Te189  1  -0.00053248  0.00656484  0.16705735  1
  Te  Te190  1  0.00143319  0.00494874  0.50653083  1
  Te  Te191  1  -0.00436276  0.00108410  0.82935914  1
  Te  Te192  1  -0.00235349  0.32936290  0.16576578  1
  Te  Te193  1  0.00008838  0.33009595  0.50342742  1
  Te  Te194  1  -0.00221394  0.33407716  0.83219902  1
  Te  Te195  1  -0.00369368  0.66732121  0.16909080  1
  Te  Te196  1  0.00104015  0.66595865  0.50272067  1
  Te  Te197  1  0.00050776  0.66533791  0.83307355  1
  Te  Te198  1  0.33325422  0.00365997  0.16779326  1
  Te  Te199  1  0.33248072  0.00486911  0.50393105  1
  Te  Te200  1  0.33353130  0.00235195  0.83265155  1
  Te  Te201  1  0.33435677  0.33199194  0.16175349  1
  Te  Te202  1  0.33863554  0.33416804  0.50056020  1
  Te  Te203  1  0.33220402  0.33155741  0.83738846  1
  Te  Te204  1  0.33684399  0.66697285  0.16388133  1
  Te  Te205  1  0.33514800  0.66525883  0.49805384  1
  Te  Te206  1  0.33368299  0.66734542  0.83494716  1
  Te  Te207  1  0.66814213  0.01122865  0.16587402  1
  Te  Te208  1  0.66915901  0.01167550  0.50038583  1
  Te  Te209  1  0.67490781  0.00463429  0.83362650  1
  Te  Te210  1  0.66746092  0.32921542  0.16881175  1
  Te  Te211  1  0.66252371  0.33012803  0.50266616  1
  Te  Te212  1  0.67033420  0.33381419  0.83032519  1
  Te  Te213  1  0.66477881  0.66660682  0.17094462  1
  Te  Te214  1  0.66194584  0.66640581  0.49464288  1
  Te  Te215  1  0.66829891  0.66211975  0.83311988  1
