# generated using pymatgen
data_AgSbTe2
_symmetry_space_group_name_H-M   'P 1'
_cell_length_a   18.32033384
_cell_length_b   18.32317791
_cell_length_c   18.32346819
_cell_angle_alpha   89.99887694
_cell_angle_beta   90.00023946
_cell_angle_gamma   90.00236644
_symmetry_Int_Tables_number   1
_chemical_formula_structural   AgSbTe2
_chemical_formula_sum   'Ag54 Sb54 Te108'
_cell_volume   6150.94522783
_cell_formula_units_Z   54
loop_
 _symmetry_equiv_pos_site_id
 _symmetry_equiv_pos_as_xyz
  1  'x, y, z'
loop_
 _atom_site_type_symbol
 _atom_site_label
 _atom_site_symmetry_multiplicity
 _atom_site_fract_x
 _atom_site_fract_y
 _atom_site_fract_z
 _atom_site_occupancy
  Ag  Ag0  1  -0.00640247  0.00406096  0.00262304  1
  Ag  Ag1  1  0.00116912  0.49391127  0.16578054  1
  Ag  Ag2  1  0.83261806  0.00057293  0.15878263  1
  Ag  Ag3  1  0.49934211  0.66950137  0.49532293  1
  Ag  Ag4  1  0.83441981  0.66873361  0.49874703  1
  Ag  Ag5  1  0.82426061  0.84286070  0.66528041  1
  Ag  Ag6  1  0.16033601  0.49980742  0.00510343  1
  Ag  Ag7  1  0.66693132  0.50395503  0.16662894  1
  Ag  Ag8  1  0.17312250  0.84082723  0.66076774  1
  Ag  Ag9  1  0.51038525  0.00455905  0.82679666  1
  Ag  Ag10  1  0.16344280  0.84032740  0.33540561  1
  Ag  Ag11  1  0.49795423  0.33404718  0.16790035  1
  Ag  Ag12  1  0.66556165  -0.00366970  0.33137248  1
  Ag  Ag13  1  0.66004734  0.00153556  0.67653118  1
  Ag  Ag14  1  0.83036334  0.83474857  0.33570362  1
  Ag  Ag15  1  0.66398445  0.67612176  0.33125639  1
  Ag  Ag16  1  0.00322430  0.33177043  0.33201329  1
  Ag  Ag17  1  0.00968817  0.16964370  0.49440088  1
  Ag  Ag18  1  0.50556776  0.16271641  0.00124033  1
  Ag  Ag19  1  0.66767556  0.15655067  0.83235962  1
  Ag  Ag20  1  -0.00027418  0.49782905  0.84047262  1
  Ag  Ag21  1  0.33716796  0.83857879  0.83090425  1
  Ag  Ag22  1  0.16665011  0.66862288  0.83114690  1
  Ag  Ag23  1  0.66120522  0.32289998  0.67070428  1
  Ag  Ag24  1  0.33778112  0.32203896  0.66705200  1
  Ag  Ag25  1  0.16700688  0.66939119  0.49731041  1
  Ag  Ag26  1  0.00338260  0.16841822  0.17077747  1
  Ag  Ag27  1  0.49828842  0.16635075  0.33103536  1
  Ag  Ag28  1  0.00306791  0.49547731  0.49729017  1
  Ag  Ag29  1  0.16519449  0.32971934  0.17304595  1
  Ag  Ag30  1  0.50086538  0.49936467  0.66271207  1
  Ag  Ag31  1  0.66679527  0.00134846  -0.00930367  1
  Ag  Ag32  1  0.82948797  0.16255005  -0.00681232  1
  Ag  Ag33  1  0.34112839  0.00145730  0.66927033  1
  Ag  Ag34  1  0.16868933  0.67020929  0.17069580  1
  Ag  Ag35  1  0.83307601  0.16089829  0.67182231  1
  Ag  Ag36  1  0.16323805  0.00004526  0.17099035  1
  Ag  Ag37  1  0.49648734  0.00015035  0.50952914  1
  Ag  Ag38  1  0.32481091  0.16430353  0.50336525  1
  Ag  Ag39  1  0.82555907  0.32113404  0.83183770  1
  Ag  Ag40  1  0.82286107  0.00435586  0.83812436  1
  Ag  Ag41  1  0.50308829  0.66415894  0.17372912  1
  Ag  Ag42  1  0.16476123  0.32004525  0.49527076  1
  Ag  Ag43  1  0.50068197  0.84350021  0.66761114  1
  Ag  Ag44  1  0.50616068  0.32353515  0.82831103  1
  Ag  Ag45  1  0.50469686  0.49761592  0.33436275  1
  Ag  Ag46  1  0.33518534  -0.00019330  -0.00477698  1
  Ag  Ag47  1  0.16710329  0.16143543  0.34384170  1
  Ag  Ag48  1  0.16652529  0.16015320  0.65697345  1
  Ag  Ag49  1  0.33578757  0.83669443  0.16423715  1
  Ag  Ag50  1  0.83909582  0.49446397  0.00040934  1
  Ag  Ag51  1  0.66295006  0.83697656  0.16877096  1
  Ag  Ag52  1  0.17105568  0.00868360  0.49777688  1
  Ag  Ag53  1  0.66361331  0.84315678  0.83072970  1
  Sb  Sb54  1  0.32974287  0.33115548  0.33573551  1
  Sb  Sb55  1  0.83093887  0.83946908  0.00024476  1
  Sb  Sb56  1  0.50111196  0.49426842  0.00226407  1
  Sb  Sb57  1  0.50028910  0.84100062  -0.00368612  1
  Sb  Sb58  1  0.33340551  0.67294779  0.66570545  1
  Sb  Sb59  1  -0.00662354  0.16980289  0.83453460  1
  Sb  Sb60  1  0.16459621  0.16650773  0.00109991  1
  Sb  Sb61  1  0.50079596  0.00014847  0.16579534  1
  Sb  Sb62  1  0.33283656  0.67203870  0.00125438  1
  Sb  Sb63  1  0.49481007  0.32959736  0.50182530  1
  Sb  Sb64  1  0.66691656  0.32720671  -0.00378520  1
  Sb  Sb65  1  0.33046283  0.50270763  0.83202833  1
  Sb  Sb66  1  -0.00074911  0.00202623  0.66938254  1
  Sb  Sb67  1  0.66614628  0.67180843  0.00570612  1
  Sb  Sb68  1  0.83457756  0.16115685  0.33376664  1
  Sb  Sb69  1  0.66751456  0.33087440  0.33542023  1
  Sb  Sb70  1  0.33267819  0.50278374  0.16585388  1
  Sb  Sb71  1  0.00268563  0.83659868  0.49955221  1
  Sb  Sb72  1  0.00118992  0.66615226  0.00205974  1
  Sb  Sb73  1  0.83076243  0.50436948  0.32980819  1
  Sb  Sb74  1  0.16770243  -0.00312990  0.83185870  1
  Sb  Sb75  1  0.16632748  0.33517552  0.83129952  1
  Sb  Sb76  1  -0.00031236  0.83247775  0.83208797  1
  Sb  Sb77  1  0.82982580  0.49824649  0.66941466  1
  Sb  Sb78  1  0.32991715  0.16149633  0.16975473  1
  Sb  Sb79  1  0.83329384  0.67064356  0.17012847  1
  Sb  Sb80  1  0.50084955  0.16408879  0.66649603  1
  Sb  Sb81  1  0.83411116  -0.00238277  0.50191084  1
  Sb  Sb82  1  0.33465880  -0.00015803  0.33568974  1
  Sb  Sb83  1  0.49680491  0.67087775  0.83194186  1
  Sb  Sb84  1  0.66594198  0.83501877  0.49979757  1
  Sb  Sb85  1  0.16777680  0.49914767  0.33044893  1
  Sb  Sb86  1  0.50122631  0.83548767  0.33573143  1
  Sb  Sb87  1  0.00095723  0.66613999  0.66452361  1
  Sb  Sb88  1  0.83346591  0.32975115  0.16232229  1
  Sb  Sb89  1  0.00039418  0.00485914  0.32990442  1
  Sb  Sb90  1  -0.00101992  0.66212002  0.33411755  1
  Sb  Sb91  1  0.66802669  0.16281892  0.16285107  1
  Sb  Sb92  1  0.00165815  0.33141355  0.66337459  1
  Sb  Sb93  1  0.66638549  0.16418179  0.50546793  1
  Sb  Sb94  1  0.33177273  0.83975087  0.50110741  1
  Sb  Sb95  1  0.33738244  0.66867453  0.33316094  1
  Sb  Sb96  1  0.32999994  0.49590873  0.50140286  1
  Sb  Sb97  1  0.33437719  0.32676466  -0.00365874  1
  Sb  Sb98  1  0.00051355  0.83636943  0.16813741  1
  Sb  Sb99  1  -0.00025270  0.33108529  0.00425052  1
  Sb  Sb100  1  0.16964387  0.49959472  0.66661183  1
  Sb  Sb101  1  0.83926214  0.33513907  0.50493895  1
  Sb  Sb102  1  0.83634407  0.67057719  0.82920428  1
  Sb  Sb103  1  0.66468780  0.67194729  0.66201934  1
  Sb  Sb104  1  0.16805937  0.83252295  0.00185344  1
  Sb  Sb105  1  0.66744354  0.50111809  0.49752446  1
  Sb  Sb106  1  0.67003700  0.49957012  0.83774266  1
  Sb  Sb107  1  0.33962977  0.16009762  0.82776252  1
  Te  Te108  1  0.16406180  0.16680583  0.16623723  1
  Te  Te109  1  0.16604969  0.16474762  0.50004028  1
  Te  Te110  1  0.16539645  0.16823916  0.82862083  1
  Te  Te111  1  0.16555261  0.49879287  0.16631293  1
  Te  Te112  1  0.16326499  0.50836589  0.49886178  1
  Te  Te113  1  0.16239361  0.50367814  0.83542272  1
  Te  Te114  1  0.16635510  0.83461736  0.16849646  1
  Te  Te115  1  0.16780811  0.82927918  0.49936855  1
  Te  Te116  1  0.16765067  0.82902384  0.83018019  1
  Te  Te117  1  0.49900290  0.16966846  0.16832859  1
  Te  Te118  1  0.49933043  0.16307076  0.49411235  1
  Te  Te119  1  0.50420067  0.16511039  0.83444895  1
  Te  Te120  1  0.50033081  0.49998261  0.16713778  1
  Te  Te121  1  0.49942940  0.50091819  0.49944445  1
  Te  Te122  1  0.49991497  0.49994747  0.83188425  1
  Te  Te123  1  0.50055806  0.83067628  0.16736082  1
  Te  Te124  1  0.49770980  0.83338129  0.50421685  1
  Te  Te125  1  0.50031522  0.83521624  0.82922542  1
  Te  Te126  1  0.83758447  0.16171027  0.16577663  1
  Te  Te127  1  0.83739697  0.16658540  0.50431332  1
  Te  Te128  1  0.83164016  0.16496445  0.83250272  1
  Te  Te129  1  0.83404057  0.49954931  0.16291889  1
  Te  Te130  1  0.83857961  0.50534790  0.49985557  1
  Te  Te131  1  0.83832380  0.50230661  0.83743857  1
  Te  Te132  1  0.83000293  0.83780720  0.16982674  1
  Te  Te133  1  0.83570944  0.82978058  0.50116221  1
  Te  Te134  1  0.83048501  0.83707690  0.82843149  1
  Te  Te135  1  0.17003388  0.00053083  0.00343517  1
  Te  Te136  1  0.16675401  0.00173199  0.33267638  1
  Te  Te137  1  0.16551192  -0.00037131  0.66538878  1
  Te  Te138  1  0.16792392  0.33765555  0.00459364  1
  Te  Te139  1  0.16484596  0.33217823  0.33288947  1
  Te  Te140  1  0.17133539  0.33140424  0.66292693  1
  Te  Te141  1  0.16701673  0.66213582  0.00351024  1
  Te  Te142  1  0.16680100  0.66767370  0.33186218  1
  Te  Te143  1  0.16781960  0.66938171  0.66520923  1
  Te  Te144  1  0.50164903  0.00394853  -0.00181765  1
  Te  Te145  1  0.50189865  0.00330120  0.33520569  1
  Te  Te146  1  0.50088885  0.00107997  0.66671151  1
  Te  Te147  1  0.49969364  0.32611826  0.00075243  1
  Te  Te148  1  0.50050057  0.33136109  0.33132152  1
  Te  Te149  1  0.50004315  0.33159262  0.66692754  1
  Te  Te150  1  0.49936995  0.66435200  0.00865489  1
  Te  Te151  1  0.50297904  0.66822973  0.33353500  1
  Te  Te152  1  0.49942834  0.66329237  0.66286621  1
  Te  Te153  1  0.82987191  0.00080198  -0.00029115  1
  Te  Te154  1  0.83077125  -0.00557234  0.33419022  1
  Te  Te155  1  0.83301305  0.00022099  0.66621140  1
  Te  Te156  1  0.83293593  0.33038443  -0.00599782  1
  Te  Te157  1  0.83730952  0.33289386  0.33417057  1
  Te  Te158  1  0.82849423  0.33110269  0.67222861  1
  Te  Te159  1  0.83356883  0.66034901  -0.00058962  1
  Te  Te160  1  0.82810560  0.67220123  0.33761306  1
  Te  Te161  1  0.83260697  0.67053084  0.65995310  1
  Te  Te162  1  -0.00362251  0.16347853  0.00469223  1
  Te  Te163  1  0.00165863  0.17025190  0.33211911  1
  Te  Te164  1  0.00025203  0.16800071  0.66373002  1
  Te  Te165  1  -0.00021999  0.49940429  0.00294955  1
  Te  Te166  1  -0.00086586  0.49455475  0.33145638  1
  Te  Te167  1  -0.00040330  0.49891991  0.66351765  1
  Te  Te168  1  -0.00067910  0.84209404  -0.00045315  1
  Te  Te169  1  0.00152084  0.83243182  0.33379552  1
  Te  Te170  1  0.00149002  0.83381522  0.66689515  1
  Te  Te171  1  0.33730516  0.15955616  -0.00089091  1
  Te  Te172  1  0.33228984  0.16641259  0.33912030  1
  Te  Te173  1  0.33131222  0.16263017  0.66394365  1
  Te  Te174  1  0.32724114  0.49880815  -0.00156890  1
  Te  Te175  1  0.34581846  0.49887896  0.33375678  1
  Te  Te176  1  0.34048400  0.49559303  0.66767441  1
  Te  Te177  1  0.33376509  0.84020714  -0.00034771  1
  Te  Te178  1  0.32442664  0.83398777  0.32647220  1
  Te  Te179  1  0.33366660  0.83896777  0.66762845  1
  Te  Te180  1  0.66793988  0.16220374  -0.00370331  1
  Te  Te181  1  0.66439758  0.16228734  0.33304161  1
  Te  Te182  1  0.66949042  0.16355301  0.67083969  1
  Te  Te183  1  0.67005748  0.50020975  0.00645492  1
  Te  Te184  1  0.66302239  0.49870422  0.32800928  1
  Te  Te185  1  0.66183470  0.50042242  0.66809685  1
  Te  Te186  1  0.66649647  0.83938525  0.00268578  1
  Te  Te187  1  0.66731648  0.83415159  0.33221958  1
  Te  Te188  1  0.66534278  0.83738450  0.66756136  1
  Te  Te189  1  0.00149770  0.00216157  0.16434641  1
  Te  Te190  1  0.00685808  0.00640267  0.49962350  1
  Te  Te191  1  -0.00337753  0.00096993  0.84093699  1
  Te  Te192  1  0.00073079  0.33292478  0.16968344  1
  Te  Te193  1  0.00466428  0.33350952  0.49698369  1
  Te  Te194  1  -0.00276764  0.33888563  0.83347759  1
  Te  Te195  1  0.00466179  0.66098173  0.16713794  1
  Te  Te196  1  0.00219002  0.66243802  0.49833618  1
  Te  Te197  1  0.00550083  0.66071576  0.83397612  1
  Te  Te198  1  0.33053585  -0.00382960  0.16441080  1
  Te  Te199  1  0.33309701  0.00317809  0.50300245  1
  Te  Te200  1  0.33350627  -0.00404890  0.83134231  1
  Te  Te201  1  0.33483987  0.33233273  0.16537395  1
  Te  Te202  1  0.32691978  0.32832296  0.50486606  1
  Te  Te203  1  0.33789317  0.33303844  0.82810362  1
  Te  Te204  1  0.33028088  0.67291905  0.16654725  1
  Te  Te205  1  0.33480189  0.66565085  0.50010641  1
  Te  Te206  1  0.32745742  0.67446493  0.83395934  1
  Te  Te207  1  0.66810626  -0.00187432  0.17094316  1
  Te  Te208  1  0.66311120  0.00004690  0.49459278  1
  Te  Te209  1  0.66662987  -0.00059578  0.83304217  1
  Te  Te210  1  0.66232289  0.33626663  0.16677848  1
  Te  Te211  1  0.66748069  0.33330326  0.50797967  1
  Te  Te212  1  0.66568883  0.33497210  0.83043090  1
  Te  Te213  1  0.66581364  0.66824333  0.17061410  1
  Te  Te214  1  0.66208597  0.66581213  0.49385847  1
  Te  Te215  1  0.66602559  0.67338658  0.83480520  1
