# generated using pymatgen
data_AgSbTe2
_symmetry_space_group_name_H-M   'P 1'
_cell_length_a   18.33337801
_cell_length_b   18.33164204
_cell_length_c   18.33791991
_cell_angle_alpha   89.99933651
_cell_angle_beta   90.00263525
_cell_angle_gamma   89.99590704
_symmetry_Int_Tables_number   1
_chemical_formula_structural   AgSbTe2
_chemical_formula_sum   'Ag54 Sb54 Te108'
_cell_volume   6163.02502694
_cell_formula_units_Z   54
loop_
 _symmetry_equiv_pos_site_id
 _symmetry_equiv_pos_as_xyz
  1  'x, y, z'
loop_
 _atom_site_type_symbol
 _atom_site_label
 _atom_site_symmetry_multiplicity
 _atom_site_fract_x
 _atom_site_fract_y
 _atom_site_fract_z
 _atom_site_occupancy
  Ag  Ag0  1  -0.00144761  0.50339650  0.16437399  1
  Ag  Ag1  1  0.51254396  0.82832082  -0.00461205  1
  Ag  Ag2  1  0.16096500  0.32870589  0.15642102  1
  Ag  Ag3  1  0.33604261  0.50035952  0.50124215  1
  Ag  Ag4  1  0.67067067  0.83352427  0.50274714  1
  Ag  Ag5  1  0.51204449  0.83361430  0.67564557  1
  Ag  Ag6  1  0.51018940  0.33520732  0.50270973  1
  Ag  Ag7  1  0.67364893  0.33792497  0.00472117  1
  Ag  Ag8  1  -0.00284200  0.66920439  0.66989580  1
  Ag  Ag9  1  0.33942775  0.66534328  0.33029514  1
  Ag  Ag10  1  0.66623817  0.33629164  0.32202737  1
  Ag  Ag11  1  0.15457652  0.33100182  0.84020367  1
  Ag  Ag12  1  -0.00489826  0.33625846  -0.00230116  1
  Ag  Ag13  1  0.16300024  0.17685386  -0.00257482  1
  Ag  Ag14  1  0.83005803  0.83205809  0.67583701  1
  Ag  Ag15  1  0.16350331  0.16766987  0.67641436  1
  Ag  Ag16  1  0.83330673  0.49871992  0.00126051  1
  Ag  Ag17  1  0.66983881  0.83077979  0.83857036  1
  Ag  Ag18  1  0.83662968  -0.01015966  0.83826846  1
  Ag  Ag19  1  0.51211798  0.34068198  0.16430433  1
  Ag  Ag20  1  0.16774611  0.66697067  0.83471500  1
  Ag  Ag21  1  0.16574422  0.16753004  0.32130994  1
  Ag  Ag22  1  0.83328116  0.66799883  0.49432196  1
  Ag  Ag23  1  0.33870528  0.83118877  0.15782336  1
  Ag  Ag24  1  0.83025619  0.33586212  0.15722843  1
  Ag  Ag25  1  0.51165678  0.66625013  0.16258368  1
  Ag  Ag26  1  0.66330452  0.50528726  0.83688700  1
  Ag  Ag27  1  0.15878697  0.49387742  -0.00204428  1
  Ag  Ag28  1  -0.00213731  0.33597132  0.68017256  1
  Ag  Ag29  1  -0.00676385  0.66876355  0.32988979  1
  Ag  Ag30  1  0.00360540  0.17543184  0.83312550  1
  Ag  Ag31  1  0.83151953  -0.01301510  0.16033973  1
  Ag  Ag32  1  0.50191050  0.50046736  0.32883184  1
  Ag  Ag33  1  0.82997314  0.82738329  -0.00157300  1
  Ag  Ag34  1  -0.01204316  0.82817426  0.50870094  1
  Ag  Ag35  1  0.66924768  0.82667789  0.16009112  1
  Ag  Ag36  1  0.66786218  -0.00540657  0.33087042  1
  Ag  Ag37  1  0.66808551  0.66626583  0.32268801  1
  Ag  Ag38  1  0.66782093  -0.00470976  0.66660287  1
  Ag  Ag39  1  0.15891510  0.00343379  0.15992352  1
  Ag  Ag40  1  0.33866736  0.50488421  0.83320468  1
  Ag  Ag41  1  0.66771811  0.67005665  0.00398174  1
  Ag  Ag42  1  0.15852898  0.00339327  0.83867629  1
  Ag  Ag43  1  0.50304254  0.16764221  0.66964245  1
  Ag  Ag44  1  0.50318961  0.67044690  0.83729816  1
  Ag  Ag45  1  0.66745273  0.16852028  0.49436238  1
  Ag  Ag46  1  0.82849746  0.33878216  0.50128264  1
  Ag  Ag47  1  0.83561454  0.33195379  0.83864980  1
  Ag  Ag48  1  0.34063176  0.82753437  0.83800222  1
  Ag  Ag49  1  -0.01273958  0.82787162  0.16212989  1
  Ag  Ag50  1  0.82851887  0.67122777  0.16694488  1
  Ag  Ag51  1  -0.00901593  0.83347624  0.83493593  1
  Ag  Ag52  1  0.66868433  0.17598641  0.16981520  1
  Ag  Ag53  1  0.50604140  0.34062835  0.83548307  1
  Sb  Sb54  1  0.50555161  0.82526832  0.32930734  1
  Sb  Sb55  1  0.33163884  0.50413868  0.16203076  1
  Sb  Sb56  1  0.66571841  0.49986531  0.50231429  1
  Sb  Sb57  1  0.16321057  0.00107052  0.50141666  1
  Sb  Sb58  1  0.50130793  0.50001855  0.66873354  1
  Sb  Sb59  1  0.16520695  0.83475254  0.32914765  1
  Sb  Sb60  1  0.82679839  0.50165020  0.32615324  1
  Sb  Sb61  1  0.83337751  0.16862686  0.33179990  1
  Sb  Sb62  1  0.16426587  0.66781627  0.16141019  1
  Sb  Sb63  1  -0.00517812  0.33745039  0.32831446  1
  Sb  Sb64  1  0.67160882  0.67446651  0.66934179  1
  Sb  Sb65  1  0.50775780  -0.00416414  0.16666457  1
  Sb  Sb66  1  0.67237977  0.50173289  0.16022418  1
  Sb  Sb67  1  0.67073820  0.32835658  0.66941763  1
  Sb  Sb68  1  0.33609079  -0.00217091  0.66951102  1
  Sb  Sb69  1  0.16969993  0.49741508  0.32716571  1
  Sb  Sb70  1  0.50478702  0.00337107  0.50138570  1
  Sb  Sb71  1  -0.00540101  -0.00462863  0.32958853  1
  Sb  Sb72  1  -0.00169921  0.50031282  0.83959714  1
  Sb  Sb73  1  0.67054569  -0.00380190  0.00157027  1
  Sb  Sb74  1  -0.00533222  0.16508961  0.50552489  1
  Sb  Sb75  1  0.83067112  0.83041621  0.32918018  1
  Sb  Sb76  1  0.33131028  0.33364825  0.66916731  1
  Sb  Sb77  1  0.83116617  0.16391700  0.66884518  1
  Sb  Sb78  1  0.50435735  0.50233015  0.00148908  1
  Sb  Sb79  1  0.82935873  -0.00527228  0.49977764  1
  Sb  Sb80  1  -0.00245361  0.16759676  0.16184436  1
  Sb  Sb81  1  0.16486438  0.49580192  0.67547597  1
  Sb  Sb82  1  0.50416009  -0.00491797  0.83280621  1
  Sb  Sb83  1  -0.00622066  0.66328950  0.00057225  1
  Sb  Sb84  1  0.16380925  0.33359996  0.50136061  1
  Sb  Sb85  1  0.33941306  0.17357190  0.49955339  1
  Sb  Sb86  1  -0.00520519  -0.00208123  0.67101159  1
  Sb  Sb87  1  0.16162685  0.83115700  -0.00224422  1
  Sb  Sb88  1  0.50268169  0.17384484  0.33514669  1
  Sb  Sb89  1  0.32659598  0.16798311  0.83303591  1
  Sb  Sb90  1  0.33909758  0.66730459  0.00090587  1
  Sb  Sb91  1  0.83112037  0.66828557  0.83762332  1
  Sb  Sb92  1  0.16189758  0.83713966  0.67324436  1
  Sb  Sb93  1  0.83575543  0.17084760  -0.00011945  1
  Sb  Sb94  1  0.00077152  0.50415353  0.49462741  1
  Sb  Sb95  1  0.33020789  -0.00352434  -0.00148358  1
  Sb  Sb96  1  0.33932242  0.82601904  0.50209567  1
  Sb  Sb97  1  0.83383699  0.50345403  0.67271637  1
  Sb  Sb98  1  -0.00136672  0.00224390  -0.00174931  1
  Sb  Sb99  1  0.33060377  0.66781370  0.66879384  1
  Sb  Sb100  1  0.33432708  0.16366981  0.16722768  1
  Sb  Sb101  1  0.33176551  0.33698548  -0.00135442  1
  Sb  Sb102  1  0.33672606  -0.00623292  0.32958605  1
  Sb  Sb103  1  0.67078618  0.16535528  0.83509427  1
  Sb  Sb104  1  0.50016527  0.16767153  -0.00334730  1
  Sb  Sb105  1  0.33895035  0.33906478  0.33174536  1
  Sb  Sb106  1  0.16094025  0.66681096  0.50366190  1
  Sb  Sb107  1  0.50676390  0.66362767  0.50011300  1
  Te  Te108  1  0.16635693  0.16542822  0.16294040  1
  Te  Te109  1  0.16641697  0.16689310  0.50658599  1
  Te  Te110  1  0.16486513  0.16861125  0.83546964  1
  Te  Te111  1  0.16340426  0.49633541  0.16167662  1
  Te  Te112  1  0.17384059  0.49971215  0.49964144  1
  Te  Te113  1  0.16552615  0.49837137  0.83728018  1
  Te  Te114  1  0.16937326  0.83777703  0.16434787  1
  Te  Te115  1  0.16478418  0.83391067  0.50163382  1
  Te  Te116  1  0.16516119  0.83251411  0.83394577  1
  Te  Te117  1  0.50352300  0.16987131  0.16583998  1
  Te  Te118  1  0.50590871  0.17358968  0.50329255  1
  Te  Te119  1  0.49868611  0.16661324  0.83022377  1
  Te  Te120  1  0.49681719  0.50125160  0.16781118  1
  Te  Te121  1  0.49785472  0.49586490  0.49978904  1
  Te  Te122  1  0.50038714  0.50048510  0.83508069  1
  Te  Te123  1  0.50264811  0.82944327  0.16392288  1
  Te  Te124  1  0.50604644  0.83249077  0.50633224  1
  Te  Te125  1  0.50259798  0.83337820  0.83474816  1
  Te  Te126  1  0.82979401  0.17399060  0.16653023  1
  Te  Te127  1  0.82716596  0.17043418  0.50016682  1
  Te  Te128  1  0.83935388  0.16859653  0.83358044  1
  Te  Te129  1  0.83826198  0.49668417  0.16226521  1
  Te  Te130  1  0.83382522  0.50023554  0.50047071  1
  Te  Te131  1  0.82933796  0.49667053  0.83947215  1
  Te  Te132  1  0.83051096  0.83117458  0.16530309  1
  Te  Te133  1  0.83130251  0.83122278  0.50086949  1
  Te  Te134  1  0.83154834  0.83012474  0.83553415  1
  Te  Te135  1  0.16440091  0.00086271  -0.00038888  1
  Te  Te136  1  0.16745528  0.00516969  0.33028939  1
  Te  Te137  1  0.16615756  0.00655290  0.67104394  1
  Te  Te138  1  0.16849609  0.33448206  -0.00077255  1
  Te  Te139  1  0.16699872  0.32945388  0.33234034  1
  Te  Te140  1  0.16129578  0.32865422  0.66957697  1
  Te  Te141  1  0.16592815  0.66302284  -0.00595318  1
  Te  Te142  1  0.16406890  0.66584354  0.33410938  1
  Te  Te143  1  0.16000143  0.66738308  0.67293929  1
  Te  Te144  1  0.49895199  -0.00606696  0.00056176  1
  Te  Te145  1  0.50733481  0.00184886  0.33337158  1
  Te  Te146  1  0.50586286  0.00043407  0.66687880  1
  Te  Te147  1  0.50306980  0.33366337  0.00036451  1
  Te  Te148  1  0.50406999  0.33820514  0.32937259  1
  Te  Te149  1  0.50014294  0.33204468  0.66872683  1
  Te  Te150  1  0.50530735  0.66831910  0.00021829  1
  Te  Te151  1  0.50396659  0.66158981  0.33242502  1
  Te  Te152  1  0.49917362  0.67072490  0.67149482  1
  Te  Te153  1  0.83387363  -0.00424373  -0.00048004  1
  Te  Te154  1  0.82679538  0.00230830  0.32594936  1
  Te  Te155  1  0.82834969  -0.00526248  0.66956803  1
  Te  Te156  1  0.83351237  0.33228930  -0.00133623  1
  Te  Te157  1  0.82789145  0.33505252  0.33547615  1
  Te  Te158  1  0.83770979  0.33371011  0.66828298  1
  Te  Te159  1  0.82885171  0.66470546  0.00377036  1
  Te  Te160  1  0.83192709  0.66468622  0.33034325  1
  Te  Te161  1  0.83800845  0.67007567  0.66315365  1
  Te  Te162  1  0.00382264  0.17415969  -0.00518469  1
  Te  Te163  1  0.00624012  0.16533616  0.33591503  1
  Te  Te164  1  0.00168460  0.16980309  0.67099319  1
  Te  Te165  1  -0.00295630  0.49693034  0.00484187  1
  Te  Te166  1  0.00139443  0.50630707  0.32622630  1
  Te  Te167  1  -0.00010009  0.49951874  0.66305005  1
  Te  Te168  1  -0.00556526  0.83195923  -0.00023762  1
  Te  Te169  1  0.00019264  0.82858963  0.32738102  1
  Te  Te170  1  -0.00386474  0.83145779  0.66958120  1
  Te  Te171  1  0.32587478  0.16505926  0.00077799  1
  Te  Te172  1  0.32574625  0.16485058  0.33468768  1
  Te  Te173  1  0.33759874  0.16552415  0.66475032  1
  Te  Te174  1  0.32513014  0.50230762  -0.00734516  1
  Te  Te175  1  0.33731019  0.50578939  0.33267294  1
  Te  Te176  1  0.33277648  0.50124192  0.66993747  1
  Te  Te177  1  0.33482724  0.83156825  -0.00172266  1
  Te  Te178  1  0.33477358  0.82604477  0.33268704  1
  Te  Te179  1  0.33883551  0.83305295  0.67116831  1
  Te  Te180  1  0.66530192  0.17315476  0.00612504  1
  Te  Te181  1  0.66671620  0.17273879  0.33175368  1
  Te  Te182  1  0.66336575  0.16061832  0.66528491  1
  Te  Te183  1  0.66968732  0.49788934  -0.00546392  1
  Te  Te184  1  0.66179472  0.50011647  0.33632092  1
  Te  Te185  1  0.66679240  0.50090528  0.67737989  1
  Te  Te186  1  0.66910631  0.83385114  0.00022910  1
  Te  Te187  1  0.66551648  0.83086747  0.33423080  1
  Te  Te188  1  0.66910174  0.83483302  0.66651144  1
  Te  Te189  1  -0.00236256  -0.00379866  0.16598862  1
  Te  Te190  1  -0.00263695  -0.00981100  0.49910673  1
  Te  Te191  1  -0.00183811  -0.00520847  0.83292321  1
  Te  Te192  1  0.00095416  0.33311600  0.16425918  1
  Te  Te193  1  -0.00671450  0.33413617  0.49765664  1
  Te  Te194  1  -0.00165081  0.33650506  0.83671058  1
  Te  Te195  1  -0.00027208  0.66780174  0.16734210  1
  Te  Te196  1  -0.00446956  0.66993302  0.49826555  1
  Te  Te197  1  0.00060260  0.66824814  0.83209856  1
  Te  Te198  1  0.32904481  -0.00762602  0.16684507  1
  Te  Te199  1  0.33323359  -0.00219406  0.49892985  1
  Te  Te200  1  0.32601060  -0.00618497  0.83315121  1
  Te  Te201  1  0.32902860  0.33319130  0.16679041  1
  Te  Te202  1  0.33799335  0.34057368  0.49985615  1
  Te  Te203  1  0.34105893  0.33689080  0.83272864  1
  Te  Te204  1  0.33165282  0.67103353  0.17021659  1
  Te  Te205  1  0.33383230  0.66211750  0.49564117  1
  Te  Te206  1  0.33468388  0.66737288  0.83382336  1
  Te  Te207  1  0.67062141  -0.00263014  0.16855225  1
  Te  Te208  1  0.66788966  -0.00087375  0.49624761  1
  Te  Te209  1  0.67166259  -0.00266662  0.83182703  1
  Te  Te210  1  0.66858457  0.33768489  0.16548479  1
  Te  Te211  1  0.66788200  0.33359498  0.50361539  1
  Te  Te212  1  0.66625354  0.32926253  0.83425449  1
  Te  Te213  1  0.66760377  0.66524825  0.16550186  1
  Te  Te214  1  0.67210008  0.66891256  0.49922425  1
  Te  Te215  1  0.66444240  0.66893543  0.83495554  1
