# generated using pymatgen
data_AgSbTe2
_symmetry_space_group_name_H-M   'P 1'
_cell_length_a   18.34169680
_cell_length_b   18.32959343
_cell_length_c   18.33241200
_cell_angle_alpha   90.00413129
_cell_angle_beta   89.99951640
_cell_angle_gamma   90.00026035
_symmetry_Int_Tables_number   1
_chemical_formula_structural   AgSbTe2
_chemical_formula_sum   'Ag54 Sb54 Te108'
_cell_volume   6163.28072869
_cell_formula_units_Z   54
loop_
 _symmetry_equiv_pos_site_id
 _symmetry_equiv_pos_as_xyz
  1  'x, y, z'
loop_
 _atom_site_type_symbol
 _atom_site_label
 _atom_site_symmetry_multiplicity
 _atom_site_fract_x
 _atom_site_fract_y
 _atom_site_fract_z
 _atom_site_occupancy
  Ag  Ag0  1  0.67276401  0.32628222  0.66847662  1
  Ag  Ag1  1  -0.00120016  0.16387368  0.16096929  1
  Ag  Ag2  1  0.51237615  0.16762633  0.33757791  1
  Ag  Ag3  1  0.67669675  0.32884785  -0.01204602  1
  Ag  Ag4  1  0.83688813  0.49679040  -0.00209217  1
  Ag  Ag5  1  0.17492697  0.82832418  0.66111716  1
  Ag  Ag6  1  -0.00356600  0.67318669  0.33566853  1
  Ag  Ag7  1  0.66341477  0.84458759  0.82974582  1
  Ag  Ag8  1  0.00403359  0.83279114  0.17205043  1
  Ag  Ag9  1  0.33165252  0.67151125  0.66147045  1
  Ag  Ag10  1  0.33516692  0.33944109  0.66750728  1
  Ag  Ag11  1  0.51167424  -0.00146124  0.82881157  1
  Ag  Ag12  1  0.15765998  0.33967590  0.50604281  1
  Ag  Ag13  1  -0.00424837  0.33422327  0.67042275  1
  Ag  Ag14  1  0.66555672  0.50003047  0.49800101  1
  Ag  Ag15  1  -0.00855497  0.17006620  0.83732547  1
  Ag  Ag16  1  0.67347343  0.00671886  -0.01394188  1
  Ag  Ag17  1  0.50287456  0.51111644  0.34032222  1
  Ag  Ag18  1  0.00584225  0.66529238  0.65868476  1
  Ag  Ag19  1  0.32866577  0.82782591  0.18041846  1
  Ag  Ag20  1  0.17054478  0.66488481  0.49628083  1
  Ag  Ag21  1  0.83695221  0.32636464  0.82491503  1
  Ag  Ag22  1  0.83788729  0.66823123  0.17964002  1
  Ag  Ag23  1  0.67359996  0.15989759  0.82931740  1
  Ag  Ag24  1  0.66566435  0.66734732  0.33577488  1
  Ag  Ag25  1  0.33583989  -0.01300260  0.33372538  1
  Ag  Ag26  1  0.33373240  0.66996670  0.33674939  1
  Ag  Ag27  1  0.33187040  0.82770003  0.49846014  1
  Ag  Ag28  1  0.16856802  0.66974380  0.17817137  1
  Ag  Ag29  1  0.83090256  0.16527974  0.33784340  1
  Ag  Ag30  1  0.33545566  0.82947489  0.82425422  1
  Ag  Ag31  1  -0.00648552  -0.00809164  0.32791039  1
  Ag  Ag32  1  0.49827512  0.50167605  0.66218856  1
  Ag  Ag33  1  0.15713468  0.33226122  0.82736244  1
  Ag  Ag34  1  0.83844474  0.83043796  0.33319444  1
  Ag  Ag35  1  -0.00741291  0.33099029  0.33619988  1
  Ag  Ag36  1  0.16638903  0.82816598  0.33599629  1
  Ag  Ag37  1  0.83450882  0.33645715  0.50371015  1
  Ag  Ag38  1  -0.00443116  0.32858931  -0.00733075  1
  Ag  Ag39  1  0.49540456  0.82855506  0.66832318  1
  Ag  Ag40  1  -0.00505936  0.00969488  0.00368996  1
  Ag  Ag41  1  0.83381261  0.66338356  0.49673576  1
  Ag  Ag42  1  0.50953844  0.16739593  0.66466415  1
  Ag  Ag43  1  0.66993693  0.00153760  0.33282581  1
  Ag  Ag44  1  0.33307663  0.50825488  0.82969588  1
  Ag  Ag45  1  0.48950837  0.66768838  0.17921295  1
  Ag  Ag46  1  0.66503001  0.00871586  0.67532236  1
  Ag  Ag47  1  0.15867991  0.17402691  -0.00149145  1
  Ag  Ag48  1  0.49325114  0.66609583  0.49725295  1
  Ag  Ag49  1  0.33177176  0.66826191  0.00288933  1
  Ag  Ag50  1  0.16258134  0.49718485  -0.00173879  1
  Ag  Ag51  1  0.67429827  0.33034922  0.34033721  1
  Ag  Ag52  1  0.82816740  0.17162601  0.67166674  1
  Ag  Ag53  1  0.82349035  0.00997030  0.83334216  1
  Sb  Sb54  1  -0.00086822  0.50286342  0.16765747  1
  Sb  Sb55  1  0.16265816  -0.00689736  0.16750437  1
  Sb  Sb56  1  0.17049752  0.50732772  0.33220742  1
  Sb  Sb57  1  0.33291494  0.50848553  0.16291756  1
  Sb  Sb58  1  0.83530216  -0.00215053  0.16580818  1
  Sb  Sb59  1  0.50394067  0.33941807  0.50296628  1
  Sb  Sb60  1  0.66749923  0.50117730  0.17195315  1
  Sb  Sb61  1  -0.00142091  0.17078033  0.49914728  1
  Sb  Sb62  1  0.00422065  0.82926732  0.49316611  1
  Sb  Sb63  1  0.82900656  0.50252426  0.33250277  1
  Sb  Sb64  1  0.66304157  0.49717980  0.82892409  1
  Sb  Sb65  1  0.50319814  0.32853514  0.82876788  1
  Sb  Sb66  1  0.66734301  0.17178632  0.50463804  1
  Sb  Sb67  1  0.16704691  -0.00415208  0.49831893  1
  Sb  Sb68  1  0.16907208  0.66295322  0.83052997  1
  Sb  Sb69  1  0.33332466  0.33622407  0.34185268  1
  Sb  Sb70  1  0.50119435  0.33749402  0.17064954  1
  Sb  Sb71  1  -0.00434347  0.50026820  0.49993004  1
  Sb  Sb72  1  0.33824276  0.50716545  0.50491217  1
  Sb  Sb73  1  0.33509063  0.16519110  0.83217395  1
  Sb  Sb74  1  -0.00537940  0.00212688  0.66689969  1
  Sb  Sb75  1  0.32837232  0.33932865  -0.00781757  1
  Sb  Sb76  1  0.83824567  0.17066984  -0.00243003  1
  Sb  Sb77  1  0.49961589  0.50104218  -0.00190669  1
  Sb  Sb78  1  0.49756340  0.83072947  0.33766870  1
  Sb  Sb79  1  0.16408255  0.16893678  0.66989812  1
  Sb  Sb80  1  0.16006318  0.16361439  0.33006175  1
  Sb  Sb81  1  0.00396177  0.66500611  0.00322287  1
  Sb  Sb82  1  0.16361549  0.33855061  0.16709815  1
  Sb  Sb83  1  0.83170596  0.00044522  0.49892085  1
  Sb  Sb84  1  0.82913106  0.49371630  0.66852708  1
  Sb  Sb85  1  0.83370061  0.83100225  0.00416789  1
  Sb  Sb86  1  0.83311041  0.66563597  0.82895095  1
  Sb  Sb87  1  0.00385997  0.49312018  0.83349620  1
  Sb  Sb88  1  0.67315842  0.16666159  0.16594396  1
  Sb  Sb89  1  0.50041206  0.16613316  -0.00050657  1
  Sb  Sb90  1  0.66476675  0.66578398  0.66049940  1
  Sb  Sb91  1  0.33211548  -0.00599476  0.00204693  1
  Sb  Sb92  1  0.83556613  0.33617197  0.16843435  1
  Sb  Sb93  1  0.16594246  0.00329818  0.83370875  1
  Sb  Sb94  1  0.33997878  -0.00482133  0.66429967  1
  Sb  Sb95  1  0.66376379  0.66581485  0.00538116  1
  Sb  Sb96  1  0.17165691  0.50194875  0.66914995  1
  Sb  Sb97  1  0.50221804  -0.00529220  0.50274354  1
  Sb  Sb98  1  0.49766952  0.67114618  0.82769288  1
  Sb  Sb99  1  0.83251701  0.83546122  0.66223872  1
  Sb  Sb100  1  0.33457871  0.16466751  0.50071862  1
  Sb  Sb101  1  0.00015576  0.83827915  0.83605218  1
  Sb  Sb102  1  0.16737491  0.83060587  0.00144849  1
  Sb  Sb103  1  0.66626789  0.83184315  0.16711302  1
  Sb  Sb104  1  0.50070324  -0.00493139  0.16711928  1
  Sb  Sb105  1  0.66284343  0.82781651  0.50129341  1
  Sb  Sb106  1  0.32821846  0.16068466  0.16899680  1
  Sb  Sb107  1  0.49961156  0.83246259  -0.00549549  1
  Te  Te108  1  0.16022831  0.16707317  0.16147728  1
  Te  Te109  1  0.16708313  0.17471015  0.50017888  1
  Te  Te110  1  0.16594847  0.17146081  0.83694659  1
  Te  Te111  1  0.16645810  0.50826968  0.16015401  1
  Te  Te112  1  0.16727417  0.50022282  0.49984229  1
  Te  Te113  1  0.17168958  0.49325933  0.83709009  1
  Te  Te114  1  0.16712842  0.82806363  0.16881512  1
  Te  Te115  1  0.16989354  0.82994451  0.49930660  1
  Te  Te116  1  0.16976932  0.83456368  0.82968272  1
  Te  Te117  1  0.49819634  0.16561511  0.17368127  1
  Te  Te118  1  0.49973204  0.16614952  0.49899192  1
  Te  Te119  1  0.50327256  0.16117452  0.83103081  1
  Te  Te120  1  0.50019240  0.50641781  0.17104586  1
  Te  Te121  1  0.50338215  0.50499882  0.50045789  1
  Te  Te122  1  0.49463849  0.49989464  0.82878791  1
  Te  Te123  1  0.49558005  0.82748690  0.16510512  1
  Te  Te124  1  0.49590054  0.82760720  0.50705573  1
  Te  Te125  1  0.49961831  0.83648736  0.82844564  1
  Te  Te126  1  0.83978587  0.16685865  0.17699558  1
  Te  Te127  1  0.83323134  0.17119081  0.49863255  1
  Te  Te128  1  0.83259762  0.16876135  0.83395275  1
  Te  Te129  1  0.83328521  0.50776481  0.15903654  1
  Te  Te130  1  0.82698552  0.49905151  0.50140695  1
  Te  Te131  1  0.83176772  0.49659775  0.83733124  1
  Te  Te132  1  0.83591814  0.82847541  0.17174214  1
  Te  Te133  1  0.83238257  0.82844265  0.49390506  1
  Te  Te134  1  0.83055018  0.83514537  0.83207586  1
  Te  Te135  1  0.16240165  0.00455789  0.00042077  1
  Te  Te136  1  0.16707252  -0.00520522  0.33401732  1
  Te  Te137  1  0.16559109  -0.00510465  0.66522034  1
  Te  Te138  1  0.16412362  0.33517798  -0.00020987  1
  Te  Te139  1  0.16534175  0.33446087  0.33712033  1
  Te  Te140  1  0.16181645  0.33342972  0.66714162  1
  Te  Te141  1  0.17061621  0.66271436  -0.00116402  1
  Te  Te142  1  0.16528951  0.66793310  0.33603723  1
  Te  Te143  1  0.16711734  0.66771080  0.66420174  1
  Te  Te144  1  0.50521049  0.00093809  -0.00386633  1
  Te  Te145  1  0.50106767  0.00256520  0.33372493  1
  Te  Te146  1  0.50440467  0.00326598  0.66849145  1
  Te  Te147  1  0.50645977  0.33355913  0.00106116  1
  Te  Te148  1  0.50147367  0.32839271  0.33563057  1
  Te  Te149  1  0.50073609  0.33040528  0.66584352  1
  Te  Te150  1  0.49444832  0.66488052  0.00584602  1
  Te  Te151  1  0.50158588  0.66963973  0.33610079  1
  Te  Te152  1  0.49773003  0.66674228  0.66262030  1
  Te  Te153  1  0.83286164  -0.00161182  -0.00327317  1
  Te  Te154  1  0.83466777  0.00009211  0.33322856  1
  Te  Te155  1  0.82817183  0.00401450  0.66810543  1
  Te  Te156  1  0.83457765  0.33528891  0.00204231  1
  Te  Te157  1  0.83295346  0.33592078  0.33414579  1
  Te  Te158  1  0.83365667  0.33193073  0.66578855  1
  Te  Te159  1  0.83377765  0.66146118  -0.00172369  1
  Te  Te160  1  0.83639045  0.66390501  0.33598935  1
  Te  Te161  1  0.83738563  0.66540843  0.66057649  1
  Te  Te162  1  -0.00061505  0.16797216  -0.00028187  1
  Te  Te163  1  -0.00298902  0.17037962  0.33274936  1
  Te  Te164  1  -0.00409081  0.16973390  0.67142149  1
  Te  Te165  1  0.00082427  0.49605714  0.00011864  1
  Te  Te166  1  0.00214390  0.49380613  0.33272456  1
  Te  Te167  1  0.00002688  0.50067501  0.66754133  1
  Te  Te168  1  0.00107787  0.83724998  0.00603802  1
  Te  Te169  1  0.00061588  0.83205178  0.33133286  1
  Te  Te170  1  0.00205144  0.83213809  0.66739606  1
  Te  Te171  1  0.32746894  0.16590690  0.00088737  1
  Te  Te172  1  0.33333882  0.16465617  0.33290039  1
  Te  Te173  1  0.33638191  0.16796969  0.66694106  1
  Te  Te174  1  0.33152089  0.50520439  -0.00703033  1
  Te  Te175  1  0.34085953  0.50436781  0.33213512  1
  Te  Te176  1  0.33754686  0.49974542  0.66972462  1
  Te  Te177  1  0.33241420  0.82814107  -0.00369695  1
  Te  Te178  1  0.33423775  0.82967145  0.33642056  1
  Te  Te179  1  0.33429264  0.83323056  0.66473479  1
  Te  Te180  1  0.66575778  0.16704811  -0.00213694  1
  Te  Te181  1  0.66963170  0.16950311  0.33185788  1
  Te  Te182  1  0.66734334  0.16738091  0.66786891  1
  Te  Te183  1  0.66838125  0.49588406  -0.00131043  1
  Te  Te184  1  0.66265301  0.50052609  0.33622001  1
  Te  Te185  1  0.66006629  0.49766835  0.66231973  1
  Te  Te186  1  0.66758967  0.83812769  -0.00514026  1
  Te  Te187  1  0.67040480  0.83075109  0.33349481  1
  Te  Te188  1  0.66442389  0.83418042  0.66922425  1
  Te  Te189  1  -0.00106811  -0.00044204  0.16697440  1
  Te  Te190  1  -0.00034075  0.00116863  0.49214217  1
  Te  Te191  1  -0.00256265  0.00537939  0.83637179  1
  Te  Te192  1  0.00065315  0.33013276  0.16908197  1
  Te  Te193  1  -0.00293616  0.33490647  0.50050037  1
  Te  Te194  1  -0.00196543  0.33121977  0.83308985  1
  Te  Te195  1  0.00009306  0.66969486  0.16824357  1
  Te  Te196  1  0.00071768  0.66547878  0.49848464  1
  Te  Te197  1  0.00043656  0.66771058  0.82838946  1
  Te  Te198  1  0.33275805  -0.00857147  0.17157696  1
  Te  Te199  1  0.33378676  -0.00643395  0.49314746  1
  Te  Te200  1  0.33489329  -0.00606326  0.83433890  1
  Te  Te201  1  0.33274646  0.33213614  0.16564630  1
  Te  Te202  1  0.32901588  0.33275901  0.50737208  1
  Te  Te203  1  0.33266227  0.33316365  0.82736978  1
  Te  Te204  1  0.33138773  0.66917322  0.17008282  1
  Te  Te205  1  0.33190735  0.66761638  0.50085214  1
  Te  Te206  1  0.33408145  0.66867835  0.82859705  1
  Te  Te207  1  0.66688043  -0.00099077  0.17487645  1
  Te  Te208  1  0.66759089  -0.00218147  0.49104413  1
  Te  Te209  1  0.66806259  0.00049402  0.83103267  1
  Te  Te210  1  0.66689157  0.33314096  0.16996657  1
  Te  Te211  1  0.66974274  0.33724320  0.50018890  1
  Te  Te212  1  0.66961878  0.33237287  0.83059808  1
  Te  Te213  1  0.67176489  0.66774827  0.17275946  1
  Te  Te214  1  0.66967158  0.66267030  0.49595951  1
  Te  Te215  1  0.66557624  0.67063469  0.83477666  1
