# generated using pymatgen
data_AgSbTe2
_symmetry_space_group_name_H-M   'P 1'
_cell_length_a   18.35005254
_cell_length_b   18.35522798
_cell_length_c   18.35271243
_cell_angle_alpha   90.00043395
_cell_angle_beta   89.99746436
_cell_angle_gamma   90.00170188
_symmetry_Int_Tables_number   1
_chemical_formula_structural   AgSbTe2
_chemical_formula_sum   'Ag54 Sb54 Te108'
_cell_volume   6181.54954365
_cell_formula_units_Z   54
loop_
 _symmetry_equiv_pos_site_id
 _symmetry_equiv_pos_as_xyz
  1  'x, y, z'
loop_
 _atom_site_type_symbol
 _atom_site_label
 _atom_site_symmetry_multiplicity
 _atom_site_fract_x
 _atom_site_fract_y
 _atom_site_fract_z
 _atom_site_occupancy
  Ag  Ag0  1  0.83901187  0.17121443  -0.00253465  1
  Ag  Ag1  1  0.16339587  0.17852931  0.32559065  1
  Ag  Ag2  1  0.15386188  0.16989769  -0.00072156  1
  Ag  Ag3  1  0.67239160  0.33456335  0.33714931  1
  Ag  Ag4  1  0.67842125  0.33341810  0.66005131  1
  Ag  Ag5  1  0.83720541  0.33550401  0.82819190  1
  Ag  Ag6  1  -0.00325462  0.65634695  0.65918990  1
  Ag  Ag7  1  -0.00488856  0.66072046  0.34477791  1
  Ag  Ag8  1  -0.00145143  0.33250141  -0.00083075  1
  Ag  Ag9  1  0.32982838  0.00942373  -0.00162495  1
  Ag  Ag10  1  -0.00322056  0.18254667  0.15768825  1
  Ag  Ag11  1  0.83250622  0.00338157  0.16368454  1
  Ag  Ag12  1  0.83641782  0.65703415  0.82665560  1
  Ag  Ag13  1  0.67302222  0.83515286  0.49246745  1
  Ag  Ag14  1  0.16365251  0.84036072  -0.00036909  1
  Ag  Ag15  1  0.83294195  0.17880839  0.67751991  1
  Ag  Ag16  1  0.49894952  0.49810724  0.00085765  1
  Ag  Ag17  1  0.67111872  0.81959934  0.17061212  1
  Ag  Ag18  1  0.15397785  0.33571687  0.16190020  1
  Ag  Ag19  1  0.32845964  0.17188598  0.83454527  1
  Ag  Ag20  1  0.15556087  0.49651421  0.33212252  1
  Ag  Ag21  1  0.67790996  0.17223333  0.83498308  1
  Ag  Ag22  1  0.51962993  0.33591837  0.50270530  1
  Ag  Ag23  1  0.67559970  0.50003126  0.16719747  1
  Ag  Ag24  1  0.33288243  0.49621523  0.83636165  1
  Ag  Ag25  1  -0.00439658  0.49938931  0.16994540  1
  Ag  Ag26  1  0.67536876  0.65869651  0.32913997  1
  Ag  Ag27  1  0.32927007  0.83180998  0.83457167  1
  Ag  Ag28  1  0.83631848  0.49892774  0.33296101  1
  Ag  Ag29  1  -0.00196440  0.66161591  0.00006422  1
  Ag  Ag30  1  -0.00350229  0.01611539  0.00176654  1
  Ag  Ag31  1  0.83521958  0.33581216  0.16392191  1
  Ag  Ag32  1  0.83659772  0.33815499  0.51293328  1
  Ag  Ag33  1  0.83349010  0.49532899  0.66076660  1
  Ag  Ag34  1  0.83612789  0.65597099  0.50063716  1
  Ag  Ag35  1  0.68068799  0.32976664  0.00030301  1
  Ag  Ag36  1  -0.00560586  0.33874855  0.67203304  1
  Ag  Ag37  1  0.15046579  0.65789948  0.49947841  1
  Ag  Ag38  1  0.67660300  0.00977403  0.00487571  1
  Ag  Ag39  1  0.67091639  0.00182719  0.32684838  1
  Ag  Ag40  1  0.15532509  0.33183852  0.84339802  1
  Ag  Ag41  1  0.50767201  0.49784224  0.66893793  1
  Ag  Ag42  1  -0.00355507  0.17317737  0.84254984  1
  Ag  Ag43  1  0.33367132  -0.00326474  0.68080493  1
  Ag  Ag44  1  0.51619716  0.66003847  0.16623013  1
  Ag  Ag45  1  0.83480839  0.65631414  0.17111742  1
  Ag  Ag46  1  0.15752108  0.33666744  0.49666026  1
  Ag  Ag47  1  0.32463246  0.33137031  -0.00292177  1
  Ag  Ag48  1  0.67125984  0.17763439  0.50146999  1
  Ag  Ag49  1  -0.00796465  0.81853121  0.50341184  1
  Ag  Ag50  1  -0.00174898  0.50223824  0.49066524  1
  Ag  Ag51  1  0.32642660  0.66301717  0.66996338  1
  Ag  Ag52  1  0.83394776  0.82324560  0.66411739  1
  Ag  Ag53  1  0.33351430  0.49966254  0.16100948  1
  Sb  Sb54  1  0.50337628  0.17317974  -0.00013713  1
  Sb  Sb55  1  0.33505143  0.00402048  0.32640557  1
  Sb  Sb56  1  0.50380794  0.33463125  0.83361298  1
  Sb  Sb57  1  0.83214401  0.00180596  0.49546056  1
  Sb  Sb58  1  0.50384582  0.00445446  0.50108120  1
  Sb  Sb59  1  0.32911230  0.66184387  -0.00378054  1
  Sb  Sb60  1  0.50655662  0.65947443  0.49746745  1
  Sb  Sb61  1  0.50411557  0.82717323  0.66634058  1
  Sb  Sb62  1  0.67301349  0.66329866  0.00463582  1
  Sb  Sb63  1  0.67697112  0.49714042  0.49481911  1
  Sb  Sb64  1  0.16012932  0.00537577  0.16216116  1
  Sb  Sb65  1  -0.00375448  0.34021234  0.33072703  1
  Sb  Sb66  1  0.33151454  0.33550529  0.32854254  1
  Sb  Sb67  1  0.33170527  0.66374917  0.33584911  1
  Sb  Sb68  1  0.00012561  0.00170122  0.67026317  1
  Sb  Sb69  1  0.49776310  0.00046132  0.83445636  1
  Sb  Sb70  1  0.50592632  0.83199073  0.33294112  1
  Sb  Sb71  1  0.83374488  0.00716033  0.83668548  1
  Sb  Sb72  1  0.32762072  0.49865015  0.50136021  1
  Sb  Sb73  1  0.66908559  0.83745469  0.83523032  1
  Sb  Sb74  1  0.50536747  0.33972626  0.16693310  1
  Sb  Sb75  1  0.67472475  0.65944118  0.66214540  1
  Sb  Sb76  1  0.33435785  0.17027015  0.50592594  1
  Sb  Sb77  1  0.16295941  0.82883531  0.32974736  1
  Sb  Sb78  1  0.50159844  0.17062680  0.33443936  1
  Sb  Sb79  1  0.16112710  0.49914676  0.66303604  1
  Sb  Sb80  1  0.00043141  0.49298477  0.83471836  1
  Sb  Sb81  1  0.33579840  0.82831247  0.16044362  1
  Sb  Sb82  1  0.16761529  0.00615632  0.83672327  1
  Sb  Sb83  1  -0.00677683  -0.00334425  0.32840824  1
  Sb  Sb84  1  0.00133349  0.83378724  0.83254410  1
  Sb  Sb85  1  0.16725848  0.49228325  0.00434943  1
  Sb  Sb86  1  0.50510741  0.17336124  0.66862312  1
  Sb  Sb87  1  0.66651819  0.00601178  0.66751315  1
  Sb  Sb88  1  0.83232151  0.49258430  0.00211709  1
  Sb  Sb89  1  -0.00453685  0.17472293  0.50012867  1
  Sb  Sb90  1  0.66785629  0.49469915  0.83723720  1
  Sb  Sb91  1  0.33200199  0.83069853  0.50746166  1
  Sb  Sb92  1  0.83711643  0.17513281  0.33075323  1
  Sb  Sb93  1  0.16174741  0.16974298  0.67064260  1
  Sb  Sb94  1  0.33126115  0.33652917  0.67308223  1
  Sb  Sb95  1  0.16227987  0.66077268  0.83183074  1
  Sb  Sb96  1  0.15948374  0.65908933  0.16806328  1
  Sb  Sb97  1  0.16313417  0.83114831  0.67005661  1
  Sb  Sb98  1  0.67333572  0.17193824  0.16499166  1
  Sb  Sb99  1  0.50444156  0.49823886  0.33214407  1
  Sb  Sb100  1  0.83642378  0.83599603  -0.00092329  1
  Sb  Sb101  1  0.83138928  0.82346543  0.33616357  1
  Sb  Sb102  1  0.50321028  0.66262628  0.83637364  1
  Sb  Sb103  1  -0.00548344  0.82656408  0.16692559  1
  Sb  Sb104  1  0.32361676  0.17419013  0.15839436  1
  Sb  Sb105  1  0.16479960  0.00168454  0.50029650  1
  Sb  Sb106  1  0.49854099  0.82822196  0.00002347  1
  Sb  Sb107  1  0.50855617  -0.00455633  0.16346473  1
  Te  Te108  1  0.15975685  0.17142916  0.16502487  1
  Te  Te109  1  0.16587859  0.17073595  0.49861427  1
  Te  Te110  1  0.16598330  0.17273247  0.83660401  1
  Te  Te111  1  0.16519840  0.49648107  0.17106585  1
  Te  Te112  1  0.16220080  0.50035474  0.49670467  1
  Te  Te113  1  0.17300393  0.49250354  0.83217294  1
  Te  Te114  1  0.16809765  0.83389052  0.16072515  1
  Te  Te115  1  0.16352793  0.83099358  0.49976031  1
  Te  Te116  1  0.17053313  0.83140303  0.83759108  1
  Te  Te117  1  0.49445404  0.16444576  0.16805129  1
  Te  Te118  1  0.50656037  0.17398759  0.50141551  1
  Te  Te119  1  0.49526493  0.16704282  0.83302898  1
  Te  Te120  1  0.49670480  0.50199958  0.16622052  1
  Te  Te121  1  0.49632842  0.49515439  0.50375120  1
  Te  Te122  1  0.49674056  0.50150738  0.83399680  1
  Te  Te123  1  0.50723316  0.82465394  0.16566157  1
  Te  Te124  1  0.50623129  0.83279846  0.50160205  1
  Te  Te125  1  0.49293602  0.83087823  0.83221229  1
  Te  Te126  1  0.83694876  0.17045822  0.16372144  1
  Te  Te127  1  0.82920094  0.16913920  0.49907769  1
  Te  Te128  1  0.83464947  0.16928906  0.83567169  1
  Te  Te129  1  0.83379317  0.49856957  0.16536407  1
  Te  Te130  1  0.83572595  0.49812229  0.49894935  1
  Te  Te131  1  0.83387970  0.49795576  0.82856703  1
  Te  Te132  1  0.82826466  0.83473947  0.16583768  1
  Te  Te133  1  0.83237182  0.83757817  0.50150774  1
  Te  Te134  1  0.83255112  0.83019242  0.82787444  1
  Te  Te135  1  0.16689734  0.00376305  0.00023824  1
  Te  Te136  1  0.16790259  0.00134161  0.33139806  1
  Te  Te137  1  0.17411917  -0.00046297  0.66655748  1
  Te  Te138  1  0.16389314  0.33118549  0.00201794  1
  Te  Te139  1  0.16788869  0.33562954  0.33385488  1
  Te  Te140  1  0.16192780  0.33212031  0.66150997  1
  Te  Te141  1  0.16083260  0.66879562  -0.00081520  1
  Te  Te142  1  0.16350738  0.66226386  0.33916237  1
  Te  Te143  1  0.16263080  0.66734424  0.66294149  1
  Te  Te144  1  0.49530683  -0.00314507  0.00022376  1
  Te  Te145  1  0.50794836  0.00097962  0.33260714  1
  Te  Te146  1  0.49302052  -0.00188906  0.66630443  1
  Te  Te147  1  0.49620073  0.33984206  0.00086478  1
  Te  Te148  1  0.50519126  0.33312133  0.34033834  1
  Te  Te149  1  0.49822532  0.33956631  0.66264954  1
  Te  Te150  1  0.49962583  0.65993823  0.00465215  1
  Te  Te151  1  0.50287721  0.66578540  0.32806010  1
  Te  Te152  1  0.50072966  0.65843591  0.66740105  1
  Te  Te153  1  0.83497001  0.00268948  0.00162654  1
  Te  Te154  1  0.82846914  0.00354515  0.32748929  1
  Te  Te155  1  0.83294556  -0.00090618  0.66703653  1
  Te  Te156  1  0.83764316  0.33244484  0.00203926  1
  Te  Te157  1  0.82983073  0.33727855  0.32581372  1
  Te  Te158  1  0.83357028  0.33300197  0.66975170  1
  Te  Te159  1  0.83713674  0.66902649  0.00126534  1
  Te  Te160  1  0.83370564  0.66276738  0.33326507  1
  Te  Te161  1  0.83576944  0.66415980  0.66347473  1
  Te  Te162  1  -0.00124829  0.17085911  0.00169814  1
  Te  Te163  1  0.00586412  0.16160877  0.33266740  1
  Te  Te164  1  -0.00669425  0.16892955  0.66675353  1
  Te  Te165  1  0.00047266  0.49919384  0.00475401  1
  Te  Te166  1  -0.00202377  0.50159098  0.33208040  1
  Te  Te167  1  -0.00432187  0.49921010  0.66989194  1
  Te  Te168  1  0.00453264  0.82888186  -0.00000794  1
  Te  Te169  1  0.00032078  0.82720944  0.33957541  1
  Te  Te170  1  -0.00442124  0.83493856  0.66445889  1
  Te  Te171  1  0.33697916  0.16929935  -0.00492982  1
  Te  Te172  1  0.32593846  0.16623701  0.33359130  1
  Te  Te173  1  0.33438188  0.16284251  0.67230263  1
  Te  Te174  1  0.33344188  0.49801925  -0.00012941  1
  Te  Te175  1  0.33114685  0.50133959  0.32839328  1
  Te  Te176  1  0.33041015  0.50383356  0.66898095  1
  Te  Te177  1  0.33058821  0.83203214  -0.00425958  1
  Te  Te178  1  0.33339286  0.83501859  0.33360008  1
  Te  Te179  1  0.33449690  0.83202017  0.67202312  1
  Te  Te180  1  0.66732121  0.16836011  -0.00144741  1
  Te  Te181  1  0.66696342  0.17037403  0.33681772  1
  Te  Te182  1  0.67028795  0.17110665  0.66711323  1
  Te  Te183  1  0.66244661  0.49609369  0.00440478  1
  Te  Te184  1  0.66911940  0.49850073  0.32821380  1
  Te  Te185  1  0.66761822  0.49307752  0.66884591  1
  Te  Te186  1  0.66622892  0.83808240  0.00345254  1
  Te  Te187  1  0.66692172  0.83689470  0.33145454  1
  Te  Te188  1  0.67172793  0.83403757  0.66675006  1
  Te  Te189  1  -0.00652432  -0.00616850  0.16123225  1
  Te  Te190  1  0.00136140  -0.00329488  0.49961150  1
  Te  Te191  1  0.00147772  0.00512242  0.83896667  1
  Te  Te192  1  -0.00128787  0.33741208  0.16866842  1
  Te  Te193  1  -0.00405967  0.33794728  0.50222299  1
  Te  Te194  1  -0.00104266  0.33310267  0.83420794  1
  Te  Te195  1  -0.00490805  0.66204683  0.16227411  1
  Te  Te196  1  -0.00436633  0.66328979  0.50316291  1
  Te  Te197  1  -0.00471961  0.66766700  0.83595093  1
  Te  Te198  1  0.33506556  -0.00171447  0.15920928  1
  Te  Te199  1  0.33470399  -0.00010867  0.49622353  1
  Te  Te200  1  0.33273252  0.00175298  0.83745333  1
  Te  Te201  1  0.33601690  0.33921775  0.16125070  1
  Te  Te202  1  0.32306652  0.33196017  0.49832526  1
  Te  Te203  1  0.33752750  0.33428135  0.83600922  1
  Te  Te204  1  0.32947472  0.66093585  0.16657750  1
  Te  Te205  1  0.33759419  0.66746656  0.50642864  1
  Te  Te206  1  0.33281200  0.66201777  0.82876783  1
  Te  Te207  1  0.67113080  0.00571401  0.16527909  1
  Te  Te208  1  0.66522760  -0.00333389  0.49858361  1
  Te  Te209  1  0.66485251  0.00671178  0.83854754  1
  Te  Te210  1  0.66907009  0.33748724  0.16291175  1
  Te  Te211  1  0.67487993  0.33596467  0.50037229  1
  Te  Te212  1  0.66970814  0.33077536  0.83933735  1
  Te  Te213  1  0.67200255  0.66356183  0.16703859  1
  Te  Te214  1  0.67259707  0.67003562  0.49428775  1
  Te  Te215  1  0.67492148  0.66874975  0.83281474  1
