# generated using pymatgen
data_AgSbTe2
_symmetry_space_group_name_H-M   'P 1'
_cell_length_a   18.32385793
_cell_length_b   18.32378919
_cell_length_c   18.32367829
_cell_angle_alpha   90.00136520
_cell_angle_beta   90.00201671
_cell_angle_gamma   89.99809378
_symmetry_Int_Tables_number   1
_chemical_formula_structural   AgSbTe2
_chemical_formula_sum   'Ag54 Sb54 Te108'
_cell_volume   6152.40420552
_cell_formula_units_Z   54
loop_
 _symmetry_equiv_pos_site_id
 _symmetry_equiv_pos_as_xyz
  1  'x, y, z'
loop_
 _atom_site_type_symbol
 _atom_site_label
 _atom_site_symmetry_multiplicity
 _atom_site_fract_x
 _atom_site_fract_y
 _atom_site_fract_z
 _atom_site_occupancy
  Ag  Ag0  1  0.16539713  0.66754277  0.83167555  1
  Ag  Ag1  1  -0.00376841  0.32773713  0.66607223  1
  Ag  Ag2  1  0.15950091  0.16796789  0.66984966  1
  Ag  Ag3  1  0.50290450  0.83955365  0.67170736  1
  Ag  Ag4  1  0.33219246  0.67212742  -0.00854287  1
  Ag  Ag5  1  -0.00861046  0.33587385  0.32167280  1
  Ag  Ag6  1  0.33662858  0.82916774  0.83536135  1
  Ag  Ag7  1  0.83427299  0.17173706  0.33190734  1
  Ag  Ag8  1  0.83571875  0.48653271  0.32692982  1
  Ag  Ag9  1  0.50549823  0.00535044  0.50190682  1
  Ag  Ag10  1  0.32605807  0.66955425  0.32988933  1
  Ag  Ag11  1  0.67433189  0.32795430  0.66291188  1
  Ag  Ag12  1  -0.00277667  0.66114540  0.33230903  1
  Ag  Ag13  1  -0.00583784  0.16753896  0.49592510  1
  Ag  Ag14  1  0.83717053  0.50399552  0.00661998  1
  Ag  Ag15  1  0.83503870  0.83644772  0.32323622  1
  Ag  Ag16  1  0.50283735  0.16412767  0.66679918  1
  Ag  Ag17  1  0.83795559  0.00401069  0.16410955  1
  Ag  Ag18  1  0.16168562  0.49853066  0.67124715  1
  Ag  Ag19  1  0.00021392  0.66562742  0.66863280  1
  Ag  Ag20  1  0.16267312  0.66483905  0.50962327  1
  Ag  Ag21  1  0.66752904  0.16132771  0.83446893  1
  Ag  Ag22  1  -0.00215727  0.32578860  0.01015830  1
  Ag  Ag23  1  0.33314610  -0.00124818  0.32976396  1
  Ag  Ag24  1  0.00082604  0.50352695  0.83521670  1
  Ag  Ag25  1  0.67556606  0.16722637  0.50096282  1
  Ag  Ag26  1  0.67204661  0.66446045  0.67118569  1
  Ag  Ag27  1  -0.00348636  0.48682410  0.16259501  1
  Ag  Ag28  1  0.15142511  0.32520073  0.16559956  1
  Ag  Ag29  1  0.83642695  0.67120913  0.83848277  1
  Ag  Ag30  1  0.16580942  0.16099050  -0.00202445  1
  Ag  Ag31  1  0.83859966  0.32799132  0.17373258  1
  Ag  Ag32  1  0.15951912  -0.00075305  0.83884380  1
  Ag  Ag33  1  0.49449330  0.66871194  0.83234930  1
  Ag  Ag34  1  0.67998333  0.32939670  0.33390105  1
  Ag  Ag35  1  0.67816159  0.16870012  0.16718967  1
  Ag  Ag36  1  -0.00117830  0.00646808  0.67380804  1
  Ag  Ag37  1  0.66798125  0.83764376  0.83253195  1
  Ag  Ag38  1  0.67910607  0.00434233  -0.00314286  1
  Ag  Ag39  1  0.15454594  0.00784835  0.15579103  1
  Ag  Ag40  1  0.83773294  -0.00333010  0.84392218  1
  Ag  Ag41  1  0.32679103  -0.00141975  0.00014252  1
  Ag  Ag42  1  0.83587165  0.32561375  0.48617231  1
  Ag  Ag43  1  0.83365221  0.00813751  0.49539627  1
  Ag  Ag44  1  0.50753618  0.33074819  0.16795168  1
  Ag  Ag45  1  -0.00271234  0.00535470  0.00326982  1
  Ag  Ag46  1  0.83714665  0.66414382  0.16383995  1
  Ag  Ag47  1  0.32379074  0.51023209  0.83515327  1
  Ag  Ag48  1  -0.00350355  0.17040626  0.16799020  1
  Ag  Ag49  1  0.83453778  0.83658752  0.00318776  1
  Ag  Ag50  1  -0.00511323  0.83840969  0.16643101  1
  Ag  Ag51  1  0.50408518  0.49844115  0.33161577  1
  Ag  Ag52  1  0.33268675  0.16345798  0.50015546  1
  Ag  Ag53  1  0.49934833  0.16483931  -0.00183812  1
  Sb  Sb54  1  0.83576872  0.16298362  0.00726987  1
  Sb  Sb55  1  0.15828403  0.33324399  0.49745867  1
  Sb  Sb56  1  -0.00140882  0.00350472  0.32761417  1
  Sb  Sb57  1  0.50293744  0.00526364  0.16691389  1
  Sb  Sb58  1  0.32702778  0.83482213  0.16166476  1
  Sb  Sb59  1  0.16295115  0.00065395  0.50148831  1
  Sb  Sb60  1  0.66958888  0.00568126  0.33049916  1
  Sb  Sb61  1  0.33107269  0.33176357  0.33265628  1
  Sb  Sb62  1  0.32801285  0.33093371  0.00083105  1
  Sb  Sb63  1  0.50108996  -0.00325123  0.83086533  1
  Sb  Sb64  1  0.33153750  0.49828477  0.50174643  1
  Sb  Sb65  1  -0.00133017  0.49473826  0.50033485  1
  Sb  Sb66  1  0.83056462  0.83446659  0.67106694  1
  Sb  Sb67  1  0.33305734  0.83669658  0.50301371  1
  Sb  Sb68  1  0.32721427  0.50131261  0.16358091  1
  Sb  Sb69  1  0.66866915  0.49315596  0.49989520  1
  Sb  Sb70  1  -0.00322401  0.83226490  0.83743335  1
  Sb  Sb71  1  0.16000439  0.16569714  0.33200403  1
  Sb  Sb72  1  0.32996486  0.16517011  0.16940123  1
  Sb  Sb73  1  0.67190204  0.00476669  0.67108725  1
  Sb  Sb74  1  0.32987358  0.00094720  0.66956709  1
  Sb  Sb75  1  0.50485198  0.66133566  0.16392289  1
  Sb  Sb76  1  0.83985793  0.49997126  0.66845666  1
  Sb  Sb77  1  0.66889146  0.67265667  -0.00603449  1
  Sb  Sb78  1  0.16117699  0.50118680  0.33496401  1
  Sb  Sb79  1  0.50459746  0.16983932  0.33363477  1
  Sb  Sb80  1  0.16147715  0.83394890  0.33202249  1
  Sb  Sb81  1  0.49779268  0.49847762  0.66616511  1
  Sb  Sb82  1  -0.00284938  0.83848830  0.49651696  1
  Sb  Sb83  1  0.15805046  0.66651674  0.16228690  1
  Sb  Sb84  1  0.67612093  0.84051120  0.16069298  1
  Sb  Sb85  1  0.83458741  0.16678013  0.66086994  1
  Sb  Sb86  1  0.67385805  0.32467574  0.00272221  1
  Sb  Sb87  1  0.50748652  0.32541068  0.49685147  1
  Sb  Sb88  1  0.16025310  0.83962175  -0.00177611  1
  Sb  Sb89  1  0.67845374  0.49228042  0.16748319  1
  Sb  Sb90  1  0.50267530  0.33476953  0.83602478  1
  Sb  Sb91  1  0.33051228  0.33064277  0.66722432  1
  Sb  Sb92  1  0.50421098  0.83172727  0.33765180  1
  Sb  Sb93  1  -0.00505879  0.16544199  0.83508002  1
  Sb  Sb94  1  0.67186926  0.50128885  0.83269630  1
  Sb  Sb95  1  -0.00027339  0.66618547  0.00011360  1
  Sb  Sb96  1  0.67413006  0.66136892  0.33678660  1
  Sb  Sb97  1  0.50323372  0.49577091  0.00253107  1
  Sb  Sb98  1  0.83870318  0.66695032  0.49925262  1
  Sb  Sb99  1  0.66892148  0.83957626  0.50543843  1
  Sb  Sb100  1  0.50298269  0.83864122  -0.00493911  1
  Sb  Sb101  1  0.33469356  0.16400916  0.83199971  1
  Sb  Sb102  1  0.32893140  0.66694875  0.67119469  1
  Sb  Sb103  1  0.16728052  0.83424072  0.67030354  1
  Sb  Sb104  1  0.16197148  0.33203617  0.83605981  1
  Sb  Sb105  1  0.49718570  0.67034566  0.50521419  1
  Sb  Sb106  1  0.15969557  0.49662171  -0.00446841  1
  Sb  Sb107  1  0.83538895  0.33010752  0.83690963  1
  Te  Te108  1  0.16391112  0.16578996  0.16567600  1
  Te  Te109  1  0.16535269  0.16684139  0.50461323  1
  Te  Te110  1  0.16756874  0.16282637  0.83219158  1
  Te  Te111  1  0.15887167  0.49643182  0.16530103  1
  Te  Te112  1  0.16695845  0.50465094  0.50731204  1
  Te  Te113  1  0.16327601  0.49984806  0.83116470  1
  Te  Te114  1  0.15876358  0.83918771  0.16571490  1
  Te  Te115  1  0.16634054  0.82450420  0.50055049  1
  Te  Te116  1  0.17074129  0.83383041  0.83308779  1
  Te  Te117  1  0.49945062  0.17012765  0.16446131  1
  Te  Te118  1  0.49941745  0.16311835  0.50113819  1
  Te  Te119  1  0.50256386  0.16671517  0.83221977  1
  Te  Te120  1  0.49864812  0.49533507  0.17032698  1
  Te  Te121  1  0.49892884  0.50016193  0.49375765  1
  Te  Te122  1  0.49903896  0.50608776  0.83353352  1
  Te  Te123  1  0.50187151  0.83177180  0.16750495  1
  Te  Te124  1  0.50100373  0.84119017  0.50699876  1
  Te  Te125  1  0.50187076  0.82960156  0.83104649  1
  Te  Te126  1  0.83518564  0.16623446  0.16761141  1
  Te  Te127  1  0.83466184  0.16598440  0.49785898  1
  Te  Te128  1  0.82774994  0.16015816  0.83382614  1
  Te  Te129  1  0.83785590  0.50142484  0.16740883  1
  Te  Te130  1  0.83312573  0.49588668  0.49180553  1
  Te  Te131  1  0.83846035  0.50347745  0.83595872  1
  Te  Te132  1  0.83495424  0.83581985  0.16412040  1
  Te  Te133  1  0.83220231  0.83932707  0.49440325  1
  Te  Te134  1  0.83073885  0.83434162  0.83648125  1
  Te  Te135  1  0.16556721  0.00101956  -0.00138529  1
  Te  Te136  1  0.17354354  -0.00096471  0.33169799  1
  Te  Te137  1  0.16090134  0.00323786  0.66986863  1
  Te  Te138  1  0.16097738  0.32706177  0.00444861  1
  Te  Te139  1  0.16129486  0.33432500  0.32764638  1
  Te  Te140  1  0.16249007  0.33025500  0.66561602  1
  Te  Te141  1  0.17195639  0.66694752  -0.00548700  1
  Te  Te142  1  0.16441212  0.66686335  0.33092571  1
  Te  Te143  1  0.16321448  0.66734231  0.67091848  1
  Te  Te144  1  0.49477183  0.00571393  -0.00048322  1
  Te  Te145  1  0.49581127  -0.00123799  0.33780298  1
  Te  Te146  1  0.50039629  0.00278412  0.66390225  1
  Te  Te147  1  0.50060448  0.32737699  0.00470200  1
  Te  Te148  1  0.49875765  0.33757978  0.32986118  1
  Te  Te149  1  0.50342149  0.32832791  0.66630136  1
  Te  Te150  1  0.49659187  0.66538224  -0.00477699  1
  Te  Te151  1  0.50101989  0.66237062  0.33459527  1
  Te  Te152  1  0.50292045  0.66575660  0.67121920  1
  Te  Te153  1  0.83644844  0.00080586  0.00169052  1
  Te  Te154  1  0.83355318  -0.00061738  0.33164308  1
  Te  Te155  1  0.83958466  -0.00127653  0.66445773  1
  Te  Te156  1  0.83938692  0.33783110  0.00339687  1
  Te  Te157  1  0.83537868  0.33103421  0.33116507  1
  Te  Te158  1  0.83345304  0.33490900  0.66892688  1
  Te  Te159  1  0.83334143  0.66769376  -0.00071667  1
  Te  Te160  1  0.83706241  0.66976679  0.33205267  1
  Te  Te161  1  0.83505741  0.66706079  0.66847457  1
  Te  Te162  1  0.00370623  0.16658517  0.00051605  1
  Te  Te163  1  -0.00365317  0.16985221  0.33295968  1
  Te  Te164  1  0.00134552  0.16563809  0.66952891  1
  Te  Te165  1  -0.00302895  0.49946975  -0.00077002  1
  Te  Te166  1  -0.00306882  0.49973699  0.33280676  1
  Te  Te167  1  0.00323454  0.50477261  0.66742665  1
  Te  Te168  1  -0.00592070  0.83909033  0.00398009  1
  Te  Te169  1  -0.00498774  0.82901670  0.32939155  1
  Te  Te170  1  -0.00062218  0.82956815  0.66588718  1
  Te  Te171  1  0.33177462  0.16322827  -0.00002741  1
  Te  Te172  1  0.33350035  0.16285128  0.33834233  1
  Te  Te173  1  0.33676073  0.16636237  0.66333694  1
  Te  Te174  1  0.33400025  0.50293004  -0.00483705  1
  Te  Te175  1  0.33324456  0.50498082  0.33307573  1
  Te  Te176  1  0.32743214  0.49864037  0.67169340  1
  Te  Te177  1  0.33518000  0.83384762  -0.00416080  1
  Te  Te178  1  0.33499802  0.83219904  0.33295666  1
  Te  Te179  1  0.34118943  0.83395442  0.67185008  1
  Te  Te180  1  0.66414177  0.16362315  -0.00149657  1
  Te  Te181  1  0.67046307  0.17009583  0.33282407  1
  Te  Te182  1  0.66567319  0.16842854  0.66579248  1
  Te  Te183  1  0.67291588  0.49863608  -0.00057022  1
  Te  Te184  1  0.66779099  0.49355595  0.33341788  1
  Te  Te185  1  0.66655777  0.49946275  0.66681623  1
  Te  Te186  1  0.67064301  0.84063196  -0.00600711  1
  Te  Te187  1  0.67283339  0.83188402  0.33338071  1
  Te  Te188  1  0.66278554  0.83135293  0.67180757  1
  Te  Te189  1  -0.00103379  0.00295441  0.16744761  1
  Te  Te190  1  -0.00362704  0.00563814  0.50129628  1
  Te  Te191  1  -0.00116697  -0.00110646  0.83399774  1
  Te  Te192  1  -0.00350488  0.33151389  0.16622687  1
  Te  Te193  1  -0.00396832  0.32803809  0.50749099  1
  Te  Te194  1  -0.00095770  0.33928525  0.82465055  1
  Te  Te195  1  -0.00352896  0.67124807  0.16719755  1
  Te  Te196  1  0.00294919  0.66735726  0.49986272  1
  Te  Te197  1  -0.00066910  0.66644035  0.83350359  1
  Te  Te198  1  0.33307163  -0.00148956  0.16525039  1
  Te  Te199  1  0.33144651  0.00278260  0.49798322  1
  Te  Te200  1  0.33043074  -0.00261915  0.83792884  1
  Te  Te201  1  0.33759167  0.33442770  0.16656784  1
  Te  Te202  1  0.33263335  0.32626533  0.49919119  1
  Te  Te203  1  0.33350186  0.34128755  0.83484473  1
  Te  Te204  1  0.33347266  0.66705610  0.16912664  1
  Te  Te205  1  0.32874005  0.66715050  0.49452120  1
  Te  Te206  1  0.33123555  0.66826311  0.83220358  1
  Te  Te207  1  0.67067076  0.00751511  0.16154719  1
  Te  Te208  1  0.66880654  0.00661412  0.50027167  1
  Te  Te209  1  0.66795678  0.00007420  0.83592351  1
  Te  Te210  1  0.66752066  0.32801951  0.16866816  1
  Te  Te211  1  0.67218389  0.32747400  0.50057061  1
  Te  Te212  1  0.66749498  0.32887293  0.82901034  1
  Te  Te213  1  0.67455302  0.66697785  0.16634804  1
  Te  Te214  1  0.66684938  0.66775195  0.50864963  1
  Te  Te215  1  0.67252896  0.66767251  0.83036690  1
