# generated using pymatgen
data_AgSbTe2
_symmetry_space_group_name_H-M   'P 1'
_cell_length_a   18.31410637
_cell_length_b   18.31164307
_cell_length_c   18.31335361
_cell_angle_alpha   89.99728273
_cell_angle_beta   90.00022446
_cell_angle_gamma   89.99976338
_symmetry_Int_Tables_number   1
_chemical_formula_structural   AgSbTe2
_chemical_formula_sum   'Ag54 Sb54 Te108'
_cell_volume   6141.59151489
_cell_formula_units_Z   54
loop_
 _symmetry_equiv_pos_site_id
 _symmetry_equiv_pos_as_xyz
  1  'x, y, z'
loop_
 _atom_site_type_symbol
 _atom_site_label
 _atom_site_symmetry_multiplicity
 _atom_site_fract_x
 _atom_site_fract_y
 _atom_site_fract_z
 _atom_site_occupancy
  Ag  Ag0  1  0.50511078  -0.00372122  0.83902563  1
  Ag  Ag1  1  0.66267191  0.33259599  -0.00097728  1
  Ag  Ag2  1  0.17113716  0.49901619  0.67084622  1
  Ag  Ag3  1  -0.00273301  0.00079680  0.66845478  1
  Ag  Ag4  1  0.00229219  0.16382054  0.83135396  1
  Ag  Ag5  1  0.33582222  0.83245118  0.83545195  1
  Ag  Ag6  1  0.16311797  0.33444280  0.15943514  1
  Ag  Ag7  1  0.16753163  0.66563104  0.83426578  1
  Ag  Ag8  1  0.49777055  0.15279139  -0.00447135  1
  Ag  Ag9  1  0.34491311  0.00088213  -0.00050157  1
  Ag  Ag10  1  0.00263103  -0.00433414  0.33384070  1
  Ag  Ag11  1  0.01003484  0.49888203  0.49841644  1
  Ag  Ag12  1  0.16482860  0.50273671  0.33538334  1
  Ag  Ag13  1  0.32724753  0.49495987  0.50637437  1
  Ag  Ag14  1  0.00802765  0.67143377  0.33226801  1
  Ag  Ag15  1  0.65865058  -0.00435777  -0.00620671  1
  Ag  Ag16  1  0.33131081  0.16812791  0.50023197  1
  Ag  Ag17  1  0.32484677  0.66767919  0.33269465  1
  Ag  Ag18  1  0.84299752  0.50033019  0.33291209  1
  Ag  Ag19  1  0.50422855  -0.00522921  0.15379560  1
  Ag  Ag20  1  0.82654726  0.84015490  -0.00519800  1
  Ag  Ag21  1  0.82971776  -0.00088397  0.83594741  1
  Ag  Ag22  1  0.83334841  0.00009957  0.15539978  1
  Ag  Ag23  1  0.49290935  0.50186467  0.67472339  1
  Ag  Ag24  1  0.83848270  0.32830747  0.83872486  1
  Ag  Ag25  1  0.66102674  0.83615418  0.83463728  1
  Ag  Ag26  1  0.50412398  0.83811850  0.67796824  1
  Ag  Ag27  1  0.49343512  0.83349148  0.32294072  1
  Ag  Ag28  1  0.49538496  0.50206118  -0.00417849  1
  Ag  Ag29  1  -0.00273393  -0.00339863  -0.00176350  1
  Ag  Ag30  1  0.67044059  -0.00356538  0.67496374  1
  Ag  Ag31  1  0.17203429  0.49938073  -0.00809890  1
  Ag  Ag32  1  0.83784488  0.33055964  0.15839576  1
  Ag  Ag33  1  0.50231117  0.84126327  -0.00404250  1
  Ag  Ag34  1  0.82953970  0.83936935  0.67629290  1
  Ag  Ag35  1  0.50063501  0.67540559  0.16203662  1
  Ag  Ag36  1  0.33242260  0.16553161  0.16307313  1
  Ag  Ag37  1  0.16962115  0.83489272  -0.00505736  1
  Ag  Ag38  1  0.16506444  0.33650625  0.83667069  1
  Ag  Ag39  1  0.16667142  0.83796282  0.67422523  1
  Ag  Ag40  1  0.00323193  0.32447117  0.67104942  1
  Ag  Ag41  1  0.66017849  0.16324115  0.50396339  1
  Ag  Ag42  1  0.66308354  0.67849994  0.67443162  1
  Ag  Ag43  1  0.00206826  0.83778374  0.16572977  1
  Ag  Ag44  1  0.66191244  0.67474834  -0.00453449  1
  Ag  Ag45  1  0.83954209  0.00001452  0.51009756  1
  Ag  Ag46  1  0.33059430  0.50333410  0.83340880  1
  Ag  Ag47  1  0.16723379  0.83288439  0.33123325  1
  Ag  Ag48  1  0.16774300  0.16150970  0.33851299  1
  Ag  Ag49  1  0.16283222  0.00266970  0.50300343  1
  Ag  Ag50  1  0.66566294  0.49936384  0.16185990  1
  Ag  Ag51  1  0.33408397  0.33164379  -0.00108917  1
  Ag  Ag52  1  0.49625831  0.15863568  0.67246746  1
  Ag  Ag53  1  0.16799895  0.16204157  0.66481011  1
  Sb  Sb54  1  0.49893979  0.66804162  0.50029858  1
  Sb  Sb55  1  -0.00160473  0.50274265  0.16996808  1
  Sb  Sb56  1  0.49263532  0.15913900  0.33140756  1
  Sb  Sb57  1  0.66044631  0.50482806  0.83846939  1
  Sb  Sb58  1  0.49528182  0.67434580  0.83784063  1
  Sb  Sb59  1  0.49878389  0.00001092  0.50343584  1
  Sb  Sb60  1  0.00190775  0.84039993  0.83700729  1
  Sb  Sb61  1  0.83474121  0.67199902  0.50010924  1
  Sb  Sb62  1  0.49395345  0.50739209  0.33029612  1
  Sb  Sb63  1  0.33745381  0.66796420  0.00187969  1
  Sb  Sb64  1  0.66618549  0.66795868  0.33044181  1
  Sb  Sb65  1  0.00217115  0.83521337  0.49710755  1
  Sb  Sb66  1  -0.00048793  0.67349643  0.00380534  1
  Sb  Sb67  1  0.83258332  0.50086960  0.00224025  1
  Sb  Sb68  1  0.00152481  0.32798875  -0.00480660  1
  Sb  Sb69  1  0.32771508  -0.00388823  0.32933250  1
  Sb  Sb70  1  0.66830489  0.15813799  0.83177691  1
  Sb  Sb71  1  0.16681219  0.66663628  0.50089331  1
  Sb  Sb72  1  0.83602344  0.67063753  0.83400998  1
  Sb  Sb73  1  0.16474219  -0.00041598  0.83098853  1
  Sb  Sb74  1  0.82950127  0.66950928  0.16573650  1
  Sb  Sb75  1  0.67054892  0.32906544  0.67506900  1
  Sb  Sb76  1  0.66644195  0.83963589  0.51030482  1
  Sb  Sb77  1  0.16659325  0.33200116  0.50422055  1
  Sb  Sb78  1  0.33059373  0.16463884  0.83448593  1
  Sb  Sb79  1  0.00074225  0.67146852  0.66488679  1
  Sb  Sb80  1  0.32773589  0.33425038  0.67428438  1
  Sb  Sb81  1  0.33474787  0.49702163  0.16199204  1
  Sb  Sb82  1  0.17082811  0.66432007  0.16560759  1
  Sb  Sb83  1  0.00883825  0.49428669  0.82909525  1
  Sb  Sb84  1  0.82812978  0.15910726  -0.00120775  1
  Sb  Sb85  1  0.83693586  0.83318478  0.33056074  1
  Sb  Sb86  1  0.83456129  0.32899563  0.50247073  1
  Sb  Sb87  1  0.67041209  -0.00153651  0.33205116  1
  Sb  Sb88  1  0.16528077  0.00152183  0.16745893  1
  Sb  Sb89  1  0.17222166  0.16477670  -0.00220234  1
  Sb  Sb90  1  0.33317843  0.00003089  0.67251846  1
  Sb  Sb91  1  0.66208287  0.16752869  0.16528538  1
  Sb  Sb92  1  0.66439166  0.49610277  0.49938155  1
  Sb  Sb93  1  0.83541678  0.15822661  0.66845581  1
  Sb  Sb94  1  0.83546565  0.50281191  0.66519289  1
  Sb  Sb95  1  0.66975584  0.33349608  0.32604028  1
  Sb  Sb96  1  0.33099687  0.83566028  0.50331482  1
  Sb  Sb97  1  0.00479830  0.16109170  0.16250109  1
  Sb  Sb98  1  0.49898262  0.32934110  0.83684412  1
  Sb  Sb99  1  0.66587180  0.83252609  0.15724014  1
  Sb  Sb100  1  0.33598310  0.66538910  0.66585939  1
  Sb  Sb101  1  0.33270078  0.83726047  0.16034877  1
  Sb  Sb102  1  0.83940342  0.16624915  0.33299113  1
  Sb  Sb103  1  0.00437938  0.16548202  0.50487578  1
  Sb  Sb104  1  0.49863419  0.33202119  0.16079478  1
  Sb  Sb105  1  0.32981440  0.33577712  0.32724828  1
  Sb  Sb106  1  0.49862910  0.33249632  0.50298779  1
  Sb  Sb107  1  0.00322687  0.33256744  0.33560005  1
  Te  Te108  1  0.17112722  0.17097544  0.16843954  1
  Te  Te109  1  0.16941652  0.16544387  0.50235141  1
  Te  Te110  1  0.16410132  0.17032327  0.82762680  1
  Te  Te111  1  0.16632176  0.49616511  0.16786146  1
  Te  Te112  1  0.16867456  0.49951762  0.50007371  1
  Te  Te113  1  0.16957469  0.49830033  0.83269704  1
  Te  Te114  1  0.16490964  0.83242247  0.16708088  1
  Te  Te115  1  0.16728902  0.83795827  0.49957900  1
  Te  Te116  1  0.16745946  0.83329605  0.83430143  1
  Te  Te117  1  0.49457239  0.16188144  0.16309007  1
  Te  Te118  1  0.49503295  0.16589177  0.50291328  1
  Te  Te119  1  0.49960990  0.16188151  0.83219593  1
  Te  Te120  1  0.50362438  0.49982806  0.16317981  1
  Te  Te121  1  0.49498873  0.50008744  0.50460979  1
  Te  Te122  1  0.49447345  0.49997563  0.83360505  1
  Te  Te123  1  0.49957376  0.83504838  0.16215731  1
  Te  Te124  1  0.49847379  0.83357663  0.50271429  1
  Te  Te125  1  0.49818363  0.83431256  0.83537779  1
  Te  Te126  1  0.83266642  0.16635948  0.16767505  1
  Te  Te127  1  0.83089677  0.16051604  0.49882008  1
  Te  Te128  1  0.83794474  0.16657244  0.83353570  1
  Te  Te129  1  0.83084780  0.49792514  0.16913551  1
  Te  Te130  1  0.83310261  0.49889447  0.49512884  1
  Te  Te131  1  0.83434491  0.49662036  0.83303646  1
  Te  Te132  1  0.83601965  0.83801453  0.16247605  1
  Te  Te133  1  0.83400472  0.84103955  0.50273940  1
  Te  Te134  1  0.83445239  0.83625054  0.83454264  1
  Te  Te135  1  0.16114139  -0.00387709  -0.00054430  1
  Te  Te136  1  0.16312521  -0.00263735  0.33399453  1
  Te  Te137  1  0.16703772  0.00005232  0.66538992  1
  Te  Te138  1  0.16697575  0.33258297  -0.00135349  1
  Te  Te139  1  0.16656577  0.33605954  0.32780408  1
  Te  Te140  1  0.16325126  0.33594065  0.67043699  1
  Te  Te141  1  0.16767080  0.66854531  -0.00236717  1
  Te  Te142  1  0.16530145  0.66802318  0.33326881  1
  Te  Te143  1  0.16726465  0.66759739  0.66956093  1
  Te  Te144  1  0.50143518  -0.00209360  -0.00164613  1
  Te  Te145  1  0.50059422  -0.00748412  0.33191402  1
  Te  Te146  1  0.49986122  -0.00107123  0.66828099  1
  Te  Te147  1  0.49929602  0.34258587  -0.00010782  1
  Te  Te148  1  0.50070856  0.33267078  0.33179857  1
  Te  Te149  1  0.50054773  0.33486469  0.66975398  1
  Te  Te150  1  0.50332220  0.66166879  0.00191302  1
  Te  Te151  1  0.49906754  0.67380264  0.32810960  1
  Te  Te152  1  0.50376004  0.66748533  0.66820336  1
  Te  Te153  1  0.83566478  -0.00134963  -0.00208039  1
  Te  Te154  1  0.83920712  -0.00025634  0.33078703  1
  Te  Te155  1  0.83415679  -0.00218045  0.66956739  1
  Te  Te156  1  0.83334776  0.33298953  -0.00054971  1
  Te  Te157  1  0.83520390  0.33806042  0.32931768  1
  Te  Te158  1  0.83966749  0.33361853  0.67227333  1
  Te  Te159  1  0.82631061  0.67369540  -0.00018867  1
  Te  Te160  1  0.83755379  0.66118101  0.33326061  1
  Te  Te161  1  0.82773452  0.67507661  0.66680709  1
  Te  Te162  1  0.00096739  0.15938202  -0.00554798  1
  Te  Te163  1  0.00834398  0.16109938  0.33345672  1
  Te  Te164  1  0.00336654  0.16321868  0.66877050  1
  Te  Te165  1  0.00636192  0.50232304  0.00082667  1
  Te  Te166  1  0.00317928  0.49925286  0.33544344  1
  Te  Te167  1  0.00345235  0.50335933  0.66171449  1
  Te  Te168  1  0.00394692  0.83609664  0.00380979  1
  Te  Te169  1  0.00203707  0.83476061  0.33107089  1
  Te  Te170  1  0.00484209  0.83746333  0.66512438  1
  Te  Te171  1  0.33731681  0.16569086  0.00051325  1
  Te  Te172  1  0.32703697  0.16686439  0.33487454  1
  Te  Te173  1  0.33294660  0.16767939  0.66439546  1
  Te  Te174  1  0.33104325  0.50082994  -0.00334961  1
  Te  Te175  1  0.32880652  0.50305057  0.33448695  1
  Te  Te176  1  0.33249001  0.49969969  0.66766807  1
  Te  Te177  1  0.33166822  0.83473751  -0.00365893  1
  Te  Te178  1  0.33076860  0.82956921  0.33466568  1
  Te  Te179  1  0.32997770  0.83240820  0.67131819  1
  Te  Te180  1  0.65888445  0.16700357  -0.00026598  1
  Te  Te181  1  0.66511512  0.16674689  0.33997028  1
  Te  Te182  1  0.66172482  0.16322907  0.66485694  1
  Te  Te183  1  0.66753219  0.49877898  0.00217948  1
  Te  Te184  1  0.66674008  0.50009450  0.32919515  1
  Te  Te185  1  0.66367840  0.49956402  0.66765187  1
  Te  Te186  1  0.66452110  0.83547593  -0.00293350  1
  Te  Te187  1  0.66243080  0.83218481  0.33568255  1
  Te  Te188  1  0.66499435  0.83644816  0.67166929  1
  Te  Te189  1  -0.00252175  -0.00207448  0.16566665  1
  Te  Te190  1  0.00180261  0.00107867  0.50239594  1
  Te  Te191  1  -0.00233364  0.00280505  0.83059404  1
  Te  Te192  1  -0.00105019  0.33229734  0.16584550  1
  Te  Te193  1  -0.00112233  0.33820406  0.50732078  1
  Te  Te194  1  0.00088716  0.32872953  0.82989295  1
  Te  Te195  1  -0.00073074  0.67329410  0.17279402  1
  Te  Te196  1  -0.00032652  0.65946568  0.49356207  1
  Te  Te197  1  0.00726426  0.66602578  0.83385250  1
  Te  Te198  1  0.33639372  0.00428988  0.16197272  1
  Te  Te199  1  0.32704354  0.00497487  0.49802944  1
  Te  Te200  1  0.33725107  -0.00361230  0.83923773  1
  Te  Te201  1  0.32872079  0.32857689  0.15950800  1
  Te  Te202  1  0.33282217  0.33295040  0.49929895  1
  Te  Te203  1  0.32995240  0.33673939  0.84028643  1
  Te  Te204  1  0.33978581  0.66626009  0.17275072  1
  Te  Te205  1  0.33346028  0.66069504  0.49325339  1
  Te  Te206  1  0.32717604  0.66682559  0.83291541  1
  Te  Te207  1  0.66843082  0.00048225  0.16333740  1
  Te  Te208  1  0.66934772  0.00516596  0.50152256  1
  Te  Te209  1  0.66801082  -0.00236706  0.83360059  1
  Te  Te210  1  0.67129876  0.33540759  0.15964105  1
  Te  Te211  1  0.66768723  0.32550568  0.50140169  1
  Te  Te212  1  0.67160405  0.33402108  0.84018240  1
  Te  Te213  1  0.66206196  0.66225400  0.16278725  1
  Te  Te214  1  0.66726251  0.66510390  0.50636843  1
  Te  Te215  1  0.66855877  0.67240269  0.83384866  1
