# generated using pymatgen
data_AgSbTe2
_symmetry_space_group_name_H-M   'P 1'
_cell_length_a   18.32302796
_cell_length_b   18.32314439
_cell_length_c   18.33009904
_cell_angle_alpha   89.99814447
_cell_angle_beta   90.00061816
_cell_angle_gamma   90.00086450
_symmetry_Int_Tables_number   1
_chemical_formula_structural   AgSbTe2
_chemical_formula_sum   'Ag54 Sb54 Te108'
_cell_volume   6154.06472569
_cell_formula_units_Z   54
loop_
 _symmetry_equiv_pos_site_id
 _symmetry_equiv_pos_as_xyz
  1  'x, y, z'
loop_
 _atom_site_type_symbol
 _atom_site_label
 _atom_site_symmetry_multiplicity
 _atom_site_fract_x
 _atom_site_fract_y
 _atom_site_fract_z
 _atom_site_occupancy
  Ag  Ag0  1  0.50348004  0.66935881  0.49929554  1
  Ag  Ag1  1  -0.00057118  0.33329276  0.65970059  1
  Ag  Ag2  1  0.32223422  0.49998401  0.49960798  1
  Ag  Ag3  1  0.16234873  0.00024074  0.84304681  1
  Ag  Ag4  1  0.50134064  0.83567644  0.66863845  1
  Ag  Ag5  1  0.33237613  0.66527239  0.33509481  1
  Ag  Ag6  1  -0.00147882  0.66667171  0.66559835  1
  Ag  Ag7  1  0.66856069  0.50228449  0.17089451  1
  Ag  Ag8  1  0.00208209  0.00757072  0.32439006  1
  Ag  Ag9  1  0.16132046  0.33731469  0.49660125  1
  Ag  Ag10  1  0.16195985  0.50177220  0.33173896  1
  Ag  Ag11  1  0.16050100  0.33944052  0.17017120  1
  Ag  Ag12  1  -0.00549612  0.83346757  0.83994432  1
  Ag  Ag13  1  0.50579594  0.67310340  0.83147638  1
  Ag  Ag14  1  0.00493019  0.49806521  0.49271155  1
  Ag  Ag15  1  0.15932330  0.00119972  0.16187117  1
  Ag  Ag16  1  -0.00075001  0.66430552  0.32411309  1
  Ag  Ag17  1  0.66690975  0.50415102  0.49655917  1
  Ag  Ag18  1  0.84597429  0.15980221  -0.00335067  1
  Ag  Ag19  1  0.16041599  0.15866296  0.00220696  1
  Ag  Ag20  1  0.83460182  0.67410843  0.83326833  1
  Ag  Ag21  1  0.00154138  0.17287076  0.49713475  1
  Ag  Ag22  1  0.15545547  0.83107776  0.66857208  1
  Ag  Ag23  1  0.84087744  0.16411765  0.33362799  1
  Ag  Ag24  1  0.67355227  0.83552847  0.83263783  1
  Ag  Ag25  1  0.49500860  0.00047306  0.16184969  1
  Ag  Ag26  1  0.15739417  0.65948044  0.16749219  1
  Ag  Ag27  1  0.00548319  0.51015378  0.17239501  1
  Ag  Ag28  1  0.83758499  0.83128036  0.67587456  1
  Ag  Ag29  1  0.00516366  -0.00061232  0.00606123  1
  Ag  Ag30  1  -0.00520049  0.15975313  0.83960618  1
  Ag  Ag31  1  0.67242483  0.33136100  0.66537294  1
  Ag  Ag32  1  0.83749312  0.66671486  0.49809338  1
  Ag  Ag33  1  -0.00112435  0.67496342  0.01105134  1
  Ag  Ag34  1  0.49897840  0.15969960  -0.00211609  1
  Ag  Ag35  1  0.32872034  0.16779101  0.50204643  1
  Ag  Ag36  1  0.16529847  0.49833877  0.00922773  1
  Ag  Ag37  1  0.50475717  0.83459891  -0.00192885  1
  Ag  Ag38  1  0.83775706  0.16281916  0.67029272  1
  Ag  Ag39  1  0.84489880  0.66712972  0.16800441  1
  Ag  Ag40  1  0.33376044  -0.00050960  0.66739326  1
  Ag  Ag41  1  0.49789706  0.33188024  0.16498296  1
  Ag  Ag42  1  0.00041435  0.82300027  0.16007444  1
  Ag  Ag43  1  0.32469000  0.00064320  -0.00122359  1
  Ag  Ag44  1  0.67382305  0.16051169  0.83244713  1
  Ag  Ag45  1  0.50357391  0.16107985  0.66970090  1
  Ag  Ag46  1  0.49521927  0.50618616  0.00345892  1
  Ag  Ag47  1  0.84093590  0.83328999  -0.00561796  1
  Ag  Ag48  1  0.66954153  0.66440343  0.33489710  1
  Ag  Ag49  1  0.49671884  -0.00466418  0.50170170  1
  Ag  Ag50  1  0.00201145  0.33399183  0.33634216  1
  Ag  Ag51  1  0.00115677  0.16518245  0.16537841  1
  Ag  Ag52  1  0.16197859  0.50238256  0.65760855  1
  Ag  Ag53  1  0.50149530  0.82990924  0.33407500  1
  Sb  Sb54  1  0.32997212  0.67119683  0.00435669  1
  Sb  Sb55  1  -0.00035665  0.83002047  0.50032412  1
  Sb  Sb56  1  0.15910657  0.17131086  0.32856710  1
  Sb  Sb57  1  0.50260780  0.33319902  0.83619971  1
  Sb  Sb58  1  0.83336968  0.83140693  0.33174123  1
  Sb  Sb59  1  0.33056123  -0.00287666  0.33299670  1
  Sb  Sb60  1  0.67122901  0.66777635  0.00284826  1
  Sb  Sb61  1  0.00081010  0.50291335  0.83450501  1
  Sb  Sb62  1  0.32778622  0.50126035  0.17012138  1
  Sb  Sb63  1  0.49624086  0.50552919  0.33058752  1
  Sb  Sb64  1  0.66709868  0.00024666  -0.00001326  1
  Sb  Sb65  1  0.33181760  0.83496727  0.83306177  1
  Sb  Sb66  1  0.49687573  0.33477634  0.49632830  1
  Sb  Sb67  1  0.33216837  0.50267119  0.82975519  1
  Sb  Sb68  1  0.16267461  0.65971626  0.49618374  1
  Sb  Sb69  1  0.66619138  0.50258643  0.83320798  1
  Sb  Sb70  1  0.83511455  0.33232363  0.83166590  1
  Sb  Sb71  1  0.84173427  0.33673748  0.50056921  1
  Sb  Sb72  1  0.67150362  0.66465670  0.66325467  1
  Sb  Sb73  1  0.83652313  0.50378046  0.00321929  1
  Sb  Sb74  1  0.33210122  0.32831252  0.00161777  1
  Sb  Sb75  1  0.33255912  0.16321830  0.83086367  1
  Sb  Sb76  1  0.83959186  -0.00339951  0.16561829  1
  Sb  Sb77  1  0.67007348  0.17126092  0.16220246  1
  Sb  Sb78  1  0.49683779  0.50131263  0.66644499  1
  Sb  Sb79  1  0.32986586  0.32907801  0.66330814  1
  Sb  Sb80  1  0.16171323  0.67115382  0.83624574  1
  Sb  Sb81  1  0.83245456  -0.00230242  0.50129064  1
  Sb  Sb82  1  0.67000414  0.17260429  0.50600441  1
  Sb  Sb83  1  0.66839501  -0.00457374  0.33227891  1
  Sb  Sb84  1  0.00483642  -0.00111984  0.66790400  1
  Sb  Sb85  1  0.66968073  0.82916617  0.16231623  1
  Sb  Sb86  1  0.49564264  -0.00475519  0.83439409  1
  Sb  Sb87  1  0.83960664  0.50276801  0.66442318  1
  Sb  Sb88  1  0.16103743  0.83674079  -0.00213565  1
  Sb  Sb89  1  0.16233186  0.32958198  0.83373422  1
  Sb  Sb90  1  0.16264915  0.16559348  0.66932228  1
  Sb  Sb91  1  0.32670727  0.33748523  0.33399423  1
  Sb  Sb92  1  0.84189763  0.50132081  0.33372142  1
  Sb  Sb93  1  0.33549196  0.83166238  0.50038673  1
  Sb  Sb94  1  0.50418212  0.16155684  0.33317826  1
  Sb  Sb95  1  0.16865374  0.00469335  0.49749647  1
  Sb  Sb96  1  0.66452862  0.82808740  0.50522339  1
  Sb  Sb97  1  0.66580636  0.33277313  -0.00213099  1
  Sb  Sb98  1  0.67228126  0.33929299  0.33629551  1
  Sb  Sb99  1  0.33023749  0.67107203  0.66133780  1
  Sb  Sb100  1  0.66187370  0.00240127  0.66704367  1
  Sb  Sb101  1  0.00184046  0.33035903  0.00351704  1
  Sb  Sb102  1  0.32849666  0.16518527  0.16886272  1
  Sb  Sb103  1  0.16663663  0.82791318  0.33489171  1
  Sb  Sb104  1  0.32899743  0.83418395  0.16517651  1
  Sb  Sb105  1  0.49976410  0.66801610  0.16764777  1
  Sb  Sb106  1  0.83915908  0.33562528  0.16764276  1
  Sb  Sb107  1  0.84034565  -0.00448430  0.83412101  1
  Te  Te108  1  0.16408441  0.16484691  0.16280244  1
  Te  Te109  1  0.16456269  0.17230238  0.50074117  1
  Te  Te110  1  0.16310699  0.16258308  0.83906080  1
  Te  Te111  1  0.16509228  0.49912763  0.16802765  1
  Te  Te112  1  0.16413730  0.49866657  0.49930581  1
  Te  Te113  1  0.16761646  0.50011654  0.83607471  1
  Te  Te114  1  0.16072275  0.83665935  0.16722813  1
  Te  Te115  1  0.16800844  0.83409141  0.50837611  1
  Te  Te116  1  0.16189591  0.83717382  0.82810025  1
  Te  Te117  1  0.50103360  0.16634841  0.16529049  1
  Te  Te118  1  0.50050665  0.16590919  0.50250195  1
  Te  Te119  1  0.50160906  0.16604125  0.83190250  1
  Te  Te120  1  0.49879779  0.49885363  0.16354308  1
  Te  Te121  1  0.50235177  0.50373969  0.49932566  1
  Te  Te122  1  0.50007259  0.50491894  0.83945824  1
  Te  Te123  1  0.50124073  0.83627056  0.16353982  1
  Te  Te124  1  0.50031750  0.83223337  0.50285083  1
  Te  Te125  1  0.50005396  0.83204229  0.83200128  1
  Te  Te126  1  0.83680994  0.16656119  0.16205099  1
  Te  Te127  1  0.83776169  0.16577999  0.50488264  1
  Te  Te128  1  0.83362733  0.16654595  0.83272034  1
  Te  Te129  1  0.83352633  0.50451719  0.16686649  1
  Te  Te130  1  0.83232965  0.50657964  0.49970249  1
  Te  Te131  1  0.83172438  0.50984042  0.83461656  1
  Te  Te132  1  0.83725656  0.82851702  0.16245582  1
  Te  Te133  1  0.83112810  0.82816591  0.50557133  1
  Te  Te134  1  0.83435832  0.83247038  0.83395075  1
  Te  Te135  1  0.16561567  -0.00114340  0.00238153  1
  Te  Te136  1  0.16211618  -0.00269570  0.32825234  1
  Te  Te137  1  0.17237510  -0.00329649  0.66431603  1
  Te  Te138  1  0.16785944  0.33676841  0.00434810  1
  Te  Te139  1  0.16179601  0.33758248  0.33160378  1
  Te  Te140  1  0.16248201  0.33671990  0.66464351  1
  Te  Te141  1  0.16328253  0.66526522  0.00347520  1
  Te  Te142  1  0.16244625  0.66441263  0.33018775  1
  Te  Te143  1  0.16395748  0.66765317  0.66788767  1
  Te  Te144  1  0.50115042  -0.00080184  0.00007394  1
  Te  Te145  1  0.49954108  -0.00642736  0.33431262  1
  Te  Te146  1  0.49639192  0.00027265  0.66654322  1
  Te  Te147  1  0.49904117  0.33144602  0.00422909  1
  Te  Te148  1  0.50158475  0.33214962  0.32652896  1
  Te  Te149  1  0.50048598  0.32993493  0.66653904  1
  Te  Te150  1  0.49879729  0.66822537  -0.00096518  1
  Te  Te151  1  0.50102272  0.66974602  0.33567161  1
  Te  Te152  1  0.49962964  0.66815872  0.66512428  1
  Te  Te153  1  0.83848428  -0.00087632  0.00077405  1
  Te  Te154  1  0.83903161  0.00259067  0.33398468  1
  Te  Te155  1  0.83213824  -0.00018350  0.66537908  1
  Te  Te156  1  0.83290316  0.32381966  -0.00055620  1
  Te  Te157  1  0.83979380  0.32463735  0.33423829  1
  Te  Te158  1  0.83558108  0.32898891  0.66604782  1
  Te  Te159  1  0.83797684  0.66872730  0.00092535  1
  Te  Te160  1  0.83512085  0.66769782  0.33413898  1
  Te  Te161  1  0.83567158  0.66908750  0.66605829  1
  Te  Te162  1  0.00231404  0.16776419  -0.00085746  1
  Te  Te163  1  -0.00051960  0.16671265  0.33479108  1
  Te  Te164  1  -0.00120922  0.16586369  0.66433936  1
  Te  Te165  1  0.00377515  0.49978743  0.00307838  1
  Te  Te166  1  0.00147440  0.50189149  0.33293738  1
  Te  Te167  1  0.00331507  0.49974209  0.66693149  1
  Te  Te168  1  0.00040082  0.83388565  -0.00034988  1
  Te  Te169  1  -0.00094370  0.82745365  0.33093463  1
  Te  Te170  1  -0.00225839  0.83244083  0.66639543  1
  Te  Te171  1  0.33749132  0.16083418  0.00087913  1
  Te  Te172  1  0.33447026  0.16617552  0.34266893  1
  Te  Te173  1  0.33639967  0.16234758  0.66295286  1
  Te  Te174  1  0.33325752  0.50141858  -0.00107060  1
  Te  Te175  1  0.32772973  0.50440636  0.33940343  1
  Te  Te176  1  0.32682299  0.50031637  0.66064044  1
  Te  Te177  1  0.34221093  0.83957456  -0.00036477  1
  Te  Te178  1  0.33956638  0.82779434  0.33305684  1
  Te  Te179  1  0.34098051  0.83815636  0.66676082  1
  Te  Te180  1  0.65988455  0.16711369  -0.00600230  1
  Te  Te181  1  0.67620658  0.16787096  0.33304039  1
  Te  Te182  1  0.66581009  0.16921431  0.66978484  1
  Te  Te183  1  0.66284042  0.49939898  0.00411654  1
  Te  Te184  1  0.66662783  0.50380988  0.33287723  1
  Te  Te185  1  0.66640896  0.49391086  0.66424601  1
  Te  Te186  1  0.66612954  0.83352773  -0.00556221  1
  Te  Te187  1  0.66280126  0.82743347  0.33200485  1
  Te  Te188  1  0.66596495  0.83237521  0.67224448  1
  Te  Te189  1  -0.00026214  0.00572262  0.16554026  1
  Te  Te190  1  -0.00036005  0.00330971  0.49494041  1
  Te  Te191  1  0.00458067  -0.00039326  0.83449267  1
  Te  Te192  1  0.00251245  0.32882252  0.17023919  1
  Te  Te193  1  0.00177478  0.33527079  0.49915590  1
  Te  Te194  1  -0.00022346  0.32821669  0.82407911  1
  Te  Te195  1  0.00105781  0.66651526  0.16622518  1
  Te  Te196  1  -0.00206673  0.66408212  0.50603334  1
  Te  Te197  1  -0.00225537  0.67003209  0.82680087  1
  Te  Te198  1  0.33406720  0.00042280  0.16412869  1
  Te  Te199  1  0.33621031  0.00377075  0.50045737  1
  Te  Te200  1  0.32435031  0.00052806  0.83439364  1
  Te  Te201  1  0.33424586  0.33303650  0.16807317  1
  Te  Te202  1  0.32793812  0.33404207  0.49941565  1
  Te  Te203  1  0.33283305  0.33294821  0.83256810  1
  Te  Te204  1  0.32638710  0.66773911  0.17355660  1
  Te  Te205  1  0.33649748  0.66300386  0.49528441  1
  Te  Te206  1  0.34179576  0.66771896  0.83386045  1
  Te  Te207  1  0.65692175  0.00028046  0.16793550  1
  Te  Te208  1  0.65788794  0.00100236  0.49803716  1
  Te  Te209  1  0.66580403  -0.00037748  0.83298740  1
  Te  Te210  1  0.66455615  0.34035180  0.16760867  1
  Te  Te211  1  0.66589733  0.34127397  0.50412537  1
  Te  Te212  1  0.66759791  0.32963659  0.82589163  1
  Te  Te213  1  0.66763586  0.66225860  0.17106373  1
  Te  Te214  1  0.66483112  0.66321848  0.49711935  1
  Te  Te215  1  0.66737238  0.67042789  0.83320351  1
