# generated using pymatgen
data_AgSbTe2
_symmetry_space_group_name_H-M   'P 1'
_cell_length_a   18.35932582
_cell_length_b   18.36096285
_cell_length_c   18.36340527
_cell_angle_alpha   89.99563921
_cell_angle_beta   89.99655750
_cell_angle_gamma   89.99771712
_symmetry_Int_Tables_number   1
_chemical_formula_structural   AgSbTe2
_chemical_formula_sum   'Ag54 Sb54 Te108'
_cell_volume   6190.21021584
_cell_formula_units_Z   54
loop_
 _symmetry_equiv_pos_site_id
 _symmetry_equiv_pos_as_xyz
  1  'x, y, z'
loop_
 _atom_site_type_symbol
 _atom_site_label
 _atom_site_symmetry_multiplicity
 _atom_site_fract_x
 _atom_site_fract_y
 _atom_site_fract_z
 _atom_site_occupancy
  Ag  Ag0  1  0.83711492  0.83184598  0.65719567  1
  Ag  Ag1  1  0.67151267  0.33356864  0.32089527  1
  Ag  Ag2  1  0.16340639  0.66740470  0.17661627  1
  Ag  Ag3  1  -0.00835182  -0.01335562  0.66781826  1
  Ag  Ag4  1  0.14970796  0.82245982  0.65844450  1
  Ag  Ag5  1  0.83170493  0.14985074  0.32050820  1
  Ag  Ag6  1  -0.01485882  0.16356024  0.15862257  1
  Ag  Ag7  1  0.83319913  -0.01457845  0.48616245  1
  Ag  Ag8  1  -0.00589974  -0.00373090  -0.00131054  1
  Ag  Ag9  1  0.32377072  0.82202554  0.49917708  1
  Ag  Ag10  1  0.33493593  0.34023389  0.66892751  1
  Ag  Ag11  1  0.51818859  0.01191543  0.16612504  1
  Ag  Ag12  1  0.83093515  0.49595999  -0.00401944  1
  Ag  Ag13  1  0.16694418  0.34569510  0.50836954  1
  Ag  Ag14  1  0.33788280  0.49773587  0.82483059  1
  Ag  Ag15  1  -0.00368005  0.16663133  0.83666780  1
  Ag  Ag16  1  0.16064251  0.66892764  0.50108674  1
  Ag  Ag17  1  0.66985025  0.33439945  0.00676667  1
  Ag  Ag18  1  -0.01464623  -0.00375420  0.33336095  1
  Ag  Ag19  1  0.83234021  0.01055335  0.17633736  1
  Ag  Ag20  1  -0.00798015  0.83226610  0.50994262  1
  Ag  Ag21  1  -0.00376814  0.82575695  0.82132018  1
  Ag  Ag22  1  0.51117958  0.65562687  0.83113631  1
  Ag  Ag23  1  0.83528289  0.66287937  0.82811338  1
  Ag  Ag24  1  0.51765891  0.32958126  0.15955630  1
  Ag  Ag25  1  -0.00541135  0.67128810  -0.00975853  1
  Ag  Ag26  1  0.50159712  0.49910149  0.67136134  1
  Ag  Ag27  1  0.83535462  0.83486731  0.00188112  1
  Ag  Ag28  1  0.51434355  0.16995917  0.00541316  1
  Ag  Ag29  1  0.51357584  0.33844443  0.83479581  1
  Ag  Ag30  1  -0.01433443  0.50333996  0.83195129  1
  Ag  Ag31  1  -0.00820647  0.67250835  0.67055829  1
  Ag  Ag32  1  0.15919621  0.33849178  0.82815459  1
  Ag  Ag33  1  0.15494543  0.83026677  0.34181844  1
  Ag  Ag34  1  0.83260929  0.16809925  0.00913200  1
  Ag  Ag35  1  0.66882079  0.49595385  0.82706702  1
  Ag  Ag36  1  0.66728482  0.34613984  0.67074277  1
  Ag  Ag37  1  0.67285898  0.66302518  0.66537001  1
  Ag  Ag38  1  0.66855075  0.50348881  0.50955209  1
  Ag  Ag39  1  0.82956430  0.50209069  0.32967496  1
  Ag  Ag40  1  0.34483757  0.16835855  0.16649254  1
  Ag  Ag41  1  0.67257692  0.83999273  0.17758281  1
  Ag  Ag42  1  0.82697061  0.32189696  0.15889818  1
  Ag  Ag43  1  0.17058105  0.50227207  0.66654946  1
  Ag  Ag44  1  0.32905128  0.66707989  0.33816117  1
  Ag  Ag45  1  0.83516738  0.67463421  0.50568920  1
  Ag  Ag46  1  0.67879230  0.82592405  0.49938541  1
  Ag  Ag47  1  0.33423151  0.50403262  0.50602218  1
  Ag  Ag48  1  0.67133657  0.48933992  0.16689505  1
  Ag  Ag49  1  0.67146593  0.17514461  0.16660270  1
  Ag  Ag50  1  0.83018624  0.34295099  0.83823972  1
  Ag  Ag51  1  0.83669950  0.83962220  0.34594045  1
  Ag  Ag52  1  0.67519667  -0.00657994  0.66097221  1
  Ag  Ag53  1  0.67526875  0.00157381  0.32716999  1
  Sb  Sb54  1  0.16456773  0.17068751  0.66682506  1
  Sb  Sb55  1  0.51134537  -0.00300413  0.49494169  1
  Sb  Sb56  1  0.50204803  0.66522970  0.50530040  1
  Sb  Sb57  1  0.15837567  0.65971433  0.82491065  1
  Sb  Sb58  1  0.33149126  0.17079821  0.49662930  1
  Sb  Sb59  1  0.15787355  -0.00941768  0.50047087  1
  Sb  Sb60  1  0.83515740  -0.00253981  0.83460195  1
  Sb  Sb61  1  0.15867537  -0.00451213  0.16846601  1
  Sb  Sb62  1  0.32722356  0.66520889  0.00122911  1
  Sb  Sb63  1  -0.00304748  0.16006999  0.50170186  1
  Sb  Sb64  1  0.33679255  0.83569411  0.17191140  1
  Sb  Sb65  1  0.50053874  0.33556575  0.50409918  1
  Sb  Sb66  1  0.66998137  0.16874435  0.49517501  1
  Sb  Sb67  1  0.83374827  0.33760868  0.50194112  1
  Sb  Sb68  1  0.32965511  0.17601467  0.83743147  1
  Sb  Sb69  1  0.51101556  0.83739936  0.00013349  1
  Sb  Sb70  1  -0.00307994  0.50811809  0.50675479  1
  Sb  Sb71  1  0.50717781  0.83185661  0.33379232  1
  Sb  Sb72  1  0.50523488  0.00438503  0.83754336  1
  Sb  Sb73  1  0.34179384  0.33445377  -0.00511960  1
  Sb  Sb74  1  0.50208375  0.66304963  0.16163374  1
  Sb  Sb75  1  0.50866770  0.16745180  0.32531771  1
  Sb  Sb76  1  0.33271801  0.65903718  0.66223177  1
  Sb  Sb77  1  -0.00058420  0.67275983  0.33663295  1
  Sb  Sb78  1  0.15901651  0.16201172  0.33182905  1
  Sb  Sb79  1  0.83057776  0.50819284  0.66988210  1
  Sb  Sb80  1  -0.00322497  0.33804059  0.66976301  1
  Sb  Sb81  1  0.32469973  0.82290172  0.82490720  1
  Sb  Sb82  1  0.15731229  0.83014179  -0.00077590  1
  Sb  Sb83  1  0.67523811  0.66120846  -0.00437766  1
  Sb  Sb84  1  -0.01038417  0.33179664  -0.00416026  1
  Sb  Sb85  1  0.83297279  0.16189087  0.66817777  1
  Sb  Sb86  1  0.33553904  -0.00375237  0.33392926  1
  Sb  Sb87  1  0.15788845  0.49973429  -0.00768955  1
  Sb  Sb88  1  0.66834447  0.66644107  0.33739237  1
  Sb  Sb89  1  0.33339520  0.00065253  0.66431631  1
  Sb  Sb90  1  0.33844477  0.33727698  0.33697159  1
  Sb  Sb91  1  0.83528815  0.66730066  0.16689305  1
  Sb  Sb92  1  0.67639590  0.00527398  0.00530599  1
  Sb  Sb93  1  -0.00788359  0.49704214  0.16190226  1
  Sb  Sb94  1  0.16361971  0.33659833  0.16657597  1
  Sb  Sb95  1  0.67478299  0.17497677  0.83858710  1
  Sb  Sb96  1  0.33878455  0.49610992  0.16843310  1
  Sb  Sb97  1  -0.00908240  0.32868201  0.33401522  1
  Sb  Sb98  1  0.33046064  0.00206137  0.00229923  1
  Sb  Sb99  1  0.50405230  0.17484125  0.67589468  1
  Sb  Sb100  1  0.16165916  0.50472671  0.33999805  1
  Sb  Sb101  1  -0.00881597  0.83687586  0.16788299  1
  Sb  Sb102  1  0.50594755  0.82733247  0.66770252  1
  Sb  Sb103  1  0.16088739  0.00241699  0.83080791  1
  Sb  Sb104  1  0.50765703  0.49997851  0.33716013  1
  Sb  Sb105  1  0.50919216  0.49555382  -0.00813977  1
  Sb  Sb106  1  0.15836028  0.16828786  0.00166365  1
  Sb  Sb107  1  0.67704227  0.82679116  0.82861764  1
  Te  Te108  1  0.16739295  0.16662378  0.16784406  1
  Te  Te109  1  0.16590859  0.17211613  0.49896091  1
  Te  Te110  1  0.16095322  0.17467611  0.83413960  1
  Te  Te111  1  0.16694673  0.50421497  0.16639719  1
  Te  Te112  1  0.16500884  0.50500994  0.50329488  1
  Te  Te113  1  0.17271062  0.49656046  0.82870608  1
  Te  Te114  1  0.16932239  0.82809711  0.16864504  1
  Te  Te115  1  0.16622716  0.83055209  0.50007209  1
  Te  Te116  1  0.15893299  0.83245465  0.82755911  1
  Te  Te117  1  0.50469950  0.16929627  0.16403119  1
  Te  Te118  1  0.49824964  0.16590462  0.50032995  1
  Te  Te119  1  0.49826032  0.17321732  0.84303763  1
  Te  Te120  1  0.50606393  0.49425890  0.16557606  1
  Te  Te121  1  0.50159268  0.49936519  0.50597538  1
  Te  Te122  1  0.50331150  0.49729784  0.83143813  1
  Te  Te123  1  0.50640449  0.83520182  0.16569950  1
  Te  Te124  1  0.49341102  0.83328362  0.50053220  1
  Te  Te125  1  0.49580815  0.83251027  0.83393417  1
  Te  Te126  1  0.83002437  0.16701996  0.16601607  1
  Te  Te127  1  0.83415066  0.16574893  0.49598576  1
  Te  Te128  1  0.83783426  0.16975049  0.83576911  1
  Te  Te129  1  0.83045923  0.50095154  0.16524106  1
  Te  Te130  1  0.83010878  0.50245322  0.49707878  1
  Te  Te131  1  0.83000511  0.50194497  0.83234570  1
  Te  Te132  1  0.82963465  0.83180386  0.16143443  1
  Te  Te133  1  0.83344663  0.83113716  0.50170968  1
  Te  Te134  1  0.83860282  0.83019255  0.83997089  1
  Te  Te135  1  0.15696276  -0.00086910  -0.00046523  1
  Te  Te136  1  0.16470401  -0.00771911  0.33390874  1
  Te  Te137  1  0.16468822  -0.00264268  0.66568385  1
  Te  Te138  1  0.16825710  0.33447466  -0.00407457  1
  Te  Te139  1  0.16697931  0.33300212  0.33609868  1
  Te  Te140  1  0.16497895  0.33612474  0.66750132  1
  Te  Te141  1  0.15894365  0.66615741  0.00289549  1
  Te  Te142  1  0.16669506  0.66999481  0.33800177  1
  Te  Te143  1  0.16742214  0.66583304  0.66170858  1
  Te  Te144  1  0.49898964  0.00605841  0.00627123  1
  Te  Te145  1  0.50613529  -0.00025536  0.32596207  1
  Te  Te146  1  0.50285669  0.00199772  0.66709340  1
  Te  Te147  1  0.50620613  0.33035699  -0.00050588  1
  Te  Te148  1  0.50776669  0.33319532  0.33029343  1
  Te  Te149  1  0.50153808  0.33826357  0.67081188  1
  Te  Te150  1  0.49795713  0.66817202  -0.00726645  1
  Te  Te151  1  0.49117076  0.66607096  0.33093385  1
  Te  Te152  1  0.50459680  0.66109991  0.67249758  1
  Te  Te153  1  0.83716825  0.00205411  0.00058177  1
  Te  Te154  1  0.83000455  -0.00518074  0.33154043  1
  Te  Te155  1  0.83354598  -0.00430929  0.66909739  1
  Te  Te156  1  0.83034167  0.33426489  -0.00072435  1
  Te  Te157  1  0.82926074  0.34233075  0.33583259  1
  Te  Te158  1  0.82951593  0.33015203  0.67019471  1
  Te  Te159  1  0.83677584  0.66636336  -0.00098046  1
  Te  Te160  1  0.83299876  0.66533664  0.33761393  1
  Te  Te161  1  0.83289240  0.66906828  0.66675726  1
  Te  Te162  1  -0.00532081  0.16508324  -0.00128605  1
  Te  Te163  1  -0.00666311  0.16053127  0.33215800  1
  Te  Te164  1  0.00025621  0.16163858  0.67136331  1
  Te  Te165  1  -0.00731454  0.50446725  -0.00548264  1
  Te  Te166  1  -0.00612953  0.49852325  0.33245881  1
  Te  Te167  1  0.00641172  0.50422206  0.67131832  1
  Te  Te168  1  -0.00419773  0.83317355  0.00155607  1
  Te  Te169  1  -0.00257742  0.83679015  0.33301627  1
  Te  Te170  1  -0.00413475  0.83113533  0.66598696  1
  Te  Te171  1  0.33055394  0.16718903  0.00589188  1
  Te  Te172  1  0.33252621  0.16672399  0.32817695  1
  Te  Te173  1  0.33394575  0.17436235  0.66722272  1
  Te  Te174  1  0.33221476  0.50030854  -0.00305988  1
  Te  Te175  1  0.33325803  0.50364559  0.33801146  1
  Te  Te176  1  0.33289111  0.49826986  0.66515860  1
  Te  Te177  1  0.33307739  0.83467369  -0.00217704  1
  Te  Te178  1  0.33339411  0.83017430  0.33773596  1
  Te  Te179  1  0.33407467  0.83410914  0.66052163  1
  Te  Te180  1  0.67212404  0.17028241  0.00375009  1
  Te  Te181  1  0.67247172  0.16757626  0.32975125  1
  Te  Te182  1  0.66596697  0.16055449  0.66647021  1
  Te  Te183  1  0.67161219  0.49604065  0.00170629  1
  Te  Te184  1  0.66897044  0.49886172  0.33085789  1
  Te  Te185  1  0.66779270  0.50300052  0.66732176  1
  Te  Te186  1  0.67385316  0.83310757  -0.00217213  1
  Te  Te187  1  0.67147556  0.83362253  0.33753951  1
  Te  Te188  1  0.66977840  0.83276183  0.66223547  1
  Te  Te189  1  -0.00487842  0.00322412  0.16702999  1
  Te  Te190  1  -0.00571582  -0.00486414  0.50051180  1
  Te  Te191  1  0.00051453  0.00188933  0.83238439  1
  Te  Te192  1  -0.00383142  0.32624614  0.16595433  1
  Te  Te193  1  0.00618286  0.33329022  0.50138431  1
  Te  Te194  1  -0.00268432  0.33763046  0.83331004  1
  Te  Te195  1  0.00391396  0.66535646  0.16632181  1
  Te  Te196  1  -0.00110862  0.67143330  0.50293758  1
  Te  Te197  1  -0.00218943  0.66525805  0.83063036  1
  Te  Te198  1  0.33127520  0.00550879  0.16761007  1
  Te  Te199  1  0.33451743  0.00020505  0.49920498  1
  Te  Te200  1  0.33279537  0.00058371  0.83291091  1
  Te  Te201  1  0.33314569  0.32981879  0.16744064  1
  Te  Te202  1  0.33010560  0.33836928  0.50431351  1
  Te  Te203  1  0.33143089  0.33826105  0.82913227  1
  Te  Te204  1  0.33034765  0.66602509  0.16967648  1
  Te  Te205  1  0.33559243  0.66384345  0.49854313  1
  Te  Te206  1  0.33432347  0.65952425  0.83376386  1
  Te  Te207  1  0.67293427  -0.00329534  0.16533918  1
  Te  Te208  1  0.67231036  0.00107527  0.49951518  1
  Te  Te209  1  0.66673707  -0.00073115  0.82656082  1
  Te  Te210  1  0.67240411  0.33421808  0.16585037  1
  Te  Te211  1  0.66650404  0.33771372  0.51007070  1
  Te  Te212  1  0.66998375  0.33442028  0.83008568  1
  Te  Te213  1  0.66492938  0.67139310  0.16629584  1
  Te  Te214  1  0.66773982  0.66614086  0.50258335  1
  Te  Te215  1  0.66977869  0.66306593  0.83033180  1
