# generated using pymatgen
data_AgSbTe2
_symmetry_space_group_name_H-M   'P 1'
_cell_length_a   18.34335685
_cell_length_b   18.34788800
_cell_length_c   18.34806360
_cell_angle_alpha   89.99747304
_cell_angle_beta   89.99996007
_cell_angle_gamma   89.99715806
_symmetry_Int_Tables_number   1
_chemical_formula_structural   AgSbTe2
_chemical_formula_sum   'Ag54 Sb54 Te108'
_cell_volume   6175.25834383
_cell_formula_units_Z   54
loop_
 _symmetry_equiv_pos_site_id
 _symmetry_equiv_pos_as_xyz
  1  'x, y, z'
loop_
 _atom_site_type_symbol
 _atom_site_label
 _atom_site_symmetry_multiplicity
 _atom_site_fract_x
 _atom_site_fract_y
 _atom_site_fract_z
 _atom_site_occupancy
  Ag  Ag0  1  0.16569577  0.50450555  0.00411373  1
  Ag  Ag1  1  0.48640844  0.00781529  0.17107627  1
  Ag  Ag2  1  0.16542503  -0.00142508  0.48360494  1
  Ag  Ag3  1  0.66596831  0.00081701  0.33064819  1
  Ag  Ag4  1  0.17109608  0.16159123  0.00681612  1
  Ag  Ag5  1  0.49249730  0.00974142  0.84085853  1
  Ag  Ag6  1  0.00990874  0.50013251  0.83918181  1
  Ag  Ag7  1  0.48488313  0.84394411  0.33177133  1
  Ag  Ag8  1  0.84771897  0.00148451  0.17265929  1
  Ag  Ag9  1  0.16869045  0.00195919  0.16822267  1
  Ag  Ag10  1  0.49427215  0.32743377  0.83890236  1
  Ag  Ag11  1  0.33162493  0.32505741  0.00943441  1
  Ag  Ag12  1  0.66660156  0.33517056  0.66723422  1
  Ag  Ag13  1  0.16540412  0.83594969  0.01117152  1
  Ag  Ag14  1  0.85036382  0.84453256  0.33231758  1
  Ag  Ag15  1  0.16920468  0.33651713  0.83594500  1
  Ag  Ag16  1  0.00715622  0.83669489  0.83868539  1
  Ag  Ag17  1  0.16454595  0.50200528  0.67622037  1
  Ag  Ag18  1  0.83307136  0.33116306  0.50100683  1
  Ag  Ag19  1  0.49600255  0.66604833  0.49553483  1
  Ag  Ag20  1  0.32925250  0.49230793  0.17089879  1
  Ag  Ag21  1  0.33222503  0.67162535  0.33292857  1
  Ag  Ag22  1  0.16536733  0.66015030  0.84538565  1
  Ag  Ag23  1  0.16564367  0.66913666  0.16441594  1
  Ag  Ag24  1  0.32558069  0.83181622  0.49246133  1
  Ag  Ag25  1  0.49070277  0.49755081  0.32879991  1
  Ag  Ag26  1  0.48849611  0.16162029  0.32674893  1
  Ag  Ag27  1  0.83526879  0.17205031  0.65879096  1
  Ag  Ag28  1  0.16863934  0.15611663  0.32317721  1
  Ag  Ag29  1  0.66787676  0.49821064  0.83479659  1
  Ag  Ag30  1  0.33031967  0.16757745  0.16745555  1
  Ag  Ag31  1  0.00696857  0.83911225  0.48588938  1
  Ag  Ag32  1  0.16780855  0.84464253  0.32791236  1
  Ag  Ag33  1  0.66540531  0.49831240  0.49620755  1
  Ag  Ag34  1  0.33382940  0.33203428  0.32720960  1
  Ag  Ag35  1  0.01172101  0.49948096  0.16488633  1
  Ag  Ag36  1  0.32579389  0.00100576  0.32940664  1
  Ag  Ag37  1  0.66624374  0.66298970  0.00187681  1
  Ag  Ag38  1  0.50044971  0.16835470  0.66860383  1
  Ag  Ag39  1  0.00040059  0.16075767  0.48644518  1
  Ag  Ag40  1  0.00556851  0.84285344  0.16879860  1
  Ag  Ag41  1  0.49457032  0.32512887  0.16677313  1
  Ag  Ag42  1  0.00562674  0.16677628  0.83597010  1
  Ag  Ag43  1  0.32906663  0.00691058  0.01318166  1
  Ag  Ag44  1  0.16835819  0.00173223  0.84026382  1
  Ag  Ag45  1  0.01224021  0.15953013  0.16949710  1
  Ag  Ag46  1  0.17411604  0.49960679  0.32083793  1
  Ag  Ag47  1  0.00885841  0.66588211  0.00130573  1
  Ag  Ag48  1  0.48974341  0.16762340  0.00771173  1
  Ag  Ag49  1  0.83548242  0.49410438  0.66731479  1
  Ag  Ag50  1  0.00968143  0.00093817  0.32987579  1
  Ag  Ag51  1  0.66189160  0.50153492  0.16755949  1
  Ag  Ag52  1  0.84624557  0.16140995  0.33370589  1
  Ag  Ag53  1  0.33120570  0.66456623  0.65649264  1
  Sb  Sb54  1  0.66573291  0.82971651  0.49498391  1
  Sb  Sb55  1  0.33572201  0.33627201  0.66596879  1
  Sb  Sb56  1  0.83905134  0.00261505  0.83971030  1
  Sb  Sb57  1  0.17487380  0.33174530  0.16180256  1
  Sb  Sb58  1  0.32612826  0.83430698  0.83042920  1
  Sb  Sb59  1  -0.00339615  0.33306664  0.66695004  1
  Sb  Sb60  1  0.50218282  0.33425145  0.49683308  1
  Sb  Sb61  1  0.83451047  0.49686789  0.33521848  1
  Sb  Sb62  1  0.49378791  0.66441510  0.83145893  1
  Sb  Sb63  1  0.84398880  0.83356078  0.00632714  1
  Sb  Sb64  1  0.32423649  0.83835561  0.17352570  1
  Sb  Sb65  1  0.16656333  0.17000450  0.66937245  1
  Sb  Sb66  1  0.67011024  0.82898124  0.83599675  1
  Sb  Sb67  1  0.83995996  0.00561787  0.49000864  1
  Sb  Sb68  1  0.32812670  0.16191064  0.49027383  1
  Sb  Sb69  1  0.00686236  0.66461339  0.67099771  1
  Sb  Sb70  1  0.49426612  0.49665812  0.00569272  1
  Sb  Sb71  1  0.65985755  0.66776774  0.32945954  1
  Sb  Sb72  1  0.65696311  -0.00232128  0.00656482  1
  Sb  Sb73  1  0.01119096  0.33646292  0.00043023  1
  Sb  Sb74  1  0.82777439  0.32923289  0.17278759  1
  Sb  Sb75  1  0.84172807  0.66500519  0.83324044  1
  Sb  Sb76  1  0.48989200  0.83850742  0.00771986  1
  Sb  Sb77  1  0.67104040  0.83091995  0.16863256  1
  Sb  Sb78  1  0.49836292  0.49571058  0.66423571  1
  Sb  Sb79  1  0.01002575  0.67262677  0.32661886  1
  Sb  Sb80  1  0.33205673  -0.00008758  0.66317698  1
  Sb  Sb81  1  0.00017829  0.50068449  0.49800255  1
  Sb  Sb82  1  0.66202714  0.65668163  0.66910133  1
  Sb  Sb83  1  0.83489888  0.33362774  0.82916482  1
  Sb  Sb84  1  0.66456833  0.17100877  0.83286771  1
  Sb  Sb85  1  0.32897562  0.49896122  0.83918838  1
  Sb  Sb86  1  0.84063990  0.66794071  0.16825409  1
  Sb  Sb87  1  0.32973290  0.16641527  0.84119645  1
  Sb  Sb88  1  0.00837875  0.32658661  0.32931733  1
  Sb  Sb89  1  0.01123669  -0.00303072  0.00786381  1
  Sb  Sb90  1  0.33526415  0.50438821  0.49121784  1
  Sb  Sb91  1  0.16676680  0.82958495  0.66494457  1
  Sb  Sb92  1  0.49430594  -0.00188056  0.49122384  1
  Sb  Sb93  1  0.66499792  0.00800207  0.66185722  1
  Sb  Sb94  1  0.67088812  0.17136295  0.49674857  1
  Sb  Sb95  1  0.66075353  0.16751775  0.16840039  1
  Sb  Sb96  1  0.83768689  0.49929065  -0.00209497  1
  Sb  Sb97  1  0.49144221  0.66814173  0.17171651  1
  Sb  Sb98  1  0.84130069  0.16517485  0.00513171  1
  Sb  Sb99  1  0.17018581  0.67063708  0.49500495  1
  Sb  Sb100  1  0.66067055  0.33068242  0.33465550  1
  Sb  Sb101  1  0.49831143  0.83836202  0.66203630  1
  Sb  Sb102  1  0.83062465  0.66382838  0.49826512  1
  Sb  Sb103  1  0.83661765  0.83589023  0.65959313  1
  Sb  Sb104  1  0.65732177  0.33687776  -0.00238574  1
  Sb  Sb105  1  0.16344216  0.33046457  0.50136535  1
  Sb  Sb106  1  0.32842252  0.66667774  0.00598220  1
  Sb  Sb107  1  0.00173374  0.00232872  0.66276666  1
  Te  Te108  1  0.16873165  0.16912111  0.16639726  1
  Te  Te109  1  0.16056405  0.16211339  0.50212988  1
  Te  Te110  1  0.16438716  0.16720236  0.83263976  1
  Te  Te111  1  0.16839127  0.49387946  0.16395606  1
  Te  Te112  1  0.16510408  0.49970382  0.50397508  1
  Te  Te113  1  0.16694322  0.49982609  0.83563076  1
  Te  Te114  1  0.16417061  0.83297100  0.16817763  1
  Te  Te115  1  0.16529086  0.83653926  0.49898550  1
  Te  Te116  1  0.16389154  0.83497550  0.83118178  1
  Te  Te117  1  0.49846204  0.16590234  0.16794347  1
  Te  Te118  1  0.50108266  0.16602333  0.49698213  1
  Te  Te119  1  0.50064431  0.16794151  0.83387751  1
  Te  Te120  1  0.50143909  0.50283891  0.16940717  1
  Te  Te121  1  0.50362042  0.50188570  0.49624583  1
  Te  Te122  1  0.50273222  0.49686492  0.83373815  1
  Te  Te123  1  0.50194832  0.83632326  0.17277336  1
  Te  Te124  1  0.49796567  0.83016559  0.49414809  1
  Te  Te125  1  0.50068883  0.83638779  0.83454992  1
  Te  Te126  1  0.83456713  0.16261975  0.17166746  1
  Te  Te127  1  0.83761007  0.16925964  0.49848157  1
  Te  Te128  1  0.83918969  0.16650757  0.83317597  1
  Te  Te129  1  0.82791239  0.49858533  0.16669533  1
  Te  Te130  1  0.83111508  0.49643307  0.50392103  1
  Te  Te131  1  0.83132083  0.49951906  0.82855940  1
  Te  Te132  1  0.84054184  0.83741662  0.17283980  1
  Te  Te133  1  0.83854491  0.83291983  0.49439815  1
  Te  Te134  1  0.84153031  0.83392911  0.83200668  1
  Te  Te135  1  0.16953468  0.00102681  0.00010606  1
  Te  Te136  1  0.16534205  0.00077119  0.32880418  1
  Te  Te137  1  0.16751563  0.00132246  0.68035733  1
  Te  Te138  1  0.17287637  0.33027282  -0.00567316  1
  Te  Te139  1  0.17274045  0.34066464  0.33785742  1
  Te  Te140  1  0.16795926  0.33870351  0.67242122  1
  Te  Te141  1  0.16703537  0.66660744  0.00300294  1
  Te  Te142  1  0.17190393  0.65842717  0.32965971  1
  Te  Te143  1  0.17180119  0.66185737  0.66600193  1
  Te  Te144  1  0.49290300  0.00348394  0.00165788  1
  Te  Te145  1  0.49673847  0.00150874  0.33177493  1
  Te  Te146  1  0.50015219  0.00643139  0.67181602  1
  Te  Te147  1  0.49296869  0.33027537  -0.00004797  1
  Te  Te148  1  0.49627834  0.33374976  0.33066663  1
  Te  Te149  1  0.50257140  0.32929296  0.66877641  1
  Te  Te150  1  0.50163312  0.66902038  -0.00067503  1
  Te  Te151  1  0.49534691  0.66257684  0.33569404  1
  Te  Te152  1  0.49388220  0.66789602  0.66253042  1
  Te  Te153  1  0.82733001  -0.00086803  0.01000764  1
  Te  Te154  1  0.83315805  0.00161641  0.33077696  1
  Te  Te155  1  0.83153347  0.00665853  0.66751064  1
  Te  Te156  1  0.83023957  0.33135923  0.00141905  1
  Te  Te157  1  0.83161011  0.32742305  0.33899428  1
  Te  Te158  1  0.83004357  0.33302726  0.66410423  1
  Te  Te159  1  0.83092230  0.66728991  0.00028092  1
  Te  Te160  1  0.83207230  0.67106198  0.33365986  1
  Te  Te161  1  0.83145060  0.66105358  0.66573637  1
  Te  Te162  1  0.00604640  0.16777020  0.00045954  1
  Te  Te163  1  0.00507338  0.16529955  0.32969485  1
  Te  Te164  1  -0.00331449  0.16745915  0.67364102  1
  Te  Te165  1  0.00307517  0.50205585  -0.00073240  1
  Te  Te166  1  0.00258958  0.50028340  0.32906305  1
  Te  Te167  1  -0.00029744  0.49974622  0.66787586  1
  Te  Te168  1  0.00606241  0.82922801  -0.00047887  1
  Te  Te169  1  0.00662695  0.83444559  0.32919585  1
  Te  Te170  1  -0.00143404  0.83305488  0.67368811  1
  Te  Te171  1  0.33184277  0.16595650  0.00296550  1
  Te  Te172  1  0.32964877  0.16421592  0.32981268  1
  Te  Te173  1  0.33957844  0.16850005  0.66225213  1
  Te  Te174  1  0.32773030  0.49900538  0.00651665  1
  Te  Te175  1  0.33406578  0.49882459  0.33160669  1
  Te  Te176  1  0.33010715  0.50376944  0.66585407  1
  Te  Te177  1  0.32512651  0.83724675  -0.00163838  1
  Te  Te178  1  0.32859337  0.83442408  0.33346758  1
  Te  Te179  1  0.33475260  0.82774769  0.65792068  1
  Te  Te180  1  0.66310400  0.16693769  -0.00039845  1
  Te  Te181  1  0.66488708  0.16266273  0.33274778  1
  Te  Te182  1  0.66830848  0.17289706  0.66557677  1
  Te  Te183  1  0.66676823  0.50210464  -0.00083393  1
  Te  Te184  1  0.66729762  0.49975200  0.33309705  1
  Te  Te185  1  0.66663942  0.49580734  0.66827655  1
  Te  Te186  1  0.66749314  0.82719239  -0.00011368  1
  Te  Te187  1  0.66441422  0.83702364  0.33363520  1
  Te  Te188  1  0.66888621  0.83250729  0.66565293  1
  Te  Te189  1  0.00534637  0.00184166  0.16807520  1
  Te  Te190  1  0.00479826  -0.00017726  0.49672733  1
  Te  Te191  1  0.00264392  0.00117371  0.83474780  1
  Te  Te192  1  -0.00623289  0.33986851  0.16594931  1
  Te  Te193  1  -0.00542162  0.32866642  0.49902405  1
  Te  Te194  1  0.00308712  0.33555854  0.83391815  1
  Te  Te195  1  0.00499464  0.65956925  0.16159769  1
  Te  Te196  1  -0.00061011  0.67338149  0.50079018  1
  Te  Te197  1  0.00615372  0.66177742  0.83752912  1
  Te  Te198  1  0.32985735  0.00035482  0.16926347  1
  Te  Te199  1  0.32685567  -0.00545492  0.49656897  1
  Te  Te200  1  0.33429943  -0.00037986  0.83035208  1
  Te  Te201  1  0.33711400  0.33152441  0.16890290  1
  Te  Te202  1  0.33303963  0.33243663  0.49492772  1
  Te  Te203  1  0.33470004  0.33331748  0.83334878  1
  Te  Te204  1  0.32699612  0.65990762  0.17111755  1
  Te  Te205  1  0.33590436  0.66971096  0.49545623  1
  Te  Te206  1  0.32651900  0.66715581  0.83249711  1
  Te  Te207  1  0.66255219  -0.00137906  0.17128155  1
  Te  Te208  1  0.66609971  -0.00113777  0.49393757  1
  Te  Te209  1  0.66432850  -0.00171785  0.83390751  1
  Te  Te210  1  0.65867016  0.33956187  0.16599749  1
  Te  Te211  1  0.66949587  0.33863961  0.50377194  1
  Te  Te212  1  0.66442383  0.33828904  0.83013824  1
  Te  Te213  1  0.66807407  0.66268924  0.16295713  1
  Te  Te214  1  0.66094568  0.66011759  0.50072657  1
  Te  Te215  1  0.66559904  0.66084097  0.83718449  1
