# generated using pymatgen
data_AgSbTe2
_symmetry_space_group_name_H-M   'P 1'
_cell_length_a   18.33351222
_cell_length_b   18.33611935
_cell_length_c   18.33637989
_cell_angle_alpha   90.00175176
_cell_angle_beta   90.00296989
_cell_angle_gamma   89.99814909
_symmetry_Int_Tables_number   1
_chemical_formula_structural   AgSbTe2
_chemical_formula_sum   'Ag54 Sb54 Te108'
_cell_volume   6164.05771457
_cell_formula_units_Z   54
loop_
 _symmetry_equiv_pos_site_id
 _symmetry_equiv_pos_as_xyz
  1  'x, y, z'
loop_
 _atom_site_type_symbol
 _atom_site_label
 _atom_site_symmetry_multiplicity
 _atom_site_fract_x
 _atom_site_fract_y
 _atom_site_fract_z
 _atom_site_occupancy
  Ag  Ag0  1  0.33286166  0.67368630  -0.00261865  1
  Ag  Ag1  1  0.49933757  0.51192858  0.33410790  1
  Ag  Ag2  1  -0.00293636  0.16485214  0.16509221  1
  Ag  Ag3  1  0.50873894  0.15971502  -0.00382215  1
  Ag  Ag4  1  -0.00457445  0.16966500  0.83466266  1
  Ag  Ag5  1  0.66582352  -0.00193646  0.67479046  1
  Ag  Ag6  1  0.84118191  0.66528311  0.15772375  1
  Ag  Ag7  1  0.83973975  0.50900412  0.67290469  1
  Ag  Ag8  1  0.49517956  -0.00406120  0.83508393  1
  Ag  Ag9  1  0.83733289  0.34056460  0.83596590  1
  Ag  Ag10  1  0.83786388  0.82698008  0.66146432  1
  Ag  Ag11  1  0.83606915  0.82789953  0.33719626  1
  Ag  Ag12  1  0.67643518  0.83012730  0.49910147  1
  Ag  Ag13  1  0.16628268  -0.00185460  0.50934413  1
  Ag  Ag14  1  0.32478523  -0.00561076  0.67015746  1
  Ag  Ag15  1  0.50900465  0.67017059  0.49215949  1
  Ag  Ag16  1  0.83599547  0.51316231  -0.00759037  1
  Ag  Ag17  1  0.17004747  0.00115947  0.82753797  1
  Ag  Ag18  1  0.32653251  0.50553664  0.82977688  1
  Ag  Ag19  1  0.33218983  -0.00935939  0.34230688  1
  Ag  Ag20  1  -0.00936683  0.67290954  0.01101833  1
  Ag  Ag21  1  0.33930178  0.67277353  0.33821758  1
  Ag  Ag22  1  -0.00253451  0.33821775  0.33631653  1
  Ag  Ag23  1  0.00326098  0.33485066  0.66315996  1
  Ag  Ag24  1  -0.00320720  -0.00428045  0.00145499  1
  Ag  Ag25  1  0.32097669  0.34253608  0.66651213  1
  Ag  Ag26  1  0.00180375  0.16242209  0.50052606  1
  Ag  Ag27  1  0.67450788  -0.00355121  -0.00505908  1
  Ag  Ag28  1  0.33126730  0.67002067  0.66805173  1
  Ag  Ag29  1  -0.00161660  0.83343294  0.49734771  1
  Ag  Ag30  1  0.15341774  0.67265241  0.16700721  1
  Ag  Ag31  1  0.68063633  0.67210404  -0.00013636  1
  Ag  Ag32  1  0.66923858  0.51338024  0.50026319  1
  Ag  Ag33  1  0.16193248  0.32867554  0.50785925  1
  Ag  Ag34  1  0.16398333  0.16440688  0.66500775  1
  Ag  Ag35  1  0.16092547  0.49947821  0.66807961  1
  Ag  Ag36  1  0.83596351  0.82528823  -0.00044473  1
  Ag  Ag37  1  0.83042133  0.66992229  0.49854513  1
  Ag  Ag38  1  -0.00110182  0.82481330  0.17177697  1
  Ag  Ag39  1  0.50264674  0.66963567  0.83267243  1
  Ag  Ag40  1  0.83316469  0.66188528  0.84398954  1
  Ag  Ag41  1  0.83497880  0.16388573  -0.00089270  1
  Ag  Ag42  1  0.83796061  0.16221545  0.32684197  1
  Ag  Ag43  1  0.32899626  -0.00543006  -0.00622672  1
  Ag  Ag44  1  0.83900675  0.34115744  0.16200502  1
  Ag  Ag45  1  -0.00370281  0.49867291  0.83343585  1
  Ag  Ag46  1  -0.00988196  0.66748328  0.32412290  1
  Ag  Ag47  1  0.67524174  0.16140700  0.83523655  1
  Ag  Ag48  1  -0.00342973  0.51305277  0.16229722  1
  Ag  Ag49  1  0.16419481  0.83661380  0.66361148  1
  Ag  Ag50  1  0.32964780  0.83226786  0.50044550  1
  Ag  Ag51  1  0.16350299  -0.00613436  0.16473804  1
  Ag  Ag52  1  0.49891816  0.82783278  0.33758864  1
  Ag  Ag53  1  0.67243034  0.66898354  0.34162866  1
  Sb  Sb54  1  0.50223002  0.66770509  0.16980339  1
  Sb  Sb55  1  0.50598653  0.16213759  0.32946448  1
  Sb  Sb56  1  0.50319390  0.33372276  0.83170611  1
  Sb  Sb57  1  0.33081005  0.16592666  0.83175378  1
  Sb  Sb58  1  0.84011796  0.33811623  0.50078700  1
  Sb  Sb59  1  0.84103461  0.16527604  0.66955847  1
  Sb  Sb60  1  -0.00189339  0.83235597  0.83337473  1
  Sb  Sb61  1  0.67228786  0.50113905  0.82938268  1
  Sb  Sb62  1  0.33303753  0.83115463  0.82876448  1
  Sb  Sb63  1  0.32518394  0.83231382  0.17134362  1
  Sb  Sb64  1  0.15882648  0.33007402  0.82644633  1
  Sb  Sb65  1  0.16462866  0.67056582  0.49844419  1
  Sb  Sb66  1  0.33485772  0.51021504  0.50557635  1
  Sb  Sb67  1  0.15934535  0.16047039  -0.00558355  1
  Sb  Sb68  1  0.67691537  0.34056087  0.33585173  1
  Sb  Sb69  1  0.32457105  0.16414295  0.16448127  1
  Sb  Sb70  1  0.66823295  0.67122504  0.66488957  1
  Sb  Sb71  1  0.49888418  0.83179381  0.66188722  1
  Sb  Sb72  1  0.67637997  0.16048889  0.50417666  1
  Sb  Sb73  1  0.83348780  0.50775047  0.33351060  1
  Sb  Sb74  1  -0.00304595  0.33395790  -0.00087222  1
  Sb  Sb75  1  0.67324659  0.33024343  0.66678776  1
  Sb  Sb76  1  0.32670065  0.15967832  0.50208660  1
  Sb  Sb77  1  0.83475634  -0.00155853  0.83535202  1
  Sb  Sb78  1  0.50463848  0.83443295  0.00395042  1
  Sb  Sb79  1  0.67593843  0.83136081  0.16990492  1
  Sb  Sb80  1  0.84114059  -0.00503658  0.16360918  1
  Sb  Sb81  1  0.66873775  0.83655336  0.82905393  1
  Sb  Sb82  1  0.15854695  0.16319983  0.33828445  1
  Sb  Sb83  1  0.00018323  0.66494000  0.66758797  1
  Sb  Sb84  1  0.32511773  0.50455249  0.16193884  1
  Sb  Sb85  1  0.00404319  -0.00344633  0.32951561  1
  Sb  Sb86  1  0.16712774  0.50453543  0.33867843  1
  Sb  Sb87  1  0.67271954  0.33409928  -0.00175930  1
  Sb  Sb88  1  0.33367228  0.33239567  -0.00731181  1
  Sb  Sb89  1  0.49355752  0.34150143  0.50101619  1
  Sb  Sb90  1  0.66443116  -0.00773875  0.33320007  1
  Sb  Sb91  1  0.84029577  -0.00821801  0.50088762  1
  Sb  Sb92  1  0.15818786  0.50382760  -0.00566632  1
  Sb  Sb93  1  0.67549838  0.50435214  0.16986801  1
  Sb  Sb94  1  0.16143092  0.83400658  -0.00312815  1
  Sb  Sb95  1  0.15548315  0.33417291  0.17328661  1
  Sb  Sb96  1  0.50043880  0.50493342  0.66540368  1
  Sb  Sb97  1  0.67707283  0.16385649  0.15919591  1
  Sb  Sb98  1  0.49498023  0.16288993  0.67053995  1
  Sb  Sb99  1  0.00384438  0.00187832  0.67124190  1
  Sb  Sb100  1  0.49300793  -0.00105928  0.15959323  1
  Sb  Sb101  1  -0.00278521  0.50325806  0.50150268  1
  Sb  Sb102  1  0.16335512  0.83340746  0.33899042  1
  Sb  Sb103  1  0.49488516  -0.00767846  0.50557286  1
  Sb  Sb104  1  0.50621440  0.33374709  0.16735175  1
  Sb  Sb105  1  0.50472785  0.50308739  0.00227655  1
  Sb  Sb106  1  0.32653516  0.33537469  0.34028078  1
  Sb  Sb107  1  0.16440717  0.66892605  0.83457730  1
  Te  Te108  1  0.15776281  0.16550864  0.16690235  1
  Te  Te109  1  0.16148728  0.16340878  0.50397758  1
  Te  Te110  1  0.16177993  0.16244221  0.82757931  1
  Te  Te111  1  0.15751333  0.50279546  0.16603515  1
  Te  Te112  1  0.16673189  0.49796435  0.50733466  1
  Te  Te113  1  0.16416163  0.49929308  0.82768804  1
  Te  Te114  1  0.15937048  0.83333505  0.16404504  1
  Te  Te115  1  0.16508048  0.83617918  0.50462701  1
  Te  Te116  1  0.16557832  0.83970450  0.82529494  1
  Te  Te117  1  0.50015589  0.16761823  0.16019175  1
  Te  Te118  1  0.50390455  0.16779369  0.49821043  1
  Te  Te119  1  0.50184788  0.16526671  0.83710727  1
  Te  Te120  1  0.49967408  0.49821727  0.17234129  1
  Te  Te121  1  0.50361297  0.50804713  0.49621798  1
  Te  Te122  1  0.50039766  0.50366632  0.83478296  1
  Te  Te123  1  0.49944500  0.83385852  0.17691511  1
  Te  Te124  1  0.49624400  0.82835024  0.49603024  1
  Te  Te125  1  0.50099360  0.83169683  0.83506582  1
  Te  Te126  1  0.83843764  0.16362996  0.16582176  1
  Te  Te127  1  0.84076437  0.16677077  0.49795950  1
  Te  Te128  1  0.83509261  0.16533223  0.83343688  1
  Te  Te129  1  0.83883434  0.50081778  0.16691526  1
  Te  Te130  1  0.83002123  0.50431464  0.50317663  1
  Te  Te131  1  0.83368496  0.50107992  0.83281014  1
  Te  Te132  1  0.83919922  0.82885600  0.16510641  1
  Te  Te133  1  0.83610634  0.83163562  0.49943617  1
  Te  Te134  1  0.83351843  0.82588301  0.83446025  1
  Te  Te135  1  0.16702495  -0.00098185  -0.00035307  1
  Te  Te136  1  0.17347949  -0.00016667  0.32889648  1
  Te  Te137  1  0.16533906  -0.00152787  0.66756271  1
  Te  Te138  1  0.16906792  0.33285249  0.00248345  1
  Te  Te139  1  0.15911179  0.33359976  0.34187748  1
  Te  Te140  1  0.16449306  0.33396962  0.66616679  1
  Te  Te141  1  0.17319629  0.66771546  0.00379634  1
  Te  Te142  1  0.16952019  0.66675643  0.32813832  1
  Te  Te143  1  0.16992420  0.66698182  0.66652553  1
  Te  Te144  1  0.49918955  0.00035922  -0.00526468  1
  Te  Te145  1  0.49359316  -0.00368991  0.33290613  1
  Te  Te146  1  0.50015434  -0.00130233  0.67394236  1
  Te  Te147  1  0.50224716  0.32647465  0.00049283  1
  Te  Te148  1  0.50024535  0.33349909  0.33353956  1
  Te  Te149  1  0.49250677  0.33260017  0.66608976  1
  Te  Te150  1  0.49240900  0.66714549  -0.00257935  1
  Te  Te151  1  0.49956480  0.66932540  0.33259496  1
  Te  Te152  1  0.49441732  0.66722381  0.67217975  1
  Te  Te153  1  0.83382532  0.00305617  -0.00084626  1
  Te  Te154  1  0.83149776  -0.00126223  0.33239450  1
  Te  Te155  1  0.82944514  -0.00601259  0.66774449  1
  Te  Te156  1  0.83400617  0.32558543  -0.00081155  1
  Te  Te157  1  0.83944895  0.33075023  0.33218864  1
  Te  Te158  1  0.83922658  0.33489952  0.66981528  1
  Te  Te159  1  0.83606162  0.66852496  -0.00011003  1
  Te  Te160  1  0.83173062  0.66751869  0.33779372  1
  Te  Te161  1  0.83332441  0.66748452  0.66034382  1
  Te  Te162  1  -0.00328983  0.16591174  -0.00383054  1
  Te  Te163  1  -0.00398509  0.16353313  0.33689708  1
  Te  Te164  1  0.00381429  0.16870781  0.66660679  1
  Te  Te165  1  -0.00491104  0.50126118  -0.00161624  1
  Te  Te166  1  0.00056870  0.50220868  0.33086391  1
  Te  Te167  1  -0.00038134  0.49876031  0.66863832  1
  Te  Te168  1  -0.00313963  0.83328788  0.00001049  1
  Te  Te169  1  -0.00289608  0.83089836  0.33359740  1
  Te  Te170  1  -0.00089860  0.83318807  0.66377358  1
  Te  Te171  1  0.33507279  0.16346709  -0.00074597  1
  Te  Te172  1  0.33610781  0.16475023  0.33316408  1
  Te  Te173  1  0.32737257  0.15891209  0.66660004  1
  Te  Te174  1  0.33412952  0.50131321  -0.00674838  1
  Te  Te175  1  0.33725369  0.50258044  0.33322273  1
  Te  Te176  1  0.33374416  0.50336075  0.67017487  1
  Te  Te177  1  0.33514923  0.83462474  0.00164466  1
  Te  Te178  1  0.33081196  0.83270714  0.33613008  1
  Te  Te179  1  0.33272808  0.83327613  0.66313631  1
  Te  Te180  1  0.66944635  0.16527329  -0.00455733  1
  Te  Te181  1  0.67408583  0.16605503  0.33363759  1
  Te  Te182  1  0.66586658  0.16096638  0.67133705  1
  Te  Te183  1  0.67296372  0.50642810  -0.00005457  1
  Te  Te184  1  0.66270629  0.50637119  0.33725676  1
  Te  Te185  1  0.67130175  0.49812468  0.66137901  1
  Te  Te186  1  0.67174799  0.83334516  0.00115777  1
  Te  Te187  1  0.67191734  0.82916376  0.33689925  1
  Te  Te188  1  0.66943690  0.83763564  0.66092406  1
  Te  Te189  1  0.00430367  0.00410143  0.16298814  1
  Te  Te190  1  0.00591624  -0.00122311  0.49874490  1
  Te  Te191  1  0.00276959  0.00240376  0.83907493  1
  Te  Te192  1  -0.00466042  0.32508699  0.17018016  1
  Te  Te193  1  0.00249480  0.33444806  0.50026758  1
  Te  Te194  1  -0.00395176  0.33447253  0.83228506  1
  Te  Te195  1  -0.00214948  0.66878867  0.16719318  1
  Te  Te196  1  -0.00304129  0.67086506  0.49755601  1
  Te  Te197  1  -0.00315793  0.66263509  0.83661813  1
  Te  Te198  1  0.32529746  -0.00031610  0.16022801  1
  Te  Te199  1  0.32932566  -0.00521344  0.50176050  1
  Te  Te200  1  0.33368641  -0.00013269  0.83262974  1
  Te  Te201  1  0.33288704  0.33430256  0.16878795  1
  Te  Te202  1  0.32616995  0.33178651  0.50630768  1
  Te  Te203  1  0.33415021  0.33831922  0.82616333  1
  Te  Te204  1  0.33282360  0.66629336  0.16550439  1
  Te  Te205  1  0.33198169  0.67210357  0.49847972  1
  Te  Te206  1  0.33151520  0.66579783  0.83186136  1
  Te  Te207  1  0.66290060  -0.00124406  0.15860651  1
  Te  Te208  1  0.66444087  -0.00636593  0.50265630  1
  Te  Te209  1  0.66665377  0.00137146  0.83568350  1
  Te  Te210  1  0.67817540  0.33295331  0.16749308  1
  Te  Te211  1  0.66456165  0.33424590  0.50106594  1
  Te  Te212  1  0.67309020  0.32644968  0.83161286  1
  Te  Te213  1  0.67144996  0.66710455  0.16195543  1
  Te  Te214  1  0.66552132  0.67056509  0.50210733  1
  Te  Te215  1  0.66608264  0.66738048  0.83495110  1
