# generated using pymatgen
data_AgSbTe2
_symmetry_space_group_name_H-M   'P 1'
_cell_length_a   18.34869514
_cell_length_b   18.35032980
_cell_length_c   18.34730639
_cell_angle_alpha   89.99811029
_cell_angle_beta   90.00401360
_cell_angle_gamma   90.00147500
_symmetry_Int_Tables_number   1
_chemical_formula_structural   AgSbTe2
_chemical_formula_sum   'Ag54 Sb54 Te108'
_cell_volume   6177.62257418
_cell_formula_units_Z   54
loop_
 _symmetry_equiv_pos_site_id
 _symmetry_equiv_pos_as_xyz
  1  'x, y, z'
loop_
 _atom_site_type_symbol
 _atom_site_label
 _atom_site_symmetry_multiplicity
 _atom_site_fract_x
 _atom_site_fract_y
 _atom_site_fract_z
 _atom_site_occupancy
  Ag  Ag0  1  0.33101384  0.16751030  0.82734771  1
  Ag  Ag1  1  0.32716516  0.65362960  0.65955970  1
  Ag  Ag2  1  0.16644364  0.66435370  0.17013413  1
  Ag  Ag3  1  0.49836216  0.16706618  0.34438585  1
  Ag  Ag4  1  0.17839612  0.82391572  0.33426068  1
  Ag  Ag5  1  0.01026647  0.00063878  -0.00371030  1
  Ag  Ag6  1  0.49138379  0.17573893  0.66370168  1
  Ag  Ag7  1  0.48804163  0.49239600  0.66062743  1
  Ag  Ag8  1  0.33809301  0.34212899  0.34179118  1
  Ag  Ag9  1  0.01488396  0.84119873  0.83027943  1
  Ag  Ag10  1  0.01441305  0.66283900  0.66859258  1
  Ag  Ag11  1  0.17007818  0.68175006  0.81885892  1
  Ag  Ag12  1  0.66510246  0.66415489  0.00129657  1
  Ag  Ag13  1  0.33402180  0.49275279  0.82287830  1
  Ag  Ag14  1  0.49829376  0.00244746  0.17915991  1
  Ag  Ag15  1  0.17451771  -0.00719052  0.83166335  1
  Ag  Ag16  1  0.17759833  0.50639668  0.66643264  1
  Ag  Ag17  1  0.65529738  0.49856773  0.82136369  1
  Ag  Ag18  1  0.49415199  0.49597004  0.34373370  1
  Ag  Ag19  1  0.49146857  0.00777438  0.83066078  1
  Ag  Ag20  1  0.17242289  0.33151933  0.82454060  1
  Ag  Ag21  1  0.49373676  0.65363608  0.49869153  1
  Ag  Ag22  1  0.17713894  0.66640067  0.50994566  1
  Ag  Ag23  1  0.49822515  0.16317556  -0.01316061  1
  Ag  Ag24  1  0.83944907  0.66671341  0.16935914  1
  Ag  Ag25  1  0.17822887  0.50574053  0.34005854  1
  Ag  Ag26  1  0.66458065  0.50127260  0.17264061  1
  Ag  Ag27  1  0.84044042  0.83538918  0.66394679  1
  Ag  Ag28  1  0.17430845  0.17358939  0.67140445  1
  Ag  Ag29  1  0.65413464  0.17078785  0.50164670  1
  Ag  Ag30  1  0.65491418  0.33518557  0.34342101  1
  Ag  Ag31  1  0.83456446  0.16634866  0.66562378  1
  Ag  Ag32  1  0.49049042  0.32792401  0.82658969  1
  Ag  Ag33  1  0.32974066  0.83247317  0.17085665  1
  Ag  Ag34  1  0.33436695  0.33856171  0.66682423  1
  Ag  Ag35  1  0.01336977  0.16202477  0.83026961  1
  Ag  Ag36  1  0.01762205  0.33351297  0.66925808  1
  Ag  Ag37  1  0.16783282  0.34122453  0.16748832  1
  Ag  Ag38  1  0.00998702  0.49946735  0.16852984  1
  Ag  Ag39  1  0.65443414  0.49432018  0.49946089  1
  Ag  Ag40  1  0.82457175  -0.00037622  0.50009100  1
  Ag  Ag41  1  0.16698649  0.81778591  0.67790533  1
  Ag  Ag42  1  0.65260895  0.33431083  0.66337524  1
  Ag  Ag43  1  0.33065032  0.66092774  0.34258254  1
  Ag  Ag44  1  0.33704483  0.50063196  0.50883278  1
  Ag  Ag45  1  0.16951680  0.83385533  -0.01277066  1
  Ag  Ag46  1  0.32850192  0.83843604  0.83161802  1
  Ag  Ag47  1  0.83193585  0.83284205  0.33679456  1
  Ag  Ag48  1  0.33767517  0.17087933  0.51145319  1
  Ag  Ag49  1  0.49694695  0.83745727  0.33624679  1
  Ag  Ag50  1  0.65734792  0.00235326  0.33710957  1
  Ag  Ag51  1  0.50057174  0.00978316  0.49852777  1
  Ag  Ag52  1  0.33169652  -0.00189325  -0.00642335  1
  Ag  Ag53  1  0.00301175  0.16904785  0.16136685  1
  Sb  Sb54  1  0.83270950  0.50220096  0.00089336  1
  Sb  Sb55  1  0.17274900  -0.00521155  0.50668367  1
  Sb  Sb56  1  0.83087012  0.16314225  -0.00592016  1
  Sb  Sb57  1  0.83410896  0.33225942  0.82872156  1
  Sb  Sb58  1  0.65826625  0.17275944  0.82395957  1
  Sb  Sb59  1  0.17465779  0.16866783  0.33719494  1
  Sb  Sb60  1  0.00719035  0.83199998  0.16359640  1
  Sb  Sb61  1  0.33384351  0.82831783  0.50156976  1
  Sb  Sb62  1  0.66431710  0.83530206  0.49916393  1
  Sb  Sb63  1  0.33454887  0.00356627  0.67270671  1
  Sb  Sb64  1  0.82709037  0.16234051  0.33921354  1
  Sb  Sb65  1  0.17082082  0.33920499  0.50497024  1
  Sb  Sb66  1  0.65923167  0.66392823  0.33243119  1
  Sb  Sb67  1  0.49387014  0.83304210  0.66302129  1
  Sb  Sb68  1  0.17172782  -0.00228012  0.16234718  1
  Sb  Sb69  1  0.66679349  0.17194781  0.17338278  1
  Sb  Sb70  1  0.00995489  0.66755859  0.33623902  1
  Sb  Sb71  1  0.17181861  0.16085835  -0.00884553  1
  Sb  Sb72  1  0.49880575  0.49750553  -0.00237082  1
  Sb  Sb73  1  0.00560245  0.50178623  0.49884578  1
  Sb  Sb74  1  0.00604292  0.33391002  0.33656367  1
  Sb  Sb75  1  0.00699395  0.49846921  0.83369251  1
  Sb  Sb76  1  0.66604155  0.00684996  0.66071203  1
  Sb  Sb77  1  0.33176843  0.16432169  0.16526403  1
  Sb  Sb78  1  0.83002805  -0.00365097  0.17189973  1
  Sb  Sb79  1  0.16874892  0.50471199  -0.00238814  1
  Sb  Sb80  1  0.65976177  -0.00321541  0.00393755  1
  Sb  Sb81  1  0.00174830  0.83349545  0.50683699  1
  Sb  Sb82  1  0.82716399  0.32739081  0.50210770  1
  Sb  Sb83  1  0.66172617  0.82978563  0.83147049  1
  Sb  Sb84  1  0.00369629  0.16653119  0.50633911  1
  Sb  Sb85  1  0.83822794  0.66702669  0.83314503  1
  Sb  Sb86  1  0.49157863  0.83821427  0.00330235  1
  Sb  Sb87  1  0.00412781  0.32811102  -0.00428418  1
  Sb  Sb88  1  0.33891061  -0.00284248  0.33186430  1
  Sb  Sb89  1  0.49666946  0.33294420  0.50713995  1
  Sb  Sb90  1  -0.00162151  -0.00078370  0.32849790  1
  Sb  Sb91  1  0.33257986  0.32788189  -0.00642130  1
  Sb  Sb92  1  0.83071334  0.67113175  0.49716833  1
  Sb  Sb93  1  0.49588679  0.66925798  0.17278162  1
  Sb  Sb94  1  0.66312393  0.33638737  -0.00271945  1
  Sb  Sb95  1  0.82945621  0.50531441  0.33352779  1
  Sb  Sb96  1  0.66379003  0.66003856  0.66848527  1
  Sb  Sb97  1  0.00186819  0.67000736  -0.00222262  1
  Sb  Sb98  1  0.49483294  0.33076474  0.16752270  1
  Sb  Sb99  1  0.83932251  0.83340710  -0.00068581  1
  Sb  Sb100  1  0.83417728  0.49869590  0.66477086  1
  Sb  Sb101  1  0.33259900  0.50394067  0.17082448  1
  Sb  Sb102  1  0.49036393  0.66465101  0.82789845  1
  Sb  Sb103  1  0.83435196  -0.00036747  0.82700394  1
  Sb  Sb104  1  0.00147600  0.00060813  0.67163116  1
  Sb  Sb105  1  0.33375518  0.67085149  -0.00217012  1
  Sb  Sb106  1  0.83719848  0.33800105  0.17043732  1
  Sb  Sb107  1  0.66173789  0.82915816  0.16930774  1
  Te  Te108  1  0.16298779  0.16581462  0.16776869  1
  Te  Te109  1  0.17161957  0.16408443  0.50614117  1
  Te  Te110  1  0.16944214  0.17061647  0.83194405  1
  Te  Te111  1  0.16787226  0.50126803  0.16465363  1
  Te  Te112  1  0.16984298  0.50474575  0.50004518  1
  Te  Te113  1  0.16858649  0.49234881  0.83137151  1
  Te  Te114  1  0.17012527  0.83300186  0.17672417  1
  Te  Te115  1  0.16675549  0.82806365  0.49301470  1
  Te  Te116  1  0.16934959  0.83637510  0.83181341  1
  Te  Te117  1  0.50062639  0.16276483  0.17018921  1
  Te  Te118  1  0.49857914  0.16912250  0.50199256  1
  Te  Te119  1  0.49833486  0.16754808  0.82656052  1
  Te  Te120  1  0.50320747  0.50002247  0.16658142  1
  Te  Te121  1  0.49726956  0.49681079  0.50019006  1
  Te  Te122  1  0.49774402  0.50018801  0.83123301  1
  Te  Te123  1  0.49427294  0.83812651  0.17132141  1
  Te  Te124  1  0.49990537  0.83829101  0.49579146  1
  Te  Te125  1  0.49368977  0.83659600  0.83275771  1
  Te  Te126  1  0.83933983  0.16648857  0.16583129  1
  Te  Te127  1  0.83530793  0.15995999  0.50495441  1
  Te  Te128  1  0.83583436  0.16501925  0.82667041  1
  Te  Te129  1  0.83032927  0.50553230  0.16775624  1
  Te  Te130  1  0.82965830  0.50170069  0.49920276  1
  Te  Te131  1  0.82680106  0.50064743  0.83333323  1
  Te  Te132  1  0.83418410  0.82866840  0.16897574  1
  Te  Te133  1  0.83300346  0.83732891  0.50038464  1
  Te  Te134  1  0.83331456  0.83262736  0.82841744  1
  Te  Te135  1  0.16934769  -0.00413334  -0.00406861  1
  Te  Te136  1  0.16638829  -0.00285960  0.33553087  1
  Te  Te137  1  0.16597597  0.00258515  0.67166873  1
  Te  Te138  1  0.16639591  0.33214062  0.00614394  1
  Te  Te139  1  0.17100887  0.33693203  0.33078993  1
  Te  Te140  1  0.17358854  0.33308642  0.66591753  1
  Te  Te141  1  0.16631327  0.67249386  0.00819800  1
  Te  Te142  1  0.16905399  0.66446094  0.32962532  1
  Te  Te143  1  0.16947998  0.66279008  0.66536033  1
  Te  Te144  1  0.49723080  0.00304688  -0.00710550  1
  Te  Te145  1  0.50007663  0.00177783  0.33645237  1
  Te  Te146  1  0.50221143  0.00015435  0.66577938  1
  Te  Te147  1  0.49988352  0.32574019  -0.00682851  1
  Te  Te148  1  0.49845814  0.33474610  0.32779222  1
  Te  Te149  1  0.49643727  0.33525544  0.67029482  1
  Te  Te150  1  0.50417115  0.66760256  0.00013179  1
  Te  Te151  1  0.49465772  0.66440887  0.33736627  1
  Te  Te152  1  0.49613500  0.66447462  0.66070508  1
  Te  Te153  1  0.83362676  -0.00132684  0.00132545  1
  Te  Te154  1  0.82857788  -0.00553293  0.33728851  1
  Te  Te155  1  0.83289409  -0.00186288  0.66098221  1
  Te  Te156  1  0.83358450  0.33208456  0.00020143  1
  Te  Te157  1  0.82807755  0.33237542  0.33477527  1
  Te  Te158  1  0.83116546  0.32873926  0.66639890  1
  Te  Te159  1  0.83021152  0.66860154  0.00602351  1
  Te  Te160  1  0.83352842  0.67307068  0.33030928  1
  Te  Te161  1  0.83469538  0.67154371  0.66560710  1
  Te  Te162  1  -0.00110060  0.16218622  -0.00291284  1
  Te  Te163  1  0.00004056  0.16791116  0.32981133  1
  Te  Te164  1  0.00041066  0.16869728  0.66944069  1
  Te  Te165  1  -0.00004692  0.49923028  0.00762141  1
  Te  Te166  1  0.00196996  0.49948807  0.32809042  1
  Te  Te167  1  0.00184746  0.49859668  0.66709270  1
  Te  Te168  1  0.00613280  0.83791087  -0.00538478  1
  Te  Te169  1  -0.00629597  0.83408383  0.33249457  1
  Te  Te170  1  0.00377809  0.83342852  0.67085266  1
  Te  Te171  1  0.33873052  0.16009162  -0.00250590  1
  Te  Te172  1  0.33827465  0.17061858  0.33257831  1
  Te  Te173  1  0.33438921  0.16618288  0.66836964  1
  Te  Te174  1  0.33404715  0.50015446  -0.00951639  1
  Te  Te175  1  0.33425790  0.50051810  0.33145776  1
  Te  Te176  1  0.33353476  0.49901189  0.66758354  1
  Te  Te177  1  0.32883285  0.83692742  -0.00172703  1
  Te  Te178  1  0.33683846  0.83165652  0.33418270  1
  Te  Te179  1  0.32854026  0.82955504  0.66874616  1
  Te  Te180  1  0.66170578  0.16610523  0.00026909  1
  Te  Te181  1  0.66259452  0.16891453  0.33832673  1
  Te  Te182  1  0.66883516  0.17203404  0.66120372  1
  Te  Te183  1  0.66626377  0.50345910  0.00547429  1
  Te  Te184  1  0.66396755  0.49732546  0.33593165  1
  Te  Te185  1  0.66787098  0.49582922  0.66401219  1
  Te  Te186  1  0.66772703  0.82781968  0.00031689  1
  Te  Te187  1  0.66363316  0.83609410  0.33287952  1
  Te  Te188  1  0.67194680  0.83194297  0.66734443  1
  Te  Te189  1  -0.00105680  0.00321941  0.16034247  1
  Te  Te190  1  -0.00298475  0.00078790  0.49738150  1
  Te  Te191  1  -0.00041959  0.00093905  0.83677367  1
  Te  Te192  1  0.00417442  0.33386870  0.16746471  1
  Te  Te193  1  -0.00167402  0.33409465  0.50877773  1
  Te  Te194  1  0.00355866  0.32937118  0.82860926  1
  Te  Te195  1  0.00096911  0.66424573  0.16602249  1
  Te  Te196  1  0.00083380  0.66640711  0.50744983  1
  Te  Te197  1  0.00620343  0.66742928  0.83016087  1
  Te  Te198  1  0.33803438  -0.00397489  0.16162033  1
  Te  Te199  1  0.33834958  0.00694683  0.49865235  1
  Te  Te200  1  0.33357492  0.00112748  0.83368262  1
  Te  Te201  1  0.32768297  0.33369031  0.16537728  1
  Te  Te202  1  0.33145809  0.33436169  0.49960423  1
  Te  Te203  1  0.33225636  0.33070900  0.83245260  1
  Te  Te204  1  0.32920756  0.67139071  0.16632305  1
  Te  Te205  1  0.33402175  0.66531938  0.49948819  1
  Te  Te206  1  0.32810532  0.66961264  0.83337230  1
  Te  Te207  1  0.66099934  0.00101195  0.17232004  1
  Te  Te208  1  0.66356012  0.00230466  0.49606136  1
  Te  Te209  1  0.66267070  -0.00039359  0.83506892  1
  Te  Te210  1  0.66817946  0.33883184  0.16772390  1
  Te  Te211  1  0.66681410  0.33266834  0.50106707  1
  Te  Te212  1  0.66546650  0.33944191  0.82947218  1
  Te  Te213  1  0.66583513  0.66258641  0.16498344  1
  Te  Te214  1  0.66187583  0.66152130  0.50012215  1
  Te  Te215  1  0.66654477  0.66130539  0.83713754  1
