# generated using pymatgen
data_AgSbTe2
_symmetry_space_group_name_H-M   'P 1'
_cell_length_a   18.32606917
_cell_length_b   18.32308099
_cell_length_c   18.31891297
_cell_angle_alpha   90.00166390
_cell_angle_beta   90.00164910
_cell_angle_gamma   90.00150812
_symmetry_Int_Tables_number   1
_chemical_formula_structural   AgSbTe2
_chemical_formula_sum   'Ag54 Sb54 Te108'
_cell_volume   6151.30868919
_cell_formula_units_Z   54
loop_
 _symmetry_equiv_pos_site_id
 _symmetry_equiv_pos_as_xyz
  1  'x, y, z'
loop_
 _atom_site_type_symbol
 _atom_site_label
 _atom_site_symmetry_multiplicity
 _atom_site_fract_x
 _atom_site_fract_y
 _atom_site_fract_z
 _atom_site_occupancy
  Ag  Ag0  1  0.16402616  0.33934185  0.16381993  1
  Ag  Ag1  1  0.67097406  0.67052182  0.66729102  1
  Ag  Ag2  1  0.33433684  0.83312888  0.50010507  1
  Ag  Ag3  1  -0.00191707  0.66712120  0.32449191  1
  Ag  Ag4  1  0.84292154  0.33470713  0.16193156  1
  Ag  Ag5  1  0.33435035  0.33377495  0.66671982  1
  Ag  Ag6  1  -0.00561185  0.00333234  0.00897216  1
  Ag  Ag7  1  0.67328718  0.83222077  0.15673927  1
  Ag  Ag8  1  0.33439347  -0.00474485  0.33428382  1
  Ag  Ag9  1  0.51265943  0.83239322  -0.00289005  1
  Ag  Ag10  1  0.66793277  -0.00584581  0.33064545  1
  Ag  Ag11  1  0.00095846  0.16800407  0.16189835  1
  Ag  Ag12  1  0.67562010  0.16485928  0.83130235  1
  Ag  Ag13  1  0.83133043  -0.00072650  0.50411900  1
  Ag  Ag14  1  0.66866076  0.50203085  0.50320639  1
  Ag  Ag15  1  0.83834929  -0.00721180  0.16474267  1
  Ag  Ag16  1  -0.00150409  0.33601583  0.67496310  1
  Ag  Ag17  1  0.15901024  0.33566193  0.83691703  1
  Ag  Ag18  1  0.66952008  0.67426040  -0.00012835  1
  Ag  Ag19  1  0.15580031  0.66473529  0.16858816  1
  Ag  Ag20  1  0.33243746  -0.00089465  0.66207509  1
  Ag  Ag21  1  0.82674346  0.83214787  0.00332711  1
  Ag  Ag22  1  0.32572509  0.49527387  0.16599676  1
  Ag  Ag23  1  0.50022258  0.34206171  0.50410476  1
  Ag  Ag24  1  -0.00063700  0.33038140  -0.00063888  1
  Ag  Ag25  1  0.50347878  0.82855003  0.66805273  1
  Ag  Ag26  1  0.50373276  0.66214333  0.50225479  1
  Ag  Ag27  1  0.16464444  0.49872836  0.00384363  1
  Ag  Ag28  1  0.83115017  0.66265058  0.83328611  1
  Ag  Ag29  1  0.83431035  0.16949675  0.67088483  1
  Ag  Ag30  1  0.50460220  0.50095990  0.66520502  1
  Ag  Ag31  1  0.67205733  -0.00798775  0.66879053  1
  Ag  Ag32  1  -0.00862250  -0.00056791  0.66983575  1
  Ag  Ag33  1  0.00314597  0.50058898  0.16711298  1
  Ag  Ag34  1  0.49171961  0.33517635  0.16847607  1
  Ag  Ag35  1  -0.00652086  0.83091316  0.16568113  1
  Ag  Ag36  1  0.32979609  0.66757370  0.33236066  1
  Ag  Ag37  1  0.50074961  0.33576798  0.83028728  1
  Ag  Ag38  1  0.16718574  0.83357288  0.66518761  1
  Ag  Ag39  1  0.66090390  0.33624206  0.33049932  1
  Ag  Ag40  1  0.16957316  0.83152792  0.32941119  1
  Ag  Ag41  1  0.83285137  0.49931604  0.66728471  1
  Ag  Ag42  1  0.66794304  0.83557256  0.84426031  1
  Ag  Ag43  1  0.66875839  0.67016453  0.33310461  1
  Ag  Ag44  1  0.32544727  0.17708479  0.16919240  1
  Ag  Ag45  1  0.83660393  0.33468717  0.83243507  1
  Ag  Ag46  1  0.67482734  -0.01242771  0.00145088  1
  Ag  Ag47  1  0.33788615  0.33572167  0.32482010  1
  Ag  Ag48  1  0.15677379  -0.00294898  0.16681870  1
  Ag  Ag49  1  -0.00882906  0.66278142  0.66369359  1
  Ag  Ag50  1  0.33328109  0.49576747  0.83207948  1
  Ag  Ag51  1  -0.00585591  0.17183049  0.83532140  1
  Ag  Ag52  1  0.83702495  0.67129411  0.16381842  1
  Ag  Ag53  1  -0.00583699  0.50161030  0.50320692  1
  Sb  Sb54  1  0.66793746  0.16924067  0.50426183  1
  Sb  Sb55  1  0.83071289  0.83229916  0.67245450  1
  Sb  Sb56  1  0.16075284  0.66254002  0.83690980  1
  Sb  Sb57  1  0.33193912  0.17327737  0.83491987  1
  Sb  Sb58  1  0.16389272  0.00329315  0.83619528  1
  Sb  Sb59  1  0.33492837  0.16434001  0.49665034  1
  Sb  Sb60  1  0.67146793  0.16332157  0.16225097  1
  Sb  Sb61  1  0.33248366  0.83107433  0.17193124  1
  Sb  Sb62  1  0.83316798  0.16641299  0.33297887  1
  Sb  Sb63  1  0.00088549  0.49400196  0.83473008  1
  Sb  Sb64  1  0.50067832  0.16917919  0.33133781  1
  Sb  Sb65  1  0.00151755  0.82985780  0.49824753  1
  Sb  Sb66  1  0.83490398  0.16213601  -0.00386862  1
  Sb  Sb67  1  0.66878589  0.50276576  0.17104638  1
  Sb  Sb68  1  0.50187636  0.00144460  0.16716374  1
  Sb  Sb69  1  0.16790213  0.66756570  0.49479969  1
  Sb  Sb70  1  0.16755078  0.16128295  0.32698501  1
  Sb  Sb71  1  0.83433644  0.83278818  0.32659952  1
  Sb  Sb72  1  0.16435693  0.50231178  0.67090913  1
  Sb  Sb73  1  0.16977224  0.33661484  0.49827200  1
  Sb  Sb74  1  0.33529552  0.66534579  0.66172362  1
  Sb  Sb75  1  -0.00569752  0.83628029  0.83582979  1
  Sb  Sb76  1  0.66589874  0.50076881  0.82814512  1
  Sb  Sb77  1  -0.00315402  0.17032237  0.50204899  1
  Sb  Sb78  1  0.66700499  0.33577063  0.66541882  1
  Sb  Sb79  1  0.33184248  -0.00187983  0.00337096  1
  Sb  Sb80  1  0.49742863  0.83149424  0.33436538  1
  Sb  Sb81  1  0.83392000  0.50047609  0.33532730  1
  Sb  Sb82  1  0.83634939  0.50326755  -0.00148964  1
  Sb  Sb83  1  0.16348110  0.82979260  0.00334464  1
  Sb  Sb84  1  0.33904903  0.82901130  0.82610683  1
  Sb  Sb85  1  0.83007177  0.33394194  0.50157150  1
  Sb  Sb86  1  0.50431285  0.16899951  0.66830872  1
  Sb  Sb87  1  0.16142374  0.16391324  0.66865138  1
  Sb  Sb88  1  0.50213749  0.16532115  0.00062028  1
  Sb  Sb89  1  0.00199209  0.33882892  0.32818602  1
  Sb  Sb90  1  0.50057414  0.49918717  0.33825800  1
  Sb  Sb91  1  0.82989664  0.66960963  0.50017086  1
  Sb  Sb92  1  0.50332905  -0.00191200  0.50227881  1
  Sb  Sb93  1  -0.00129157  -0.00644644  0.32898698  1
  Sb  Sb94  1  0.16301874  -0.00315482  0.49728604  1
  Sb  Sb95  1  -0.00610493  0.66633126  0.00319928  1
  Sb  Sb96  1  0.67218512  0.33411492  0.00254165  1
  Sb  Sb97  1  0.50624777  0.66354552  0.82791113  1
  Sb  Sb98  1  0.50363454  0.00249973  0.83215866  1
  Sb  Sb99  1  0.33499372  0.50180163  0.49930491  1
  Sb  Sb100  1  0.16740834  0.50579670  0.32561750  1
  Sb  Sb101  1  0.33757868  0.66619296  0.00525990  1
  Sb  Sb102  1  0.83133878  0.00185673  0.83564088  1
  Sb  Sb103  1  0.32845628  0.33473091  0.00206876  1
  Sb  Sb104  1  0.16258231  0.17247520  0.00202025  1
  Sb  Sb105  1  0.50282607  0.66312194  0.17112233  1
  Sb  Sb106  1  0.49821101  0.50265346  -0.00390030  1
  Sb  Sb107  1  0.66330068  0.82917593  0.50005336  1
  Te  Te108  1  0.16387413  0.16522291  0.16588901  1
  Te  Te109  1  0.16587994  0.16651011  0.49873210  1
  Te  Te110  1  0.16082724  0.17490547  0.83434601  1
  Te  Te111  1  0.16531178  0.50079883  0.16528447  1
  Te  Te112  1  0.15754297  0.50138330  0.50110608  1
  Te  Te113  1  0.17163638  0.49535963  0.83820595  1
  Te  Te114  1  0.16603369  0.83198242  0.16763289  1
  Te  Te115  1  0.17139124  0.83329790  0.50300534  1
  Te  Te116  1  0.16827421  0.83259293  0.82995722  1
  Te  Te117  1  0.49690244  0.17422711  0.16508512  1
  Te  Te118  1  0.50030376  0.17926184  0.50053733  1
  Te  Te119  1  0.50203296  0.17572358  0.83411285  1
  Te  Te120  1  0.49716826  0.49473784  0.16433166  1
  Te  Te121  1  0.50074755  0.50051598  0.50535211  1
  Te  Te122  1  0.49556228  0.49543247  0.82863050  1
  Te  Te123  1  0.50446788  0.83229699  0.16293076  1
  Te  Te124  1  0.49538606  0.83093499  0.50497624  1
  Te  Te125  1  0.50611054  0.83288486  0.83053015  1
  Te  Te126  1  0.83857642  0.17030304  0.16599913  1
  Te  Te127  1  0.83334203  0.15974258  0.50851999  1
  Te  Te128  1  0.83491805  0.17032927  0.83013556  1
  Te  Te129  1  0.83716887  0.49852717  0.16662244  1
  Te  Te130  1  0.83262878  0.50114762  0.50620906  1
  Te  Te131  1  0.83353729  0.49930262  0.82873644  1
  Te  Te132  1  0.83316929  0.83291862  0.16522267  1
  Te  Te133  1  0.83364107  0.83998901  0.49881400  1
  Te  Te134  1  0.82863860  0.82710573  0.83981496  1
  Te  Te135  1  0.16207753  -0.00140976  0.00587544  1
  Te  Te136  1  0.16997333  -0.00611567  0.32950353  1
  Te  Te137  1  0.16909196  -0.00370178  0.66730265  1
  Te  Te138  1  0.16211047  0.33759107  0.00176915  1
  Te  Te139  1  0.17271491  0.33226566  0.32917962  1
  Te  Te140  1  0.16691848  0.33290325  0.66730934  1
  Te  Te141  1  0.16746004  0.66122634  0.00596298  1
  Te  Te142  1  0.16721555  0.67137286  0.32887626  1
  Te  Te143  1  0.16411900  0.67152798  0.66744185  1
  Te  Te144  1  0.50428697  -0.00644950  -0.00068568  1
  Te  Te145  1  0.50002948  -0.00004305  0.33545766  1
  Te  Te146  1  0.49998477  -0.00259762  0.66557926  1
  Te  Te147  1  0.50299129  0.33412523  -0.00106284  1
  Te  Te148  1  0.49934170  0.33398218  0.32906492  1
  Te  Te149  1  0.49950423  0.33528295  0.66824686  1
  Te  Te150  1  0.50673974  0.67101535  -0.00120231  1
  Te  Te151  1  0.50397241  0.66634172  0.33915377  1
  Te  Te152  1  0.50143772  0.66564006  0.66294124  1
  Te  Te153  1  0.83416498  -0.00411555  0.00236327  1
  Te  Te154  1  0.82970184  -0.00007213  0.32836037  1
  Te  Te155  1  0.83269680  -0.00192570  0.66947905  1
  Te  Te156  1  0.83805931  0.33512551  0.00001031  1
  Te  Te157  1  0.82900804  0.33278019  0.33061975  1
  Te  Te158  1  0.83497713  0.33517019  0.66676639  1
  Te  Te159  1  0.82919684  0.66906298  0.00174139  1
  Te  Te160  1  0.83282609  0.66651558  0.32933710  1
  Te  Te161  1  0.83224905  0.66556376  0.66597597  1
  Te  Te162  1  -0.00080993  0.16637838  0.00077345  1
  Te  Te163  1  0.00001421  0.16687737  0.32794717  1
  Te  Te164  1  -0.00396976  0.16707734  0.66794665  1
  Te  Te165  1  0.00281191  0.49666823  0.00471839  1
  Te  Te166  1  0.00026829  0.50659624  0.33222902  1
  Te  Te167  1  -0.00116683  0.49971131  0.66799853  1
  Te  Te168  1  -0.00236800  0.83744357  0.00399276  1
  Te  Te169  1  0.00617194  0.82676436  0.33042772  1
  Te  Te170  1  0.00113059  0.83499782  0.66691751  1
  Te  Te171  1  0.33393209  0.16391522  0.00831872  1
  Te  Te172  1  0.33377230  0.16627147  0.32882469  1
  Te  Te173  1  0.33337476  0.16737831  0.66623018  1
  Te  Te174  1  0.33009527  0.50071951  0.00198567  1
  Te  Te175  1  0.33371655  0.49909991  0.33048987  1
  Te  Te176  1  0.33485106  0.49602719  0.66701817  1
  Te  Te177  1  0.33741568  0.83360942  -0.00340999  1
  Te  Te178  1  0.33114388  0.83316635  0.33659735  1
  Te  Te179  1  0.33499900  0.83409615  0.66366047  1
  Te  Te180  1  0.66708637  0.16231890  -0.00762733  1
  Te  Te181  1  0.66754932  0.16310969  0.33253546  1
  Te  Te182  1  0.67133839  0.16227289  0.67154528  1
  Te  Te183  1  0.66669762  0.50782845  0.00038839  1
  Te  Te184  1  0.66758122  0.50096596  0.33954077  1
  Te  Te185  1  0.66640993  0.50269985  0.66382505  1
  Te  Te186  1  0.66883889  0.83157113  0.00018323  1
  Te  Te187  1  0.66522252  0.83390376  0.33277497  1
  Te  Te188  1  0.66467787  0.83200032  0.66487411  1
  Te  Te189  1  -0.00161921  -0.00133607  0.16780396  1
  Te  Te190  1  -0.00538035  0.00072963  0.50325374  1
  Te  Te191  1  0.00031162  0.00495874  0.82957352  1
  Te  Te192  1  0.00131125  0.33523590  0.16760330  1
  Te  Te193  1  -0.00032004  0.33878490  0.50094517  1
  Te  Te194  1  -0.00138858  0.33263212  0.83376996  1
  Te  Te195  1  -0.00251699  0.66710442  0.16481827  1
  Te  Te196  1  -0.00086264  0.66302478  0.50358370  1
  Te  Te197  1  -0.00635630  0.66729185  0.82935050  1
  Te  Te198  1  0.33352986  0.00004522  0.17110351  1
  Te  Te199  1  0.33355131  -0.00263447  0.49987080  1
  Te  Te200  1  0.33288149  0.00294209  0.82691056  1
  Te  Te201  1  0.33061501  0.33482065  0.16564215  1
  Te  Te202  1  0.33722437  0.33353375  0.50224018  1
  Te  Te203  1  0.33380913  0.33455199  0.83291130  1
  Te  Te204  1  0.33445280  0.66237035  0.17251813  1
  Te  Te205  1  0.33715589  0.66894026  0.49331578  1
  Te  Te206  1  0.33099085  0.65947913  0.83403994  1
  Te  Te207  1  0.66837354  -0.00141489  0.16734179  1
  Te  Te208  1  0.66960390  0.00080035  0.49955397  1
  Te  Te209  1  0.66611953  -0.00192792  0.83124895  1
  Te  Te210  1  0.67023559  0.33286273  0.17013057  1
  Te  Te211  1  0.66279290  0.33701358  0.49429112  1
  Te  Te212  1  0.67120967  0.33114267  0.83429471  1
  Te  Te213  1  0.66830775  0.66863989  0.17203147  1
  Te  Te214  1  0.66508675  0.66334499  0.49947162  1
  Te  Te215  1  0.67040946  0.66777303  0.82806437  1
