# generated using pymatgen
data_AgSbTe2
_symmetry_space_group_name_H-M   'P 1'
_cell_length_a   18.35223958
_cell_length_b   18.34425668
_cell_length_c   18.34568492
_cell_angle_alpha   90.00190914
_cell_angle_beta   90.00170827
_cell_angle_gamma   90.00071992
_symmetry_Int_Tables_number   1
_chemical_formula_structural   AgSbTe2
_chemical_formula_sum   'Ag54 Sb54 Te108'
_cell_volume   6176.22513715
_cell_formula_units_Z   54
loop_
 _symmetry_equiv_pos_site_id
 _symmetry_equiv_pos_as_xyz
  1  'x, y, z'
loop_
 _atom_site_type_symbol
 _atom_site_label
 _atom_site_symmetry_multiplicity
 _atom_site_fract_x
 _atom_site_fract_y
 _atom_site_fract_z
 _atom_site_occupancy
  Ag  Ag0  1  0.83829010  0.33232143  0.16463689  1
  Ag  Ag1  1  0.16380010  0.67119564  0.49582684  1
  Ag  Ag2  1  0.49772974  0.16910665  0.66308194  1
  Ag  Ag3  1  0.00136713  0.83536278  0.83077546  1
  Ag  Ag4  1  0.00074483  0.17120433  0.82170983  1
  Ag  Ag5  1  0.15963820  0.32520096  0.16838087  1
  Ag  Ag6  1  0.16367359  0.50102650  0.33055978  1
  Ag  Ag7  1  0.67330502  0.16949692  0.83661870  1
  Ag  Ag8  1  0.16145495  0.16433970  0.66167210  1
  Ag  Ag9  1  0.32389381  0.66495878  0.65442564  1
  Ag  Ag10  1  0.00180134  0.66491136  0.65961716  1
  Ag  Ag11  1  0.32918935  0.00336376  0.01510140  1
  Ag  Ag12  1  0.16629856  0.00565546  0.49491863  1
  Ag  Ag13  1  0.49345337  0.49128297  0.00499337  1
  Ag  Ag14  1  0.00256821  0.00930471  0.66238827  1
  Ag  Ag15  1  0.83352499  0.33398785  0.83705494  1
  Ag  Ag16  1  0.32929545  -0.00234683  0.33453163  1
  Ag  Ag17  1  0.00685763  0.16603747  0.50687378  1
  Ag  Ag18  1  0.17077971  0.16723005  0.01183013  1
  Ag  Ag19  1  -0.00010019  0.50532226  0.49406256  1
  Ag  Ag20  1  0.32210913  0.67142884  0.33586762  1
  Ag  Ag21  1  0.84317947  0.50394921  0.32547812  1
  Ag  Ag22  1  0.33247513  0.84231728  0.49609795  1
  Ag  Ag23  1  0.84231370  0.01262654  0.17305975  1
  Ag  Ag24  1  0.16418666  0.00654182  0.82953180  1
  Ag  Ag25  1  0.49178722  0.17081344  0.00118546  1
  Ag  Ag26  1  -0.00285868  0.49345673  0.17517803  1
  Ag  Ag27  1  0.83818181  0.65435520  0.82759983  1
  Ag  Ag28  1  0.33120259  0.84432592  0.17736779  1
  Ag  Ag29  1  0.84344024  0.66866148  0.49821414  1
  Ag  Ag30  1  0.32217887  0.16446424  0.17296602  1
  Ag  Ag31  1  0.00528875  0.66068273  0.34179215  1
  Ag  Ag32  1  0.50640804  0.33239214  0.83610680  1
  Ag  Ag33  1  0.83667655  0.65247662  0.17680586  1
  Ag  Ag34  1  0.49727676  0.49886451  0.32933092  1
  Ag  Ag35  1  0.16898155  0.49584286  0.00843890  1
  Ag  Ag36  1  0.16995853  0.83945871  0.33395893  1
  Ag  Ag37  1  0.84533559  0.16734359  0.66567336  1
  Ag  Ag38  1  0.49951543  0.33213571  0.16546649  1
  Ag  Ag39  1  0.48569690  0.00761302  0.49735912  1
  Ag  Ag40  1  0.83922609  0.00001115  0.49500267  1
  Ag  Ag41  1  0.00739116  0.17391519  0.16874170  1
  Ag  Ag42  1  0.66811955  0.17238986  0.16419605  1
  Ag  Ag43  1  0.16632544  0.00777457  0.17406247  1
  Ag  Ag44  1  -0.00000542  0.49596162  0.83163112  1
  Ag  Ag45  1  0.66220013  0.83800292  0.49762249  1
  Ag  Ag46  1  0.67142983  0.48759690  0.84046180  1
  Ag  Ag47  1  0.32394274  0.50098313  0.83591820  1
  Ag  Ag48  1  0.32352108  0.16031073  0.49617479  1
  Ag  Ag49  1  -0.00045494  0.32450488  0.66772621  1
  Ag  Ag50  1  0.65974054  0.00121671  0.33627362  1
  Ag  Ag51  1  0.67845801  0.49138136  0.16576356  1
  Ag  Ag52  1  0.16700348  0.16061991  0.32804773  1
  Ag  Ag53  1  0.49811533  0.32603018  0.50116696  1
  Sb  Sb54  1  0.66508097  0.83566706  0.17451167  1
  Sb  Sb55  1  0.49672284  0.83848599  0.00105547  1
  Sb  Sb56  1  0.32857231  0.49539761  0.16603610  1
  Sb  Sb57  1  0.83678640  0.49602636  0.66721862  1
  Sb  Sb58  1  0.66763046  0.66160140  0.00085886  1
  Sb  Sb59  1  0.49489165  0.00783127  0.17205143  1
  Sb  Sb60  1  0.83945355  0.83102177  0.33492427  1
  Sb  Sb61  1  0.00315581  0.83317986  0.16583793  1
  Sb  Sb62  1  0.16646924  0.32881112  0.49558786  1
  Sb  Sb63  1  0.00566481  -0.00102136  0.33694819  1
  Sb  Sb64  1  0.49449133  0.16951254  0.33237482  1
  Sb  Sb65  1  0.32946227  0.33406052  0.66749047  1
  Sb  Sb66  1  0.66901442  0.66860863  0.33385771  1
  Sb  Sb67  1  0.49207206  0.83223994  0.33320263  1
  Sb  Sb68  1  0.00107048  0.33754841  0.33436131  1
  Sb  Sb69  1  0.00568947  0.00395480  -0.00238227  1
  Sb  Sb70  1  0.16064261  0.66682564  0.82733957  1
  Sb  Sb71  1  0.84002045  0.00527255  0.83154535  1
  Sb  Sb72  1  0.67020192  0.33022498  0.66882549  1
  Sb  Sb73  1  0.16373120  0.32962503  0.83696118  1
  Sb  Sb74  1  0.83740707  0.16725024  0.00008717  1
  Sb  Sb75  1  0.32698574  0.00085565  0.66046900  1
  Sb  Sb76  1  0.67289064  0.83565686  0.82743791  1
  Sb  Sb77  1  0.66557101  0.33045995  0.32997872  1
  Sb  Sb78  1  0.83512890  0.33247774  0.49925797  1
  Sb  Sb79  1  0.00412607  0.83313498  0.50169487  1
  Sb  Sb80  1  0.32744568  0.83098771  0.83045402  1
  Sb  Sb81  1  0.16427805  0.66477411  0.17461237  1
  Sb  Sb82  1  0.16718702  0.83688949  0.00455535  1
  Sb  Sb83  1  0.33145092  0.66754678  0.00436388  1
  Sb  Sb84  1  0.83861319  0.16867154  0.33323116  1
  Sb  Sb85  1  0.16478432  0.83761609  0.66052120  1
  Sb  Sb86  1  0.83641775  0.49906571  0.00266311  1
  Sb  Sb87  1  0.49602748  0.66632541  0.49906966  1
  Sb  Sb88  1  0.50154568  0.65550257  0.83223748  1
  Sb  Sb89  1  0.67032286  0.66449995  0.66524469  1
  Sb  Sb90  1  0.83719388  0.83604175  0.66389000  1
  Sb  Sb91  1  0.33253954  0.33176728  0.33254700  1
  Sb  Sb92  1  0.49826186  0.49446439  0.66622234  1
  Sb  Sb93  1  0.16208876  0.49581546  0.66393570  1
  Sb  Sb94  1  0.67142574  0.50220514  0.49555950  1
  Sb  Sb95  1  0.66761535  0.16232043  0.49722771  1
  Sb  Sb96  1  0.49617656  0.00953110  0.82906596  1
  Sb  Sb97  1  0.32877617  0.17072519  0.83334295  1
  Sb  Sb98  1  0.00103078  0.66319707  -0.00038107  1
  Sb  Sb99  1  0.66197054  0.00560955  0.00716546  1
  Sb  Sb100  1  0.50100735  0.65894127  0.16832583  1
  Sb  Sb101  1  0.83453532  0.83397962  0.00020248  1
  Sb  Sb102  1  0.49774826  0.83963863  0.66407770  1
  Sb  Sb103  1  0.67227680  0.00467748  0.66067601  1
  Sb  Sb104  1  0.00166916  0.33302454  -0.00058882  1
  Sb  Sb105  1  0.33457796  0.32838411  0.00070078  1
  Sb  Sb106  1  0.32914165  0.49775839  0.49991880  1
  Sb  Sb107  1  0.66417711  0.33284621  0.00121471  1
  Te  Te108  1  0.16677440  0.16699704  0.16751741  1
  Te  Te109  1  0.16526793  0.16822173  0.50017885  1
  Te  Te110  1  0.16271943  0.16567301  0.82786584  1
  Te  Te111  1  0.16300902  0.49920337  0.16639510  1
  Te  Te112  1  0.16055854  0.49701184  0.49690906  1
  Te  Te113  1  0.16555275  0.49973310  0.83204775  1
  Te  Te114  1  0.17116075  0.83703305  0.17090286  1
  Te  Te115  1  0.16997757  0.83317682  0.49641973  1
  Te  Te116  1  0.16141235  0.83727793  0.83519102  1
  Te  Te117  1  0.50823739  0.17120270  0.16609505  1
  Te  Te118  1  0.50270680  0.16635495  0.49833581  1
  Te  Te119  1  0.49663712  0.17090997  0.83695242  1
  Te  Te120  1  0.49615483  0.49532741  0.16562350  1
  Te  Te121  1  0.50182570  0.49779857  0.49631699  1
  Te  Te122  1  0.50592251  0.49338590  0.83390215  1
  Te  Te123  1  0.49369008  0.83089221  0.16478603  1
  Te  Te124  1  0.49703903  0.83592603  0.49989153  1
  Te  Te125  1  0.50209238  0.83299580  0.83296081  1
  Te  Te126  1  0.82875759  0.16974087  0.16633200  1
  Te  Te127  1  0.83640279  0.16445081  0.50159884  1
  Te  Te128  1  0.83520187  0.16896157  0.83395055  1
  Te  Te129  1  0.83492178  0.49731981  0.16510910  1
  Te  Te130  1  0.83743015  0.50266056  0.49749953  1
  Te  Te131  1  0.83282049  0.49711763  0.83458823  1
  Te  Te132  1  0.83218037  0.83469119  0.16767324  1
  Te  Te133  1  0.83293567  0.83467965  0.49876528  1
  Te  Te134  1  0.83895403  0.83335806  0.83272118  1
  Te  Te135  1  0.17061935  0.00257044  0.00389264  1
  Te  Te136  1  0.16715683  0.00040662  0.33447328  1
  Te  Te137  1  0.16225023  0.00273137  0.66689113  1
  Te  Te138  1  0.16784801  0.33371508  0.00565679  1
  Te  Te139  1  0.16707258  0.33804316  0.32735606  1
  Te  Te140  1  0.16117171  0.32683223  0.66749169  1
  Te  Te141  1  0.16896603  0.66152184  -0.00103467  1
  Te  Te142  1  0.16562111  0.66149273  0.33425807  1
  Te  Te143  1  0.16641612  0.66659287  0.65998915  1
  Te  Te144  1  0.49219322  0.00630328  -0.00189227  1
  Te  Te145  1  0.49770623  -0.00116783  0.33999815  1
  Te  Te146  1  0.50111410  0.00655573  0.65980472  1
  Te  Te147  1  0.50013587  0.33279977  -0.00016303  1
  Te  Te148  1  0.50017888  0.33830377  0.33198877  1
  Te  Te149  1  0.49933339  0.32819368  0.66551089  1
  Te  Te150  1  0.49929695  0.66206384  -0.00085976  1
  Te  Te151  1  0.49853362  0.66010394  0.33447811  1
  Te  Te152  1  0.49862533  0.66738778  0.66714771  1
  Te  Te153  1  0.83118823  0.00017039  0.00988473  1
  Te  Te154  1  0.83638342  -0.00139719  0.33267910  1
  Te  Te155  1  0.84007552  0.00479244  0.66427651  1
  Te  Te156  1  0.83264934  0.33267777  0.00066181  1
  Te  Te157  1  0.83165470  0.34063837  0.32890439  1
  Te  Te158  1  0.83833695  0.32734446  0.66760892  1
  Te  Te159  1  0.83326746  0.66773971  -0.00108190  1
  Te  Te160  1  0.83507350  0.66422124  0.33548685  1
  Te  Te161  1  0.83782369  0.66735046  0.66430012  1
  Te  Te162  1  0.00646334  0.16657486  0.01118902  1
  Te  Te163  1  0.00542525  0.16709435  0.32857390  1
  Te  Te164  1  0.00000868  0.16551354  0.66464080  1
  Te  Te165  1  0.00608341  0.49920390  -0.00242249  1
  Te  Te166  1  -0.00057171  0.50063136  0.33390906  1
  Te  Te167  1  -0.00154349  0.50513389  0.66817083  1
  Te  Te168  1  0.00048620  0.83405461  -0.00978088  1
  Te  Te169  1  0.00868923  0.82266406  0.33214507  1
  Te  Te170  1  0.00027328  0.82463686  0.67299303  1
  Te  Te171  1  0.33033645  0.16328856  -0.00133198  1
  Te  Te172  1  0.32933328  0.16597020  0.33440007  1
  Te  Te173  1  0.33627407  0.16758091  0.66247638  1
  Te  Te174  1  0.33197900  0.50169723  -0.00320003  1
  Te  Te175  1  0.33201467  0.50206403  0.33356690  1
  Te  Te176  1  0.33206653  0.50487406  0.66952893  1
  Te  Te177  1  0.33344610  0.84071014  0.00130482  1
  Te  Te178  1  0.33063923  0.83289064  0.33514913  1
  Te  Te179  1  0.33218009  0.82456018  0.66149682  1
  Te  Te180  1  0.66136160  0.16524304  -0.00164806  1
  Te  Te181  1  0.66982571  0.16059093  0.32878579  1
  Te  Te182  1  0.65866806  0.16647287  0.67327448  1
  Te  Te183  1  0.66069233  0.49999998  0.00174520  1
  Te  Te184  1  0.66333148  0.50058992  0.32737223  1
  Te  Te185  1  0.66661143  0.49906545  0.67512365  1
  Te  Te186  1  0.66485453  0.83521229  -0.00119835  1
  Te  Te187  1  0.66487412  0.83920801  0.33829394  1
  Te  Te188  1  0.66633368  0.83439966  0.65921845  1
  Te  Te189  1  0.00078072  0.00043729  0.16617624  1
  Te  Te190  1  0.00162732  0.00037780  0.50185259  1
  Te  Te191  1  0.00300177  0.00856687  0.83177949  1
  Te  Te192  1  0.00009444  0.33449542  0.16702639  1
  Te  Te193  1  -0.00114558  0.33060635  0.50584131  1
  Te  Te194  1  -0.00207047  0.33199238  0.83123112  1
  Te  Te195  1  -0.00503133  0.66668306  0.16644234  1
  Te  Te196  1  0.00212181  0.66890560  0.49988314  1
  Te  Te197  1  -0.00335066  0.65843650  0.83509388  1
  Te  Te198  1  0.33314579  0.00378423  0.17199326  1
  Te  Te199  1  0.32991025  0.00193149  0.49944788  1
  Te  Te200  1  0.32570556  -0.00251874  0.82853738  1
  Te  Te201  1  0.33604975  0.32613913  0.16572527  1
  Te  Te202  1  0.33958910  0.32886926  0.50077177  1
  Te  Te203  1  0.33719202  0.34189746  0.83297036  1
  Te  Te204  1  0.33394715  0.66802883  0.17355723  1
  Te  Te205  1  0.33033292  0.66370853  0.49710836  1
  Te  Te206  1  0.33371364  0.66195835  0.83438378  1
  Te  Te207  1  0.66593407  0.00125512  0.17436816  1
  Te  Te208  1  0.67634586  -0.00250517  0.49649824  1
  Te  Te209  1  0.66716732  0.00393122  0.83423026  1
  Te  Te210  1  0.66734880  0.33437859  0.16672198  1
  Te  Te211  1  0.65998237  0.33484075  0.49977499  1
  Te  Te212  1  0.66900463  0.33008249  0.83301764  1
  Te  Te213  1  0.67229934  0.66545810  0.16744459  1
  Te  Te214  1  0.67031361  0.67168487  0.50053347  1
  Te  Te215  1  0.67568500  0.66963020  0.83265783  1
