# generated using pymatgen
data_AgSbTe2
_symmetry_space_group_name_H-M   'P 1'
_cell_length_a   18.34956072
_cell_length_b   18.34265618
_cell_length_c   18.34460907
_cell_angle_alpha   89.99908294
_cell_angle_beta   90.00226445
_cell_angle_gamma   90.00134657
_symmetry_Int_Tables_number   1
_chemical_formula_structural   AgSbTe2
_chemical_formula_sum   'Ag54 Sb54 Te108'
_cell_volume   6174.42270475
_cell_formula_units_Z   54
loop_
 _symmetry_equiv_pos_site_id
 _symmetry_equiv_pos_as_xyz
  1  'x, y, z'
loop_
 _atom_site_type_symbol
 _atom_site_label
 _atom_site_symmetry_multiplicity
 _atom_site_fract_x
 _atom_site_fract_y
 _atom_site_fract_z
 _atom_site_occupancy
  Ag  Ag0  1  0.33147342  0.33090751  0.00092395  1
  Ag  Ag1  1  0.16083409  0.66604904  0.49925583  1
  Ag  Ag2  1  0.33262959  0.82976349  0.81681077  1
  Ag  Ag3  1  0.83204762  0.33383753  0.16809498  1
  Ag  Ag4  1  0.49234475  0.50756521  0.66680828  1
  Ag  Ag5  1  0.17052899  0.51101157  0.67205884  1
  Ag  Ag6  1  0.83844692  0.66602495  0.82115939  1
  Ag  Ag7  1  0.67210657  0.66668537  0.33347049  1
  Ag  Ag8  1  0.16517027  0.67591639  0.17515461  1
  Ag  Ag9  1  0.33432587  0.15639063  0.17185452  1
  Ag  Ag10  1  0.84345349  0.66951357  0.50006022  1
  Ag  Ag11  1  0.33093387  0.15586764  0.49351746  1
  Ag  Ag12  1  0.82574942  0.51044220  0.33300362  1
  Ag  Ag13  1  0.00198266  0.66802649  0.00012510  1
  Ag  Ag14  1  0.49432551  0.17365303  0.00476247  1
  Ag  Ag15  1  0.48746329  -0.00069778  0.16673041  1
  Ag  Ag16  1  0.16860907  -0.00120536  0.82681286  1
  Ag  Ag17  1  0.48751963  0.82988578  0.65762637  1
  Ag  Ag18  1  0.67036536  0.83223712  0.49897748  1
  Ag  Ag19  1  0.84445724  0.15476498  0.66483387  1
  Ag  Ag20  1  0.32865530  -0.00046221  0.01114705  1
  Ag  Ag21  1  0.66461010  0.49832209  0.17579797  1
  Ag  Ag22  1  0.17070174  0.16158917  0.33789505  1
  Ag  Ag23  1  0.65989848  0.16857943  0.16935843  1
  Ag  Ag24  1  0.16796214  0.15117747  0.66094264  1
  Ag  Ag25  1  0.00707400  0.67125307  0.65705745  1
  Ag  Ag26  1  0.32388472  0.84231781  0.17871580  1
  Ag  Ag27  1  0.16887639  0.50290457  -0.00644263  1
  Ag  Ag28  1  0.00925066  0.83333884  0.17858225  1
  Ag  Ag29  1  0.00112257  0.66979471  0.34265607  1
  Ag  Ag30  1  0.50381134  0.50761469  0.33362668  1
  Ag  Ag31  1  0.49758249  0.33687590  0.49806240  1
  Ag  Ag32  1  0.16978038  0.83224447  0.66607852  1
  Ag  Ag33  1  0.66404619  -0.00480322  0.66781887  1
  Ag  Ag34  1  0.48730759  0.82832874  0.33782533  1
  Ag  Ag35  1  0.33005194  0.50669193  0.83232425  1
  Ag  Ag36  1  0.32744850  -0.00938056  0.32444928  1
  Ag  Ag37  1  0.84655253  0.82932575  0.33832407  1
  Ag  Ag38  1  0.32776772  -0.01020197  0.66529679  1
  Ag  Ag39  1  0.66177631  0.50326647  0.83514905  1
  Ag  Ag40  1  0.84206605  0.83318957  0.65861646  1
  Ag  Ag41  1  0.00174971  0.51145881  0.50607168  1
  Ag  Ag42  1  0.00904354  -0.00531990  0.00152368  1
  Ag  Ag43  1  0.00674752  0.34380105  0.00216685  1
  Ag  Ag44  1  0.32850579  0.67336138  0.33900176  1
  Ag  Ag45  1  0.49222449  0.49823964  -0.00022182  1
  Ag  Ag46  1  0.66567678  0.34712499  0.33166302  1
  Ag  Ag47  1  0.17149046  -0.00661501  0.16563717  1
  Ag  Ag48  1  0.00987574  -0.00953099  0.33294778  1
  Ag  Ag49  1  0.00842509  -0.01155049  0.66540023  1
  Ag  Ag50  1  0.00565793  0.50633594  0.82970237  1
  Ag  Ag51  1  0.00120131  0.82858234  0.49874759  1
  Ag  Ag52  1  0.32302515  0.67469097  0.65980064  1
  Ag  Ag53  1  0.33152681  0.83594917  0.50017252  1
  Sb  Sb54  1  0.49532361  -0.00211180  0.49778289  1
  Sb  Sb55  1  0.16763609  0.33373874  0.83394928  1
  Sb  Sb56  1  0.16677425  0.83239839  -0.00203863  1
  Sb  Sb57  1  0.00419272  0.82839616  0.82638175  1
  Sb  Sb58  1  0.83227968  0.16715678  -0.00026845  1
  Sb  Sb59  1  0.66365521  0.16313780  0.49691871  1
  Sb  Sb60  1  0.17013728  0.16395075  0.00064726  1
  Sb  Sb61  1  -0.00374715  0.33735934  0.32965093  1
  Sb  Sb62  1  0.33610259  0.50144449  0.16428085  1
  Sb  Sb63  1  0.66500160  0.33288723  0.66155211  1
  Sb  Sb64  1  0.66297650  0.00079618  -0.00162276  1
  Sb  Sb65  1  0.50258918  0.33136725  0.16987830  1
  Sb  Sb66  1  0.83722854  0.00113898  0.16747579  1
  Sb  Sb67  1  0.16967968  0.33803402  0.50089701  1
  Sb  Sb68  1  0.49829173  0.33722656  0.83190839  1
  Sb  Sb69  1  0.33749382  0.33282722  0.33078001  1
  Sb  Sb70  1  0.00532747  0.16188342  0.50165664  1
  Sb  Sb71  1  0.67079157  0.66456861  0.00431434  1
  Sb  Sb72  1  0.33171475  0.50443409  0.50311320  1
  Sb  Sb73  1  0.33337476  0.33524408  0.66813094  1
  Sb  Sb74  1  0.66460829  -0.00686578  0.33584044  1
  Sb  Sb75  1  -0.00147258  0.50745048  0.16581207  1
  Sb  Sb76  1  0.83554003  0.33966879  0.83645977  1
  Sb  Sb77  1  0.66646207  0.50633202  0.49680211  1
  Sb  Sb78  1  0.83832053  0.83178808  0.00125612  1
  Sb  Sb79  1  0.16443060  0.33140537  0.16509731  1
  Sb  Sb80  1  0.32754814  0.66867600  -0.00006330  1
  Sb  Sb81  1  0.16904581  -0.00777797  0.49884553  1
  Sb  Sb82  1  0.16772042  0.50231923  0.33367565  1
  Sb  Sb83  1  0.83003960  0.33877237  0.49637272  1
  Sb  Sb84  1  0.49790121  0.66797379  0.49865074  1
  Sb  Sb85  1  0.49452713  0.66924502  0.17077388  1
  Sb  Sb86  1  0.83994693  0.66482621  0.17388501  1
  Sb  Sb87  1  0.83459371  0.50529184  0.66411457  1
  Sb  Sb88  1  0.16381887  0.66782123  0.82955992  1
  Sb  Sb89  1  0.66290231  0.83100600  0.82399615  1
  Sb  Sb90  1  0.49182168  -0.00265308  0.83544014  1
  Sb  Sb91  1  0.33134453  0.16314095  0.83401395  1
  Sb  Sb92  1  -0.00003455  0.33746497  0.66891513  1
  Sb  Sb93  1  0.49415505  0.16270626  0.66793293  1
  Sb  Sb94  1  0.66701081  0.67107141  0.66044669  1
  Sb  Sb95  1  0.66496840  0.33608448  0.00592391  1
  Sb  Sb96  1  0.83548270  0.50089193  0.00366145  1
  Sb  Sb97  1  0.84008386  -0.00674353  0.82807318  1
  Sb  Sb98  1  0.66659366  0.16989982  0.83516683  1
  Sb  Sb99  1  0.49596619  0.83127122  0.00245218  1
  Sb  Sb100  1  0.83377148  -0.00834025  0.50176666  1
  Sb  Sb101  1  0.00058217  0.16643644  0.83180927  1
  Sb  Sb102  1  0.16680325  0.83408493  0.33956874  1
  Sb  Sb103  1  0.49647798  0.16373602  0.32956759  1
  Sb  Sb104  1  0.50058972  0.66472593  0.83192741  1
  Sb  Sb105  1  0.00330507  0.16120135  0.16753034  1
  Sb  Sb106  1  0.66511001  0.83117576  0.17519045  1
  Sb  Sb107  1  0.83575822  0.16384364  0.33597029  1
  Te  Te108  1  0.17132990  0.16441854  0.16876546  1
  Te  Te109  1  0.17155237  0.17145087  0.50119618  1
  Te  Te110  1  0.16597974  0.16188250  0.82527476  1
  Te  Te111  1  0.16698886  0.50058103  0.16378878  1
  Te  Te112  1  0.16261244  0.50507726  0.50270764  1
  Te  Te113  1  0.16694690  0.49940979  0.83298204  1
  Te  Te114  1  0.16604070  0.83340338  0.16261228  1
  Te  Te115  1  0.16654186  0.82621832  0.50428179  1
  Te  Te116  1  0.17164147  0.83733448  0.82919541  1
  Te  Te117  1  0.49877010  0.16499081  0.16480471  1
  Te  Te118  1  0.49431564  0.17085270  0.50100619  1
  Te  Te119  1  0.50088162  0.16655166  0.84215562  1
  Te  Te120  1  0.50482142  0.50068049  0.16847909  1
  Te  Te121  1  0.49982857  0.49845793  0.50085862  1
  Te  Te122  1  0.49805326  0.49960043  0.83127462  1
  Te  Te123  1  0.49913454  0.83753291  0.17051717  1
  Te  Te124  1  0.49528401  0.83356589  0.49941969  1
  Te  Te125  1  0.49487959  0.83183277  0.82856050  1
  Te  Te126  1  0.83144813  0.17160677  0.16704571  1
  Te  Te127  1  0.83309542  0.16946834  0.50584586  1
  Te  Te128  1  0.83188178  0.16667607  0.82580186  1
  Te  Te129  1  0.82992840  0.49743281  0.17151413  1
  Te  Te130  1  0.83749900  0.50358043  0.49509222  1
  Te  Te131  1  0.83529984  0.50516817  0.83397777  1
  Te  Te132  1  0.83457437  0.83316489  0.17206579  1
  Te  Te133  1  0.83685972  0.83143300  0.49870184  1
  Te  Te134  1  0.83044470  0.82537638  0.83118322  1
  Te  Te135  1  0.16820974  0.00093651  0.00397834  1
  Te  Te136  1  0.16771501  0.00269792  0.33312573  1
  Te  Te137  1  0.16564434  -0.00483982  0.66385725  1
  Te  Te138  1  0.16712322  0.33621795  -0.00035178  1
  Te  Te139  1  0.16580101  0.32676264  0.33297546  1
  Te  Te140  1  0.16530679  0.33692472  0.66707944  1
  Te  Te141  1  0.16297944  0.66199414  0.00146221  1
  Te  Te142  1  0.16695229  0.66325052  0.33395803  1
  Te  Te143  1  0.16607826  0.66763427  0.66786656  1
  Te  Te144  1  0.49519190  -0.00088302  0.00414669  1
  Te  Te145  1  0.49721382  -0.00489855  0.32876986  1
  Te  Te146  1  0.49872799  -0.00530500  0.66712160  1
  Te  Te147  1  0.49638464  0.33626170  0.00011196  1
  Te  Te148  1  0.50427620  0.33639922  0.33611977  1
  Te  Te149  1  0.50090703  0.33644026  0.66090796  1
  Te  Te150  1  0.50171261  0.65864158  0.00126839  1
  Te  Te151  1  0.49430947  0.66701401  0.33299336  1
  Te  Te152  1  0.50007140  0.66763379  0.66544740  1
  Te  Te153  1  0.83904024  0.00105761  -0.00370211  1
  Te  Te154  1  0.83665605  -0.00494621  0.33329307  1
  Te  Te155  1  0.83662808  -0.00263498  0.66800050  1
  Te  Te156  1  0.83686355  0.33231483  0.00538124  1
  Te  Te157  1  0.82881501  0.33141535  0.32905603  1
  Te  Te158  1  0.83202108  0.32772686  0.66702959  1
  Te  Te159  1  0.83951114  0.66660395  -0.00179354  1
  Te  Te160  1  0.83807652  0.66816267  0.33385053  1
  Te  Te161  1  0.83309829  0.66923658  0.66269980  1
  Te  Te162  1  -0.00050132  0.16215430  -0.00039444  1
  Te  Te163  1  0.00486180  0.16493994  0.33485061  1
  Te  Te164  1  0.00218699  0.16744052  0.66561201  1
  Te  Te165  1  0.00232906  0.50063363  0.00051383  1
  Te  Te166  1  0.00039306  0.50460996  0.33545333  1
  Te  Te167  1  0.00058037  0.50364030  0.66755260  1
  Te  Te168  1  -0.00024321  0.83501496  -0.00071477  1
  Te  Te169  1  0.00325545  0.83246107  0.33557591  1
  Te  Te170  1  -0.00080837  0.83096085  0.66664492  1
  Te  Te171  1  0.33454652  0.16467115  -0.00005374  1
  Te  Te172  1  0.33118978  0.16773397  0.33333451  1
  Te  Te173  1  0.32877603  0.16774658  0.66475512  1
  Te  Te174  1  0.33187162  0.50229974  -0.00232514  1
  Te  Te175  1  0.33775111  0.50223380  0.33403854  1
  Te  Te176  1  0.33277470  0.49999295  0.67002561  1
  Te  Te177  1  0.33457915  0.83826534  0.00617061  1
  Te  Te178  1  0.33059194  0.83331901  0.33576929  1
  Te  Te179  1  0.33205696  0.83134258  0.66229615  1
  Te  Te180  1  0.66263109  0.16753585  0.00515183  1
  Te  Te181  1  0.66774347  0.16310888  0.32830830  1
  Te  Te182  1  0.66536329  0.16181503  0.66654623  1
  Te  Te183  1  0.66408699  0.49992314  -0.00279853  1
  Te  Te184  1  0.66591479  0.50386933  0.33567122  1
  Te  Te185  1  0.66347524  0.49998574  0.66934236  1
  Te  Te186  1  0.66668531  0.83359524  -0.00155682  1
  Te  Te187  1  0.66553561  0.82922834  0.33889715  1
  Te  Te188  1  0.67034464  0.83680827  0.66132864  1
  Te  Te189  1  0.00233082  -0.00473165  0.16880499  1
  Te  Te190  1  0.00075961  -0.00309656  0.49944769  1
  Te  Te191  1  0.00681022  -0.00040416  0.83195358  1
  Te  Te192  1  -0.00376389  0.33085155  0.16203426  1
  Te  Te193  1  -0.00063864  0.33722681  0.49931277  1
  Te  Te194  1  -0.00021688  0.34008571  0.84014264  1
  Te  Te195  1  0.00457779  0.67204841  0.16214097  1
  Te  Te196  1  -0.00030968  0.66765639  0.50052977  1
  Te  Te197  1  -0.00094113  0.66488669  0.83868498  1
  Te  Te198  1  0.33172140  0.00038807  0.16816534  1
  Te  Te199  1  0.33384832  -0.00036932  0.50391079  1
  Te  Te200  1  0.32827807  -0.00304069  0.82415481  1
  Te  Te201  1  0.33363645  0.33118154  0.16120178  1
  Te  Te202  1  0.33798440  0.33346895  0.50022021  1
  Te  Te203  1  0.33385325  0.33927036  0.84067126  1
  Te  Te204  1  0.32632061  0.66958272  0.16905670  1
  Te  Te205  1  0.33129257  0.66951973  0.50028050  1
  Te  Te206  1  0.33468327  0.66795255  0.82988174  1
  Te  Te207  1  0.66679488  0.00280027  0.16414153  1
  Te  Te208  1  0.66456434  -0.00404688  0.50657759  1
  Te  Te209  1  0.66828586  0.00078995  0.82783937  1
  Te  Te210  1  0.66813943  0.33466591  0.17032506  1
  Te  Te211  1  0.66255332  0.33105283  0.49263500  1
  Te  Te212  1  0.66775012  0.34099665  0.83254885  1
  Te  Te213  1  0.66722370  0.66221103  0.17320099  1
  Te  Te214  1  0.66984298  0.67275016  0.49287224  1
  Te  Te215  1  0.67200494  0.66246118  0.83574581  1
