# generated using pymatgen
data_AgSbTe2
_symmetry_space_group_name_H-M   'P 1'
_cell_length_a   18.34563104
_cell_length_b   18.34694312
_cell_length_c   18.35397994
_cell_angle_alpha   89.99937175
_cell_angle_beta   89.99997075
_cell_angle_gamma   89.99852590
_symmetry_Int_Tables_number   1
_chemical_formula_structural   AgSbTe2
_chemical_formula_sum   'Ag54 Sb54 Te108'
_cell_volume   6177.69726260
_cell_formula_units_Z   54
loop_
 _symmetry_equiv_pos_site_id
 _symmetry_equiv_pos_as_xyz
  1  'x, y, z'
loop_
 _atom_site_type_symbol
 _atom_site_label
 _atom_site_symmetry_multiplicity
 _atom_site_fract_x
 _atom_site_fract_y
 _atom_site_fract_z
 _atom_site_occupancy
  Ag  Ag0  1  0.16918566  0.66609746  0.16345522  1
  Ag  Ag1  1  0.48962594  0.33419276  0.49831578  1
  Ag  Ag2  1  0.49204698  0.83496848  0.32875490  1
  Ag  Ag3  1  0.33303804  0.67246172  0.68041834  1
  Ag  Ag4  1  0.00148820  0.49681280  0.50637962  1
  Ag  Ag5  1  0.49872086  0.49973657  -0.00284160  1
  Ag  Ag6  1  0.00110575  0.49501197  0.15253804  1
  Ag  Ag7  1  0.32757547  0.50565968  0.83461419  1
  Ag  Ag8  1  -0.00384186  0.17960894  0.83370531  1
  Ag  Ag9  1  0.00786404  0.33223358  0.67556377  1
  Ag  Ag10  1  0.83210427  0.17581042  -0.00199356  1
  Ag  Ag11  1  0.48765797  0.33304705  0.16380487  1
  Ag  Ag12  1  0.33229624  -0.00944049  0.67128284  1
  Ag  Ag13  1  0.83844324  0.00638814  0.83666828  1
  Ag  Ag14  1  0.33090077  0.67476485  0.32807906  1
  Ag  Ag15  1  0.65663337  0.67110877  0.32110536  1
  Ag  Ag16  1  0.49473165  0.49208235  0.67625170  1
  Ag  Ag17  1  0.83547632  0.16973350  0.32512376  1
  Ag  Ag18  1  0.84263469  0.33384498  0.49912283  1
  Ag  Ag19  1  0.49454761  0.83383855  0.67455537  1
  Ag  Ag20  1  0.33224560  0.33523230  -0.00350431  1
  Ag  Ag21  1  0.00546597  0.00454508  0.67204161  1
  Ag  Ag22  1  0.66125953  0.83271759  0.83848134  1
  Ag  Ag23  1  0.00318919  0.82763205  0.51166116  1
  Ag  Ag24  1  0.16832201  0.66471974  0.83719580  1
  Ag  Ag25  1  0.67484258  0.16809116  0.83616043  1
  Ag  Ag26  1  0.33414893  0.67098084  -0.00285240  1
  Ag  Ag27  1  0.16328505  0.33835567  0.84113641  1
  Ag  Ag28  1  0.33180323  0.33431072  0.67176469  1
  Ag  Ag29  1  0.49622860  0.16900008  0.33646761  1
  Ag  Ag30  1  0.16847658  0.66478066  0.49773827  1
  Ag  Ag31  1  0.49688618  0.17441767  0.66524370  1
  Ag  Ag32  1  0.83744460  0.33087000  0.15860582  1
  Ag  Ag33  1  0.17680381  0.17130628  0.33208423  1
  Ag  Ag34  1  0.17434234  0.83078947  0.32744233  1
  Ag  Ag35  1  0.33142142  0.82455486  0.84395729  1
  Ag  Ag36  1  0.84185685  0.66624056  0.83596298  1
  Ag  Ag37  1  0.49227236  0.82602364  0.00019044  1
  Ag  Ag38  1  0.33270421  -0.01136867  0.32674953  1
  Ag  Ag39  1  0.33285760  -0.01320147  -0.00363687  1
  Ag  Ag40  1  0.65342635  0.83100233  0.15667391  1
  Ag  Ag41  1  0.17594552  0.82821519  0.00001138  1
  Ag  Ag42  1  0.00448818  0.49529548  0.83370610  1
  Ag  Ag43  1  -0.01081317  0.33578394  -0.01121255  1
  Ag  Ag44  1  0.16741598  0.33801628  0.49998003  1
  Ag  Ag45  1  0.83495070  0.49152665  -0.00266280  1
  Ag  Ag46  1  0.33535922  0.83046671  0.15767858  1
  Ag  Ag47  1  0.33311800  0.33419117  0.32791179  1
  Ag  Ag48  1  0.67662893  0.34032865  -0.00054430  1
  Ag  Ag49  1  0.65970310  0.66696087  0.00051301  1
  Ag  Ag50  1  0.83343179  0.00886473  0.15673558  1
  Ag  Ag51  1  0.16751485  0.33800908  0.16084149  1
  Ag  Ag52  1  0.00319102  0.83089296  0.83309820  1
  Ag  Ag53  1  0.84685322  0.33089647  0.84417938  1
  Sb  Sb54  1  0.66774445  0.50165906  0.83753821  1
  Sb  Sb55  1  0.32971379  0.50132258  0.15996005  1
  Sb  Sb56  1  0.49457368  0.66615167  0.16427777  1
  Sb  Sb57  1  0.49449354  0.66355715  0.49978654  1
  Sb  Sb58  1  0.83150353  0.49708684  0.67401214  1
  Sb  Sb59  1  0.49762596  0.49946092  0.33054382  1
  Sb  Sb60  1  0.16548588  -0.00103200  0.16652986  1
  Sb  Sb61  1  0.16396695  -0.00094017  0.83312772  1
  Sb  Sb62  1  0.33330531  0.16705919  0.16922543  1
  Sb  Sb63  1  0.16889162  0.50158918  -0.00212446  1
  Sb  Sb64  1  0.66848733  0.50111863  0.16316821  1
  Sb  Sb65  1  0.49808422  0.33370017  0.83651371  1
  Sb  Sb66  1  0.49993736  -0.00087634  0.16650810  1
  Sb  Sb67  1  0.66444867  -0.00206214  -0.00074215  1
  Sb  Sb68  1  0.00711133  0.33255908  0.33183767  1
  Sb  Sb69  1  0.83342585  0.83343873  0.67100912  1
  Sb  Sb70  1  0.49565932  0.66780480  0.83629560  1
  Sb  Sb71  1  0.83458721  0.49457278  0.32767571  1
  Sb  Sb72  1  0.32972648  0.49770310  0.50783922  1
  Sb  Sb73  1  0.66256426  0.33548231  0.32743095  1
  Sb  Sb74  1  0.17001138  0.17113157  0.66499339  1
  Sb  Sb75  1  0.50062847  -0.00290526  0.83336109  1
  Sb  Sb76  1  0.66538094  0.33361895  0.67276657  1
  Sb  Sb77  1  0.17144848  0.49820181  0.66913328  1
  Sb  Sb78  1  0.33239903  0.16736484  0.83200125  1
  Sb  Sb79  1  0.00533723  0.82942501  0.16256211  1
  Sb  Sb80  1  0.66237471  -0.00326039  0.32995375  1
  Sb  Sb81  1  0.83201958  0.16886493  0.67278642  1
  Sb  Sb82  1  0.66747785  0.83092116  0.50128172  1
  Sb  Sb83  1  0.66598986  0.16926729  0.50253741  1
  Sb  Sb84  1  0.16858875  -0.00091511  0.49938949  1
  Sb  Sb85  1  0.16973792  0.83185518  0.66852981  1
  Sb  Sb86  1  0.16811541  0.50000792  0.33381570  1
  Sb  Sb87  1  0.66801903  0.49729332  0.49937926  1
  Sb  Sb88  1  0.83205209  0.83246885  -0.00411682  1
  Sb  Sb89  1  0.66819829  0.16571805  0.16318921  1
  Sb  Sb90  1  0.83779319  0.00464160  0.50247609  1
  Sb  Sb91  1  0.00402968  0.66108098  -0.00271845  1
  Sb  Sb92  1  0.00699265  0.66157842  0.67017921  1
  Sb  Sb93  1  0.00374420  0.00104201  0.33657021  1
  Sb  Sb94  1  0.50207491  0.16916784  -0.00040945  1
  Sb  Sb95  1  0.49775068  0.00170320  0.50033291  1
  Sb  Sb96  1  0.66498682  0.00040693  0.67096126  1
  Sb  Sb97  1  0.32936558  0.83014363  0.49948329  1
  Sb  Sb98  1  0.33297408  0.17129347  0.49816647  1
  Sb  Sb99  1  -0.00126678  0.17227358  0.16318076  1
  Sb  Sb100  1  0.00497325  0.66728391  0.33349477  1
  Sb  Sb101  1  0.83929802  0.66258329  0.50322917  1
  Sb  Sb102  1  0.65935992  0.66763519  0.67358728  1
  Sb  Sb103  1  0.00005175  0.17082637  0.50384515  1
  Sb  Sb104  1  0.00122523  0.00310938  -0.00532491  1
  Sb  Sb105  1  0.83541421  0.66417335  0.16147689  1
  Sb  Sb106  1  0.83330846  0.83661815  0.33232255  1
  Sb  Sb107  1  0.16454284  0.16923319  0.00104774  1
  Te  Te108  1  0.16511451  0.17097752  0.17280005  1
  Te  Te109  1  0.16450742  0.17210919  0.49267401  1
  Te  Te110  1  0.15969331  0.17281194  0.83250668  1
  Te  Te111  1  0.16182589  0.49986067  0.16706373  1
  Te  Te112  1  0.16239715  0.50042142  0.50106102  1
  Te  Te113  1  0.16656923  0.50058092  0.83322279  1
  Te  Te114  1  0.17012064  0.83219233  0.16602753  1
  Te  Te115  1  0.16133572  0.83118937  0.49785366  1
  Te  Te116  1  0.17185888  0.83337290  0.83527721  1
  Te  Te117  1  0.50165628  0.17124979  0.17038173  1
  Te  Te118  1  0.50078160  0.17193006  0.50074494  1
  Te  Te119  1  0.50321942  0.16530110  0.82986492  1
  Te  Te120  1  0.50080888  0.49263472  0.16107752  1
  Te  Te121  1  0.50060304  0.49396918  0.50028570  1
  Te  Te122  1  0.49683509  0.50063906  0.83445865  1
  Te  Te123  1  0.49686885  0.83282853  0.16703883  1
  Te  Te124  1  0.50324075  0.83241406  0.49500474  1
  Te  Te125  1  0.49692728  0.83395234  0.83647528  1
  Te  Te126  1  0.83314516  0.16727954  0.16437181  1
  Te  Te127  1  0.83304390  0.17219462  0.49601005  1
  Te  Te128  1  0.83416289  0.16844302  0.83386462  1
  Te  Te129  1  0.83769364  0.49588214  0.16021032  1
  Te  Te130  1  0.83813974  0.49539441  0.50121619  1
  Te  Te131  1  0.83422683  0.49930984  0.83725126  1
  Te  Te132  1  0.83555204  0.83362961  0.16745657  1
  Te  Te133  1  0.84116765  0.83193376  0.50049576  1
  Te  Te134  1  0.83531306  0.82977824  0.83137698  1
  Te  Te135  1  0.17256158  -0.00167093  0.00130140  1
  Te  Te136  1  0.17200323  0.00216881  0.33283312  1
  Te  Te137  1  0.16813587  0.00201322  0.66611819  1
  Te  Te138  1  0.17059147  0.33295892  0.00067606  1
  Te  Te139  1  0.17157249  0.33256951  0.33306519  1
  Te  Te140  1  0.16658741  0.33259025  0.66371422  1
  Te  Te141  1  0.16932408  0.66863810  -0.00044180  1
  Te  Te142  1  0.17012958  0.66992029  0.33212631  1
  Te  Te143  1  0.17434124  0.66652138  0.66628581  1
  Te  Te144  1  0.49311670  -0.00201405  0.00140040  1
  Te  Te145  1  0.49393796  0.00058866  0.33343646  1
  Te  Te146  1  0.49453976  -0.00444972  0.66622111  1
  Te  Te147  1  0.49272495  0.33378719  0.00335150  1
  Te  Te148  1  0.49862724  0.33162708  0.33289571  1
  Te  Te149  1  0.49958656  0.33353014  0.66706025  1
  Te  Te150  1  0.49796452  0.66639862  0.00183086  1
  Te  Te151  1  0.49847187  0.66989842  0.33204486  1
  Te  Te152  1  0.49201768  0.67112905  0.66469219  1
  Te  Te153  1  0.83267253  0.00138282  -0.00219826  1
  Te  Te154  1  0.83251139  0.00649730  0.33342120  1
  Te  Te155  1  0.83786902  0.00058523  0.67126325  1
  Te  Te156  1  0.83288958  0.33363685  0.00127040  1
  Te  Te157  1  0.82929676  0.32942836  0.33566266  1
  Te  Te158  1  0.83332158  0.33362810  0.66037845  1
  Te  Te159  1  0.83283452  0.66482139  -0.00446786  1
  Te  Te160  1  0.83234942  0.66605265  0.33375729  1
  Te  Te161  1  0.82997346  0.66497026  0.67220181  1
  Te  Te162  1  -0.00374226  0.17075760  -0.00475067  1
  Te  Te163  1  -0.00557552  0.16533494  0.33450078  1
  Te  Te164  1  -0.00103320  0.16796925  0.67176653  1
  Te  Te165  1  -0.00267841  0.49629864  -0.00437790  1
  Te  Te166  1  -0.00161635  0.50022306  0.34054971  1
  Te  Te167  1  -0.00284805  0.49425209  0.67084680  1
  Te  Te168  1  0.00390822  0.83434861  -0.00561177  1
  Te  Te169  1  0.00364725  0.83560048  0.33124960  1
  Te  Te170  1  0.00039339  0.83130077  0.66859522  1
  Te  Te171  1  0.33318160  0.17358248  0.00038855  1
  Te  Te172  1  0.33468270  0.17342186  0.33306183  1
  Te  Te173  1  0.33753344  0.17102477  0.66658026  1
  Te  Te174  1  0.33607968  0.49758860  -0.00382650  1
  Te  Te175  1  0.33451937  0.49436593  0.33291068  1
  Te  Te176  1  0.33742318  0.49669901  0.67171793  1
  Te  Te177  1  0.33299109  0.83137076  0.00022406  1
  Te  Te178  1  0.33230370  0.83379697  0.33809689  1
  Te  Te179  1  0.33581761  0.83225597  0.66511237  1
  Te  Te180  1  0.67007406  0.16668487  -0.00398226  1
  Te  Te181  1  0.66132903  0.16620591  0.33360118  1
  Te  Te182  1  0.65907809  0.16628442  0.67325054  1
  Te  Te183  1  0.66108955  0.50112293  0.00116494  1
  Te  Te184  1  0.66662761  0.51132921  0.33239829  1
  Te  Te185  1  0.65481773  0.50181640  0.66676636  1
  Te  Te186  1  0.66630770  0.83081841  -0.00049792  1
  Te  Te187  1  0.66560904  0.82904850  0.33320292  1
  Te  Te188  1  0.65886397  0.83332295  0.67173078  1
  Te  Te189  1  -0.00695652  0.00048456  0.16691216  1
  Te  Te190  1  0.00083404  -0.00449984  0.50850458  1
  Te  Te191  1  -0.00215195  -0.00883422  0.83050119  1
  Te  Te192  1  0.00129832  0.33686491  0.16684520  1
  Te  Te193  1  0.00336668  0.33649320  0.49930558  1
  Te  Te194  1  0.00362485  0.33635236  0.83246446  1
  Te  Te195  1  0.00699567  0.65958743  0.16593621  1
  Te  Te196  1  0.00545866  0.66564801  0.50235801  1
  Te  Te197  1  0.00310467  0.66982048  0.83225419  1
  Te  Te198  1  0.33281051  -0.00445632  0.16698613  1
  Te  Te199  1  0.33378494  0.00135237  0.50575706  1
  Te  Te200  1  0.33217757  -0.00118043  0.83373167  1
  Te  Te201  1  0.33065626  0.33432644  0.16804550  1
  Te  Te202  1  0.33255862  0.33484837  0.50390586  1
  Te  Te203  1  0.33055421  0.33249399  0.83158777  1
  Te  Te204  1  0.32950635  0.66736394  0.16676331  1
  Te  Te205  1  0.32733196  0.66318016  0.49079889  1
  Te  Te206  1  0.33140208  0.66639941  0.83558324  1
  Te  Te207  1  0.67275125  -0.00740365  0.16632381  1
  Te  Te208  1  0.66856516  -0.00038409  0.50035179  1
  Te  Te209  1  0.67314630  -0.00396018  0.83348097  1
  Te  Te210  1  0.67382198  0.33266425  0.16033517  1
  Te  Te211  1  0.66697550  0.33377860  0.49911567  1
  Te  Te212  1  0.67022077  0.33304591  0.83971768  1
  Te  Te213  1  0.66861251  0.67123100  0.16411235  1
  Te  Te214  1  0.66903641  0.66561351  0.49923179  1
  Te  Te215  1  0.66992762  0.67123728  0.83986555  1
