# generated using pymatgen
data_AgSbTe2
_symmetry_space_group_name_H-M   'P 1'
_cell_length_a   18.34765732
_cell_length_b   18.34980791
_cell_length_c   18.33375479
_cell_angle_alpha   89.99775662
_cell_angle_beta   89.99635473
_cell_angle_gamma   90.00073059
_symmetry_Int_Tables_number   1
_chemical_formula_structural   AgSbTe2
_chemical_formula_sum   'Ag54 Sb54 Te108'
_cell_volume   6172.53498191
_cell_formula_units_Z   54
loop_
 _symmetry_equiv_pos_site_id
 _symmetry_equiv_pos_as_xyz
  1  'x, y, z'
loop_
 _atom_site_type_symbol
 _atom_site_label
 _atom_site_symmetry_multiplicity
 _atom_site_fract_x
 _atom_site_fract_y
 _atom_site_fract_z
 _atom_site_occupancy
  Ag  Ag0  1  0.83202960  0.66387012  0.16728389  1
  Ag  Ag1  1  -0.01473650  0.00036628  0.67273912  1
  Ag  Ag2  1  -0.00019439  0.16384051  0.83653128  1
  Ag  Ag3  1  0.00055693  0.48919051  0.16411177  1
  Ag  Ag4  1  0.34030467  0.50152341  0.83584945  1
  Ag  Ag5  1  0.66882639  0.67297967  0.67313875  1
  Ag  Ag6  1  0.17054788  0.17025561  0.32708092  1
  Ag  Ag7  1  0.34538934  0.66785581  0.67387151  1
  Ag  Ag8  1  0.50637148  0.16324908  0.67529417  1
  Ag  Ag9  1  0.50852856  0.66027819  0.83190457  1
  Ag  Ag10  1  0.16842150  0.33081884  0.49248519  1
  Ag  Ag11  1  0.66881455  0.50215074  0.50941144  1
  Ag  Ag12  1  0.50106163  0.17005374  0.33474488  1
  Ag  Ag13  1  0.16804104  0.67249991  0.83458456  1
  Ag  Ag14  1  -0.01027449  0.66874830  0.32977074  1
  Ag  Ag15  1  0.67122124  0.82128191  0.82856012  1
  Ag  Ag16  1  0.67034999  0.66794686  0.33558196  1
  Ag  Ag17  1  0.33533855  0.33058142  0.33025278  1
  Ag  Ag18  1  0.83112422  -0.00165695  0.51574938  1
  Ag  Ag19  1  0.33247074  0.16998947  0.50716268  1
  Ag  Ag20  1  0.67383518  0.17026992  0.16326647  1
  Ag  Ag21  1  0.66886605  0.66518259  -0.01495046  1
  Ag  Ag22  1  0.66621362  0.50884582  0.83191631  1
  Ag  Ag23  1  0.16594724  0.83136893  -0.00930551  1
  Ag  Ag24  1  0.82252648  0.66895179  0.82750839  1
  Ag  Ag25  1  0.50830458  0.83364131  0.67382516  1
  Ag  Ag26  1  0.50125295  0.33458880  0.16379296  1
  Ag  Ag27  1  0.82924373  0.66788701  0.51042261  1
  Ag  Ag28  1  0.82843405  0.32764378  0.83355984  1
  Ag  Ag29  1  0.16197508  0.33236248  0.16227315  1
  Ag  Ag30  1  0.50254139  0.33837907  0.83677587  1
  Ag  Ag31  1  0.67289642  0.16792523  0.83156385  1
  Ag  Ag32  1  0.83608051  0.00300023  0.82637127  1
  Ag  Ag33  1  -0.00786893  0.17178101  0.15971507  1
  Ag  Ag34  1  0.00246703  0.33293687  0.00029565  1
  Ag  Ag35  1  0.49653617  0.49794306  -0.00461499  1
  Ag  Ag36  1  0.16408003  0.17696941  -0.00461776  1
  Ag  Ag37  1  0.82958445  0.50532843  0.67161289  1
  Ag  Ag38  1  0.32949136  0.49507905  0.15500550  1
  Ag  Ag39  1  0.66921083  0.00085194  0.33809648  1
  Ag  Ag40  1  0.32982094  0.82038197  0.83100261  1
  Ag  Ag41  1  0.82700880  0.83912251  0.67118710  1
  Ag  Ag42  1  0.83664404  0.33234345  0.16177807  1
  Ag  Ag43  1  0.83185841  0.01197760  0.16855688  1
  Ag  Ag44  1  -0.00173881  0.83725002  0.83236873  1
  Ag  Ag45  1  0.33038749  0.17156890  0.82977243  1
  Ag  Ag46  1  0.67255402  -0.00565935  0.66812933  1
  Ag  Ag47  1  0.16959289  0.49438435  -0.00267000  1
  Ag  Ag48  1  0.82604252  0.15440786  0.67327923  1
  Ag  Ag49  1  0.16939681  0.83523129  0.32916577  1
  Ag  Ag50  1  0.50306413  0.83474884  0.33411853  1
  Ag  Ag51  1  0.66271824  0.32473520  0.32799120  1
  Ag  Ag52  1  0.16818992  0.33008515  0.84205746  1
  Ag  Ag53  1  0.15991573  0.00153377  0.83346421  1
  Sb  Sb54  1  0.16238504  0.66162608  0.16191577  1
  Sb  Sb55  1  0.50765730  0.66651833  0.50670779  1
  Sb  Sb56  1  0.66458190  0.16902834  0.50117268  1
  Sb  Sb57  1  -0.00147962  0.83302164  0.50506261  1
  Sb  Sb58  1  0.67003743  -0.00251511  -0.00653849  1
  Sb  Sb59  1  0.33447019  0.33445733  0.67058669  1
  Sb  Sb60  1  0.33473880  0.66293299  -0.00789825  1
  Sb  Sb61  1  -0.00189693  0.32848023  0.67689050  1
  Sb  Sb62  1  0.50484168  0.50065574  0.67446738  1
  Sb  Sb63  1  0.00013523  0.33415659  0.32629870  1
  Sb  Sb64  1  0.50733690  0.00984138  0.17045420  1
  Sb  Sb65  1  0.33125344  0.00026907  -0.00374866  1
  Sb  Sb66  1  0.16697224  0.16635526  0.67401365  1
  Sb  Sb67  1  0.49602890  0.17429023  -0.00350451  1
  Sb  Sb68  1  0.50608100  0.66121376  0.16259643  1
  Sb  Sb69  1  -0.00349192  0.66226223  0.00056370  1
  Sb  Sb70  1  -0.00461963  0.50005627  0.49537909  1
  Sb  Sb71  1  0.83182950  0.16587153  0.33351486  1
  Sb  Sb72  1  0.67010397  0.33563639  -0.00030812  1
  Sb  Sb73  1  0.66700873  0.33354513  0.66871501  1
  Sb  Sb74  1  0.49813789  0.82605493  -0.00571770  1
  Sb  Sb75  1  0.83080075  0.50197559  0.33300588  1
  Sb  Sb76  1  -0.00373723  -0.00229153  0.33582286  1
  Sb  Sb77  1  0.16681938  0.49640116  0.32691377  1
  Sb  Sb78  1  0.83723960  0.83174353  -0.00941940  1
  Sb  Sb79  1  0.66918159  0.49630818  0.16272385  1
  Sb  Sb80  1  0.33721676  0.49579596  0.50540323  1
  Sb  Sb81  1  0.83252953  0.49967076  -0.00439872  1
  Sb  Sb82  1  0.33663504  0.00680892  0.33389452  1
  Sb  Sb83  1  -0.00025298  0.00559823  -0.00768632  1
  Sb  Sb84  1  0.33615577  -0.00157674  0.67067307  1
  Sb  Sb85  1  0.16200508  0.66284051  0.50272908  1
  Sb  Sb86  1  0.33594164  0.66339093  0.33862058  1
  Sb  Sb87  1  0.66745513  0.82935212  0.50712790  1
  Sb  Sb88  1  0.50657904  0.00126017  0.50163955  1
  Sb  Sb89  1  0.33277352  0.17354706  0.16463690  1
  Sb  Sb90  1  -0.00140733  0.83652746  0.16107553  1
  Sb  Sb91  1  0.83063300  0.83153270  0.33688029  1
  Sb  Sb92  1  0.33308138  0.83683727  0.50472340  1
  Sb  Sb93  1  0.16589411  0.83318215  0.67112520  1
  Sb  Sb94  1  0.83390559  0.33355381  0.50162299  1
  Sb  Sb95  1  0.16088324  0.00777742  0.16176341  1
  Sb  Sb96  1  0.50468242  0.00061275  0.83206615  1
  Sb  Sb97  1  0.49915429  0.33104597  0.50049489  1
  Sb  Sb98  1  0.66830093  0.83553164  0.16415413  1
  Sb  Sb99  1  0.16183787  0.00474103  0.50376421  1
  Sb  Sb100  1  0.00243852  0.16796960  0.50244755  1
  Sb  Sb101  1  0.32674200  0.33520701  0.00150838  1
  Sb  Sb102  1  0.33240292  0.82455133  0.16239517  1
  Sb  Sb103  1  -0.00825895  0.67062338  0.67004146  1
  Sb  Sb104  1  -0.00288714  0.49866899  0.83804683  1
  Sb  Sb105  1  0.83747657  0.16777913  -0.00685165  1
  Sb  Sb106  1  0.50301989  0.49625793  0.32785918  1
  Sb  Sb107  1  0.16293629  0.49953521  0.67608610  1
  Te  Te108  1  0.16607123  0.17034242  0.16539463  1
  Te  Te109  1  0.17029088  0.16953298  0.49683905  1
  Te  Te110  1  0.16441635  0.16834019  0.83398054  1
  Te  Te111  1  0.16712972  0.49669481  0.16155085  1
  Te  Te112  1  0.16736650  0.49370573  0.50085503  1
  Te  Te113  1  0.16450551  0.49380276  0.83744513  1
  Te  Te114  1  0.16693836  0.83421350  0.16890793  1
  Te  Te115  1  0.16701639  0.83343128  0.49151087  1
  Te  Te116  1  0.16860715  0.83360988  0.83122410  1
  Te  Te117  1  0.50192415  0.17485824  0.16825400  1
  Te  Te118  1  0.49455636  0.16679447  0.49593882  1
  Te  Te119  1  0.49768020  0.16782398  0.83336686  1
  Te  Te120  1  0.49701195  0.49427260  0.16074057  1
  Te  Te121  1  0.50695428  0.49910546  0.50146309  1
  Te  Te122  1  0.50113098  0.49885035  0.83453087  1
  Te  Te123  1  0.49900255  0.83418984  0.16953359  1
  Te  Te124  1  0.49838625  0.83374809  0.49537436  1
  Te  Te125  1  0.49867997  0.83333340  0.83200474  1
  Te  Te126  1  0.83287439  0.17153222  0.16773516  1
  Te  Te127  1  0.83414645  0.16402284  0.50617696  1
  Te  Te128  1  0.83503698  0.16664348  0.83326056  1
  Te  Te129  1  0.83688947  0.49840186  0.16513410  1
  Te  Te130  1  0.82929092  0.50261985  0.50433339  1
  Te  Te131  1  0.83088900  0.50203705  0.83238542  1
  Te  Te132  1  0.83379377  0.82444598  0.16586495  1
  Te  Te133  1  0.83373983  0.83360673  0.50574505  1
  Te  Te134  1  0.83183085  0.83217137  0.83161856  1
  Te  Te135  1  0.16557522  -0.00590025  -0.00544417  1
  Te  Te136  1  0.16581437  0.00147360  0.33408678  1
  Te  Te137  1  0.16457995  -0.00090358  0.67192221  1
  Te  Te138  1  0.16437308  0.33378518  0.00162321  1
  Te  Te139  1  0.16677611  0.33108186  0.32844493  1
  Te  Te140  1  0.16608929  0.33330421  0.66740767  1
  Te  Te141  1  0.16580178  0.66814887  -0.00366318  1
  Te  Te142  1  0.16847202  0.66922518  0.33412126  1
  Te  Te143  1  0.16479997  0.66681288  0.67068290  1
  Te  Te144  1  0.50033156  -0.00121757  0.00284810  1
  Te  Te145  1  0.50608510  0.00222138  0.33443740  1
  Te  Te146  1  0.50613647  -0.00001201  0.66660818  1
  Te  Te147  1  0.50202738  0.33775732  -0.00227140  1
  Te  Te148  1  0.50125298  0.33072418  0.33295680  1
  Te  Te149  1  0.49990410  0.32540213  0.67219216  1
  Te  Te150  1  0.50638623  0.66103007  -0.00530155  1
  Te  Te151  1  0.50263505  0.66921132  0.33376214  1
  Te  Te152  1  0.50481888  0.66847419  0.67143284  1
  Te  Te153  1  0.83354922  -0.00164503  0.01024106  1
  Te  Te154  1  0.82913244  -0.00144201  0.32664963  1
  Te  Te155  1  0.82890153  -0.00117279  0.67175168  1
  Te  Te156  1  0.83895553  0.33362502  -0.00059469  1
  Te  Te157  1  0.82818095  0.33390293  0.33138234  1
  Te  Te158  1  0.83398740  0.33730100  0.67067549  1
  Te  Te159  1  0.82882307  0.66620924  0.00157091  1
  Te  Te160  1  0.83154805  0.66748265  0.33109453  1
  Te  Te161  1  0.83081461  0.66712504  0.66816594  1
  Te  Te162  1  0.00400437  0.17028354  -0.00067765  1
  Te  Te163  1  0.00443404  0.16585066  0.33155088  1
  Te  Te164  1  -0.00376028  0.16211150  0.67037922  1
  Te  Te165  1  0.00522191  0.49620146  0.00538172  1
  Te  Te166  1  -0.00009022  0.50673313  0.32563795  1
  Te  Te167  1  -0.00730773  0.50066170  0.66462594  1
  Te  Te168  1  0.00616543  0.83213242  -0.00644064  1
  Te  Te169  1  0.00324379  0.83060476  0.33267200  1
  Te  Te170  1  -0.00305047  0.83765023  0.67216859  1
  Te  Te171  1  0.32654487  0.16618150  -0.00639926  1
  Te  Te172  1  0.33382222  0.17027330  0.33086191  1
  Te  Te173  1  0.33756363  0.16658061  0.66805875  1
  Te  Te174  1  0.33254216  0.50017479  -0.00361962  1
  Te  Te175  1  0.33496378  0.49352287  0.33645389  1
  Te  Te176  1  0.33293526  0.50580383  0.67281272  1
  Te  Te177  1  0.32798291  0.83213147  -0.00631519  1
  Te  Te178  1  0.33525592  0.83349067  0.33381846  1
  Te  Te179  1  0.33805629  0.83024195  0.67065915  1
  Te  Te180  1  0.66421264  0.16482934  0.00278798  1
  Te  Te181  1  0.66537198  0.16555116  0.33377652  1
  Te  Te182  1  0.66655712  0.16830171  0.66664314  1
  Te  Te183  1  0.66375600  0.50365032  -0.00506368  1
  Te  Te184  1  0.66592116  0.50440583  0.33175931  1
  Te  Te185  1  0.66842983  0.49970528  0.67041203  1
  Te  Te186  1  0.66607626  0.82826267  -0.00680634  1
  Te  Te187  1  0.66404277  0.83603249  0.33227732  1
  Te  Te188  1  0.66580925  0.83312771  0.66909918  1
  Te  Te189  1  -0.00616477  0.00523828  0.16765486  1
  Te  Te190  1  -0.00713112  0.00060647  0.50610419  1
  Te  Te191  1  -0.00265626  0.00110589  0.83243098  1
  Te  Te192  1  -0.00071772  0.33132333  0.16567237  1
  Te  Te193  1  0.00648989  0.33411941  0.49857976  1
  Te  Te194  1  -0.00042589  0.33114074  0.83810119  1
  Te  Te195  1  -0.00430371  0.66887166  0.16890829  1
  Te  Te196  1  -0.00624188  0.66616294  0.49300136  1
  Te  Te197  1  0.00543257  0.66923717  0.83426032  1
  Te  Te198  1  0.33276882  -0.00297884  0.16641947  1
  Te  Te199  1  0.33111266  0.00874094  0.50184579  1
  Te  Te200  1  0.32835610  0.00795639  0.83283887  1
  Te  Te201  1  0.33520196  0.33671341  0.16998643  1
  Te  Te202  1  0.33014027  0.33064390  0.49644451  1
  Te  Te203  1  0.33268850  0.33415885  0.83371545  1
  Te  Te204  1  0.33477150  0.65624741  0.16826217  1
  Te  Te205  1  0.33240295  0.66598043  0.50914053  1
  Te  Te206  1  0.32923614  0.66333334  0.83132968  1
  Te  Te207  1  0.67117037  0.00415007  0.16813306  1
  Te  Te208  1  0.67261268  0.00069001  0.50026805  1
  Te  Te209  1  0.67156452  0.00915957  0.83009152  1
  Te  Te210  1  0.66736072  0.33179593  0.16702775  1
  Te  Te211  1  0.66775495  0.33933848  0.49129951  1
  Te  Te212  1  0.66840546  0.32630082  0.83417449  1
  Te  Te213  1  0.67027927  0.66648090  0.17484072  1
  Te  Te214  1  0.67089597  0.66359751  0.49603320  1
  Te  Te215  1  0.66682192  0.66586195  0.82863205  1
