# generated using pymatgen
data_AgSbTe2
_symmetry_space_group_name_H-M   'P 1'
_cell_length_a   18.33673151
_cell_length_b   18.33454540
_cell_length_c   18.33638565
_cell_angle_alpha   90.00044671
_cell_angle_beta   90.00036135
_cell_angle_gamma   90.00058427
_symmetry_Int_Tables_number   1
_chemical_formula_structural   AgSbTe2
_chemical_formula_sum   'Ag54 Sb54 Te108'
_cell_volume   6164.61284167
_cell_formula_units_Z   54
loop_
 _symmetry_equiv_pos_site_id
 _symmetry_equiv_pos_as_xyz
  1  'x, y, z'
loop_
 _atom_site_type_symbol
 _atom_site_label
 _atom_site_symmetry_multiplicity
 _atom_site_fract_x
 _atom_site_fract_y
 _atom_site_fract_z
 _atom_site_occupancy
  Ag  Ag0  1  0.33446910  0.66905382  0.00360109  1
  Ag  Ag1  1  0.17518609  0.83877395  0.32700717  1
  Ag  Ag2  1  0.83576731  0.00348868  0.16905052  1
  Ag  Ag3  1  0.83474898  0.33323788  0.49204014  1
  Ag  Ag4  1  0.66197470  0.16424805  0.49667287  1
  Ag  Ag5  1  0.32789802  0.49889007  0.83614772  1
  Ag  Ag6  1  0.00688986  0.49885794  0.16587645  1
  Ag  Ag7  1  0.82749491  0.84073048  0.66456116  1
  Ag  Ag8  1  0.49282020  0.83381000  0.00396497  1
  Ag  Ag9  1  0.17186631  0.16980722  0.66751128  1
  Ag  Ag10  1  0.49692628  0.15979669  0.00466205  1
  Ag  Ag11  1  0.49292041  0.16241412  0.33177580  1
  Ag  Ag12  1  0.84063012  0.33347276  0.17933859  1
  Ag  Ag13  1  0.66428696  0.32707343  0.65849928  1
  Ag  Ag14  1  0.84097596  0.48643636  0.32731326  1
  Ag  Ag15  1  0.17554839  0.83194423  0.00678743  1
  Ag  Ag16  1  0.65633301  0.00575709  0.33800645  1
  Ag  Ag17  1  0.33387553  0.67415470  0.33008988  1
  Ag  Ag18  1  0.49362997  0.84185676  0.33063134  1
  Ag  Ag19  1  0.33277913  0.00488116  0.66507382  1
  Ag  Ag20  1  0.16790646  0.33221926  0.49115029  1
  Ag  Ag21  1  0.00119383  0.33298585  0.33277697  1
  Ag  Ag22  1  0.16857915  -0.00008734  0.16936411  1
  Ag  Ag23  1  0.17367150  0.17373900  0.33632489  1
  Ag  Ag24  1  0.33683347  0.00022644  0.33530862  1
  Ag  Ag25  1  0.83830306  0.00049974  0.82573816  1
  Ag  Ag26  1  0.31747462  0.32578402  0.33910643  1
  Ag  Ag27  1  0.16728282  0.50026976  0.00321991  1
  Ag  Ag28  1  0.84372144  0.49899021  0.00434066  1
  Ag  Ag29  1  0.00752343  0.00094290  0.67216576  1
  Ag  Ag30  1  0.82953042  0.17400350  0.33402350  1
  Ag  Ag31  1  0.01093512  0.49422451  0.83861751  1
  Ag  Ag32  1  0.49422588  0.66976840  0.83875416  1
  Ag  Ag33  1  0.66038138  0.84246955  0.50121553  1
  Ag  Ag34  1  0.32952819  0.16450667  0.82549298  1
  Ag  Ag35  1  0.49399022  0.67702715  0.16496636  1
  Ag  Ag36  1  0.66432927  0.00120244  0.66112434  1
  Ag  Ag37  1  0.33366435  0.83429912  0.83149467  1
  Ag  Ag38  1  0.16893028  0.33017840  0.83083879  1
  Ag  Ag39  1  0.33288904  0.16434072  0.49594926  1
  Ag  Ag40  1  0.83092992  0.66410144  0.49783600  1
  Ag  Ag41  1  0.16920111  0.48761967  0.68049296  1
  Ag  Ag42  1  0.49714084  0.83658458  0.66348896  1
  Ag  Ag43  1  0.00585208  0.83493891  0.16816285  1
  Ag  Ag44  1  0.68519086  0.32339794  0.33972660  1
  Ag  Ag45  1  0.16385616  0.33974226  0.17906961  1
  Ag  Ag46  1  0.01358327  0.16994974  0.82972466  1
  Ag  Ag47  1  0.32566150  0.32540426  0.66288039  1
  Ag  Ag48  1  0.66839290  0.49688978  0.83245273  1
  Ag  Ag49  1  0.49128430  -0.00317407  0.17194341  1
  Ag  Ag50  1  0.16957637  0.00757414  0.83233376  1
  Ag  Ag51  1  0.33562275  0.84031711  0.49308272  1
  Ag  Ag52  1  0.32528218  0.49999675  0.16672216  1
  Ag  Ag53  1  0.16783021  0.48530796  0.32410787  1
  Sb  Sb54  1  0.66978166  0.49422072  0.50248511  1
  Sb  Sb55  1  0.00721433  0.83469183  0.83650762  1
  Sb  Sb56  1  0.66550470  0.66841849  0.66470910  1
  Sb  Sb57  1  0.82918818  0.66441628  0.17096806  1
  Sb  Sb58  1  0.83786107  0.33052505  0.83113396  1
  Sb  Sb59  1  0.00291034  0.83571590  0.49626806  1
  Sb  Sb60  1  0.83026886  0.00390001  0.49836573  1
  Sb  Sb61  1  0.00380542  0.16749293  0.50106644  1
  Sb  Sb62  1  0.33023709  0.49637342  0.49908320  1
  Sb  Sb63  1  0.65904581  0.83283606  0.82625802  1
  Sb  Sb64  1  0.66497390  0.83708530  0.17291708  1
  Sb  Sb65  1  0.82863235  0.66845120  0.83073670  1
  Sb  Sb66  1  0.66175636  0.66696246  0.33534024  1
  Sb  Sb67  1  0.49305490  0.33462337  0.83223358  1
  Sb  Sb68  1  0.49456281  0.49789567  0.33075066  1
  Sb  Sb69  1  0.66690115  0.33417408  0.00068556  1
  Sb  Sb70  1  0.17174447  0.84009220  0.66650991  1
  Sb  Sb71  1  0.33190480  0.16927592  0.17181069  1
  Sb  Sb72  1  0.65917847  0.66621830  -0.00086057  1
  Sb  Sb73  1  0.00798313  0.66444598  0.00143349  1
  Sb  Sb74  1  0.50082401  0.67333173  0.49790700  1
  Sb  Sb75  1  0.00086759  0.49694215  0.49781547  1
  Sb  Sb76  1  0.00245523  0.00060150  -0.00290293  1
  Sb  Sb77  1  0.00606442  0.66203949  0.33160798  1
  Sb  Sb78  1  0.83741677  0.49953484  0.66661863  1
  Sb  Sb79  1  0.16606082  0.66231155  0.49698050  1
  Sb  Sb80  1  0.49424735  0.50241465  -0.00037684  1
  Sb  Sb81  1  0.83702796  0.16348411  0.66203081  1
  Sb  Sb82  1  0.00352235  0.00423226  0.33413606  1
  Sb  Sb83  1  0.66543273  0.16630451  0.17731853  1
  Sb  Sb84  1  0.00254755  0.33484704  0.00494882  1
  Sb  Sb85  1  0.00234130  0.16838922  0.16542162  1
  Sb  Sb86  1  0.17367078  0.66369359  0.16754687  1
  Sb  Sb87  1  0.00128664  0.66992694  0.66766595  1
  Sb  Sb88  1  0.17092119  0.00620199  0.49832172  1
  Sb  Sb89  1  0.00619824  0.32922690  0.66399020  1
  Sb  Sb90  1  0.83429407  0.83036509  -0.00211333  1
  Sb  Sb91  1  0.49525918  0.50267794  0.66997547  1
  Sb  Sb92  1  0.66731308  0.49749972  0.16526526  1
  Sb  Sb93  1  0.82943299  0.17001625  0.00419892  1
  Sb  Sb94  1  0.33009803  0.83002152  0.16964111  1
  Sb  Sb95  1  0.33066152  0.33588065  0.00035619  1
  Sb  Sb96  1  0.49872182  -0.00010191  0.49290594  1
  Sb  Sb97  1  0.33286434  -0.00459679  0.00163499  1
  Sb  Sb98  1  0.66438620  0.00018867  0.00006929  1
  Sb  Sb99  1  0.49312276  0.16085266  0.66310765  1
  Sb  Sb100  1  0.49468830  -0.00327257  0.83582889  1
  Sb  Sb101  1  0.83225580  0.83639813  0.33668982  1
  Sb  Sb102  1  0.49704409  0.33104492  0.49809639  1
  Sb  Sb103  1  0.17193939  0.16713869  -0.00123752  1
  Sb  Sb104  1  0.33320710  0.66888278  0.66541291  1
  Sb  Sb105  1  0.49627294  0.33066205  0.17049239  1
  Sb  Sb106  1  0.17350598  0.66312514  0.83400334  1
  Sb  Sb107  1  0.66292267  0.16862114  0.82486914  1
  Te  Te108  1  0.16568875  0.16588992  0.16751355  1
  Te  Te109  1  0.17001190  0.17111167  0.49911946  1
  Te  Te110  1  0.16949915  0.16510759  0.83652324  1
  Te  Te111  1  0.16695994  0.49976264  0.16582374  1
  Te  Te112  1  0.16602449  0.49434305  0.49281414  1
  Te  Te113  1  0.16810476  0.50161254  0.83696163  1
  Te  Te114  1  0.16538985  0.83323201  0.16577690  1
  Te  Te115  1  0.17127709  0.83123394  0.49760478  1
  Te  Te116  1  0.17182330  0.83592718  0.83469315  1
  Te  Te117  1  0.49917159  0.16163255  0.16764022  1
  Te  Te118  1  0.49730768  0.16680932  0.49404006  1
  Te  Te119  1  0.49474308  0.16561257  0.83541019  1
  Te  Te120  1  0.49600160  0.50098259  0.16526245  1
  Te  Te121  1  0.50131172  0.50472494  0.50124206  1
  Te  Te122  1  0.49742070  0.50439265  0.83383620  1
  Te  Te123  1  0.50062897  0.83639629  0.16794262  1
  Te  Te124  1  0.49822077  0.83397705  0.49977833  1
  Te  Te125  1  0.49575727  0.83139049  0.83632914  1
  Te  Te126  1  0.83470428  0.16804653  0.16924047  1
  Te  Te127  1  0.83252165  0.17149629  0.49511657  1
  Te  Te128  1  0.83156278  0.16110407  0.83470193  1
  Te  Te129  1  0.83416952  0.49884631  0.16816419  1
  Te  Te130  1  0.83414713  0.49775888  0.49623641  1
  Te  Te131  1  0.83247207  0.50031211  0.83521194  1
  Te  Te132  1  0.83675582  0.83495269  0.16528360  1
  Te  Te133  1  0.83465120  0.83377438  0.50427008  1
  Te  Te134  1  0.83474806  0.83743549  0.83025481  1
  Te  Te135  1  0.16676949  -0.00327911  0.00270236  1
  Te  Te136  1  0.16725489  -0.00127317  0.33208640  1
  Te  Te137  1  0.17136097  0.00420469  0.66794971  1
  Te  Te138  1  0.16700921  0.33742042  -0.00730914  1
  Te  Te139  1  0.16279786  0.33019313  0.33418685  1
  Te  Te140  1  0.16713666  0.33038494  0.67125004  1
  Te  Te141  1  0.17451085  0.66818114  0.00005475  1
  Te  Te142  1  0.17332726  0.67606909  0.33427939  1
  Te  Te143  1  0.16648637  0.65695894  0.66431968  1
  Te  Te144  1  0.50018866  -0.00248408  0.00770882  1
  Te  Te145  1  0.49901722  0.00092800  0.32967580  1
  Te  Te146  1  0.49823411  -0.00455940  0.66983459  1
  Te  Te147  1  0.50006895  0.32587634  0.00149854  1
  Te  Te148  1  0.49775750  0.32796037  0.33245546  1
  Te  Te149  1  0.50225034  0.33313186  0.66612312  1
  Te  Te150  1  0.49394642  0.66938319  0.00059493  1
  Te  Te151  1  0.49431175  0.66841915  0.33025513  1
  Te  Te152  1  0.49968121  0.67436277  0.67166657  1
  Te  Te153  1  0.83244765  -0.00045817  0.00643693  1
  Te  Te154  1  0.83531702  0.00283277  0.32960772  1
  Te  Te155  1  0.82726983  -0.00071133  0.66620964  1
  Te  Te156  1  0.83277838  0.33927072  0.00243108  1
  Te  Te157  1  0.83968117  0.33105760  0.33506779  1
  Te  Te158  1  0.82949710  0.33271854  0.66271349  1
  Te  Te159  1  0.83203507  0.66037473  0.00032607  1
  Te  Te160  1  0.83209763  0.66625232  0.33691636  1
  Te  Te161  1  0.83349258  0.67180796  0.66198945  1
  Te  Te162  1  -0.00224030  0.16764368  -0.01152999  1
  Te  Te163  1  0.00163311  0.17006211  0.33353031  1
  Te  Te164  1  0.00495513  0.16221900  0.67090940  1
  Te  Te165  1  0.00313231  0.50034647  0.00138287  1
  Te  Te166  1  0.00170359  0.49836833  0.33064768  1
  Te  Te167  1  0.00597866  0.50092537  0.67112909  1
  Te  Te168  1  0.00372363  0.83140525  0.00650132  1
  Te  Te169  1  0.00293219  0.83323464  0.32824569  1
  Te  Te170  1  -0.00059256  0.83837740  0.66729864  1
  Te  Te171  1  0.33755432  0.16710057  -0.00620753  1
  Te  Te172  1  0.33299094  0.16570774  0.33342843  1
  Te  Te173  1  0.33232500  0.16607311  0.66553329  1
  Te  Te174  1  0.33013278  0.50263105  -0.00110270  1
  Te  Te175  1  0.32983098  0.49523487  0.33250039  1
  Te  Te176  1  0.32971795  0.49694849  0.66877668  1
  Te  Te177  1  0.33354022  0.83074131  -0.00201604  1
  Te  Te178  1  0.33448393  0.83753645  0.33275600  1
  Te  Te179  1  0.33542640  0.83622141  0.66810319  1
  Te  Te180  1  0.65855387  0.16721148  -0.00319393  1
  Te  Te181  1  0.66866380  0.16571481  0.33744758  1
  Te  Te182  1  0.66499005  0.16551699  0.65965369  1
  Te  Te183  1  0.66700062  0.49912347  -0.00593475  1
  Te  Te184  1  0.66837905  0.49700073  0.33401024  1
  Te  Te185  1  0.66725057  0.49545682  0.67067063  1
  Te  Te186  1  0.66068962  0.83291508  -0.00133380  1
  Te  Te187  1  0.66331567  0.83707385  0.34027614  1
  Te  Te188  1  0.66583633  0.83641665  0.66211905  1
  Te  Te189  1  0.00252478  -0.00140894  0.16643999  1
  Te  Te190  1  0.00013222  0.00027971  0.51147390  1
  Te  Te191  1  0.00145001  -0.00071530  0.83080421  1
  Te  Te192  1  0.00161854  0.33546716  0.16974509  1
  Te  Te193  1  -0.00004669  0.33238430  0.49639176  1
  Te  Te194  1  0.00356606  0.33371793  0.83160978  1
  Te  Te195  1  -0.00347503  0.66336814  0.16693825  1
  Te  Te196  1  -0.00873326  0.66767443  0.49960858  1
  Te  Te197  1  -0.00227421  0.65910156  0.83388800  1
  Te  Te198  1  0.33008038  0.00220829  0.17094592  1
  Te  Te199  1  0.33318408  0.00106815  0.50012841  1
  Te  Te200  1  0.33060593  -0.00068139  0.83341429  1
  Te  Te201  1  0.32823875  0.33834790  0.17071668  1
  Te  Te202  1  0.33033018  0.33041196  0.50129650  1
  Te  Te203  1  0.33021871  0.33523226  0.83120920  1
  Te  Te204  1  0.33719683  0.66177821  0.16869810  1
  Te  Te205  1  0.33354435  0.67232963  0.49416684  1
  Te  Te206  1  0.33629371  0.66722700  0.83198403  1
  Te  Te207  1  0.67158870  0.00001384  0.17124159  1
  Te  Te208  1  0.66705083  0.00177353  0.49960064  1
  Te  Te209  1  0.67145915  0.00021121  0.82873521  1
  Te  Te210  1  0.67192673  0.33342344  0.17261762  1
  Te  Te211  1  0.66605978  0.32950026  0.49855532  1
  Te  Te212  1  0.66753484  0.33631208  0.82984718  1
  Te  Te213  1  0.65602782  0.66691908  0.16701894  1
  Te  Te214  1  0.67141282  0.67137194  0.49990394  1
  Te  Te215  1  0.66007032  0.66095946  0.83235633  1
