# generated using pymatgen
data_AgSbTe2
_symmetry_space_group_name_H-M   'P 1'
_cell_length_a   18.32557890
_cell_length_b   18.31515997
_cell_length_c   18.32108724
_cell_angle_alpha   90.00050351
_cell_angle_beta   89.99821310
_cell_angle_gamma   90.00426141
_symmetry_Int_Tables_number   1
_chemical_formula_structural   AgSbTe2
_chemical_formula_sum   'Ag54 Sb54 Te108'
_cell_volume   6149.21474885
_cell_formula_units_Z   54
loop_
 _symmetry_equiv_pos_site_id
 _symmetry_equiv_pos_as_xyz
  1  'x, y, z'
loop_
 _atom_site_type_symbol
 _atom_site_label
 _atom_site_symmetry_multiplicity
 _atom_site_fract_x
 _atom_site_fract_y
 _atom_site_fract_z
 _atom_site_occupancy
  Ag  Ag0  1  0.16051801  0.67625667  0.16480075  1
  Ag  Ag1  1  0.16037778  0.49499252  -0.00496869  1
  Ag  Ag2  1  -0.00036712  0.83777271  0.50100654  1
  Ag  Ag3  1  0.16882393  0.33565595  0.83750080  1
  Ag  Ag4  1  0.16428199  0.83697766  0.66758939  1
  Ag  Ag5  1  0.84356614  0.83876665  0.66852161  1
  Ag  Ag6  1  0.16397196  0.33124785  0.15523631  1
  Ag  Ag7  1  0.33721273  0.16743964  0.83269446  1
  Ag  Ag8  1  0.50149984  0.49895308  0.33326038  1
  Ag  Ag9  1  0.66739815  0.33211644  0.67116774  1
  Ag  Ag10  1  0.15772645  0.83721754  0.33444604  1
  Ag  Ag11  1  0.67621054  -0.00056063  0.32715039  1
  Ag  Ag12  1  0.33132556  0.67882275  0.67120287  1
  Ag  Ag13  1  0.33508435  0.16173308  0.51114234  1
  Ag  Ag14  1  0.16370326  0.00059154  0.83135973  1
  Ag  Ag15  1  0.16065858  -0.00241633  0.50918773  1
  Ag  Ag16  1  0.50518125  0.00374743  0.16500941  1
  Ag  Ag17  1  0.33049652  0.83897238  0.16495109  1
  Ag  Ag18  1  0.33474234  0.00348809  -0.00525361  1
  Ag  Ag19  1  0.66838566  0.49575931  0.50000836  1
  Ag  Ag20  1  0.00018800  0.67795908  0.32345146  1
  Ag  Ag21  1  0.66961357  0.84471758  0.83230547  1
  Ag  Ag22  1  -0.00247949  0.83849475  0.82905955  1
  Ag  Ag23  1  0.32531438  0.32793576  -0.00414989  1
  Ag  Ag24  1  0.32441955  0.49131553  0.83354863  1
  Ag  Ag25  1  0.83479651  0.32657055  0.83605533  1
  Ag  Ag26  1  0.49756312  0.67171312  0.83320272  1
  Ag  Ag27  1  0.84130085  0.83818629  0.33449507  1
  Ag  Ag28  1  0.49847878  0.83781572  -0.00885896  1
  Ag  Ag29  1  0.67078191  0.16224484  0.15820808  1
  Ag  Ag30  1  0.83449561  0.32510536  0.50602918  1
  Ag  Ag31  1  0.16721161  0.50278436  0.67746144  1
  Ag  Ag32  1  0.49866644  0.00052412  0.50356519  1
  Ag  Ag33  1  -0.00314650  -0.00686943  0.33565247  1
  Ag  Ag34  1  0.00039074  0.66333403  0.00277865  1
  Ag  Ag35  1  0.83759253  0.00069853  0.49727378  1
  Ag  Ag36  1  0.66635842  0.00100452  0.00167914  1
  Ag  Ag37  1  -0.00065577  0.33223048  0.32296576  1
  Ag  Ag38  1  0.49572821  0.32300637  0.15715248  1
  Ag  Ag39  1  0.32848763  -0.00246663  0.67324914  1
  Ag  Ag40  1  0.49865453  0.15936424  0.67019416  1
  Ag  Ag41  1  0.00601234  -0.00402271  0.66543201  1
  Ag  Ag42  1  0.83252067  0.16552408  -0.00115829  1
  Ag  Ag43  1  0.00612876  0.33781114  -0.00063674  1
  Ag  Ag44  1  0.84205424  0.49241740  -0.00207086  1
  Ag  Ag45  1  0.49384709  0.33155668  0.83743629  1
  Ag  Ag46  1  0.00748245  0.50060455  0.83740297  1
  Ag  Ag47  1  0.83655331  0.00047629  0.83507799  1
  Ag  Ag48  1  0.66473938  0.16268476  0.83697713  1
  Ag  Ag49  1  0.84308853  0.67753469  0.16431138  1
  Ag  Ag50  1  0.49665390  0.84133219  0.67350895  1
  Ag  Ag51  1  -0.00267226  0.16329110  0.16565743  1
  Ag  Ag52  1  0.83469325  -0.00088397  0.16747457  1
  Ag  Ag53  1  0.16398183  -0.00163269  0.16508708  1
  Sb  Sb54  1  0.17099888  0.16016460  0.66979259  1
  Sb  Sb55  1  0.66782839  0.49509446  0.83113448  1
  Sb  Sb56  1  -0.00094809  0.16471006  0.83870296  1
  Sb  Sb57  1  0.49614580  0.49947042  0.66708309  1
  Sb  Sb58  1  0.67086589  0.32762868  0.33495862  1
  Sb  Sb59  1  0.50069172  0.16720258  0.33403209  1
  Sb  Sb60  1  0.66587060  0.00188397  0.67121101  1
  Sb  Sb61  1  0.32868207  0.84162299  0.50102327  1
  Sb  Sb62  1  0.50341020  0.16094868  -0.00511279  1
  Sb  Sb63  1  -0.00237969  0.50259100  0.50541885  1
  Sb  Sb64  1  0.66360144  0.66552432  0.66900961  1
  Sb  Sb65  1  0.66764770  0.32700852  -0.00513244  1
  Sb  Sb66  1  0.00026892  0.49910310  0.15815962  1
  Sb  Sb67  1  0.32914851  0.33276667  0.32581577  1
  Sb  Sb68  1  0.83414434  0.15862814  0.32799529  1
  Sb  Sb69  1  0.83290429  0.83849061  -0.00090911  1
  Sb  Sb70  1  0.66519597  0.84288437  0.16159085  1
  Sb  Sb71  1  0.33161897  0.50137062  0.16006030  1
  Sb  Sb72  1  0.32888558  0.66820461  -0.00488605  1
  Sb  Sb73  1  0.49944696  0.50008806  0.00013276  1
  Sb  Sb74  1  0.66707948  0.49242319  0.16820639  1
  Sb  Sb75  1  0.50295656  0.32843269  0.50271585  1
  Sb  Sb76  1  -0.00165401  0.32765368  0.67232590  1
  Sb  Sb77  1  0.16590617  0.50334944  0.33053761  1
  Sb  Sb78  1  0.83678940  0.32735340  0.16222850  1
  Sb  Sb79  1  0.16178700  0.17064355  -0.00091540  1
  Sb  Sb80  1  0.00460427  0.67467895  0.67060220  1
  Sb  Sb81  1  0.16480794  0.67452345  0.49839508  1
  Sb  Sb82  1  0.82954393  0.16049169  0.67314586  1
  Sb  Sb83  1  0.50085900  0.83553450  0.33363242  1
  Sb  Sb84  1  0.33290160  0.16111821  0.16033938  1
  Sb  Sb85  1  0.67125736  0.67238149  0.33150788  1
  Sb  Sb86  1  0.16160984  0.32708960  0.50229293  1
  Sb  Sb87  1  0.16833496  0.83317314  -0.00140018  1
  Sb  Sb88  1  0.83335462  0.67045102  0.83798979  1
  Sb  Sb89  1  0.16457968  0.15906075  0.33128197  1
  Sb  Sb90  1  0.49894213  0.67220083  0.50506114  1
  Sb  Sb91  1  0.83523622  0.67162819  0.49697224  1
  Sb  Sb92  1  0.83359794  0.50301245  0.32999507  1
  Sb  Sb93  1  0.49978302  0.00186767  0.83429569  1
  Sb  Sb94  1  0.49884761  0.67082048  0.16217594  1
  Sb  Sb95  1  0.67191092  0.67270522  -0.00094681  1
  Sb  Sb96  1  0.00088433  0.00040412  0.00091123  1
  Sb  Sb97  1  0.32964286  0.00004431  0.33219299  1
  Sb  Sb98  1  0.83757049  0.50173391  0.67153272  1
  Sb  Sb99  1  0.16880695  0.66584492  0.83644946  1
  Sb  Sb100  1  0.67206398  0.83564209  0.50590855  1
  Sb  Sb101  1  0.33519718  0.32712962  0.67598528  1
  Sb  Sb102  1  0.33291067  0.83853300  0.83349063  1
  Sb  Sb103  1  0.32926892  0.66816341  0.33503855  1
  Sb  Sb104  1  0.00093812  0.15822696  0.49590128  1
  Sb  Sb105  1  0.00320029  0.83718413  0.16677655  1
  Sb  Sb106  1  0.66546555  0.16524043  0.50410523  1
  Sb  Sb107  1  0.33554049  0.49397538  0.50822863  1
  Te  Te108  1  0.16469473  0.16643644  0.16587420  1
  Te  Te109  1  0.17153590  0.15817926  0.50039064  1
  Te  Te110  1  0.16930027  0.16607341  0.83343848  1
  Te  Te111  1  0.16771468  0.49342633  0.16338232  1
  Te  Te112  1  0.16698284  0.49903348  0.50354211  1
  Te  Te113  1  0.16573433  0.50161101  0.83442793  1
  Te  Te114  1  0.16846340  0.83599579  0.16493339  1
  Te  Te115  1  0.16220044  0.83941486  0.50060563  1
  Te  Te116  1  0.16387682  0.83629436  0.83044306  1
  Te  Te117  1  0.50052257  0.16502295  0.16716362  1
  Te  Te118  1  0.49811258  0.16044140  0.50476426  1
  Te  Te119  1  0.50125771  0.16964510  0.83052714  1
  Te  Te120  1  0.49956402  0.49833876  0.16992247  1
  Te  Te121  1  0.50300815  0.49999386  0.49767342  1
  Te  Te122  1  0.49938189  0.49396391  0.83313565  1
  Te  Te123  1  0.49559929  0.83801406  0.16606558  1
  Te  Te124  1  0.50058502  0.84020070  0.50346449  1
  Te  Te125  1  0.49850209  0.83418135  0.83274488  1
  Te  Te126  1  0.83323528  0.16159988  0.16230693  1
  Te  Te127  1  0.83282147  0.16519825  0.50181297  1
  Te  Te128  1  0.83203702  0.16564628  0.83686243  1
  Te  Te129  1  0.83178281  0.50161083  0.16137559  1
  Te  Te130  1  0.83010639  0.49892338  0.50148063  1
  Te  Te131  1  0.83554120  0.49953373  0.83743889  1
  Te  Te132  1  0.83162955  0.83725375  0.16824962  1
  Te  Te133  1  0.83735472  0.83846605  0.50131943  1
  Te  Te134  1  0.83322417  0.83624912  0.83207014  1
  Te  Te135  1  0.16985161  0.00105650  -0.00095177  1
  Te  Te136  1  0.16293310  -0.00432037  0.32654925  1
  Te  Te137  1  0.16693722  -0.00199099  0.66921898  1
  Te  Te138  1  0.16665636  0.33434033  -0.00188436  1
  Te  Te139  1  0.16042590  0.33388640  0.33317248  1
  Te  Te140  1  0.16609633  0.33682359  0.67149553  1
  Te  Te141  1  0.16320689  0.66131518  0.00511386  1
  Te  Te142  1  0.16170813  0.67129261  0.32778591  1
  Te  Te143  1  0.17079980  0.67097815  0.66638632  1
  Te  Te144  1  0.49753550  -0.00281290  0.00230755  1
  Te  Te145  1  0.50052495  -0.00069449  0.32994614  1
  Te  Te146  1  0.50010093  -0.00002734  0.66640266  1
  Te  Te147  1  0.49893082  0.33383870  -0.00056558  1
  Te  Te148  1  0.50047687  0.33644940  0.33203226  1
  Te  Te149  1  0.50331050  0.33148096  0.67039222  1
  Te  Te150  1  0.50019097  0.67205542  -0.00465207  1
  Te  Te151  1  0.50047769  0.66249785  0.33314160  1
  Te  Te152  1  0.49508856  0.66971333  0.67162772  1
  Te  Te153  1  0.83393251  0.00257777  -0.00123862  1
  Te  Te154  1  0.83608026  -0.00198019  0.33186629  1
  Te  Te155  1  0.83205824  -0.00333758  0.67035994  1
  Te  Te156  1  0.83369728  0.33210516  -0.00270179  1
  Te  Te157  1  0.83829524  0.33447453  0.33445494  1
  Te  Te158  1  0.83137376  0.33400941  0.66937116  1
  Te  Te159  1  0.83846471  0.66554380  0.00480433  1
  Te  Te160  1  0.83863636  0.67182893  0.32753466  1
  Te  Te161  1  0.83337033  0.67608456  0.66694198  1
  Te  Te162  1  -0.00649629  0.17119235  0.00527035  1
  Te  Te163  1  -0.00011367  0.17101327  0.32755939  1
  Te  Te164  1  -0.00089268  0.15689377  0.66554378  1
  Te  Te165  1  0.00021719  0.49843552  -0.00307950  1
  Te  Te166  1  -0.00011661  0.49658602  0.33665063  1
  Te  Te167  1  0.00580234  0.50228570  0.67311341  1
  Te  Te168  1  0.00032781  0.82821113  -0.00871640  1
  Te  Te169  1  0.00064202  0.83514928  0.33089486  1
  Te  Te170  1  0.00207443  0.83585064  0.66818044  1
  Te  Te171  1  0.33472933  0.16532272  -0.00530217  1
  Te  Te172  1  0.33340492  0.16834637  0.34048841  1
  Te  Te173  1  0.33707655  0.16101454  0.67107923  1
  Te  Te174  1  0.33136028  0.49680130  -0.00639265  1
  Te  Te175  1  0.33841104  0.50023486  0.33572690  1
  Te  Te176  1  0.32887354  0.49994210  0.67221412  1
  Te  Te177  1  0.33640408  0.83617763  0.00233183  1
  Te  Te178  1  0.32873687  0.83166722  0.32920256  1
  Te  Te179  1  0.33281992  0.83751745  0.66664049  1
  Te  Te180  1  0.67016999  0.16145887  -0.00199032  1
  Te  Te181  1  0.66646430  0.15950105  0.32783407  1
  Te  Te182  1  0.66238824  0.17110536  0.67184042  1
  Te  Te183  1  0.67226548  0.50220138  0.00084575  1
  Te  Te184  1  0.66533191  0.49961869  0.33630363  1
  Te  Te185  1  0.66807027  0.49529925  0.66268018  1
  Te  Te186  1  0.66192315  0.83961156  -0.00642132  1
  Te  Te187  1  0.67058037  0.83991231  0.33495343  1
  Te  Te188  1  0.66081074  0.83245597  0.67259159  1
  Te  Te189  1  0.00027018  0.00256508  0.16704922  1
  Te  Te190  1  -0.00087688  -0.00242940  0.49872706  1
  Te  Te191  1  0.00014870  -0.00089139  0.83342719  1
  Te  Te192  1  0.00175785  0.33130876  0.16353272  1
  Te  Te193  1  -0.00566676  0.33318641  0.50182062  1
  Te  Te194  1  -0.00151890  0.33265275  0.83584503  1
  Te  Te195  1  0.00068166  0.66714294  0.16512706  1
  Te  Te196  1  -0.00040689  0.67231239  0.49405311  1
  Te  Te197  1  -0.00007261  0.66515619  0.83774884  1
  Te  Te198  1  0.33057932  -0.00083468  0.16500094  1
  Te  Te199  1  0.33495671  0.00258360  0.50010067  1
  Te  Te200  1  0.33094041  0.00274925  0.83418224  1
  Te  Te201  1  0.33371472  0.33252556  0.15942097  1
  Te  Te202  1  0.33244857  0.32499058  0.49901097  1
  Te  Te203  1  0.33210180  0.33131631  0.83597741  1
  Te  Te204  1  0.32849437  0.67124992  0.16557022  1
  Te  Te205  1  0.33310765  0.66452665  0.50884836  1
  Te  Te206  1  0.33648798  0.66380578  0.83048691  1
  Te  Te207  1  0.66717816  0.00234110  0.16389545  1
  Te  Te208  1  0.67038090  -0.00033891  0.49635674  1
  Te  Te209  1  0.66903981  0.00181343  0.83581720  1
  Te  Te210  1  0.66182152  0.32478278  0.16699326  1
  Te  Te211  1  0.67175880  0.33348599  0.50239851  1
  Te  Te212  1  0.67001970  0.33013574  0.83095499  1
  Te  Te213  1  0.67043585  0.66627519  0.16698688  1
  Te  Te214  1  0.66650699  0.65892430  0.49962390  1
  Te  Te215  1  0.66031875  0.66892099  0.83379922  1
