# generated using pymatgen
data_AgSbTe2
_symmetry_space_group_name_H-M   'P 1'
_cell_length_a   18.36330238
_cell_length_b   18.34944494
_cell_length_c   18.35577939
_cell_angle_alpha   89.99826688
_cell_angle_beta   89.99915042
_cell_angle_gamma   89.99725851
_symmetry_Int_Tables_number   1
_chemical_formula_structural   AgSbTe2
_chemical_formula_sum   'Ag54 Sb54 Te108'
_cell_volume   6185.09744313
_cell_formula_units_Z   54
loop_
 _symmetry_equiv_pos_site_id
 _symmetry_equiv_pos_as_xyz
  1  'x, y, z'
loop_
 _atom_site_type_symbol
 _atom_site_label
 _atom_site_symmetry_multiplicity
 _atom_site_fract_x
 _atom_site_fract_y
 _atom_site_fract_z
 _atom_site_occupancy
  Ag  Ag0  1  0.33804607  0.16648219  0.16924953  1
  Ag  Ag1  1  0.49899631  0.34364325  0.82532118  1
  Ag  Ag2  1  0.66119193  0.33338616  0.66357680  1
  Ag  Ag3  1  0.66429496  -0.01307232  0.66138710  1
  Ag  Ag4  1  0.34067605  0.82621062  0.50400033  1
  Ag  Ag5  1  0.16598582  0.32734361  0.50173378  1
  Ag  Ag6  1  0.66025541  0.84260299  0.50641056  1
  Ag  Ag7  1  0.66752747  0.16268062  0.49638181  1
  Ag  Ag8  1  0.83222069  0.66293131  0.50932910  1
  Ag  Ag9  1  0.50894445  0.82056400  0.66274292  1
  Ag  Ag10  1  0.33151050  0.50599594  0.51093256  1
  Ag  Ag11  1  -0.00052568  0.66639615  0.35101077  1
  Ag  Ag12  1  0.49623707  0.66574131  0.16795697  1
  Ag  Ag13  1  0.50171585  0.66283883  0.81836855  1
  Ag  Ag14  1  0.50020087  -0.00150685  0.50049097  1
  Ag  Ag15  1  0.66812406  0.32198148  0.34623553  1
  Ag  Ag16  1  0.49159105  0.50745389  0.66701348  1
  Ag  Ag17  1  -0.00697713  0.16522250  0.50264309  1
  Ag  Ag18  1  0.65866439  0.01143730  0.34525814  1
  Ag  Ag19  1  0.82058268  0.16872858  0.33391710  1
  Ag  Ag20  1  0.16892119  0.82123613  0.66158101  1
  Ag  Ag21  1  0.34272927  0.00494784  0.33478394  1
  Ag  Ag22  1  0.16910748  0.16505713  0.33571934  1
  Ag  Ag23  1  0.35099416  0.65853785  0.66128257  1
  Ag  Ag24  1  0.00722287  0.00611750  -0.00767065  1
  Ag  Ag25  1  0.16403124  0.16371176  0.00559950  1
  Ag  Ag26  1  0.34317195  0.34670429  0.66461648  1
  Ag  Ag27  1  0.83213718  0.66378559  0.16876602  1
  Ag  Ag28  1  0.49547623  0.67294801  0.50803562  1
  Ag  Ag29  1  0.33650364  0.50299357  0.82124823  1
  Ag  Ag30  1  0.81926312  0.82435993  0.66515882  1
  Ag  Ag31  1  0.49442990  0.50474714  -0.01710075  1
  Ag  Ag32  1  0.33607754  0.50755582  0.16490020  1
  Ag  Ag33  1  0.66663199  0.67245263  0.66341142  1
  Ag  Ag34  1  0.82646157  0.66446948  0.81992299  1
  Ag  Ag35  1  0.33308646  0.00070300  0.00600805  1
  Ag  Ag36  1  0.00308600  0.49985219  0.82648034  1
  Ag  Ag37  1  0.50250665  0.16818622  0.66031346  1
  Ag  Ag38  1  0.50934686  0.16175180  0.34189672  1
  Ag  Ag39  1  0.66044863  0.16690108  0.18191182  1
  Ag  Ag40  1  0.49786852  0.00514049  0.18072575  1
  Ag  Ag41  1  0.18062539  0.50666894  0.66392247  1
  Ag  Ag42  1  0.83037666  0.33298176  0.50048576  1
  Ag  Ag43  1  0.17758634  0.66413274  0.17348588  1
  Ag  Ag44  1  0.66663762  0.82992762  0.81713053  1
  Ag  Ag45  1  0.83167415  0.51169257  0.66643972  1
  Ag  Ag46  1  0.17130502  0.66875174  0.50534558  1
  Ag  Ag47  1  0.82929364  0.33076665  0.17719356  1
  Ag  Ag48  1  0.83723219  0.16653963  0.00614579  1
  Ag  Ag49  1  -0.01772249  0.66833828  0.66601256  1
  Ag  Ag50  1  -0.00098500  0.16833970  0.82275780  1
  Ag  Ag51  1  0.33629766  0.66572264  -0.00785151  1
  Ag  Ag52  1  0.17519203  0.00131443  0.50094698  1
  Ag  Ag53  1  -0.00202617  -0.00315537  0.66502416  1
  Sb  Sb54  1  0.33850341  0.32785557  0.33908839  1
  Sb  Sb55  1  0.16964224  0.83561572  -0.00505326  1
  Sb  Sb56  1  0.66360993  0.49730643  0.16794486  1
  Sb  Sb57  1  -0.00033236  -0.00006167  0.33868812  1
  Sb  Sb58  1  0.83118458  0.83499563  0.34122298  1
  Sb  Sb59  1  0.49979268  0.83916543  0.34340274  1
  Sb  Sb60  1  0.66108767  0.66678255  -0.00412773  1
  Sb  Sb61  1  0.83340019  0.83518693  -0.00528513  1
  Sb  Sb62  1  0.16928377  0.16866996  0.66136559  1
  Sb  Sb63  1  0.16975004  0.33358241  0.82596766  1
  Sb  Sb64  1  0.49838893  0.82842264  -0.00687835  1
  Sb  Sb65  1  0.66828760  0.66769974  0.34128301  1
  Sb  Sb66  1  0.66167528  0.49864063  0.50551506  1
  Sb  Sb67  1  0.82894679  0.33684260  0.82719767  1
  Sb  Sb68  1  -0.00101056  0.83437895  0.50461532  1
  Sb  Sb69  1  0.33249058  0.66929055  0.34021532  1
  Sb  Sb70  1  0.49908904  0.16844596  0.00072933  1
  Sb  Sb71  1  -0.00116007  0.33540077  0.66443937  1
  Sb  Sb72  1  0.00464273  0.67038400  -0.00801436  1
  Sb  Sb73  1  0.83358725  0.49713400  0.33989524  1
  Sb  Sb74  1  0.16846647  0.49864790  0.34181909  1
  Sb  Sb75  1  0.66968010  0.16307265  0.82654771  1
  Sb  Sb76  1  0.00340499  0.50123620  0.50782954  1
  Sb  Sb77  1  -0.00029215  0.32745965  -0.00119138  1
  Sb  Sb78  1  0.49854173  -0.00185347  0.82671568  1
  Sb  Sb79  1  0.16783151  0.83462476  0.34127854  1
  Sb  Sb80  1  0.00248924  0.50321953  0.16045265  1
  Sb  Sb81  1  0.82738856  0.00305406  0.16741524  1
  Sb  Sb82  1  0.17257681  0.49863836  -0.00509164  1
  Sb  Sb83  1  0.82996262  0.16558609  0.66185268  1
  Sb  Sb84  1  0.66367059  0.83610630  0.17208951  1
  Sb  Sb85  1  0.33112737  0.16979457  0.83558200  1
  Sb  Sb86  1  0.33898219  0.82673530  0.82377703  1
  Sb  Sb87  1  0.49826043  0.49686453  0.34029533  1
  Sb  Sb88  1  -0.00127289  0.16527108  0.17139245  1
  Sb  Sb89  1  -0.00425564  0.33424694  0.33674376  1
  Sb  Sb90  1  0.66555650  0.33109302  -0.00367085  1
  Sb  Sb91  1  0.66276042  0.00188911  -0.00138900  1
  Sb  Sb92  1  0.33397991  0.33672434  -0.00374617  1
  Sb  Sb93  1  -0.00404972  0.83221229  0.82629414  1
  Sb  Sb94  1  0.17261421  -0.00189325  0.17057899  1
  Sb  Sb95  1  0.50217945  0.33234821  0.16546076  1
  Sb  Sb96  1  0.33566458  0.83378135  0.17236585  1
  Sb  Sb97  1  0.66065218  0.50443269  0.82710091  1
  Sb  Sb98  1  0.33557147  -0.00231469  0.66160081  1
  Sb  Sb99  1  0.16584788  0.33408308  0.17262741  1
  Sb  Sb100  1  0.16679764  0.00185836  0.82688521  1
  Sb  Sb101  1  0.17056790  0.66519594  0.82278475  1
  Sb  Sb102  1  0.50152241  0.33155789  0.50647354  1
  Sb  Sb103  1  0.82775850  0.00095910  0.50100629  1
  Sb  Sb104  1  0.83020214  0.49840410  -0.00466110  1
  Sb  Sb105  1  0.83412784  -0.00242211  0.83070932  1
  Sb  Sb106  1  -0.00017786  0.83271299  0.16583122  1
  Sb  Sb107  1  0.33643230  0.16721873  0.49705968  1
  Te  Te108  1  0.16931985  0.16662976  0.16903072  1
  Te  Te109  1  0.16977841  0.16621122  0.49859529  1
  Te  Te110  1  0.16026083  0.16812811  0.84005620  1
  Te  Te111  1  0.17107538  0.50295407  0.16476340  1
  Te  Te112  1  0.16971753  0.50388490  0.50447132  1
  Te  Te113  1  0.16838653  0.49871449  0.82754598  1
  Te  Te114  1  0.16705587  0.82467354  0.16607558  1
  Te  Te115  1  0.16552209  0.83213787  0.50367105  1
  Te  Te116  1  0.16703287  0.83386520  0.82582152  1
  Te  Te117  1  0.50036801  0.16507846  0.16466393  1
  Te  Te118  1  0.50196946  0.16582924  0.49954776  1
  Te  Te119  1  0.50049792  0.16768540  0.83240942  1
  Te  Te120  1  0.49664375  0.50054907  0.17247854  1
  Te  Te121  1  0.49445482  0.50549001  0.50534399  1
  Te  Te122  1  0.49762996  0.50358055  0.82724418  1
  Te  Te123  1  0.50086369  0.83252959  0.16456864  1
  Te  Te124  1  0.50027842  0.83440669  0.50391069  1
  Te  Te125  1  0.50454793  0.82773882  0.82574946  1
  Te  Te126  1  0.83144722  0.16788289  0.16969037  1
  Te  Te127  1  0.83232527  0.16797554  0.49703014  1
  Te  Te128  1  0.83833442  0.16835860  0.83708611  1
  Te  Te129  1  0.83256657  0.49799799  0.16443099  1
  Te  Te130  1  0.83551291  0.50009537  0.50409164  1
  Te  Te131  1  0.83653567  0.50370323  0.83123964  1
  Te  Te132  1  0.83181265  0.82853779  0.16655917  1
  Te  Te133  1  0.83067198  0.82748808  0.50498143  1
  Te  Te134  1  0.82916664  0.82637506  0.82778887  1
  Te  Te135  1  0.16907277  0.00258935  0.00194939  1
  Te  Te136  1  0.16645237  0.00260670  0.33861822  1
  Te  Te137  1  0.16483273  0.00203380  0.66063716  1
  Te  Te138  1  0.16651255  0.32667342  0.00246667  1
  Te  Te139  1  0.16632432  0.32925392  0.33997695  1
  Te  Te140  1  0.16748281  0.33700052  0.66069014  1
  Te  Te141  1  0.17256252  0.66745884  0.00354491  1
  Te  Te142  1  0.16309347  0.66631313  0.33612752  1
  Te  Te143  1  0.16884273  0.66318665  0.66541170  1
  Te  Te144  1  0.49467790  -0.00085375  -0.00127806  1
  Te  Te145  1  0.50096012  0.00211664  0.33685804  1
  Te  Te146  1  0.50184411  0.00706547  0.66333647  1
  Te  Te147  1  0.49940583  0.34024340  -0.00636642  1
  Te  Te148  1  0.50650584  0.32515247  0.33327832  1
  Te  Te149  1  0.50034391  0.33035986  0.66612175  1
  Te  Te150  1  0.49542502  0.66359598  0.00860745  1
  Te  Te151  1  0.50085457  0.66544565  0.32948329  1
  Te  Te152  1  0.50551135  0.66548781  0.66321277  1
  Te  Te153  1  0.83576510  0.00419224  -0.00012130  1
  Te  Te154  1  0.83106374  0.00609826  0.33248472  1
  Te  Te155  1  0.83597740  -0.00292179  0.66635829  1
  Te  Te156  1  0.83285470  0.32914218  0.00007765  1
  Te  Te157  1  0.83008490  0.33045753  0.33715842  1
  Te  Te158  1  0.83002966  0.33297055  0.66180675  1
  Te  Te159  1  0.83410828  0.66659264  0.00564536  1
  Te  Te160  1  0.83587099  0.66645002  0.33017637  1
  Te  Te161  1  0.82696539  0.66872460  0.66439490  1
  Te  Te162  1  -0.00031740  0.16356137  0.00503317  1
  Te  Te163  1  0.00726345  0.16672380  0.33948589  1
  Te  Te164  1  0.00062544  0.16507400  0.66378706  1
  Te  Te165  1  0.00139770  0.49974209  -0.01077383  1
  Te  Te166  1  0.00107529  0.50811589  0.33053776  1
  Te  Te167  1  -0.00915255  0.50235003  0.66957091  1
  Te  Te168  1  0.00091755  0.84460045  -0.00339128  1
  Te  Te169  1  -0.00117412  0.82532099  0.33299649  1
  Te  Te170  1  0.00822339  0.83467690  0.66735253  1
  Te  Te171  1  0.33131431  0.16550456  0.00372260  1
  Te  Te172  1  0.33027000  0.16409316  0.33053115  1
  Te  Te173  1  0.33803086  0.16678307  0.66909564  1
  Te  Te174  1  0.33595580  0.50351421  0.00665652  1
  Te  Te175  1  0.33311692  0.49739867  0.32474970  1
  Te  Te176  1  0.33599302  0.50211397  0.66624293  1
  Te  Te177  1  0.33323290  0.82929071  -0.00037171  1
  Te  Te178  1  0.33327898  0.84293528  0.34238195  1
  Te  Te179  1  0.32923077  0.83196281  0.66156675  1
  Te  Te180  1  0.67234425  0.16500277  -0.00209783  1
  Te  Te181  1  0.66518421  0.16655436  0.33698524  1
  Te  Te182  1  0.66495364  0.17163280  0.66343449  1
  Te  Te183  1  0.65701970  0.49924126  -0.00059108  1
  Te  Te184  1  0.66659846  0.49088594  0.33419400  1
  Te  Te185  1  0.67214598  0.49616693  0.66757188  1
  Te  Te186  1  0.66729149  0.83505607  -0.00256413  1
  Te  Te187  1  0.66715788  0.83934586  0.34073906  1
  Te  Te188  1  0.66397628  0.83207130  0.66164171  1
  Te  Te189  1  0.00035957  -0.00191332  0.16503655  1
  Te  Te190  1  0.00170740  0.00357117  0.50271610  1
  Te  Te191  1  0.00060337  0.00529976  0.83049305  1
  Te  Te192  1  -0.00816501  0.33504312  0.16773888  1
  Te  Te193  1  -0.00055989  0.32840762  0.49953806  1
  Te  Te194  1  -0.00080519  0.33128944  0.83225617  1
  Te  Te195  1  -0.00514499  0.66705977  0.15928411  1
  Te  Te196  1  -0.00159763  0.66693691  0.50823542  1
  Te  Te197  1  -0.00277653  0.66474743  0.82715028  1
  Te  Te198  1  0.33661681  0.00101024  0.16817340  1
  Te  Te199  1  0.33511999  0.00105405  0.49869875  1
  Te  Te200  1  0.33266361  -0.00075235  0.84234285  1
  Te  Te201  1  0.33341493  0.32774286  0.16659613  1
  Te  Te202  1  0.33091989  0.33770758  0.50364544  1
  Te  Te203  1  0.33740262  0.33791633  0.82794134  1
  Te  Te204  1  0.33521965  0.66810826  0.17421893  1
  Te  Te205  1  0.33361229  0.66665015  0.50114436  1
  Te  Te206  1  0.33630273  0.66324400  0.83282894  1
  Te  Te207  1  0.65988183  0.00430868  0.16655024  1
  Te  Te208  1  0.66669722  0.00247511  0.50377803  1
  Te  Te209  1  0.66656367  -0.00648638  0.82636812  1
  Te  Te210  1  0.67024246  0.32800047  0.16363047  1
  Te  Te211  1  0.66738633  0.33299585  0.50300276  1
  Te  Te212  1  0.66097639  0.33170178  0.82735717  1
  Te  Te213  1  0.66736572  0.66675934  0.16875142  1
  Te  Te214  1  0.66779531  0.66466782  0.50170385  1
  Te  Te215  1  0.66535986  0.66927070  0.83120593  1
