# generated using pymatgen
data_AgSbTe2
_symmetry_space_group_name_H-M   'P 1'
_cell_length_a   18.33777769
_cell_length_b   18.32751908
_cell_length_c   18.33645515
_cell_angle_alpha   89.99844706
_cell_angle_beta   90.00114267
_cell_angle_gamma   89.99882456
_symmetry_Int_Tables_number   1
_chemical_formula_structural   AgSbTe2
_chemical_formula_sum   'Ag54 Sb54 Te108'
_cell_volume   6162.62531997
_cell_formula_units_Z   54
loop_
 _symmetry_equiv_pos_site_id
 _symmetry_equiv_pos_as_xyz
  1  'x, y, z'
loop_
 _atom_site_type_symbol
 _atom_site_label
 _atom_site_symmetry_multiplicity
 _atom_site_fract_x
 _atom_site_fract_y
 _atom_site_fract_z
 _atom_site_occupancy
  Ag  Ag0  1  0.49934949  0.49899691  0.33304539  1
  Ag  Ag1  1  0.84053302  0.49996292  -0.00216918  1
  Ag  Ag2  1  -0.00561435  0.16117262  0.15723107  1
  Ag  Ag3  1  0.83803459  0.00568691  0.16601510  1
  Ag  Ag4  1  0.00153982  0.00033578  0.32960269  1
  Ag  Ag5  1  -0.00429864  0.16720674  0.50350796  1
  Ag  Ag6  1  0.15496895  0.50307735  0.66259954  1
  Ag  Ag7  1  0.51426395  0.15977303  0.66617327  1
  Ag  Ag8  1  -0.00761208  0.00210834  0.66529526  1
  Ag  Ag9  1  0.32580040  -0.00025273  0.34091326  1
  Ag  Ag10  1  0.66775651  0.15959834  0.82556970  1
  Ag  Ag11  1  0.66113248  0.84084975  0.82733693  1
  Ag  Ag12  1  -0.00184439  0.34303141  0.66979270  1
  Ag  Ag13  1  -0.00088842  0.65568396  0.66759495  1
  Ag  Ag14  1  0.50476702  -0.00711681  0.82938982  1
  Ag  Ag15  1  0.15637943  0.00204800  0.16530300  1
  Ag  Ag16  1  0.16336978  0.66130594  0.50218510  1
  Ag  Ag17  1  -0.00095158  0.65610821  -0.00240624  1
  Ag  Ag18  1  0.83612669  0.00778726  0.50551675  1
  Ag  Ag19  1  0.67371012  0.00482106  -0.01309669  1
  Ag  Ag20  1  0.16507899  0.83573591  0.33571432  1
  Ag  Ag21  1  0.83375884  0.66188953  0.83199109  1
  Ag  Ag22  1  0.15802457  0.50328222  0.34559332  1
  Ag  Ag23  1  0.50354448  0.33318124  0.16649105  1
  Ag  Ag24  1  0.15431384  0.16476889  -0.00036475  1
  Ag  Ag25  1  0.50351072  0.67204094  0.82982904  1
  Ag  Ag26  1  0.83310729  0.16438726  0.66394290  1
  Ag  Ag27  1  0.00061230  0.50128167  0.82390265  1
  Ag  Ag28  1  0.50360666  0.84104988  0.67109488  1
  Ag  Ag29  1  0.66839949  0.84123901  0.50930520  1
  Ag  Ag30  1  0.83625615  0.32650269  0.50209975  1
  Ag  Ag31  1  0.00108714  0.66179594  0.33660350  1
  Ag  Ag32  1  0.67091449  0.67490637  0.66934376  1
  Ag  Ag33  1  0.16154230  0.33623156  0.83528371  1
  Ag  Ag34  1  0.66829909  0.33292909  0.33378978  1
  Ag  Ag35  1  0.33994028  -0.00257260  0.66859445  1
  Ag  Ag36  1  0.33045857  -0.00130514  -0.00522778  1
  Ag  Ag37  1  0.32027447  0.49942920  0.50163138  1
  Ag  Ag38  1  0.33988411  0.83285639  0.83074579  1
  Ag  Ag39  1  0.00142774  0.49853861  0.51116176  1
  Ag  Ag40  1  0.49886127  0.50047088  -0.00104045  1
  Ag  Ag41  1  0.15737714  0.49917197  -0.00294368  1
  Ag  Ag42  1  -0.00215986  0.01016176  0.00279247  1
  Ag  Ag43  1  0.67639942  0.16518115  0.16354181  1
  Ag  Ag44  1  0.32531873  0.66549911  -0.00751751  1
  Ag  Ag45  1  0.83818170  0.16576235  -0.00184214  1
  Ag  Ag46  1  0.66493998  -0.00114320  0.67026719  1
  Ag  Ag47  1  0.84195853  0.49887245  0.66521015  1
  Ag  Ag48  1  0.84211357  0.50158021  0.33912471  1
  Ag  Ag49  1  0.33014669  0.16520720  0.50340199  1
  Ag  Ag50  1  -0.00017969  0.33650476  -0.00517783  1
  Ag  Ag51  1  0.83704720  0.66462357  0.15754313  1
  Ag  Ag52  1  0.33345324  0.66993066  0.67198600  1
  Ag  Ag53  1  0.67924962  0.16303235  0.50753740  1
  Sb  Sb54  1  0.67262857  0.49948111  0.83249853  1
  Sb  Sb55  1  0.49674079  0.66413191  0.50652190  1
  Sb  Sb56  1  0.66859672  0.49566223  0.16693802  1
  Sb  Sb57  1  0.50265692  0.00555166  0.16045994  1
  Sb  Sb58  1  0.67502797  0.32820594  0.66298312  1
  Sb  Sb59  1  0.15963964  0.66932779  0.16851093  1
  Sb  Sb60  1  -0.00191514  0.82860884  0.83119214  1
  Sb  Sb61  1  0.49596200  0.82989737  0.34146583  1
  Sb  Sb62  1  0.33528984  0.83463258  0.50634047  1
  Sb  Sb63  1  -0.00365093  0.83352098  0.50107467  1
  Sb  Sb64  1  0.67311455  0.49827096  0.50157027  1
  Sb  Sb65  1  0.83872331  0.66457681  0.50508928  1
  Sb  Sb66  1  0.16602644  0.83395420  0.00129934  1
  Sb  Sb67  1  0.33576782  0.33202803  0.33601883  1
  Sb  Sb68  1  0.67052165  0.00349161  0.33760963  1
  Sb  Sb69  1  0.50114548  0.16758698  0.33794428  1
  Sb  Sb70  1  0.16955383  0.82892536  0.66359573  1
  Sb  Sb71  1  -0.00425604  0.33435497  0.33455217  1
  Sb  Sb72  1  0.83304713  0.33092812  0.16929596  1
  Sb  Sb73  1  0.32744369  0.33365802  0.66544144  1
  Sb  Sb74  1  -0.00099109  0.49693628  0.16446162  1
  Sb  Sb75  1  0.50615362  0.33322374  0.49854613  1
  Sb  Sb76  1  0.16794660  0.00384548  0.83653546  1
  Sb  Sb77  1  0.32800637  0.33372487  -0.00067430  1
  Sb  Sb78  1  0.50577800  0.66161633  0.15935257  1
  Sb  Sb79  1  0.16400341  0.16750840  0.33128569  1
  Sb  Sb80  1  0.83785028  0.83095856  0.33531630  1
  Sb  Sb81  1  0.66862445  0.83956391  0.16449492  1
  Sb  Sb82  1  0.16170831  -0.00202001  0.49805894  1
  Sb  Sb83  1  0.67258563  0.32849510  0.00253434  1
  Sb  Sb84  1  0.82718267  0.83381962  0.66668185  1
  Sb  Sb85  1  0.15879075  0.33728899  0.50419503  1
  Sb  Sb86  1  -0.00560004  0.16991151  0.83272362  1
  Sb  Sb87  1  0.67235789  0.66201494  0.33914562  1
  Sb  Sb88  1  0.82965373  -0.00087413  0.83226360  1
  Sb  Sb89  1  0.50047814  0.50073754  0.66789099  1
  Sb  Sb90  1  0.49925580  0.83065961  -0.00870192  1
  Sb  Sb91  1  0.83386455  0.16823716  0.33600554  1
  Sb  Sb92  1  0.33252058  0.50105818  0.16846016  1
  Sb  Sb93  1  0.33276101  0.83478914  0.16191857  1
  Sb  Sb94  1  0.33728969  0.15969680  0.82910105  1
  Sb  Sb95  1  0.67127505  0.67041466  -0.00791629  1
  Sb  Sb96  1  0.50298942  0.16854559  -0.00411972  1
  Sb  Sb97  1  0.32658386  0.66874334  0.33614451  1
  Sb  Sb98  1  0.33242644  0.16352617  0.16803414  1
  Sb  Sb99  1  0.32747072  0.50625323  0.83004298  1
  Sb  Sb100  1  0.83423933  0.83665008  -0.00180699  1
  Sb  Sb101  1  0.00015467  0.83998875  0.16708345  1
  Sb  Sb102  1  0.49754551  0.33404186  0.83567481  1
  Sb  Sb103  1  0.16587549  0.33044890  0.16261205  1
  Sb  Sb104  1  0.16059309  0.16918007  0.67051009  1
  Sb  Sb105  1  0.83774144  0.33576259  0.83045748  1
  Sb  Sb106  1  0.50351364  0.00220174  0.50734229  1
  Sb  Sb107  1  0.16464860  0.66240733  0.83004401  1
  Te  Te108  1  0.16446754  0.16280031  0.16168488  1
  Te  Te109  1  0.16557062  0.16803462  0.50036364  1
  Te  Te110  1  0.16808063  0.17221131  0.83974097  1
  Te  Te111  1  0.16731908  0.49967684  0.15876876  1
  Te  Te112  1  0.16258490  0.49959462  0.50221048  1
  Te  Te113  1  0.16196268  0.49781899  0.83711928  1
  Te  Te114  1  0.16780252  0.84009805  0.17494226  1
  Te  Te115  1  0.16735331  0.82684233  0.49463686  1
  Te  Te116  1  0.17262343  0.83383573  0.83285017  1
  Te  Te117  1  0.50252839  0.17159637  0.16777759  1
  Te  Te118  1  0.49463618  0.16796250  0.50566237  1
  Te  Te119  1  0.50458435  0.16594542  0.82809645  1
  Te  Te120  1  0.50080207  0.49613280  0.16638527  1
  Te  Te121  1  0.49908555  0.49858454  0.49589717  1
  Te  Te122  1  0.49934673  0.50249199  0.83667488  1
  Te  Te123  1  0.50155360  0.83228593  0.16960774  1
  Te  Te124  1  0.50610623  0.83199268  0.50825839  1
  Te  Te125  1  0.50133000  0.83266661  0.82996293  1
  Te  Te126  1  0.83440787  0.16554739  0.16685035  1
  Te  Te127  1  0.83666935  0.16569621  0.49958138  1
  Te  Te128  1  0.82787439  0.16711673  0.83419673  1
  Te  Te129  1  0.83236962  0.50246537  0.16414157  1
  Te  Te130  1  0.83814718  0.49925310  0.50111484  1
  Te  Te131  1  0.83796796  0.50180375  0.83440350  1
  Te  Te132  1  0.83244791  0.83275215  0.16729192  1
  Te  Te133  1  0.82732403  0.84311455  0.49936195  1
  Te  Te134  1  0.82860771  0.82250364  0.83318927  1
  Te  Te135  1  0.16461532  0.00091845  0.00287621  1
  Te  Te136  1  0.16390815  0.00155588  0.33126444  1
  Te  Te137  1  0.16878865  -0.00051658  0.66712483  1
  Te  Te138  1  0.16242621  0.33491245  -0.00194211  1
  Te  Te139  1  0.16706349  0.34267823  0.33107805  1
  Te  Te140  1  0.16014849  0.33883459  0.67143942  1
  Te  Te141  1  0.16529504  0.66545895  0.00103683  1
  Te  Te142  1  0.16232101  0.66267223  0.33476460  1
  Te  Te143  1  0.16485212  0.66344791  0.66378496  1
  Te  Te144  1  0.49608457  0.00036181  -0.00604610  1
  Te  Te145  1  0.49368808  -0.00199870  0.33131488  1
  Te  Te146  1  0.50069636  0.00149611  0.66915277  1
  Te  Te147  1  0.50008341  0.33820113  0.00298185  1
  Te  Te148  1  0.50381208  0.33735282  0.33070759  1
  Te  Te149  1  0.50022217  0.32790154  0.66772470  1
  Te  Te150  1  0.50139671  0.66194589  -0.00518611  1
  Te  Te151  1  0.49912057  0.66140110  0.33076254  1
  Te  Te152  1  0.49620957  0.66546243  0.67087456  1
  Te  Te153  1  0.83483645  0.00316444  -0.00018723  1
  Te  Te154  1  0.83840113  -0.00137226  0.32932569  1
  Te  Te155  1  0.83157733  0.00180002  0.66712311  1
  Te  Te156  1  0.83836907  0.33304951  0.00068686  1
  Te  Te157  1  0.82998014  0.34092710  0.33672457  1
  Te  Te158  1  0.83866133  0.33403689  0.66394733  1
  Te  Te159  1  0.83546962  0.66552239  -0.00124695  1
  Te  Te160  1  0.83871531  0.66229159  0.33464051  1
  Te  Te161  1  0.83687051  0.66562860  0.66822724  1
  Te  Te162  1  -0.00179681  0.16733184  -0.00433719  1
  Te  Te163  1  0.00085466  0.16378178  0.33955348  1
  Te  Te164  1  -0.00391514  0.16208008  0.66584796  1
  Te  Te165  1  -0.00207688  0.49861597  0.00475587  1
  Te  Te166  1  -0.00055599  0.50086348  0.32992369  1
  Te  Te167  1  -0.00144617  0.49984160  0.66749343  1
  Te  Te168  1  0.00100886  0.82983589  -0.00141081  1
  Te  Te169  1  0.00476408  0.83396216  0.33423112  1
  Te  Te170  1  0.00119609  0.84205214  0.66694009  1
  Te  Te171  1  0.33231326  0.16319322  -0.00095768  1
  Te  Te172  1  0.33245959  0.16037040  0.33872563  1
  Te  Te173  1  0.32867669  0.16512886  0.66286414  1
  Te  Te174  1  0.33462718  0.50198730  -0.00014876  1
  Te  Te175  1  0.33378610  0.50084531  0.33842216  1
  Te  Te176  1  0.33222227  0.50209443  0.66228831  1
  Te  Te177  1  0.33292350  0.83439872  -0.00581877  1
  Te  Te178  1  0.32893039  0.83842212  0.33457372  1
  Te  Te179  1  0.33652683  0.83307146  0.66930427  1
  Te  Te180  1  0.66827394  0.16337098  0.00301847  1
  Te  Te181  1  0.66586792  0.17092294  0.33394038  1
  Te  Te182  1  0.67129600  0.16574341  0.66483939  1
  Te  Te183  1  0.66812158  0.50012706  -0.00026821  1
  Te  Te184  1  0.66425577  0.49625379  0.33415292  1
  Te  Te185  1  0.67050850  0.50366388  0.66705555  1
  Te  Te186  1  0.66617434  0.84244998  -0.00442581  1
  Te  Te187  1  0.66461265  0.83234922  0.33882395  1
  Te  Te188  1  0.66460314  0.83438905  0.66819051  1
  Te  Te189  1  -0.00149102  0.00337702  0.16536761  1
  Te  Te190  1  -0.00255911  0.00056300  0.50155276  1
  Te  Te191  1  -0.00109839  -0.00248541  0.83430306  1
  Te  Te192  1  0.00066049  0.32106397  0.16404730  1
  Te  Te193  1  -0.00407979  0.33322152  0.50135328  1
  Te  Te194  1  0.00178122  0.33712613  0.83315341  1
  Te  Te195  1  -0.00408946  0.66837775  0.16474264  1
  Te  Te196  1  0.00217799  0.66567916  0.50082017  1
  Te  Te197  1  -0.00178888  0.66335185  0.83268580  1
  Te  Te198  1  0.33330192  -0.00014462  0.16071963  1
  Te  Te199  1  0.33235483  0.00139982  0.50276893  1
  Te  Te200  1  0.33607802  -0.00384712  0.83109157  1
  Te  Te201  1  0.34122043  0.33212263  0.16760247  1
  Te  Te202  1  0.33324158  0.33319394  0.49991738  1
  Te  Te203  1  0.32666198  0.33332700  0.83307390  1
  Te  Te204  1  0.33491507  0.66804800  0.15746202  1
  Te  Te205  1  0.32886726  0.66428398  0.50351925  1
  Te  Te206  1  0.33315585  0.66971190  0.83275273  1
  Te  Te207  1  0.67120511  0.00517345  0.16831619  1
  Te  Te208  1  0.66986830  0.00347214  0.50192141  1
  Te  Te209  1  0.66623814  0.00007214  0.83140946  1
  Te  Te210  1  0.66501188  0.32739802  0.16991901  1
  Te  Te211  1  0.67346119  0.32845045  0.49571875  1
  Te  Te212  1  0.66548484  0.32639471  0.83325209  1
  Te  Te213  1  0.67462348  0.66986700  0.16680839  1
  Te  Te214  1  0.66675875  0.66812562  0.50759856  1
  Te  Te215  1  0.66604552  0.66620915  0.82890726  1
