# generated using pymatgen
data_AgSbTe2
_symmetry_space_group_name_H-M   'P 1'
_cell_length_a   18.31937631
_cell_length_b   18.32437553
_cell_length_c   18.32805555
_cell_angle_alpha   89.99844684
_cell_angle_beta   89.99679304
_cell_angle_gamma   89.99754600
_symmetry_Int_Tables_number   1
_chemical_formula_structural   AgSbTe2
_chemical_formula_sum   'Ag54 Sb54 Te108'
_cell_volume   6152.56567770
_cell_formula_units_Z   54
loop_
 _symmetry_equiv_pos_site_id
 _symmetry_equiv_pos_as_xyz
  1  'x, y, z'
loop_
 _atom_site_type_symbol
 _atom_site_label
 _atom_site_symmetry_multiplicity
 _atom_site_fract_x
 _atom_site_fract_y
 _atom_site_fract_z
 _atom_site_occupancy
  Ag  Ag0  1  0.50240312  0.49070176  0.66244122  1
  Ag  Ag1  1  0.50172069  0.49887812  0.33330061  1
  Ag  Ag2  1  0.49741462  0.33147423  0.50317436  1
  Ag  Ag3  1  0.82161805  0.49423606  0.33275046  1
  Ag  Ag4  1  0.83707605  0.01116835  0.16675359  1
  Ag  Ag5  1  0.33836106  0.00512681  0.33351910  1
  Ag  Ag6  1  0.33493253  0.49593201  0.49447305  1
  Ag  Ag7  1  -0.00591497  0.16569245  0.16374752  1
  Ag  Ag8  1  0.33860431  0.66003979  0.33342164  1
  Ag  Ag9  1  0.16411388  0.00011625  0.83854069  1
  Ag  Ag10  1  0.33747074  0.32942702  0.00735878  1
  Ag  Ag11  1  0.16774584  0.67064856  0.82665921  1
  Ag  Ag12  1  0.66050395  0.00406141  0.33163710  1
  Ag  Ag13  1  0.49595840  0.17314039  0.66609352  1
  Ag  Ag14  1  0.33466026  0.16909496  0.17018600  1
  Ag  Ag15  1  0.16916374  0.83865083  0.00240236  1
  Ag  Ag16  1  0.66145383  0.33696247  0.33234969  1
  Ag  Ag17  1  0.66281329  0.49455471  0.17126275  1
  Ag  Ag18  1  0.32913959  0.00840038  0.66349912  1
  Ag  Ag19  1  0.00834811  0.00839374  -0.00526317  1
  Ag  Ag20  1  0.17621238  0.83473076  0.33166521  1
  Ag  Ag21  1  0.83008619  0.65637799  0.16804067  1
  Ag  Ag22  1  0.49987416  0.49211451  0.00291573  1
  Ag  Ag23  1  0.00886781  0.65956164  0.66579864  1
  Ag  Ag24  1  0.49631539  0.17517629  -0.00335624  1
  Ag  Ag25  1  0.66071872  0.65655942  0.32894698  1
  Ag  Ag26  1  0.33567944  0.66070973  0.00511107  1
  Ag  Ag27  1  0.66422354  0.49151839  0.83666638  1
  Ag  Ag28  1  0.00782971  0.01424161  0.67237928  1
  Ag  Ag29  1  0.82848188  0.49739428  0.66117307  1
  Ag  Ag30  1  -0.00453876  0.32975989  0.66680373  1
  Ag  Ag31  1  0.34048464  0.33608904  0.32961539  1
  Ag  Ag32  1  0.32845460  0.00762631  0.00626911  1
  Ag  Ag33  1  0.00547248  0.17047806  0.51073727  1
  Ag  Ag34  1  0.67100395  0.17210946  0.16887388  1
  Ag  Ag35  1  0.16723678  0.00301534  0.15988134  1
  Ag  Ag36  1  0.34171513  0.49297821  0.17431247  1
  Ag  Ag37  1  0.66263168  0.83344486  0.49447985  1
  Ag  Ag38  1  0.00391700  0.49268914  0.50278911  1
  Ag  Ag39  1  0.33480280  0.16904878  0.49671967  1
  Ag  Ag40  1  0.84247567  0.00565260  0.83705047  1
  Ag  Ag41  1  0.49639528  0.00856485  0.49755579  1
  Ag  Ag42  1  0.16911245  0.16345685  0.66581022  1
  Ag  Ag43  1  0.16946183  0.66607349  0.50497398  1
  Ag  Ag44  1  0.65851842  0.66137028  0.00805000  1
  Ag  Ag45  1  0.66733193  0.17186773  0.83696506  1
  Ag  Ag46  1  0.83111436  0.32920563  0.16918525  1
  Ag  Ag47  1  0.32885938  0.66451025  0.66010614  1
  Ag  Ag48  1  0.00427463  0.32588804  -0.00329853  1
  Ag  Ag49  1  0.49771325  0.82950812  0.33632882  1
  Ag  Ag50  1  0.50206493  0.33304953  0.82865528  1
  Ag  Ag51  1  -0.00366807  0.16518664  0.83298730  1
  Ag  Ag52  1  0.66321807  0.33459943  0.66471048  1
  Ag  Ag53  1  0.82957539  0.17085564  0.32884021  1
  Sb  Sb54  1  0.50114529  0.17049555  0.33519468  1
  Sb  Sb55  1  0.50197098  0.66183913  0.16918134  1
  Sb  Sb56  1  0.66685490  0.83173826  0.17230427  1
  Sb  Sb57  1  0.16678769  0.32603361  0.16597098  1
  Sb  Sb58  1  0.83425438  0.17146788  0.66361131  1
  Sb  Sb59  1  0.66613334  0.83528928  0.83056600  1
  Sb  Sb60  1  -0.00243164  0.33126905  0.33609454  1
  Sb  Sb61  1  0.33945518  0.49943353  0.83268251  1
  Sb  Sb62  1  0.66141950  0.50069645  0.49472389  1
  Sb  Sb63  1  -0.00392077  0.49332422  0.17027826  1
  Sb  Sb64  1  0.33275278  0.83306341  0.83492052  1
  Sb  Sb65  1  0.82986427  0.83355416  0.33214704  1
  Sb  Sb66  1  0.33777555  0.33221691  0.66435376  1
  Sb  Sb67  1  0.00175889  0.84072849  0.16640024  1
  Sb  Sb68  1  0.66411562  0.65752029  0.66385410  1
  Sb  Sb69  1  0.33694274  0.83407313  0.49606075  1
  Sb  Sb70  1  0.00254492  0.84314247  0.83281056  1
  Sb  Sb71  1  0.33237630  0.83691186  0.16950994  1
  Sb  Sb72  1  0.83247014  0.16748226  0.00631487  1
  Sb  Sb73  1  0.33409801  0.16640922  0.83310374  1
  Sb  Sb74  1  0.49451805  0.66156727  0.49774859  1
  Sb  Sb75  1  0.83611553  0.83590044  0.00188228  1
  Sb  Sb76  1  0.83589802  0.66639672  0.83594984  1
  Sb  Sb77  1  0.00331109  0.66502226  -0.00394013  1
  Sb  Sb78  1  0.00154356  0.66310529  0.33644589  1
  Sb  Sb79  1  0.82894996  0.32876764  0.83644028  1
  Sb  Sb80  1  0.17569306  0.50344111  0.00018331  1
  Sb  Sb81  1  0.16812964  0.83594759  0.66578819  1
  Sb  Sb82  1  0.49775002  0.00608318  0.17226935  1
  Sb  Sb83  1  0.17486170  0.50397099  0.33436304  1
  Sb  Sb84  1  0.16952296  0.33050536  0.83215352  1
  Sb  Sb85  1  0.83540267  0.66202390  0.49562527  1
  Sb  Sb86  1  0.66242911  0.16705746  0.49659330  1
  Sb  Sb87  1  0.17137946  0.33484356  0.50084969  1
  Sb  Sb88  1  0.82924207  0.33374531  0.49674591  1
  Sb  Sb89  1  0.82622155  0.49830555  0.00321762  1
  Sb  Sb90  1  0.16841959  0.16063886  -0.00405157  1
  Sb  Sb91  1  0.66572190  0.00765314  0.66394624  1
  Sb  Sb92  1  0.00173446  0.00277576  0.33341107  1
  Sb  Sb93  1  0.17225544  -0.00178668  0.50041370  1
  Sb  Sb94  1  0.83111116  0.00419950  0.49790288  1
  Sb  Sb95  1  0.16739500  0.67066516  0.16700288  1
  Sb  Sb96  1  0.49529908  0.83321100  0.00671997  1
  Sb  Sb97  1  0.16880996  0.49843932  0.66598553  1
  Sb  Sb98  1  0.49599658  0.65841552  0.83282537  1
  Sb  Sb99  1  0.49864433  0.83509489  0.65879620  1
  Sb  Sb100  1  0.16858738  0.16309901  0.33616406  1
  Sb  Sb101  1  0.66138591  0.33534155  0.00285992  1
  Sb  Sb102  1  -0.00047214  0.83504358  0.50016239  1
  Sb  Sb103  1  0.49755857  0.00908544  0.82956726  1
  Sb  Sb104  1  0.83416319  0.83002996  0.66572798  1
  Sb  Sb105  1  0.50288037  0.33275070  0.16986048  1
  Sb  Sb106  1  0.66454565  0.00034891  0.00549828  1
  Sb  Sb107  1  -0.00565602  0.49353913  0.82786693  1
  Te  Te108  1  0.17087529  0.16074660  0.16867955  1
  Te  Te109  1  0.16823132  0.16634237  0.50453165  1
  Te  Te110  1  0.16168464  0.16347790  0.82654507  1
  Te  Te111  1  0.16985306  0.50020023  0.16660160  1
  Te  Te112  1  0.16831275  0.50493620  0.50025394  1
  Te  Te113  1  0.16437670  0.50596951  0.83379057  1
  Te  Te114  1  0.16628974  0.84007185  0.16756471  1
  Te  Te115  1  0.16625211  0.82691128  0.49518673  1
  Te  Te116  1  0.16688901  0.83452078  0.83702342  1
  Te  Te117  1  0.49659203  0.16758997  0.15834900  1
  Te  Te118  1  0.49692685  0.16896478  0.50293389  1
  Te  Te119  1  0.50343601  0.17155088  0.83215570  1
  Te  Te120  1  0.50033359  0.49866039  0.16728351  1
  Te  Te121  1  0.49573844  0.49583030  0.49906603  1
  Te  Te122  1  0.50593310  0.49495368  0.83269568  1
  Te  Te123  1  0.50002018  0.83447540  0.17736144  1
  Te  Te124  1  0.50341046  0.83843228  0.49390587  1
  Te  Te125  1  0.50140583  0.83361295  0.83296075  1
  Te  Te126  1  0.83092797  0.16800587  0.16846700  1
  Te  Te127  1  0.84017925  0.16813483  0.49146370  1
  Te  Te128  1  0.83156937  0.16371392  0.83223746  1
  Te  Te129  1  0.83077936  0.49751389  0.17021032  1
  Te  Te130  1  0.83861716  0.49894340  0.49983722  1
  Te  Te131  1  0.82553023  0.49974466  0.82996402  1
  Te  Te132  1  0.83448279  0.83631588  0.16681212  1
  Te  Te133  1  0.82603164  0.83376657  0.49962063  1
  Te  Te134  1  0.83250956  0.84286207  0.83334815  1
  Te  Te135  1  0.16803572  -0.00041932  -0.00091012  1
  Te  Te136  1  0.17083681  -0.00407984  0.33157796  1
  Te  Te137  1  0.16775563  0.00107006  0.66757482  1
  Te  Te138  1  0.16657052  0.33436527  -0.00176249  1
  Te  Te139  1  0.17672749  0.33448705  0.33321209  1
  Te  Te140  1  0.16048183  0.32680385  0.66785039  1
  Te  Te141  1  0.17100268  0.67261526  -0.00152988  1
  Te  Te142  1  0.17044057  0.67122763  0.33480152  1
  Te  Te143  1  0.16914787  0.66734233  0.66725285  1
  Te  Te144  1  0.49319405  0.00026290  -0.00134129  1
  Te  Te145  1  0.49916726  0.00417900  0.33680636  1
  Te  Te146  1  0.49631317  0.00355386  0.66158235  1
  Te  Te147  1  0.49773663  0.33370063  -0.00212835  1
  Te  Te148  1  0.50047755  0.33613213  0.33683091  1
  Te  Te149  1  0.49928400  0.33323507  0.66644518  1
  Te  Te150  1  0.49724627  0.66548890  -0.00030494  1
  Te  Te151  1  0.49953074  0.66345342  0.33483290  1
  Te  Te152  1  0.49428425  0.66325526  0.66565673  1
  Te  Te153  1  0.83494725  -0.00010543  0.00164405  1
  Te  Te154  1  0.83084194  0.00148642  0.32952021  1
  Te  Te155  1  0.83562057  -0.00088407  0.66896706  1
  Te  Te156  1  0.84113772  0.33394860  0.00556934  1
  Te  Te157  1  0.83129057  0.33431775  0.33083547  1
  Te  Te158  1  0.83176346  0.33860045  0.66701787  1
  Te  Te159  1  0.83166220  0.66739122  0.00495310  1
  Te  Te160  1  0.83014456  0.66465779  0.32865449  1
  Te  Te161  1  0.83543394  0.65958130  0.66740348  1
  Te  Te162  1  0.00079144  0.16582850  0.00136103  1
  Te  Te163  1  -0.00226785  0.16721347  0.32746043  1
  Te  Te164  1  -0.00443912  0.16883613  0.66699777  1
  Te  Te165  1  0.00049126  0.49443076  -0.00066554  1
  Te  Te166  1  -0.00394571  0.49822124  0.33988385  1
  Te  Te167  1  0.00125205  0.49783530  0.66368152  1
  Te  Te168  1  0.00689732  0.83701626  -0.00043664  1
  Te  Te169  1  0.00609312  0.83301845  0.33454684  1
  Te  Te170  1  -0.00024192  0.82699286  0.66559624  1
  Te  Te171  1  0.33427963  0.16674658  -0.00043722  1
  Te  Te172  1  0.33385802  0.16511613  0.33379956  1
  Te  Te173  1  0.33450583  0.16637377  0.66590785  1
  Te  Te174  1  0.33976267  0.50037484  0.00043785  1
  Te  Te175  1  0.33644379  0.49952486  0.33281974  1
  Te  Te176  1  0.33675458  0.50094609  0.66283341  1
  Te  Te177  1  0.32987084  0.83207245  0.00193764  1
  Te  Te178  1  0.33605468  0.83416699  0.33334095  1
  Te  Te179  1  0.33380752  0.83033590  0.66561187  1
  Te  Te180  1  0.66123523  0.16643778  0.00126337  1
  Te  Te181  1  0.66758904  0.16823473  0.33102776  1
  Te  Te182  1  0.66435650  0.17311753  0.66796353  1
  Te  Te183  1  0.66152837  0.50186638  0.00351395  1
  Te  Te184  1  0.66446738  0.49822419  0.33213215  1
  Te  Te185  1  0.66417156  0.49510885  0.66440868  1
  Te  Te186  1  0.66466185  0.82473559  -0.00019395  1
  Te  Te187  1  0.66367817  0.83686674  0.33567548  1
  Te  Te188  1  0.66632095  0.83233153  0.66079589  1
  Te  Te189  1  -0.00045231  0.00562650  0.16569698  1
  Te  Te190  1  0.00048906  0.00461526  0.50611457  1
  Te  Te191  1  0.00194774  0.00487495  0.83279756  1
  Te  Te192  1  -0.00228618  0.32705450  0.16512955  1
  Te  Te193  1  0.00155512  0.33219815  0.50330560  1
  Te  Te194  1  -0.00005880  0.32652941  0.83275194  1
  Te  Te195  1  -0.00596227  0.66490543  0.16545296  1
  Te  Te196  1  0.00397042  0.66637926  0.50467633  1
  Te  Te197  1  0.00363240  0.66507559  0.82838103  1
  Te  Te198  1  0.33167964  0.00350585  0.16723893  1
  Te  Te199  1  0.33586803  0.00271002  0.50029852  1
  Te  Te200  1  0.32912626  -0.00031644  0.83008659  1
  Te  Te201  1  0.33201719  0.33181103  0.16753220  1
  Te  Te202  1  0.33605503  0.33189317  0.49800426  1
  Te  Te203  1  0.33745279  0.33400885  0.84109327  1
  Te  Te204  1  0.33189086  0.66201149  0.16816719  1
  Te  Te205  1  0.33090159  0.66590847  0.49786359  1
  Te  Te206  1  0.32847165  0.66622997  0.83381235  1
  Te  Te207  1  0.66957958  0.00387461  0.17070497  1
  Te  Te208  1  0.66297559  -0.00054620  0.49564797  1
  Te  Te209  1  0.66834252  0.00469001  0.83410632  1
  Te  Te210  1  0.66954276  0.33309610  0.16867203  1
  Te  Te211  1  0.66072730  0.33367347  0.49879321  1
  Te  Te212  1  0.66386402  0.33216848  0.83538093  1
  Te  Te213  1  0.66880250  0.66529723  0.16849460  1
  Te  Te214  1  0.66649182  0.67015721  0.49485022  1
  Te  Te215  1  0.66791381  0.66464717  0.83471110  1
