# generated using pymatgen
data_AgSbTe2
_symmetry_space_group_name_H-M   'P 1'
_cell_length_a   18.34516097
_cell_length_b   18.34971079
_cell_length_c   18.34475347
_cell_angle_alpha   89.99859383
_cell_angle_beta   90.00069174
_cell_angle_gamma   90.00267553
_symmetry_Int_Tables_number   1
_chemical_formula_structural   AgSbTe2
_chemical_formula_sum   'Ag54 Sb54 Te108'
_cell_volume   6175.36496788
_cell_formula_units_Z   54
loop_
 _symmetry_equiv_pos_site_id
 _symmetry_equiv_pos_as_xyz
  1  'x, y, z'
loop_
 _atom_site_type_symbol
 _atom_site_label
 _atom_site_symmetry_multiplicity
 _atom_site_fract_x
 _atom_site_fract_y
 _atom_site_fract_z
 _atom_site_occupancy
  Ag  Ag0  1  0.49600245  0.66587585  0.84494292  1
  Ag  Ag1  1  0.50179965  0.66824537  0.15891085  1
  Ag  Ag2  1  0.32612943  0.32916836  0.33612218  1
  Ag  Ag3  1  0.32072801  0.34051340  0.00633612  1
  Ag  Ag4  1  0.33720263  0.66830447  0.33353922  1
  Ag  Ag5  1  0.00313256  0.00588949  0.00907653  1
  Ag  Ag6  1  0.16326548  0.32521308  0.15971786  1
  Ag  Ag7  1  0.66775647  0.83344262  0.49653947  1
  Ag  Ag8  1  0.16935247  0.49510198  0.66323109  1
  Ag  Ag9  1  0.49947673  0.32148985  0.49878845  1
  Ag  Ag10  1  0.32970398  0.00622732  0.33846071  1
  Ag  Ag11  1  0.50024792  0.83069924  0.33274724  1
  Ag  Ag12  1  0.00320821  0.48961405  0.17427226  1
  Ag  Ag13  1  0.84199512  0.33129878  0.49880495  1
  Ag  Ag14  1  0.16521198  0.84156999  0.33694201  1
  Ag  Ag15  1  0.65403871  0.66786627  0.00333442  1
  Ag  Ag16  1  0.48865102  0.00825715  0.49928540  1
  Ag  Ag17  1  0.00593221  0.33072933  0.65230215  1
  Ag  Ag18  1  0.33253859  0.49337762  0.49809350  1
  Ag  Ag19  1  0.49696385  0.16898332  0.65489419  1
  Ag  Ag20  1  0.33573840  0.16745608  0.49840750  1
  Ag  Ag21  1  0.49501706  0.49964376  0.65880032  1
  Ag  Ag22  1  0.00696247  0.33207993  0.33490054  1
  Ag  Ag23  1  0.33255562  0.00389721  0.65624226  1
  Ag  Ag24  1  0.83678315  0.50290409  0.33719552  1
  Ag  Ag25  1  0.17023719  0.48984376  -0.00142089  1
  Ag  Ag26  1  0.00153121  0.83892718  0.49146581  1
  Ag  Ag27  1  0.34096237  0.65910197  0.00398804  1
  Ag  Ag28  1  0.16395357  0.00683816  0.17694861  1
  Ag  Ag29  1  0.17084549  0.00441020  0.49517921  1
  Ag  Ag30  1  0.17249570  0.66105591  0.83322029  1
  Ag  Ag31  1  0.16644981  0.16882778  0.65513211  1
  Ag  Ag32  1  0.65911802  0.67195857  0.33603044  1
  Ag  Ag33  1  0.65151784  0.16233407  0.50022981  1
  Ag  Ag34  1  -0.00044934  0.84303941  0.17382350  1
  Ag  Ag35  1  0.00528531  0.16427580  0.17377137  1
  Ag  Ag36  1  0.66265836  -0.00071052  0.66075139  1
  Ag  Ag37  1  0.16928057  0.16300643  0.33703923  1
  Ag  Ag38  1  0.48859001  0.16255277  0.34313322  1
  Ag  Ag39  1  0.16575988  0.33469546  0.84544307  1
  Ag  Ag40  1  0.48870848  0.51069800  -0.00204694  1
  Ag  Ag41  1  0.00546923  0.16919794  0.49697091  1
  Ag  Ag42  1  0.66231157  0.66950383  0.65614322  1
  Ag  Ag43  1  0.83575982  0.83311548  0.33342992  1
  Ag  Ag44  1  0.84740529  -0.00261423  0.16782694  1
  Ag  Ag45  1  0.00951704  0.32953598  0.01038094  1
  Ag  Ag46  1  0.83493405  0.00077716  0.83255780  1
  Ag  Ag47  1  0.66724273  0.83175127  0.17967211  1
  Ag  Ag48  1  0.16632172  0.84392765  0.65605886  1
  Ag  Ag49  1  0.65811687  0.49967869  0.49891016  1
  Ag  Ag50  1  0.00406113  0.48662987  0.49595530  1
  Ag  Ag51  1  0.50113101  0.82150924  0.01249813  1
  Ag  Ag52  1  0.16528329  0.17825500  0.01206591  1
  Ag  Ag53  1  0.83894447  0.16475468  0.66054266  1
  Sb  Sb54  1  0.82965338  0.83459141  0.00767238  1
  Sb  Sb55  1  0.33291791  0.83205871  0.17152200  1
  Sb  Sb56  1  0.33541413  0.66734036  0.66429250  1
  Sb  Sb57  1  0.00355244  0.16717145  0.83144820  1
  Sb  Sb58  1  0.16612740  0.32585511  0.49611172  1
  Sb  Sb59  1  0.66019813  -0.00804608  0.34199040  1
  Sb  Sb60  1  0.32467226  0.16745535  0.17745979  1
  Sb  Sb61  1  0.83597019  0.00450988  0.49638973  1
  Sb  Sb62  1  0.16409866  0.00218513  0.83031529  1
  Sb  Sb63  1  0.32728743  0.00090170  0.00352314  1
  Sb  Sb64  1  0.84343324  0.32783000  0.17389267  1
  Sb  Sb65  1  0.83046303  0.67062307  0.83287092  1
  Sb  Sb66  1  0.32608142  0.33087767  0.65987792  1
  Sb  Sb67  1  0.83080730  0.66188902  0.49792385  1
  Sb  Sb68  1  0.66686598  0.16530895  0.82272158  1
  Sb  Sb69  1  0.32850509  0.50051596  0.16860832  1
  Sb  Sb70  1  0.00303194  0.66683104  0.33291893  1
  Sb  Sb71  1  0.66702562  0.33170606  0.66114838  1
  Sb  Sb72  1  0.84230030  0.32943421  0.82594904  1
  Sb  Sb73  1  0.67251368  0.15742563  0.17600503  1
  Sb  Sb74  1  0.00672822  0.00404286  0.33001633  1
  Sb  Sb75  1  0.33095015  0.49984784  0.83050761  1
  Sb  Sb76  1  0.82932214  0.67172240  0.17020741  1
  Sb  Sb77  1  0.66943027  0.50746521  0.17261386  1
  Sb  Sb78  1  0.50109269  0.66802628  0.49761501  1
  Sb  Sb79  1  0.83392291  0.49444032  0.65825042  1
  Sb  Sb80  1  0.00357338  0.49840691  0.83195741  1
  Sb  Sb81  1  0.33087087  0.16801726  0.82513651  1
  Sb  Sb82  1  0.49734995  -0.00447525  0.17411228  1
  Sb  Sb83  1  0.00235609  0.83533928  0.83298770  1
  Sb  Sb84  1  0.49336857  0.33732654  0.17298512  1
  Sb  Sb85  1  0.83716374  0.16471418  0.33947197  1
  Sb  Sb86  1  0.49213351  0.33802951  0.82685910  1
  Sb  Sb87  1  0.66711934  0.33650003  0.33717277  1
  Sb  Sb88  1  -0.00004595  0.66267671  0.66442023  1
  Sb  Sb89  1  0.66394282  0.50259510  0.82572396  1
  Sb  Sb90  1  0.50308443  -0.00428750  0.82542215  1
  Sb  Sb91  1  0.66600138  0.83182954  0.82939478  1
  Sb  Sb92  1  0.16799561  0.66996264  0.50161342  1
  Sb  Sb93  1  0.00165931  0.00544053  0.66509975  1
  Sb  Sb94  1  0.33353788  0.83843185  0.49641726  1
  Sb  Sb95  1  0.49156100  0.16924465  0.00280015  1
  Sb  Sb96  1  0.84171585  0.16596281  -0.00283966  1
  Sb  Sb97  1  0.83646288  0.83847759  0.65816851  1
  Sb  Sb98  1  0.17038158  0.66705572  0.16515254  1
  Sb  Sb99  1  0.83828444  0.49921390  0.00860958  1
  Sb  Sb100  1  0.16497750  0.49708398  0.33570269  1
  Sb  Sb101  1  0.49771442  0.83298994  0.66091283  1
  Sb  Sb102  1  0.16936339  0.83185346  0.00314708  1
  Sb  Sb103  1  0.00430213  0.66515021  0.00301624  1
  Sb  Sb104  1  0.33281686  0.83185751  0.83273455  1
  Sb  Sb105  1  0.50044678  0.50217836  0.33629702  1
  Sb  Sb106  1  0.66884419  -0.00362427  -0.00221246  1
  Sb  Sb107  1  0.66339669  0.33959779  0.00220001  1
  Te  Te108  1  0.16363451  0.16598176  0.16883762  1
  Te  Te109  1  0.16536516  0.16420488  0.49794562  1
  Te  Te110  1  0.16758522  0.17050419  0.83116293  1
  Te  Te111  1  0.16171627  0.50065580  0.16475762  1
  Te  Te112  1  0.16535099  0.50291257  0.50184112  1
  Te  Te113  1  0.16577041  0.49914393  0.83148712  1
  Te  Te114  1  0.16212918  0.83497481  0.17036791  1
  Te  Te115  1  0.16672524  0.83584117  0.49843809  1
  Te  Te116  1  0.16655422  0.82893550  0.83019959  1
  Te  Te117  1  0.50278610  0.16660876  0.17269254  1
  Te  Te118  1  0.49644457  0.16503705  0.49921208  1
  Te  Te119  1  0.49971630  0.16739814  0.82849389  1
  Te  Te120  1  0.50167605  0.50413842  0.16191687  1
  Te  Te121  1  0.49957899  0.50161932  0.50020452  1
  Te  Te122  1  0.49923461  0.50470020  0.83330747  1
  Te  Te123  1  0.50139596  0.83136436  0.17067266  1
  Te  Te124  1  0.50426771  0.83858735  0.49602769  1
  Te  Te125  1  0.50018078  0.82752440  0.83450084  1
  Te  Te126  1  0.84039478  0.15990603  0.16652673  1
  Te  Te127  1  0.84536686  0.17032573  0.50270903  1
  Te  Te128  1  0.83286248  0.16184462  0.82563544  1
  Te  Te129  1  0.83922253  0.49785903  0.17486555  1
  Te  Te130  1  0.83960778  0.49498693  0.49619470  1
  Te  Te131  1  0.83333091  0.49999838  0.83385805  1
  Te  Te132  1  0.83467378  0.83736457  0.17234484  1
  Te  Te133  1  0.83401105  0.83396848  0.49413392  1
  Te  Te134  1  0.83435741  0.83946229  0.83231460  1
  Te  Te135  1  0.16351808  0.00033699  -0.00104830  1
  Te  Te136  1  0.16869961  0.00069877  0.33486753  1
  Te  Te137  1  0.16843835  0.00212870  0.66623145  1
  Te  Te138  1  0.16482847  0.33398166  0.00181770  1
  Te  Te139  1  0.16678206  0.33295800  0.32964203  1
  Te  Te140  1  0.16529792  0.33358334  0.66502613  1
  Te  Te141  1  0.17219534  0.66511453  -0.00344021  1
  Te  Te142  1  0.17364965  0.67148825  0.33295070  1
  Te  Te143  1  0.16735867  0.65923811  0.67180375  1
  Te  Te144  1  0.49810910  -0.00067276  -0.00216911  1
  Te  Te145  1  0.49415052  0.00042243  0.33766952  1
  Te  Te146  1  0.49961827  0.00080518  0.66247045  1
  Te  Te147  1  0.49519443  0.33746204  -0.00003807  1
  Te  Te148  1  0.49640800  0.33149440  0.33709963  1
  Te  Te149  1  0.49827485  0.33572200  0.66289416  1
  Te  Te150  1  0.49765677  0.66611344  0.00142481  1
  Te  Te151  1  0.49908578  0.66783179  0.33190454  1
  Te  Te152  1  0.50241712  0.66462689  0.66760467  1
  Te  Te153  1  0.83741184  0.00055261  0.00236403  1
  Te  Te154  1  0.83045165  -0.00408676  0.32905776  1
  Te  Te155  1  0.83252529  0.00384613  0.66683751  1
  Te  Te156  1  0.83705406  0.33294238  -0.00187750  1
  Te  Te157  1  0.83654945  0.33522450  0.33890429  1
  Te  Te158  1  0.84000520  0.32663407  0.66159365  1
  Te  Te159  1  0.82685156  0.66616941  -0.00109151  1
  Te  Te160  1  0.82816810  0.66953937  0.33334162  1
  Te  Te161  1  0.82469438  0.66661626  0.66913607  1
  Te  Te162  1  0.00470098  0.16721271  -0.00031009  1
  Te  Te163  1  0.00174621  0.17039955  0.33339629  1
  Te  Te164  1  0.00457560  0.16953307  0.66508763  1
  Te  Te165  1  0.00503778  0.49685485  0.00399290  1
  Te  Te166  1  -0.00100915  0.50059461  0.33524465  1
  Te  Te167  1  0.00239380  0.49547325  0.66120417  1
  Te  Te168  1  -0.00067906  0.83440139  0.00392709  1
  Te  Te169  1  0.00169879  0.83110774  0.33289136  1
  Te  Te170  1  0.00571056  0.83244601  0.66314873  1
  Te  Te171  1  0.32743297  0.16858534  -0.00104106  1
  Te  Te172  1  0.33043066  0.16757802  0.33761320  1
  Te  Te173  1  0.33237255  0.16513180  0.65997300  1
  Te  Te174  1  0.33051768  0.50067436  0.00182933  1
  Te  Te175  1  0.33270971  0.49909623  0.33669440  1
  Te  Te176  1  0.33397330  0.49982076  0.66101579  1
  Te  Te177  1  0.33917646  0.83186241  0.00100718  1
  Te  Te178  1  0.33339526  0.82919538  0.33409849  1
  Te  Te179  1  0.32697511  0.83695439  0.66482264  1
  Te  Te180  1  0.66385418  0.16780893  0.00140247  1
  Te  Te181  1  0.66673768  0.16750460  0.34057325  1
  Te  Te182  1  0.66161451  0.16527200  0.65920487  1
  Te  Te183  1  0.66647102  0.50498107  0.00174526  1
  Te  Te184  1  0.67065630  0.50459519  0.33862539  1
  Te  Te185  1  0.66525471  0.50254202  0.65886150  1
  Te  Te186  1  0.66154789  0.82990890  -0.00050780  1
  Te  Te187  1  0.66350189  0.83185740  0.33624154  1
  Te  Te188  1  0.66730984  0.83349120  0.66040227  1
  Te  Te189  1  0.00422680  0.00149662  0.16716664  1
  Te  Te190  1  0.00398287  -0.00167851  0.50077901  1
  Te  Te191  1  -0.00422793  -0.00040565  0.84073828  1
  Te  Te192  1  0.00282229  0.33074257  0.17005081  1
  Te  Te193  1  0.00245033  0.33045046  0.49642592  1
  Te  Te194  1  0.00579093  0.33383248  0.83826238  1
  Te  Te195  1  -0.00123962  0.66762521  0.16583914  1
  Te  Te196  1  -0.00137388  0.67453819  0.50060057  1
  Te  Te197  1  0.00479440  0.66700702  0.83367120  1
  Te  Te198  1  0.32634150  -0.00015077  0.17232285  1
  Te  Te199  1  0.33134335  0.00061268  0.49859464  1
  Te  Te200  1  0.33376244  0.00000837  0.82810092  1
  Te  Te201  1  0.32737022  0.33383277  0.16940937  1
  Te  Te202  1  0.33747141  0.33282473  0.49794043  1
  Te  Te203  1  0.32684641  0.33342065  0.84291554  1
  Te  Te204  1  0.33919020  0.66606082  0.16766781  1
  Te  Te205  1  0.33359553  0.65820826  0.49633775  1
  Te  Te206  1  0.33433954  0.66599195  0.83562204  1
  Te  Te207  1  0.66620340  -0.00791685  0.16500863  1
  Te  Te208  1  0.67038404  0.00224247  0.50353194  1
  Te  Te209  1  0.67204616  -0.00036417  0.82560040  1
  Te  Te210  1  0.66830924  0.33125428  0.16738418  1
  Te  Te211  1  0.66097801  0.33511657  0.49990230  1
  Te  Te212  1  0.66758950  0.33372835  0.83393188  1
  Te  Te213  1  0.66328010  0.67151596  0.16890228  1
  Te  Te214  1  0.66711053  0.66788575  0.49745230  1
  Te  Te215  1  0.66258923  0.66633158  0.83716530  1
