# generated using pymatgen
data_AgSbTe2
_symmetry_space_group_name_H-M   'P 1'
_cell_length_a   18.32612758
_cell_length_b   18.33976380
_cell_length_c   18.33564663
_cell_angle_alpha   89.99736338
_cell_angle_beta   89.99902489
_cell_angle_gamma   89.99699296
_symmetry_Int_Tables_number   1
_chemical_formula_structural   AgSbTe2
_chemical_formula_sum   'Ag54 Sb54 Te108'
_cell_volume   6162.55307890
_cell_formula_units_Z   54
loop_
 _symmetry_equiv_pos_site_id
 _symmetry_equiv_pos_as_xyz
  1  'x, y, z'
loop_
 _atom_site_type_symbol
 _atom_site_label
 _atom_site_symmetry_multiplicity
 _atom_site_fract_x
 _atom_site_fract_y
 _atom_site_fract_z
 _atom_site_occupancy
  Ag  Ag0  1  0.16879764  0.00203274  0.48815380  1
  Ag  Ag1  1  0.16323982  0.66941141  0.84048165  1
  Ag  Ag2  1  0.16807874  -0.00109695  0.17348100  1
  Ag  Ag3  1  0.33644496  0.83837404  0.82962011  1
  Ag  Ag4  1  0.16970684  0.51099690  -0.00150462  1
  Ag  Ag5  1  0.49579311  0.33251653  0.49736106  1
  Ag  Ag6  1  0.50098345  -0.00093214  0.83781067  1
  Ag  Ag7  1  0.00891271  -0.00408786  0.33360572  1
  Ag  Ag8  1  0.65678150  0.49464698  0.50263827  1
  Ag  Ag9  1  0.49153925  0.83470962  0.33257417  1
  Ag  Ag10  1  0.49620404  0.66438363  0.50112598  1
  Ag  Ag11  1  0.33335599  0.32494894  0.34059895  1
  Ag  Ag12  1  0.00174020  0.67378478  0.32749575  1
  Ag  Ag13  1  0.33451422  0.83606375  0.50260873  1
  Ag  Ag14  1  0.65433447  0.16929880  0.50423334  1
  Ag  Ag15  1  0.49641285  0.83880320  -0.00265153  1
  Ag  Ag16  1  0.66468897  0.50195510  0.83171229  1
  Ag  Ag17  1  0.33508490  0.16756675  0.50342671  1
  Ag  Ag18  1  0.16798499  0.83319107  0.00466780  1
  Ag  Ag19  1  0.00848377  0.15777418  0.16890171  1
  Ag  Ag20  1  0.32235853  0.00162507  0.33702587  1
  Ag  Ag21  1  0.01006803  0.16120858  0.83236606  1
  Ag  Ag22  1  0.49673779  0.83967029  0.67364982  1
  Ag  Ag23  1  0.33555734  0.16179446  0.82839997  1
  Ag  Ag24  1  0.49885171  0.16023034  0.67216249  1
  Ag  Ag25  1  0.84653336  0.66860576  0.17018942  1
  Ag  Ag26  1  0.49456671  0.15643219  -0.00618777  1
  Ag  Ag27  1  0.33483411  0.32852916  0.66121340  1
  Ag  Ag28  1  0.66294455  0.83372654  0.16187978  1
  Ag  Ag29  1  0.00670848  0.67077551  0.00036134  1
  Ag  Ag30  1  0.49346293  0.32417580  0.16952490  1
  Ag  Ag31  1  0.49560345  0.50198105  -0.00122665  1
  Ag  Ag32  1  0.01001117  0.83302018  0.16510988  1
  Ag  Ag33  1  0.01129706  0.16369488  0.50051958  1
  Ag  Ag34  1  0.17053387  0.84352293  0.32545794  1
  Ag  Ag35  1  0.65250968  0.15648337  0.82995763  1
  Ag  Ag36  1  0.00771070  0.51334650  0.83409860  1
  Ag  Ag37  1  0.00678845  0.67542322  0.67429246  1
  Ag  Ag38  1  0.00878692  0.83198780  0.83718770  1
  Ag  Ag39  1  0.00022164  -0.00114860  0.66803958  1
  Ag  Ag40  1  0.16320305  0.68157341  0.16163946  1
  Ag  Ag41  1  0.16779546  0.32994094  0.84071989  1
  Ag  Ag42  1  0.17025253  0.16315402  0.00432349  1
  Ag  Ag43  1  0.65848974  0.00040221  0.67066845  1
  Ag  Ag44  1  0.49544919  -0.00121601  0.16017281  1
  Ag  Ag45  1  0.82366937  0.33271821  0.49862535  1
  Ag  Ag46  1  0.16739496  0.15588998  0.32600321  1
  Ag  Ag47  1  0.33125195  0.66892326  0.66474595  1
  Ag  Ag48  1  0.83356124  0.50319684  0.33488712  1
  Ag  Ag49  1  0.66822298  0.66851589  0.33276909  1
  Ag  Ag50  1  0.65607622  -0.00254169  -0.01085123  1
  Ag  Ag51  1  0.33726956  0.49337434  0.50032798  1
  Ag  Ag52  1  0.17028391  0.32528612  0.16216812  1
  Ag  Ag53  1  0.65395393  0.84076773  0.83825013  1
  Sb  Sb54  1  0.33141316  0.83531674  0.16666136  1
  Sb  Sb55  1  0.17193736  0.83434453  0.66995579  1
  Sb  Sb56  1  0.33245381  0.49972925  0.83015328  1
  Sb  Sb57  1  0.17042812  0.67124109  0.49908981  1
  Sb  Sb58  1  0.66459357  0.50549275  0.16732918  1
  Sb  Sb59  1  0.50156485  0.50378281  0.33365424  1
  Sb  Sb60  1  0.16825490  0.50094875  0.67251431  1
  Sb  Sb61  1  0.66744379  0.67146089  0.00191287  1
  Sb  Sb62  1  0.33255499  0.49780708  0.17053732  1
  Sb  Sb63  1  0.83284360  0.50085428  0.66314018  1
  Sb  Sb64  1  0.33138142  0.67137336  0.33888429  1
  Sb  Sb65  1  0.49524769  0.67165315  0.16906654  1
  Sb  Sb66  1  0.83621564  0.33748442  0.17323097  1
  Sb  Sb67  1  0.83497589  0.50296060  0.00248272  1
  Sb  Sb68  1  0.17248467  0.16455554  0.66801471  1
  Sb  Sb69  1  0.66350318  0.67098194  0.66457000  1
  Sb  Sb70  1  0.66394912  -0.00451563  0.33643664  1
  Sb  Sb71  1  0.49834790  0.49974971  0.66814138  1
  Sb  Sb72  1  0.49579008  0.67281087  0.83021205  1
  Sb  Sb73  1  0.00330903  0.50757049  0.16232877  1
  Sb  Sb74  1  0.82894205  0.00044614  0.83401804  1
  Sb  Sb75  1  0.65642241  0.83383202  0.50046398  1
  Sb  Sb76  1  0.49427643  0.32752781  0.83301146  1
  Sb  Sb77  1  0.00187708  -0.00331903  -0.00018975  1
  Sb  Sb78  1  0.00808850  0.33168183  0.33348369  1
  Sb  Sb79  1  0.83674801  -0.00536230  0.16769643  1
  Sb  Sb80  1  0.66011378  0.32886755  -0.00169454  1
  Sb  Sb81  1  0.83005913  0.66204366  0.49462705  1
  Sb  Sb82  1  0.65889480  0.32775011  0.66565808  1
  Sb  Sb83  1  0.83789107  0.00547632  0.49935444  1
  Sb  Sb84  1  0.82889696  0.16645734  0.66577016  1
  Sb  Sb85  1  0.49451903  0.00106931  0.50081817  1
  Sb  Sb86  1  0.00831241  0.83843920  0.49954447  1
  Sb  Sb87  1  0.32784851  0.67016407  -0.00587644  1
  Sb  Sb88  1  0.33330329  -0.00056162  0.66318332  1
  Sb  Sb89  1  0.32738859  0.16587589  0.16833992  1
  Sb  Sb90  1  0.83981428  0.66643766  0.83757495  1
  Sb  Sb91  1  0.83784261  0.33402526  0.82809257  1
  Sb  Sb92  1  0.83122581  0.83312511  0.66734787  1
  Sb  Sb93  1  0.16523273  0.50183694  0.32835065  1
  Sb  Sb94  1  0.00212606  0.49804023  0.50336451  1
  Sb  Sb95  1  0.33176856  0.33074884  -0.00094831  1
  Sb  Sb96  1  0.17093941  -0.00058907  0.83559360  1
  Sb  Sb97  1  0.00533718  0.33550507  -0.00053933  1
  Sb  Sb98  1  0.66054585  0.33601731  0.33608991  1
  Sb  Sb99  1  0.49277925  0.16189016  0.33269969  1
  Sb  Sb100  1  0.83729790  0.82935752  0.33159363  1
  Sb  Sb101  1  0.84086463  0.17098760  0.33568083  1
  Sb  Sb102  1  0.66587441  0.15964664  0.16618847  1
  Sb  Sb103  1  0.00684066  0.32922244  0.66708451  1
  Sb  Sb104  1  0.83491823  0.83315623  0.00057749  1
  Sb  Sb105  1  0.33626858  0.00043941  0.00334308  1
  Sb  Sb106  1  0.17377384  0.32717219  0.49851559  1
  Sb  Sb107  1  0.83558010  0.16574461  -0.00044958  1
  Te  Te108  1  0.16590708  0.16468347  0.16554581  1
  Te  Te109  1  0.16980833  0.16361164  0.50072404  1
  Te  Te110  1  0.16957969  0.16459686  0.83496291  1
  Te  Te111  1  0.16657713  0.48978495  0.15887042  1
  Te  Te112  1  0.17243457  0.49976160  0.49892777  1
  Te  Te113  1  0.16581967  0.50147806  0.83862328  1
  Te  Te114  1  0.16768898  0.83753427  0.16528027  1
  Te  Te115  1  0.17353825  0.83786804  0.49534099  1
  Te  Te116  1  0.16756667  0.83273268  0.83590576  1
  Te  Te117  1  0.50129191  0.16488124  0.16306611  1
  Te  Te118  1  0.49683145  0.16780808  0.49810568  1
  Te  Te119  1  0.49708023  0.16630615  0.83382888  1
  Te  Te120  1  0.49987982  0.49841259  0.16172232  1
  Te  Te121  1  0.49903211  0.49965786  0.50064189  1
  Te  Te122  1  0.50230137  0.49886009  0.83664903  1
  Te  Te123  1  0.49933953  0.83534854  0.16366832  1
  Te  Te124  1  0.49471334  0.83357036  0.49787016  1
  Te  Te125  1  0.49784775  0.83444541  0.83461730  1
  Te  Te126  1  0.84178212  0.16838915  0.16705090  1
  Te  Te127  1  0.83202077  0.17285286  0.50009422  1
  Te  Te128  1  0.83869460  0.16890789  0.83356588  1
  Te  Te129  1  0.83292504  0.50536261  0.17237263  1
  Te  Te130  1  0.83266525  0.49440893  0.49647736  1
  Te  Te131  1  0.82989192  0.49858080  0.83357887  1
  Te  Te132  1  0.82972135  0.82776277  0.16677028  1
  Te  Te133  1  0.83201731  0.83268726  0.49985283  1
  Te  Te134  1  0.83605438  0.83264313  0.83342191  1
  Te  Te135  1  0.16726827  -0.00070578  0.00491137  1
  Te  Te136  1  0.16505751  0.00025017  0.33149648  1
  Te  Te137  1  0.15925791  -0.00106035  0.66347780  1
  Te  Te138  1  0.16734850  0.32550386  0.00029662  1
  Te  Te139  1  0.17326911  0.33371320  0.32821186  1
  Te  Te140  1  0.17477433  0.33360221  0.67266883  1
  Te  Te141  1  0.16566148  0.66976119  0.00016609  1
  Te  Te142  1  0.16281757  0.66822416  0.33024047  1
  Te  Te143  1  0.16587819  0.66763734  0.66867878  1
  Te  Te144  1  0.49849340  -0.00114543  -0.00007067  1
  Te  Te145  1  0.49937744  -0.00544267  0.32897119  1
  Te  Te146  1  0.49949948  -0.00006780  0.66699947  1
  Te  Te147  1  0.49772374  0.33641103  0.00459067  1
  Te  Te148  1  0.49443499  0.33360795  0.33209612  1
  Te  Te149  1  0.49362471  0.32918420  0.66328341  1
  Te  Te150  1  0.49887206  0.66586759  0.00011250  1
  Te  Te151  1  0.50174835  0.67172927  0.33666033  1
  Te  Te152  1  0.49717273  0.67126805  0.66208821  1
  Te  Te153  1  0.81782526  0.00085880  0.00173456  1
  Te  Te154  1  0.84288177  0.00098113  0.33306607  1
  Te  Te155  1  0.84048914  -0.00023537  0.66674920  1
  Te  Te156  1  0.83208814  0.33494057  0.00232391  1
  Te  Te157  1  0.83309495  0.33956855  0.33833444  1
  Te  Te158  1  0.83358962  0.33410386  0.65738232  1
  Te  Te159  1  0.84174227  0.66617886  0.00889556  1
  Te  Te160  1  0.83362972  0.66408931  0.33034713  1
  Te  Te161  1  0.84218756  0.66665124  0.66591898  1
  Te  Te162  1  0.00328569  0.16513440  -0.00313494  1
  Te  Te163  1  0.00665520  0.16558261  0.33466710  1
  Te  Te164  1  -0.00023303  0.16363427  0.66691645  1
  Te  Te165  1  0.00308536  0.50454252  -0.00588832  1
  Te  Te166  1  -0.00325690  0.50336324  0.33398015  1
  Te  Te167  1  0.00027006  0.50069801  0.67337272  1
  Te  Te168  1  0.00192069  0.83227292  0.00044542  1
  Te  Te169  1  0.00322022  0.83349914  0.33230620  1
  Te  Te170  1  0.00022713  0.83392338  0.66818923  1
  Te  Te171  1  0.33386947  0.16599086  -0.00669626  1
  Te  Te172  1  0.32886015  0.16485202  0.33604272  1
  Te  Te173  1  0.33779946  0.16575448  0.66615353  1
  Te  Te174  1  0.33246606  0.49978700  -0.00095649  1
  Te  Te175  1  0.33344380  0.49897753  0.34073831  1
  Te  Te176  1  0.33430763  0.50443721  0.66097001  1
  Te  Te177  1  0.33357489  0.83458033  -0.00673226  1
  Te  Te178  1  0.33181804  0.83552081  0.33454262  1
  Te  Te179  1  0.33666635  0.83262853  0.66722440  1
  Te  Te180  1  0.66292667  0.16211023  -0.00363578  1
  Te  Te181  1  0.66779954  0.16567050  0.33845832  1
  Te  Te182  1  0.66217580  0.16253667  0.66781421  1
  Te  Te183  1  0.66397932  0.50140040  -0.00312169  1
  Te  Te184  1  0.66900794  0.50462238  0.33641122  1
  Te  Te185  1  0.66598565  0.50131412  0.66507703  1
  Te  Te186  1  0.66508615  0.83513095  -0.00165789  1
  Te  Te187  1  0.66601869  0.82944511  0.33241868  1
  Te  Te188  1  0.66179742  0.83802802  0.67136148  1
  Te  Te189  1  0.00167176  -0.00302230  0.16656910  1
  Te  Te190  1  0.00358376  0.00428989  0.49905879  1
  Te  Te191  1  -0.00022681  -0.00198181  0.83270569  1
  Te  Te192  1  0.00373337  0.32784194  0.16702580  1
  Te  Te193  1  0.00231653  0.32772467  0.50058577  1
  Te  Te194  1  0.00570564  0.32663193  0.83238605  1
  Te  Te195  1  0.00471109  0.66950319  0.16741866  1
  Te  Te196  1  -0.00020028  0.66572493  0.50002727  1
  Te  Te197  1  0.00232263  0.67018178  0.83393917  1
  Te  Te198  1  0.33415395  0.00058434  0.17526960  1
  Te  Te199  1  0.33024085  0.00124660  0.49683838  1
  Te  Te200  1  0.33813260  -0.00012862  0.83127907  1
  Te  Te201  1  0.33470940  0.33207539  0.17097614  1
  Te  Te202  1  0.33490091  0.33015188  0.50093726  1
  Te  Te203  1  0.32845722  0.33194290  0.82881622  1
  Te  Te204  1  0.32369911  0.66482424  0.16753728  1
  Te  Te205  1  0.33624260  0.67081911  0.50385481  1
  Te  Te206  1  0.32793565  0.66842832  0.82701093  1
  Te  Te207  1  0.66510538  -0.00603566  0.16876279  1
  Te  Te208  1  0.66883424  0.00553779  0.50555663  1
  Te  Te209  1  0.66438169  0.00010794  0.83001011  1
  Te  Te210  1  0.66391869  0.33171341  0.16741278  1
  Te  Te211  1  0.66015120  0.33321133  0.50062206  1
  Te  Te212  1  0.66852746  0.33557498  0.83142241  1
  Te  Te213  1  0.66318588  0.67231642  0.17046099  1
  Te  Te214  1  0.66185805  0.66343966  0.49710802  1
  Te  Te215  1  0.66902335  0.66527883  0.83247613  1
