# generated using pymatgen
data_AgSbTe2
_symmetry_space_group_name_H-M   'P 1'
_cell_length_a   18.33506167
_cell_length_b   18.33469076
_cell_length_c   18.33561431
_cell_angle_alpha   89.99782854
_cell_angle_beta   89.99928488
_cell_angle_gamma   90.00335709
_symmetry_Int_Tables_number   1
_chemical_formula_structural   AgSbTe2
_chemical_formula_sum   'Ag54 Sb54 Te108'
_cell_volume   6163.84101083
_cell_formula_units_Z   54
loop_
 _symmetry_equiv_pos_site_id
 _symmetry_equiv_pos_as_xyz
  1  'x, y, z'
loop_
 _atom_site_type_symbol
 _atom_site_label
 _atom_site_symmetry_multiplicity
 _atom_site_fract_x
 _atom_site_fract_y
 _atom_site_fract_z
 _atom_site_occupancy
  Ag  Ag0  1  -0.00191920  0.67021598  0.34464124  1
  Ag  Ag1  1  0.33283049  0.49619971  0.82683180  1
  Ag  Ag2  1  0.33195541  0.17075998  0.50545485  1
  Ag  Ag3  1  0.17627277  0.49725532  -0.00660429  1
  Ag  Ag4  1  0.83057157  0.83113886  0.33566306  1
  Ag  Ag5  1  0.17272339  0.82543473  0.66669041  1
  Ag  Ag6  1  0.16981520  0.82552850  -0.00679069  1
  Ag  Ag7  1  0.00117558  0.66544343  0.66184205  1
  Ag  Ag8  1  0.33274073  0.49804740  0.16167252  1
  Ag  Ag9  1  0.33223255  0.33575615  0.33833573  1
  Ag  Ag10  1  0.66754381  0.83063099  0.17094640  1
  Ag  Ag11  1  0.82690584  0.17227994  0.66578680  1
  Ag  Ag12  1  0.66723782  0.66997168  0.34911917  1
  Ag  Ag13  1  0.83399014  0.33400137  0.50466468  1
  Ag  Ag14  1  0.17148051  0.17166048  -0.00059427  1
  Ag  Ag15  1  -0.00488357  0.33433678  0.66350720  1
  Ag  Ag16  1  0.66553760  0.16710187  0.50638817  1
  Ag  Ag17  1  0.32867288  0.00301590  0.34325647  1
  Ag  Ag18  1  0.33499728  0.50722526  0.50553564  1
  Ag  Ag19  1  0.82060892  0.66287889  0.50521435  1
  Ag  Ag20  1  0.33177066  0.00932727  -0.00510946  1
  Ag  Ag21  1  0.49599096  0.33509700  0.16419554  1
  Ag  Ag22  1  0.66549658  0.66671735  -0.01366982  1
  Ag  Ag23  1  0.66613167  0.82549745  0.82113572  1
  Ag  Ag24  1  0.00746396  0.50084636  0.16732978  1
  Ag  Ag25  1  0.33080573  0.33695167  -0.00109595  1
  Ag  Ag26  1  0.49811481  -0.00285547  0.50491117  1
  Ag  Ag27  1  0.65900328  0.50996044  0.50463326  1
  Ag  Ag28  1  0.49347042  0.50146167  -0.00644333  1
  Ag  Ag29  1  0.17305831  0.66119895  0.50563523  1
  Ag  Ag30  1  0.17021436  0.33609639  0.50697761  1
  Ag  Ag31  1  0.00288201  0.16799303  0.50359915  1
  Ag  Ag32  1  0.50098524  0.82461037  0.66455405  1
  Ag  Ag33  1  0.50375444  0.66450276  0.81862099  1
  Ag  Ag34  1  0.50484618  0.66747431  0.50584263  1
  Ag  Ag35  1  0.83424528  0.16783831  -0.01104499  1
  Ag  Ag36  1  0.67180411  0.33241899  0.66330848  1
  Ag  Ag37  1  0.34238980  0.65814621  0.66341428  1
  Ag  Ag38  1  0.65714198  -0.00252447  0.66308938  1
  Ag  Ag39  1  0.83316249  -0.00039120  0.16903819  1
  Ag  Ag40  1  0.50140026  0.16585925  0.66371051  1
  Ag  Ag41  1  0.17005680  0.16692939  0.34192033  1
  Ag  Ag42  1  0.33161018  0.17353802  0.82291656  1
  Ag  Ag43  1  0.82387957  0.66230552  0.82040562  1
  Ag  Ag44  1  0.00083747  0.00282919  0.66055235  1
  Ag  Ag45  1  0.49259651  0.51102257  0.66728898  1
  Ag  Ag46  1  0.83557459  0.33503984  0.81978692  1
  Ag  Ag47  1  0.33307141  0.66080759  0.34631979  1
  Ag  Ag48  1  0.00260128  -0.00224897  0.34107984  1
  Ag  Ag49  1  0.17339084  0.50421104  0.66591572  1
  Ag  Ag50  1  0.65591469  0.66854913  0.66390282  1
  Ag  Ag51  1  0.66503977  0.82206942  0.50387998  1
  Ag  Ag52  1  0.17138288  0.33540980  0.82462544  1
  Ag  Ag53  1  0.33927698  0.00041533  0.66220967  1
  Sb  Sb54  1  0.83487335  0.50621191  0.33691295  1
  Sb  Sb55  1  0.00403334  0.00237805  -0.00066860  1
  Sb  Sb56  1  0.17003346  0.66145136  0.82486533  1
  Sb  Sb57  1  0.49603525  0.33896090  0.82996425  1
  Sb  Sb58  1  0.49982268  0.66225700  0.16943113  1
  Sb  Sb59  1  0.83111949  0.67043930  0.17123602  1
  Sb  Sb60  1  0.17164140  0.00102785  0.50317723  1
  Sb  Sb61  1  0.82977536  0.33000991  0.16953552  1
  Sb  Sb62  1  0.83115322  0.49858286  0.66590552  1
  Sb  Sb63  1  0.33596992  0.83048427  0.82889877  1
  Sb  Sb64  1  0.00432839  0.16835426  0.82516765  1
  Sb  Sb65  1  0.49819646  -0.00451633  0.82309981  1
  Sb  Sb66  1  0.50100945  0.00328839  0.17228885  1
  Sb  Sb67  1  -0.00227772  0.83074945  0.16904006  1
  Sb  Sb68  1  -0.00468329  0.83282613  0.50209622  1
  Sb  Sb69  1  0.66226855  -0.00389992  -0.00421102  1
  Sb  Sb70  1  0.16979431  0.49739132  0.33833556  1
  Sb  Sb71  1  0.66159302  0.33787784  0.34243121  1
  Sb  Sb72  1  0.33821285  0.82901252  0.16614197  1
  Sb  Sb73  1  0.16817348  0.16988647  0.66471201  1
  Sb  Sb74  1  0.00550496  0.33413869  0.34136819  1
  Sb  Sb75  1  0.50361012  0.83168969  0.34092573  1
  Sb  Sb76  1  0.33357008  0.17208165  0.16881124  1
  Sb  Sb77  1  0.33824091  0.82946023  0.50310759  1
  Sb  Sb78  1  -0.00283610  0.66513027  -0.00298927  1
  Sb  Sb79  1  0.33593237  0.66118007  -0.00510248  1
  Sb  Sb80  1  0.66811869  0.16320153  0.17231503  1
  Sb  Sb81  1  0.66007559  0.50512441  0.82376134  1
  Sb  Sb82  1  0.83222232  0.49675139  -0.00238987  1
  Sb  Sb83  1  0.17191510  0.33580383  0.16696635  1
  Sb  Sb84  1  0.66301721  0.33763788  -0.00765092  1
  Sb  Sb85  1  0.49310002  0.16765804  0.34321137  1
  Sb  Sb86  1  0.33215527  0.33581986  0.66468047  1
  Sb  Sb87  1  0.83438968  0.83612208  0.00139978  1
  Sb  Sb88  1  0.00676629  0.33327727  -0.00538449  1
  Sb  Sb89  1  0.16514604  -0.00013136  0.16698889  1
  Sb  Sb90  1  0.82732811  0.83151099  0.66239956  1
  Sb  Sb91  1  0.83041535  0.00004048  0.50072703  1
  Sb  Sb92  1  0.00312227  0.50069133  0.50099265  1
  Sb  Sb93  1  0.16490386  0.83401178  0.33905744  1
  Sb  Sb94  1  0.00573514  0.49939685  0.83078505  1
  Sb  Sb95  1  -0.00344220  0.83099652  0.82832482  1
  Sb  Sb96  1  0.49575037  0.17050405  -0.00747500  1
  Sb  Sb97  1  0.66303632  0.16538391  0.82503501  1
  Sb  Sb98  1  0.00070181  0.17015353  0.17196198  1
  Sb  Sb99  1  0.66731189  -0.00555548  0.34246494  1
  Sb  Sb100  1  0.49786243  0.82832938  -0.00693887  1
  Sb  Sb101  1  0.66234947  0.50508708  0.17097822  1
  Sb  Sb102  1  0.83757035  0.16201128  0.34248109  1
  Sb  Sb103  1  0.49594397  0.50090118  0.33927288  1
  Sb  Sb104  1  0.49692776  0.33605844  0.50338473  1
  Sb  Sb105  1  0.83167403  0.00130359  0.83088569  1
  Sb  Sb106  1  0.17017560  0.00522785  0.83122219  1
  Sb  Sb107  1  0.16736658  0.66424113  0.17149274  1
  Te  Te108  1  0.16559934  0.16771215  0.16165478  1
  Te  Te109  1  0.16873377  0.16709598  0.50003109  1
  Te  Te110  1  0.17042624  0.17310841  0.83784719  1
  Te  Te111  1  0.17016799  0.49960858  0.16219394  1
  Te  Te112  1  0.16954378  0.49821766  0.50332137  1
  Te  Te113  1  0.17134618  0.49595976  0.83276750  1
  Te  Te114  1  0.16719571  0.83218643  0.15941624  1
  Te  Te115  1  0.16539958  0.82676499  0.50562427  1
  Te  Te116  1  0.16636796  0.83254381  0.83226504  1
  Te  Te117  1  0.50232492  0.17206684  0.16540277  1
  Te  Te118  1  0.49574788  0.16765229  0.50394002  1
  Te  Te119  1  0.49342191  0.16691237  0.82696003  1
  Te  Te120  1  0.49566601  0.49641835  0.16447268  1
  Te  Te121  1  0.49712459  0.50191853  0.50472900  1
  Te  Te122  1  0.49522232  0.50373936  0.83138268  1
  Te  Te123  1  0.50665162  0.83432524  0.16514801  1
  Te  Te124  1  0.50474840  0.83312972  0.50541673  1
  Te  Te125  1  0.50492193  0.82664221  0.82686019  1
  Te  Te126  1  0.83355184  0.16184556  0.16578241  1
  Te  Te127  1  0.83624217  0.16795933  0.50534901  1
  Te  Te128  1  0.83365311  0.17000707  0.82949689  1
  Te  Te129  1  0.83553429  0.49815888  0.16614748  1
  Te  Te130  1  0.83036053  0.49941092  0.49972543  1
  Te  Te131  1  0.83464283  0.49796411  0.83428754  1
  Te  Te132  1  0.82984565  0.83790634  0.16949276  1
  Te  Te133  1  0.82752241  0.82965216  0.49615345  1
  Te  Te134  1  0.82736965  0.82820534  0.83510407  1
  Te  Te135  1  0.17175334  0.00572824  -0.00031071  1
  Te  Te136  1  0.16606685  0.00188973  0.33365792  1
  Te  Te137  1  0.16629442  -0.00509879  0.66703424  1
  Te  Te138  1  0.17060561  0.33523006  -0.00076094  1
  Te  Te139  1  0.17144528  0.32842881  0.33750211  1
  Te  Te140  1  0.16556951  0.33498520  0.66634456  1
  Te  Te141  1  0.16641866  0.66430912  -0.00181316  1
  Te  Te142  1  0.16699993  0.66752095  0.33893673  1
  Te  Te143  1  0.16400813  0.66586694  0.66617520  1
  Te  Te144  1  0.49312443  -0.00056000  0.00198809  1
  Te  Te145  1  0.49479037  -0.00012444  0.34036409  1
  Te  Te146  1  0.49901001  0.00354951  0.66336196  1
  Te  Te147  1  0.49560340  0.33811579  -0.00036427  1
  Te  Te148  1  0.49342166  0.33389654  0.32762170  1
  Te  Te149  1  0.50876577  0.32685684  0.66687230  1
  Te  Te150  1  0.50388102  0.66231627  0.00187388  1
  Te  Te151  1  0.49770660  0.66733301  0.33909159  1
  Te  Te152  1  0.49831668  0.66671111  0.66312793  1
  Te  Te153  1  0.83316322  0.00531123  0.00208271  1
  Te  Te154  1  0.83599480  -0.00403822  0.33191463  1
  Te  Te155  1  0.83901317  0.00329627  0.66709686  1
  Te  Te156  1  0.83305664  0.32781950  0.00025787  1
  Te  Te157  1  0.83231327  0.33196741  0.33936993  1
  Te  Te158  1  0.83383703  0.33442132  0.66288590  1
  Te  Te159  1  0.82838014  0.66640166  -0.00083191  1
  Te  Te160  1  0.83425349  0.67082018  0.33776864  1
  Te  Te161  1  0.83923957  0.66671382  0.66397468  1
  Te  Te162  1  -0.00080499  0.16591454  0.00052404  1
  Te  Te163  1  0.00552900  0.16353569  0.33923465  1
  Te  Te164  1  0.00168995  0.16703812  0.66158760  1
  Te  Te165  1  0.00385477  0.49977582  0.00545590  1
  Te  Te166  1  0.00233396  0.50481855  0.32907868  1
  Te  Te167  1  0.00829322  0.49971598  0.66618003  1
  Te  Te168  1  0.00839140  0.83462363  0.00008131  1
  Te  Te169  1  -0.00289716  0.83341121  0.33355404  1
  Te  Te170  1  0.00359612  0.83303720  0.66610830  1
  Te  Te171  1  0.33235781  0.16924426  0.00223866  1
  Te  Te172  1  0.32924404  0.16533929  0.33508995  1
  Te  Te173  1  0.33246724  0.16737763  0.66538187  1
  Te  Te174  1  0.33377870  0.50033507  0.00021879  1
  Te  Te175  1  0.33227542  0.50094402  0.33780859  1
  Te  Te176  1  0.33360618  0.49828747  0.66585246  1
  Te  Te177  1  0.32902094  0.83391675  -0.00152861  1
  Te  Te178  1  0.33193469  0.83566502  0.33132061  1
  Te  Te179  1  0.33495810  0.83936174  0.66811964  1
  Te  Te180  1  0.66968273  0.16630944  -0.00028791  1
  Te  Te181  1  0.66722388  0.16716176  0.34115459  1
  Te  Te182  1  0.66841556  0.16441998  0.66566084  1
  Te  Te183  1  0.66278090  0.50524158  0.00178220  1
  Te  Te184  1  0.66600302  0.50689439  0.34033816  1
  Te  Te185  1  0.66434892  0.50327216  0.66262215  1
  Te  Te186  1  0.66601778  0.82941090  0.00109732  1
  Te  Te187  1  0.66964609  0.82993559  0.33546257  1
  Te  Te188  1  0.66703974  0.83236764  0.66389543  1
  Te  Te189  1  -0.00455984  0.00038386  0.17083444  1
  Te  Te190  1  0.00019059  0.00190750  0.49996726  1
  Te  Te191  1  -0.00022612  -0.00033035  0.82497433  1
  Te  Te192  1  -0.00188752  0.33899936  0.16829345  1
  Te  Te193  1  0.00091207  0.33268474  0.50344827  1
  Te  Te194  1  -0.00297662  0.33352801  0.82718884  1
  Te  Te195  1  -0.00081202  0.66201701  0.16862761  1
  Te  Te196  1  0.00392109  0.66594356  0.50086238  1
  Te  Te197  1  -0.00867842  0.66544285  0.82865187  1
  Te  Te198  1  0.33441665  -0.00124432  0.16859786  1
  Te  Te199  1  0.33547991  0.00075261  0.50158347  1
  Te  Te200  1  0.33387806  0.00571783  0.83327345  1
  Te  Te201  1  0.33588654  0.33814206  0.16599453  1
  Te  Te202  1  0.33166798  0.33066800  0.49850995  1
  Te  Te203  1  0.33178767  0.33420656  0.83472734  1
  Te  Te204  1  0.33380266  0.66030048  0.17199061  1
  Te  Te205  1  0.33234083  0.66742392  0.50340803  1
  Te  Te206  1  0.33744790  0.66254155  0.82720252  1
  Te  Te207  1  0.66927295  -0.00520079  0.16707874  1
  Te  Te208  1  0.66344826  0.00705490  0.50458234  1
  Te  Te209  1  0.66613065  -0.00651827  0.82703326  1
  Te  Te210  1  0.66106843  0.33400245  0.16745744  1
  Te  Te211  1  0.66642848  0.32780009  0.50350744  1
  Te  Te212  1  0.67350725  0.33334431  0.82691125  1
  Te  Te213  1  0.66639882  0.67084440  0.16753677  1
  Te  Te214  1  0.66543683  0.66592863  0.50423469  1
  Te  Te215  1  0.66597343  0.66552255  0.82886569  1
