# generated using pymatgen
data_AgSbTe2
_symmetry_space_group_name_H-M   'P 1'
_cell_length_a   18.32347066
_cell_length_b   18.32415535
_cell_length_c   18.32631735
_cell_angle_alpha   90.00129005
_cell_angle_beta   90.00176660
_cell_angle_gamma   90.00048185
_symmetry_Int_Tables_number   1
_chemical_formula_structural   AgSbTe2
_chemical_formula_sum   'Ag54 Sb54 Te108'
_cell_volume   6153.28321534
_cell_formula_units_Z   54
loop_
 _symmetry_equiv_pos_site_id
 _symmetry_equiv_pos_as_xyz
  1  'x, y, z'
loop_
 _atom_site_type_symbol
 _atom_site_label
 _atom_site_symmetry_multiplicity
 _atom_site_fract_x
 _atom_site_fract_y
 _atom_site_fract_z
 _atom_site_occupancy
  Ag  Ag0  1  0.67336104  0.00477124  -0.00019481  1
  Ag  Ag1  1  -0.00012090  -0.00315930  0.34084454  1
  Ag  Ag2  1  0.15914020  0.66885714  0.16446295  1
  Ag  Ag3  1  0.00020151  0.83428723  0.51035601  1
  Ag  Ag4  1  0.00143509  0.66869305  0.33222277  1
  Ag  Ag5  1  0.50020853  0.66890938  0.49921628  1
  Ag  Ag6  1  -0.00043011  0.16382802  0.15659273  1
  Ag  Ag7  1  0.66149365  0.82798340  0.16563347  1
  Ag  Ag8  1  0.00094295  0.16041514  0.83589781  1
  Ag  Ag9  1  0.50790885  0.33451031  0.49971164  1
  Ag  Ag10  1  0.84339406  0.83380991  0.67232015  1
  Ag  Ag11  1  0.32683611  0.67195538  -0.00300667  1
  Ag  Ag12  1  0.66726722  0.49438251  0.49564255  1
  Ag  Ag13  1  0.84272806  0.66788112  0.83577754  1
  Ag  Ag14  1  0.15622326  0.67437923  0.82748981  1
  Ag  Ag15  1  0.66647399  0.17194584  0.50121199  1
  Ag  Ag16  1  0.15440245  0.15438951  0.66988192  1
  Ag  Ag17  1  0.16105338  -0.00645665  0.82999191  1
  Ag  Ag18  1  0.15666414  0.83450183  0.66882476  1
  Ag  Ag19  1  -0.00715378  0.33502406  0.33093251  1
  Ag  Ag20  1  0.50152161  0.83445838  0.32641541  1
  Ag  Ag21  1  -0.00557239  0.32439822  -0.00302192  1
  Ag  Ag22  1  0.67063983  0.66879329  0.66532056  1
  Ag  Ag23  1  0.83626464  0.83576400  -0.00638661  1
  Ag  Ag24  1  0.83617263  0.50037960  0.33361527  1
  Ag  Ag25  1  0.16175464  0.67215920  0.50603129  1
  Ag  Ag26  1  -0.00016259  0.67939410  0.67741591  1
  Ag  Ag27  1  0.32389092  0.67214054  0.67377840  1
  Ag  Ag28  1  -0.00167654  0.51739044  0.83403157  1
  Ag  Ag29  1  0.83907549  -0.00029562  0.50323676  1
  Ag  Ag30  1  0.67050831  0.33532368  0.33838529  1
  Ag  Ag31  1  0.50234700  -0.00547313  0.16249426  1
  Ag  Ag32  1  0.32659146  0.15770660  0.83466138  1
  Ag  Ag33  1  0.83654246  0.66849492  0.16065328  1
  Ag  Ag34  1  0.34078983  0.82970359  0.15839903  1
  Ag  Ag35  1  0.83678328  0.33293792  0.83616548  1
  Ag  Ag36  1  0.49478712  -0.00072241  0.83792835  1
  Ag  Ag37  1  0.32500562  0.83384015  0.83400580  1
  Ag  Ag38  1  0.83758945  0.16060182  0.67409469  1
  Ag  Ag39  1  0.50056595  0.83176316  0.66595988  1
  Ag  Ag40  1  -0.00006352  0.67154349  -0.00851787  1
  Ag  Ag41  1  0.15644624  -0.00837021  0.51182307  1
  Ag  Ag42  1  0.66798743  0.50534284  0.17146654  1
  Ag  Ag43  1  0.15519402  0.50609161  0.33366722  1
  Ag  Ag44  1  0.00404355  0.83035708  0.82433833  1
  Ag  Ag45  1  0.67188873  0.32672752  0.00018921  1
  Ag  Ag46  1  0.83639399  0.16249931  -0.00502100  1
  Ag  Ag47  1  0.33550403  0.33114568  -0.00287469  1
  Ag  Ag48  1  0.00069008  -0.00852284  0.67096688  1
  Ag  Ag49  1  0.50264871  0.16181506  0.32948811  1
  Ag  Ag50  1  -0.00573394  0.00086653  -0.00976626  1
  Ag  Ag51  1  0.50788446  0.16321746  0.00142543  1
  Ag  Ag52  1  0.50347238  0.67651899  0.16930164  1
  Ag  Ag53  1  0.66799041  0.33424908  0.65809120  1
  Sb  Sb54  1  0.33110866  0.16177925  0.15859217  1
  Sb  Sb55  1  0.16650664  0.33499400  0.50086053  1
  Sb  Sb56  1  0.33582168  0.33251539  0.32890466  1
  Sb  Sb57  1  0.32943387  0.83120029  0.50520427  1
  Sb  Sb58  1  -0.00460455  0.50669134  0.49958280  1
  Sb  Sb59  1  0.83310124  0.50422789  0.66405706  1
  Sb  Sb60  1  0.16548275  0.16744696  0.33887586  1
  Sb  Sb61  1  0.16559715  -0.00711964  0.16325058  1
  Sb  Sb62  1  0.84051062  -0.00245303  0.83201185  1
  Sb  Sb63  1  -0.00442233  0.50202229  0.16583296  1
  Sb  Sb64  1  0.16391205  0.50908690  0.66340001  1
  Sb  Sb65  1  0.32449336  -0.00765230  0.67056336  1
  Sb  Sb66  1  0.83205825  0.16925981  0.33240041  1
  Sb  Sb67  1  0.15957804  0.33316027  0.83319619  1
  Sb  Sb68  1  0.16104232  0.16592075  -0.00610607  1
  Sb  Sb69  1  0.16681465  0.82925332  0.33793626  1
  Sb  Sb70  1  0.83478238  0.67121873  0.50256386  1
  Sb  Sb71  1  0.49873168  0.67394802  0.83304472  1
  Sb  Sb72  1  0.33646273  0.50874868  0.16556450  1
  Sb  Sb73  1  0.16424360  0.33805306  0.16586880  1
  Sb  Sb74  1  0.16002248  0.83170237  -0.00872250  1
  Sb  Sb75  1  0.33331757  -0.00326341  -0.00321625  1
  Sb  Sb76  1  0.66958167  0.66819685  0.00055553  1
  Sb  Sb77  1  0.33675008  0.50297945  0.49955921  1
  Sb  Sb78  1  0.50593288  0.32545488  0.83173190  1
  Sb  Sb79  1  0.67132946  0.83393583  0.83545859  1
  Sb  Sb80  1  0.83229862  0.83068552  0.33285571  1
  Sb  Sb81  1  0.66962225  0.00284635  0.33044299  1
  Sb  Sb82  1  0.67314425  0.49950379  0.83412847  1
  Sb  Sb83  1  0.83315665  0.33686950  0.16209406  1
  Sb  Sb84  1  0.33057917  -0.00218596  0.33219604  1
  Sb  Sb85  1  0.33708809  0.16580588  0.50677955  1
  Sb  Sb86  1  0.83496483  0.50064542  0.00221515  1
  Sb  Sb87  1  0.33879374  0.33470879  0.67256682  1
  Sb  Sb88  1  0.50181450  -0.00325201  0.50013936  1
  Sb  Sb89  1  0.83220619  -0.00484467  0.16512643  1
  Sb  Sb90  1  0.50353931  0.50220026  0.33341633  1
  Sb  Sb91  1  0.67265922  0.16546028  0.83273713  1
  Sb  Sb92  1  0.32574638  0.50613607  0.83498234  1
  Sb  Sb93  1  0.50245404  0.49665634  0.00101301  1
  Sb  Sb94  1  0.50284955  0.33149867  0.16897144  1
  Sb  Sb95  1  0.50352695  0.16081992  0.66942970  1
  Sb  Sb96  1  0.66978654  0.83306114  0.49957371  1
  Sb  Sb97  1  0.82858571  0.32920937  0.50414530  1
  Sb  Sb98  1  0.67038981  0.16622545  0.16566062  1
  Sb  Sb99  1  0.67014764  0.66261652  0.33432736  1
  Sb  Sb100  1  0.67320410  -0.00218767  0.67153677  1
  Sb  Sb101  1  -0.00055079  0.83293840  0.16348987  1
  Sb  Sb102  1  -0.00565462  0.15874732  0.50313943  1
  Sb  Sb103  1  0.16311327  0.50505568  0.00269398  1
  Sb  Sb104  1  0.33028608  0.66879026  0.33109509  1
  Sb  Sb105  1  0.50336258  0.50835085  0.66500384  1
  Sb  Sb106  1  0.50425831  0.83844844  0.00140006  1
  Sb  Sb107  1  -0.00627369  0.33071667  0.66898762  1
  Te  Te108  1  0.16148881  0.16470629  0.16869316  1
  Te  Te109  1  0.16864633  0.16514501  0.50754567  1
  Te  Te110  1  0.16613391  0.16702466  0.82889515  1
  Te  Te111  1  0.16776394  0.50782345  0.17311044  1
  Te  Te112  1  0.16676908  0.50485191  0.49500855  1
  Te  Te113  1  0.15806978  0.50515539  0.83252682  1
  Te  Te114  1  0.17318525  0.82760933  0.16850749  1
  Te  Te115  1  0.16367595  0.83221016  0.50419822  1
  Te  Te116  1  0.16593527  0.83293674  0.83034457  1
  Te  Te117  1  0.49925421  0.16262316  0.16539820  1
  Te  Te118  1  0.50396301  0.16627272  0.49852872  1
  Te  Te119  1  0.49661720  0.16135367  0.83768117  1
  Te  Te120  1  0.50605373  0.50657187  0.16792612  1
  Te  Te121  1  0.50613575  0.50279846  0.49881396  1
  Te  Te122  1  0.49932925  0.49797551  0.83338509  1
  Te  Te123  1  0.50113802  0.83362122  0.16406686  1
  Te  Te124  1  0.50008864  0.82961641  0.50088195  1
  Te  Te125  1  0.49911521  0.83808416  0.83224441  1
  Te  Te126  1  0.83848897  0.16602110  0.16108750  1
  Te  Te127  1  0.82771979  0.16232295  0.50117500  1
  Te  Te128  1  0.83653810  0.16662104  0.83466273  1
  Te  Te129  1  0.82881934  0.50570857  0.17194120  1
  Te  Te130  1  0.82738024  0.50003677  0.49477152  1
  Te  Te131  1  0.83899166  0.50154346  0.83240539  1
  Te  Te132  1  0.82916536  0.82809406  0.16473473  1
  Te  Te133  1  0.83743753  0.83838005  0.50322068  1
  Te  Te134  1  0.83664145  0.83026597  0.83286555  1
  Te  Te135  1  0.15805855  -0.00076930  -0.00566783  1
  Te  Te136  1  0.16005211  0.00014115  0.33457077  1
  Te  Te137  1  0.16323176  -0.00242129  0.66896983  1
  Te  Te138  1  0.16375872  0.33509357  0.00050892  1
  Te  Te139  1  0.16271561  0.33754854  0.33388685  1
  Te  Te140  1  0.16955689  0.33064081  0.66539915  1
  Te  Te141  1  0.16610823  0.66709359  0.00167713  1
  Te  Te142  1  0.16404445  0.66570204  0.33515577  1
  Te  Te143  1  0.16261689  0.67047863  0.66688347  1
  Te  Te144  1  0.49906782  0.00370261  0.00079732  1
  Te  Te145  1  0.50021816  -0.00050325  0.33118842  1
  Te  Te146  1  0.50070096  -0.00618990  0.66879622  1
  Te  Te147  1  0.50304585  0.32719936  0.00062704  1
  Te  Te148  1  0.50365213  0.33116177  0.33674442  1
  Te  Te149  1  0.50686958  0.33270482  0.66227283  1
  Te  Te150  1  0.49947846  0.66575396  0.00327738  1
  Te  Te151  1  0.49965590  0.66951246  0.33372753  1
  Te  Te152  1  0.50558636  0.67143448  0.66577657  1
  Te  Te153  1  0.83364643  0.00023390  0.00014117  1
  Te  Te154  1  0.83928406  0.00022644  0.33656901  1
  Te  Te155  1  0.83671485  -0.00101232  0.66547474  1
  Te  Te156  1  0.83500934  0.33334858  -0.00230926  1
  Te  Te157  1  0.83275129  0.33611134  0.33194335  1
  Te  Te158  1  0.82756783  0.33028518  0.67146599  1
  Te  Te159  1  0.83447439  0.66749472  -0.00054592  1
  Te  Te160  1  0.83745636  0.66402737  0.33213206  1
  Te  Te161  1  0.83528225  0.67012772  0.66832958  1
  Te  Te162  1  -0.00117384  0.16562279  -0.00111632  1
  Te  Te163  1  0.00011226  0.16834615  0.33337886  1
  Te  Te164  1  -0.00254025  0.16692906  0.66879497  1
  Te  Te165  1  -0.00015843  0.50290955  -0.00418901  1
  Te  Te166  1  -0.00299321  0.49971842  0.33260502  1
  Te  Te167  1  -0.00067406  0.49978900  0.67145850  1
  Te  Te168  1  -0.00533729  0.83127059  0.00007509  1
  Te  Te169  1  -0.00063854  0.83375174  0.33280615  1
  Te  Te170  1  -0.00041819  0.83399723  0.66505920  1
  Te  Te171  1  0.33380796  0.16801135  -0.00493054  1
  Te  Te172  1  0.34009998  0.16671505  0.33265287  1
  Te  Te173  1  0.33418005  0.16794690  0.67537396  1
  Te  Te174  1  0.33341423  0.49718198  0.00004013  1
  Te  Te175  1  0.32607254  0.49776027  0.33253808  1
  Te  Te176  1  0.33329073  0.50935310  0.66766881  1
  Te  Te177  1  0.33434084  0.83040923  -0.00312160  1
  Te  Te178  1  0.34134955  0.83361290  0.33051475  1
  Te  Te179  1  0.33871012  0.82853791  0.67061569  1
  Te  Te180  1  0.66868460  0.16542833  0.00011353  1
  Te  Te181  1  0.66394384  0.17110480  0.33408220  1
  Te  Te182  1  0.67147782  0.16771112  0.66413451  1
  Te  Te183  1  0.66749752  0.49311251  0.00394492  1
  Te  Te184  1  0.66823413  0.49587815  0.33351417  1
  Te  Te185  1  0.66759938  0.49914264  0.66318259  1
  Te  Te186  1  0.67367081  0.83599300  0.00345132  1
  Te  Te187  1  0.66224876  0.83389246  0.32871621  1
  Te  Te188  1  0.66411944  0.82996548  0.66659136  1
  Te  Te189  1  0.00039520  0.00193362  0.16581561  1
  Te  Te190  1  0.00031953  -0.00150451  0.50140425  1
  Te  Te191  1  0.00076040  -0.00041611  0.83214143  1
  Te  Te192  1  0.00021291  0.33080542  0.16628697  1
  Te  Te193  1  -0.00056392  0.33443017  0.49422222  1
  Te  Te194  1  -0.00427412  0.32204901  0.83528492  1
  Te  Te195  1  -0.00063045  0.66626701  0.17048756  1
  Te  Te196  1  0.00191142  0.66981811  0.49480730  1
  Te  Te197  1  -0.00071988  0.67336185  0.83462310  1
  Te  Te198  1  0.33766101  -0.00670789  0.16485660  1
  Te  Te199  1  0.32531030  0.00040132  0.49990310  1
  Te  Te200  1  0.33105134  -0.00216234  0.83381111  1
  Te  Te201  1  0.33340350  0.33317774  0.15859094  1
  Te  Te202  1  0.34251314  0.33427614  0.50103490  1
  Te  Te203  1  0.33339268  0.33545816  0.83812572  1
  Te  Te204  1  0.33600006  0.67074611  0.16304633  1
  Te  Te205  1  0.33624979  0.66629028  0.50452321  1
  Te  Te206  1  0.33161158  0.67076522  0.83531530  1
  Te  Te207  1  0.66326482  -0.00234693  0.16273268  1
  Te  Te208  1  0.67079637  0.00383266  0.49984648  1
  Te  Te209  1  0.65780954  0.00023963  0.83935814  1
  Te  Te210  1  0.66645423  0.33620007  0.16574758  1
  Te  Te211  1  0.66640028  0.33290073  0.49937638  1
  Te  Te212  1  0.67340241  0.33349468  0.83788824  1
  Te  Te213  1  0.66696341  0.66694067  0.16689841  1
  Te  Te214  1  0.66470335  0.66625992  0.50279558  1
  Te  Te215  1  0.66904668  0.66491355  0.82801598  1
