# generated using pymatgen
data_AgSbTe2
_symmetry_space_group_name_H-M   'P 1'
_cell_length_a   18.34946993
_cell_length_b   18.33923150
_cell_length_c   18.34528834
_cell_angle_alpha   89.99782213
_cell_angle_beta   89.99955046
_cell_angle_gamma   89.99953147
_symmetry_Int_Tables_number   1
_chemical_formula_structural   AgSbTe2
_chemical_formula_sum   'Ag54 Sb54 Te108'
_cell_volume   6173.46794658
_cell_formula_units_Z   54
loop_
 _symmetry_equiv_pos_site_id
 _symmetry_equiv_pos_as_xyz
  1  'x, y, z'
loop_
 _atom_site_type_symbol
 _atom_site_label
 _atom_site_symmetry_multiplicity
 _atom_site_fract_x
 _atom_site_fract_y
 _atom_site_fract_z
 _atom_site_occupancy
  Ag  Ag0  1  0.66414142  0.51486361  0.83484389  1
  Ag  Ag1  1  0.50462549  0.16453915  -0.00275869  1
  Ag  Ag2  1  0.83351934  0.17085806  0.01147219  1
  Ag  Ag3  1  0.16624024  0.51683074  -0.00120645  1
  Ag  Ag4  1  -0.00372094  0.15904361  0.16854553  1
  Ag  Ag5  1  0.16321452  0.15602211  0.66051386  1
  Ag  Ag6  1  0.00519524  -0.00568720  0.00113117  1
  Ag  Ag7  1  0.00024073  0.67654210  0.00007723  1
  Ag  Ag8  1  0.66453268  0.82740484  0.84244633  1
  Ag  Ag9  1  0.01149104  0.00158089  0.66216199  1
  Ag  Ag10  1  0.32642949  -0.00682134  -0.00217871  1
  Ag  Ag11  1  0.16749616  0.67916034  0.83837102  1
  Ag  Ag12  1  0.49244849  0.83549673  -0.00257053  1
  Ag  Ag13  1  0.15765637  0.67116231  0.15488586  1
  Ag  Ag14  1  0.32657953  0.00357901  0.33315969  1
  Ag  Ag15  1  0.32358392  0.83437573  0.15615882  1
  Ag  Ag16  1  0.66967070  0.66896121  0.32931839  1
  Ag  Ag17  1  0.83704946  0.16750545  0.32927482  1
  Ag  Ag18  1  0.00194088  0.00551795  0.33668969  1
  Ag  Ag19  1  -0.00072697  0.32488194  0.00114278  1
  Ag  Ag20  1  0.50825924  0.66611733  0.83055677  1
  Ag  Ag21  1  0.32471257  0.83271674  0.83825608  1
  Ag  Ag22  1  0.15523396  0.16205433  0.33865504  1
  Ag  Ag23  1  0.84267991  0.00684393  0.49810354  1
  Ag  Ag24  1  0.33921830  0.67576435  0.67118349  1
  Ag  Ag25  1  0.66740145  0.33440162  -0.00051274  1
  Ag  Ag26  1  0.83655431  0.16477687  0.66186670  1
  Ag  Ag27  1  0.00028879  0.83790139  0.15956197  1
  Ag  Ag28  1  0.01227061  0.83408173  0.84245264  1
  Ag  Ag29  1  0.33306268  0.32640582  0.32857031  1
  Ag  Ag30  1  0.50117415  0.51125258  0.66870699  1
  Ag  Ag31  1  0.32316163  -0.00414687  0.67263108  1
  Ag  Ag32  1  0.16566881  -0.01025744  0.82182831  1
  Ag  Ag33  1  0.82996578  0.49764561  0.33303421  1
  Ag  Ag34  1  0.16556161  0.83274508  -0.00493779  1
  Ag  Ag35  1  0.67744023  0.16299160  0.16437687  1
  Ag  Ag36  1  0.16751037  0.84581334  0.68309380  1
  Ag  Ag37  1  0.82097726  0.66778384  0.84243880  1
  Ag  Ag38  1  0.50070420  0.33752082  0.83603533  1
  Ag  Ag39  1  0.82932326  0.66683670  0.49838181  1
  Ag  Ag40  1  0.49975453  0.16719252  0.67238916  1
  Ag  Ag41  1  0.67185653  0.66929675  -0.00548512  1
  Ag  Ag42  1  0.67058198  0.83090888  0.16238879  1
  Ag  Ag43  1  0.50826252  0.50331807  0.33800613  1
  Ag  Ag44  1  0.83382047  0.32365953  0.16822781  1
  Ag  Ag45  1  0.15988047  0.00387384  0.51040145  1
  Ag  Ag46  1  0.33267029  0.32721429  0.00142883  1
  Ag  Ag47  1  0.51147167  0.66609943  0.51337949  1
  Ag  Ag48  1  0.67518169  -0.00130162  0.33222568  1
  Ag  Ag49  1  0.83742707  0.32242676  0.49057055  1
  Ag  Ag50  1  0.83222805  0.66644568  0.16268209  1
  Ag  Ag51  1  0.66226070  0.66743476  0.68135582  1
  Ag  Ag52  1  -0.00068154  0.16169383  0.49252593  1
  Ag  Ag53  1  0.15946783  0.32140815  0.49894050  1
  Sb  Sb54  1  -0.00210125  0.67553261  0.67300155  1
  Sb  Sb55  1  0.33720599  0.66922434  0.33573613  1
  Sb  Sb56  1  0.66741555  0.33373751  0.32777015  1
  Sb  Sb57  1  0.16342635  0.66960051  0.50384455  1
  Sb  Sb58  1  0.49804382  0.50133366  -0.00359434  1
  Sb  Sb59  1  0.16447957  0.49487544  0.32955164  1
  Sb  Sb60  1  -0.00023982  0.32315864  0.67028706  1
  Sb  Sb61  1  0.66837163  0.50265961  0.16257986  1
  Sb  Sb62  1  0.83533860  0.49956773  0.00434940  1
  Sb  Sb63  1  0.83234820  0.83769997  0.33105799  1
  Sb  Sb64  1  0.82841178  0.49968509  0.66342294  1
  Sb  Sb65  1  0.17186893  0.50230982  0.67208564  1
  Sb  Sb66  1  0.50370364  0.66846663  0.16131568  1
  Sb  Sb67  1  0.83716359  0.83562918  0.66851289  1
  Sb  Sb68  1  0.16391362  -0.00489592  0.16568702  1
  Sb  Sb69  1  0.66706239  0.82987949  0.49937481  1
  Sb  Sb70  1  -0.00680129  0.67499066  0.32643679  1
  Sb  Sb71  1  0.49506585  -0.00425649  0.83443975  1
  Sb  Sb72  1  0.83907830  -0.00499489  0.83077259  1
  Sb  Sb73  1  0.66598660  0.33556908  0.67237695  1
  Sb  Sb74  1  0.83589074  0.00100859  0.17035374  1
  Sb  Sb75  1  -0.00023739  0.32610015  0.32847881  1
  Sb  Sb76  1  0.66638326  0.16228339  0.83898379  1
  Sb  Sb77  1  -0.00028533  0.15911976  0.83648948  1
  Sb  Sb78  1  0.50426193  0.33286947  0.16007545  1
  Sb  Sb79  1  -0.00287422  0.49268825  0.49959430  1
  Sb  Sb80  1  -0.00046935  0.84029086  0.49910071  1
  Sb  Sb81  1  0.49464299  0.83154934  0.67505380  1
  Sb  Sb82  1  0.33443218  0.32987506  0.66858383  1
  Sb  Sb83  1  0.33250393  0.67297145  -0.00448244  1
  Sb  Sb84  1  0.49819433  -0.00237673  0.50153917  1
  Sb  Sb85  1  0.50236911  0.16944165  0.33242128  1
  Sb  Sb86  1  0.33783677  0.50745592  0.83500857  1
  Sb  Sb87  1  0.32525995  0.16563304  0.50030722  1
  Sb  Sb88  1  0.33368409  0.15990968  0.83450946  1
  Sb  Sb89  1  0.33198451  0.83514720  0.50297597  1
  Sb  Sb90  1  0.50025430  -0.00043190  0.16563134  1
  Sb  Sb91  1  0.50180102  0.33598827  0.50338662  1
  Sb  Sb92  1  0.16381442  0.15972785  0.00009733  1
  Sb  Sb93  1  0.66703517  0.50212399  0.50226740  1
  Sb  Sb94  1  -0.00489080  0.50879395  0.83662637  1
  Sb  Sb95  1  0.17014868  0.33055963  0.83375510  1
  Sb  Sb96  1  0.33374017  0.49952188  0.49970992  1
  Sb  Sb97  1  0.83677278  0.83462885  0.00051524  1
  Sb  Sb98  1  0.67526454  0.16569815  0.49546564  1
  Sb  Sb99  1  0.83014843  0.33648222  0.83689796  1
  Sb  Sb100  1  0.66682007  -0.00341727  0.66338515  1
  Sb  Sb101  1  0.50078701  0.83077680  0.32683253  1
  Sb  Sb102  1  0.16680339  0.83927366  0.33076576  1
  Sb  Sb103  1  0.16292582  0.33466783  0.16705544  1
  Sb  Sb104  1  -0.00265881  0.50167217  0.16475894  1
  Sb  Sb105  1  0.33328944  0.50517673  0.16385451  1
  Sb  Sb106  1  0.67026879  -0.00288813  0.00426205  1
  Sb  Sb107  1  0.32957108  0.16182368  0.16527074  1
  Te  Te108  1  0.16123819  0.16863502  0.17275545  1
  Te  Te109  1  0.16308617  0.16409631  0.49955409  1
  Te  Te110  1  0.16647940  0.16357035  0.82599689  1
  Te  Te111  1  0.16586853  0.50727345  0.16095562  1
  Te  Te112  1  0.16482847  0.49498807  0.50006051  1
  Te  Te113  1  0.16654407  0.49951127  0.83836902  1
  Te  Te114  1  0.16498903  0.82926284  0.16515738  1
  Te  Te115  1  0.16533061  0.83925040  0.50163434  1
  Te  Te116  1  0.16832880  0.83455755  0.83790273  1
  Te  Te117  1  0.50370832  0.16748732  0.16169630  1
  Te  Te118  1  0.50268902  0.16751576  0.50412463  1
  Te  Te119  1  0.50012912  0.16826004  0.83591592  1
  Te  Te120  1  0.50045344  0.50032177  0.17637208  1
  Te  Te121  1  0.50028871  0.50445011  0.50200774  1
  Te  Te122  1  0.50341650  0.50181089  0.83172849  1
  Te  Te123  1  0.50522402  0.83314422  0.15847289  1
  Te  Te124  1  0.49934548  0.82523619  0.49958035  1
  Te  Te125  1  0.50319846  0.82964471  0.83801530  1
  Te  Te126  1  0.83500925  0.16539324  0.16807100  1
  Te  Te127  1  0.83619066  0.16560455  0.49990100  1
  Te  Te128  1  0.83297701  0.16723823  0.82635392  1
  Te  Te129  1  0.83199621  0.50345263  0.17219445  1
  Te  Te130  1  0.83326811  0.50410329  0.49494410  1
  Te  Te131  1  0.82700330  0.50585476  0.83218022  1
  Te  Te132  1  0.83345549  0.82718558  0.16613414  1
  Te  Te133  1  0.83404911  0.82803964  0.50032890  1
  Te  Te134  1  0.82692613  0.82696662  0.83310333  1
  Te  Te135  1  0.16678800  -0.00291843  -0.00057284  1
  Te  Te136  1  0.16644754  0.00336434  0.33223529  1
  Te  Te137  1  0.16766107  0.00105094  0.66609931  1
  Te  Te138  1  0.16684080  0.32707995  0.00004179  1
  Te  Te139  1  0.17009818  0.33013912  0.33641047  1
  Te  Te140  1  0.16770888  0.33281325  0.66134181  1
  Te  Te141  1  0.16976049  0.67265685  -0.00090182  1
  Te  Te142  1  0.16620806  0.66493842  0.33372705  1
  Te  Te143  1  0.16840415  0.66804338  0.66913646  1
  Te  Te144  1  0.49759632  0.00058104  -0.00101822  1
  Te  Te145  1  0.49532997  0.00026368  0.33529752  1
  Te  Te146  1  0.49747385  0.00612583  0.66619596  1
  Te  Te147  1  0.50106778  0.33385926  -0.00282655  1
  Te  Te148  1  0.49672694  0.33818490  0.33483011  1
  Te  Te149  1  0.49945143  0.32820191  0.67114705  1
  Te  Te150  1  0.50313117  0.66835201  -0.00535763  1
  Te  Te151  1  0.50302328  0.66291398  0.33262467  1
  Te  Te152  1  0.50074960  0.66918840  0.66962022  1
  Te  Te153  1  0.83797589  0.00998151  -0.00232427  1
  Te  Te154  1  0.83440625  0.00365342  0.33672649  1
  Te  Te155  1  0.83258876  0.00359100  0.66126108  1
  Te  Te156  1  0.83295281  0.33234283  0.00179588  1
  Te  Te157  1  0.83347053  0.33170672  0.33070579  1
  Te  Te158  1  0.83304940  0.32945604  0.66431019  1
  Te  Te159  1  0.83388335  0.66431612  0.00071983  1
  Te  Te160  1  0.83143403  0.66842666  0.33166272  1
  Te  Te161  1  0.82967476  0.66606640  0.66339417  1
  Te  Te162  1  -0.00156678  0.16638752  0.00289862  1
  Te  Te163  1  -0.00225227  0.16485552  0.33173662  1
  Te  Te164  1  -0.00018801  0.16096299  0.66866055  1
  Te  Te165  1  0.00493093  0.50065845  -0.00024903  1
  Te  Te166  1  -0.00627499  0.50039856  0.33308063  1
  Te  Te167  1  0.00072163  0.49978142  0.66785274  1
  Te  Te168  1  -0.00065717  0.83345901  0.00166241  1
  Te  Te169  1  0.00023272  0.84333257  0.32637602  1
  Te  Te170  1  0.00498768  0.84094488  0.66816521  1
  Te  Te171  1  0.33626731  0.16649472  0.00114478  1
  Te  Te172  1  0.33560979  0.16539484  0.33170540  1
  Te  Te173  1  0.33389000  0.16183665  0.66721093  1
  Te  Te174  1  0.32964513  0.49056964  0.00053890  1
  Te  Te175  1  0.33358318  0.49735459  0.33162965  1
  Te  Te176  1  0.34078727  0.50179542  0.66734181  1
  Te  Te177  1  0.33345674  0.83359871  -0.00071739  1
  Te  Te178  1  0.33442624  0.83884682  0.32934333  1
  Te  Te179  1  0.33005415  0.83532177  0.66906122  1
  Te  Te180  1  0.66714329  0.16491557  0.00361554  1
  Te  Te181  1  0.66972737  0.16480824  0.32726884  1
  Te  Te182  1  0.66537715  0.16601369  0.66661656  1
  Te  Te183  1  0.66607687  0.50136153  -0.00376064  1
  Te  Te184  1  0.66842074  0.50104625  0.33252095  1
  Te  Te185  1  0.66119808  0.50426258  0.67309311  1
  Te  Te186  1  0.66949610  0.83237608  0.00280591  1
  Te  Te187  1  0.66555555  0.83482390  0.32798208  1
  Te  Te188  1  0.66594494  0.82771075  0.66711129  1
  Te  Te189  1  -0.00100025  -0.00040138  0.16316108  1
  Te  Te190  1  -0.00013814  0.00238069  0.49860925  1
  Te  Te191  1  0.00325091  -0.00597609  0.83659727  1
  Te  Te192  1  -0.00523252  0.33166841  0.16146725  1
  Te  Te193  1  -0.00191856  0.32645647  0.50131763  1
  Te  Te194  1  -0.00008118  0.33557103  0.84027545  1
  Te  Te195  1  -0.00200870  0.66913849  0.16233296  1
  Te  Te196  1  -0.00429622  0.66621102  0.49991450  1
  Te  Te197  1  0.00642036  0.67336686  0.83748757  1
  Te  Te198  1  0.33378649  -0.00546358  0.16427150  1
  Te  Te199  1  0.33072754  -0.00034636  0.49701225  1
  Te  Te200  1  0.32913740  -0.00510150  0.83483725  1
  Te  Te201  1  0.33245181  0.33313004  0.16593442  1
  Te  Te202  1  0.33252147  0.33286770  0.49545141  1
  Te  Te203  1  0.33833725  0.33363367  0.83742138  1
  Te  Te204  1  0.33203564  0.67313380  0.16742236  1
  Te  Te205  1  0.33315223  0.66709127  0.50608657  1
  Te  Te206  1  0.32858680  0.67123350  0.83045929  1
  Te  Te207  1  0.66712902  -0.00233945  0.17176896  1
  Te  Te208  1  0.66927273  -0.00214170  0.49332007  1
  Te  Te209  1  0.66770146  -0.00893419  0.83263595  1
  Te  Te210  1  0.67195479  0.33050889  0.16049716  1
  Te  Te211  1  0.67475162  0.33423820  0.49991056  1
  Te  Te212  1  0.66232578  0.33017317  0.83986744  1
  Te  Te213  1  0.66941299  0.66852124  0.16821189  1
  Te  Te214  1  0.66747366  0.66560893  0.48877892  1
  Te  Te215  1  0.66555288  0.67056829  0.83712074  1
