# generated using pymatgen
data_AgSbTe2
_symmetry_space_group_name_H-M   'P 1'
_cell_length_a   18.34786740
_cell_length_b   18.34225527
_cell_length_c   18.33107402
_cell_angle_alpha   90.00123591
_cell_angle_beta   90.00047596
_cell_angle_gamma   89.99974174
_symmetry_Int_Tables_number   1
_chemical_formula_structural   AgSbTe2
_chemical_formula_sum   'Ag54 Sb54 Te108'
_cell_volume   6169.16288065
_cell_formula_units_Z   54
loop_
 _symmetry_equiv_pos_site_id
 _symmetry_equiv_pos_as_xyz
  1  'x, y, z'
loop_
 _atom_site_type_symbol
 _atom_site_label
 _atom_site_symmetry_multiplicity
 _atom_site_fract_x
 _atom_site_fract_y
 _atom_site_fract_z
 _atom_site_occupancy
  Ag  Ag0  1  0.82610448  0.00229675  0.83976746  1
  Ag  Ag1  1  0.01010026  0.33647494  0.33183222  1
  Ag  Ag2  1  0.49720390  -0.00041414  0.83727223  1
  Ag  Ag3  1  0.33220397  0.33545963  0.33542743  1
  Ag  Ag4  1  0.65647172  0.83211399  0.49850608  1
  Ag  Ag5  1  0.49466232  0.50782712  0.66454441  1
  Ag  Ag6  1  0.01364010  0.83106076  0.49779376  1
  Ag  Ag7  1  0.83095016  0.67505958  0.16530181  1
  Ag  Ag8  1  0.83997361  0.50240285  0.00387114  1
  Ag  Ag9  1  0.65705494  0.33518662  0.66873963  1
  Ag  Ag10  1  0.32870235  0.66670302  -0.00129510  1
  Ag  Ag11  1  0.49484339  0.83318224  0.32618220  1
  Ag  Ag12  1  0.33714378  0.83698763  0.17374389  1
  Ag  Ag13  1  0.33561861  0.16381173  0.83453256  1
  Ag  Ag14  1  0.65632142  0.67026229  0.67042048  1
  Ag  Ag15  1  0.83092244  0.16553454  0.67565560  1
  Ag  Ag16  1  0.33229632  0.49914806  0.82439907  1
  Ag  Ag17  1  0.66385705  0.50629632  0.16661019  1
  Ag  Ag18  1  0.17349011  -0.00457985  0.84204082  1
  Ag  Ag19  1  -0.01041569  0.16322083  0.83811890  1
  Ag  Ag20  1  0.49641512  0.15997552  0.32555977  1
  Ag  Ag21  1  0.82867062  0.83595522  0.32932798  1
  Ag  Ag22  1  0.49542367  -0.00253445  0.16410044  1
  Ag  Ag23  1  0.33617932  0.33942080  0.66305618  1
  Ag  Ag24  1  0.17430973  0.67524533  0.16161767  1
  Ag  Ag25  1  0.49724705  0.67441914  0.16716674  1
  Ag  Ag26  1  0.65630902  0.83642242  0.16719144  1
  Ag  Ag27  1  0.00038863  0.16405427  0.16434613  1
  Ag  Ag28  1  0.17148780  0.67624534  0.84000759  1
  Ag  Ag29  1  0.33336493  -0.00912393  0.66857299  1
  Ag  Ag30  1  0.16641967  0.50928262  0.01244359  1
  Ag  Ag31  1  0.66740508  0.15847627  0.83633832  1
  Ag  Ag32  1  0.17506715  -0.00796230  0.16194119  1
  Ag  Ag33  1  0.33322179  0.83001039  0.49466068  1
  Ag  Ag34  1  0.33398237  -0.00699383  0.32205980  1
  Ag  Ag35  1  0.17215318  0.50218261  0.32994358  1
  Ag  Ag36  1  0.17026550  0.34047130  0.49669002  1
  Ag  Ag37  1  0.16841533  0.83059574  0.00611223  1
  Ag  Ag38  1  0.65824561  0.15572220  0.16224714  1
  Ag  Ag39  1  0.33043480  0.50300593  0.50129043  1
  Ag  Ag40  1  0.49699344  0.83020011  0.66297691  1
  Ag  Ag41  1  0.17518067  0.83030866  0.32819521  1
  Ag  Ag42  1  0.83198500  0.31957751  0.83226450  1
  Ag  Ag43  1  0.82752792  -0.00389605  0.16175929  1
  Ag  Ag44  1  0.33603206  0.67235951  0.67217423  1
  Ag  Ag45  1  0.00447107  0.49723115  0.17040281  1
  Ag  Ag46  1  0.49029696  0.50079192  0.33045063  1
  Ag  Ag47  1  0.49877046  0.33001445  0.17176271  1
  Ag  Ag48  1  0.66433814  0.84136727  0.83576181  1
  Ag  Ag49  1  0.67073055  -0.00219443  0.00115108  1
  Ag  Ag50  1  -0.00211225  0.00043931  0.00207837  1
  Ag  Ag51  1  0.01156885  0.50184872  0.49105741  1
  Ag  Ag52  1  0.17957563  0.83272598  0.66692793  1
  Ag  Ag53  1  0.34056630  0.15864427  0.16884276  1
  Sb  Sb54  1  0.16714567  0.16186151  0.66931367  1
  Sb  Sb55  1  0.00018958  0.33030878  0.00475741  1
  Sb  Sb56  1  0.83532702  0.67131758  0.83870180  1
  Sb  Sb57  1  0.33334102  0.50337420  0.17006155  1
  Sb  Sb58  1  0.49820584  -0.00407307  0.49760804  1
  Sb  Sb59  1  0.17084228  0.33319191  0.17064658  1
  Sb  Sb60  1  0.66788799  0.32975628  -0.00166266  1
  Sb  Sb61  1  0.00433573  0.33351305  0.66313035  1
  Sb  Sb62  1  0.17060221  0.66692625  0.49732581  1
  Sb  Sb63  1  0.66521971  0.16170098  0.50128925  1
  Sb  Sb64  1  0.50109084  0.32867604  0.83544896  1
  Sb  Sb65  1  0.17285547  0.16669092  0.33006988  1
  Sb  Sb66  1  0.83714748  0.33514475  0.50397223  1
  Sb  Sb67  1  0.66081512  -0.00231908  0.67490170  1
  Sb  Sb68  1  0.66293818  0.50443608  0.49770997  1
  Sb  Sb69  1  0.49474043  0.33550661  0.49710556  1
  Sb  Sb70  1  0.00081526  0.16602732  0.49754495  1
  Sb  Sb71  1  0.83320702  0.16553051  -0.00309084  1
  Sb  Sb72  1  0.00391685  0.83471071  0.17118929  1
  Sb  Sb73  1  0.33193394  0.33723356  0.00255580  1
  Sb  Sb74  1  0.49372538  0.83512134  0.00268234  1
  Sb  Sb75  1  0.83365826  -0.00346484  0.49892671  1
  Sb  Sb76  1  0.33364488  0.16571028  0.49865905  1
  Sb  Sb77  1  0.66450433  0.66993859  0.33167395  1
  Sb  Sb78  1  0.83342780  0.66887135  0.49530815  1
  Sb  Sb79  1  0.83574729  0.50339560  0.32549546  1
  Sb  Sb80  1  0.00252460  0.83982810  0.83041076  1
  Sb  Sb81  1  0.82777002  0.49706439  0.67157084  1
  Sb  Sb82  1  0.16709675  0.33111219  0.82991612  1
  Sb  Sb83  1  0.00670086  0.67058762  0.00328394  1
  Sb  Sb84  1  0.82995353  0.33038960  0.16296072  1
  Sb  Sb85  1  0.83664591  0.83332369  0.00549194  1
  Sb  Sb86  1  0.00376352  -0.00029892  0.67272680  1
  Sb  Sb87  1  0.82831577  0.83702381  0.66413718  1
  Sb  Sb88  1  0.49651566  0.50233436  0.00312041  1
  Sb  Sb89  1  0.66176991  0.50067436  0.83672923  1
  Sb  Sb90  1  0.33382083  0.66828125  0.33183754  1
  Sb  Sb91  1  0.65863306  -0.00340187  0.32352626  1
  Sb  Sb92  1  0.33151576  -0.00526109  0.00089681  1
  Sb  Sb93  1  0.83029822  0.16184668  0.33026657  1
  Sb  Sb94  1  0.50032744  0.16468309  0.66577642  1
  Sb  Sb95  1  0.00648385  0.00108166  0.32495917  1
  Sb  Sb96  1  0.33469840  0.83537094  0.83173651  1
  Sb  Sb97  1  0.49911789  0.16334489  0.00560632  1
  Sb  Sb98  1  0.49698493  0.66857997  0.49779254  1
  Sb  Sb99  1  0.16990197  -0.00225944  0.49797866  1
  Sb  Sb100  1  0.49467164  0.67176293  0.83383803  1
  Sb  Sb101  1  0.17524819  0.50584194  0.66377799  1
  Sb  Sb102  1  0.00431018  0.66721342  0.66684376  1
  Sb  Sb103  1  0.66264999  0.67158523  0.00048863  1
  Sb  Sb104  1  0.00620230  0.49476117  0.83581057  1
  Sb  Sb105  1  0.00263408  0.66518946  0.32991643  1
  Sb  Sb106  1  0.66243450  0.33380863  0.33439703  1
  Sb  Sb107  1  0.16702863  0.16388053  0.00107449  1
  Te  Te108  1  0.16442404  0.16348524  0.16555861  1
  Te  Te109  1  0.16517252  0.17372476  0.50062712  1
  Te  Te110  1  0.17274020  0.16200321  0.83386847  1
  Te  Te111  1  0.16654844  0.49888433  0.17036041  1
  Te  Te112  1  0.16919586  0.50091356  0.49685102  1
  Te  Te113  1  0.17129455  0.49961157  0.83168495  1
  Te  Te114  1  0.16429195  0.83287808  0.16827772  1
  Te  Te115  1  0.17175546  0.83284498  0.49894355  1
  Te  Te116  1  0.16571463  0.83567613  0.83055500  1
  Te  Te117  1  0.49989882  0.16077078  0.16798441  1
  Te  Te118  1  0.50167986  0.16674733  0.48737111  1
  Te  Te119  1  0.50122193  0.16198799  0.83240094  1
  Te  Te120  1  0.50002851  0.50317928  0.16836108  1
  Te  Te121  1  0.49596595  0.50169541  0.49848105  1
  Te  Te122  1  0.49351016  0.49847949  0.83009368  1
  Te  Te123  1  0.49794657  0.83532008  0.16588379  1
  Te  Te124  1  0.49705780  0.83227411  0.50177619  1
  Te  Te125  1  0.50434279  0.83777311  0.83135506  1
  Te  Te126  1  0.83379103  0.16208336  0.16630006  1
  Te  Te127  1  0.83281563  0.16585719  0.50658949  1
  Te  Te128  1  0.83031769  0.16266441  0.83459476  1
  Te  Te129  1  0.83091232  0.49727950  0.16362636  1
  Te  Te130  1  0.83601919  0.50161267  0.49892742  1
  Te  Te131  1  0.83487656  0.50274430  0.83987593  1
  Te  Te132  1  0.83797258  0.83473768  0.16907057  1
  Te  Te133  1  0.83002767  0.83299544  0.49234224  1
  Te  Te134  1  0.83051330  0.83862883  0.83357838  1
  Te  Te135  1  0.16581853  -0.00205514  0.00139886  1
  Te  Te136  1  0.17396540  -0.00288942  0.32964860  1
  Te  Te137  1  0.17144580  -0.00567714  0.66799391  1
  Te  Te138  1  0.16612623  0.34573804  -0.00109879  1
  Te  Te139  1  0.17052761  0.33467245  0.33523392  1
  Te  Te140  1  0.17266144  0.33314410  0.66135536  1
  Te  Te141  1  0.16838206  0.66813671  0.00119211  1
  Te  Te142  1  0.16728844  0.66641035  0.32665465  1
  Te  Te143  1  0.17069364  0.67241743  0.67136776  1
  Te  Te144  1  0.50606358  -0.00115161  -0.00123499  1
  Te  Te145  1  0.49345426  -0.00458458  0.33119710  1
  Te  Te146  1  0.49456795  -0.00292891  0.66887188  1
  Te  Te147  1  0.49994164  0.33459268  0.01004285  1
  Te  Te148  1  0.49720197  0.34048365  0.33100314  1
  Te  Te149  1  0.49779427  0.33246834  0.66693922  1
  Te  Te150  1  0.49260335  0.66749804  0.00533107  1
  Te  Te151  1  0.50031204  0.66686789  0.32706958  1
  Te  Te152  1  0.49766198  0.66733084  0.66884116  1
  Te  Te153  1  0.83414588  -0.00123046  0.00023098  1
  Te  Te154  1  0.83524448  -0.00414409  0.32924283  1
  Te  Te155  1  0.83402442  0.00418438  0.67043451  1
  Te  Te156  1  0.83357644  0.34167324  -0.00643750  1
  Te  Te157  1  0.83441993  0.33159663  0.33455931  1
  Te  Te158  1  0.83360607  0.33051081  0.67169797  1
  Te  Te159  1  0.83278644  0.66345404  0.00567344  1
  Te  Te160  1  0.83271765  0.67338253  0.32577688  1
  Te  Te161  1  0.83115788  0.66685399  0.66836113  1
  Te  Te162  1  0.00092284  0.16322170  0.00127268  1
  Te  Te163  1  -0.00106329  0.17176605  0.32952294  1
  Te  Te164  1  -0.00441200  0.16673923  0.67003348  1
  Te  Te165  1  0.00317358  0.49955078  0.00375833  1
  Te  Te166  1  0.00053161  0.49766204  0.33207089  1
  Te  Te167  1  -0.00180117  0.50014506  0.66121584  1
  Te  Te168  1  0.00659038  0.83937814  -0.00168062  1
  Te  Te169  1  0.00385299  0.83410733  0.33856354  1
  Te  Te170  1  -0.00133063  0.83238620  0.65894533  1
  Te  Te171  1  0.33209245  0.16950387  -0.00163648  1
  Te  Te172  1  0.33670323  0.16779194  0.33116217  1
  Te  Te173  1  0.33421028  0.16733735  0.66843671  1
  Te  Te174  1  0.32917971  0.50429517  -0.00215885  1
  Te  Te175  1  0.33195633  0.50068859  0.33570559  1
  Te  Te176  1  0.33580154  0.49801609  0.66396127  1
  Te  Te177  1  0.32725179  0.82840976  0.00705390  1
  Te  Te178  1  0.33447054  0.83248384  0.33412006  1
  Te  Te179  1  0.33615871  0.83311448  0.66992776  1
  Te  Te180  1  0.66668993  0.16271230  0.00021242  1
  Te  Te181  1  0.66152338  0.16599864  0.32903746  1
  Te  Te182  1  0.66734105  0.16916458  0.66909133  1
  Te  Te183  1  0.66598720  0.50131830  0.00564169  1
  Te  Te184  1  0.66468986  0.50112857  0.32857516  1
  Te  Te185  1  0.66059482  0.49978308  0.66692710  1
  Te  Te186  1  0.66882037  0.83697316  0.00184325  1
  Te  Te187  1  0.66371564  0.83337987  0.33065745  1
  Te  Te188  1  0.66421106  0.83178765  0.66773266  1
  Te  Te189  1  -0.00002090  0.00263206  0.16347429  1
  Te  Te190  1  0.00121630  -0.00523863  0.49881438  1
  Te  Te191  1  0.00231272  0.00414727  0.83754739  1
  Te  Te192  1  -0.00120783  0.33272303  0.17081801  1
  Te  Te193  1  0.00447381  0.33592971  0.49482324  1
  Te  Te194  1  -0.00377365  0.32584080  0.83224715  1
  Te  Te195  1  -0.00386851  0.65816283  0.16550506  1
  Te  Te196  1  0.00063804  0.66605954  0.49956038  1
  Te  Te197  1  0.00719008  0.66569109  0.83380193  1
  Te  Te198  1  0.33413811  -0.00080256  0.16367709  1
  Te  Te199  1  0.33270206  -0.00374318  0.50687404  1
  Te  Te200  1  0.33407541  0.00173368  0.83541448  1
  Te  Te201  1  0.33741784  0.32878605  0.17033377  1
  Te  Te202  1  0.33081923  0.33344108  0.49792350  1
  Te  Te203  1  0.33442874  0.33114864  0.83138181  1
  Te  Te204  1  0.33275361  0.66876765  0.16520432  1
  Te  Te205  1  0.33273597  0.66715336  0.50982639  1
  Te  Te206  1  0.33136844  0.66611215  0.83316319  1
  Te  Te207  1  0.66747362  -0.00299639  0.16413916  1
  Te  Te208  1  0.66688763  -0.00785172  0.50164481  1
  Te  Te209  1  0.66622798  0.00043165  0.83529581  1
  Te  Te210  1  0.66188832  0.33189314  0.16665478  1
  Te  Te211  1  0.66796130  0.33425472  0.50754310  1
  Te  Te212  1  0.66904119  0.33229280  0.83012332  1
  Te  Te213  1  0.66643179  0.66934668  0.16534594  1
  Te  Te214  1  0.66667578  0.67226942  0.50880744  1
  Te  Te215  1  0.66616491  0.66960407  0.83123488  1
