# generated using pymatgen
data_AgSbTe2
_symmetry_space_group_name_H-M   'P 1'
_cell_length_a   18.32571606
_cell_length_b   18.32506353
_cell_length_c   18.32636838
_cell_angle_alpha   90.00206932
_cell_angle_beta   90.00088411
_cell_angle_gamma   89.99980825
_symmetry_Int_Tables_number   1
_chemical_formula_structural   AgSbTe2
_chemical_formula_sum   'Ag54 Sb54 Te108'
_cell_volume   6154.35939446
_cell_formula_units_Z   54
loop_
 _symmetry_equiv_pos_site_id
 _symmetry_equiv_pos_as_xyz
  1  'x, y, z'
loop_
 _atom_site_type_symbol
 _atom_site_label
 _atom_site_symmetry_multiplicity
 _atom_site_fract_x
 _atom_site_fract_y
 _atom_site_fract_z
 _atom_site_occupancy
  Ag  Ag0  1  0.67366769  0.33795755  0.00028644  1
  Ag  Ag1  1  0.84045830  0.32219418  0.49909750  1
  Ag  Ag2  1  -0.00210143  0.00170843  0.00203412  1
  Ag  Ag3  1  0.33660328  0.84554838  0.49817474  1
  Ag  Ag4  1  0.32772301  0.32330881  0.65794714  1
  Ag  Ag5  1  0.33581730  0.49209043  0.49723943  1
  Ag  Ag6  1  0.83113735  0.83549881  0.00244803  1
  Ag  Ag7  1  0.32978945  0.32736753  0.33889526  1
  Ag  Ag8  1  0.16987488  0.32678493  0.50331665  1
  Ag  Ag9  1  0.84371758  0.32422291  0.83608172  1
  Ag  Ag10  1  0.66744204  0.83633575  0.16588008  1
  Ag  Ag11  1  -0.00268570  0.67189918  0.00449209  1
  Ag  Ag12  1  0.50083533  0.83333006  -0.00003969  1
  Ag  Ag13  1  0.66408416  0.49663621  0.49912494  1
  Ag  Ag14  1  0.83448062  0.32467797  0.16444412  1
  Ag  Ag15  1  0.83228300  0.66920021  0.49851355  1
  Ag  Ag16  1  0.48769202  -0.00332213  0.83195094  1
  Ag  Ag17  1  0.66473898  -0.00010584  0.33889353  1
  Ag  Ag18  1  0.17399152  0.00783428  0.83436261  1
  Ag  Ag19  1  0.00045639  0.83697996  0.16404084  1
  Ag  Ag20  1  0.83596575  0.00705584  0.83515006  1
  Ag  Ag21  1  0.32718856  0.16181326  0.82832371  1
  Ag  Ag22  1  0.00323332  0.66369078  0.32759287  1
  Ag  Ag23  1  0.67075320  0.66721606  0.00012605  1
  Ag  Ag24  1  0.17750170  0.00826104  0.49916102  1
  Ag  Ag25  1  0.32994334  0.33284543  0.00057904  1
  Ag  Ag26  1  0.66545347  0.84648675  0.49332787  1
  Ag  Ag27  1  0.66571055  0.49708865  0.83642255  1
  Ag  Ag28  1  0.16826352  -0.00376780  0.16631950  1
  Ag  Ag29  1  0.33558323  0.84504130  0.83520088  1
  Ag  Ag30  1  0.33196050  0.16336189  0.17449200  1
  Ag  Ag31  1  0.33186318  0.16274684  0.49987681  1
  Ag  Ag32  1  -0.00111899  0.32946288  -0.00154182  1
  Ag  Ag33  1  0.00274087  0.32744362  0.66409063  1
  Ag  Ag34  1  0.33540869  0.00303643  0.34295112  1
  Ag  Ag35  1  0.83594401  0.16687405  0.65515680  1
  Ag  Ag36  1  0.83853193  0.00189098  0.16728707  1
  Ag  Ag37  1  0.33337703  0.67229694  0.65749065  1
  Ag  Ag38  1  0.33149753  0.83990866  0.16806929  1
  Ag  Ag39  1  0.49644636  0.67266062  0.83675897  1
  Ag  Ag40  1  0.67975263  0.16357153  0.49789290  1
  Ag  Ag41  1  0.33084780  0.67047637  0.33785946  1
  Ag  Ag42  1  0.49610025  0.33230128  0.16586024  1
  Ag  Ag43  1  0.49061130  -0.00002126  0.50102670  1
  Ag  Ag44  1  0.16567519  0.67494212  0.16600039  1
  Ag  Ag45  1  0.83383200  0.16656006  0.34116529  1
  Ag  Ag46  1  0.33171032  0.00360901  0.65503406  1
  Ag  Ag47  1  0.49697152  0.49786894  0.33550730  1
  Ag  Ag48  1  -0.00088369  0.33224885  0.33640175  1
  Ag  Ag49  1  0.00183231  0.16854774  0.83020364  1
  Ag  Ag50  1  0.16649382  0.49612766  0.00022561  1
  Ag  Ag51  1  -0.00840776  0.16896910  0.50269532  1
  Ag  Ag52  1  0.83119403  0.00844304  0.49678419  1
  Ag  Ag53  1  0.16357518  0.32688724  0.83335122  1
  Sb  Sb54  1  0.00082548  0.84035249  0.49322154  1
  Sb  Sb55  1  0.83146041  0.66736620  0.83219805  1
  Sb  Sb56  1  0.17160060  0.49840727  0.33093365  1
  Sb  Sb57  1  0.83322626  0.84195389  0.66835468  1
  Sb  Sb58  1  0.49827993  0.49996952  0.66215572  1
  Sb  Sb59  1  0.66735936  0.33210271  0.66775921  1
  Sb  Sb60  1  0.00187428  0.00363799  0.33070088  1
  Sb  Sb61  1  0.49665663  0.83280142  0.33060347  1
  Sb  Sb62  1  0.16466961  0.16797895  0.66579495  1
  Sb  Sb63  1  0.66644304  0.67035546  0.33178070  1
  Sb  Sb64  1  0.66704311  0.50092428  0.16733621  1
  Sb  Sb65  1  0.49744945  0.00170787  0.16709233  1
  Sb  Sb66  1  0.00429110  0.84332737  0.84174812  1
  Sb  Sb67  1  0.17136165  0.66682424  0.83916477  1
  Sb  Sb68  1  0.00340393  0.66055166  0.66544278  1
  Sb  Sb69  1  0.66593964  0.16393520  0.17017330  1
  Sb  Sb70  1  0.83576747  0.49934408  -0.00010265  1
  Sb  Sb71  1  0.16562466  0.16757187  0.33593198  1
  Sb  Sb72  1  0.00157354  0.48987724  0.49827750  1
  Sb  Sb73  1  0.49611303  0.66606758  0.16456075  1
  Sb  Sb74  1  0.16681040  0.32971202  0.16529214  1
  Sb  Sb75  1  0.16894154  0.83463011  0.33083321  1
  Sb  Sb76  1  0.49778244  0.16210679  -0.00051994  1
  Sb  Sb77  1  0.00314500  0.16367404  0.16689675  1
  Sb  Sb78  1  0.83234546  0.84083579  0.32982594  1
  Sb  Sb79  1  0.49945923  0.67156746  0.50227936  1
  Sb  Sb80  1  0.49766894  0.50168524  0.00188108  1
  Sb  Sb81  1  0.66717647  0.32877315  0.33216398  1
  Sb  Sb82  1  0.00433927  0.00722444  0.66910656  1
  Sb  Sb83  1  0.16731940  0.16993195  -0.00270863  1
  Sb  Sb84  1  0.33704683  0.49605326  0.82928912  1
  Sb  Sb85  1  0.49898065  0.16598508  0.66478544  1
  Sb  Sb86  1  0.16727961  0.83260189  0.00286207  1
  Sb  Sb87  1  0.33208599  0.66531845  0.00260027  1
  Sb  Sb88  1  0.83252418  0.49239070  0.66502088  1
  Sb  Sb89  1  0.66275269  0.00075002  0.65949646  1
  Sb  Sb90  1  0.49675081  0.83462153  0.67047021  1
  Sb  Sb91  1  0.32699044  0.00306993  -0.00025016  1
  Sb  Sb92  1  0.33258941  0.49764112  0.17198903  1
  Sb  Sb93  1  0.49632716  0.32908202  0.49570146  1
  Sb  Sb94  1  0.83464940  0.16537463  0.00034611  1
  Sb  Sb95  1  0.83015774  0.49436628  0.33636526  1
  Sb  Sb96  1  0.66874026  0.16824415  0.83034667  1
  Sb  Sb97  1  0.49897233  0.16820687  0.33504353  1
  Sb  Sb98  1  0.49651039  0.33054090  0.83890514  1
  Sb  Sb99  1  -0.00298890  0.49040297  0.83598469  1
  Sb  Sb100  1  0.66235805  0.83306019  0.83668726  1
  Sb  Sb101  1  0.67212285  -0.00141227  0.00292741  1
  Sb  Sb102  1  0.17022072  0.49495373  0.66932769  1
  Sb  Sb103  1  0.17024590  0.83544415  0.66763464  1
  Sb  Sb104  1  0.83769606  0.67164131  0.16959851  1
  Sb  Sb105  1  0.00112801  0.50148380  0.16593040  1
  Sb  Sb106  1  0.66321797  0.66725382  0.66865250  1
  Sb  Sb107  1  0.16812649  0.66678928  0.49446697  1
  Te  Te108  1  0.17246370  0.15847878  0.16661164  1
  Te  Te109  1  0.17228962  0.16736831  0.50042661  1
  Te  Te110  1  0.16647650  0.16743814  0.83193675  1
  Te  Te111  1  0.16723549  0.50629131  0.16134820  1
  Te  Te112  1  0.17197474  0.49526053  0.49962507  1
  Te  Te113  1  0.16723134  0.49480008  0.83888906  1
  Te  Te114  1  0.16880083  0.83556821  0.16618865  1
  Te  Te115  1  0.17069177  0.83903037  0.50003410  1
  Te  Te116  1  0.17363101  0.83888384  0.83480188  1
  Te  Te117  1  0.49415913  0.17169284  0.16679475  1
  Te  Te118  1  0.49251603  0.16001865  0.50045955  1
  Te  Te119  1  0.49761860  0.15892740  0.83188674  1
  Te  Te120  1  0.50056544  0.49441804  0.17149698  1
  Te  Te121  1  0.50006502  0.50090329  0.49637740  1
  Te  Te122  1  0.50559443  0.50256906  0.83347359  1
  Te  Te123  1  0.50030430  0.83376803  0.16176214  1
  Te  Te124  1  0.49927703  0.83825409  0.49917391  1
  Te  Te125  1  0.49754460  0.83523473  0.83729974  1
  Te  Te126  1  0.83384524  0.16410158  0.17002572  1
  Te  Te127  1  0.83558131  0.16676936  0.49855144  1
  Te  Te128  1  0.83381898  0.16685026  0.83474707  1
  Te  Te129  1  0.83274947  0.48861136  0.16809282  1
  Te  Te130  1  0.83051012  0.50386070  0.50041465  1
  Te  Te131  1  0.82525202  0.49695018  0.83213632  1
  Te  Te132  1  0.83231489  0.83627609  0.16361935  1
  Te  Te133  1  0.83251957  0.83303606  0.49967464  1
  Te  Te134  1  0.83380694  0.83711828  0.83803754  1
  Te  Te135  1  0.15888249  -0.00076212  -0.00048187  1
  Te  Te136  1  0.17102539  0.00069214  0.33370841  1
  Te  Te137  1  0.17195528  0.00043635  0.66727232  1
  Te  Te138  1  0.16483770  0.33544690  0.00009307  1
  Te  Te139  1  0.16611349  0.33429124  0.33577525  1
  Te  Te140  1  0.16742010  0.33301892  0.66626386  1
  Te  Te141  1  0.16141034  0.66270280  0.00393791  1
  Te  Te142  1  0.16634622  0.66489146  0.32758327  1
  Te  Te143  1  0.17292614  0.66477993  0.66769823  1
  Te  Te144  1  0.50369301  -0.00589697  -0.00347176  1
  Te  Te145  1  0.49819070  -0.00003681  0.33577619  1
  Te  Te146  1  0.49326112  0.00012425  0.66857158  1
  Te  Te147  1  0.49721989  0.33375937  0.00522066  1
  Te  Te148  1  0.49687824  0.33533498  0.32835526  1
  Te  Te149  1  0.49000490  0.33288893  0.66909833  1
  Te  Te150  1  0.50324866  0.66915379  -0.00281240  1
  Te  Te151  1  0.49512594  0.66162017  0.33300813  1
  Te  Te152  1  0.49270890  0.66664212  0.67406930  1
  Te  Te153  1  0.83614515  -0.00263101  0.00234728  1
  Te  Te154  1  0.83493166  0.00368214  0.33233947  1
  Te  Te155  1  0.83457489  0.00566050  0.66844956  1
  Te  Te156  1  0.83547699  0.33398799  -0.00170939  1
  Te  Te157  1  0.83423968  0.32948600  0.33636336  1
  Te  Te158  1  0.83441594  0.32801405  0.66615379  1
  Te  Te159  1  0.83448019  0.66987254  0.00021886  1
  Te  Te160  1  0.83544330  0.66593656  0.33721825  1
  Te  Te161  1  0.83512764  0.66758981  0.66107130  1
  Te  Te162  1  0.00015798  0.16694816  -0.00346469  1
  Te  Te163  1  -0.00426522  0.17102472  0.33595244  1
  Te  Te164  1  -0.00478973  0.17042026  0.66746796  1
  Te  Te165  1  0.00393440  0.49925329  -0.00043402  1
  Te  Te166  1  -0.00027478  0.50065644  0.33313101  1
  Te  Te167  1  0.00099579  0.48969727  0.66726323  1
  Te  Te168  1  -0.00207439  0.83331017  0.00433842  1
  Te  Te169  1  -0.00063903  0.82521694  0.32576739  1
  Te  Te170  1  0.00086327  0.83012831  0.66686205  1
  Te  Te171  1  0.33385794  0.17345250  -0.00302054  1
  Te  Te172  1  0.33353421  0.16605822  0.33350346  1
  Te  Te173  1  0.33443140  0.16504892  0.66782751  1
  Te  Te174  1  0.32980239  0.49477552  -0.00039895  1
  Te  Te175  1  0.33599384  0.49841489  0.33695779  1
  Te  Te176  1  0.33401568  0.50126245  0.65973299  1
  Te  Te177  1  0.33657781  0.83167144  0.00089398  1
  Te  Te178  1  0.33423132  0.83457057  0.33192315  1
  Te  Te179  1  0.33349022  0.83525575  0.66587495  1
  Te  Te180  1  0.66516666  0.17667012  0.00046080  1
  Te  Te181  1  0.66969231  0.16117610  0.33737887  1
  Te  Te182  1  0.67307669  0.16744966  0.65927931  1
  Te  Te183  1  0.66611286  0.50019133  -0.00050824  1
  Te  Te184  1  0.66040023  0.50097343  0.33754036  1
  Te  Te185  1  0.66534049  0.50056765  0.66212181  1
  Te  Te186  1  0.66821795  0.83150412  0.00165442  1
  Te  Te187  1  0.66517000  0.83788231  0.33302582  1
  Te  Te188  1  0.66673380  0.83221555  0.65518360  1
  Te  Te189  1  -0.00061646  -0.00221854  0.16496549  1
  Te  Te190  1  -0.00454741  0.00553785  0.50011732  1
  Te  Te191  1  -0.00255332  0.00632274  0.83551534  1
  Te  Te192  1  -0.00212413  0.33155923  0.16668901  1
  Te  Te193  1  0.00019873  0.32998491  0.49796603  1
  Te  Te194  1  0.00158603  0.32961216  0.83601454  1
  Te  Te195  1  0.00168065  0.66962027  0.16584992  1
  Te  Te196  1  -0.00107194  0.66771905  0.49918290  1
  Te  Te197  1  0.00125881  0.66731539  0.83597914  1
  Te  Te198  1  0.33206861  0.00069474  0.16446516  1
  Te  Te199  1  0.33335895  0.00104108  0.49964808  1
  Te  Te200  1  0.33129013  0.00144131  0.84028873  1
  Te  Te201  1  0.33144551  0.33060168  0.16813949  1
  Te  Te202  1  0.33456587  0.33250511  0.49870483  1
  Te  Te203  1  0.33101257  0.33138354  0.83562187  1
  Te  Te204  1  0.33004363  0.67041195  0.17111852  1
  Te  Te205  1  0.33271888  0.66642551  0.49770792  1
  Te  Te206  1  0.33599097  0.66662159  0.83314330  1
  Te  Te207  1  0.66778128  -0.00317743  0.17106016  1
  Te  Te208  1  0.67244818  0.00261092  0.49907874  1
  Te  Te209  1  0.67257188  -0.00004133  0.83175303  1
  Te  Te210  1  0.67033675  0.33226698  0.16311513  1
  Te  Te211  1  0.66566769  0.33279415  0.50035935  1
  Te  Te212  1  0.66560500  0.33541183  0.83592110  1
  Te  Te213  1  0.66751870  0.67194895  0.16216216  1
  Te  Te214  1  0.66756685  0.66283352  0.50008918  1
  Te  Te215  1  0.66352669  0.66465556  0.83663700  1
