# generated using pymatgen
data_AgSbTe2
_symmetry_space_group_name_H-M   'P 1'
_cell_length_a   18.32319338
_cell_length_b   18.32608454
_cell_length_c   18.32450916
_cell_angle_alpha   89.99935699
_cell_angle_beta   89.99812472
_cell_angle_gamma   89.99972230
_symmetry_Int_Tables_number   1
_chemical_formula_structural   AgSbTe2
_chemical_formula_sum   'Ag54 Sb54 Te108'
_cell_volume   6153.23073686
_cell_formula_units_Z   54
loop_
 _symmetry_equiv_pos_site_id
 _symmetry_equiv_pos_as_xyz
  1  'x, y, z'
loop_
 _atom_site_type_symbol
 _atom_site_label
 _atom_site_symmetry_multiplicity
 _atom_site_fract_x
 _atom_site_fract_y
 _atom_site_fract_z
 _atom_site_occupancy
  Ag  Ag0  1  0.82620965  0.66112565  0.50871892  1
  Ag  Ag1  1  0.82916591  0.49537148  0.66393155  1
  Ag  Ag2  1  0.33605499  0.32657196  0.34137375  1
  Ag  Ag3  1  0.50532069  0.33524270  0.50588498  1
  Ag  Ag4  1  0.00993225  0.16348455  0.17214187  1
  Ag  Ag5  1  0.33291127  0.49279830  0.82532369  1
  Ag  Ag6  1  0.33864170  0.49585691  0.50469106  1
  Ag  Ag7  1  0.00193763  0.49582437  0.50158220  1
  Ag  Ag8  1  0.16173324  0.16546652  0.32750084  1
  Ag  Ag9  1  0.83082281  0.17288448  0.66191558  1
  Ag  Ag10  1  -0.00526066  0.32873407  0.66147827  1
  Ag  Ag11  1  0.00030532  0.83985093  0.16215873  1
  Ag  Ag12  1  0.16504269  0.00932646  0.17167980  1
  Ag  Ag13  1  0.67354723  0.83288169  0.16496409  1
  Ag  Ag14  1  0.50190130  0.17565204  0.66526444  1
  Ag  Ag15  1  0.50268773  0.83499787  0.33403109  1
  Ag  Ag16  1  0.83200146  0.83855451  0.33417991  1
  Ag  Ag17  1  0.16563204  0.67062940  0.15808039  1
  Ag  Ag18  1  0.16539363  0.67026169  0.83757855  1
  Ag  Ag19  1  0.50668141  0.65419497  0.50131282  1
  Ag  Ag20  1  0.83612667  0.83258932  -0.00757842  1
  Ag  Ag21  1  0.50260428  0.83333068  -0.00078987  1
  Ag  Ag22  1  0.49451103  0.00328981  0.50534358  1
  Ag  Ag23  1  0.83414328  0.83267717  0.67355318  1
  Ag  Ag24  1  0.67119458  0.66134138  0.66727083  1
  Ag  Ag25  1  0.00006326  0.32549693  0.33527217  1
  Ag  Ag26  1  0.33456682  0.00663346  0.66463691  1
  Ag  Ag27  1  0.16617689  0.16784009  0.01195589  1
  Ag  Ag28  1  0.49668189  0.32997879  0.82012474  1
  Ag  Ag29  1  0.66932248  0.33489590  -0.00057907  1
  Ag  Ag30  1  0.49590449  0.00189979  0.82424882  1
  Ag  Ag31  1  0.33097422  0.83641429  0.83304072  1
  Ag  Ag32  1  0.32715442  0.00751205  0.34104249  1
  Ag  Ag33  1  0.83650814  -0.00582353  0.82723546  1
  Ag  Ag34  1  0.16667019  0.49882506  -0.00042652  1
  Ag  Ag35  1  0.34417781  0.32879839  0.66288662  1
  Ag  Ag36  1  0.00188545  0.33167364  0.00114766  1
  Ag  Ag37  1  0.66835573  0.67075426  -0.00500158  1
  Ag  Ag38  1  0.49767807  0.49328303  0.34539184  1
  Ag  Ag39  1  0.84166462  0.16598575  0.34054262  1
  Ag  Ag40  1  0.66333492  0.33174847  0.34499507  1
  Ag  Ag41  1  -0.00417133  0.83506009  0.83775101  1
  Ag  Ag42  1  0.32294029  0.16682691  0.16931966  1
  Ag  Ag43  1  0.66670643  0.17141320  0.50190295  1
  Ag  Ag44  1  0.00553919  0.00637982  0.33712976  1
  Ag  Ag45  1  0.50204414  0.48801764  0.66245445  1
  Ag  Ag46  1  0.65921427  0.33432860  0.66215592  1
  Ag  Ag47  1  0.82575254  0.33436603  0.50466171  1
  Ag  Ag48  1  0.16145530  0.83322326  0.00002165  1
  Ag  Ag49  1  0.33391136  0.16592487  0.82970600  1
  Ag  Ag50  1  -0.00073665  0.00442724  0.66228722  1
  Ag  Ag51  1  0.16438765  0.32129934  0.16575396  1
  Ag  Ag52  1  0.17032115  0.00091669  0.49450575  1
  Ag  Ag53  1  0.83586484  0.67509934  0.82560945  1
  Sb  Sb54  1  0.66722514  0.00296282  0.66564801  1
  Sb  Sb55  1  0.33039303  0.49314262  0.16827765  1
  Sb  Sb56  1  0.16814748  -0.00350333  0.83403297  1
  Sb  Sb57  1  0.49314924  -0.00078693  0.16939114  1
  Sb  Sb58  1  0.66943901  0.83254633  0.83692599  1
  Sb  Sb59  1  0.84027742  -0.00199900  0.16638584  1
  Sb  Sb60  1  0.33159102  0.00015555  -0.00462963  1
  Sb  Sb61  1  0.83578657  0.67149234  0.16517152  1
  Sb  Sb62  1  0.49767573  0.16624280  0.34112473  1
  Sb  Sb63  1  0.66692268  0.83598160  0.49749159  1
  Sb  Sb64  1  -0.00005771  0.66684329  -0.00110035  1
  Sb  Sb65  1  0.66713116  0.00296279  0.33555207  1
  Sb  Sb66  1  0.33952406  0.66459476  0.66796422  1
  Sb  Sb67  1  0.83772960  0.16488287  -0.00220680  1
  Sb  Sb68  1  0.49706827  0.67017361  0.17016262  1
  Sb  Sb69  1  0.00308576  0.49639741  0.16999438  1
  Sb  Sb70  1  0.50459855  0.83512097  0.66753231  1
  Sb  Sb71  1  0.49668140  0.16502956  -0.00784396  1
  Sb  Sb72  1  0.00395231  0.50235107  0.82858315  1
  Sb  Sb73  1  0.00243895  -0.00032920  0.00101193  1
  Sb  Sb74  1  0.66714906  0.16501118  0.17163031  1
  Sb  Sb75  1  0.17115514  0.33488664  0.83717842  1
  Sb  Sb76  1  0.16733958  0.32799853  0.49599876  1
  Sb  Sb77  1  0.83809146  0.33112049  0.17344373  1
  Sb  Sb78  1  0.00425060  0.16341115  0.83508030  1
  Sb  Sb79  1  0.83446208  0.00265332  0.50404746  1
  Sb  Sb80  1  0.16699587  0.66821709  0.50238295  1
  Sb  Sb81  1  0.16450190  0.84210781  0.32583038  1
  Sb  Sb82  1  -0.00264183  0.83298798  0.50029749  1
  Sb  Sb83  1  -0.00110703  0.66855845  0.33326164  1
  Sb  Sb84  1  0.33308345  0.66799640  -0.00212774  1
  Sb  Sb85  1  0.16910645  0.49779534  0.66916508  1
  Sb  Sb86  1  -0.00446791  0.17149417  0.49502304  1
  Sb  Sb87  1  0.66294640  0.16854221  0.82779561  1
  Sb  Sb88  1  -0.00857687  0.66672039  0.66735445  1
  Sb  Sb89  1  0.49613066  0.33192378  0.17067246  1
  Sb  Sb90  1  0.83698488  0.50321455  -0.00883939  1
  Sb  Sb91  1  0.49680589  0.50199447  -0.00382168  1
  Sb  Sb92  1  0.66251866  0.49956750  0.82900632  1
  Sb  Sb93  1  0.16169455  0.83525912  0.67308127  1
  Sb  Sb94  1  0.17022788  0.49202993  0.33012545  1
  Sb  Sb95  1  0.33370298  0.66684204  0.33451790  1
  Sb  Sb96  1  0.33735656  0.16976319  0.50177528  1
  Sb  Sb97  1  0.50085297  0.66777204  0.82908325  1
  Sb  Sb98  1  0.16752555  0.16593962  0.66459258  1
  Sb  Sb99  1  0.33589728  0.83472195  0.50363041  1
  Sb  Sb100  1  0.83021259  0.33248299  0.82535692  1
  Sb  Sb101  1  0.83114725  0.49565388  0.34385782  1
  Sb  Sb102  1  0.33146138  0.33172330  -0.00294393  1
  Sb  Sb103  1  0.66714160  -0.00155043  -0.00044380  1
  Sb  Sb104  1  0.32842837  0.83989189  0.16390843  1
  Sb  Sb105  1  0.66246268  0.49320645  0.50221960  1
  Sb  Sb106  1  0.66658663  0.66409409  0.33621620  1
  Sb  Sb107  1  0.66651123  0.50229188  0.16685053  1
  Te  Te108  1  0.16640917  0.16555817  0.16741137  1
  Te  Te109  1  0.16639255  0.16047570  0.49355332  1
  Te  Te110  1  0.17268683  0.16562263  0.83676932  1
  Te  Te111  1  0.16686752  0.50832726  0.16084496  1
  Te  Te112  1  0.16691577  0.50205016  0.49929711  1
  Te  Te113  1  0.17175077  0.50477481  0.83735125  1
  Te  Te114  1  0.16371409  0.83101901  0.16076196  1
  Te  Te115  1  0.16668601  0.83754475  0.49950000  1
  Te  Te116  1  0.16695133  0.83192441  0.83874127  1
  Te  Te117  1  0.49644139  0.16504842  0.16381135  1
  Te  Te118  1  0.50337625  0.16901691  0.50462410  1
  Te  Te119  1  0.49585621  0.16582185  0.82828943  1
  Te  Te120  1  0.49867016  0.50160217  0.17028651  1
  Te  Te121  1  0.49924346  0.49735403  0.50161877  1
  Te  Te122  1  0.49296194  0.49860090  0.82910211  1
  Te  Te123  1  0.49978947  0.83402978  0.16641334  1
  Te  Te124  1  0.50050003  0.83770066  0.49587078  1
  Te  Te125  1  0.49770801  0.83542122  0.83549874  1
  Te  Te126  1  0.83668552  0.16515059  0.17017677  1
  Te  Te127  1  0.83002999  0.16916733  0.50102271  1
  Te  Te128  1  0.83448263  0.16095132  0.82841091  1
  Te  Te129  1  0.83453372  0.50210599  0.16581968  1
  Te  Te130  1  0.83595186  0.49887003  0.50441906  1
  Te  Te131  1  0.83512629  0.50545137  0.82493983  1
  Te  Te132  1  0.83575074  0.83383350  0.16849386  1
  Te  Te133  1  0.83322611  0.83207390  0.49649925  1
  Te  Te134  1  0.83335191  0.83394953  0.83359900  1
  Te  Te135  1  0.16630707  -0.00084435  0.00516883  1
  Te  Te136  1  0.16645832  0.00237329  0.33324687  1
  Te  Te137  1  0.16700261  0.00022802  0.66265225  1
  Te  Te138  1  0.16520761  0.33190001  0.00354897  1
  Te  Te139  1  0.16642420  0.32890195  0.32907628  1
  Te  Te140  1  0.15900353  0.33229129  0.66740063  1
  Te  Te141  1  0.16633376  0.66928853  -0.00231202  1
  Te  Te142  1  0.16644525  0.66683383  0.33187225  1
  Te  Te143  1  0.16604585  0.66703666  0.67221790  1
  Te  Te144  1  0.49954851  -0.00543929  -0.00283879  1
  Te  Te145  1  0.49732442  -0.00240803  0.33643578  1
  Te  Te146  1  0.49845093  -0.00060592  0.66600181  1
  Te  Te147  1  0.50479333  0.33447920  0.00023484  1
  Te  Te148  1  0.49873779  0.33329906  0.33556873  1
  Te  Te149  1  0.50001697  0.33242564  0.66479783  1
  Te  Te150  1  0.50671846  0.67070524  0.00020383  1
  Te  Te151  1  0.50058769  0.67047720  0.33895892  1
  Te  Te152  1  0.50695797  0.66715357  0.66133933  1
  Te  Te153  1  0.83436920  -0.00464595  -0.00718630  1
  Te  Te154  1  0.83639513  -0.00009731  0.33465104  1
  Te  Te155  1  0.83425781  -0.00008275  0.66781753  1
  Te  Te156  1  0.83370281  0.33408937  -0.00167352  1
  Te  Te157  1  0.83541164  0.33095316  0.33933352  1
  Te  Te158  1  0.83523897  0.33208525  0.66492946  1
  Te  Te159  1  0.82940954  0.67001227  -0.00311135  1
  Te  Te160  1  0.83228938  0.66979337  0.33814961  1
  Te  Te161  1  0.83089591  0.66808684  0.66602695  1
  Te  Te162  1  0.00338730  0.17087918  0.00449411  1
  Te  Te163  1  -0.00057205  0.16604162  0.33205778  1
  Te  Te164  1  -0.00142658  0.16522751  0.66724946  1
  Te  Te165  1  0.00503521  0.49294232  -0.00020680  1
  Te  Te166  1  0.00029758  0.49479097  0.33798348  1
  Te  Te167  1  -0.00224524  0.49567144  0.66309975  1
  Te  Te168  1  -0.00130432  0.83311979  -0.00061327  1
  Te  Te169  1  -0.00362619  0.83658562  0.33045680  1
  Te  Te170  1  -0.00525178  0.83777716  0.66916719  1
  Te  Te171  1  0.32889397  0.16622870  0.00024847  1
  Te  Te172  1  0.33309145  0.16666878  0.33405042  1
  Te  Te173  1  0.33380130  0.16731866  0.66906470  1
  Te  Te174  1  0.32799560  0.50014397  -0.00387196  1
  Te  Te175  1  0.33765913  0.49663611  0.33683988  1
  Te  Te176  1  0.33600579  0.49767209  0.66633492  1
  Te  Te177  1  0.33545054  0.83388880  -0.00413234  1
  Te  Te178  1  0.33744572  0.83732378  0.33304713  1
  Te  Te179  1  0.33263908  0.83651090  0.67194628  1
  Te  Te180  1  0.66796571  0.17303438  0.00218636  1
  Te  Te181  1  0.67085216  0.17233313  0.33578947  1
  Te  Te182  1  0.66706723  0.17015438  0.66367891  1
  Te  Te183  1  0.66676196  0.49914602  -0.00056948  1
  Te  Te184  1  0.66072916  0.49294889  0.33088176  1
  Te  Te185  1  0.66653497  0.49794091  0.66712669  1
  Te  Te186  1  0.66810945  0.83249240  0.00348103  1
  Te  Te187  1  0.66694718  0.83284196  0.32887485  1
  Te  Te188  1  0.67323255  0.82977370  0.66574274  1
  Te  Te189  1  0.00404043  0.00000762  0.16832522  1
  Te  Te190  1  0.00217578  -0.00033574  0.50067768  1
  Te  Te191  1  -0.00102610  -0.00405897  0.82899089  1
  Te  Te192  1  0.00336890  0.33105445  0.16844310  1
  Te  Te193  1  0.00141904  0.33542998  0.49999943  1
  Te  Te194  1  -0.00039598  0.33278664  0.83368022  1
  Te  Te195  1  0.00445345  0.67157190  0.16623829  1
  Te  Te196  1  -0.00234130  0.66009476  0.49993923  1
  Te  Te197  1  0.00008315  0.67137847  0.83336176  1
  Te  Te198  1  0.32718010  0.00561646  0.17226874  1
  Te  Te199  1  0.33395438  -0.00023431  0.50223612  1
  Te  Te200  1  0.33462765  0.00031475  0.82943573  1
  Te  Te201  1  0.32846529  0.32819038  0.17065006  1
  Te  Te202  1  0.33304447  0.33569337  0.50188464  1
  Te  Te203  1  0.33634337  0.33248514  0.83016607  1
  Te  Te204  1  0.32684171  0.66662701  0.16628797  1
  Te  Te205  1  0.33727386  0.66039284  0.50097970  1
  Te  Te206  1  0.33080296  0.67147483  0.83270641  1
  Te  Te207  1  0.66613248  -0.00652125  0.16714660  1
  Te  Te208  1  0.65823180  0.00743223  0.49953009  1
  Te  Te209  1  0.66183830  0.00080397  0.83369241  1
  Te  Te210  1  0.66787339  0.33337158  0.16338590  1
  Te  Te211  1  0.66669372  0.33176324  0.50148337  1
  Te  Te212  1  0.66150314  0.33364241  0.83381629  1
  Te  Te213  1  0.66630736  0.67196698  0.16275031  1
  Te  Te214  1  0.66695587  0.66877329  0.50300677  1
  Te  Te215  1  0.66999321  0.66572468  0.83282873  1
