# generated using pymatgen
data_AgSbTe2
_symmetry_space_group_name_H-M   'P 1'
_cell_length_a   18.35122005
_cell_length_b   18.35955508
_cell_length_c   18.35595602
_cell_angle_alpha   89.99841485
_cell_angle_beta   90.00066127
_cell_angle_gamma   89.99846095
_symmetry_Int_Tables_number   1
_chemical_formula_structural   AgSbTe2
_chemical_formula_sum   'Ag54 Sb54 Te108'
_cell_volume   6184.49301978
_cell_formula_units_Z   54
loop_
 _symmetry_equiv_pos_site_id
 _symmetry_equiv_pos_as_xyz
  1  'x, y, z'
loop_
 _atom_site_type_symbol
 _atom_site_label
 _atom_site_symmetry_multiplicity
 _atom_site_fract_x
 _atom_site_fract_y
 _atom_site_fract_z
 _atom_site_occupancy
  Ag  Ag0  1  0.65951995  0.00150927  0.65986197  1
  Ag  Ag1  1  0.82745412  0.84477221  0.00280786  1
  Ag  Ag2  1  0.50415207  0.67516726  0.49092477  1
  Ag  Ag3  1  0.33822215  0.84493302  0.49325354  1
  Ag  Ag4  1  0.33529291  0.32031269  0.66275225  1
  Ag  Ag5  1  0.34112935  0.68468370  0.33404538  1
  Ag  Ag6  1  0.49426472  0.49795835  0.00437978  1
  Ag  Ag7  1  0.50207897  0.66434139  0.17585831  1
  Ag  Ag8  1  0.33464456  0.83737213  0.17595857  1
  Ag  Ag9  1  0.33495954  0.83721217  0.82993914  1
  Ag  Ag10  1  0.66042780  0.83868868  0.49999191  1
  Ag  Ag11  1  0.49750122  0.50956413  0.34049477  1
  Ag  Ag12  1  0.83747346  -0.00193914  0.16197411  1
  Ag  Ag13  1  0.17258256  0.00366689  0.17463249  1
  Ag  Ag14  1  0.83230888  0.32160919  0.82657107  1
  Ag  Ag15  1  0.49326819  0.83754432  0.00675937  1
  Ag  Ag16  1  0.82998672  0.00357901  0.83817962  1
  Ag  Ag17  1  0.49797101  0.49487858  0.65825833  1
  Ag  Ag18  1  0.48891544  0.16573183  0.00037156  1
  Ag  Ag19  1  0.33551161  0.00380666  0.00097624  1
  Ag  Ag20  1  0.33514130  0.00320489  0.65725408  1
  Ag  Ag21  1  0.49125573  0.82264970  0.33662790  1
  Ag  Ag22  1  0.49311031  0.00569432  0.49862296  1
  Ag  Ag23  1  0.33506779  0.31979118  0.00702575  1
  Ag  Ag24  1  0.83432970  0.16259456  -0.00447442  1
  Ag  Ag25  1  0.00983587  0.16584288  0.16140110  1
  Ag  Ag26  1  0.17345538  0.16085272  0.32881640  1
  Ag  Ag27  1  0.65425558  0.15616986  0.50361231  1
  Ag  Ag28  1  0.33759554  0.32364431  0.33187042  1
  Ag  Ag29  1  0.33330541  -0.00026187  0.34222484  1
  Ag  Ag30  1  0.17370093  0.84582144  0.65609565  1
  Ag  Ag31  1  0.82546506  0.32500425  0.50377950  1
  Ag  Ag32  1  0.17736611  0.84156231  0.33738322  1
  Ag  Ag33  1  0.49411489  0.16735517  0.34252344  1
  Ag  Ag34  1  0.17817909  -0.00074698  0.49634347  1
  Ag  Ag35  1  0.82747862  -0.00089156  0.49895666  1
  Ag  Ag36  1  0.17548261  0.16271322  0.66129059  1
  Ag  Ag37  1  0.49515377  0.33254051  0.17799402  1
  Ag  Ag38  1  0.17450088  0.49115410  -0.00042955  1
  Ag  Ag39  1  -0.00124516  0.66884280  0.00210639  1
  Ag  Ag40  1  0.82638654  0.67352516  0.17117298  1
  Ag  Ag41  1  0.65278861  0.67005900  0.34261317  1
  Ag  Ag42  1  0.66373163  0.67459312  0.65961182  1
  Ag  Ag43  1  0.34020662  0.16035523  0.49436799  1
  Ag  Ag44  1  0.00515370  0.83452038  0.50003353  1
  Ag  Ag45  1  0.82361375  0.67706145  0.49646363  1
  Ag  Ag46  1  0.17339131  0.16771813  0.00650260  1
  Ag  Ag47  1  0.17824848  0.32158987  0.16492927  1
  Ag  Ag48  1  0.49612687  0.17009482  0.65661479  1
  Ag  Ag49  1  0.82229084  0.49765668  0.66394331  1
  Ag  Ag50  1  0.17453167  0.49684901  0.66617969  1
  Ag  Ag51  1  -0.00550309  0.16508639  0.84036685  1
  Ag  Ag52  1  0.49993918  0.32252516  0.49392264  1
  Ag  Ag53  1  0.66933995  0.16438171  0.82554555  1
  Sb  Sb54  1  0.83279069  0.33007056  0.16713108  1
  Sb  Sb55  1  0.49577329  0.83627374  0.65876291  1
  Sb  Sb56  1  0.83265060  0.49859792  -0.00336339  1
  Sb  Sb57  1  0.66314227  0.83812733  0.82965707  1
  Sb  Sb58  1  0.50041039  0.00105174  0.82744269  1
  Sb  Sb59  1  0.16723955  0.00279356  0.83112492  1
  Sb  Sb60  1  0.83225173  0.66955041  0.83250827  1
  Sb  Sb61  1  0.33801752  0.67066241  0.65948635  1
  Sb  Sb62  1  0.17086124  0.66894116  0.16725452  1
  Sb  Sb63  1  0.33678697  0.49877589  0.16681455  1
  Sb  Sb64  1  0.00329519  0.00100117  0.66477342  1
  Sb  Sb65  1  0.65918515  0.32912774  -0.00099309  1
  Sb  Sb66  1  0.00681583  0.33049005  0.33403499  1
  Sb  Sb67  1  0.65816862  -0.00239421  0.34064157  1
  Sb  Sb68  1  0.00543476  0.33085140  -0.00038659  1
  Sb  Sb69  1  0.66134493  0.83373180  0.17094161  1
  Sb  Sb70  1  0.49942047  0.66862550  0.83240160  1
  Sb  Sb71  1  0.00853963  -0.00058027  0.33396267  1
  Sb  Sb72  1  0.00144502  0.66925949  0.33205464  1
  Sb  Sb73  1  0.33433196  0.50155387  0.83320717  1
  Sb  Sb74  1  -0.00212841  0.66782574  0.66772393  1
  Sb  Sb75  1  0.66701297  0.66863980  0.00003669  1
  Sb  Sb76  1  0.33040565  0.16205592  0.17408429  1
  Sb  Sb77  1  0.33235661  0.67013437  0.00645085  1
  Sb  Sb78  1  0.17074045  0.67545067  0.50085748  1
  Sb  Sb79  1  0.66185925  0.32904317  0.66361250  1
  Sb  Sb80  1  0.17366962  0.32615834  0.49819550  1
  Sb  Sb81  1  0.17575112  0.49716282  0.33383542  1
  Sb  Sb82  1  0.66174782  0.50194744  0.16734479  1
  Sb  Sb83  1  0.00288182  0.16072747  0.49948966  1
  Sb  Sb84  1  0.49569462  0.00121161  0.17107016  1
  Sb  Sb85  1  0.83006680  0.16718754  0.67017968  1
  Sb  Sb86  1  0.00181886  0.49845560  0.16391659  1
  Sb  Sb87  1  0.00012992  0.49575877  0.83304656  1
  Sb  Sb88  1  0.66590538  0.49501050  0.83063726  1
  Sb  Sb89  1  0.50107752  0.32978734  0.83083688  1
  Sb  Sb90  1  0.00256380  0.33089092  0.66616758  1
  Sb  Sb91  1  0.00253717  0.83696374  0.16973881  1
  Sb  Sb92  1  0.00091293  0.00112546  0.00078806  1
  Sb  Sb93  1  0.83229125  0.16422464  0.33306115  1
  Sb  Sb94  1  -0.00224654  0.50506579  0.50211392  1
  Sb  Sb95  1  0.33504508  0.16309523  0.83079318  1
  Sb  Sb96  1  0.17055016  0.83665647  0.00220797  1
  Sb  Sb97  1  0.66448062  0.00195916  -0.00221464  1
  Sb  Sb98  1  0.65705486  0.33475322  0.33754523  1
  Sb  Sb99  1  0.00184866  0.83870710  0.83128763  1
  Sb  Sb100  1  0.16643249  0.32903398  0.83480355  1
  Sb  Sb101  1  0.33674094  0.49797481  0.50021264  1
  Sb  Sb102  1  0.83362745  0.83422604  0.66438888  1
  Sb  Sb103  1  0.16666447  0.66715684  0.83338251  1
  Sb  Sb104  1  0.66448580  0.16444618  0.16918046  1
  Sb  Sb105  1  0.82523478  0.50241800  0.34024606  1
  Sb  Sb106  1  0.83022058  0.83607406  0.33359937  1
  Sb  Sb107  1  0.66235986  0.50434175  0.50116169  1
  Te  Te108  1  0.16803066  0.16527464  0.16697186  1
  Te  Te109  1  0.16811622  0.16089657  0.50087023  1
  Te  Te110  1  0.16112550  0.16671103  0.83643225  1
  Te  Te111  1  0.16639345  0.49875062  0.16270523  1
  Te  Te112  1  0.16548465  0.49826763  0.50340208  1
  Te  Te113  1  0.16675068  0.49946082  0.83501485  1
  Te  Te114  1  0.17039472  0.83728599  0.17066418  1
  Te  Te115  1  0.17112915  0.83585899  0.49899941  1
  Te  Te116  1  0.17026516  0.83435351  0.83058088  1
  Te  Te117  1  0.50190489  0.17109148  0.15786502  1
  Te  Te118  1  0.49710359  0.16655180  0.50261509  1
  Te  Te119  1  0.50644652  0.16581944  0.84430373  1
  Te  Te120  1  0.50055932  0.49990341  0.16408152  1
  Te  Te121  1  0.49919638  0.50194597  0.49983938  1
  Te  Te122  1  0.50037855  0.50055545  0.83559216  1
  Te  Te123  1  0.49706781  0.83427751  0.16764265  1
  Te  Te124  1  0.49851880  0.83387329  0.49929904  1
  Te  Te125  1  0.49672870  0.83474690  0.84328657  1
  Te  Te126  1  0.83426501  0.16491208  0.16528883  1
  Te  Te127  1  0.83558911  0.16671544  0.49979972  1
  Te  Te128  1  0.83248741  0.16498116  0.83084282  1
  Te  Te129  1  0.83332781  0.50335687  0.16754979  1
  Te  Te130  1  0.83196604  0.49822510  0.50548055  1
  Te  Te131  1  0.83328651  0.49904703  0.82535166  1
  Te  Te132  1  0.83442489  0.83281018  0.16460660  1
  Te  Te133  1  0.82884887  0.83380296  0.49994611  1
  Te  Te134  1  0.83264330  0.83918234  0.83735448  1
  Te  Te135  1  0.16784157  0.00424963  0.00014729  1
  Te  Te136  1  0.16973120  0.00084521  0.33455791  1
  Te  Te137  1  0.16977685  0.00206993  0.66518810  1
  Te  Te138  1  0.17072070  0.33221025  0.00177140  1
  Te  Te139  1  0.17456559  0.33016953  0.32951508  1
  Te  Te140  1  0.17330262  0.33329696  0.66569826  1
  Te  Te141  1  0.16271509  0.66440177  0.00072969  1
  Te  Te142  1  0.17061512  0.66673008  0.33350503  1
  Te  Te143  1  0.16678933  0.65800716  0.66676514  1
  Te  Te144  1  0.49902448  -0.00072844  0.00278589  1
  Te  Te145  1  0.49469522  0.00750884  0.33539131  1
  Te  Te146  1  0.49813161  0.00272531  0.66295827  1
  Te  Te147  1  0.49446209  0.33308890  -0.00296064  1
  Te  Te148  1  0.49757921  0.32491240  0.33403708  1
  Te  Te149  1  0.49665455  0.33212959  0.66556674  1
  Te  Te150  1  0.50098431  0.66577857  0.00173110  1
  Te  Te151  1  0.49748385  0.66673180  0.33093954  1
  Te  Te152  1  0.50447370  0.66414712  0.66547550  1
  Te  Te153  1  0.83298248  0.00139859  0.00009045  1
  Te  Te154  1  0.83261389  -0.00023757  0.33528909  1
  Te  Te155  1  0.83259707  -0.00026555  0.66307877  1
  Te  Te156  1  0.83278585  0.33104399  -0.00037129  1
  Te  Te157  1  0.83251671  0.33404631  0.33743965  1
  Te  Te158  1  0.83353140  0.33534108  0.66563675  1
  Te  Te159  1  0.83466122  0.66323525  0.00230331  1
  Te  Te160  1  0.83295671  0.66721058  0.33262423  1
  Te  Te161  1  0.83132119  0.66564836  0.66404476  1
  Te  Te162  1  -0.00393274  0.16679758  0.00084507  1
  Te  Te163  1  0.00503668  0.16747105  0.32805541  1
  Te  Te164  1  0.01090195  0.16692794  0.66786004  1
  Te  Te165  1  0.00266319  0.50312361  -0.00123409  1
  Te  Te166  1  -0.00014859  0.49964228  0.33318344  1
  Te  Te167  1  0.00673612  0.49988345  0.66726373  1
  Te  Te168  1  -0.00136499  0.83000898  0.00048798  1
  Te  Te169  1  0.00576894  0.83218143  0.33899229  1
  Te  Te170  1  0.00930798  0.83247061  0.66288744  1
  Te  Te171  1  0.33035350  0.16552507  -0.00484275  1
  Te  Te172  1  0.33248888  0.16389806  0.33508019  1
  Te  Te173  1  0.33541104  0.16419779  0.67058865  1
  Te  Te174  1  0.33297673  0.50317984  -0.00119517  1
  Te  Te175  1  0.33971102  0.49035244  0.33347579  1
  Te  Te176  1  0.33676762  0.50241285  0.66699821  1
  Te  Te177  1  0.33501642  0.83447646  -0.00212066  1
  Te  Te178  1  0.33402486  0.83980291  0.33301804  1
  Te  Te179  1  0.33219462  0.83625141  0.66757747  1
  Te  Te180  1  0.67706959  0.16571413  0.00048530  1
  Te  Te181  1  0.66224486  0.16729117  0.33929010  1
  Te  Te182  1  0.66414004  0.16338931  0.66540402  1
  Te  Te183  1  0.65912410  0.50035013  -0.00194613  1
  Te  Te184  1  0.65784843  0.50721875  0.33262385  1
  Te  Te185  1  0.66384074  0.49974625  0.66772786  1
  Te  Te186  1  0.66998657  0.83362597  -0.00132940  1
  Te  Te187  1  0.66250813  0.82908070  0.33792139  1
  Te  Te188  1  0.66613364  0.83650370  0.66224360  1
  Te  Te189  1  -0.00073162  0.00434440  0.16730378  1
  Te  Te190  1  -0.01011347  -0.00555484  0.49943995  1
  Te  Te191  1  -0.00717776  0.00375379  0.83321833  1
  Te  Te192  1  0.00197297  0.32729320  0.16720324  1
  Te  Te193  1  -0.00760894  0.33583897  0.49897111  1
  Te  Te194  1  -0.00668508  0.32738182  0.83292602  1
  Te  Te195  1  -0.00172186  0.66624429  0.16382573  1
  Te  Te196  1  -0.00507769  0.67317500  0.50016741  1
  Te  Te197  1  -0.00107352  0.66720552  0.84063008  1
  Te  Te198  1  0.33189104  -0.00326277  0.15928421  1
  Te  Te199  1  0.33202991  0.00126871  0.50258826  1
  Te  Te200  1  0.33406413  -0.00367100  0.84123902  1
  Te  Te201  1  0.33519041  0.33394600  0.16380497  1
  Te  Te202  1  0.33768597  0.33020479  0.50259661  1
  Te  Te203  1  0.33302505  0.33565744  0.83063274  1
  Te  Te204  1  0.33774160  0.67117094  0.17251276  1
  Te  Te205  1  0.33835088  0.66697700  0.49358343  1
  Te  Te206  1  0.33255044  0.67545973  0.83179916  1
  Te  Te207  1  0.67704751  -0.00104413  0.16878102  1
  Te  Te208  1  0.66629843  -0.00127016  0.50083346  1
  Te  Te209  1  0.66934087  0.00398498  0.82720360  1
  Te  Te210  1  0.65877071  0.33357304  0.16734034  1
  Te  Te211  1  0.66427553  0.32742294  0.50038732  1
  Te  Te212  1  0.67313156  0.32712236  0.83305555  1
  Te  Te213  1  0.66561994  0.66766075  0.16846387  1
  Te  Te214  1  0.66575679  0.66525625  0.50140534  1
  Te  Te215  1  0.66752869  0.66685532  0.82461317  1
