# generated using pymatgen
data_AgSbTe2
_symmetry_space_group_name_H-M   'P 1'
_cell_length_a   18.33818524
_cell_length_b   18.33438018
_cell_length_c   18.33767023
_cell_angle_alpha   89.99954019
_cell_angle_beta   89.99678141
_cell_angle_gamma   89.99993732
_symmetry_Int_Tables_number   1
_chemical_formula_structural   AgSbTe2
_chemical_formula_sum   'Ag54 Sb54 Te108'
_cell_volume   6165.47790298
_cell_formula_units_Z   54
loop_
 _symmetry_equiv_pos_site_id
 _symmetry_equiv_pos_as_xyz
  1  'x, y, z'
loop_
 _atom_site_type_symbol
 _atom_site_label
 _atom_site_symmetry_multiplicity
 _atom_site_fract_x
 _atom_site_fract_y
 _atom_site_fract_z
 _atom_site_occupancy
  Ag  Ag0  1  0.83003162  0.00151974  0.82879635  1
  Ag  Ag1  1  0.83180979  0.00405470  0.49918944  1
  Ag  Ag2  1  0.67452854  0.66428853  0.34284597  1
  Ag  Ag3  1  -0.00003582  0.33427629  0.00498775  1
  Ag  Ag4  1  0.33162816  0.00281512  0.33831578  1
  Ag  Ag5  1  0.34441627  0.00311535  0.66021538  1
  Ag  Ag6  1  0.83010440  0.33231201  0.49758277  1
  Ag  Ag7  1  0.65839475  -0.00215060  0.66612396  1
  Ag  Ag8  1  -0.00049963  0.82970159  0.49755582  1
  Ag  Ag9  1  -0.00835997  0.66954072  0.65504691  1
  Ag  Ag10  1  0.33308813  0.16360184  0.17242169  1
  Ag  Ag11  1  0.82945387  0.32781350  0.82215984  1
  Ag  Ag12  1  0.00264660  0.83585101  0.83944110  1
  Ag  Ag13  1  0.83681273  0.66429802  0.49728573  1
  Ag  Ag14  1  0.50545691  0.32709591  0.50306738  1
  Ag  Ag15  1  0.67112018  0.33634468  0.33952121  1
  Ag  Ag16  1  0.50234831  -0.00033103  0.82046792  1
  Ag  Ag17  1  -0.00317537  -0.00712119  -0.00255687  1
  Ag  Ag18  1  0.15865213  0.48633226  0.33820618  1
  Ag  Ag19  1  0.16547192  0.17421851  0.33507743  1
  Ag  Ag20  1  0.83573026  0.67741419  0.18211552  1
  Ag  Ag21  1  -0.00868208  0.50513907  0.49771796  1
  Ag  Ag22  1  0.16266230  0.33195554  0.49383099  1
  Ag  Ag23  1  0.16764052  -0.00519053  0.82843720  1
  Ag  Ag24  1  0.32040139  0.32361209  0.34207335  1
  Ag  Ag25  1  0.83625911  0.49642159  0.33965468  1
  Ag  Ag26  1  0.49363635  0.83825928  -0.00757270  1
  Ag  Ag27  1  0.50413605  0.49171376  0.66450641  1
  Ag  Ag28  1  0.83514612  0.16816483  0.33963261  1
  Ag  Ag29  1  0.50019612  0.84721048  0.66513393  1
  Ag  Ag30  1  0.50499377  0.32910417  0.82012711  1
  Ag  Ag31  1  0.00533499  0.33499521  0.33634884  1
  Ag  Ag32  1  0.15550929  0.67214663  0.49739265  1
  Ag  Ag33  1  0.83686509  0.83249724  0.33677459  1
  Ag  Ag34  1  0.82725675  0.16342516  0.65680029  1
  Ag  Ag35  1  0.34098835  0.32481370  0.65886709  1
  Ag  Ag36  1  0.00036904  0.67718035  -0.00177781  1
  Ag  Ag37  1  0.66775917  0.49716176  0.82096702  1
  Ag  Ag38  1  0.67036226  -0.00203228  -0.00851727  1
  Ag  Ag39  1  0.83163621  -0.00341149  0.17883287  1
  Ag  Ag40  1  0.16217222  0.83484399  0.00271415  1
  Ag  Ag41  1  0.50459112  0.16237902  0.66369434  1
  Ag  Ag42  1  0.32473311  0.67296133  0.00010140  1
  Ag  Ag43  1  0.67044881  0.17083363  0.50122350  1
  Ag  Ag44  1  0.50025949  0.83952113  0.33708209  1
  Ag  Ag45  1  0.33135165  0.83788405  0.83527974  1
  Ag  Ag46  1  0.50320926  0.00193289  0.50682729  1
  Ag  Ag47  1  0.16001009  0.83552945  0.33558419  1
  Ag  Ag48  1  0.50244629  -0.00213168  0.16946519  1
  Ag  Ag49  1  0.16478628  0.33150564  0.18226307  1
  Ag  Ag50  1  0.16523019  -0.00117446  0.49741116  1
  Ag  Ag51  1  -0.00063927  0.83357422  0.17051483  1
  Ag  Ag52  1  0.66915704  0.66786416  0.66012373  1
  Ag  Ag53  1  0.67169663  0.49392095  0.50199494  1
  Sb  Sb54  1  0.49507754  0.32576683  0.17394922  1
  Sb  Sb55  1  0.67107503  0.83387972  0.49983034  1
  Sb  Sb56  1  0.16514294  0.00098201  0.17137873  1
  Sb  Sb57  1  0.66844038  0.50061344  0.17346240  1
  Sb  Sb58  1  0.33738792  0.50277872  0.83020158  1
  Sb  Sb59  1  0.83337133  0.66998200  0.82792950  1
  Sb  Sb60  1  0.50107151  0.67361379  0.83062356  1
  Sb  Sb61  1  0.66691850  0.16795092  0.82424997  1
  Sb  Sb62  1  -0.00192537  0.15983226  0.83408878  1
  Sb  Sb63  1  0.33401603  0.49559516  0.49949478  1
  Sb  Sb64  1  0.50025486  0.15830900  -0.00543384  1
  Sb  Sb65  1  0.67052025  0.32770269  -0.00054992  1
  Sb  Sb66  1  0.66461310  0.16353349  0.17570547  1
  Sb  Sb67  1  0.83914754  0.32966152  0.17625176  1
  Sb  Sb68  1  0.16475491  0.67360477  0.83035190  1
  Sb  Sb69  1  0.50508851  0.67609255  0.16795325  1
  Sb  Sb70  1  0.50235666  0.50051101  0.33990959  1
  Sb  Sb71  1  0.16584344  0.32678474  0.82869668  1
  Sb  Sb72  1  0.66058650  0.33121608  0.65819473  1
  Sb  Sb73  1  0.66750649  0.83649823  0.83180191  1
  Sb  Sb74  1  -0.00648623  0.16575204  0.49833839  1
  Sb  Sb75  1  0.16999337  0.50022310  0.65756705  1
  Sb  Sb76  1  0.16646973  0.16016191  0.00527581  1
  Sb  Sb77  1  0.16814997  0.83506950  0.66464864  1
  Sb  Sb78  1  0.50341386  0.67023876  0.50124936  1
  Sb  Sb79  1  0.66683842  -0.00113786  0.34045452  1
  Sb  Sb80  1  0.16338357  0.50523542  0.00482015  1
  Sb  Sb81  1  -0.00201369  -0.00501210  0.66806603  1
  Sb  Sb82  1  0.67082660  0.67366678  -0.00154714  1
  Sb  Sb83  1  0.83395699  0.16273524  0.00242710  1
  Sb  Sb84  1  -0.00191212  0.50424912  0.17507797  1
  Sb  Sb85  1  0.33005702  0.83784162  0.50218396  1
  Sb  Sb86  1  0.33225955  0.49595229  0.16924315  1
  Sb  Sb87  1  0.83093469  0.83837513  0.66021054  1
  Sb  Sb88  1  0.00021096  -0.00080340  0.33323201  1
  Sb  Sb89  1  0.16774901  0.16421818  0.65686914  1
  Sb  Sb90  1  -0.00569851  0.50361826  0.82752181  1
  Sb  Sb91  1  0.33787481  0.16595951  0.49652681  1
  Sb  Sb92  1  0.32974469  0.83811791  0.16480712  1
  Sb  Sb93  1  0.00160522  0.16228078  0.17000798  1
  Sb  Sb94  1  0.67249297  0.83653401  0.16810654  1
  Sb  Sb95  1  0.32965696  0.33653104  0.00005756  1
  Sb  Sb96  1  0.33571918  0.67167870  0.66750134  1
  Sb  Sb97  1  0.33277423  -0.00528460  -0.00026864  1
  Sb  Sb98  1  0.50122918  0.50454701  -0.00763161  1
  Sb  Sb99  1  0.83982193  0.83646537  0.00405598  1
  Sb  Sb100  1  0.83457413  0.49977377  0.00313807  1
  Sb  Sb101  1  -0.00050842  0.33781130  0.65928703  1
  Sb  Sb102  1  0.33478318  0.15958885  0.83409815  1
  Sb  Sb103  1  0.15981474  0.66608844  0.17360051  1
  Sb  Sb104  1  0.49899291  0.16136018  0.34126292  1
  Sb  Sb105  1  0.33441470  0.67029480  0.33195030  1
  Sb  Sb106  1  -0.00711454  0.66688992  0.33747400  1
  Sb  Sb107  1  0.82635543  0.49601971  0.65839908  1
  Te  Te108  1  0.16952461  0.16950290  0.17243370  1
  Te  Te109  1  0.16397501  0.16407056  0.49402089  1
  Te  Te110  1  0.16628710  0.15683555  0.83247832  1
  Te  Te111  1  0.16549560  0.49437807  0.17480880  1
  Te  Te112  1  0.16662334  0.49572692  0.49529384  1
  Te  Te113  1  0.16635620  0.49821655  0.83352292  1
  Te  Te114  1  0.16122993  0.83285178  0.16753600  1
  Te  Te115  1  0.16412703  0.83661267  0.49859419  1
  Te  Te116  1  0.16533837  0.83702190  0.83343834  1
  Te  Te117  1  0.49603525  0.15978813  0.16576158  1
  Te  Te118  1  0.50476088  0.16567775  0.50378701  1
  Te  Te119  1  0.50047272  0.16663533  0.82768011  1
  Te  Te120  1  0.50059166  0.50004728  0.16430930  1
  Te  Te121  1  0.50487126  0.49945298  0.50343030  1
  Te  Te122  1  0.50463251  0.49512745  0.82818088  1
  Te  Te123  1  0.49932479  0.83901508  0.17162669  1
  Te  Te124  1  0.49796580  0.83731572  0.49994673  1
  Te  Te125  1  0.50111131  0.83915239  0.83204347  1
  Te  Te126  1  0.83278677  0.15935068  0.17427568  1
  Te  Te127  1  0.83208806  0.16594835  0.49754301  1
  Te  Te128  1  0.83277129  0.16670745  0.83237299  1
  Te  Te129  1  0.83307755  0.50223478  0.17528733  1
  Te  Te130  1  0.83213490  0.49919568  0.49817004  1
  Te  Te131  1  0.82890445  0.49634777  0.83444037  1
  Te  Te132  1  0.83793512  0.83641465  0.16998058  1
  Te  Te133  1  0.83751572  0.83395389  0.49715690  1
  Te  Te134  1  0.83808323  0.83810484  0.83199019  1
  Te  Te135  1  0.16286024  -0.00459776  -0.00152728  1
  Te  Te136  1  0.16718023  -0.00460490  0.33621508  1
  Te  Te137  1  0.16873595  0.00065035  0.66390184  1
  Te  Te138  1  0.16204580  0.33336560  -0.00375923  1
  Te  Te139  1  0.16590208  0.33071425  0.33822347  1
  Te  Te140  1  0.17426658  0.33225453  0.66118584  1
  Te  Te141  1  0.16287022  0.67253334  0.00153413  1
  Te  Te142  1  0.16975511  0.67642024  0.33798631  1
  Te  Te143  1  0.16580074  0.66651600  0.65923905  1
  Te  Te144  1  0.49994555  -0.00376540  0.00309638  1
  Te  Te145  1  0.50042955  -0.00154415  0.33323036  1
  Te  Te146  1  0.49971321  0.00247367  0.66459006  1
  Te  Te147  1  0.49915752  0.33356535  -0.00057720  1
  Te  Te148  1  0.50613707  0.33257802  0.33853666  1
  Te  Te149  1  0.49978473  0.33123820  0.66409618  1
  Te  Te150  1  0.50084600  0.67452966  -0.00003850  1
  Te  Te151  1  0.50459045  0.67192021  0.33290076  1
  Te  Te152  1  0.50404178  0.66324079  0.66608499  1
  Te  Te153  1  0.83446809  -0.00021231  -0.00689683  1
  Te  Te154  1  0.83314173  -0.00150851  0.33663893  1
  Te  Te155  1  0.83311299  0.00274735  0.66444255  1
  Te  Te156  1  0.83853953  0.33155601  0.00179046  1
  Te  Te157  1  0.83208722  0.33338934  0.33595554  1
  Te  Te158  1  0.83385201  0.32881435  0.66442027  1
  Te  Te159  1  0.83856992  0.66697686  -0.00066291  1
  Te  Te160  1  0.83240364  0.66989205  0.33743315  1
  Te  Te161  1  0.83108362  0.66704253  0.66116108  1
  Te  Te162  1  0.00128325  0.17213492  0.00156347  1
  Te  Te163  1  -0.00020984  0.17262378  0.33271078  1
  Te  Te164  1  -0.00619597  0.16815610  0.66745721  1
  Te  Te165  1  -0.00009004  0.49511933  -0.00142708  1
  Te  Te166  1  -0.00074921  0.49751195  0.33872251  1
  Te  Te167  1  0.00114579  0.50795833  0.66000614  1
  Te  Te168  1  0.00089012  0.83577076  -0.00103558  1
  Te  Te169  1  -0.00149406  0.83385009  0.33362538  1
  Te  Te170  1  -0.00042157  0.82769767  0.66362100  1
  Te  Te171  1  0.33270991  0.16897544  0.00831746  1
  Te  Te172  1  0.33259468  0.16486501  0.33195241  1
  Te  Te173  1  0.33567692  0.16465885  0.66781688  1
  Te  Te174  1  0.33236308  0.51034559  -0.00096752  1
  Te  Te175  1  0.33109983  0.49656578  0.33263294  1
  Te  Te176  1  0.34119923  0.49866890  0.66716479  1
  Te  Te177  1  0.33194910  0.83153498  -0.00239433  1
  Te  Te178  1  0.33633567  0.83763779  0.33262444  1
  Te  Te179  1  0.33856654  0.83702800  0.67247825  1
  Te  Te180  1  0.66656718  0.15805859  0.00215601  1
  Te  Te181  1  0.67065042  0.16926259  0.34076991  1
  Te  Te182  1  0.66729793  0.16176436  0.66134228  1
  Te  Te183  1  0.66719723  0.50067890  -0.00199678  1
  Te  Te184  1  0.66934230  0.50172172  0.33842725  1
  Te  Te185  1  0.66457607  0.50202796  0.66364717  1
  Te  Te186  1  0.65911112  0.83901929  -0.00019043  1
  Te  Te187  1  0.66710464  0.82909984  0.33302611  1
  Te  Te188  1  0.66149137  0.83302846  0.66730634  1
  Te  Te189  1  -0.00367766  -0.00437866  0.16219542  1
  Te  Te190  1  -0.00107472  -0.00511133  0.50035176  1
  Te  Te191  1  -0.00121828  -0.00447775  0.83496862  1
  Te  Te192  1  0.00381187  0.33414000  0.16803335  1
  Te  Te193  1  -0.00141360  0.33493955  0.49683290  1
  Te  Te194  1  -0.00396659  0.33402343  0.83158451  1
  Te  Te195  1  -0.00452293  0.67028017  0.16027498  1
  Te  Te196  1  -0.00140015  0.66696378  0.49839204  1
  Te  Te197  1  -0.00037975  0.67170399  0.83686094  1
  Te  Te198  1  0.33473297  0.00292364  0.17082380  1
  Te  Te199  1  0.33405182  0.00048243  0.49915928  1
  Te  Te200  1  0.33545307  -0.00335750  0.83292284  1
  Te  Te201  1  0.32798825  0.32859713  0.16936248  1
  Te  Te202  1  0.33522206  0.33181428  0.49913424  1
  Te  Te203  1  0.33666780  0.33284219  0.83065096  1
  Te  Te204  1  0.33388357  0.66594692  0.16133907  1
  Te  Te205  1  0.32678664  0.66602140  0.50043872  1
  Te  Te206  1  0.33277697  0.67411379  0.83747151  1
  Te  Te207  1  0.66910127  0.00058188  0.16424186  1
  Te  Te208  1  0.66776966  -0.00007668  0.50399460  1
  Te  Te209  1  0.66714092  0.00119803  0.82969270  1
  Te  Te210  1  0.66592682  0.33238033  0.17129988  1
  Te  Te211  1  0.66784184  0.33376730  0.49868810  1
  Te  Te212  1  0.66807247  0.33612189  0.83679766  1
  Te  Te213  1  0.67542738  0.66724115  0.16787638  1
  Te  Te214  1  0.66842078  0.66679260  0.50081982  1
  Te  Te215  1  0.66808380  0.65933668  0.82964452  1
