# generated using pymatgen
data_AgSbTe2
_symmetry_space_group_name_H-M   'P 1'
_cell_length_a   18.33863057
_cell_length_b   18.34230073
_cell_length_c   18.33838136
_cell_angle_alpha   90.00159154
_cell_angle_beta   89.99897984
_cell_angle_gamma   90.00002846
_symmetry_Int_Tables_number   1
_chemical_formula_structural   AgSbTe2
_chemical_formula_sum   'Ag54 Sb54 Te108'
_cell_volume   6168.53042586
_cell_formula_units_Z   54
loop_
 _symmetry_equiv_pos_site_id
 _symmetry_equiv_pos_as_xyz
  1  'x, y, z'
loop_
 _atom_site_type_symbol
 _atom_site_label
 _atom_site_symmetry_multiplicity
 _atom_site_fract_x
 _atom_site_fract_y
 _atom_site_fract_z
 _atom_site_occupancy
  Ag  Ag0  1  0.32026683  -0.00391653  -0.00537691  1
  Ag  Ag1  1  0.83265313  -0.00572344  0.49053690  1
  Ag  Ag2  1  0.66977141  0.50436675  0.49219931  1
  Ag  Ag3  1  0.32418209  0.66485104  0.32226380  1
  Ag  Ag4  1  0.66926704  0.15552567  0.16095954  1
  Ag  Ag5  1  0.50117396  0.83719505  0.66512929  1
  Ag  Ag6  1  0.16119377  0.16860280  0.68190093  1
  Ag  Ag7  1  -0.00017261  0.32944473  0.67686686  1
  Ag  Ag8  1  0.83307068  -0.00706337  0.16893989  1
  Ag  Ag9  1  0.50313552  0.67232796  0.16715970  1
  Ag  Ag10  1  0.00507003  0.16169678  0.83541085  1
  Ag  Ag11  1  -0.00751285  0.83417760  0.49773905  1
  Ag  Ag12  1  0.32674052  0.49944682  0.84686122  1
  Ag  Ag13  1  0.33475937  -0.00006737  0.68037145  1
  Ag  Ag14  1  0.16673572  0.49172089  0.67920353  1
  Ag  Ag15  1  0.32446682  0.50187443  0.16387952  1
  Ag  Ag16  1  0.00535467  0.33167183  -0.00362597  1
  Ag  Ag17  1  0.16752649  0.67232437  0.84032161  1
  Ag  Ag18  1  0.32238771  0.66607080  0.00306799  1
  Ag  Ag19  1  0.67042138  0.83904302  0.16895000  1
  Ag  Ag20  1  0.83320595  0.67492697  0.16964274  1
  Ag  Ag21  1  -0.00379877  -0.00830274  0.32255280  1
  Ag  Ag22  1  0.67067418  0.33089998  -0.00042768  1
  Ag  Ag23  1  0.16511447  0.15462832  -0.00101791  1
  Ag  Ag24  1  0.16584820  0.16618591  0.32123182  1
  Ag  Ag25  1  0.16425360  0.00534471  0.15446294  1
  Ag  Ag26  1  0.00241612  0.67450677  0.32228204  1
  Ag  Ag27  1  0.83457875  0.67902735  0.49062760  1
  Ag  Ag28  1  0.00558128  0.84171269  0.84018848  1
  Ag  Ag29  1  0.16848091  0.49959280  0.31975917  1
  Ag  Ag30  1  0.83192784  0.83572061  0.32747997  1
  Ag  Ag31  1  0.67187747  0.32370552  0.67395214  1
  Ag  Ag32  1  0.66719990  0.50132545  0.16786535  1
  Ag  Ag33  1  0.83627701  0.32898031  0.83492558  1
  Ag  Ag34  1  0.50321708  -0.00593298  0.16232496  1
  Ag  Ag35  1  0.67370573  -0.00481523  0.32681727  1
  Ag  Ag36  1  0.51066122  0.83389491  0.33028844  1
  Ag  Ag37  1  0.16741294  0.49988053  0.00196675  1
  Ag  Ag38  1  0.66990948  0.16547753  0.83660427  1
  Ag  Ag39  1  0.84037063  0.83504180  0.00882974  1
  Ag  Ag40  1  0.00735775  -0.00799691  0.00327451  1
  Ag  Ag41  1  0.32078411  0.33531585  0.00192531  1
  Ag  Ag42  1  0.66555143  0.00339751  0.66653851  1
  Ag  Ag43  1  0.16761523  0.33478687  0.16185506  1
  Ag  Ag44  1  0.00924196  0.50197343  0.16376814  1
  Ag  Ag45  1  0.32079758  0.15582115  0.83756051  1
  Ag  Ag46  1  0.83643648  0.16646451  0.67122263  1
  Ag  Ag47  1  0.48652123  -0.00032709  0.83970014  1
  Ag  Ag48  1  0.17323859  -0.00008090  0.84238029  1
  Ag  Ag49  1  0.67441345  0.83495659  0.48716828  1
  Ag  Ag50  1  0.00568647  0.67469304  0.00374344  1
  Ag  Ag51  1  0.32433383  0.84522995  0.83805968  1
  Ag  Ag52  1  0.32840675  0.33967396  0.32201701  1
  Ag  Ag53  1  0.16107296  0.83932481  -0.00258259  1
  Sb  Sb54  1  0.49665332  0.50682079  0.32875012  1
  Sb  Sb55  1  0.33000059  0.67017767  0.67284622  1
  Sb  Sb56  1  0.49542150  0.15896639  0.32830374  1
  Sb  Sb57  1  0.50705439  -0.00377313  0.50006378  1
  Sb  Sb58  1  0.33291103  0.83406166  0.50364572  1
  Sb  Sb59  1  -0.00063466  0.00296895  0.67121781  1
  Sb  Sb60  1  0.32943180  0.32899459  0.67455628  1
  Sb  Sb61  1  -0.00493283  0.83027073  0.16229701  1
  Sb  Sb62  1  0.67083555  0.67433283  0.32962436  1
  Sb  Sb63  1  0.66827777  0.84011375  0.83723590  1
  Sb  Sb64  1  -0.00037389  0.16501479  0.16012454  1
  Sb  Sb65  1  0.33563355  0.82866564  0.16033546  1
  Sb  Sb66  1  0.66766247  0.67058483  0.66453114  1
  Sb  Sb67  1  0.49677847  0.50510521  0.66811183  1
  Sb  Sb68  1  0.83283181  0.33131926  0.50491726  1
  Sb  Sb69  1  0.16556972  0.33448348  0.49693328  1
  Sb  Sb70  1  0.16823185  0.83773578  0.67595314  1
  Sb  Sb71  1  0.49610142  0.33303451  0.16481626  1
  Sb  Sb72  1  0.50117625  0.15943979  0.67030853  1
  Sb  Sb73  1  0.16404920  0.66523457  0.15862073  1
  Sb  Sb74  1  0.33027554  0.16499840  0.50482260  1
  Sb  Sb75  1  -0.00302233  0.50471547  0.49596005  1
  Sb  Sb76  1  0.66276056  0.49300697  0.83707647  1
  Sb  Sb77  1  0.83052079  0.84040981  0.66403244  1
  Sb  Sb78  1  0.83710861  0.50727516  0.33094103  1
  Sb  Sb79  1  0.66253818  0.32903497  0.32944146  1
  Sb  Sb80  1  0.33468187  0.50195347  0.49493470  1
  Sb  Sb81  1  0.00141615  0.66432183  0.67038743  1
  Sb  Sb82  1  0.00838682  0.49780032  0.83982147  1
  Sb  Sb83  1  0.83674683  0.00393780  0.83684261  1
  Sb  Sb84  1  0.83993704  0.66610260  0.83796690  1
  Sb  Sb85  1  0.49494257  0.16470793  -0.00082400  1
  Sb  Sb86  1  0.50197265  0.33504463  0.50070634  1
  Sb  Sb87  1  0.66828148  0.66359239  0.00399251  1
  Sb  Sb88  1  0.00025954  0.16149672  0.50484845  1
  Sb  Sb89  1  0.16215205  0.32717385  0.84438407  1
  Sb  Sb90  1  0.00557292  0.33300448  0.32871778  1
  Sb  Sb91  1  0.33086291  0.16836111  0.15952117  1
  Sb  Sb92  1  0.33051279  -0.00268113  0.32742625  1
  Sb  Sb93  1  0.50132545  0.32652555  0.83452865  1
  Sb  Sb94  1  0.16026154  -0.00189796  0.50075114  1
  Sb  Sb95  1  0.83847780  0.16340760  -0.00368088  1
  Sb  Sb96  1  0.16186455  0.83254821  0.32368125  1
  Sb  Sb97  1  0.16171176  0.66713585  0.50048527  1
  Sb  Sb98  1  0.49880756  0.83562095  0.00300693  1
  Sb  Sb99  1  0.83849704  0.15742151  0.33432000  1
  Sb  Sb100  1  0.83625638  0.33270015  0.16142683  1
  Sb  Sb101  1  0.66875333  0.00361959  0.00304340  1
  Sb  Sb102  1  0.84037395  0.50280150  0.00246236  1
  Sb  Sb103  1  0.49134336  0.67531043  0.84080325  1
  Sb  Sb104  1  0.49092774  0.50052664  0.00154063  1
  Sb  Sb105  1  0.50538234  0.67038559  0.49192319  1
  Sb  Sb106  1  0.66966282  0.16134338  0.50141176  1
  Sb  Sb107  1  0.83684642  0.49441742  0.66660159  1
  Te  Te108  1  0.16581535  0.16711972  0.16248037  1
  Te  Te109  1  0.16619824  0.16635011  0.49799302  1
  Te  Te110  1  0.16538685  0.16582877  0.83775028  1
  Te  Te111  1  0.16746275  0.50154865  0.16386761  1
  Te  Te112  1  0.16611900  0.50138492  0.49910053  1
  Te  Te113  1  0.16948542  0.49954272  0.83540691  1
  Te  Te114  1  0.16930371  0.84414779  0.15938828  1
  Te  Te115  1  0.16049609  0.83222122  0.50209378  1
  Te  Te116  1  0.16604155  0.83553233  0.83622250  1
  Te  Te117  1  0.50835149  0.16179825  0.16556057  1
  Te  Te118  1  0.49984015  0.16657876  0.49868520  1
  Te  Te119  1  0.50658719  0.15911973  0.83338827  1
  Te  Te120  1  0.50538057  0.50346168  0.16689306  1
  Te  Te121  1  0.50988927  0.50276657  0.49977725  1
  Te  Te122  1  0.49044275  0.50276602  0.83251559  1
  Te  Te123  1  0.50244215  0.83370130  0.16867313  1
  Te  Te124  1  0.50459133  0.83279645  0.49861778  1
  Te  Te125  1  0.49990163  0.83957324  0.83043381  1
  Te  Te126  1  0.82843897  0.16449666  0.16706486  1
  Te  Te127  1  0.83386980  0.16030491  0.50657578  1
  Te  Te128  1  0.83129492  0.16977112  0.83108132  1
  Te  Te129  1  0.82840561  0.50142787  0.16748193  1
  Te  Te130  1  0.82839473  0.50280874  0.49899343  1
  Te  Te131  1  0.83269322  0.49375862  0.83362192  1
  Te  Te132  1  0.83206642  0.83354007  0.16787767  1
  Te  Te133  1  0.83241744  0.83510320  0.50220087  1
  Te  Te134  1  0.83847759  0.83151166  0.83642658  1
  Te  Te135  1  0.16423571  -0.00128466  -0.00165567  1
  Te  Te136  1  0.16191035  0.00240213  0.33352390  1
  Te  Te137  1  0.16834238  0.00474586  0.66863616  1
  Te  Te138  1  0.16549403  0.34079979  0.00344233  1
  Te  Te139  1  0.16939528  0.33460084  0.32887974  1
  Te  Te140  1  0.16555443  0.33050220  0.66464003  1
  Te  Te141  1  0.16580549  0.66520634  -0.00200177  1
  Te  Te142  1  0.16349353  0.66495988  0.33426626  1
  Te  Te143  1  0.16684878  0.66111922  0.67275779  1
  Te  Te144  1  0.49872493  0.00002085  0.00081510  1
  Te  Te145  1  0.49975143  -0.00665952  0.32880825  1
  Te  Te146  1  0.50195490  -0.00334543  0.66681156  1
  Te  Te147  1  0.50951456  0.33303184  -0.00015403  1
  Te  Te148  1  0.49112283  0.33225243  0.33305312  1
  Te  Te149  1  0.50600522  0.33470854  0.66691941  1
  Te  Te150  1  0.49598256  0.66770498  0.00763491  1
  Te  Te151  1  0.49632489  0.67357733  0.32629980  1
  Te  Te152  1  0.49866455  0.67467567  0.66692858  1
  Te  Te153  1  0.83750927  -0.00343789  0.00548002  1
  Te  Te154  1  0.83471634  -0.00309805  0.33068077  1
  Te  Te155  1  0.83063015  0.00559217  0.66753752  1
  Te  Te156  1  0.83250558  0.33312575  -0.00394024  1
  Te  Te157  1  0.83367035  0.33123546  0.33453982  1
  Te  Te158  1  0.83243272  0.32873896  0.67059694  1
  Te  Te159  1  0.83891830  0.67091435  0.00449090  1
  Te  Te160  1  0.83785725  0.67171025  0.33143692  1
  Te  Te161  1  0.83403139  0.66448967  0.66349684  1
  Te  Te162  1  0.00302242  0.17198180  -0.00410013  1
  Te  Te163  1  0.00600118  0.16411519  0.33447626  1
  Te  Te164  1  0.00068383  0.16929363  0.67070337  1
  Te  Te165  1  0.00427753  0.49688557  0.00389812  1
  Te  Te166  1  0.00507403  0.50147087  0.32863326  1
  Te  Te167  1  0.00539246  0.49459822  0.66561896  1
  Te  Te168  1  0.00049024  0.83321444  -0.00050196  1
  Te  Te169  1  -0.00135848  0.83298105  0.33520089  1
  Te  Te170  1  -0.00055615  0.83327176  0.66750405  1
  Te  Te171  1  0.32938687  0.16875429  -0.00361973  1
  Te  Te172  1  0.32712701  0.16774671  0.33341619  1
  Te  Te173  1  0.33026696  0.16310504  0.67291486  1
  Te  Te174  1  0.33096312  0.49901745  0.00413923  1
  Te  Te175  1  0.33026532  0.50188425  0.32970390  1
  Te  Te176  1  0.32786332  0.49917030  0.66374636  1
  Te  Te177  1  0.33355268  0.83391447  -0.00423100  1
  Te  Te178  1  0.33117797  0.82760577  0.33490183  1
  Te  Te179  1  0.33627947  0.83773190  0.67173214  1
  Te  Te180  1  0.66838715  0.16971107  -0.00006835  1
  Te  Te181  1  0.66618761  0.15972644  0.33034023  1
  Te  Te182  1  0.66722813  0.16545764  0.66696569  1
  Te  Te183  1  0.66704767  0.49546961  0.00383265  1
  Te  Te184  1  0.66587651  0.49821857  0.33262795  1
  Te  Te185  1  0.66607888  0.49798473  0.66753038  1
  Te  Te186  1  0.67149037  0.83202088  0.00552085  1
  Te  Te187  1  0.66984168  0.83605662  0.33053223  1
  Te  Te188  1  0.66285799  0.83804445  0.66869322  1
  Te  Te189  1  0.00052510  0.00182160  0.16448411  1
  Te  Te190  1  -0.00617418  -0.00507273  0.49914626  1
  Te  Te191  1  0.00185593  0.00131209  0.83708802  1
  Te  Te192  1  0.00365872  0.33678170  0.16202717  1
  Te  Te193  1  -0.00195706  0.33454474  0.50615368  1
  Te  Te194  1  -0.00266080  0.33237121  0.83432150  1
  Te  Te195  1  -0.00220484  0.66400496  0.16507481  1
  Te  Te196  1  -0.00546622  0.67111683  0.49971258  1
  Te  Te197  1  0.00483460  0.66870815  0.83810720  1
  Te  Te198  1  0.33382902  0.00024183  0.16205346  1
  Te  Te199  1  0.33345438  -0.00086503  0.50313212  1
  Te  Te200  1  0.33192536  0.00091870  0.83531774  1
  Te  Te201  1  0.33102305  0.33504196  0.16331273  1
  Te  Te202  1  0.33441411  0.33358619  0.49547482  1
  Te  Te203  1  0.33611670  0.33740655  0.83920824  1
  Te  Te204  1  0.33198464  0.66406186  0.16483558  1
  Te  Te205  1  0.33493077  0.66748127  0.49540765  1
  Te  Te206  1  0.32873700  0.66230795  0.83844321  1
  Te  Te207  1  0.66695087  -0.00146866  0.16560710  1
  Te  Te208  1  0.67125232  -0.00477812  0.50117428  1
  Te  Te209  1  0.66911822  0.00425326  0.83091100  1
  Te  Te210  1  0.66655731  0.33684011  0.16466828  1
  Te  Te211  1  0.66722017  0.33645173  0.50146961  1
  Te  Te212  1  0.66800340  0.32874895  0.83313022  1
  Te  Te213  1  0.66835531  0.66466409  0.16645514  1
  Te  Te214  1  0.67234758  0.66950387  0.49839578  1
  Te  Te215  1  0.66532956  0.66505310  0.83443487  1
