# generated using pymatgen
data_AgSbTe2
_symmetry_space_group_name_H-M   'P 1'
_cell_length_a   18.34041965
_cell_length_b   18.33865758
_cell_length_c   18.34319149
_cell_angle_alpha   90.00003764
_cell_angle_beta   89.99811371
_cell_angle_gamma   89.99962323
_symmetry_Int_Tables_number   1
_chemical_formula_structural   AgSbTe2
_chemical_formula_sum   'Ag54 Sb54 Te108'
_cell_volume   6169.52473291
_cell_formula_units_Z   54
loop_
 _symmetry_equiv_pos_site_id
 _symmetry_equiv_pos_as_xyz
  1  'x, y, z'
loop_
 _atom_site_type_symbol
 _atom_site_label
 _atom_site_symmetry_multiplicity
 _atom_site_fract_x
 _atom_site_fract_y
 _atom_site_fract_z
 _atom_site_occupancy
  Ag  Ag0  1  -0.00739449  0.84255677  0.17206351  1
  Ag  Ag1  1  0.49582092  0.83996576  0.65531112  1
  Ag  Ag2  1  0.17693445  0.84387629  0.65770763  1
  Ag  Ag3  1  0.33640555  0.49884452  0.17553963  1
  Ag  Ag4  1  0.16740512  0.32686655  0.82916498  1
  Ag  Ag5  1  0.67147796  0.33180279  0.33204677  1
  Ag  Ag6  1  0.50109574  -0.00080676  0.17439430  1
  Ag  Ag7  1  0.33591026  0.84231992  0.18028943  1
  Ag  Ag8  1  0.82619015  0.16160940  -0.00555515  1
  Ag  Ag9  1  0.18050750  0.83759424  0.33741391  1
  Ag  Ag10  1  0.83029475  0.84093639  0.66497654  1
  Ag  Ag11  1  0.82320908  0.67050504  0.49950796  1
  Ag  Ag12  1  0.16550335  0.16264876  0.33305144  1
  Ag  Ag13  1  0.66318053  0.49894506  0.17612596  1
  Ag  Ag14  1  0.33557217  0.68281958  0.33676752  1
  Ag  Ag15  1  0.66714733  0.67425349  0.33799195  1
  Ag  Ag16  1  0.16759076  0.16142496  0.66527407  1
  Ag  Ag17  1  0.66796995  0.83678404  0.17377409  1
  Ag  Ag18  1  0.82810121  0.32667034  0.17255403  1
  Ag  Ag19  1  0.83079722  0.68055679  0.82393233  1
  Ag  Ag20  1  -0.00390428  0.67368298  0.33381981  1
  Ag  Ag21  1  0.34052254  -0.00546199  0.34073620  1
  Ag  Ag22  1  0.17320676  0.50364745  0.33630053  1
  Ag  Ag23  1  0.33082702  0.16265784  0.16772817  1
  Ag  Ag24  1  0.49617438  -0.00569986  0.50287119  1
  Ag  Ag25  1  0.83189785  0.16220433  0.33175979  1
  Ag  Ag26  1  0.82698307  0.33264554  0.49557751  1
  Ag  Ag27  1  0.33300052  0.84254127  0.82211480  1
  Ag  Ag28  1  -0.00097354  0.16232227  0.16712347  1
  Ag  Ag29  1  0.82801778  0.83584355  0.33524828  1
  Ag  Ag30  1  -0.00410966  0.16320205  0.83238459  1
  Ag  Ag31  1  0.66891853  0.32921873  0.66417815  1
  Ag  Ag32  1  0.66986162  0.66889134  0.65451432  1
  Ag  Ag33  1  0.33624562  0.50742987  0.49260384  1
  Ag  Ag34  1  0.83077949  0.84118277  0.00335193  1
  Ag  Ag35  1  0.33623328  0.83521917  0.49494663  1
  Ag  Ag36  1  0.00563593  0.00065402  0.66762307  1
  Ag  Ag37  1  0.50517625  0.67579845  0.49716178  1
  Ag  Ag38  1  0.82942554  0.15970197  0.67272434  1
  Ag  Ag39  1  0.33588348  -0.00177126  0.65972951  1
  Ag  Ag40  1  0.50143013  0.15688223  0.67151906  1
  Ag  Ag41  1  0.33793097  0.15855557  0.83197360  1
  Ag  Ag42  1  0.66518519  0.00385415  0.00271646  1
  Ag  Ag43  1  0.66913546  0.32037622  0.00492457  1
  Ag  Ag44  1  0.16970263  0.49640265  0.65678482  1
  Ag  Ag45  1  0.66104996  -0.00887678  0.32958833  1
  Ag  Ag46  1  0.66398713  0.50496128  0.49513428  1
  Ag  Ag47  1  0.49469215  0.83672470  0.33827455  1
  Ag  Ag48  1  0.82670468  0.00174119  0.82827240  1
  Ag  Ag49  1  0.16584386  0.32931543  0.16925393  1
  Ag  Ag50  1  0.50311239  0.00316458  0.82481395  1
  Ag  Ag51  1  0.66905775  0.16341804  0.83436704  1
  Ag  Ag52  1  0.17515848  -0.00168835  0.50098182  1
  Ag  Ag53  1  0.50882373  0.16073776  -0.00637824  1
  Sb  Sb54  1  -0.00326248  0.33299873  0.33212640  1
  Sb  Sb55  1  0.16474542  0.83601672  0.00455032  1
  Sb  Sb56  1  -0.00909756  0.00219693  -0.00423734  1
  Sb  Sb57  1  0.66810932  0.67080031  0.00186936  1
  Sb  Sb58  1  0.00010249  -0.00336533  0.33605060  1
  Sb  Sb59  1  -0.00034839  0.49457387  0.82933207  1
  Sb  Sb60  1  0.16764301  0.66525379  0.17280680  1
  Sb  Sb61  1  -0.00004784  0.49796333  0.17137389  1
  Sb  Sb62  1  0.49750740  0.50169816  0.66363862  1
  Sb  Sb63  1  0.33992329  0.00124162  0.00027659  1
  Sb  Sb64  1  0.17121484  0.00619362  0.82413416  1
  Sb  Sb65  1  0.66837418  0.16402702  0.16375963  1
  Sb  Sb66  1  0.66727366  0.16918771  0.50348337  1
  Sb  Sb67  1  0.16350459  0.66674936  0.82639455  1
  Sb  Sb68  1  0.16886956  0.49621459  0.00531864  1
  Sb  Sb69  1  0.16896476  0.67110877  0.49694562  1
  Sb  Sb70  1  0.33753510  0.67564514  0.65901986  1
  Sb  Sb71  1  0.82894271  -0.00275218  0.50229612  1
  Sb  Sb72  1  0.50521527  0.84130289  0.00281682  1
  Sb  Sb73  1  0.33512577  0.66996398  0.00790696  1
  Sb  Sb74  1  0.33132736  0.49938423  0.82963578  1
  Sb  Sb75  1  0.50279974  0.15753727  0.33398616  1
  Sb  Sb76  1  0.17353588  0.00406497  0.17528680  1
  Sb  Sb77  1  0.33311040  0.16035950  0.49925490  1
  Sb  Sb78  1  0.16408433  0.33076260  0.49850466  1
  Sb  Sb79  1  0.00028056  0.83974406  0.83341796  1
  Sb  Sb80  1  0.50494648  0.67932574  0.82391348  1
  Sb  Sb81  1  0.50334720  0.32528196  0.16820083  1
  Sb  Sb82  1  0.49792958  0.50676433  0.33459692  1
  Sb  Sb83  1  -0.00018092  0.50272546  0.49812039  1
  Sb  Sb84  1  -0.00558227  0.67444754  0.66089650  1
  Sb  Sb85  1  0.49866465  0.32222586  0.83223474  1
  Sb  Sb86  1  -0.00603838  0.32895889  0.00134536  1
  Sb  Sb87  1  -0.00118014  0.16359339  0.50002784  1
  Sb  Sb88  1  0.82993017  0.49753299  0.00261767  1
  Sb  Sb89  1  0.82841761  0.00245618  0.16543502  1
  Sb  Sb90  1  0.33736889  0.32931860  0.00193551  1
  Sb  Sb91  1  0.83125583  0.66922565  0.17159229  1
  Sb  Sb92  1  -0.00384296  0.67161830  0.00539012  1
  Sb  Sb93  1  0.00357783  0.83432588  0.49387685  1
  Sb  Sb94  1  0.83387909  0.32486612  0.83237230  1
  Sb  Sb95  1  0.66172634  -0.00106359  0.66448291  1
  Sb  Sb96  1  0.83055639  0.50081612  0.33439726  1
  Sb  Sb97  1  -0.00263155  0.32397829  0.66709361  1
  Sb  Sb98  1  0.50450503  0.33145091  0.49943030  1
  Sb  Sb99  1  0.16608788  0.16562863  -0.00028082  1
  Sb  Sb100  1  0.66685569  0.49543960  0.83017945  1
  Sb  Sb101  1  0.33557555  0.32529264  0.66525805  1
  Sb  Sb102  1  0.83439246  0.49891913  0.66380828  1
  Sb  Sb103  1  0.50061768  0.67539340  0.17379573  1
  Sb  Sb104  1  0.65987771  0.82921383  0.49398633  1
  Sb  Sb105  1  0.66771493  0.84135797  0.83446753  1
  Sb  Sb106  1  0.50278932  0.49161154  0.00362484  1
  Sb  Sb107  1  0.33590699  0.32869779  0.33299932  1
  Te  Te108  1  0.16745582  0.16855642  0.16637768  1
  Te  Te109  1  0.16610804  0.16356964  0.49872306  1
  Te  Te110  1  0.16701956  0.16807227  0.83306496  1
  Te  Te111  1  0.16931259  0.49473291  0.17236354  1
  Te  Te112  1  0.16939746  0.49871513  0.49732241  1
  Te  Te113  1  0.16671198  0.49353462  0.83137768  1
  Te  Te114  1  0.17217618  0.83332722  0.17211496  1
  Te  Te115  1  0.16992550  0.83588218  0.49893908  1
  Te  Te116  1  0.17052169  0.83319371  0.83219696  1
  Te  Te117  1  0.49373360  0.16064479  0.16717300  1
  Te  Te118  1  0.49904306  0.16315586  0.50703760  1
  Te  Te119  1  0.49801793  0.16289830  0.83162043  1
  Te  Te120  1  0.50017268  0.49941033  0.16728582  1
  Te  Te121  1  0.49995971  0.50223465  0.50086176  1
  Te  Te122  1  0.49824429  0.50227615  0.83400484  1
  Te  Te123  1  0.49943542  0.83867702  0.16909390  1
  Te  Te124  1  0.49689529  0.83370743  0.49922194  1
  Te  Te125  1  0.49604745  0.84078056  0.83354925  1
  Te  Te126  1  0.83451286  0.16786116  0.17143090  1
  Te  Te127  1  0.83390981  0.16827010  0.49591071  1
  Te  Te128  1  0.83248478  0.16502385  0.83243572  1
  Te  Te129  1  0.82900441  0.49291733  0.16652112  1
  Te  Te130  1  0.82847753  0.49850681  0.50016340  1
  Te  Te131  1  0.83374783  0.50352976  0.83356315  1
  Te  Te132  1  0.83115044  0.83355118  0.17027826  1
  Te  Te133  1  0.83574189  0.83172179  0.50097056  1
  Te  Te134  1  0.83474369  0.83832237  0.82949043  1
  Te  Te135  1  0.16448853  -0.00068116  -0.00089684  1
  Te  Te136  1  0.16619356  0.00019209  0.33824885  1
  Te  Te137  1  0.17031166  0.00072372  0.66460169  1
  Te  Te138  1  0.16616174  0.33280697  0.00495473  1
  Te  Te139  1  0.16632219  0.32587567  0.33106494  1
  Te  Te140  1  0.16622915  0.32838637  0.66630422  1
  Te  Te141  1  0.16547845  0.66568994  -0.00243913  1
  Te  Te142  1  0.17240903  0.67052313  0.33485833  1
  Te  Te143  1  0.16479953  0.66736595  0.66425737  1
  Te  Te144  1  0.50561003  0.00379763  -0.00197498  1
  Te  Te145  1  0.50005356  -0.00232520  0.33417851  1
  Te  Te146  1  0.49951878  -0.00096568  0.66537088  1
  Te  Te147  1  0.50830166  0.32356251  -0.00038442  1
  Te  Te148  1  0.50957790  0.33119589  0.33384366  1
  Te  Te149  1  0.50649056  0.33007312  0.66711797  1
  Te  Te150  1  0.50106360  0.66552920  -0.00229164  1
  Te  Te151  1  0.50033534  0.67247327  0.33713197  1
  Te  Te152  1  0.50623849  0.67145682  0.65994912  1
  Te  Te153  1  0.82683180  0.00083956  -0.00226500  1
  Te  Te154  1  0.83207209  0.00083459  0.33471583  1
  Te  Te155  1  0.82948606  0.00082448  0.66656272  1
  Te  Te156  1  0.82744130  0.32924380  0.00245386  1
  Te  Te157  1  0.83184336  0.33424598  0.33314401  1
  Te  Te158  1  0.82978407  0.33050240  0.66472243  1
  Te  Te159  1  0.83296999  0.67181265  -0.00387650  1
  Te  Te160  1  0.82943290  0.66715928  0.33568194  1
  Te  Te161  1  0.83084411  0.66557039  0.66448471  1
  Te  Te162  1  -0.00747527  0.16641666  0.00120587  1
  Te  Te163  1  -0.00045950  0.16564425  0.32912408  1
  Te  Te164  1  0.00069125  0.16152884  0.66871459  1
  Te  Te165  1  -0.00006649  0.50147489  -0.00006316  1
  Te  Te166  1  0.01097256  0.50765963  0.33309014  1
  Te  Te167  1  0.01046300  0.50130419  0.66579730  1
  Te  Te168  1  -0.00689011  0.83546434  0.00877853  1
  Te  Te169  1  -0.00939873  0.83175495  0.32904608  1
  Te  Te170  1  -0.00334203  0.83900963  0.66738554  1
  Te  Te171  1  0.33593128  0.16684705  -0.00132876  1
  Te  Te172  1  0.33067592  0.16166844  0.33034723  1
  Te  Te173  1  0.33117811  0.16223244  0.66811266  1
  Te  Te174  1  0.33456702  0.50041789  0.00840464  1
  Te  Te175  1  0.33203068  0.49446663  0.33287140  1
  Te  Te176  1  0.32892649  0.50029882  0.66417355  1
  Te  Te177  1  0.33332007  0.83303775  0.00127404  1
  Te  Te178  1  0.33529610  0.83797172  0.33508514  1
  Te  Te179  1  0.33463971  0.83598270  0.66491461  1
  Te  Te180  1  0.66836863  0.16443945  0.00012186  1
  Te  Te181  1  0.66945414  0.16963177  0.33350761  1
  Te  Te182  1  0.66845939  0.16570353  0.66949633  1
  Te  Te183  1  0.66641762  0.49693313  0.00462230  1
  Te  Te184  1  0.66525629  0.49875018  0.33451019  1
  Te  Te185  1  0.66573152  0.50009266  0.66275998  1
  Te  Te186  1  0.67196148  0.83744481  0.00550369  1
  Te  Te187  1  0.66909918  0.83232517  0.33230719  1
  Te  Te188  1  0.66990368  0.83036658  0.67069464  1
  Te  Te189  1  0.00248174  0.00124008  0.16644429  1
  Te  Te190  1  0.00589324  -0.00029703  0.50757343  1
  Te  Te191  1  -0.00540945  0.00492226  0.82868101  1
  Te  Te192  1  0.00052908  0.32868794  0.16649794  1
  Te  Te193  1  -0.01002033  0.33470478  0.50020156  1
  Te  Te194  1  0.00602924  0.32621050  0.83451765  1
  Te  Te195  1  -0.00025052  0.67084026  0.17322084  1
  Te  Te196  1  -0.00933637  0.66714279  0.49314478  1
  Te  Te197  1  -0.00741852  0.66639274  0.83331245  1
  Te  Te198  1  0.33773708  0.00077612  0.16615379  1
  Te  Te199  1  0.33477799  -0.00087185  0.50004445  1
  Te  Te200  1  0.33577115  0.00081714  0.83452638  1
  Te  Te201  1  0.33104423  0.33178268  0.16691808  1
  Te  Te202  1  0.33324591  0.34400645  0.50027582  1
  Te  Te203  1  0.32726260  0.33012108  0.83378978  1
  Te  Te204  1  0.33417726  0.66316943  0.17449334  1
  Te  Te205  1  0.33461514  0.66738628  0.49593680  1
  Te  Te206  1  0.33436029  0.66970905  0.83416753  1
  Te  Te207  1  0.66325475  -0.00237473  0.16934910  1
  Te  Te208  1  0.66116321  0.00167002  0.49125943  1
  Te  Te209  1  0.66621390  0.00391774  0.83360710  1
  Te  Te210  1  0.66760966  0.33323106  0.16794357  1
  Te  Te211  1  0.66835320  0.33702387  0.50034650  1
  Te  Te212  1  0.66669776  0.32814476  0.83017546  1
  Te  Te213  1  0.66582334  0.66380062  0.17005675  1
  Te  Te214  1  0.66587998  0.66641517  0.49815560  1
  Te  Te215  1  0.67232487  0.66484784  0.83333256  1
