# generated using pymatgen
data_AgSbTe2
_symmetry_space_group_name_H-M   'P 1'
_cell_length_a   18.33454574
_cell_length_b   18.33696801
_cell_length_c   18.33446303
_cell_angle_alpha   90.00086840
_cell_angle_beta   90.00256664
_cell_angle_gamma   89.99808711
_symmetry_Int_Tables_number   1
_chemical_formula_structural   AgSbTe2
_chemical_formula_sum   'Ag54 Sb54 Te108'
_cell_volume   6164.04606986
_cell_formula_units_Z   54
loop_
 _symmetry_equiv_pos_site_id
 _symmetry_equiv_pos_as_xyz
  1  'x, y, z'
loop_
 _atom_site_type_symbol
 _atom_site_label
 _atom_site_symmetry_multiplicity
 _atom_site_fract_x
 _atom_site_fract_y
 _atom_site_fract_z
 _atom_site_occupancy
  Ag  Ag0  1  0.50674977  0.34238228  0.49262883  1
  Ag  Ag1  1  0.83231646  0.82930188  0.00815926  1
  Ag  Ag2  1  0.50318321  0.17575874  0.00173950  1
  Ag  Ag3  1  0.66696362  0.49674618  0.48849641  1
  Ag  Ag4  1  0.34826512  0.50789538  0.49636999  1
  Ag  Ag5  1  0.16383285  0.49542004  -0.00052615  1
  Ag  Ag6  1  -0.00302669  0.66941491  0.66760242  1
  Ag  Ag7  1  0.34051225  0.67581333  0.33426052  1
  Ag  Ag8  1  0.00073243  0.15828054  0.84308555  1
  Ag  Ag9  1  0.67029529  0.49678099  0.17017736  1
  Ag  Ag10  1  -0.00391937  -0.00143028  0.33214246  1
  Ag  Ag11  1  0.82217228  0.34453402  0.16696250  1
  Ag  Ag12  1  -0.00115472  0.84629484  0.83343847  1
  Ag  Ag13  1  -0.01365807  0.50118024  0.49270707  1
  Ag  Ag14  1  0.82944827  0.50444440  0.01377115  1
  Ag  Ag15  1  -0.00895574  0.33927369  0.32946374  1
  Ag  Ag16  1  -0.00535660  -0.00187771  0.67854845  1
  Ag  Ag17  1  0.34410027  0.83320520  0.17697387  1
  Ag  Ag18  1  0.50865618  0.50481289  0.33020988  1
  Ag  Ag19  1  0.82622362  0.50415221  0.32857912  1
  Ag  Ag20  1  0.66876271  0.33995056  0.32856559  1
  Ag  Ag21  1  0.33696729  -0.00967643  0.33316896  1
  Ag  Ag22  1  0.32789812  -0.00024346  0.00003135  1
  Ag  Ag23  1  0.66363989  0.33679741  0.01422422  1
  Ag  Ag24  1  -0.01489202  0.49511156  0.17109958  1
  Ag  Ag25  1  0.49434406  0.82334412  0.33360923  1
  Ag  Ag26  1  0.82556181  0.66167680  0.48926840  1
  Ag  Ag27  1  0.16435109  0.33134398  0.83701943  1
  Ag  Ag28  1  0.82720877  0.65700254  0.17135300  1
  Ag  Ag29  1  0.50536587  0.33356563  0.84205575  1
  Ag  Ag30  1  0.66784246  0.33206185  0.66064420  1
  Ag  Ag31  1  0.66742325  -0.00028564  0.33384523  1
  Ag  Ag32  1  0.83015529  0.16760724  0.66745007  1
  Ag  Ag33  1  0.16347847  0.67083408  0.83503024  1
  Ag  Ag34  1  0.67246794  0.00375931  0.66128951  1
  Ag  Ag35  1  -0.00811436  0.16995100  0.16344909  1
  Ag  Ag36  1  0.66761226  0.17715112  0.49281299  1
  Ag  Ag37  1  0.50628423  0.66177930  0.48821037  1
  Ag  Ag38  1  0.50061167  0.83375669  0.65765588  1
  Ag  Ag39  1  0.00129245  0.00292176  -0.00999784  1
  Ag  Ag40  1  0.83199199  0.49865347  0.65753891  1
  Ag  Ag41  1  0.33574542  -0.00254092  0.66653070  1
  Ag  Ag42  1  0.33797012  0.82945524  0.48836938  1
  Ag  Ag43  1  0.82952324  0.82625958  0.32712114  1
  Ag  Ag44  1  0.67093656  0.18143405  0.17020472  1
  Ag  Ag45  1  0.51049645  0.34234778  0.16597381  1
  Ag  Ag46  1  0.15459539  -0.00022583  0.83574427  1
  Ag  Ag47  1  0.51213846  0.49526141  0.01182472  1
  Ag  Ag48  1  0.66833300  0.65345585  0.00817509  1
  Ag  Ag49  1  0.18216316  0.83441087  0.33202848  1
  Ag  Ag50  1  0.66639876  0.82484726  0.17022556  1
  Ag  Ag51  1  0.84210545  -0.00057558  0.83213672  1
  Ag  Ag52  1  0.51111552  0.66184369  0.17186212  1
  Ag  Ag53  1  0.16510165  0.16795976  -0.00224850  1
  Sb  Sb54  1  0.34167445  0.32980462  0.66587984  1
  Sb  Sb55  1  0.16858337  0.83514602  0.66450808  1
  Sb  Sb56  1  -0.00121331  0.49743971  0.83634196  1
  Sb  Sb57  1  0.66909346  0.00380175  0.00318053  1
  Sb  Sb58  1  0.83172000  -0.00464325  0.50140452  1
  Sb  Sb59  1  0.83104140  0.83288520  0.66546619  1
  Sb  Sb60  1  0.16407468  0.66646527  0.16405416  1
  Sb  Sb61  1  0.67058020  0.66656884  0.66790109  1
  Sb  Sb62  1  0.33681397  0.16196206  0.16464828  1
  Sb  Sb63  1  0.16061128  0.50086462  0.67047724  1
  Sb  Sb64  1  -0.00187003  0.66650771  0.33548917  1
  Sb  Sb65  1  0.50755616  0.16451083  0.66971550  1
  Sb  Sb66  1  0.66716379  0.49779699  0.83885176  1
  Sb  Sb67  1  0.16890442  0.33632422  0.50284820  1
  Sb  Sb68  1  0.82465781  0.34269471  0.49213354  1
  Sb  Sb69  1  0.33935759  0.33179590  0.00066580  1
  Sb  Sb70  1  0.33954195  0.33470851  0.33371839  1
  Sb  Sb71  1  0.67127543  0.16777225  0.83528656  1
  Sb  Sb72  1  0.16263975  0.83527942  0.00195805  1
  Sb  Sb73  1  0.66293930  0.82873298  0.49098976  1
  Sb  Sb74  1  0.16470043  0.33415619  0.16225272  1
  Sb  Sb75  1  0.83328913  0.16714391  0.00007394  1
  Sb  Sb76  1  0.16571107  -0.00103329  0.16239210  1
  Sb  Sb77  1  0.83713057  0.66913662  0.83566289  1
  Sb  Sb78  1  -0.00429499  0.83414050  0.16554745  1
  Sb  Sb79  1  0.15895037  0.16464563  0.67360945  1
  Sb  Sb80  1  0.16718603  0.00000801  0.50192523  1
  Sb  Sb81  1  0.50084386  0.00387965  0.83340074  1
  Sb  Sb82  1  0.16522690  0.50381946  0.32912345  1
  Sb  Sb83  1  0.50157803  -0.00164403  0.16814455  1
  Sb  Sb84  1  0.32827011  0.16478780  0.83465391  1
  Sb  Sb85  1  0.34072518  0.50539400  0.17028360  1
  Sb  Sb86  1  0.16686148  0.66602193  0.50121937  1
  Sb  Sb87  1  -0.00511810  0.66803852  -0.00224317  1
  Sb  Sb88  1  0.34341005  0.16383017  0.49897313  1
  Sb  Sb89  1  0.50426230  0.16788590  0.32904973  1
  Sb  Sb90  1  0.33643639  0.67041604  0.00632535  1
  Sb  Sb91  1  0.16305473  0.16102937  0.32629097  1
  Sb  Sb92  1  0.32892216  0.83532898  0.83375529  1
  Sb  Sb93  1  0.66227607  0.66313228  0.32561849  1
  Sb  Sb94  1  0.49678820  0.66257323  0.83577798  1
  Sb  Sb95  1  -0.00438036  0.33093577  0.00454144  1
  Sb  Sb96  1  0.50197814  -0.00384505  0.49918262  1
  Sb  Sb97  1  -0.00774709  0.33335961  0.66356808  1
  Sb  Sb98  1  -0.00795391  0.17032296  0.49805729  1
  Sb  Sb99  1  0.50715513  0.50222358  0.66082446  1
  Sb  Sb100  1  0.83249793  0.33084119  0.83694537  1
  Sb  Sb101  1  0.67133405  0.83557858  0.83619585  1
  Sb  Sb102  1  0.50508993  0.83232543  0.00541621  1
  Sb  Sb103  1  0.00130561  0.83012423  0.50116633  1
  Sb  Sb104  1  0.83045147  0.16907070  0.33536045  1
  Sb  Sb105  1  0.83315068  -0.00027761  0.16561611  1
  Sb  Sb106  1  0.33119011  0.67011138  0.66008632  1
  Sb  Sb107  1  0.33312312  0.49948675  0.83109330  1
  Te  Te108  1  0.16243764  0.16669145  0.15856487  1
  Te  Te109  1  0.16821413  0.16902299  0.49989894  1
  Te  Te110  1  0.16224396  0.16468560  0.83803558  1
  Te  Te111  1  0.16838506  0.50018035  0.15997904  1
  Te  Te112  1  0.16487110  0.49981950  0.50057166  1
  Te  Te113  1  0.16630141  0.49634140  0.83803822  1
  Te  Te114  1  0.16746482  0.83178978  0.17143787  1
  Te  Te115  1  0.17266548  0.83314422  0.49369699  1
  Te  Te116  1  0.16127877  0.83527080  0.83372394  1
  Te  Te117  1  0.50431235  0.16913214  0.16184112  1
  Te  Te118  1  0.50825227  0.17411575  0.50079882  1
  Te  Te119  1  0.49908189  0.17234978  0.83930739  1
  Te  Te120  1  0.50108596  0.50179707  0.16916292  1
  Te  Te121  1  0.50480715  0.50166411  0.49909711  1
  Te  Te122  1  0.49822651  0.49453870  0.83699144  1
  Te  Te123  1  0.50316533  0.83075339  0.16958272  1
  Te  Te124  1  0.49783502  0.82979896  0.49695435  1
  Te  Te125  1  0.49994113  0.83269058  0.83143269  1
  Te  Te126  1  0.83227739  0.16892756  0.16739357  1
  Te  Te127  1  0.82627066  0.16635676  0.50627205  1
  Te  Te128  1  0.83876582  0.16322205  0.83093164  1
  Te  Te129  1  0.83042528  0.50020637  0.16897019  1
  Te  Te130  1  0.82995339  0.50241377  0.49763225  1
  Te  Te131  1  0.83433155  0.49998185  0.82836399  1
  Te  Te132  1  0.83113804  0.83324790  0.16660333  1
  Te  Te133  1  0.83317173  0.82344321  0.49539148  1
  Te  Te134  1  0.83847036  0.83699745  0.83425282  1
  Te  Te135  1  0.16439659  0.00066842  -0.00346395  1
  Te  Te136  1  0.16498099  -0.00535806  0.33375841  1
  Te  Te137  1  0.16169742  0.00046332  0.67161072  1
  Te  Te138  1  0.16756504  0.33215973  -0.00371079  1
  Te  Te139  1  0.16496524  0.33185544  0.33338893  1
  Te  Te140  1  0.16775286  0.33254370  0.67390307  1
  Te  Te141  1  0.16710487  0.66417050  -0.00406462  1
  Te  Te142  1  0.17160108  0.67189342  0.33247984  1
  Te  Te143  1  0.16056288  0.66714184  0.67281134  1
  Te  Te144  1  0.49696945  0.00281901  -0.00038446  1
  Te  Te145  1  0.50152219  -0.00208650  0.33389383  1
  Te  Te146  1  0.49949614  -0.00360280  0.66666544  1
  Te  Te147  1  0.50117558  0.33543655  0.00167216  1
  Te  Te148  1  0.50340773  0.33508070  0.33223751  1
  Te  Te149  1  0.50607570  0.33317219  0.66795700  1
  Te  Te150  1  0.50372699  0.66202960  0.00351006  1
  Te  Te151  1  0.49988037  0.66571751  0.33212407  1
  Te  Te152  1  0.49960656  0.67212729  0.66697222  1
  Te  Te153  1  0.83672555  -0.00153218  -0.00434929  1
  Te  Te154  1  0.83103221  -0.00102494  0.33403462  1
  Te  Te155  1  0.83364668  -0.00157236  0.66809818  1
  Te  Te156  1  0.82785664  0.33703962  0.00374327  1
  Te  Te157  1  0.83241503  0.33513085  0.32782070  1
  Te  Te158  1  0.82880009  0.33356434  0.66864302  1
  Te  Te159  1  0.83016698  0.66643347  0.00223959  1
  Te  Te160  1  0.83484058  0.66438118  0.33185256  1
  Te  Te161  1  0.83718040  0.66425247  0.66788760  1
  Te  Te162  1  0.00015048  0.16480893  0.00242887  1
  Te  Te163  1  -0.00114630  0.16453655  0.32945876  1
  Te  Te164  1  -0.00740934  0.16294409  0.66526474  1
  Te  Te165  1  -0.00256583  0.49938725  0.00433230  1
  Te  Te166  1  0.00094441  0.49949208  0.33205059  1
  Te  Te167  1  -0.00528708  0.50081723  0.66338260  1
  Te  Te168  1  -0.00461382  0.83741112  -0.00288050  1
  Te  Te169  1  -0.01025063  0.83541711  0.33348647  1
  Te  Te170  1  0.00000308  0.83524562  0.66863091  1
  Te  Te171  1  0.33072622  0.15987292  0.00113273  1
  Te  Te172  1  0.33262499  0.15686548  0.33309154  1
  Te  Te173  1  0.33273285  0.15787571  0.66519198  1
  Te  Te174  1  0.32915196  0.50123230  0.00030002  1
  Te  Te175  1  0.33328820  0.50157121  0.33784126  1
  Te  Te176  1  0.33321718  0.50015668  0.65866723  1
  Te  Te177  1  0.33338809  0.83896576  0.00262105  1
  Te  Te178  1  0.33814923  0.83510816  0.33260441  1
  Te  Te179  1  0.33663139  0.83775727  0.66625525  1
  Te  Te180  1  0.66407358  0.17101359  0.00531360  1
  Te  Te181  1  0.66651057  0.16338058  0.33152084  1
  Te  Te182  1  0.67042389  0.16435418  0.66802251  1
  Te  Te183  1  0.66841787  0.49637894  0.00153291  1
  Te  Te184  1  0.66618063  0.50016068  0.33129458  1
  Te  Te185  1  0.67169127  0.49879542  0.66785816  1
  Te  Te186  1  0.67239465  0.83615142  0.00423899  1
  Te  Te187  1  0.66994545  0.83713845  0.33132566  1
  Te  Te188  1  0.66278964  0.83606250  0.66681790  1
  Te  Te189  1  -0.00052418  0.00309932  0.17262391  1
  Te  Te190  1  -0.00016079  0.00059109  0.49254967  1
  Te  Te191  1  -0.00091996  0.00244307  0.83378499  1
  Te  Te192  1  0.00031299  0.33322054  0.17023329  1
  Te  Te193  1  0.00077961  0.33885345  0.49385158  1
  Te  Te194  1  0.00270619  0.32820446  0.83284709  1
  Te  Te195  1  -0.00484774  0.66182259  0.16643933  1
  Te  Te196  1  -0.00103367  0.66227647  0.50478755  1
  Te  Te197  1  0.00421702  0.66536799  0.82977759  1
  Te  Te198  1  0.33316684  -0.00537188  0.16735420  1
  Te  Te199  1  0.33444834  -0.00406642  0.50066353  1
  Te  Te200  1  0.33244035  -0.00038783  0.83237389  1
  Te  Te201  1  0.33906701  0.33155701  0.16824012  1
  Te  Te202  1  0.34068742  0.33667438  0.50051335  1
  Te  Te203  1  0.33176685  0.33244680  0.83200311  1
  Te  Te204  1  0.33380769  0.67266892  0.17195239  1
  Te  Te205  1  0.33488527  0.66777428  0.49688556  1
  Te  Te206  1  0.32518957  0.66708302  0.83319813  1
  Te  Te207  1  0.66696103  -0.00390748  0.17112294  1
  Te  Te208  1  0.66693950  0.00156980  0.50034739  1
  Te  Te209  1  0.66952935  0.00078065  0.82841459  1
  Te  Te210  1  0.66569707  0.33631931  0.17014564  1
  Te  Te211  1  0.66584524  0.33528425  0.49889270  1
  Te  Te212  1  0.66438538  0.33195819  0.82512834  1
  Te  Te213  1  0.66772411  0.66736079  0.16416017  1
  Te  Te214  1  0.66617225  0.66126448  0.50438559  1
  Te  Te215  1  0.66526128  0.66797708  0.84280759  1
