# generated using pymatgen
data_AgSbTe2
_symmetry_space_group_name_H-M   'P 1'
_cell_length_a   18.34801651
_cell_length_b   18.35002617
_cell_length_c   18.34076461
_cell_angle_alpha   89.99928986
_cell_angle_beta   90.00014617
_cell_angle_gamma   90.00096379
_symmetry_Int_Tables_number   1
_chemical_formula_structural   AgSbTe2
_chemical_formula_sum   'Ag54 Sb54 Te108'
_cell_volume   6175.08937018
_cell_formula_units_Z   54
loop_
 _symmetry_equiv_pos_site_id
 _symmetry_equiv_pos_as_xyz
  1  'x, y, z'
loop_
 _atom_site_type_symbol
 _atom_site_label
 _atom_site_symmetry_multiplicity
 _atom_site_fract_x
 _atom_site_fract_y
 _atom_site_fract_z
 _atom_site_occupancy
  Ag  Ag0  1  0.33786764  0.50876798  0.49863371  1
  Ag  Ag1  1  0.67032793  0.50245881  0.83288487  1
  Ag  Ag2  1  0.49602194  0.83644458  -0.00691095  1
  Ag  Ag3  1  0.84243011  0.83511141  0.66777020  1
  Ag  Ag4  1  -0.00558091  -0.01253922  0.34257892  1
  Ag  Ag5  1  0.33301217  0.83025919  0.50293520  1
  Ag  Ag6  1  0.83426958  0.66850796  0.83379374  1
  Ag  Ag7  1  0.83522886  0.66459541  0.17668553  1
  Ag  Ag8  1  0.15601542  0.83735789  0.66659040  1
  Ag  Ag9  1  0.33771855  0.33482551  0.00278660  1
  Ag  Ag10  1  0.67092036  -0.00389986  0.66353473  1
  Ag  Ag11  1  -0.00129543  0.67944287  0.65997016  1
  Ag  Ag12  1  0.00690486  -0.01060585  0.66210168  1
  Ag  Ag13  1  0.67107761  0.50013309  0.17210186  1
  Ag  Ag14  1  0.83266031  -0.00812772  0.17081161  1
  Ag  Ag15  1  0.17337978  0.33179447  0.49779150  1
  Ag  Ag16  1  0.50357914  0.50096297  0.33915717  1
  Ag  Ag17  1  0.15895869  0.66926585  0.18101150  1
  Ag  Ag18  1  0.49379665  0.33805926  0.49432992  1
  Ag  Ag19  1  0.50596540  0.33613059  0.82786986  1
  Ag  Ag20  1  0.34160042  0.33844798  0.33732367  1
  Ag  Ag21  1  0.82696560  0.51299226  0.32850212  1
  Ag  Ag22  1  0.82775811  0.34288342  0.16843268  1
  Ag  Ag23  1  0.49372517  0.67103899  0.49668717  1
  Ag  Ag24  1  0.83170829  0.50052017  0.00193850  1
  Ag  Ag25  1  0.33264859  0.83298628  0.81911397  1
  Ag  Ag26  1  0.00617162  0.83193612  0.50933543  1
  Ag  Ag27  1  0.49821469  0.16923159  0.00280793  1
  Ag  Ag28  1  0.31964574  -0.00667048  0.66397562  1
  Ag  Ag29  1  0.83542065  0.15030288  0.67023583  1
  Ag  Ag30  1  -0.00340659  0.66943576  0.33880544  1
  Ag  Ag31  1  0.16253944  0.15075110  0.65714695  1
  Ag  Ag32  1  0.50383312  0.33519589  0.17450426  1
  Ag  Ag33  1  0.33740419  0.66436451  0.34019179  1
  Ag  Ag34  1  -0.00451397  0.83129876  0.82327051  1
  Ag  Ag35  1  0.67130630  0.83096844  0.82809319  1
  Ag  Ag36  1  0.83148658  0.82937881  0.33888870  1
  Ag  Ag37  1  0.66453361  0.33450590  0.66940213  1
  Ag  Ag38  1  0.16936202  0.16769652  0.34011963  1
  Ag  Ag39  1  0.50161574  0.50424898  0.65621154  1
  Ag  Ag40  1  -0.01260944  0.50865571  0.82972083  1
  Ag  Ag41  1  0.17178499  0.83331431  -0.01461704  1
  Ag  Ag42  1  0.49491680  -0.01210788  0.50067434  1
  Ag  Ag43  1  0.49936183  0.83401803  0.66266516  1
  Ag  Ag44  1  0.17081020  -0.00723565  0.50580967  1
  Ag  Ag45  1  0.49709531  0.17682607  0.33506245  1
  Ag  Ag46  1  0.50442405  0.82878088  0.34403077  1
  Ag  Ag47  1  0.67190826  -0.00764427  0.34027704  1
  Ag  Ag48  1  0.17291191  0.67551676  0.49766350  1
  Ag  Ag49  1  0.66984550  0.67019579  0.33388632  1
  Ag  Ag50  1  0.15834890  -0.00580581  0.81850253  1
  Ag  Ag51  1  0.00028885  0.33669652  0.33533009  1
  Ag  Ag52  1  0.82810278  0.34545574  0.83233875  1
  Ag  Ag53  1  0.83572613  -0.01166260  0.82115125  1
  Sb  Sb54  1  0.00442141  0.15894308  0.49947166  1
  Sb  Sb55  1  0.33895488  0.32960712  0.66112156  1
  Sb  Sb56  1  0.65970393  0.50112886  0.49973559  1
  Sb  Sb57  1  -0.00792274  0.50240003  0.16818347  1
  Sb  Sb58  1  0.66756199  0.82933696  0.16837530  1
  Sb  Sb59  1  0.33398330  0.83116819  0.17215422  1
  Sb  Sb60  1  0.66319706  0.83371169  0.50292714  1
  Sb  Sb61  1  0.16790739  0.33898765  0.17467677  1
  Sb  Sb62  1  0.33452768  0.16810570  0.16966608  1
  Sb  Sb63  1  0.33255339  0.16502962  0.49969335  1
  Sb  Sb64  1  0.66460943  0.33633723  0.33667084  1
  Sb  Sb65  1  0.66923443  0.66955652  0.66278039  1
  Sb  Sb66  1  0.17289794  0.16170807  -0.00062595  1
  Sb  Sb67  1  0.66595754  0.16679724  0.82983435  1
  Sb  Sb68  1  -0.00099242  0.66829276  -0.00168433  1
  Sb  Sb69  1  0.33818277  0.50424415  0.82771305  1
  Sb  Sb70  1  0.50317990  -0.00204598  0.82506003  1
  Sb  Sb71  1  0.33970575  0.49971281  0.17448099  1
  Sb  Sb72  1  0.33566220  -0.00046734  -0.00783307  1
  Sb  Sb73  1  0.50335580  0.66390960  0.17589490  1
  Sb  Sb74  1  0.33022020  0.67626450  0.66030109  1
  Sb  Sb75  1  0.17085123  0.50372075  0.66454475  1
  Sb  Sb76  1  -0.00444325  0.33281508  0.66294867  1
  Sb  Sb77  1  0.82878405  0.50537949  0.66686145  1
  Sb  Sb78  1  0.83252556  0.16314778  0.33756648  1
  Sb  Sb79  1  0.16183553  0.50505125  -0.00092202  1
  Sb  Sb80  1  -0.00095968  0.83173332  0.16944899  1
  Sb  Sb81  1  0.50453008  0.50006545  0.00112221  1
  Sb  Sb82  1  0.00452090  0.50603087  0.50200738  1
  Sb  Sb83  1  0.66694605  0.66631194  0.00293823  1
  Sb  Sb84  1  0.50518676  0.66747363  0.82700471  1
  Sb  Sb85  1  0.66113360  0.33500473  -0.00424507  1
  Sb  Sb86  1  0.16049015  -0.00653306  0.17425810  1
  Sb  Sb87  1  0.83554255  -0.00335408  0.50321954  1
  Sb  Sb88  1  -0.00085967  -0.00381158  -0.00483942  1
  Sb  Sb89  1  0.50627174  0.00291343  0.17607097  1
  Sb  Sb90  1  0.83474180  0.66981129  0.49857074  1
  Sb  Sb91  1  0.00135542  0.33556726  0.00262040  1
  Sb  Sb92  1  0.16637927  0.32813641  0.82678177  1
  Sb  Sb93  1  0.16025903  0.67576035  0.82682091  1
  Sb  Sb94  1  -0.00146538  0.16253199  0.82928519  1
  Sb  Sb95  1  0.83268042  0.33626983  0.49988170  1
  Sb  Sb96  1  0.83289073  0.82937452  -0.00425547  1
  Sb  Sb97  1  0.33531331  0.16235848  0.83005602  1
  Sb  Sb98  1  0.16757266  0.50101606  0.33527353  1
  Sb  Sb99  1  0.66724224  0.17197400  0.17012049  1
  Sb  Sb100  1  0.33345852  0.66439743  0.00562773  1
  Sb  Sb101  1  0.16485413  0.83348597  0.34192606  1
  Sb  Sb102  1  0.82788278  0.17150151  -0.00474201  1
  Sb  Sb103  1  0.66468428  0.16522249  0.49992112  1
  Sb  Sb104  1  0.66667504  -0.00305200  -0.00210237  1
  Sb  Sb105  1  -0.00131411  0.16630836  0.17143826  1
  Sb  Sb106  1  0.33356920  -0.00259842  0.34092594  1
  Sb  Sb107  1  0.50079825  0.16428734  0.66259424  1
  Te  Te108  1  0.16646224  0.16647743  0.17151260  1
  Te  Te109  1  0.16692608  0.17043038  0.49878221  1
  Te  Te110  1  0.16678966  0.15806055  0.83103623  1
  Te  Te111  1  0.16572633  0.50840172  0.16465741  1
  Te  Te112  1  0.17389329  0.49476706  0.50027955  1
  Te  Te113  1  0.16576620  0.49954467  0.83344492  1
  Te  Te114  1  0.16647617  0.82777478  0.16355865  1
  Te  Te115  1  0.16715340  0.83417242  0.50188448  1
  Te  Te116  1  0.16842327  0.83544724  0.82784499  1
  Te  Te117  1  0.50065647  0.17199880  0.16949559  1
  Te  Te118  1  0.49912161  0.17434808  0.49525334  1
  Te  Te119  1  0.49985585  0.17209905  0.83586239  1
  Te  Te120  1  0.50666902  0.49652533  0.16883649  1
  Te  Te121  1  0.49825168  0.49834647  0.49890719  1
  Te  Te122  1  0.50450827  0.49791446  0.83308117  1
  Te  Te123  1  0.50046595  0.83383280  0.16309695  1
  Te  Te124  1  0.49976543  0.83188637  0.50089517  1
  Te  Te125  1  0.49968466  0.83347979  0.83121305  1
  Te  Te126  1  0.83226501  0.17049353  0.16483695  1
  Te  Te127  1  0.83401436  0.16868504  0.50973935  1
  Te  Te128  1  0.83286464  0.16569670  0.82999303  1
  Te  Te129  1  0.83104537  0.50223263  0.16799734  1
  Te  Te130  1  0.83347529  0.50107602  0.49017482  1
  Te  Te131  1  0.83057859  0.50244891  0.82870332  1
  Te  Te132  1  0.83296843  0.83060646  0.16556725  1
  Te  Te133  1  0.84027584  0.83300028  0.49934597  1
  Te  Te134  1  0.83265960  0.83075943  0.83479937  1
  Te  Te135  1  0.16750331  -0.00524386  0.00217418  1
  Te  Te136  1  0.16293969  0.00444246  0.33736276  1
  Te  Te137  1  0.16346234  -0.00365054  0.66309501  1
  Te  Te138  1  0.17258894  0.33125653  0.00056936  1
  Te  Te139  1  0.16521732  0.33288346  0.33550037  1
  Te  Te140  1  0.16674498  0.33296044  0.66149066  1
  Te  Te141  1  0.16709501  0.67271040  0.00111597  1
  Te  Te142  1  0.16431462  0.66731947  0.33803214  1
  Te  Te143  1  0.16089711  0.67075843  0.66023206  1
  Te  Te144  1  0.49981467  -0.00035678  0.00315921  1
  Te  Te145  1  0.49952939  -0.00768832  0.33840985  1
  Te  Te146  1  0.51014027  0.00056553  0.66164633  1
  Te  Te147  1  0.49703252  0.33485962  -0.00007060  1
  Te  Te148  1  0.50252987  0.33599243  0.33392867  1
  Te  Te149  1  0.50296176  0.32931964  0.66885907  1
  Te  Te150  1  0.49884671  0.67302395  0.00127244  1
  Te  Te151  1  0.49864658  0.66717363  0.33479670  1
  Te  Te152  1  0.49975408  0.66649385  0.66178901  1
  Te  Te153  1  0.83352871  0.00178256  0.00541556  1
  Te  Te154  1  0.83423007  -0.00050305  0.33457692  1
  Te  Te155  1  0.83009337  -0.00559000  0.66569322  1
  Te  Te156  1  0.83332647  0.33723668  -0.00091018  1
  Te  Te157  1  0.83287966  0.32926236  0.33121128  1
  Te  Te158  1  0.82827228  0.33785416  0.67043579  1
  Te  Te159  1  0.83309318  0.66176965  -0.00205178  1
  Te  Te160  1  0.83368931  0.66957377  0.33596935  1
  Te  Te161  1  0.83682352  0.67241181  0.66810082  1
  Te  Te162  1  0.00255568  0.16604160  0.00086198  1
  Te  Te163  1  0.00252050  0.17340386  0.33481904  1
  Te  Te164  1  0.00018035  0.16473516  0.66555383  1
  Te  Te165  1  -0.00606413  0.49984360  -0.00958600  1
  Te  Te166  1  -0.00372513  0.50192017  0.33498708  1
  Te  Te167  1  0.00111337  0.50101505  0.67051026  1
  Te  Te168  1  0.00523826  0.83337961  -0.00745146  1
  Te  Te169  1  -0.00130153  0.83077313  0.33373938  1
  Te  Te170  1  -0.00201420  0.83453072  0.66842053  1
  Te  Te171  1  0.33930086  0.17194929  -0.00086029  1
  Te  Te172  1  0.33455609  0.17081172  0.33322454  1
  Te  Te173  1  0.32628863  0.15831499  0.66715857  1
  Te  Te174  1  0.33230138  0.49578585  -0.00019689  1
  Te  Te175  1  0.33560130  0.49989798  0.33818582  1
  Te  Te176  1  0.34068101  0.49918781  0.66230213  1
  Te  Te177  1  0.33396143  0.83229392  0.00175153  1
  Te  Te178  1  0.33643607  0.82987151  0.33887646  1
  Te  Te179  1  0.34069591  0.83510000  0.66327504  1
  Te  Te180  1  0.65752400  0.16503402  0.00056105  1
  Te  Te181  1  0.66139692  0.15714564  0.33395533  1
  Te  Te182  1  0.67031401  0.16306456  0.66598551  1
  Te  Te183  1  0.67212931  0.50068996  -0.00394895  1
  Te  Te184  1  0.66576575  0.50060293  0.33280921  1
  Te  Te185  1  0.66213696  0.49984779  0.67008526  1
  Te  Te186  1  0.66187402  0.83240413  -0.00817472  1
  Te  Te187  1  0.66821112  0.83222754  0.33308187  1
  Te  Te188  1  0.66207014  0.83343217  0.66865996  1
  Te  Te189  1  -0.00766822  -0.00062425  0.17350559  1
  Te  Te190  1  0.00234693  -0.00545725  0.50081066  1
  Te  Te191  1  -0.00262252  -0.00375949  0.82969914  1
  Te  Te192  1  -0.00368679  0.33476932  0.17197818  1
  Te  Te193  1  0.00155509  0.33638949  0.49505567  1
  Te  Te194  1  -0.00361843  0.33510385  0.83326976  1
  Te  Te195  1  -0.00259377  0.66631903  0.17170986  1
  Te  Te196  1  0.00205681  0.66974188  0.49979533  1
  Te  Te197  1  -0.00364005  0.66837428  0.83169804  1
  Te  Te198  1  0.33220940  -0.00048615  0.16595324  1
  Te  Te199  1  0.33323632  -0.00473486  0.50371673  1
  Te  Te200  1  0.33389532  -0.00688738  0.82654433  1
  Te  Te201  1  0.33710883  0.33486729  0.17079512  1
  Te  Te202  1  0.33425937  0.33340296  0.49701754  1
  Te  Te203  1  0.33607359  0.33490349  0.83399127  1
  Te  Te204  1  0.32916582  0.66501271  0.17538265  1
  Te  Te205  1  0.33253659  0.66804995  0.49945383  1
  Te  Te206  1  0.33340967  0.67243415  0.83602896  1
  Te  Te207  1  0.67310098  -0.00090318  0.16968010  1
  Te  Te208  1  0.66000286  -0.00019631  0.49885601  1
  Te  Te209  1  0.67120130  -0.00417855  0.83045344  1
  Te  Te210  1  0.66699898  0.33855754  0.16669004  1
  Te  Te211  1  0.66228609  0.33372549  0.50743806  1
  Te  Te212  1  0.66730385  0.33370972  0.83039483  1
  Te  Te213  1  0.67203144  0.66160628  0.17155134  1
  Te  Te214  1  0.65837389  0.66700092  0.49328197  1
  Te  Te215  1  0.67120107  0.66633669  0.83282076  1
