# generated using pymatgen
data_AgSbTe2
_symmetry_space_group_name_H-M   'P 1'
_cell_length_a   18.33422023
_cell_length_b   18.34142738
_cell_length_c   18.34150802
_cell_angle_alpha   89.99957756
_cell_angle_beta   89.99931135
_cell_angle_gamma   89.99918106
_symmetry_Int_Tables_number   1
_chemical_formula_structural   AgSbTe2
_chemical_formula_sum   'Ag54 Sb54 Te108'
_cell_volume   6167.80471140
_cell_formula_units_Z   54
loop_
 _symmetry_equiv_pos_site_id
 _symmetry_equiv_pos_as_xyz
  1  'x, y, z'
loop_
 _atom_site_type_symbol
 _atom_site_label
 _atom_site_symmetry_multiplicity
 _atom_site_fract_x
 _atom_site_fract_y
 _atom_site_fract_z
 _atom_site_occupancy
  Ag  Ag0  1  0.67376138  0.50206457  0.49287793  1
  Ag  Ag1  1  -0.00084447  0.49806925  0.49301282  1
  Ag  Ag2  1  0.15531582  0.00277984  0.16609245  1
  Ag  Ag3  1  -0.00386098  0.66564037  0.01119490  1
  Ag  Ag4  1  0.33221786  0.15907970  0.84699350  1
  Ag  Ag5  1  0.68091740  0.00135043  0.00444870  1
  Ag  Ag6  1  0.83899666  0.16904745  0.32495471  1
  Ag  Ag7  1  -0.00284811  0.83441556  0.17090804  1
  Ag  Ag8  1  0.83623990  0.67543712  0.83941801  1
  Ag  Ag9  1  0.33491937  0.67479484  0.66281958  1
  Ag  Ag10  1  0.83787679  0.83456400  0.66796677  1
  Ag  Ag11  1  0.00022476  -0.00496751  0.65906257  1
  Ag  Ag12  1  0.49949315  -0.00037528  0.16607684  1
  Ag  Ag13  1  0.49856816  0.83267569  0.33367551  1
  Ag  Ag14  1  0.68080038  0.33681147  0.32607564  1
  Ag  Ag15  1  0.15669445  0.83506193  0.00121608  1
  Ag  Ag16  1  0.83715980  0.32870550  0.48638470  1
  Ag  Ag17  1  0.66715378  0.67068779  0.66385160  1
  Ag  Ag18  1  0.32930055  0.66191450  0.33444711  1
  Ag  Ag19  1  0.83621866  0.16515039  0.00620786  1
  Ag  Ag20  1  0.68113177  0.33117072  0.01038872  1
  Ag  Ag21  1  -0.00261483  0.17234821  0.17077495  1
  Ag  Ag22  1  -0.00337724  0.16213500  0.49003250  1
  Ag  Ag23  1  -0.00390261  0.48664981  0.17368283  1
  Ag  Ag24  1  0.32708453  -0.00612984  0.67172194  1
  Ag  Ag25  1  -0.00319997  0.00308110  0.32909636  1
  Ag  Ag26  1  0.16619433  0.83318885  0.66912620  1
  Ag  Ag27  1  -0.00506856  0.84296331  0.49449312  1
  Ag  Ag28  1  0.83573781  0.33068543  0.84711527  1
  Ag  Ag29  1  0.83857022  0.32819263  0.16659312  1
  Ag  Ag30  1  0.33349305  0.00352628  0.00193654  1
  Ag  Ag31  1  -0.00329207  0.33626510  0.01463082  1
  Ag  Ag32  1  -0.00277761  0.33246141  0.32853040  1
  Ag  Ag33  1  0.00102070  0.65993946  0.32807434  1
  Ag  Ag34  1  0.33062865  0.33372693  0.32876475  1
  Ag  Ag35  1  0.49106105  0.83209766  0.66187959  1
  Ag  Ag36  1  0.67590189  0.83043890  0.50150136  1
  Ag  Ag37  1  -0.00230094  0.49964409  0.84056143  1
  Ag  Ag38  1  0.50099218  0.33294414  0.16855840  1
  Ag  Ag39  1  0.32865276  0.16971836  0.49373032  1
  Ag  Ag40  1  0.67549492  0.49391510  0.17264562  1
  Ag  Ag41  1  0.83822452  0.83950282  0.00076386  1
  Ag  Ag42  1  0.16320340  0.49772610  0.33486341  1
  Ag  Ag43  1  0.50309658  0.66731869  0.16919272  1
  Ag  Ag44  1  0.32346149  0.49751967  0.49617586  1
  Ag  Ag45  1  0.33014145  0.32521447  0.01298771  1
  Ag  Ag46  1  0.32762551  0.17123298  0.16736726  1
  Ag  Ag47  1  0.83583282  -0.00256384  0.84626908  1
  Ag  Ag48  1  0.15334088  0.33011125  0.16879308  1
  Ag  Ag49  1  0.83831426  0.00505444  0.16456471  1
  Ag  Ag50  1  0.16430506  0.50432378  0.65732300  1
  Ag  Ag51  1  0.83884274  0.00022171  0.49829869  1
  Ag  Ag52  1  0.33208522  0.83788320  0.83035044  1
  Ag  Ag53  1  0.84179889  0.66638772  0.16323711  1
  Sb  Sb54  1  0.50144632  0.16479034  0.32898014  1
  Sb  Sb55  1  0.67608752  0.66643213  0.00125546  1
  Sb  Sb56  1  0.66972919  -0.00765138  0.66865802  1
  Sb  Sb57  1  0.00002381  0.67073907  0.66367766  1
  Sb  Sb58  1  0.50224017  0.83552207  0.00330005  1
  Sb  Sb59  1  0.16224607  0.50165157  0.00492250  1
  Sb  Sb60  1  0.16177941  0.33451282  0.84057549  1
  Sb  Sb61  1  0.67283576  0.00184707  0.32755158  1
  Sb  Sb62  1  0.50295282  0.33400737  0.49220939  1
  Sb  Sb63  1  0.50300380  0.33243341  0.84188746  1
  Sb  Sb64  1  0.32821669  0.49292086  0.17263351  1
  Sb  Sb65  1  0.50049800  0.16578121  0.00505900  1
  Sb  Sb66  1  0.49889193  0.49918306  0.00541940  1
  Sb  Sb67  1  0.49527992  0.15876772  0.66497913  1
  Sb  Sb68  1  0.50078220  0.66854591  0.49454441  1
  Sb  Sb69  1  0.83906537  0.50591876  0.66517794  1
  Sb  Sb70  1  0.16022949  0.66794633  0.83253627  1
  Sb  Sb71  1  0.32524269  0.50032776  0.82754933  1
  Sb  Sb72  1  0.16523418  0.66542485  0.50083389  1
  Sb  Sb73  1  0.67086428  0.34117457  0.66362781  1
  Sb  Sb74  1  0.49583662  0.50279523  0.33161681  1
  Sb  Sb75  1  -0.00123294  0.33269396  0.66272987  1
  Sb  Sb76  1  0.32947024  0.83698651  0.16413571  1
  Sb  Sb77  1  0.83459069  0.83784942  0.33239478  1
  Sb  Sb78  1  0.15876113  0.17248307  0.33070643  1
  Sb  Sb79  1  -0.00137610  -0.00093459  0.00673650  1
  Sb  Sb80  1  0.00089993  0.16787801  0.83688279  1
  Sb  Sb81  1  0.32962905  0.83326764  0.50353779  1
  Sb  Sb82  1  0.16036634  0.33517590  0.49274762  1
  Sb  Sb83  1  0.50351517  0.66918468  0.83611201  1
  Sb  Sb84  1  0.67037560  0.66284885  0.33398471  1
  Sb  Sb85  1  0.16529901  0.16425825  0.66573566  1
  Sb  Sb86  1  -0.00066796  0.83216345  0.83450302  1
  Sb  Sb87  1  0.83617182  0.49599456  0.00483304  1
  Sb  Sb88  1  0.84183349  0.49371156  0.33190586  1
  Sb  Sb89  1  0.67299403  0.16665722  0.49738938  1
  Sb  Sb90  1  0.49966038  -0.00183214  0.83748436  1
  Sb  Sb91  1  0.16395204  0.16244101  0.00467097  1
  Sb  Sb92  1  0.67201684  0.83127263  0.17054092  1
  Sb  Sb93  1  0.16510379  0.82976020  0.33289174  1
  Sb  Sb94  1  0.16395083  -0.00241026  0.83731966  1
  Sb  Sb95  1  0.49588968  0.50652928  0.66376589  1
  Sb  Sb96  1  0.32842381  0.66873263  0.00294719  1
  Sb  Sb97  1  0.15988698  -0.00010118  0.49641988  1
  Sb  Sb98  1  0.32840294  0.00140376  0.33058568  1
  Sb  Sb99  1  0.33192666  0.33184257  0.66258653  1
  Sb  Sb100  1  0.67418330  0.17397459  0.16618962  1
  Sb  Sb101  1  0.16072623  0.66572765  0.16823508  1
  Sb  Sb102  1  0.50258221  -0.00293683  0.49550267  1
  Sb  Sb103  1  0.66649129  0.16579203  0.83672424  1
  Sb  Sb104  1  0.66832586  0.83323542  0.82975249  1
  Sb  Sb105  1  0.83533604  0.15986913  0.66742964  1
  Sb  Sb106  1  0.83562981  0.66844648  0.49690978  1
  Sb  Sb107  1  0.67722541  0.49974992  0.83561044  1
  Te  Te108  1  0.16567337  0.16621101  0.16644589  1
  Te  Te109  1  0.16757665  0.16759264  0.49979067  1
  Te  Te110  1  0.17447348  0.16712619  0.83365198  1
  Te  Te111  1  0.15983352  0.49567116  0.17095111  1
  Te  Te112  1  0.16541061  0.49941146  0.49786597  1
  Te  Te113  1  0.15802528  0.50031457  0.82842335  1
  Te  Te114  1  0.16200682  0.83686415  0.16448675  1
  Te  Te115  1  0.15785759  0.83393835  0.50609306  1
  Te  Te116  1  0.17125159  0.83365992  0.83277130  1
  Te  Te117  1  0.49207727  0.16539517  0.16704398  1
  Te  Te118  1  0.49326911  0.16572510  0.49824333  1
  Te  Te119  1  0.48969655  0.16621046  0.83280183  1
  Te  Te120  1  0.50398317  0.49932034  0.16740179  1
  Te  Te121  1  0.50496526  0.50033338  0.49934895  1
  Te  Te122  1  0.50015862  0.50056146  0.83269761  1
  Te  Te123  1  0.50072667  0.83321623  0.16940533  1
  Te  Te124  1  0.50315113  0.83364059  0.50064640  1
  Te  Te125  1  0.49456974  0.83279965  0.82784306  1
  Te  Te126  1  0.83517140  0.16637995  0.16582751  1
  Te  Te127  1  0.83707716  0.16738372  0.50084597  1
  Te  Te128  1  0.83381037  0.16546566  0.83774536  1
  Te  Te129  1  0.83502622  0.50309567  0.16727100  1
  Te  Te130  1  0.83257313  0.49637034  0.50076722  1
  Te  Te131  1  0.83975412  0.49701448  0.83202956  1
  Te  Te132  1  0.83561706  0.83419427  0.16513609  1
  Te  Te133  1  0.83578900  0.83459724  0.49951816  1
  Te  Te134  1  0.83338052  0.83559711  0.83450930  1
  Te  Te135  1  0.17158436  -0.00514521  0.00388714  1
  Te  Te136  1  0.16016260  -0.00224387  0.32643351  1
  Te  Te137  1  0.16678609  -0.00285672  0.66689892  1
  Te  Te138  1  0.16727164  0.33424063  0.00645554  1
  Te  Te139  1  0.16976488  0.33737643  0.32863896  1
  Te  Te140  1  0.16687852  0.33948040  0.66829091  1
  Te  Te141  1  0.16013169  0.67404436  0.00009431  1
  Te  Te142  1  0.16725930  0.66205767  0.33301717  1
  Te  Te143  1  0.17179554  0.66848951  0.66761862  1
  Te  Te144  1  0.49394535  -0.00022310  0.00517598  1
  Te  Te145  1  0.50085831  -0.00485860  0.32756994  1
  Te  Te146  1  0.49766757  -0.00769383  0.66696804  1
  Te  Te147  1  0.49270160  0.33204329  0.00643343  1
  Te  Te148  1  0.49248681  0.33226859  0.32826973  1
  Te  Te149  1  0.50175133  0.33356689  0.66814105  1
  Te  Te150  1  0.50148291  0.66744753  0.00728174  1
  Te  Te151  1  0.49902617  0.67147133  0.32827855  1
  Te  Te152  1  0.49838245  0.67304585  0.66836927  1
  Te  Te153  1  0.83737114  0.00059257  0.00276956  1
  Te  Te154  1  0.83653444  0.00445822  0.33197147  1
  Te  Te155  1  0.83406097  -0.00501513  0.65976798  1
  Te  Te156  1  0.83658674  0.33301422  0.00368992  1
  Te  Te157  1  0.83655833  0.33088665  0.32992095  1
  Te  Te158  1  0.83256215  0.33271713  0.66979503  1
  Te  Te159  1  0.83706503  0.67037138  0.00046741  1
  Te  Te160  1  0.83798183  0.66962284  0.32601679  1
  Te  Te161  1  0.83192989  0.67256293  0.66745814  1
  Te  Te162  1  -0.00294216  0.17254853  0.00269758  1
  Te  Te163  1  -0.00207882  0.16843214  0.33202321  1
  Te  Te164  1  0.00080915  0.15999436  0.66187131  1
  Te  Te165  1  0.00168195  0.49996455  0.00008463  1
  Te  Te166  1  0.00228318  0.49874938  0.33240156  1
  Te  Te167  1  0.00528565  0.50146888  0.65857516  1
  Te  Te168  1  -0.00206379  0.83303639  -0.00038712  1
  Te  Te169  1  0.00092182  0.83483181  0.33465658  1
  Te  Te170  1  -0.00032716  0.83451606  0.66753754  1
  Te  Te171  1  0.33239209  0.16580681  0.00479530  1
  Te  Te172  1  0.33352560  0.16836909  0.33138260  1
  Te  Te173  1  0.33217601  0.16129783  0.65900339  1
  Te  Te174  1  0.33034787  0.49674904  -0.00327936  1
  Te  Te175  1  0.32976381  0.50180493  0.33671388  1
  Te  Te176  1  0.32850281  0.50347365  0.66074101  1
  Te  Te177  1  0.33399279  0.83492396  -0.00441114  1
  Te  Te178  1  0.33570317  0.82906287  0.33498625  1
  Te  Te179  1  0.33050018  0.83396196  0.66501692  1
  Te  Te180  1  0.67151368  0.16661485  -0.00034905  1
  Te  Te181  1  0.67298860  0.17466208  0.33449450  1
  Te  Te182  1  0.66387589  0.16791674  0.66746803  1
  Te  Te183  1  0.66587324  0.49371351  0.00447345  1
  Te  Te184  1  0.66317822  0.49671155  0.33339886  1
  Te  Te185  1  0.66510785  0.50831167  0.66365214  1
  Te  Te186  1  0.67121856  0.83759758  -0.00025329  1
  Te  Te187  1  0.66189029  0.83289095  0.33958163  1
  Te  Te188  1  0.67240646  0.82994073  0.66278472  1
  Te  Te189  1  -0.00203629  -0.00188447  0.16640785  1
  Te  Te190  1  -0.00151673  0.00169908  0.49800319  1
  Te  Te191  1  -0.00479131  0.00161865  0.82637587  1
  Te  Te192  1  -0.00118274  0.33158635  0.16872594  1
  Te  Te193  1  -0.00398154  0.33464246  0.49752963  1
  Te  Te194  1  -0.00488615  0.33546083  0.83148260  1
  Te  Te195  1  0.00047394  0.67397782  0.16790174  1
  Te  Te196  1  -0.00136225  0.66009156  0.49397208  1
  Te  Te197  1  -0.00628684  0.66293614  0.83276925  1
  Te  Te198  1  0.33640795  0.00191096  0.16566658  1
  Te  Te199  1  0.33325876  0.00273515  0.50036966  1
  Te  Te200  1  0.33321206  -0.00062811  0.83340941  1
  Te  Te201  1  0.33812652  0.33381897  0.16831103  1
  Te  Te202  1  0.33465565  0.33523222  0.49560042  1
  Te  Te203  1  0.33338642  0.33077312  0.83437767  1
  Te  Te204  1  0.33600872  0.66514710  0.16932098  1
  Te  Te205  1  0.33442548  0.66382421  0.49871817  1
  Te  Te206  1  0.33450887  0.66911765  0.83170182  1
  Te  Te207  1  0.66611334  -0.00029210  0.16315138  1
  Te  Te208  1  0.67254086  -0.00295399  0.49912501  1
  Te  Te209  1  0.67135513  0.00042064  0.84065294  1
  Te  Te210  1  0.66632588  0.33413302  0.16670977  1
  Te  Te211  1  0.67129240  0.33670239  0.49601652  1
  Te  Te212  1  0.67211384  0.33347810  0.83879430  1
  Te  Te213  1  0.66669870  0.66114636  0.16633261  1
  Te  Te214  1  0.66794684  0.66603611  0.50193241  1
  Te  Te215  1  0.67433446  0.66551626  0.82913024  1
