# generated using pymatgen
data_AgSbTe2
_symmetry_space_group_name_H-M   'P 1'
_cell_length_a   18.31923547
_cell_length_b   18.32614694
_cell_length_c   18.32293462
_cell_angle_alpha   90.00067377
_cell_angle_beta   89.99613020
_cell_angle_gamma   90.00285111
_symmetry_Int_Tables_number   1
_chemical_formula_structural   AgSbTe2
_chemical_formula_sum   'Ag54 Sb54 Te108'
_cell_volume   6151.39392739
_cell_formula_units_Z   54
loop_
 _symmetry_equiv_pos_site_id
 _symmetry_equiv_pos_as_xyz
  1  'x, y, z'
loop_
 _atom_site_type_symbol
 _atom_site_label
 _atom_site_symmetry_multiplicity
 _atom_site_fract_x
 _atom_site_fract_y
 _atom_site_fract_z
 _atom_site_occupancy
  Ag  Ag0  1  0.49387580  0.66187977  0.16392950  1
  Ag  Ag1  1  -0.00917625  0.16808232  0.82957380  1
  Ag  Ag2  1  0.66897796  0.49514863  0.16401098  1
  Ag  Ag3  1  0.33554473  0.49652825  0.16012861  1
  Ag  Ag4  1  0.84426556  0.65563201  0.50431911  1
  Ag  Ag5  1  0.66598336  0.83975315  0.83528155  1
  Ag  Ag6  1  0.66288411  0.00249110  0.33231691  1
  Ag  Ag7  1  0.33526338  0.65861065  0.00137505  1
  Ag  Ag8  1  0.66284484  0.33207644  0.00070996  1
  Ag  Ag9  1  0.50212349  0.16939405  0.00134021  1
  Ag  Ag10  1  -0.00799727  0.50148653  0.17189541  1
  Ag  Ag11  1  0.15944436  0.66665674  0.50253681  1
  Ag  Ag12  1  0.17804060  0.16827494  0.33461819  1
  Ag  Ag13  1  0.82983177  0.33161494  0.83629428  1
  Ag  Ag14  1  0.83417348  0.65655806  0.16446261  1
  Ag  Ag15  1  0.83287583  0.33877428  0.49951737  1
  Ag  Ag16  1  0.82412838  0.01239501  0.83688132  1
  Ag  Ag17  1  0.17005358  0.66162360  0.16754153  1
  Ag  Ag18  1  0.49887088  0.83673376  0.00197674  1
  Ag  Ag19  1  -0.00540709  0.50537840  0.49520381  1
  Ag  Ag20  1  0.33711844  0.17350706  0.49444421  1
  Ag  Ag21  1  0.00660377  0.81783604  0.50090760  1
  Ag  Ag22  1  0.66950598  0.49620903  0.83984511  1
  Ag  Ag23  1  0.49869177  0.83891479  0.33181584  1
  Ag  Ag24  1  0.49131794  0.33003341  0.50016324  1
  Ag  Ag25  1  0.67490998  0.49817519  0.49924546  1
  Ag  Ag26  1  0.33836490  0.00552448  -0.00213979  1
  Ag  Ag27  1  0.00146808  0.33658547  0.33697185  1
  Ag  Ag28  1  0.50392891  0.00391364  0.83453084  1
  Ag  Ag29  1  0.33411605  0.49576225  0.49923743  1
  Ag  Ag30  1  0.49704225  0.16565891  0.33550213  1
  Ag  Ag31  1  0.83042155  0.33678588  0.16567425  1
  Ag  Ag32  1  0.17694496  0.50248245  0.00359534  1
  Ag  Ag33  1  0.00066458  0.65732183  0.34516822  1
  Ag  Ag34  1  0.16380104  0.66551855  0.82358499  1
  Ag  Ag35  1  0.34238152  0.33664126  0.00471036  1
  Ag  Ag36  1  0.82280698  0.16962739  -0.00168980  1
  Ag  Ag37  1  0.00336150  0.17218226  0.49940781  1
  Ag  Ag38  1  0.49716727  0.00989624  0.50188709  1
  Ag  Ag39  1  0.49707350  0.49672989  0.00255318  1
  Ag  Ag40  1  0.33239126  0.32972047  0.33501610  1
  Ag  Ag41  1  0.83291533  0.50075593  0.66047022  1
  Ag  Ag42  1  0.32806797  0.66514339  0.66438877  1
  Ag  Ag43  1  0.66881255  0.16831489  0.84173731  1
  Ag  Ag44  1  0.33613822  0.33429208  0.65501868  1
  Ag  Ag45  1  0.83459146  0.66120316  0.83253195  1
  Ag  Ag46  1  0.34214471  0.17565464  0.17244538  1
  Ag  Ag47  1  0.66205034  0.17319387  0.16153882  1
  Ag  Ag48  1  0.00716999  0.66493222  0.65721202  1
  Ag  Ag49  1  0.83055005  0.01217872  0.15926025  1
  Ag  Ag50  1  0.49678995  0.16516205  0.65983106  1
  Ag  Ag51  1  0.33707327  0.00423395  0.66554850  1
  Ag  Ag52  1  0.33260286  0.82848849  0.50223620  1
  Ag  Ag53  1  0.16984080  0.82673341  0.66413013  1
  Sb  Sb54  1  0.16544643  0.49811897  0.33088952  1
  Sb  Sb55  1  0.16310794  0.33797868  0.83462968  1
  Sb  Sb56  1  0.49725511  0.49702961  0.32955386  1
  Sb  Sb57  1  0.66002249  0.00870267  0.00082426  1
  Sb  Sb58  1  0.66452340  0.33087997  0.33020929  1
  Sb  Sb59  1  0.82925500  0.16901207  0.32934372  1
  Sb  Sb60  1  0.16568586  -0.00231215  0.16663418  1
  Sb  Sb61  1  0.17632685  0.82418100  -0.00449319  1
  Sb  Sb62  1  0.66457301  0.33397440  0.66917329  1
  Sb  Sb63  1  -0.00438224  0.83368168  0.82944305  1
  Sb  Sb64  1  0.33723428  0.16701189  0.83283176  1
  Sb  Sb65  1  0.50067843  0.66933191  0.83817697  1
  Sb  Sb66  1  0.00200834  0.33727236  0.66084135  1
  Sb  Sb67  1  -0.00266942  0.17330900  0.16955185  1
  Sb  Sb68  1  0.17121376  0.83339507  0.33864980  1
  Sb  Sb69  1  0.34051578  0.00686327  0.33519343  1
  Sb  Sb70  1  0.66107315  0.00201355  0.66787307  1
  Sb  Sb71  1  0.66932492  0.66791105  0.33137528  1
  Sb  Sb72  1  -0.00548937  0.00259012  0.33486679  1
  Sb  Sb73  1  0.66159865  0.17304338  0.49872338  1
  Sb  Sb74  1  0.66620040  0.66493395  0.66812825  1
  Sb  Sb75  1  0.82945752  0.17228050  0.67198863  1
  Sb  Sb76  1  0.83772347  0.82609645  0.66677309  1
  Sb  Sb77  1  0.17291343  0.17225939  0.00313022  1
  Sb  Sb78  1  0.50308780  0.00320108  0.16559493  1
  Sb  Sb79  1  0.50452373  0.32815195  0.83295171  1
  Sb  Sb80  1  0.82946679  0.49601656  0.00011472  1
  Sb  Sb81  1  0.50120764  0.33566137  0.16643392  1
  Sb  Sb82  1  -0.00162915  0.82291460  0.17416126  1
  Sb  Sb83  1  0.17492100  -0.00232706  0.50007305  1
  Sb  Sb84  1  0.66455963  0.83377282  0.16221874  1
  Sb  Sb85  1  0.16836098  0.33873445  0.49819896  1
  Sb  Sb86  1  0.00117742  0.00331733  -0.00127457  1
  Sb  Sb87  1  0.33780295  0.83224032  0.82892184  1
  Sb  Sb88  1  -0.00357786  0.33489970  0.00363558  1
  Sb  Sb89  1  0.00369017  0.66385751  -0.00041341  1
  Sb  Sb90  1  0.32954641  0.66071878  0.33393431  1
  Sb  Sb91  1  0.49764548  0.66320776  0.49599652  1
  Sb  Sb92  1  0.82834049  0.00310184  0.50199669  1
  Sb  Sb93  1  0.83479070  0.49918166  0.33672731  1
  Sb  Sb94  1  0.17260651  0.16391832  0.66230347  1
  Sb  Sb95  1  0.33742848  0.50066973  0.83590985  1
  Sb  Sb96  1  0.82957413  0.83154843  0.33380353  1
  Sb  Sb97  1  0.33602505  0.83095974  0.17014599  1
  Sb  Sb98  1  0.82588584  0.83703109  -0.00235240  1
  Sb  Sb99  1  0.66367421  0.82918096  0.50243100  1
  Sb  Sb100  1  0.66177630  0.65968082  0.00046041  1
  Sb  Sb101  1  0.16544666  0.50533903  0.66717054  1
  Sb  Sb102  1  0.16915806  -0.00294505  0.83295636  1
  Sb  Sb103  1  -0.00574420  0.49818059  0.83215086  1
  Sb  Sb104  1  0.16708975  0.33991728  0.16766133  1
  Sb  Sb105  1  0.49390951  0.83748980  0.66600142  1
  Sb  Sb106  1  0.00329661  -0.00257307  0.66494487  1
  Sb  Sb107  1  0.50171920  0.49652948  0.66898373  1
  Te  Te108  1  0.16858047  0.16557686  0.17147365  1
  Te  Te109  1  0.16995973  0.16567709  0.49708201  1
  Te  Te110  1  0.15806744  0.16636885  0.83387080  1
  Te  Te111  1  0.17382017  0.50384861  0.16525509  1
  Te  Te112  1  0.16971181  0.50609684  0.50048779  1
  Te  Te113  1  0.16357989  0.50602673  0.83911733  1
  Te  Te114  1  0.16677510  0.82513532  0.16697981  1
  Te  Te115  1  0.16907253  0.83058316  0.50203726  1
  Te  Te116  1  0.16489615  0.82683814  0.82837888  1
  Te  Te117  1  0.50039495  0.16766287  0.16406772  1
  Te  Te118  1  0.49980521  0.16892825  0.49950988  1
  Te  Te119  1  0.50243251  0.16362369  0.83990348  1
  Te  Te120  1  0.49830511  0.50182052  0.16420011  1
  Te  Te121  1  0.49530024  0.49457455  0.50031303  1
  Te  Te122  1  0.50819412  0.49981209  0.83799266  1
  Te  Te123  1  0.50075937  0.82715385  0.16589177  1
  Te  Te124  1  0.49788948  0.83328925  0.49675348  1
  Te  Te125  1  0.50476372  0.83769954  0.83653863  1
  Te  Te126  1  0.83263911  0.16960519  0.16214526  1
  Te  Te127  1  0.83297538  0.17074833  0.50233128  1
  Te  Te128  1  0.83096540  0.16964442  0.83418339  1
  Te  Te129  1  0.83138559  0.49728313  0.16549552  1
  Te  Te130  1  0.83427549  0.49943092  0.49956634  1
  Te  Te131  1  0.83046700  0.49955465  0.83411381  1
  Te  Te132  1  0.83273612  0.82975210  0.16529680  1
  Te  Te133  1  0.83514639  0.83275986  0.50087809  1
  Te  Te134  1  0.82757505  0.82839855  0.83362378  1
  Te  Te135  1  0.17601854  -0.00157574  -0.00092207  1
  Te  Te136  1  0.16471826  0.00735562  0.33193838  1
  Te  Te137  1  0.17500769  -0.00707468  0.66810761  1
  Te  Te138  1  0.17271962  0.34044434  0.00015818  1
  Te  Te139  1  0.16656337  0.32668620  0.33251942  1
  Te  Te140  1  0.17601283  0.33353493  0.66898018  1
  Te  Te141  1  0.17207429  0.66290157  0.00371805  1
  Te  Te142  1  0.16134672  0.66803323  0.33387852  1
  Te  Te143  1  0.16730316  0.66618801  0.66506332  1
  Te  Te144  1  0.49630371  0.00188263  -0.00031569  1
  Te  Te145  1  0.50266906  0.00225561  0.33230345  1
  Te  Te146  1  0.49535321  0.00360101  0.66674408  1
  Te  Te147  1  0.50190929  0.33220709  -0.00128794  1
  Te  Te148  1  0.49736140  0.32930183  0.33991178  1
  Te  Te149  1  0.49487576  0.32919175  0.66317698  1
  Te  Te150  1  0.49589808  0.66395624  0.00291875  1
  Te  Te151  1  0.49998108  0.66948878  0.32683466  1
  Te  Te152  1  0.49176635  0.66740888  0.66671541  1
  Te  Te153  1  0.83403740  0.00442252  -0.00187725  1
  Te  Te154  1  0.82601445  0.00005823  0.33077863  1
  Te  Te155  1  0.83377872  -0.00049243  0.67408247  1
  Te  Te156  1  0.83094762  0.33017836  0.00005026  1
  Te  Te157  1  0.83608458  0.33253622  0.33378968  1
  Te  Te158  1  0.83413343  0.33922835  0.66506303  1
  Te  Te159  1  0.83339424  0.66768494  -0.00058454  1
  Te  Te160  1  0.83853068  0.66854120  0.33049334  1
  Te  Te161  1  0.83303873  0.66167573  0.66667000  1
  Te  Te162  1  0.00092997  0.16807528  -0.00259356  1
  Te  Te163  1  -0.00134416  0.17038689  0.33737042  1
  Te  Te164  1  0.00161613  0.16715912  0.66397453  1
  Te  Te165  1  0.00500764  0.49903719  0.00605061  1
  Te  Te166  1  0.00112454  0.49851804  0.33342410  1
  Te  Te167  1  -0.00373137  0.50401621  0.66328180  1
  Te  Te168  1  0.00165648  0.83519797  0.00096372  1
  Te  Te169  1  0.00139130  0.83282734  0.34186236  1
  Te  Te170  1  0.00534421  0.82939296  0.66123996  1
  Te  Te171  1  0.33527963  0.16954168  0.00117024  1
  Te  Te172  1  0.33694243  0.16824905  0.33289259  1
  Te  Te173  1  0.33692319  0.16679645  0.66565879  1
  Te  Te174  1  0.33682868  0.49945988  -0.00055367  1
  Te  Te175  1  0.33194569  0.49263336  0.33549822  1
  Te  Te176  1  0.33317851  0.49937149  0.66536663  1
  Te  Te177  1  0.34030719  0.83216989  0.00010667  1
  Te  Te178  1  0.33863627  0.83470205  0.33958493  1
  Te  Te179  1  0.33073627  0.82949160  0.66237675  1
  Te  Te180  1  0.66602412  0.16950999  0.00137704  1
  Te  Te181  1  0.66081329  0.16393063  0.32926089  1
  Te  Te182  1  0.65809451  0.16725993  0.67200263  1
  Te  Te183  1  0.66373194  0.49411431  0.00292115  1
  Te  Te184  1  0.66451327  0.49928505  0.33091573  1
  Te  Te185  1  0.67070253  0.49947761  0.66388606  1
  Te  Te186  1  0.65872570  0.83149630  -0.00552960  1
  Te  Te187  1  0.65926120  0.83843216  0.33370241  1
  Te  Te188  1  0.66629663  0.83331983  0.67448578  1
  Te  Te189  1  -0.00731836  -0.00202106  0.16699990  1
  Te  Te190  1  -0.00163773  0.00926151  0.50014739  1
  Te  Te191  1  -0.00402956  0.00453590  0.83243544  1
  Te  Te192  1  -0.00361645  0.33970418  0.17139744  1
  Te  Te193  1  0.00079314  0.33290577  0.49746081  1
  Te  Te194  1  -0.00622715  0.32949177  0.83188304  1
  Te  Te195  1  -0.00273420  0.66066578  0.16676272  1
  Te  Te196  1  -0.00050596  0.66280297  0.50132092  1
  Te  Te197  1  -0.00191068  0.66704028  0.83028093  1
  Te  Te198  1  0.33204134  0.00321339  0.16165667  1
  Te  Te199  1  0.33853655  0.00241004  0.50165848  1
  Te  Te200  1  0.33722246  -0.00062452  0.83288081  1
  Te  Te201  1  0.33290492  0.33433751  0.16646131  1
  Te  Te202  1  0.33169835  0.33358280  0.49742833  1
  Te  Te203  1  0.33248380  0.33399787  0.83783756  1
  Te  Te204  1  0.33345833  0.66428694  0.16623882  1
  Te  Te205  1  0.33328158  0.66465728  0.50058973  1
  Te  Te206  1  0.33027441  0.66674602  0.83363288  1
  Te  Te207  1  0.67155660  0.00151803  0.16832264  1
  Te  Te208  1  0.66014298  -0.00126834  0.49680734  1
  Te  Te209  1  0.66530306  0.00332844  0.83371872  1
  Te  Te210  1  0.66935511  0.33318868  0.16507841  1
  Te  Te211  1  0.67230785  0.33928483  0.49969451  1
  Te  Te212  1  0.67001055  0.33431713  0.83523234  1
  Te  Te213  1  0.67187626  0.66253816  0.16649402  1
  Te  Te214  1  0.66975100  0.65974822  0.49975044  1
  Te  Te215  1  0.67094145  0.65944185  0.83388633  1
