# generated using pymatgen
data_AgSbTe2
_symmetry_space_group_name_H-M   'P 1'
_cell_length_a   18.34653279
_cell_length_b   18.35913048
_cell_length_c   18.36540527
_cell_angle_alpha   89.99890963
_cell_angle_beta   89.99756128
_cell_angle_gamma   90.00617336
_symmetry_Int_Tables_number   1
_chemical_formula_structural   AgSbTe2
_chemical_formula_sum   'Ag54 Sb54 Te108'
_cell_volume   6185.95310439
_cell_formula_units_Z   54
loop_
 _symmetry_equiv_pos_site_id
 _symmetry_equiv_pos_as_xyz
  1  'x, y, z'
loop_
 _atom_site_type_symbol
 _atom_site_label
 _atom_site_symmetry_multiplicity
 _atom_site_fract_x
 _atom_site_fract_y
 _atom_site_fract_z
 _atom_site_occupancy
  Ag  Ag0  1  0.66767713  0.49799816  0.16037298  1
  Ag  Ag1  1  0.17292781  0.32308918  0.16867045  1
  Ag  Ag2  1  0.49377762  0.32663286  0.16685820  1
  Ag  Ag3  1  0.50017165  0.48999642  0.32157711  1
  Ag  Ag4  1  0.16956804  0.33018491  0.48902690  1
  Ag  Ag5  1  0.67437736  0.16789819  0.83737735  1
  Ag  Ag6  1  0.50028539  0.17106810  0.00124871  1
  Ag  Ag7  1  0.83240635  0.50041818  0.32190766  1
  Ag  Ag8  1  0.48934120  0.00318429  0.84468595  1
  Ag  Ag9  1  -0.00494407  0.67945569  -0.00414682  1
  Ag  Ag10  1  0.32557178  0.83530050  0.84008367  1
  Ag  Ag11  1  0.49169323  0.33121135  0.48506779  1
  Ag  Ag12  1  0.00847182  0.32217896  0.33364831  1
  Ag  Ag13  1  0.33425085  0.50753760  0.83951416  1
  Ag  Ag14  1  -0.00032142  0.16176410  0.49702414  1
  Ag  Ag15  1  0.50423963  0.49199761  0.00313253  1
  Ag  Ag16  1  0.00422227  0.84151585  0.49537129  1
  Ag  Ag17  1  0.33302078  0.32654488  0.32406876  1
  Ag  Ag18  1  0.32868534  0.00805376  0.31848258  1
  Ag  Ag19  1  0.33716344  0.32488845  0.00623352  1
  Ag  Ag20  1  0.84798410  0.16578017  0.67938962  1
  Ag  Ag21  1  0.16819729  -0.00232195  0.83918875  1
  Ag  Ag22  1  0.83052881  0.50100488  0.00213785  1
  Ag  Ag23  1  0.00098039  0.32180005  0.66531287  1
  Ag  Ag24  1  0.49787476  0.16577478  0.67487862  1
  Ag  Ag25  1  0.49461552  0.66134874  0.49873457  1
  Ag  Ag26  1  0.32902252  -0.00122322  0.67482949  1
  Ag  Ag27  1  0.33064482  0.16249530  0.16722141  1
  Ag  Ag28  1  0.16673650  0.00367585  0.16155839  1
  Ag  Ag29  1  0.84544319  0.66454418  0.84222016  1
  Ag  Ag30  1  0.00582350  0.00634378  0.31765648  1
  Ag  Ag31  1  0.49131914  0.17003851  0.32067217  1
  Ag  Ag32  1  0.48058994  0.01125371  0.16226365  1
  Ag  Ag33  1  0.32978349  0.00004158  0.00152753  1
  Ag  Ag34  1  0.83868590  0.82523761  0.00220517  1
  Ag  Ag35  1  -0.00176904  0.84543505  0.16174271  1
  Ag  Ag36  1  0.33306949  0.67770254  0.68199847  1
  Ag  Ag37  1  0.00496476  0.83828046  0.84246839  1
  Ag  Ag38  1  0.00004947  0.50535686  0.83701294  1
  Ag  Ag39  1  0.83982740  0.83284727  0.32075360  1
  Ag  Ag40  1  0.16563871  0.67514843  0.83630421  1
  Ag  Ag41  1  0.00297348  -0.00176093  0.00153219  1
  Ag  Ag42  1  0.32805458  0.83542486  0.49598489  1
  Ag  Ag43  1  0.83454428  0.16757656  -0.00032752  1
  Ag  Ag44  1  0.16905369  0.16648779  0.32803388  1
  Ag  Ag45  1  -0.00170350  0.15852018  0.83488781  1
  Ag  Ag46  1  0.32698451  0.84601604  0.15896567  1
  Ag  Ag47  1  0.83676960  0.67525006  0.15844186  1
  Ag  Ag48  1  0.33095298  0.66938427  -0.00153876  1
  Ag  Ag49  1  0.00846074  0.16094182  0.16637188  1
  Ag  Ag50  1  0.00509982  0.00324778  0.67653243  1
  Ag  Ag51  1  0.66406865  0.49431267  0.84098103  1
  Ag  Ag52  1  0.65695533  0.33455017  0.00099484  1
  Ag  Ag53  1  0.85233171  -0.00563241  0.16371903  1
  Sb  Sb54  1  0.66204538  0.33381607  0.32708747  1
  Sb  Sb55  1  0.16898687  0.83608667  0.66888884  1
  Sb  Sb56  1  0.49395124  0.00347146  0.49614658  1
  Sb  Sb57  1  0.84056863  0.00085614  0.49372248  1
  Sb  Sb58  1  0.66358074  0.49745540  0.49843801  1
  Sb  Sb59  1  -0.00075374  0.49678230  0.50082102  1
  Sb  Sb60  1  0.17098623  0.66561476  0.50548104  1
  Sb  Sb61  1  0.33055704  0.16344804  0.49454335  1
  Sb  Sb62  1  0.66725502  0.16811576  0.50545987  1
  Sb  Sb63  1  0.49529732  0.66782783  0.83349063  1
  Sb  Sb64  1  0.66736702  0.00230249  0.67149572  1
  Sb  Sb65  1  0.49786231  0.83619267  0.33111895  1
  Sb  Sb66  1  0.49835572  0.32786963  0.83937967  1
  Sb  Sb67  1  -0.00181696  0.67081435  0.32669227  1
  Sb  Sb68  1  0.83529977  0.33215067  0.49830408  1
  Sb  Sb69  1  -0.00443878  0.49857274  0.16347337  1
  Sb  Sb70  1  0.16467865  0.00439859  0.49807580  1
  Sb  Sb71  1  0.66622285  0.66553875  0.33187871  1
  Sb  Sb72  1  0.16565941  0.32995611  0.83661748  1
  Sb  Sb73  1  0.00246756  0.32890229  0.00198350  1
  Sb  Sb74  1  0.66834022  0.33058638  0.67241573  1
  Sb  Sb75  1  0.33072385  0.32951363  0.66830457  1
  Sb  Sb76  1  0.83964381  0.83875584  0.67099328  1
  Sb  Sb77  1  0.83998552  -0.00010538  0.84181641  1
  Sb  Sb78  1  0.49827627  0.49571818  0.67110954  1
  Sb  Sb79  1  0.67026825  0.65862494  0.00041819  1
  Sb  Sb80  1  0.33031949  0.16119265  0.84050142  1
  Sb  Sb81  1  0.16483034  0.16553086  0.66319554  1
  Sb  Sb82  1  0.33530241  0.50115605  0.50155598  1
  Sb  Sb83  1  0.16718826  0.49861515  0.67017929  1
  Sb  Sb84  1  0.16224629  0.83606481  -0.00255194  1
  Sb  Sb85  1  0.67091579  0.83172245  0.16484498  1
  Sb  Sb86  1  0.83615063  0.33269590  0.83569959  1
  Sb  Sb87  1  0.33758550  0.49471150  0.16020947  1
  Sb  Sb88  1  0.16774886  0.50047245  -0.00131718  1
  Sb  Sb89  1  0.16566043  0.16430025  0.00625636  1
  Sb  Sb90  1  0.16837711  0.49013363  0.33241551  1
  Sb  Sb91  1  0.16359803  0.67014535  0.16046968  1
  Sb  Sb92  1  0.83785218  0.16618245  0.32804146  1
  Sb  Sb93  1  0.16392687  0.83892760  0.33095953  1
  Sb  Sb94  1  0.66125067  0.66412728  0.66975949  1
  Sb  Sb95  1  0.66649731  0.00254515  0.32878014  1
  Sb  Sb96  1  0.33385369  0.66697669  0.32834451  1
  Sb  Sb97  1  0.00384599  0.67173104  0.67593922  1
  Sb  Sb98  1  0.49470241  0.83835249  0.66672669  1
  Sb  Sb99  1  0.83325507  0.66779289  0.49892262  1
  Sb  Sb100  1  0.66584647  0.83274577  0.49811048  1
  Sb  Sb101  1  0.83612898  0.49672070  0.67433084  1
  Sb  Sb102  1  0.66875286  0.83546400  0.83619403  1
  Sb  Sb103  1  0.66374710  0.16990911  0.16067688  1
  Sb  Sb104  1  0.83414279  0.33049834  0.16551430  1
  Sb  Sb105  1  0.49935121  0.83557822  0.00051934  1
  Sb  Sb106  1  0.66739626  0.00638388  -0.00006633  1
  Sb  Sb107  1  0.50095038  0.66556969  0.16661536  1
  Te  Te108  1  0.16831986  0.16588598  0.16775466  1
  Te  Te109  1  0.16077581  0.17044899  0.49386920  1
  Te  Te110  1  0.15993694  0.16168363  0.83213131  1
  Te  Te111  1  0.16688739  0.50009245  0.16762283  1
  Te  Te112  1  0.16685539  0.49179104  0.50057352  1
  Te  Te113  1  0.16452747  0.49955781  0.83345041  1
  Te  Te114  1  0.16565948  0.83571237  0.16742418  1
  Te  Te115  1  0.16638176  0.83130556  0.49887217  1
  Te  Te116  1  0.16565959  0.83429506  0.83308494  1
  Te  Te117  1  0.50145050  0.16727182  0.16367209  1
  Te  Te118  1  0.50077711  0.17213893  0.50003999  1
  Te  Te119  1  0.49393180  0.16294238  0.83665998  1
  Te  Te120  1  0.50355865  0.50221487  0.16431042  1
  Te  Te121  1  0.50038605  0.49758190  0.50071937  1
  Te  Te122  1  0.49925528  0.50104455  0.83910994  1
  Te  Te123  1  0.49855153  0.83492152  0.16795870  1
  Te  Te124  1  0.49779893  0.82947799  0.49923253  1
  Te  Te125  1  0.49953493  0.84053848  0.83215859  1
  Te  Te126  1  0.83152821  0.16231713  0.16186101  1
  Te  Te127  1  0.83772367  0.16769243  0.50125783  1
  Te  Te128  1  0.83501841  0.16512977  0.83548702  1
  Te  Te129  1  0.83086957  0.49755193  0.16437288  1
  Te  Te130  1  0.83084089  0.50116282  0.49662020  1
  Te  Te131  1  0.83633229  0.50181542  0.83641421  1
  Te  Te132  1  0.83457162  0.83338209  0.16343045  1
  Te  Te133  1  0.83665089  0.83284700  0.49923632  1
  Te  Te134  1  0.83688742  0.83021955  0.83793883  1
  Te  Te135  1  0.16678541  0.00002688  -0.00025725  1
  Te  Te136  1  0.16710382  0.00397674  0.33284506  1
  Te  Te137  1  0.16559704  0.00000198  0.67040798  1
  Te  Te138  1  0.17590656  0.33312508  0.00610770  1
  Te  Te139  1  0.16838646  0.32971089  0.33059615  1
  Te  Te140  1  0.16137926  0.33247991  0.66493223  1
  Te  Te141  1  0.16734003  0.66584881  -0.00515347  1
  Te  Te142  1  0.16635729  0.66349525  0.33592345  1
  Te  Te143  1  0.17460650  0.66524969  0.67323412  1
  Te  Te144  1  0.50006129  0.00034017  0.00306187  1
  Te  Te145  1  0.49480593  0.00377325  0.32812251  1
  Te  Te146  1  0.49945292  0.00574725  0.66430904  1
  Te  Te147  1  0.49791834  0.33321703  0.00080226  1
  Te  Te148  1  0.49874838  0.33293989  0.32904965  1
  Te  Te149  1  0.49982473  0.32715776  0.66563150  1
  Te  Te150  1  0.49583442  0.66608749  -0.00048414  1
  Te  Te151  1  0.49946776  0.66534957  0.33691937  1
  Te  Te152  1  0.49322373  0.66498977  0.66265863  1
  Te  Te153  1  0.83311661  0.00582463  0.00407028  1
  Te  Te154  1  0.83785211  -0.00268647  0.32693125  1
  Te  Te155  1  0.83584945  0.00726705  0.66675522  1
  Te  Te156  1  0.83324989  0.33175627  0.00048412  1
  Te  Te157  1  0.83329619  0.33860916  0.33333227  1
  Te  Te158  1  0.83911198  0.32701209  0.66621224  1
  Te  Te159  1  0.83414442  0.66358213  -0.00092371  1
  Te  Te160  1  0.83287436  0.66445421  0.33193914  1
  Te  Te161  1  0.83181159  0.66693999  0.67002296  1
  Te  Te162  1  -0.00201668  0.16491437  0.00094492  1
  Te  Te163  1  -0.00255304  0.16536203  0.33084567  1
  Te  Te164  1  0.00305784  0.16482352  0.66895745  1
  Te  Te165  1  -0.00394187  0.49552414  -0.00391010  1
  Te  Te166  1  -0.00389733  0.50146090  0.33345162  1
  Te  Te167  1  -0.00050320  0.50039402  0.67164441  1
  Te  Te168  1  -0.00182366  0.83525759  0.00138114  1
  Te  Te169  1  -0.00193390  0.83423322  0.33413575  1
  Te  Te170  1  0.00054547  0.83872592  0.66106972  1
  Te  Te171  1  0.33663466  0.16422789  0.00461295  1
  Te  Te172  1  0.33283555  0.16646488  0.33356640  1
  Te  Te173  1  0.33688843  0.16218450  0.66601343  1
  Te  Te174  1  0.33450725  0.50241102  -0.00213052  1
  Te  Te175  1  0.33966087  0.49762384  0.33421570  1
  Te  Te176  1  0.33464819  0.50053722  0.67274761  1
  Te  Te177  1  0.33613416  0.83711989  0.00031878  1
  Te  Te178  1  0.33325385  0.83620556  0.33435622  1
  Te  Te179  1  0.33467072  0.83497588  0.66844920  1
  Te  Te180  1  0.66560359  0.17167476  -0.00450725  1
  Te  Te181  1  0.66250448  0.16714764  0.33665150  1
  Te  Te182  1  0.66150928  0.16752224  0.67415915  1
  Te  Te183  1  0.66640349  0.49741959  -0.00144398  1
  Te  Te184  1  0.66630721  0.49947392  0.33096670  1
  Te  Te185  1  0.66743198  0.49835776  0.67661117  1
  Te  Te186  1  0.67513372  0.83220143  -0.00069898  1
  Te  Te187  1  0.67677430  0.83376663  0.33389247  1
  Te  Te188  1  0.66784175  0.83289427  0.66532300  1
  Te  Te189  1  0.00550742  0.00129545  0.16409256  1
  Te  Te190  1  0.00131140  0.00110037  0.50550157  1
  Te  Te191  1  0.00014777  -0.00131782  0.83648708  1
  Te  Te192  1  0.00265824  0.33082550  0.17212171  1
  Te  Te193  1  0.00188294  0.33235952  0.49728499  1
  Te  Te194  1  0.00219849  0.33223769  0.83005652  1
  Te  Te195  1  -0.00430645  0.66758497  0.15856537  1
  Te  Te196  1  0.00140726  0.67002617  0.50284882  1
  Te  Te197  1  0.00311868  0.66841238  0.83572634  1
  Te  Te198  1  0.32772604  0.00081777  0.16476913  1
  Te  Te199  1  0.33135556  -0.00584754  0.51040764  1
  Te  Te200  1  0.33099808  -0.00116836  0.83592543  1
  Te  Te201  1  0.33421417  0.33341270  0.16671110  1
  Te  Te202  1  0.33260061  0.33284594  0.50094602  1
  Te  Te203  1  0.33080321  0.34038605  0.83445221  1
  Te  Te204  1  0.33242771  0.67147743  0.15918378  1
  Te  Te205  1  0.33500109  0.67078538  0.49613440  1
  Te  Te206  1  0.33326722  0.66991406  0.83743305  1
  Te  Te207  1  0.66336075  -0.00093371  0.16747243  1
  Te  Te208  1  0.66742754  -0.00040765  0.49941084  1
  Te  Te209  1  0.65738355  0.00588962  0.83371278  1
  Te  Te210  1  0.66212005  0.33724048  0.16130069  1
  Te  Te211  1  0.65980054  0.33286925  0.50108701  1
  Te  Te212  1  0.66662770  0.33151187  0.83936999  1
  Te  Te213  1  0.67348888  0.66131243  0.16730855  1
  Te  Te214  1  0.65779105  0.66598844  0.50130220  1
  Te  Te215  1  0.66928919  0.66586186  0.83212426  1
