# generated using pymatgen
data_AgSbTe2
_symmetry_space_group_name_H-M   'P 1'
_cell_length_a   18.33724262
_cell_length_b   18.33565095
_cell_length_c   18.33163125
_cell_angle_alpha   90.00322377
_cell_angle_beta   90.00386276
_cell_angle_gamma   90.00086514
_symmetry_Int_Tables_number   1
_chemical_formula_structural   AgSbTe2
_chemical_formula_sum   'Ag54 Sb54 Te108'
_cell_volume   6163.55782874
_cell_formula_units_Z   54
loop_
 _symmetry_equiv_pos_site_id
 _symmetry_equiv_pos_as_xyz
  1  'x, y, z'
loop_
 _atom_site_type_symbol
 _atom_site_label
 _atom_site_symmetry_multiplicity
 _atom_site_fract_x
 _atom_site_fract_y
 _atom_site_fract_z
 _atom_site_occupancy
  Ag  Ag0  1  0.84167579  0.83274688  0.33254861  1
  Ag  Ag1  1  0.16834964  0.67484201  0.83994910  1
  Ag  Ag2  1  0.33085532  -0.00316329  0.67644501  1
  Ag  Ag3  1  0.48902386  -0.00718463  0.83683833  1
  Ag  Ag4  1  0.66810245  0.33372503  0.33364687  1
  Ag  Ag5  1  0.16946458  -0.00951202  0.16232305  1
  Ag  Ag6  1  0.48771192  -0.00269628  0.16223788  1
  Ag  Ag7  1  0.49143132  0.16871979  0.33392495  1
  Ag  Ag8  1  0.16189410  0.33119953  0.17322511  1
  Ag  Ag9  1  0.33442616  0.83469989  0.48855396  1
  Ag  Ag10  1  0.67465588  0.33807578  0.66598491  1
  Ag  Ag11  1  0.00034110  0.66870831  0.67257292  1
  Ag  Ag12  1  0.32763100  -0.00525996  0.00010608  1
  Ag  Ag13  1  0.00741497  0.83709163  0.83618450  1
  Ag  Ag14  1  0.66724560  0.49773095  0.82933906  1
  Ag  Ag15  1  0.00843040  0.33540056  0.33137530  1
  Ag  Ag16  1  0.83079317  0.49207496  0.67024410  1
  Ag  Ag17  1  0.66587704  0.33762420  0.00112682  1
  Ag  Ag18  1  0.00063232  0.16109378  0.83207761  1
  Ag  Ag19  1  0.33029682  -0.00591751  0.32492282  1
  Ag  Ag20  1  0.83666612  0.83369504  0.66586522  1
  Ag  Ag21  1  0.00991435  0.66751376  0.33261764  1
  Ag  Ag22  1  0.50820864  0.49318655  0.67042775  1
  Ag  Ag23  1  0.32744633  0.50730622  0.83266439  1
  Ag  Ag24  1  0.66971502  0.16731825  0.16827271  1
  Ag  Ag25  1  0.16923765  -0.00890419  0.84293718  1
  Ag  Ag26  1  0.32310925  0.83750728  0.16580075  1
  Ag  Ag27  1  0.16977604  0.33473115  0.48737754  1
  Ag  Ag28  1  0.32732193  0.67734541  0.33234655  1
  Ag  Ag29  1  0.17032093  0.83367120  0.00743828  1
  Ag  Ag30  1  0.83435112  0.17615368  0.66987356  1
  Ag  Ag31  1  0.00921268  -0.00388540  -0.00592179  1
  Ag  Ag32  1  0.16709820  0.83089094  0.32227564  1
  Ag  Ag33  1  0.48781621  0.83622977  -0.00179018  1
  Ag  Ag34  1  0.83878077  0.33098587  0.16740390  1
  Ag  Ag35  1  0.50447590  0.17073644  0.66646190  1
  Ag  Ag36  1  0.16704085  0.50694126  0.00119299  1
  Ag  Ag37  1  0.16633153  0.49126905  0.32789026  1
  Ag  Ag38  1  0.66701254  0.83747964  0.16749009  1
  Ag  Ag39  1  0.01057469  0.83911881  0.16398197  1
  Ag  Ag40  1  -0.00582527  0.33307194  0.67071398  1
  Ag  Ag41  1  0.32413055  0.83584225  0.83733392  1
  Ag  Ag42  1  0.00432011  -0.00185404  0.67578856  1
  Ag  Ag43  1  0.49109821  0.67141780  0.83328529  1
  Ag  Ag44  1  0.16572409  0.67767621  0.16804148  1
  Ag  Ag45  1  0.16929899  0.17783892  0.32879668  1
  Ag  Ag46  1  0.66298549  0.82957125  0.49555950  1
  Ag  Ag47  1  0.00350269  0.50125868  0.83002175  1
  Ag  Ag48  1  0.00228575  0.16447411  0.16551728  1
  Ag  Ag49  1  0.66450920  0.49480844  0.50943219  1
  Ag  Ag50  1  0.83569541  0.33657447  0.82557080  1
  Ag  Ag51  1  0.49910780  0.33320563  0.50044168  1
  Ag  Ag52  1  0.31993756  0.33270086  0.33305333  1
  Ag  Ag53  1  0.66340713  0.66480540  -0.00093991  1
  Sb  Sb54  1  0.50073861  0.16141671  0.00089194  1
  Sb  Sb55  1  0.16459292  0.16081323  0.00560964  1
  Sb  Sb56  1  0.66620046  0.00273151  0.66798328  1
  Sb  Sb57  1  0.49992549  0.66395306  0.50509793  1
  Sb  Sb58  1  0.16298890  0.83447284  0.66953701  1
  Sb  Sb59  1  0.00262939  0.67049537  -0.00146454  1
  Sb  Sb60  1  0.00864500  0.00000308  0.33025148  1
  Sb  Sb61  1  0.16428061  0.50021927  0.66864118  1
  Sb  Sb62  1  0.32957690  0.50580564  0.16484993  1
  Sb  Sb63  1  0.49969106  0.32457105  0.17371922  1
  Sb  Sb64  1  0.00378470  0.83340959  0.49896005  1
  Sb  Sb65  1  0.66434902  0.16983124  0.49732826  1
  Sb  Sb66  1  0.50195822  0.83451192  0.67131006  1
  Sb  Sb67  1  0.66070610  0.00165281  0.33082812  1
  Sb  Sb68  1  0.32846797  0.16143977  0.83175681  1
  Sb  Sb69  1  0.00373069  0.49930100  0.16340122  1
  Sb  Sb70  1  0.33350298  0.16337709  0.49754130  1
  Sb  Sb71  1  0.49607579  0.50586888  -0.00756524  1
  Sb  Sb72  1  0.33511744  0.50179362  0.50238423  1
  Sb  Sb73  1  0.66468954  0.66583767  0.32882703  1
  Sb  Sb74  1  0.16450511  0.16558227  0.66375114  1
  Sb  Sb75  1  0.83774194  0.50093587  0.33791565  1
  Sb  Sb76  1  0.66740304  0.82805317  0.83460787  1
  Sb  Sb77  1  0.83703956  0.83289182  0.00069277  1
  Sb  Sb78  1  0.16075446  0.33363445  0.83530495  1
  Sb  Sb79  1  0.83432614  0.16910298  -0.00274077  1
  Sb  Sb80  1  0.83324180  0.66719007  0.50127995  1
  Sb  Sb81  1  0.33490458  0.33121150  0.00500589  1
  Sb  Sb82  1  0.33174291  0.67467496  -0.00045942  1
  Sb  Sb83  1  0.83900542  0.00253964  0.83137823  1
  Sb  Sb84  1  0.83830887  0.00176193  0.16669080  1
  Sb  Sb85  1  -0.00219287  0.49777112  0.50510908  1
  Sb  Sb86  1  0.50390616  0.33409548  0.82839745  1
  Sb  Sb87  1  0.49689771  0.00224548  0.50098260  1
  Sb  Sb88  1  0.16717574  0.66416991  0.49352365  1
  Sb  Sb89  1  0.66990338  0.17175833  0.83540362  1
  Sb  Sb90  1  0.83720963  0.49734757  -0.00557355  1
  Sb  Sb91  1  0.83771326  0.66279365  0.83197482  1
  Sb  Sb92  1  0.00115719  0.16866900  0.50126131  1
  Sb  Sb93  1  0.83625109  0.16542142  0.33478120  1
  Sb  Sb94  1  0.32871909  0.67099507  0.66789381  1
  Sb  Sb95  1  -0.00094013  0.33005047  0.00037537  1
  Sb  Sb96  1  0.16913780  0.00108289  0.49704146  1
  Sb  Sb97  1  0.33282381  0.33050002  0.66332878  1
  Sb  Sb98  1  0.83424448  -0.00226039  0.50082612  1
  Sb  Sb99  1  0.49441899  0.67607579  0.16174123  1
  Sb  Sb100  1  0.66544249  -0.00126142  0.00118528  1
  Sb  Sb101  1  0.83158825  0.33380097  0.50176492  1
  Sb  Sb102  1  0.49560823  0.49350299  0.33758468  1
  Sb  Sb103  1  0.67047779  0.66109725  0.67097613  1
  Sb  Sb104  1  0.83866193  0.66536706  0.16691530  1
  Sb  Sb105  1  0.66673658  0.49614610  0.16390489  1
  Sb  Sb106  1  0.49528002  0.83870291  0.32762190  1
  Sb  Sb107  1  0.32860922  0.15863040  0.17123465  1
  Te  Te108  1  0.16333805  0.17054110  0.17000843  1
  Te  Te109  1  0.16710717  0.17256797  0.49126574  1
  Te  Te110  1  0.16055592  0.16362673  0.83298466  1
  Te  Te111  1  0.16682429  0.49719993  0.16630558  1
  Te  Te112  1  0.16736273  0.49558209  0.49493654  1
  Te  Te113  1  0.16579893  0.49982464  0.83465391  1
  Te  Te114  1  0.16639931  0.83386033  0.16561833  1
  Te  Te115  1  0.17276658  0.83269342  0.49521908  1
  Te  Te116  1  0.16479036  0.83421270  0.83134577  1
  Te  Te117  1  0.50304500  0.15892453  0.16881708  1
  Te  Te118  1  0.50015463  0.17111671  0.49954115  1
  Te  Te119  1  0.50003091  0.16285616  0.83063346  1
  Te  Te120  1  0.49846800  0.50151924  0.16548978  1
  Te  Te121  1  0.50349554  0.49606075  0.50548588  1
  Te  Te122  1  0.50060091  0.50129825  0.82998591  1
  Te  Te123  1  0.50586321  0.83860542  0.16138228  1
  Te  Te124  1  0.49869756  0.83243292  0.50124551  1
  Te  Te125  1  0.50154771  0.83279711  0.83672964  1
  Te  Te126  1  0.83556110  0.17036960  0.16803706  1
  Te  Te127  1  0.83217383  0.16525057  0.50913944  1
  Te  Te128  1  0.83766140  0.17172654  0.82875549  1
  Te  Te129  1  0.83526675  0.49240656  0.16775376  1
  Te  Te130  1  0.82526123  0.50068638  0.50720561  1
  Te  Te131  1  0.83492214  0.49689041  0.82946159  1
  Te  Te132  1  0.82893015  0.83336428  0.16899580  1
  Te  Te133  1  0.83012489  0.83290189  0.49807135  1
  Te  Te134  1  0.83766409  0.83322254  0.83037631  1
  Te  Te135  1  0.16676697  -0.00167865  0.00115929  1
  Te  Te136  1  0.17109762  -0.00557101  0.33056277  1
  Te  Te137  1  0.16751763  0.00165660  0.66710319  1
  Te  Te138  1  0.16830288  0.33681216  0.00614795  1
  Te  Te139  1  0.16363213  0.33470777  0.33121297  1
  Te  Te140  1  0.16285745  0.33233472  0.66460375  1
  Te  Te141  1  0.16610849  0.66773724  0.00042509  1
  Te  Te142  1  0.16708594  0.67122490  0.33235818  1
  Te  Te143  1  0.16034436  0.66588448  0.67098968  1
  Te  Te144  1  0.49931018  -0.00381958  -0.00057368  1
  Te  Te145  1  0.49350479  0.00689063  0.33086458  1
  Te  Te146  1  0.49826688  0.00337357  0.67002979  1
  Te  Te147  1  0.50432615  0.33307241  0.00164332  1
  Te  Te148  1  0.50909563  0.32894194  0.33835225  1
  Te  Te149  1  0.49848559  0.33232660  0.66312880  1
  Te  Te150  1  0.50266870  0.67287378  -0.00559539  1
  Te  Te151  1  0.49374620  0.66372470  0.33273748  1
  Te  Te152  1  0.49952505  0.66213415  0.67307068  1
  Te  Te153  1  0.84069207  0.00086064  -0.00080157  1
  Te  Te154  1  0.83399611  -0.00711171  0.33388143  1
  Te  Te155  1  0.83638195  -0.00426552  0.66715095  1
  Te  Te156  1  0.82723525  0.33419154  0.00379250  1
  Te  Te157  1  0.83008535  0.33294344  0.33157834  1
  Te  Te158  1  0.83411329  0.33432697  0.66506770  1
  Te  Te159  1  0.82429102  0.66476707  0.00072744  1
  Te  Te160  1  0.83695138  0.67194292  0.33220634  1
  Te  Te161  1  0.84017609  0.67182258  0.66707713  1
  Te  Te162  1  -0.00048369  0.16175530  0.00067478  1
  Te  Te163  1  0.00227219  0.16944219  0.32973161  1
  Te  Te164  1  -0.00120263  0.17072533  0.66813677  1
  Te  Te165  1  0.00553030  0.50037709  -0.00733464  1
  Te  Te166  1  0.00311760  0.50053564  0.33361601  1
  Te  Te167  1  -0.00262917  0.49700820  0.67011610  1
  Te  Te168  1  0.00294532  0.83496949  0.00072910  1
  Te  Te169  1  0.00097375  0.83377636  0.33233544  1
  Te  Te170  1  -0.00196539  0.83253745  0.66536580  1
  Te  Te171  1  0.33358451  0.15861015  0.00021148  1
  Te  Te172  1  0.33309772  0.17169024  0.33399198  1
  Te  Te173  1  0.33844347  0.16081892  0.66494792  1
  Te  Te174  1  0.32848272  0.49935546  -0.00649590  1
  Te  Te175  1  0.32870080  0.49458201  0.33418178  1
  Te  Te176  1  0.33601797  0.50072433  0.67115933  1
  Te  Te177  1  0.33066591  0.83540397  -0.00151028  1
  Te  Te178  1  0.33441521  0.83510727  0.32916399  1
  Te  Te179  1  0.33433499  0.83703731  0.67508399  1
  Te  Te180  1  0.66751607  0.17185761  0.00659531  1
  Te  Te181  1  0.66749601  0.16939410  0.32990483  1
  Te  Te182  1  0.66624540  0.17040048  0.66630686  1
  Te  Te183  1  0.66596747  0.49860838  -0.00389239  1
  Te  Te184  1  0.66800454  0.49708198  0.33592733  1
  Te  Te185  1  0.66799370  0.49895854  0.66826751  1
  Te  Te186  1  0.66975583  0.83147262  0.00349555  1
  Te  Te187  1  0.66463322  0.83262885  0.33203190  1
  Te  Te188  1  0.67132089  0.83265358  0.66450283  1
  Te  Te189  1  0.00458503  0.00003820  0.16642331  1
  Te  Te190  1  0.00162373  0.00061188  0.51378345  1
  Te  Te191  1  0.00107132  -0.00081749  0.83295625  1
  Te  Te192  1  -0.00025521  0.33252559  0.16699598  1
  Te  Te193  1  0.00350519  0.33395001  0.49568794  1
  Te  Te194  1  -0.00361841  0.33298804  0.83286495  1
  Te  Te195  1  0.00420331  0.67006610  0.16972615  1
  Te  Te196  1  0.00078155  0.66581184  0.49770032  1
  Te  Te197  1  0.00377626  0.66835006  0.83295734  1
  Te  Te198  1  0.33100221  -0.00285906  0.16571027  1
  Te  Te199  1  0.33353735  -0.00679364  0.50100486  1
  Te  Te200  1  0.33015698  -0.00123310  0.83542326  1
  Te  Te201  1  0.33137955  0.33407691  0.17179658  1
  Te  Te202  1  0.33413871  0.33432047  0.49587819  1
  Te  Te203  1  0.33281587  0.33527515  0.83430052  1
  Te  Te204  1  0.32776686  0.67282386  0.17104814  1
  Te  Te205  1  0.33388631  0.67228682  0.49603022  1
  Te  Te206  1  0.33078256  0.66777396  0.83304146  1
  Te  Te207  1  0.66844721  0.00112260  0.16598930  1
  Te  Te208  1  0.66527309  -0.00957610  0.49930664  1
  Te  Te209  1  0.66062836  0.00090662  0.83506257  1
  Te  Te210  1  0.66516513  0.33110247  0.16843452  1
  Te  Te211  1  0.66491266  0.33430592  0.50244474  1
  Te  Te212  1  0.67055050  0.33639683  0.82976954  1
  Te  Te213  1  0.66628891  0.66854556  0.16235335  1
  Te  Te214  1  0.66529876  0.66862718  0.49841197  1
  Te  Te215  1  0.66578660  0.66074902  0.83688659  1
