# generated using pymatgen
data_AgSbTe2
_symmetry_space_group_name_H-M   'P 1'
_cell_length_a   18.33847357
_cell_length_b   18.33669536
_cell_length_c   18.33789198
_cell_angle_alpha   90.00012972
_cell_angle_beta   90.00132969
_cell_angle_gamma   89.99820169
_symmetry_Int_Tables_number   1
_chemical_formula_structural   AgSbTe2
_chemical_formula_sum   'Ag54 Sb54 Te108'
_cell_volume   6166.42797872
_cell_formula_units_Z   54
loop_
 _symmetry_equiv_pos_site_id
 _symmetry_equiv_pos_as_xyz
  1  'x, y, z'
loop_
 _atom_site_type_symbol
 _atom_site_label
 _atom_site_symmetry_multiplicity
 _atom_site_fract_x
 _atom_site_fract_y
 _atom_site_fract_z
 _atom_site_occupancy
  Ag  Ag0  1  0.48748794  0.49927505  0.33292394  1
  Ag  Ag1  1  -0.00865231  0.50054872  0.83456521  1
  Ag  Ag2  1  0.17034899  0.49751556  0.34087805  1
  Ag  Ag3  1  -0.01265199  -0.00009005  0.00008269  1
  Ag  Ag4  1  0.67435636  0.65911091  0.67311342  1
  Ag  Ag5  1  0.00015156  0.49737214  0.16081429  1
  Ag  Ag6  1  -0.00563713  0.66130280  0.67608812  1
  Ag  Ag7  1  0.49262685  0.33130306  0.50767578  1
  Ag  Ag8  1  0.82800616  0.66339319  0.83329471  1
  Ag  Ag9  1  0.33744991  -0.00435171  -0.00284992  1
  Ag  Ag10  1  -0.00258001  0.66405368  -0.00104534  1
  Ag  Ag11  1  0.16932938  0.65702808  0.50119364  1
  Ag  Ag12  1  0.32938195  0.65617883  0.33704907  1
  Ag  Ag13  1  0.50625760  0.65940085  0.83481805  1
  Ag  Ag14  1  -0.00347283  0.33510895  0.00384055  1
  Ag  Ag15  1  0.33040355  0.49700122  0.50482159  1
  Ag  Ag16  1  0.33346381  0.00021734  0.66577764  1
  Ag  Ag17  1  0.67343373  0.00514112  -0.00449677  1
  Ag  Ag18  1  0.00879638  0.33998571  0.32514934  1
  Ag  Ag19  1  0.50803096  0.16163620  -0.00096168  1
  Ag  Ag20  1  0.83598432  0.16671875  0.32265450  1
  Ag  Ag21  1  0.33108151  0.66846569  -0.00364325  1
  Ag  Ag22  1  0.49468616  0.00742698  0.50135492  1
  Ag  Ag23  1  0.83773965  0.50614560  0.67078482  1
  Ag  Ag24  1  0.83175503  0.00261885  0.50230310  1
  Ag  Ag25  1  0.66207309  0.33824418  0.67538740  1
  Ag  Ag26  1  0.67608477  0.32742996  -0.00767720  1
  Ag  Ag27  1  0.66718276  0.16633309  0.50098506  1
  Ag  Ag28  1  0.16843618  0.17985009  0.66232553  1
  Ag  Ag29  1  0.82523268  0.34522672  0.83399194  1
  Ag  Ag30  1  0.50366702  0.00067223  0.83981945  1
  Ag  Ag31  1  0.82595111  -0.00504729  0.84189751  1
  Ag  Ag32  1  0.33431226  0.00186071  0.34393669  1
  Ag  Ag33  1  0.50090838  -0.00019022  0.15668322  1
  Ag  Ag34  1  0.33514784  0.50237815  0.82480662  1
  Ag  Ag35  1  0.83678424  0.84320668  -0.00499691  1
  Ag  Ag36  1  0.33106604  0.65713163  0.67003124  1
  Ag  Ag37  1  0.17531105  0.00202592  0.50201424  1
  Ag  Ag38  1  0.83090656  0.15737455  0.00163932  1
  Ag  Ag39  1  0.83171998  0.82716499  0.67880495  1
  Ag  Ag40  1  0.33397151  0.34090439  0.66232593  1
  Ag  Ag41  1  0.50009752  0.66651036  0.15754081  1
  Ag  Ag42  1  0.83169646  -0.00001626  0.15381975  1
  Ag  Ag43  1  0.00527074  0.65824127  0.33073003  1
  Ag  Ag44  1  0.32830852  0.34174679  0.34433509  1
  Ag  Ag45  1  0.67076505  0.82541044  0.83384760  1
  Ag  Ag46  1  0.50627382  0.34255052  0.83031057  1
  Ag  Ag47  1  0.66914082  0.50082855  0.83132642  1
  Ag  Ag48  1  0.83770368  0.66854719  0.15337552  1
  Ag  Ag49  1  0.16165720  0.33527471  0.17410795  1
  Ag  Ag50  1  -0.00274768  0.17518323  0.16401264  1
  Ag  Ag51  1  0.17397345  0.34073873  0.49876957  1
  Ag  Ag52  1  0.15968547  0.83334850  -0.00060993  1
  Ag  Ag53  1  0.17053663  0.49955809  0.66184186  1
  Sb  Sb54  1  0.33398211  0.83260743  0.16375647  1
  Sb  Sb55  1  0.16439631  0.50322739  -0.00119883  1
  Sb  Sb56  1  0.50229617  0.16864843  0.33090230  1
  Sb  Sb57  1  -0.00110797  0.82962941  0.16202145  1
  Sb  Sb58  1  0.33868801  0.82839300  0.83395173  1
  Sb  Sb59  1  0.66833043  0.83727270  0.50854895  1
  Sb  Sb60  1  0.00040807  0.83268446  0.50110718  1
  Sb  Sb61  1  0.16366683  0.17484765  0.33825869  1
  Sb  Sb62  1  0.16549140  0.66459293  0.83028015  1
  Sb  Sb63  1  0.66843715  0.83380237  0.15736989  1
  Sb  Sb64  1  0.33370337  0.83150887  0.50216643  1
  Sb  Sb65  1  0.49329002  0.66192739  0.50398373  1
  Sb  Sb66  1  0.33011625  0.16611398  0.16624881  1
  Sb  Sb67  1  -0.00227338  0.16780790  0.49586284  1
  Sb  Sb68  1  0.16736427  0.82885945  0.33114430  1
  Sb  Sb69  1  0.83565277  0.83679413  0.33019536  1
  Sb  Sb70  1  0.00722376  0.50020941  0.50167461  1
  Sb  Sb71  1  0.50368415  0.83364398  0.66947313  1
  Sb  Sb72  1  0.84005681  0.33321494  0.15939624  1
  Sb  Sb73  1  0.66387862  0.00104538  0.33175803  1
  Sb  Sb74  1  0.66679429  0.17136852  0.83298480  1
  Sb  Sb75  1  0.67176784  0.50122118  0.16026518  1
  Sb  Sb76  1  0.00161296  0.33945570  0.66824600  1
  Sb  Sb77  1  0.33183279  0.33601092  -0.00370140  1
  Sb  Sb78  1  0.50332731  0.83871852  -0.00233253  1
  Sb  Sb79  1  0.16381239  0.16404024  -0.00261070  1
  Sb  Sb80  1  0.83864638  0.49683658  0.33802636  1
  Sb  Sb81  1  0.32900864  0.50153346  0.16938018  1
  Sb  Sb82  1  0.33562882  0.16956651  0.83219845  1
  Sb  Sb83  1  0.49595245  0.33422495  0.16444660  1
  Sb  Sb84  1  0.83893858  0.66968661  0.50590193  1
  Sb  Sb85  1  0.83310337  0.33086134  0.50417025  1
  Sb  Sb86  1  -0.00948805  0.82551251  0.83578823  1
  Sb  Sb87  1  0.16872310  -0.00053015  0.83173679  1
  Sb  Sb88  1  0.33555034  0.17191807  0.50056511  1
  Sb  Sb89  1  0.16340505  0.82686979  0.67028055  1
  Sb  Sb90  1  0.49556241  0.49828996  0.66790737  1
  Sb  Sb91  1  0.67213894  0.16634053  0.16512002  1
  Sb  Sb92  1  0.16387964  0.66092519  0.16918473  1
  Sb  Sb93  1  0.66552315  0.66291915  0.33809403  1
  Sb  Sb94  1  0.00068119  -0.00404699  0.67222637  1
  Sb  Sb95  1  0.00144486  0.00174421  0.32872990  1
  Sb  Sb96  1  0.83581927  0.50005276  -0.00855987  1
  Sb  Sb97  1  0.16692906  0.33696747  0.83041428  1
  Sb  Sb98  1  0.66469432  0.00265054  0.67268873  1
  Sb  Sb99  1  -0.00373482  0.17242461  0.83945432  1
  Sb  Sb100  1  0.49746504  0.16879824  0.67031060  1
  Sb  Sb101  1  0.65953047  0.49580638  0.50820453  1
  Sb  Sb102  1  0.83531073  0.16676453  0.67124528  1
  Sb  Sb103  1  0.16649866  0.00498490  0.16830001  1
  Sb  Sb104  1  0.66532597  0.33280420  0.33432747  1
  Sb  Sb105  1  0.49804028  0.83054329  0.33355247  1
  Sb  Sb106  1  0.66956631  0.66773424  -0.00835182  1
  Sb  Sb107  1  0.49923090  0.49927072  -0.00006824  1
  Te  Te108  1  0.15897011  0.17292542  0.16685519  1
  Te  Te109  1  0.16543022  0.16162198  0.50389263  1
  Te  Te110  1  0.16589699  0.16798018  0.82384186  1
  Te  Te111  1  0.16046272  0.49521986  0.16972820  1
  Te  Te112  1  0.17014100  0.49978668  0.50014322  1
  Te  Te113  1  0.17206687  0.49963582  0.82770737  1
  Te  Te114  1  0.16656383  0.83382207  0.15868293  1
  Te  Te115  1  0.16673422  0.84056855  0.50030153  1
  Te  Te116  1  0.16651227  0.83279127  0.84020607  1
  Te  Te117  1  0.50051113  0.16229707  0.16217124  1
  Te  Te118  1  0.50446728  0.16904243  0.49905463  1
  Te  Te119  1  0.50028694  0.16086655  0.83881492  1
  Te  Te120  1  0.50262635  0.50374496  0.17094674  1
  Te  Te121  1  0.49363672  0.49536060  0.49409577  1
  Te  Te122  1  0.49872035  0.50069718  0.83455763  1
  Te  Te123  1  0.50176657  0.83250214  0.16674306  1
  Te  Te124  1  0.50176647  0.84480477  0.50110099  1
  Te  Te125  1  0.50802284  0.83568087  0.83316505  1
  Te  Te126  1  0.83648723  0.16533189  0.16333762  1
  Te  Te127  1  0.83078487  0.16334795  0.50330777  1
  Te  Te128  1  0.83361513  0.15817817  0.83870040  1
  Te  Te129  1  0.83868730  0.50745637  0.17047849  1
  Te  Te130  1  0.82929462  0.50049757  0.50794830  1
  Te  Te131  1  0.83228916  0.50272520  0.82907539  1
  Te  Te132  1  0.83267243  0.83358326  0.16250316  1
  Te  Te133  1  0.83296951  0.84077952  0.50070583  1
  Te  Te134  1  0.83043181  0.83337393  0.83511551  1
  Te  Te135  1  0.17553140  -0.00280414  0.00033369  1
  Te  Te136  1  0.17046768  -0.00149838  0.33736355  1
  Te  Te137  1  0.16807902  -0.00566601  0.66341597  1
  Te  Te138  1  0.16199861  0.33278184  0.00154555  1
  Te  Te139  1  0.16790973  0.33501679  0.33702601  1
  Te  Te140  1  0.16904074  0.33734942  0.66353101  1
  Te  Te141  1  0.16639550  0.66979284  0.00137396  1
  Te  Te142  1  0.16874664  0.66396558  0.33559925  1
  Te  Te143  1  0.17034087  0.66421826  0.66281685  1
  Te  Te144  1  0.49694644  -0.00031160  -0.00008281  1
  Te  Te145  1  0.49631246  0.00034542  0.33538927  1
  Te  Te146  1  0.49718922  0.00124159  0.66521617  1
  Te  Te147  1  0.49821147  0.32778255  -0.00308846  1
  Te  Te148  1  0.49630910  0.33560853  0.33310399  1
  Te  Te149  1  0.49800746  0.33222160  0.66817467  1
  Te  Te150  1  0.49951766  0.66761891  -0.00190855  1
  Te  Te151  1  0.49599424  0.66322515  0.33470291  1
  Te  Te152  1  0.49281520  0.66720957  0.67154327  1
  Te  Te153  1  0.83212086  0.00063550  -0.00100383  1
  Te  Te154  1  0.83393579  0.00416836  0.33745854  1
  Te  Te155  1  0.83339528  -0.00159432  0.66513188  1
  Te  Te156  1  0.83573955  0.33381781  -0.00495274  1
  Te  Te157  1  0.83522696  0.32799988  0.33403073  1
  Te  Te158  1  0.83247027  0.33511409  0.67269563  1
  Te  Te159  1  0.83393073  0.66642967  -0.00298616  1
  Te  Te160  1  0.83638713  0.66690359  0.33517090  1
  Te  Te161  1  0.83456941  0.66671754  0.66792795  1
  Te  Te162  1  -0.00071638  0.16674838  0.00375992  1
  Te  Te163  1  -0.00399102  0.16905566  0.32743659  1
  Te  Te164  1  0.00633220  0.16596580  0.66721169  1
  Te  Te165  1  0.00147721  0.50144931  -0.00101080  1
  Te  Te166  1  0.00269881  0.49924969  0.33434139  1
  Te  Te167  1  0.00046567  0.50344774  0.66912400  1
  Te  Te168  1  -0.00203519  0.83341899  -0.00069712  1
  Te  Te169  1  0.00094605  0.82158022  0.33265475  1
  Te  Te170  1  -0.00649056  0.82458068  0.66790834  1
  Te  Te171  1  0.33287906  0.16355710  -0.00055622  1
  Te  Te172  1  0.33316304  0.16124009  0.33223718  1
  Te  Te173  1  0.32879015  0.16095265  0.66681707  1
  Te  Te174  1  0.33208838  0.50603570  -0.00435995  1
  Te  Te175  1  0.33036059  0.49979373  0.33105754  1
  Te  Te176  1  0.33258656  0.50018283  0.66528341  1
  Te  Te177  1  0.33153596  0.82949078  -0.00168765  1
  Te  Te178  1  0.33250984  0.83704298  0.33311951  1
  Te  Te179  1  0.33239407  0.83817944  0.66810594  1
  Te  Te180  1  0.66812274  0.16672599  0.00076379  1
  Te  Te181  1  0.67352452  0.16746247  0.33764369  1
  Te  Te182  1  0.66695982  0.17351124  0.66079464  1
  Te  Te183  1  0.66557869  0.49295846  -0.00614410  1
  Te  Te184  1  0.66477783  0.49850758  0.33403643  1
  Te  Te185  1  0.66755489  0.49845375  0.67092001  1
  Te  Te186  1  0.67382439  0.83791708  -0.00696059  1
  Te  Te187  1  0.66738449  0.83150499  0.33388093  1
  Te  Te188  1  0.67233207  0.83015226  0.67398104  1
  Te  Te189  1  -0.00304124  0.00099974  0.16304209  1
  Te  Te190  1  -0.00298820  0.00008285  0.49963794  1
  Te  Te191  1  -0.00092096  0.00093556  0.84032051  1
  Te  Te192  1  0.00017492  0.33632175  0.16563274  1
  Te  Te193  1  0.00312155  0.33301785  0.49581551  1
  Te  Te194  1  -0.00318839  0.33962386  0.83672065  1
  Te  Te195  1  -0.00213317  0.66353129  0.16301467  1
  Te  Te196  1  0.00654688  0.66679106  0.49718734  1
  Te  Te197  1  -0.00119694  0.66053762  0.83522306  1
  Te  Te198  1  0.33700327  -0.00032965  0.16134209  1
  Te  Te199  1  0.33497793  -0.00000745  0.50220558  1
  Te  Te200  1  0.33696656  -0.00091531  0.83262336  1
  Te  Te201  1  0.32683999  0.33312300  0.16866534  1
  Te  Te202  1  0.33349247  0.33462866  0.50146564  1
  Te  Te203  1  0.33828953  0.33739221  0.82872799  1
  Te  Te204  1  0.33787248  0.66618346  0.16500243  1
  Te  Te205  1  0.33044448  0.66479754  0.49899197  1
  Te  Te206  1  0.33380482  0.66427548  0.83335041  1
  Te  Te207  1  0.66657108  0.00007498  0.16217221  1
  Te  Te208  1  0.66654565  0.00357508  0.50062005  1
  Te  Te209  1  0.66589163  0.00234026  0.83494205  1
  Te  Te210  1  0.66652005  0.33459040  0.15910792  1
  Te  Te211  1  0.66417615  0.32958921  0.50260535  1
  Te  Te212  1  0.66568227  0.33457100  0.83348374  1
  Te  Te213  1  0.66508429  0.66638076  0.16810053  1
  Te  Te214  1  0.66399064  0.66801782  0.51020308  1
  Te  Te215  1  0.66631161  0.66369773  0.83082687  1
