# generated using pymatgen
data_AgSbTe2
_symmetry_space_group_name_H-M   'P 1'
_cell_length_a   18.30934176
_cell_length_b   18.31202238
_cell_length_c   18.31101342
_cell_angle_alpha   90.00098056
_cell_angle_beta   89.99866559
_cell_angle_gamma   90.00098978
_symmetry_Int_Tables_number   1
_chemical_formula_structural   AgSbTe2
_chemical_formula_sum   'Ag54 Sb54 Te108'
_cell_volume   6139.33628007
_cell_formula_units_Z   54
loop_
 _symmetry_equiv_pos_site_id
 _symmetry_equiv_pos_as_xyz
  1  'x, y, z'
loop_
 _atom_site_type_symbol
 _atom_site_label
 _atom_site_symmetry_multiplicity
 _atom_site_fract_x
 _atom_site_fract_y
 _atom_site_fract_z
 _atom_site_occupancy
  Ag  Ag0  1  0.66601248  0.84072238  0.51035213  1
  Ag  Ag1  1  0.66594013  0.32954853  0.67513566  1
  Ag  Ag2  1  0.16910101  0.67377409  0.17401356  1
  Ag  Ag3  1  0.00279572  -0.00128796  0.33132759  1
  Ag  Ag4  1  0.33113520  0.50256534  0.49262757  1
  Ag  Ag5  1  0.83463438  0.17016241  -0.00273207  1
  Ag  Ag6  1  0.50417245  0.32791765  0.83387574  1
  Ag  Ag7  1  0.49834981  0.16939717  0.33913920  1
  Ag  Ag8  1  0.32739782  0.65954269  0.33617156  1
  Ag  Ag9  1  0.49930072  0.84177464  0.67158978  1
  Ag  Ag10  1  0.00224475  0.50364741  0.49759764  1
  Ag  Ag11  1  0.83040911  0.49554052  0.33057214  1
  Ag  Ag12  1  0.33309393  -0.00361958  0.67117711  1
  Ag  Ag13  1  0.00873556  0.66745613  0.33614185  1
  Ag  Ag14  1  0.83180534  0.83511121  0.67613634  1
  Ag  Ag15  1  0.67439927  0.66565923  -0.00296227  1
  Ag  Ag16  1  0.66649873  0.00929952  0.33817622  1
  Ag  Ag17  1  0.66226702  0.33009838  0.33434667  1
  Ag  Ag18  1  0.66545566  0.16661253  0.82984609  1
  Ag  Ag19  1  0.83128632  0.83559070  -0.00567338  1
  Ag  Ag20  1  -0.01321945  0.32953980  -0.00180863  1
  Ag  Ag21  1  0.49899520  0.16061348  0.66603750  1
  Ag  Ag22  1  0.50447006  0.83616538  -0.00975100  1
  Ag  Ag23  1  0.33186863  0.16705873  0.16832815  1
  Ag  Ag24  1  0.34027593  0.33821375  0.32797185  1
  Ag  Ag25  1  0.32751176  0.67426976  0.66178896  1
  Ag  Ag26  1  0.17347922  0.15652863  0.66396825  1
  Ag  Ag27  1  -0.00784424  0.84059855  0.83376061  1
  Ag  Ag28  1  0.49362964  0.49132192  0.33550814  1
  Ag  Ag29  1  0.00199292  -0.00068770  -0.00798421  1
  Ag  Ag30  1  0.67031510  0.84040344  0.83094562  1
  Ag  Ag31  1  0.66441177  0.16394950  0.50278626  1
  Ag  Ag32  1  0.82935777  0.33381786  0.49489550  1
  Ag  Ag33  1  0.33944637  0.49775016  0.83456857  1
  Ag  Ag34  1  0.32897640  0.00232365  -0.00435115  1
  Ag  Ag35  1  -0.00459252  0.15621098  0.83527997  1
  Ag  Ag36  1  0.66357999  0.49048044  0.83671423  1
  Ag  Ag37  1  0.33271587  0.49794209  0.17241273  1
  Ag  Ag38  1  0.16929039  -0.00261548  0.16671216  1
  Ag  Ag39  1  -0.00450848  0.67103920  -0.00316628  1
  Ag  Ag40  1  0.17082062  0.83846982  0.66702415  1
  Ag  Ag41  1  0.66954527  0.33509295  -0.00602805  1
  Ag  Ag42  1  0.50081071  0.00183076  0.82723418  1
  Ag  Ag43  1  0.33077651  0.83691196  0.16448887  1
  Ag  Ag44  1  0.17018440  -0.00177204  0.50619004  1
  Ag  Ag45  1  0.00742493  0.67061168  0.66690888  1
  Ag  Ag46  1  0.49619693  0.00148473  0.50657848  1
  Ag  Ag47  1  0.16663930  0.67073673  0.49756048  1
  Ag  Ag48  1  0.83092993  0.49296663  0.00114980  1
  Ag  Ag49  1  0.83237684  0.33401415  0.16239279  1
  Ag  Ag50  1  0.17191312  0.16133644  0.33685302  1
  Ag  Ag51  1  0.33642399  0.33067475  0.00487402  1
  Ag  Ag52  1  0.16631414  0.00050365  0.82992503  1
  Ag  Ag53  1  0.83620954  -0.00194834  0.83527223  1
  Sb  Sb54  1  0.49198545  0.66680759  0.16685820  1
  Sb  Sb55  1  0.17092802  0.32637967  0.83388719  1
  Sb  Sb56  1  0.00521882  0.83368069  0.15983203  1
  Sb  Sb57  1  0.33222866  0.00200803  0.33270277  1
  Sb  Sb58  1  0.00809662  -0.00495358  0.67214236  1
  Sb  Sb59  1  0.66586194  0.49718625  0.50167133  1
  Sb  Sb60  1  0.66220944  0.16753833  0.16577600  1
  Sb  Sb61  1  0.49354236  0.00082726  0.16506500  1
  Sb  Sb62  1  0.16962191  0.50016760  0.33405781  1
  Sb  Sb63  1  0.33855905  0.33141161  0.66647474  1
  Sb  Sb64  1  0.50031464  0.33268601  0.16552718  1
  Sb  Sb65  1  0.33514446  0.83208985  0.50056789  1
  Sb  Sb66  1  0.00505389  0.16580186  0.16174912  1
  Sb  Sb67  1  0.16674972  0.83629147  0.33715976  1
  Sb  Sb68  1  0.00309476  0.50085828  0.16938886  1
  Sb  Sb69  1  0.82563152  0.32736606  0.83741693  1
  Sb  Sb70  1  0.16820896  0.50269736  0.66560290  1
  Sb  Sb71  1  0.16775372  0.33057145  0.16709575  1
  Sb  Sb72  1  0.16521272  0.83658516  -0.00504291  1
  Sb  Sb73  1  0.83191898  0.50305700  0.66961819  1
  Sb  Sb74  1  0.83891354  0.66318217  0.49986743  1
  Sb  Sb75  1  0.16508581  0.33150724  0.49913643  1
  Sb  Sb76  1  0.83819715  0.00367138  0.16113844  1
  Sb  Sb77  1  0.16459110  0.50068096  -0.00032505  1
  Sb  Sb78  1  0.49992189  0.66976572  0.83350801  1
  Sb  Sb79  1  0.66759238  0.00151169  -0.00318175  1
  Sb  Sb80  1  0.33140747  0.66746104  0.00068336  1
  Sb  Sb81  1  0.83303356  0.00234110  0.50458948  1
  Sb  Sb82  1  -0.00288328  0.50132317  0.83401929  1
  Sb  Sb83  1  0.66589467  0.66922373  0.67084034  1
  Sb  Sb84  1  0.16665596  0.67319878  0.83067741  1
  Sb  Sb85  1  0.66428790  0.49848022  0.16284539  1
  Sb  Sb86  1  0.65817061  0.00300610  0.66580443  1
  Sb  Sb87  1  0.50211312  0.50147080  0.00055232  1
  Sb  Sb88  1  0.66612018  0.66353443  0.33030911  1
  Sb  Sb89  1  -0.00102285  0.33351433  0.33059498  1
  Sb  Sb90  1  0.66252506  0.83485735  0.16099214  1
  Sb  Sb91  1  0.33548289  0.83505479  0.83382223  1
  Sb  Sb92  1  0.16432187  0.16314270  -0.00123680  1
  Sb  Sb93  1  0.84021998  0.66251707  0.16298009  1
  Sb  Sb94  1  0.50471561  0.32748625  0.50041017  1
  Sb  Sb95  1  0.33632367  0.16579558  0.83554235  1
  Sb  Sb96  1  0.82959185  0.16167250  0.67273772  1
  Sb  Sb97  1  0.83382740  0.83112665  0.33254446  1
  Sb  Sb98  1  0.49443372  0.67159513  0.50070609  1
  Sb  Sb99  1  -0.00306645  0.16781575  0.50385560  1
  Sb  Sb100  1  0.49811750  0.49941991  0.66454000  1
  Sb  Sb101  1  0.33754262  0.16803571  0.49656040  1
  Sb  Sb102  1  -0.00493623  0.33500868  0.67122715  1
  Sb  Sb103  1  0.83171423  0.17023519  0.32935219  1
  Sb  Sb104  1  0.49895861  0.83651320  0.33564405  1
  Sb  Sb105  1  0.50228518  0.16463591  -0.00389204  1
  Sb  Sb106  1  -0.00207384  0.83137293  0.50711704  1
  Sb  Sb107  1  0.83297290  0.67449346  0.83547554  1
  Te  Te108  1  0.17160943  0.16289918  0.17080720  1
  Te  Te109  1  0.16533297  0.16290252  0.50131227  1
  Te  Te110  1  0.16495063  0.15979585  0.82872481  1
  Te  Te111  1  0.17387864  0.50316462  0.16691565  1
  Te  Te112  1  0.16647535  0.50283212  0.50023398  1
  Te  Te113  1  0.17231708  0.49817511  0.83250404  1
  Te  Te114  1  0.17125642  0.83530512  0.16659577  1
  Te  Te115  1  0.16573880  0.83531849  0.50617988  1
  Te  Te116  1  0.16398662  0.83990647  0.82694476  1
  Te  Te117  1  0.49295255  0.16629049  0.17440242  1
  Te  Te118  1  0.50408600  0.16238675  0.50107417  1
  Te  Te119  1  0.50303664  0.16414250  0.83064071  1
  Te  Te120  1  0.49312438  0.49969578  0.17317539  1
  Te  Te121  1  0.49579540  0.50079155  0.49585655  1
  Te  Te122  1  0.50169986  0.49770982  0.83297354  1
  Te  Te123  1  0.49335513  0.83418854  0.16307335  1
  Te  Te124  1  0.50520850  0.84014698  0.50339363  1
  Te  Te125  1  0.50203901  0.83614239  0.83215120  1
  Te  Te126  1  0.83368942  0.17213353  0.15955673  1
  Te  Te127  1  0.82749933  0.17122827  0.50058506  1
  Te  Te128  1  0.83181505  0.16086629  0.83697188  1
  Te  Te129  1  0.83382436  0.49547069  0.16546385  1
  Te  Te130  1  0.83488799  0.49611204  0.49920390  1
  Te  Te131  1  0.82843303  0.49949690  0.83868689  1
  Te  Te132  1  0.83277259  0.83345279  0.15931024  1
  Te  Te133  1  0.82608779  0.83332429  0.50121430  1
  Te  Te134  1  0.83183497  0.83716375  0.83486862  1
  Te  Te135  1  0.16809154  -0.00001527  0.00015249  1
  Te  Te136  1  0.16517527  0.00129007  0.33374454  1
  Te  Te137  1  0.16947126  -0.00015966  0.66570088  1
  Te  Te138  1  0.17487286  0.33191369  0.00032120  1
  Te  Te139  1  0.17001370  0.32476698  0.33360147  1
  Te  Te140  1  0.16559019  0.32478216  0.66610170  1
  Te  Te141  1  0.16033279  0.66884230  0.00216459  1
  Te  Te142  1  0.16706886  0.66752521  0.33552188  1
  Te  Te143  1  0.16748378  0.66888844  0.66404650  1
  Te  Te144  1  0.49666173  -0.00308517  -0.00294150  1
  Te  Te145  1  0.50238513  0.00346593  0.33725574  1
  Te  Te146  1  0.49640698  0.00032864  0.66641530  1
  Te  Te147  1  0.50002137  0.33339548  -0.00419209  1
  Te  Te148  1  0.50002158  0.33160990  0.33361631  1
  Te  Te149  1  0.50523825  0.32930387  0.67007988  1
  Te  Te150  1  0.50396743  0.67293188  0.00041093  1
  Te  Te151  1  0.49556175  0.66338290  0.33363568  1
  Te  Te152  1  0.49393822  0.67222095  0.66617707  1
  Te  Te153  1  0.83602256  -0.00045464  -0.00258155  1
  Te  Te154  1  0.83507471  0.00040458  0.33182890  1
  Te  Te155  1  0.83622496  -0.00596156  0.67242426  1
  Te  Te156  1  0.83061563  0.33328588  -0.00080604  1
  Te  Te157  1  0.83384855  0.33589687  0.33219150  1
  Te  Te158  1  0.82696534  0.33399641  0.66256371  1
  Te  Te159  1  0.83490563  0.66753188  0.00096384  1
  Te  Te160  1  0.83654298  0.66036423  0.33106607  1
  Te  Te161  1  0.83822040  0.67254708  0.66577270  1
  Te  Te162  1  -0.00185590  0.16451771  -0.00402467  1
  Te  Te163  1  0.00304993  0.16312729  0.33406993  1
  Te  Te164  1  0.00101115  0.16806692  0.67326823  1
  Te  Te165  1  -0.00465048  0.50111966  0.00033004  1
  Te  Te166  1  -0.00228603  0.50174922  0.33671031  1
  Te  Te167  1  -0.00003217  0.50549094  0.66269389  1
  Te  Te168  1  -0.00222353  0.83524682  -0.00508136  1
  Te  Te169  1  -0.00110365  0.83194447  0.33247935  1
  Te  Te170  1  -0.00111476  0.82944065  0.67113682  1
  Te  Te171  1  0.33393727  0.16653430  0.00417719  1
  Te  Te172  1  0.33415497  0.16885062  0.33257326  1
  Te  Te173  1  0.33498081  0.16304780  0.66558572  1
  Te  Te174  1  0.33387314  0.49766299  -0.00189885  1
  Te  Te175  1  0.33268912  0.49884742  0.33364535  1
  Te  Te176  1  0.33413995  0.50136057  0.66811713  1
  Te  Te177  1  0.33585435  0.83580583  0.00209380  1
  Te  Te178  1  0.33394473  0.82600086  0.32818471  1
  Te  Te179  1  0.33431739  0.83424176  0.66667419  1
  Te  Te180  1  0.66976309  0.17055444  -0.00237949  1
  Te  Te181  1  0.66542316  0.16842110  0.33328485  1
  Te  Te182  1  0.66462359  0.16930342  0.66761367  1
  Te  Te183  1  0.66860595  0.49801761  -0.00252363  1
  Te  Te184  1  0.66865996  0.49659399  0.33288869  1
  Te  Te185  1  0.66581941  0.49679912  0.67365443  1
  Te  Te186  1  0.66708678  0.83394121  -0.00378172  1
  Te  Te187  1  0.66668546  0.83363847  0.33473949  1
  Te  Te188  1  0.66554602  0.83216287  0.66945608  1
  Te  Te189  1  0.00646783  -0.00028505  0.16910022  1
  Te  Te190  1  0.00286674  -0.00011403  0.49379475  1
  Te  Te191  1  0.00145091  -0.00010205  0.83421904  1
  Te  Te192  1  -0.00347853  0.33347083  0.15843084  1
  Te  Te193  1  -0.00499770  0.33789284  0.50145826  1
  Te  Te194  1  0.00163027  0.33232111  0.83950262  1
  Te  Te195  1  0.00836445  0.66718032  0.16843160  1
  Te  Te196  1  0.00511357  0.66525831  0.49815067  1
  Te  Te197  1  0.00128791  0.66860311  0.83443254  1
  Te  Te198  1  0.32916598  0.00011631  0.16544597  1
  Te  Te199  1  0.33195053  0.00002133  0.50239148  1
  Te  Te200  1  0.33403241  -0.00000862  0.83523577  1
  Te  Te201  1  0.33377569  0.33336178  0.16650561  1
  Te  Te202  1  0.33367759  0.34026263  0.49696692  1
  Te  Te203  1  0.33876445  0.33592983  0.83473290  1
  Te  Te204  1  0.32717697  0.66491758  0.16726245  1
  Te  Te205  1  0.32863474  0.66554124  0.50003593  1
  Te  Te206  1  0.33238104  0.65982276  0.83044439  1
  Te  Te207  1  0.66694232  -0.00003191  0.17684744  1
  Te  Te208  1  0.66816880  0.00204073  0.49788472  1
  Te  Te209  1  0.66281258  0.00052877  0.83311406  1
  Te  Te210  1  0.67089854  0.33325577  0.16866508  1
  Te  Te211  1  0.66917778  0.33226789  0.49455298  1
  Te  Te212  1  0.66448530  0.33010144  0.83446324  1
  Te  Te213  1  0.66671853  0.66694158  0.15871141  1
  Te  Te214  1  0.66680658  0.67061390  0.50025083  1
  Te  Te215  1  0.66628828  0.66850111  0.83833480  1
