# generated using pymatgen
data_AgSbTe2
_symmetry_space_group_name_H-M   'P 1'
_cell_length_a   18.33558841
_cell_length_b   18.33448345
_cell_length_c   18.34222776
_cell_angle_alpha   89.99806516
_cell_angle_beta   89.99744504
_cell_angle_gamma   90.00247074
_symmetry_Int_Tables_number   1
_chemical_formula_structural   AgSbTe2
_chemical_formula_sum   'Ag54 Sb54 Te108'
_cell_volume   6166.17166292
_cell_formula_units_Z   54
loop_
 _symmetry_equiv_pos_site_id
 _symmetry_equiv_pos_as_xyz
  1  'x, y, z'
loop_
 _atom_site_type_symbol
 _atom_site_label
 _atom_site_symmetry_multiplicity
 _atom_site_fract_x
 _atom_site_fract_y
 _atom_site_fract_z
 _atom_site_occupancy
  Ag  Ag0  1  0.16793046  0.01108502  0.82678603  1
  Ag  Ag1  1  0.50786119  0.82929831  0.33789655  1
  Ag  Ag2  1  -0.00542526  0.82085380  0.16884707  1
  Ag  Ag3  1  0.67326271  0.33814617  -0.00293930  1
  Ag  Ag4  1  0.33204425  0.17561024  0.16729678  1
  Ag  Ag5  1  0.66993623  0.50290237  0.50218354  1
  Ag  Ag6  1  0.66996885  0.66030665  0.65894209  1
  Ag  Ag7  1  0.66884266  0.82310679  0.50021952  1
  Ag  Ag8  1  0.49552546  0.34146537  0.49975778  1
  Ag  Ag9  1  0.83600845  0.50020620  0.33962751  1
  Ag  Ag10  1  0.50027901  0.49906060  0.00338018  1
  Ag  Ag11  1  0.16574705  0.17313645  0.33770282  1
  Ag  Ag12  1  0.49891858  0.34067719  0.16764918  1
  Ag  Ag13  1  0.50822994  0.66091078  0.49881511  1
  Ag  Ag14  1  0.17019841  0.18182910  0.65910792  1
  Ag  Ag15  1  0.83748325  0.17845595  0.33186629  1
  Ag  Ag16  1  0.83275099  0.65722870  0.82954836  1
  Ag  Ag17  1  0.50177848  0.66176991  0.17333803  1
  Ag  Ag18  1  0.82774066  0.81751657  0.65389686  1
  Ag  Ag19  1  0.83185970  -0.00565491  0.49621372  1
  Ag  Ag20  1  -0.00572352  0.66085364  0.33030940  1
  Ag  Ag21  1  0.17072783  0.33739432  0.50127779  1
  Ag  Ag22  1  0.83178604  0.34464095  0.49492850  1
  Ag  Ag23  1  0.32533704  0.33080197  0.33962749  1
  Ag  Ag24  1  0.83074511  0.18156319  0.00670001  1
  Ag  Ag25  1  -0.00750366  0.33601505  0.00737025  1
  Ag  Ag26  1  0.33910387  0.65834817  0.66332548  1
  Ag  Ag27  1  0.66650379  0.33986952  0.66375359  1
  Ag  Ag28  1  0.83566921  0.66075706  0.17392226  1
  Ag  Ag29  1  0.32880726  0.17264274  0.83627991  1
  Ag  Ag30  1  0.67047452  -0.00503638  0.00303897  1
  Ag  Ag31  1  0.66984102  0.66192415  -0.00169215  1
  Ag  Ag32  1  0.67017050  -0.00374226  0.33412660  1
  Ag  Ag33  1  0.50101274  0.33525517  0.82908587  1
  Ag  Ag34  1  0.33392372  0.00750695  0.33490234  1
  Ag  Ag35  1  0.16598430  0.00539566  0.50021964  1
  Ag  Ag36  1  -0.00153727  0.33837954  0.32914258  1
  Ag  Ag37  1  0.32941145  0.33842540  0.65900857  1
  Ag  Ag38  1  0.15462626  0.65898079  0.17494831  1
  Ag  Ag39  1  0.33887021  0.66523152  0.00051127  1
  Ag  Ag40  1  -0.00243184  0.49928250  0.16527510  1
  Ag  Ag41  1  0.83119201  0.82905395  0.00503624  1
  Ag  Ag42  1  0.33686316  0.49870399  0.50170831  1
  Ag  Ag43  1  0.83549836  0.33901084  0.83914864  1
  Ag  Ag44  1  0.83477900  0.50072736  0.65913102  1
  Ag  Ag45  1  0.16859950  0.33180332  0.82248445  1
  Ag  Ag46  1  0.82460385  0.66286534  0.49900491  1
  Ag  Ag47  1  0.83064803  0.82665756  0.33573868  1
  Ag  Ag48  1  0.16179322  0.33831332  0.17523349  1
  Ag  Ag49  1  0.16851246  0.65653385  0.49707874  1
  Ag  Ag50  1  0.50765203  0.82550537  0.65835726  1
  Ag  Ag51  1  0.83933486  0.33958081  0.16921625  1
  Ag  Ag52  1  -0.00342445  0.49709524  0.83875181  1
  Ag  Ag53  1  0.16416944  0.49749385  0.66306200  1
  Sb  Sb54  1  0.83752626  0.17539453  0.66375151  1
  Sb  Sb55  1  0.33114564  0.00246256  0.66036216  1
  Sb  Sb56  1  0.66824394  0.83083030  0.82841758  1
  Sb  Sb57  1  0.16252577  0.66112655  0.83048423  1
  Sb  Sb58  1  0.00363984  0.17729311  0.83479876  1
  Sb  Sb59  1  0.67178604  0.49826278  0.82822171  1
  Sb  Sb60  1  0.33048782  0.66208669  0.33540666  1
  Sb  Sb61  1  0.33830876  0.82645986  0.49859013  1
  Sb  Sb62  1  -0.00364711  0.82601135  0.83778563  1
  Sb  Sb63  1  0.33105574  0.49430408  0.82718013  1
  Sb  Sb64  1  0.66907518  0.17066754  0.49867716  1
  Sb  Sb65  1  0.50464690  0.17574652  0.00138551  1
  Sb  Sb66  1  0.83339281  -0.00008843  0.17243466  1
  Sb  Sb67  1  0.82832196  0.49998299  0.00064193  1
  Sb  Sb68  1  0.33423941  0.33794786  0.00005114  1
  Sb  Sb69  1  0.33077541  0.83100265  0.16931173  1
  Sb  Sb70  1  0.50513107  0.50269937  0.33386001  1
  Sb  Sb71  1  -0.00583541  0.65929204  0.00733071  1
  Sb  Sb72  1  0.67211772  0.82908039  0.17263625  1
  Sb  Sb73  1  0.33723800  -0.00210810  0.00303837  1
  Sb  Sb74  1  0.16930463  0.49828902  -0.00179369  1
  Sb  Sb75  1  0.50107113  -0.00282547  0.49737056  1
  Sb  Sb76  1  -0.00269851  0.00096439  0.33364721  1
  Sb  Sb77  1  0.16003308  0.49299783  0.33889114  1
  Sb  Sb78  1  0.66848266  -0.00182130  0.66399281  1
  Sb  Sb79  1  0.32979180  0.17551553  0.49733445  1
  Sb  Sb80  1  0.50068876  -0.00153987  0.16850963  1
  Sb  Sb81  1  0.67391575  0.66984928  0.33689170  1
  Sb  Sb82  1  0.49703515  0.00563109  0.83310172  1
  Sb  Sb83  1  0.83703814  0.00197248  0.83112617  1
  Sb  Sb84  1  0.16386383  0.83466546  0.33520138  1
  Sb  Sb85  1  0.50505455  0.66014198  0.83006454  1
  Sb  Sb86  1  0.67063708  0.33118148  0.33568843  1
  Sb  Sb87  1  0.50163957  0.50119402  0.66588032  1
  Sb  Sb88  1  0.00168185  0.33793253  0.66434191  1
  Sb  Sb89  1  -0.00583644  0.66284452  0.65919491  1
  Sb  Sb90  1  0.16369504  0.17109781  0.00166667  1
  Sb  Sb91  1  0.49872373  0.16766115  0.33315250  1
  Sb  Sb92  1  0.16503922  0.82775448  0.66332059  1
  Sb  Sb93  1  0.16077049  0.83117370  0.00245064  1
  Sb  Sb94  1  0.00156275  0.17085957  0.49819436  1
  Sb  Sb95  1  0.67218970  0.50050742  0.16936885  1
  Sb  Sb96  1  0.66592377  0.17063673  0.16772723  1
  Sb  Sb97  1  0.16661563  0.00424401  0.17101388  1
  Sb  Sb98  1  0.49470961  0.17115799  0.66590838  1
  Sb  Sb99  1  0.33292452  0.83439848  0.83127409  1
  Sb  Sb100  1  -0.00638456  0.00481636  0.00055663  1
  Sb  Sb101  1  0.00042167  -0.00183024  0.66578218  1
  Sb  Sb102  1  -0.00245867  0.50002321  0.49649791  1
  Sb  Sb103  1  0.66537808  0.17246412  0.83447247  1
  Sb  Sb104  1  0.33000775  0.49634759  0.17242196  1
  Sb  Sb105  1  0.00139174  0.17399003  0.16848669  1
  Sb  Sb106  1  -0.00957110  0.82968320  0.49450391  1
  Sb  Sb107  1  0.50836977  0.82396373  0.00351991  1
  Te  Te108  1  0.17038490  0.17120412  0.17184628  1
  Te  Te109  1  0.16669040  0.16780197  0.49900502  1
  Te  Te110  1  0.16897575  0.17077481  0.83484425  1
  Te  Te111  1  0.16300887  0.49976305  0.16649401  1
  Te  Te112  1  0.16474925  0.49798080  0.50331130  1
  Te  Te113  1  0.16266191  0.49478303  0.82830905  1
  Te  Te114  1  0.16191003  0.82628650  0.16725283  1
  Te  Te115  1  0.16615242  0.83512210  0.50056672  1
  Te  Te116  1  0.16469699  0.83699508  0.83310409  1
  Te  Te117  1  0.49347027  0.17131749  0.16756819  1
  Te  Te118  1  0.50043252  0.17646703  0.50019240  1
  Te  Te119  1  0.49155057  0.17422197  0.83355899  1
  Te  Te120  1  0.50015551  0.50126866  0.16696606  1
  Te  Te121  1  0.50094727  0.50066234  0.49942603  1
  Te  Te122  1  0.49846204  0.49311680  0.83972115  1
  Te  Te123  1  0.50014139  0.82689371  0.17155832  1
  Te  Te124  1  0.50426589  0.83078507  0.49901858  1
  Te  Te125  1  0.49974978  0.83506054  0.82856546  1
  Te  Te126  1  0.83374200  0.17061523  0.16854362  1
  Te  Te127  1  0.83486906  0.16307470  0.49567622  1
  Te  Te128  1  0.83439536  0.17144450  0.83440558  1
  Te  Te129  1  0.83575540  0.50001368  0.16879239  1
  Te  Te130  1  0.83471190  0.50266880  0.50000329  1
  Te  Te131  1  0.83539580  0.49839742  0.83265547  1
  Te  Te132  1  0.83485228  0.83294735  0.16924074  1
  Te  Te133  1  0.83057756  0.83050472  0.49735491  1
  Te  Te134  1  0.83384290  0.83275695  0.83645700  1
  Te  Te135  1  0.16673352  0.00033536  -0.00343158  1
  Te  Te136  1  0.16815355  0.00556273  0.33693127  1
  Te  Te137  1  0.16729287  -0.00293707  0.66313233  1
  Te  Te138  1  0.16395913  0.33311399  0.00331700  1
  Te  Te139  1  0.16613860  0.33314154  0.33439964  1
  Te  Te140  1  0.16638224  0.33693864  0.66359643  1
  Te  Te141  1  0.17131802  0.66680246  0.00106142  1
  Te  Te142  1  0.16441449  0.66674818  0.33302374  1
  Te  Te143  1  0.16824945  0.66161461  0.66358300  1
  Te  Te144  1  0.50810005  -0.00177311  -0.00030231  1
  Te  Te145  1  0.50114721  -0.00439953  0.33304844  1
  Te  Te146  1  0.50007963  -0.00691980  0.66654139  1
  Te  Te147  1  0.50139248  0.33718095  0.00351164  1
  Te  Te148  1  0.50065940  0.33456857  0.33329271  1
  Te  Te149  1  0.50025873  0.33388307  0.66536012  1
  Te  Te150  1  0.50217038  0.66295624  -0.00239772  1
  Te  Te151  1  0.49780853  0.66899207  0.33569110  1
  Te  Te152  1  0.50173837  0.66760030  0.66488061  1
  Te  Te153  1  0.82910633  -0.00429495  -0.00126241  1
  Te  Te154  1  0.83233345  -0.00344004  0.33679746  1
  Te  Te155  1  0.83291108  0.00353294  0.66043138  1
  Te  Te156  1  0.83257745  0.33742093  0.00069185  1
  Te  Te157  1  0.83182110  0.33538393  0.33289501  1
  Te  Te158  1  0.83275422  0.33610987  0.66293390  1
  Te  Te159  1  0.83113136  0.66668683  0.00284254  1
  Te  Te160  1  0.83368726  0.66671095  0.33337358  1
  Te  Te161  1  0.83187131  0.66214121  0.66345978  1
  Te  Te162  1  -0.00914334  0.17283012  0.00150365  1
  Te  Te163  1  -0.00081181  0.17089672  0.33240299  1
  Te  Te164  1  0.01162507  0.16556537  0.66756075  1
  Te  Te165  1  0.00287388  0.49444258  0.00158224  1
  Te  Te166  1  -0.00440296  0.49939965  0.32873971  1
  Te  Te167  1  -0.00192844  0.50095900  0.67396054  1
  Te  Te168  1  -0.00712190  0.83305711  0.00569372  1
  Te  Te169  1  -0.00409123  0.83059990  0.32848979  1
  Te  Te170  1  -0.01084683  0.83106153  0.66860362  1
  Te  Te171  1  0.33395325  0.16431096  0.00224927  1
  Te  Te172  1  0.33264412  0.17002672  0.33103613  1
  Te  Te173  1  0.32843013  0.16994608  0.67143252  1
  Te  Te174  1  0.33846487  0.50602954  0.00066699  1
  Te  Te175  1  0.33495202  0.49393505  0.34027510  1
  Te  Te176  1  0.33306653  0.49873064  0.66274806  1
  Te  Te177  1  0.33514615  0.82734179  0.00008378  1
  Te  Te178  1  0.33486065  0.83856572  0.33312952  1
  Te  Te179  1  0.33668652  0.82920103  0.66677642  1
  Te  Te180  1  0.67249480  0.17199588  0.00103518  1
  Te  Te181  1  0.67227614  0.15719820  0.33226852  1
  Te  Te182  1  0.66611478  0.17285161  0.66699822  1
  Te  Te183  1  0.66129892  0.49911458  0.00136251  1
  Te  Te184  1  0.67436667  0.49891997  0.34057237  1
  Te  Te185  1  0.66926718  0.49970685  0.66289553  1
  Te  Te186  1  0.67132303  0.82988321  -0.00071246  1
  Te  Te187  1  0.66789789  0.83610525  0.33761049  1
  Te  Te188  1  0.66853723  0.83235226  0.66247875  1
  Te  Te189  1  0.00205999  -0.00950282  0.16557766  1
  Te  Te190  1  0.00243938  -0.00169353  0.49912114  1
  Te  Te191  1  0.00785462  -0.00082596  0.83405351  1
  Te  Te192  1  -0.00071423  0.33515677  0.16838682  1
  Te  Te193  1  -0.00281615  0.33457803  0.49255763  1
  Te  Te194  1  -0.00208087  0.33787810  0.83269813  1
  Te  Te195  1  -0.00257329  0.66212581  0.16869230  1
  Te  Te196  1  0.00842406  0.66658043  0.49257110  1
  Te  Te197  1  -0.00634345  0.65981852  0.83547769  1
  Te  Te198  1  0.33284433  0.00369210  0.17219340  1
  Te  Te199  1  0.33147446  -0.00049163  0.49431613  1
  Te  Te200  1  0.32847120  0.00505669  0.83378335  1
  Te  Te201  1  0.33384982  0.33336377  0.16711821  1
  Te  Te202  1  0.33313319  0.33622667  0.50000051  1
  Te  Te203  1  0.32982945  0.33185263  0.83319964  1
  Te  Te204  1  0.33874246  0.66487034  0.16551380  1
  Te  Te205  1  0.32954485  0.66139387  0.50244007  1
  Te  Te206  1  0.33327138  0.66614207  0.83021899  1
  Te  Te207  1  0.66575320  -0.00006198  0.16429684  1
  Te  Te208  1  0.66900676  -0.00090552  0.49690787  1
  Te  Te209  1  0.66624383  0.00215741  0.83926471  1
  Te  Te210  1  0.66305382  0.33453048  0.16299683  1
  Te  Te211  1  0.67100954  0.33604392  0.50197893  1
  Te  Te212  1  0.66670834  0.33370394  0.83341609  1
  Te  Te213  1  0.66458085  0.66554103  0.16113301  1
  Te  Te214  1  0.66622975  0.66549936  0.50007454  1
  Te  Te215  1  0.67318213  0.66551027  0.83444929  1
