# generated using pymatgen
data_AgSbTe2
_symmetry_space_group_name_H-M   'P 1'
_cell_length_a   18.35649272
_cell_length_b   18.35175996
_cell_length_c   18.37596957
_cell_angle_alpha   89.99577666
_cell_angle_beta   90.00277881
_cell_angle_gamma   90.00481086
_symmetry_Int_Tables_number   1
_chemical_formula_structural   AgSbTe2
_chemical_formula_sum   'Ag54 Sb54 Te108'
_cell_volume   6190.38537386
_cell_formula_units_Z   54
loop_
 _symmetry_equiv_pos_site_id
 _symmetry_equiv_pos_as_xyz
  1  'x, y, z'
loop_
 _atom_site_type_symbol
 _atom_site_label
 _atom_site_symmetry_multiplicity
 _atom_site_fract_x
 _atom_site_fract_y
 _atom_site_fract_z
 _atom_site_occupancy
  Ag  Ag0  1  0.65081498  0.16684687  0.84077305  1
  Ag  Ag1  1  0.33076304  0.01052963  0.00457253  1
  Ag  Ag2  1  0.17400706  0.32597515  0.15078147  1
  Ag  Ag3  1  0.33177044  0.17314845  0.84392845  1
  Ag  Ag4  1  0.65486314  0.50965849  0.83443160  1
  Ag  Ag5  1  0.49494884  0.50552760  -0.00402389  1
  Ag  Ag6  1  0.50138776  0.66691053  0.15882667  1
  Ag  Ag7  1  0.01566207  0.33537568  -0.00277233  1
  Ag  Ag8  1  0.01101251  0.49807931  0.83774657  1
  Ag  Ag9  1  0.17601483  0.49044279  -0.00402605  1
  Ag  Ag10  1  0.83130376  0.83033191  0.66554934  1
  Ag  Ag11  1  0.33545494  0.48610646  0.15386461  1
  Ag  Ag12  1  0.82882105  0.83101334  0.33394036  1
  Ag  Ag13  1  0.82040016  0.66413566  0.84010702  1
  Ag  Ag14  1  0.49731220  0.16730329  0.32496032  1
  Ag  Ag15  1  0.33469070  0.32240017  0.32093409  1
  Ag  Ag16  1  0.33407904  0.83953866  0.49532064  1
  Ag  Ag17  1  0.00123000  0.16374787  0.51156175  1
  Ag  Ag18  1  0.66664594  0.66706796  0.32645498  1
  Ag  Ag19  1  0.33224547  0.49339532  0.83852238  1
  Ag  Ag20  1  0.16976791  0.32884846  0.83970488  1
  Ag  Ag21  1  0.50737022  0.66101527  0.84093420  1
  Ag  Ag22  1  0.01224726  0.00197690  0.67340478  1
  Ag  Ag23  1  0.66435705  0.66371253  -0.00134377  1
  Ag  Ag24  1  0.17253503  0.00592026  0.15284969  1
  Ag  Ag25  1  0.17304213  -0.00024019  0.50390698  1
  Ag  Ag26  1  0.33917138  0.83953237  0.16586534  1
  Ag  Ag27  1  0.49130753  0.00169215  0.50105143  1
  Ag  Ag28  1  0.16919795  0.00700655  0.83779306  1
  Ag  Ag29  1  0.65105591  0.16263297  0.15876460  1
  Ag  Ag30  1  0.33374301  0.32582657  0.67992732  1
  Ag  Ag31  1  0.48652315  0.16818119  -0.00146665  1
  Ag  Ag32  1  0.66632152  0.82031039  0.84002030  1
  Ag  Ag33  1  0.33026136  0.32536598  -0.00030947  1
  Ag  Ag34  1  0.82899878  0.66766848  0.50102478  1
  Ag  Ag35  1  0.49630097  0.16810411  0.67863158  1
  Ag  Ag36  1  0.17902023  0.49919416  0.67904253  1
  Ag  Ag37  1  0.81922051  0.66714836  0.15828156  1
  Ag  Ag38  1  0.50139184  0.82134605  0.00189560  1
  Ag  Ag39  1  0.16470605  0.66699062  0.50157574  1
  Ag  Ag40  1  0.33477917  0.16685961  0.15478978  1
  Ag  Ag41  1  0.33411890  0.00351802  0.32701570  1
  Ag  Ag42  1  0.00991391  0.16580437  0.83595881  1
  Ag  Ag43  1  0.01273798  0.00559571  -0.00866756  1
  Ag  Ag44  1  0.17470316  0.17814689  -0.00311753  1
  Ag  Ag45  1  0.66230534  0.82347664  0.16114693  1
  Ag  Ag46  1  0.49904023  0.49960802  0.33100268  1
  Ag  Ag47  1  0.33112678  0.00383330  0.66724494  1
  Ag  Ag48  1  -0.00721148  0.65584567  -0.00224309  1
  Ag  Ag49  1  0.49551018  0.49943350  0.67846236  1
  Ag  Ag50  1  0.66362625  0.50766657  0.51265759  1
  Ag  Ag51  1  0.66713016  0.66601748  0.68402971  1
  Ag  Ag52  1  0.83740966  0.50554547  -0.00293070  1
  Ag  Ag53  1  0.82719988  0.16377799  0.33115292  1
  Sb  Sb54  1  0.00208378  0.83548920  0.50069863  1
  Sb  Sb55  1  0.82487860  0.50303100  0.32807256  1
  Sb  Sb56  1  0.83451233  0.17085633  0.00108363  1
  Sb  Sb57  1  0.66228090  -0.00212634  -0.00014553  1
  Sb  Sb58  1  0.33800447  0.50368560  0.50181118  1
  Sb  Sb59  1  0.65967359  0.33922970  0.67146930  1
  Sb  Sb60  1  0.00696780  0.50118661  0.15671390  1
  Sb  Sb61  1  0.33657236  0.66344562  0.00017404  1
  Sb  Sb62  1  0.49358705  0.33555645  0.16501418  1
  Sb  Sb63  1  0.00529357  0.00201437  0.33385080  1
  Sb  Sb64  1  0.83112001  0.16186802  0.66709902  1
  Sb  Sb65  1  0.50205873  0.83206344  0.67085492  1
  Sb  Sb66  1  0.33092174  0.15977543  0.50031454  1
  Sb  Sb67  1  0.83772341  -0.00348970  0.16580755  1
  Sb  Sb68  1  0.00543587  0.16589090  0.15986183  1
  Sb  Sb69  1  0.16709038  0.83440299  0.33365145  1
  Sb  Sb70  1  -0.00146040  0.49770826  0.50962069  1
  Sb  Sb71  1  0.83815829  0.33711157  0.16403600  1
  Sb  Sb72  1  0.83328590  0.33748195  0.49857106  1
  Sb  Sb73  1  0.82882987  0.50691705  0.67536227  1
  Sb  Sb74  1  0.17181740  0.66703215  0.16586361  1
  Sb  Sb75  1  0.16607354  0.83327356  0.66708626  1
  Sb  Sb76  1  -0.00439540  0.66847613  0.67227700  1
  Sb  Sb77  1  0.33706550  0.66775374  0.66717379  1
  Sb  Sb78  1  0.49322106  0.00129580  0.83258592  1
  Sb  Sb79  1  0.49105710  0.33891053  0.83532587  1
  Sb  Sb80  1  -0.00418449  0.83239718  0.83544504  1
  Sb  Sb81  1  -0.00034029  0.83277751  0.16331364  1
  Sb  Sb82  1  0.83903251  0.33859882  0.83477280  1
  Sb  Sb83  1  0.66080159  -0.00200148  0.33142675  1
  Sb  Sb84  1  0.82835411  0.82707393  0.00001218  1
  Sb  Sb85  1  0.17249852  0.16456248  0.32814841  1
  Sb  Sb86  1  0.50172705  0.83379973  0.32854253  1
  Sb  Sb87  1  0.49662209  0.33025471  0.50003021  1
  Sb  Sb88  1  0.33920498  0.66922477  0.33232876  1
  Sb  Sb89  1  0.83670816  -0.00380592  0.83453152  1
  Sb  Sb90  1  0.17499370  0.49898345  0.33045315  1
  Sb  Sb91  1  0.66416020  0.82798543  0.49971921  1
  Sb  Sb92  1  0.49212175  -0.00030266  0.16589102  1
  Sb  Sb93  1  0.65810131  0.50303655  0.15989727  1
  Sb  Sb94  1  0.16856756  0.66348557  0.83371430  1
  Sb  Sb95  1  0.33836564  0.83550972  0.83659221  1
  Sb  Sb96  1  0.66149122  0.33724734  -0.00153651  1
  Sb  Sb97  1  0.17471116  0.16576216  0.67478485  1
  Sb  Sb98  1  0.16989205  0.33129559  0.50329571  1
  Sb  Sb99  1  0.66308712  -0.00368487  0.66905327  1
  Sb  Sb100  1  0.17340648  0.83419094  0.00038090  1
  Sb  Sb101  1  0.66569346  0.17071064  0.49972720  1
  Sb  Sb102  1  0.66055375  0.33521189  0.33037531  1
  Sb  Sb103  1  0.50201417  0.66848311  0.50004107  1
  Sb  Sb104  1  -0.00715028  0.66462947  0.32969327  1
  Sb  Sb105  1  0.83358927  -0.00403559  0.49920325  1
  Sb  Sb106  1  0.00714033  0.33016774  0.32789460  1
  Sb  Sb107  1  0.00925511  0.32873597  0.67530975  1
  Te  Te108  1  0.17145578  0.16548332  0.16296325  1
  Te  Te109  1  0.16113716  0.16362893  0.49905014  1
  Te  Te110  1  0.17003716  0.16657303  0.83481118  1
  Te  Te111  1  0.17451380  0.49953482  0.16287999  1
  Te  Te112  1  0.16491350  0.50209861  0.49992060  1
  Te  Te113  1  0.16994941  0.50278302  0.83585737  1
  Te  Te114  1  0.17196538  0.83698586  0.16851501  1
  Te  Te115  1  0.16969178  0.83372741  0.50021944  1
  Te  Te116  1  0.16795853  0.83932344  0.83268483  1
  Te  Te117  1  0.49490084  0.16609314  0.16675749  1
  Te  Te118  1  0.50193936  0.16314249  0.49706453  1
  Te  Te119  1  0.49334985  0.16623122  0.83536801  1
  Te  Te120  1  0.49485988  0.50214204  0.16633708  1
  Te  Te121  1  0.50400610  0.50065399  0.49528773  1
  Te  Te122  1  0.49650082  0.49983424  0.83514731  1
  Te  Te123  1  0.50248742  0.83291750  0.16393283  1
  Te  Te124  1  0.49575709  0.83747843  0.50092982  1
  Te  Te125  1  0.50595065  0.83058996  0.83773202  1
  Te  Te126  1  0.83665516  0.16661762  0.17019043  1
  Te  Te127  1  0.83506295  0.16703246  0.49645612  1
  Te  Te128  1  0.83915270  0.16623894  0.83320178  1
  Te  Te129  1  0.83428168  0.50544562  0.16105935  1
  Te  Te130  1  0.82951339  0.50535023  0.49890477  1
  Te  Te131  1  0.83153733  0.50468804  0.83786326  1
  Te  Te132  1  0.82900391  0.82914451  0.16939593  1
  Te  Te133  1  0.83226509  0.82897234  0.49879034  1
  Te  Te134  1  0.82747275  0.82781738  0.83165375  1
  Te  Te135  1  0.16967124  -0.00456712  -0.00250116  1
  Te  Te136  1  0.17246294  -0.00084934  0.34345154  1
  Te  Te137  1  0.16941027  -0.00054895  0.66419210  1
  Te  Te138  1  0.17060460  0.33444571  -0.00448881  1
  Te  Te139  1  0.17464432  0.33288774  0.33163173  1
  Te  Te140  1  0.17409068  0.33872923  0.67005537  1
  Te  Te141  1  0.15799401  0.66702907  0.00119841  1
  Te  Te142  1  0.16246324  0.66645122  0.33858604  1
  Te  Te143  1  0.16489654  0.66251866  0.66363066  1
  Te  Te144  1  0.49538433  0.00966152  -0.00101306  1
  Te  Te145  1  0.49487391  0.00266726  0.33748923  1
  Te  Te146  1  0.49610787  0.00242504  0.66416287  1
  Te  Te147  1  0.49453114  0.32767874  0.00030902  1
  Te  Te148  1  0.49403828  0.33233172  0.33341194  1
  Te  Te149  1  0.49333566  0.33404238  0.66600874  1
  Te  Te150  1  0.49972051  0.66485892  0.00080117  1
  Te  Te151  1  0.50484744  0.66496045  0.33222414  1
  Te  Te152  1  0.50525481  0.66347686  0.66740834  1
  Te  Te153  1  0.84092815  0.00035070  0.00094017  1
  Te  Te154  1  0.83351753  0.00211366  0.33294407  1
  Te  Te155  1  0.83319631  -0.00713112  0.66618186  1
  Te  Te156  1  0.83439148  0.34247073  0.00092244  1
  Te  Te157  1  0.83431877  0.32825378  0.33163205  1
  Te  Te158  1  0.83434743  0.33303819  0.66503239  1
  Te  Te159  1  0.83094171  0.66594622  -0.00027131  1
  Te  Te160  1  0.82874824  0.66771137  0.33447680  1
  Te  Te161  1  0.82956501  0.67008877  0.66355278  1
  Te  Te162  1  0.00102330  0.16621888  -0.00457409  1
  Te  Te163  1  -0.00370064  0.16737150  0.33197646  1
  Te  Te164  1  -0.00096150  0.16239966  0.67148254  1
  Te  Te165  1  0.00111362  0.49796005  -0.00263410  1
  Te  Te166  1  -0.00081215  0.49679917  0.33542663  1
  Te  Te167  1  0.00046627  0.49802380  0.67497339  1
  Te  Te168  1  -0.00053196  0.83956050  0.00004758  1
  Te  Te169  1  -0.00991768  0.83340026  0.33231195  1
  Te  Te170  1  -0.00541217  0.83912586  0.66751862  1
  Te  Te171  1  0.32966180  0.16508769  -0.00075374  1
  Te  Te172  1  0.33692592  0.16424308  0.33540240  1
  Te  Te173  1  0.33749938  0.16693141  0.66518378  1
  Te  Te174  1  0.33486861  0.50378552  -0.00136109  1
  Te  Te175  1  0.33940822  0.50117638  0.33304438  1
  Te  Te176  1  0.33632626  0.50179336  0.66662717  1
  Te  Te177  1  0.34066051  0.83452597  0.00319494  1
  Te  Te178  1  0.33373012  0.83823912  0.33233236  1
  Te  Te179  1  0.33399626  0.83818182  0.66519989  1
  Te  Te180  1  0.66850150  0.16674241  0.00061139  1
  Te  Te181  1  0.66299795  0.16701322  0.33261656  1
  Te  Te182  1  0.66064503  0.16811977  0.66804696  1
  Te  Te183  1  0.65897294  0.50126684  -0.00446174  1
  Te  Te184  1  0.66055591  0.50247870  0.32836745  1
  Te  Te185  1  0.66218407  0.50413688  0.67190063  1
  Te  Te186  1  0.66223496  0.83300126  0.00080067  1
  Te  Te187  1  0.66932811  0.83084881  0.32918889  1
  Te  Te188  1  0.66950388  0.82866596  0.66963837  1
  Te  Te189  1  0.00989611  -0.00159404  0.16530664  1
  Te  Te190  1  0.00124160  0.00356080  0.50171867  1
  Te  Te191  1  0.00308875  -0.00027681  0.83227330  1
  Te  Te192  1  0.00964894  0.33387571  0.16011050  1
  Te  Te193  1  0.00084895  0.32609678  0.50040235  1
  Te  Te194  1  0.00522493  0.33323108  0.83768165  1
  Te  Te195  1  -0.00119660  0.66738770  0.16101377  1
  Te  Te196  1  -0.00018755  0.66663135  0.50077048  1
  Te  Te197  1  0.00060368  0.66371527  0.83757824  1
  Te  Te198  1  0.33186859  0.00230060  0.16617006  1
  Te  Te199  1  0.33245365  -0.00116750  0.50348549  1
  Te  Te200  1  0.32948746  -0.00000746  0.83079169  1
  Te  Te201  1  0.33199223  0.33027641  0.16393288  1
  Te  Te202  1  0.33205726  0.33543211  0.49717415  1
  Te  Te203  1  0.33007460  0.33397129  0.83652086  1
  Te  Te204  1  0.33809756  0.67642418  0.16839999  1
  Te  Te205  1  0.32928718  0.67391862  0.49959666  1
  Te  Te206  1  0.33757053  0.66537247  0.83214173  1
  Te  Te207  1  0.66971092  0.00382540  0.16616199  1
  Te  Te208  1  0.66292406  -0.00024206  0.50032023  1
  Te  Te209  1  0.66763059  0.00981553  0.83368231  1
  Te  Te210  1  0.67003387  0.32192894  0.16593231  1
  Te  Te211  1  0.66663936  0.34460118  0.49961385  1
  Te  Te212  1  0.67138244  0.32368069  0.83316774  1
  Te  Te213  1  0.66256269  0.66470354  0.16315360  1
  Te  Te214  1  0.66824406  0.66490677  0.49032760  1
  Te  Te215  1  0.66430626  0.66493150  0.83873245  1
