# generated using pymatgen
data_AgSbTe2
_symmetry_space_group_name_H-M   'P 1'
_cell_length_a   18.33615543
_cell_length_b   18.33516648
_cell_length_c   18.32847859
_cell_angle_alpha   89.99767715
_cell_angle_beta   89.99601645
_cell_angle_gamma   89.99943770
_symmetry_Int_Tables_number   1
_chemical_formula_structural   AgSbTe2
_chemical_formula_sum   'Ag54 Sb54 Te108'
_cell_volume   6161.96964073
_cell_formula_units_Z   54
loop_
 _symmetry_equiv_pos_site_id
 _symmetry_equiv_pos_as_xyz
  1  'x, y, z'
loop_
 _atom_site_type_symbol
 _atom_site_label
 _atom_site_symmetry_multiplicity
 _atom_site_fract_x
 _atom_site_fract_y
 _atom_site_fract_z
 _atom_site_occupancy
  Ag  Ag0  1  -0.00089817  0.49760662  0.16998268  1
  Ag  Ag1  1  0.16302488  0.83812275  0.66379705  1
  Ag  Ag2  1  0.67229016  0.50384002  0.83015606  1
  Ag  Ag3  1  -0.00982440  0.50107739  0.82116997  1
  Ag  Ag4  1  0.83282018  0.49491979  0.67264447  1
  Ag  Ag5  1  0.32475992  -0.00066613  0.32791799  1
  Ag  Ag6  1  0.83718673  0.00566457  0.83599158  1
  Ag  Ag7  1  0.33755639  0.84548673  0.16877874  1
  Ag  Ag8  1  0.33657679  0.17138493  0.16603712  1
  Ag  Ag9  1  0.49696090  0.00891884  0.16851741  1
  Ag  Ag10  1  0.66914496  0.83169317  0.50457723  1
  Ag  Ag11  1  -0.00195101  0.33975066  0.66692939  1
  Ag  Ag12  1  0.50138684  0.33042431  0.16906017  1
  Ag  Ag13  1  0.16145180  0.16764861  0.66411609  1
  Ag  Ag14  1  0.83023157  0.00760130  0.16171075  1
  Ag  Ag15  1  0.00232069  0.66669600  0.34640676  1
  Ag  Ag16  1  0.66524414  0.33428663  0.32330848  1
  Ag  Ag17  1  0.16493073  0.49281061  0.33652131  1
  Ag  Ag18  1  0.16441723  0.00162182  0.49492883  1
  Ag  Ag19  1  0.82254464  0.33165378  0.16718121  1
  Ag  Ag20  1  0.67444098  0.65793440  0.67481615  1
  Ag  Ag21  1  0.33233099  0.48916595  0.16764194  1
  Ag  Ag22  1  0.82857199  0.65484889  0.83171629  1
  Ag  Ag23  1  0.33345376  0.33386056  0.01075951  1
  Ag  Ag24  1  0.83957091  0.17483248  0.67672322  1
  Ag  Ag25  1  0.15863560  0.00203951  0.82844390  1
  Ag  Ag26  1  0.82898449  0.17278136  -0.00453841  1
  Ag  Ag27  1  0.16129133  0.65854188  0.50103377  1
  Ag  Ag28  1  -0.00281702  0.65710920  0.66472176  1
  Ag  Ag29  1  0.17104219  0.33039681  0.17414862  1
  Ag  Ag30  1  0.49628287  0.33592219  0.49869019  1
  Ag  Ag31  1  0.16619508  0.16812345  0.33326616  1
  Ag  Ag32  1  0.17059711  0.00712677  0.17751975  1
  Ag  Ag33  1  0.66265761  0.17321114  0.16201308  1
  Ag  Ag34  1  0.67540213  0.16925859  0.83842990  1
  Ag  Ag35  1  0.33331606  0.49794921  0.82600081  1
  Ag  Ag36  1  0.17012305  0.33895722  0.49712951  1
  Ag  Ag37  1  0.50149873  0.83421836  0.33034130  1
  Ag  Ag38  1  0.00477341  0.50446116  0.50429726  1
  Ag  Ag39  1  0.66768320  0.66199492  -0.01260692  1
  Ag  Ag40  1  -0.00759548  0.16430420  0.82907864  1
  Ag  Ag41  1  0.50912963  0.17024485  0.00465517  1
  Ag  Ag42  1  0.33060040  0.33694743  0.66531739  1
  Ag  Ag43  1  0.67395405  0.81826658  0.83221924  1
  Ag  Ag44  1  0.83075621  0.49421497  -0.00759487  1
  Ag  Ag45  1  0.00510969  0.82590997  0.50607084  1
  Ag  Ag46  1  0.00700072  -0.00228557  0.33208521  1
  Ag  Ag47  1  0.67121282  0.33925200  0.66583425  1
  Ag  Ag48  1  0.66258011  0.83485104  0.16655486  1
  Ag  Ag49  1  0.51516907  0.66258161  0.83185097  1
  Ag  Ag50  1  0.50711041  0.49735141  0.67005499  1
  Ag  Ag51  1  0.66899064  0.49058384  0.16176621  1
  Ag  Ag52  1  0.32315758  0.49598562  0.50164231  1
  Ag  Ag53  1  -0.00773530  0.83396518  0.82603296  1
  Sb  Sb54  1  0.66736010  0.00330799  0.32908579  1
  Sb  Sb55  1  0.49665435  0.50055466  0.33516273  1
  Sb  Sb56  1  0.33337210  0.33184998  0.33155965  1
  Sb  Sb57  1  0.50524419  0.49497232  -0.00298351  1
  Sb  Sb58  1  0.67127861  0.66406433  0.33484995  1
  Sb  Sb59  1  0.83155675  0.33301572  0.83526503  1
  Sb  Sb60  1  0.83789806  0.16681489  0.33039185  1
  Sb  Sb61  1  0.50110475  0.17620344  0.67243184  1
  Sb  Sb62  1  0.16719300  0.83742015  0.33716703  1
  Sb  Sb63  1  0.83753169  0.83113315  0.67062215  1
  Sb  Sb64  1  0.16272348  0.49511928  0.66104136  1
  Sb  Sb65  1  0.32952749  0.17366249  0.49408431  1
  Sb  Sb66  1  0.50253256  0.66359412  0.16358435  1
  Sb  Sb67  1  0.66621943  0.16663993  0.49994113  1
  Sb  Sb68  1  0.16387506  0.49801779  0.00426515  1
  Sb  Sb69  1  0.83168079  0.83446637  0.33222566  1
  Sb  Sb70  1  0.83040429  0.83384353  -0.00328081  1
  Sb  Sb71  1  0.83493845  0.33463736  0.50044599  1
  Sb  Sb72  1  0.16669403  0.83499641  -0.00308727  1
  Sb  Sb73  1  0.00193215  0.33468461  0.33557198  1
  Sb  Sb74  1  0.66844145  0.00003512  0.66814333  1
  Sb  Sb75  1  0.16516488  0.66426974  0.17400383  1
  Sb  Sb76  1  -0.00603029  0.66289669  -0.00663905  1
  Sb  Sb77  1  0.16468632  0.16844442  0.00078930  1
  Sb  Sb78  1  0.66843274  0.00156874  0.00226257  1
  Sb  Sb79  1  0.00389364  0.16836372  0.50570196  1
  Sb  Sb80  1  0.50114513  0.33953219  0.83380422  1
  Sb  Sb81  1  0.00093014  0.33447447  -0.00279408  1
  Sb  Sb82  1  0.00115167  0.00062391  0.66659074  1
  Sb  Sb83  1  0.49932146  0.82668949  0.66381016  1
  Sb  Sb84  1  0.84003872  -0.00064732  0.50254829  1
  Sb  Sb85  1  0.32862832  0.00720219  0.66257227  1
  Sb  Sb86  1  0.32808953  0.66844602  0.33258461  1
  Sb  Sb87  1  0.32936039  0.83023553  0.49693756  1
  Sb  Sb88  1  0.16627495  0.33109759  0.82822061  1
  Sb  Sb89  1  0.49561836  0.00328817  0.49289327  1
  Sb  Sb90  1  0.83154906  0.66278320  0.16011477  1
  Sb  Sb91  1  0.16021390  0.66760699  0.82499061  1
  Sb  Sb92  1  0.66811404  0.50186692  0.50437811  1
  Sb  Sb93  1  0.33322366  0.17137325  0.83724355  1
  Sb  Sb94  1  -0.00024062  0.83255163  0.16795302  1
  Sb  Sb95  1  0.83857338  0.49874027  0.33248001  1
  Sb  Sb96  1  0.33354139  0.82902928  0.83676940  1
  Sb  Sb97  1  -0.00122633  0.00145566  0.00058968  1
  Sb  Sb98  1  0.49728434  0.66108720  0.50410599  1
  Sb  Sb99  1  0.33291580  0.00626327  0.00753099  1
  Sb  Sb100  1  0.32953594  0.65910958  0.66692423  1
  Sb  Sb101  1  0.49560806  0.16649493  0.32565438  1
  Sb  Sb102  1  0.50317165  -0.00226167  0.83858695  1
  Sb  Sb103  1  0.33970249  0.65822370  0.00003771  1
  Sb  Sb104  1  -0.00018171  0.17071767  0.16309691  1
  Sb  Sb105  1  0.66537032  0.33505433  -0.00035244  1
  Sb  Sb106  1  0.83841660  0.66599693  0.50695771  1
  Sb  Sb107  1  0.50331752  0.83636956  0.00583035  1
  Te  Te108  1  0.16514559  0.16603186  0.16753478  1
  Te  Te109  1  0.16699795  0.16461269  0.49979091  1
  Te  Te110  1  0.16578260  0.16306368  0.83144999  1
  Te  Te111  1  0.16719699  0.49930165  0.17117645  1
  Te  Te112  1  0.16517305  0.49835733  0.49908202  1
  Te  Te113  1  0.17013574  0.49984802  0.83585253  1
  Te  Te114  1  0.16958893  0.83638337  0.16562009  1
  Te  Te115  1  0.16495148  0.83706133  0.50284240  1
  Te  Te116  1  0.16567986  0.83751116  0.82886322  1
  Te  Te117  1  0.50188495  0.16807876  0.16588233  1
  Te  Te118  1  0.49851945  0.17331151  0.50051435  1
  Te  Te119  1  0.50201108  0.16469982  0.84063912  1
  Te  Te120  1  0.50127840  0.49620681  0.16709858  1
  Te  Te121  1  0.49909108  0.49547411  0.50368769  1
  Te  Te122  1  0.50019928  0.50241790  0.83081950  1
  Te  Te123  1  0.49985594  0.83139503  0.16922128  1
  Te  Te124  1  0.50096248  0.83330329  0.49550495  1
  Te  Te125  1  0.50412010  0.82892640  0.83348446  1
  Te  Te126  1  0.83284178  0.16745398  0.16560216  1
  Te  Te127  1  0.83380288  0.16549683  0.50804401  1
  Te  Te128  1  0.83304547  0.16924643  0.83402131  1
  Te  Te129  1  0.83093550  0.49750415  0.16724464  1
  Te  Te130  1  0.84007164  0.49989683  0.50488644  1
  Te  Te131  1  0.83318070  0.49648671  0.83240251  1
  Te  Te132  1  0.82952361  0.83850911  0.16365945  1
  Te  Te133  1  0.83169586  0.83409829  0.50176486  1
  Te  Te134  1  0.83204399  0.84292465  0.83304497  1
  Te  Te135  1  0.16659343  0.00037757  -0.00403587  1
  Te  Te136  1  0.16529684  -0.00070997  0.33373633  1
  Te  Te137  1  0.16736764  0.00351841  0.66722617  1
  Te  Te138  1  0.17235171  0.33311900  0.00886284  1
  Te  Te139  1  0.16658199  0.33148911  0.33565711  1
  Te  Te140  1  0.16545787  0.32919655  0.66330270  1
  Te  Te141  1  0.16809941  0.66742587  -0.00026257  1
  Te  Te142  1  0.16134368  0.66321531  0.33993034  1
  Te  Te143  1  0.16234599  0.67268410  0.66083076  1
  Te  Te144  1  0.49984159  0.00747442  0.00758138  1
  Te  Te145  1  0.49825360  -0.00314256  0.32801678  1
  Te  Te146  1  0.49771445  0.00022969  0.66469461  1
  Te  Te147  1  0.49507277  0.32968778  0.00509581  1
  Te  Te148  1  0.50453377  0.33340920  0.33332538  1
  Te  Te149  1  0.49804251  0.33777732  0.66550009  1
  Te  Te150  1  0.50660403  0.66630426  -0.00632430  1
  Te  Te151  1  0.50095369  0.67219419  0.33527823  1
  Te  Te152  1  0.50211928  0.66058781  0.67094549  1
  Te  Te153  1  0.83353061  0.00629655  0.00054995  1
  Te  Te154  1  0.83956446  0.00126233  0.32955768  1
  Te  Te155  1  0.83303698  0.00831062  0.67158105  1
  Te  Te156  1  0.83520802  0.33401888  0.00892772  1
  Te  Te157  1  0.82812442  0.33190714  0.32807803  1
  Te  Te158  1  0.83487750  0.33447701  0.66487432  1
  Te  Te159  1  0.82740717  0.66175438  -0.00679997  1
  Te  Te160  1  0.84215715  0.66697103  0.33295963  1
  Te  Te161  1  0.83492616  0.66505919  0.67208873  1
  Te  Te162  1  -0.00693325  0.16818768  -0.00944716  1
  Te  Te163  1  0.00542483  0.16247636  0.33407212  1
  Te  Te164  1  0.00112984  0.16829754  0.67031456  1
  Te  Te165  1  -0.00640342  0.49953816  0.00501091  1
  Te  Te166  1  0.00404010  0.50066987  0.33183549  1
  Te  Te167  1  0.00061781  0.49890803  0.66515023  1
  Te  Te168  1  -0.00121301  0.83111827  -0.00940818  1
  Te  Te169  1  -0.00077311  0.83151906  0.33576448  1
  Te  Te170  1  0.00200422  0.83422364  0.66630926  1
  Te  Te171  1  0.33351794  0.17292845  0.00502268  1
  Te  Te172  1  0.32788903  0.16020305  0.32755837  1
  Te  Te173  1  0.33084319  0.17492930  0.66784194  1
  Te  Te174  1  0.33440273  0.49373987  0.00561680  1
  Te  Te175  1  0.32939724  0.50119418  0.33138718  1
  Te  Te176  1  0.33187175  0.49613051  0.66612946  1
  Te  Te177  1  0.33456260  0.83185970  0.00729543  1
  Te  Te178  1  0.33645560  0.83578816  0.32912397  1
  Te  Te179  1  0.32828880  0.83310878  0.66691883  1
  Te  Te180  1  0.66891501  0.16782096  0.00189080  1
  Te  Te181  1  0.66769535  0.17189168  0.33056068  1
  Te  Te182  1  0.66732313  0.16992477  0.66823998  1
  Te  Te183  1  0.66944755  0.50105496  0.00082133  1
  Te  Te184  1  0.66638002  0.49611136  0.33133504  1
  Te  Te185  1  0.66850801  0.49917457  0.66635224  1
  Te  Te186  1  0.66664731  0.82723185  -0.00253139  1
  Te  Te187  1  0.66452366  0.83256272  0.32993464  1
  Te  Te188  1  0.66609147  0.83091210  0.66903558  1
  Te  Te189  1  0.00220439  -0.00105735  0.16871721  1
  Te  Te190  1  0.00376758  -0.00320189  0.49503001  1
  Te  Te191  1  -0.00060477  -0.00011629  0.83471448  1
  Te  Te192  1  0.00749711  0.33709884  0.16745489  1
  Te  Te193  1  0.00355571  0.33658092  0.50322901  1
  Te  Te194  1  0.00210254  0.33839966  0.82900764  1
  Te  Te195  1  -0.00103694  0.66215892  0.16501679  1
  Te  Te196  1  0.00100385  0.66696740  0.50378869  1
  Te  Te197  1  -0.00439641  0.66366190  0.82787379  1
  Te  Te198  1  0.33248061  0.00252570  0.16804135  1
  Te  Te199  1  0.32776224  -0.00037961  0.49362933  1
  Te  Te200  1  0.33101232  -0.00065986  0.83334284  1
  Te  Te201  1  0.33303134  0.33155048  0.17032461  1
  Te  Te202  1  0.33239608  0.33711061  0.50040230  1
  Te  Te203  1  0.33337377  0.33875580  0.82894697  1
  Te  Te204  1  0.33377011  0.66261749  0.16635894  1
  Te  Te205  1  0.32748955  0.65899270  0.49979826  1
  Te  Te206  1  0.33218009  0.65926549  0.83398092  1
  Te  Te207  1  0.66795431  -0.00294095  0.16718955  1
  Te  Te208  1  0.66601743  -0.00693231  0.49812757  1
  Te  Te209  1  0.66945569  0.00886726  0.83475178  1
  Te  Te210  1  0.66440373  0.33333417  0.16375283  1
  Te  Te211  1  0.66423752  0.33325667  0.50539265  1
  Te  Te212  1  0.66444490  0.33104411  0.82743335  1
  Te  Te213  1  0.66742046  0.67100687  0.16784960  1
  Te  Te214  1  0.66613685  0.67175966  0.50359245  1
  Te  Te215  1  0.67115417  0.66289966  0.83068835  1
