# generated using pymatgen
data_AgSbTe2
_symmetry_space_group_name_H-M   'P 1'
_cell_length_a   18.34583723
_cell_length_b   18.34556607
_cell_length_c   18.34269805
_cell_angle_alpha   90.00049144
_cell_angle_beta   90.00138463
_cell_angle_gamma   90.00275380
_symmetry_Int_Tables_number   1
_chemical_formula_structural   AgSbTe2
_chemical_formula_sum   'Ag54 Sb54 Te108'
_cell_volume   6173.50592392
_cell_formula_units_Z   54
loop_
 _symmetry_equiv_pos_site_id
 _symmetry_equiv_pos_as_xyz
  1  'x, y, z'
loop_
 _atom_site_type_symbol
 _atom_site_label
 _atom_site_symmetry_multiplicity
 _atom_site_fract_x
 _atom_site_fract_y
 _atom_site_fract_z
 _atom_site_occupancy
  Ag  Ag0  1  -0.00591303  0.00036642  0.33130110  1
  Ag  Ag1  1  0.83102435  0.33378345  0.49631735  1
  Ag  Ag2  1  0.67676921  0.32802896  0.34459405  1
  Ag  Ag3  1  0.51511011  -0.00663378  0.82657075  1
  Ag  Ag4  1  0.00192613  0.50118558  0.15961298  1
  Ag  Ag5  1  0.84284220  0.67495384  0.15868023  1
  Ag  Ag6  1  0.50370045  0.15853437  0.66828358  1
  Ag  Ag7  1  -0.00404379  0.16459047  0.83522612  1
  Ag  Ag8  1  0.68042941  -0.00062353  0.34120793  1
  Ag  Ag9  1  0.66988196  0.83572614  0.82662597  1
  Ag  Ag10  1  0.15829508  0.50658414  0.00021185  1
  Ag  Ag11  1  0.33164978  0.67289942  0.66846336  1
  Ag  Ag12  1  0.16154782  0.66435967  0.84678599  1
  Ag  Ag13  1  -0.00633861  0.32600730  0.33570684  1
  Ag  Ag14  1  0.16186024  0.67166908  0.16537991  1
  Ag  Ag15  1  0.32773621  0.67756835  0.32281980  1
  Ag  Ag16  1  0.83653368  -0.00518128  0.48992133  1
  Ag  Ag17  1  0.51406832  0.33342542  0.49911499  1
  Ag  Ag18  1  0.83576481  0.67890702  0.49888110  1
  Ag  Ag19  1  0.15910729  0.83607104  0.33277785  1
  Ag  Ag20  1  -0.00390338  -0.00662750  0.01286854  1
  Ag  Ag21  1  0.83566219  0.83627439  0.33060330  1
  Ag  Ag22  1  0.32525823  0.15675547  0.16843730  1
  Ag  Ag23  1  0.33063271  0.83131109  0.17011296  1
  Ag  Ag24  1  0.15374632  -0.00954571  0.49084421  1
  Ag  Ag25  1  0.83886957  -0.00633199  0.17832540  1
  Ag  Ag26  1  0.67627918  0.15285737  0.82925556  1
  Ag  Ag27  1  0.34088193  -0.00414751  0.66271090  1
  Ag  Ag28  1  0.67589471  0.83487887  0.17077859  1
  Ag  Ag29  1  0.16145650  0.67327559  0.49535267  1
  Ag  Ag30  1  0.83274958  -0.00683497  0.83294079  1
  Ag  Ag31  1  0.32752070  -0.00493331  0.33289892  1
  Ag  Ag32  1  0.66989163  0.32871230  0.66256000  1
  Ag  Ag33  1  -0.00055530  0.66735647  0.00193717  1
  Ag  Ag34  1  0.83429064  0.67263168  0.84064750  1
  Ag  Ag35  1  -0.00431307  0.50221770  0.83956990  1
  Ag  Ag36  1  0.83448731  0.83106652  0.01050489  1
  Ag  Ag37  1  0.15944803  0.34272922  0.83256943  1
  Ag  Ag38  1  0.32222912  0.51399214  0.16559172  1
  Ag  Ag39  1  0.32114894  0.66677992  0.00610150  1
  Ag  Ag40  1  0.50734953  0.67213789  0.83232427  1
  Ag  Ag41  1  0.15580956  -0.01068920  0.17342356  1
  Ag  Ag42  1  0.50025885  0.33265721  0.17323554  1
  Ag  Ag43  1  0.84085214  0.50995907  -0.00216049  1
  Ag  Ag44  1  0.83443262  0.14868318  0.33211021  1
  Ag  Ag45  1  -0.00767487  0.00213258  0.66396990  1
  Ag  Ag46  1  0.67070885  0.49285855  0.50367429  1
  Ag  Ag47  1  0.66851635  0.00000404  0.66857037  1
  Ag  Ag48  1  -0.00881577  0.83661565  0.49825792  1
  Ag  Ag49  1  0.00161577  0.15833465  0.16721358  1
  Ag  Ag50  1  0.50194023  0.83962442  0.66874701  1
  Ag  Ag51  1  0.67542117  0.50383821  0.82819510  1
  Ag  Ag52  1  0.67390801  0.83551293  0.49922094  1
  Ag  Ag53  1  -0.00771580  0.32733517  0.66589334  1
  Sb  Sb54  1  0.66946579  0.16555727  0.50615990  1
  Sb  Sb55  1  0.15911276  0.15669162  0.33135573  1
  Sb  Sb56  1  0.83679653  0.16320820  0.00219998  1
  Sb  Sb57  1  0.15848542  0.82799397  0.00641907  1
  Sb  Sb58  1  0.50129168  0.33393230  0.83004755  1
  Sb  Sb59  1  0.33456209  0.83375844  0.49580608  1
  Sb  Sb60  1  0.16488519  0.50238802  0.67282339  1
  Sb  Sb61  1  0.16658984  0.16380430  0.66750917  1
  Sb  Sb62  1  0.83456208  0.50602371  0.33038567  1
  Sb  Sb63  1  0.16443662  0.50705682  0.32732926  1
  Sb  Sb64  1  0.82825827  0.83729362  0.66338960  1
  Sb  Sb65  1  0.67541666  -0.00271272  -0.00260294  1
  Sb  Sb66  1  0.00174296  0.67118947  0.32883251  1
  Sb  Sb67  1  0.33125719  0.16346305  0.83590084  1
  Sb  Sb68  1  0.17101073  0.83414371  0.66143767  1
  Sb  Sb69  1  0.50022351  0.16494047  -0.00316109  1
  Sb  Sb70  1  0.83690025  0.33399010  0.82881663  1
  Sb  Sb71  1  0.66539274  0.67110945  0.66852604  1
  Sb  Sb72  1  0.33179635  0.33072703  0.33044282  1
  Sb  Sb73  1  0.67049484  0.16270848  0.16524596  1
  Sb  Sb74  1  0.33565642  0.33064592  0.66609022  1
  Sb  Sb75  1  -0.00671892  0.83402000  0.82944779  1
  Sb  Sb76  1  0.33098008  0.50598779  0.83843588  1
  Sb  Sb77  1  0.50132851  0.50304905  -0.00099188  1
  Sb  Sb78  1  0.50129627  0.00133826  0.16352493  1
  Sb  Sb79  1  0.50288694  0.83572320  0.33658484  1
  Sb  Sb80  1  0.66585923  0.67026204  0.33529910  1
  Sb  Sb81  1  0.16394610  0.16865868  0.00080819  1
  Sb  Sb82  1  -0.00305642  0.15772091  0.49872581  1
  Sb  Sb83  1  0.15903914  -0.00487818  0.83345046  1
  Sb  Sb84  1  0.00237633  0.66972941  0.66971886  1
  Sb  Sb85  1  0.50188462  0.50191788  0.66748973  1
  Sb  Sb86  1  -0.00051061  0.33801574  -0.00056138  1
  Sb  Sb87  1  0.50624959  0.16535977  0.33689981  1
  Sb  Sb88  1  0.67146826  0.50294208  0.16692703  1
  Sb  Sb89  1  -0.00555606  0.50433797  0.49974607  1
  Sb  Sb90  1  0.50641703  0.00143043  0.50549271  1
  Sb  Sb91  1  0.33720757  0.83048751  0.83571713  1
  Sb  Sb92  1  0.83266422  0.33282996  0.17245975  1
  Sb  Sb93  1  0.50196440  0.66632635  0.50447168  1
  Sb  Sb94  1  0.33549161  0.50425478  0.49451257  1
  Sb  Sb95  1  0.15932810  0.33573294  0.50243574  1
  Sb  Sb96  1  0.16596404  0.33536207  0.16514303  1
  Sb  Sb97  1  0.83278517  0.50012382  0.67035983  1
  Sb  Sb98  1  0.50095062  0.49938983  0.33239757  1
  Sb  Sb99  1  0.33459753  0.16210885  0.49513211  1
  Sb  Sb100  1  0.83072012  0.16373262  0.66373058  1
  Sb  Sb101  1  -0.00206062  0.83490415  0.17250346  1
  Sb  Sb102  1  0.33137087  0.33909225  0.00241040  1
  Sb  Sb103  1  0.67373429  0.66802131  -0.00232550  1
  Sb  Sb104  1  0.66856358  0.33484304  -0.00291756  1
  Sb  Sb105  1  0.50550507  0.83240023  -0.00338862  1
  Sb  Sb106  1  0.49714074  0.66510147  0.16124525  1
  Sb  Sb107  1  0.32616768  -0.00738924  0.00274687  1
  Te  Te108  1  0.16422202  0.16659931  0.16584745  1
  Te  Te109  1  0.16746919  0.16150366  0.49994860  1
  Te  Te110  1  0.16099440  0.16873230  0.83493904  1
  Te  Te111  1  0.16466206  0.50224584  0.16236060  1
  Te  Te112  1  0.16623649  0.50765303  0.49939384  1
  Te  Te113  1  0.16448150  0.50489016  0.83825001  1
  Te  Te114  1  0.16917959  0.83208263  0.16987744  1
  Te  Te115  1  0.16944054  0.83341784  0.49513894  1
  Te  Te116  1  0.16626297  0.82516978  0.83411253  1
  Te  Te117  1  0.50015455  0.16968554  0.16528919  1
  Te  Te118  1  0.49991371  0.17302143  0.50584275  1
  Te  Te119  1  0.49947134  0.16513506  0.82962931  1
  Te  Te120  1  0.50065432  0.49487198  0.16529719  1
  Te  Te121  1  0.50675674  0.49508914  0.49994614  1
  Te  Te122  1  0.50459492  0.50455917  0.83394999  1
  Te  Te123  1  0.50222361  0.83419887  0.16540590  1
  Te  Te124  1  0.50900896  0.83337183  0.50647026  1
  Te  Te125  1  0.50434876  0.83293287  0.83069295  1
  Te  Te126  1  0.83831418  0.16232120  0.16974248  1
  Te  Te127  1  0.83457860  0.16970162  0.49135591  1
  Te  Te128  1  0.83513305  0.16714175  0.83505830  1
  Te  Te129  1  0.83619120  0.50538606  0.16194003  1
  Te  Te130  1  0.82943683  0.49692441  0.49999057  1
  Te  Te131  1  0.83504176  0.50053508  0.83599391  1
  Te  Te132  1  0.83494524  0.83367076  0.16848821  1
  Te  Te133  1  0.83097910  0.83609015  0.50065960  1
  Te  Te134  1  0.83005909  0.83108997  0.83029685  1
  Te  Te135  1  0.15813205  -0.00091163  0.00480606  1
  Te  Te136  1  0.16735753  -0.00357345  0.33236846  1
  Te  Te137  1  0.16633521  -0.00050985  0.66415694  1
  Te  Te138  1  0.16671381  0.34179775  -0.00611141  1
  Te  Te139  1  0.15982808  0.33199517  0.33527755  1
  Te  Te140  1  0.16357555  0.33309823  0.67096282  1
  Te  Te141  1  0.16162161  0.66621644  0.00458230  1
  Te  Te142  1  0.16823197  0.67235054  0.33197675  1
  Te  Te143  1  0.17042461  0.66780574  0.65915120  1
  Te  Te144  1  0.49659479  -0.00046840  -0.01059030  1
  Te  Te145  1  0.49068414  0.00138955  0.33372141  1
  Te  Te146  1  0.50227190  -0.00004249  0.66762297  1
  Te  Te147  1  0.49974080  0.33348486  0.00527745  1
  Te  Te148  1  0.50157300  0.33195090  0.33598862  1
  Te  Te149  1  0.50339824  0.33132987  0.66350031  1
  Te  Te150  1  0.49283485  0.66737038  -0.00808959  1
  Te  Te151  1  0.49084002  0.66737424  0.33406108  1
  Te  Te152  1  0.49540368  0.66918046  0.67205588  1
  Te  Te153  1  0.83922368  -0.00250242  -0.00766516  1
  Te  Te154  1  0.83483034  -0.00609919  0.33422149  1
  Te  Te155  1  0.83206072  0.00242925  0.67258865  1
  Te  Te156  1  0.83309005  0.33899975  0.00289814  1
  Te  Te157  1  0.83357037  0.33988884  0.33564489  1
  Te  Te158  1  0.83178398  0.33133854  0.66152061  1
  Te  Te159  1  0.83611978  0.66946086  0.00035112  1
  Te  Te160  1  0.83280831  0.67359157  0.33729744  1
  Te  Te161  1  0.83420029  0.66673652  0.66184070  1
  Te  Te162  1  -0.00015484  0.16127891  0.00108546  1
  Te  Te163  1  -0.00467095  0.16475609  0.33194104  1
  Te  Te164  1  -0.00026687  0.16691763  0.67121419  1
  Te  Te165  1  -0.00135053  0.50077660  -0.00033890  1
  Te  Te166  1  0.00055058  0.49427187  0.33024547  1
  Te  Te167  1  -0.00006746  0.49422822  0.67204607  1
  Te  Te168  1  -0.00643672  0.83216345  -0.00369159  1
  Te  Te169  1  -0.00001637  0.83630057  0.33875903  1
  Te  Te170  1  0.00367742  0.83841192  0.65918619  1
  Te  Te171  1  0.33231498  0.16549065  0.00838295  1
  Te  Te172  1  0.33455852  0.16216088  0.32750921  1
  Te  Te173  1  0.33936683  0.16186389  0.66698105  1
  Te  Te174  1  0.33183680  0.50618216  0.00619307  1
  Te  Te175  1  0.33219147  0.50172822  0.32585759  1
  Te  Te176  1  0.33325972  0.50372342  0.66501560  1
  Te  Te177  1  0.33340918  0.82719866  0.00648115  1
  Te  Te178  1  0.33629111  0.83472696  0.33052347  1
  Te  Te179  1  0.33906312  0.83515287  0.66659255  1
  Te  Te180  1  0.66744602  0.16735116  -0.01128223  1
  Te  Te181  1  0.67214191  0.16507917  0.33066916  1
  Te  Te182  1  0.66493684  0.16505347  0.67195246  1
  Te  Te183  1  0.67167387  0.50027439  -0.00454111  1
  Te  Te184  1  0.66711315  0.49582040  0.33767315  1
  Te  Te185  1  0.66697659  0.49651509  0.66568998  1
  Te  Te186  1  0.67342167  0.83315570  0.00431113  1
  Te  Te187  1  0.66903507  0.83658534  0.33439767  1
  Te  Te188  1  0.66250287  0.83677377  0.66776281  1
  Te  Te189  1  -0.00122590  -0.00080893  0.16939426  1
  Te  Te190  1  -0.00280707  -0.00241589  0.50026299  1
  Te  Te191  1  -0.00246525  0.00137425  0.82477742  1
  Te  Te192  1  0.00016880  0.33397521  0.17027713  1
  Te  Te193  1  -0.00297885  0.33541113  0.50194122  1
  Te  Te194  1  0.00104872  0.33228471  0.83225212  1
  Te  Te195  1  0.00068793  0.66409839  0.16545003  1
  Te  Te196  1  -0.00116493  0.67085974  0.50018354  1
  Te  Te197  1  -0.00275963  0.66581179  0.83360004  1
  Te  Te198  1  0.33438635  -0.00272355  0.16680476  1
  Te  Te199  1  0.33348380  -0.00066233  0.50142317  1
  Te  Te200  1  0.32874403  -0.00086296  0.82983160  1
  Te  Te201  1  0.33640902  0.33043960  0.16717934  1
  Te  Te202  1  0.33198669  0.33461330  0.49975412  1
  Te  Te203  1  0.32742829  0.33384629  0.83335561  1
  Te  Te204  1  0.33526226  0.66931166  0.16598855  1
  Te  Te205  1  0.33281531  0.66634543  0.50407210  1
  Te  Te206  1  0.32710749  0.66641599  0.83001805  1
  Te  Te207  1  0.66909210  -0.00338090  0.16782402  1
  Te  Te208  1  0.67041473  -0.00088438  0.50007800  1
  Te  Te209  1  0.67056884  -0.00318962  0.83328449  1
  Te  Te210  1  0.66370406  0.33282034  0.16902601  1
  Te  Te211  1  0.67044561  0.32997056  0.50102516  1
  Te  Te212  1  0.66569267  0.34035045  0.82870736  1
  Te  Te213  1  0.66755891  0.67170174  0.16793819  1
  Te  Te214  1  0.67061782  0.66847678  0.50070082  1
  Te  Te215  1  0.67041333  0.66668183  0.83254273  1
