# generated using pymatgen
data_AgSbTe2
_symmetry_space_group_name_H-M   'P 1'
_cell_length_a   18.34503672
_cell_length_b   18.34907955
_cell_length_c   18.34977736
_cell_angle_alpha   89.99981709
_cell_angle_beta   89.99824003
_cell_angle_gamma   90.00076588
_symmetry_Int_Tables_number   1
_chemical_formula_structural   AgSbTe2
_chemical_formula_sum   'Ag54 Sb54 Te108'
_cell_volume   6176.80182887
_cell_formula_units_Z   54
loop_
 _symmetry_equiv_pos_site_id
 _symmetry_equiv_pos_as_xyz
  1  'x, y, z'
loop_
 _atom_site_type_symbol
 _atom_site_label
 _atom_site_symmetry_multiplicity
 _atom_site_fract_x
 _atom_site_fract_y
 _atom_site_fract_z
 _atom_site_occupancy
  Ag  Ag0  1  0.84355921  0.17575092  0.32541187  1
  Ag  Ag1  1  0.50182310  0.65709909  0.83472112  1
  Ag  Ag2  1  0.32767431  0.00410340  0.66924743  1
  Ag  Ag3  1  0.66826147  0.33578684  -0.00352116  1
  Ag  Ag4  1  0.67680793  0.33630339  0.33050223  1
  Ag  Ag5  1  0.66990620  0.82262604  0.50662900  1
  Ag  Ag6  1  0.49737383  0.17797456  -0.00211616  1
  Ag  Ag7  1  0.49667370  0.33410696  0.50434458  1
  Ag  Ag8  1  0.66779390  0.82146914  0.82886248  1
  Ag  Ag9  1  0.83936891  0.17740547  0.66815523  1
  Ag  Ag10  1  0.82198501  0.49324003  -0.00803061  1
  Ag  Ag11  1  -0.00586809  0.33516843  0.66112415  1
  Ag  Ag12  1  0.16793034  0.17490837  0.00525748  1
  Ag  Ag13  1  0.16411404  0.17712527  0.66126142  1
  Ag  Ag14  1  0.66595272  0.49722902  0.15354338  1
  Ag  Ag15  1  0.17293791  0.65710808  0.82850725  1
  Ag  Ag16  1  0.83051719  0.33250786  0.83812507  1
  Ag  Ag17  1  0.32389933  0.17553144  0.16568129  1
  Ag  Ag18  1  0.50726058  0.33634508  0.83646972  1
  Ag  Ag19  1  0.33612159  0.65352282  -0.00666941  1
  Ag  Ag20  1  0.67734287  0.33880091  0.67253493  1
  Ag  Ag21  1  -0.00009239  0.01497821  0.33592080  1
  Ag  Ag22  1  -0.00708039  0.49754836  0.83244680  1
  Ag  Ag23  1  0.33441159  0.33621417  0.00302878  1
  Ag  Ag24  1  0.33107273  0.83613114  0.16539406  1
  Ag  Ag25  1  0.83346696  0.01637242  0.15930326  1
  Ag  Ag26  1  0.16544663  0.65567661  0.50766638  1
  Ag  Ag27  1  0.67174840  0.49729448  0.50865905  1
  Ag  Ag28  1  0.83692602  0.33344733  0.16418166  1
  Ag  Ag29  1  0.17043566  0.49391619  -0.00272398  1
  Ag  Ag30  1  0.16611486  0.00229256  0.82709510  1
  Ag  Ag31  1  0.16962674  0.33184473  0.17499097  1
  Ag  Ag32  1  0.50299135  0.00414784  0.83329110  1
  Ag  Ag33  1  0.83420239  0.17524409  0.00279417  1
  Ag  Ag34  1  0.83456434  0.49219533  0.33362030  1
  Ag  Ag35  1  0.83283272  0.01188304  0.83429862  1
  Ag  Ag36  1  0.16325467  0.49281741  0.66718944  1
  Ag  Ag37  1  0.16109057  0.48951333  0.33987431  1
  Ag  Ag38  1  0.16164319  0.17291156  0.33525324  1
  Ag  Ag39  1  0.66438087  0.65667407  0.66957244  1
  Ag  Ag40  1  0.16667761  0.01515274  0.50686637  1
  Ag  Ag41  1  0.33067504  0.66384839  0.67168900  1
  Ag  Ag42  1  0.67061801  0.50026273  0.83647537  1
  Ag  Ag43  1  0.33325322  0.49452867  0.15828876  1
  Ag  Ag44  1  0.32637595  0.17314950  0.49808655  1
  Ag  Ag45  1  0.00419727  0.33241267  0.33776469  1
  Ag  Ag46  1  0.00211308  0.17140083  0.16862950  1
  Ag  Ag47  1  0.32127258  0.33336922  0.32047727  1
  Ag  Ag48  1  0.50687873  0.49533952  -0.00086953  1
  Ag  Ag49  1  0.66110875  0.65165923  -0.01245619  1
  Ag  Ag50  1  0.17207461  0.33205563  0.48889221  1
  Ag  Ag51  1  0.83416550  0.66229140  0.50221179  1
  Ag  Ag52  1  -0.00059201  0.83235386  0.50009581  1
  Ag  Ag53  1  0.82577361  0.49539190  0.66992953  1
  Sb  Sb54  1  0.33588024  0.83183623  0.83509821  1
  Sb  Sb55  1  -0.00133253  0.49768979  0.50458179  1
  Sb  Sb56  1  0.49734315  0.16950437  0.67145779  1
  Sb  Sb57  1  -0.00257743  0.33373616  0.00083903  1
  Sb  Sb58  1  0.83324374  0.33749137  0.49974171  1
  Sb  Sb59  1  0.49859381  0.66280654  0.15980825  1
  Sb  Sb60  1  -0.00190280  0.17335254  0.83640815  1
  Sb  Sb61  1  0.67062487  0.17613482  0.16582399  1
  Sb  Sb62  1  0.16525228  0.83190175  0.66584290  1
  Sb  Sb63  1  0.16342047  0.33515518  0.83497308  1
  Sb  Sb64  1  0.33097609  0.16752407  0.83456267  1
  Sb  Sb65  1  0.16822682  0.65447472  0.16467175  1
  Sb  Sb66  1  0.33251669  0.33580157  0.66994652  1
  Sb  Sb67  1  -0.00071472  0.00363869  0.00063205  1
  Sb  Sb68  1  0.00112898  0.65880833  0.33590016  1
  Sb  Sb69  1  0.32697640  0.00920527  0.33618720  1
  Sb  Sb70  1  0.66579585  0.82647303  0.16446126  1
  Sb  Sb71  1  0.67377584  0.00869948  0.33426509  1
  Sb  Sb72  1  0.66873544  0.17521196  0.83334208  1
  Sb  Sb73  1  0.00428721  0.16853423  0.49471655  1
  Sb  Sb74  1  0.33082052  0.65817983  0.33254578  1
  Sb  Sb75  1  0.16492767  0.01124707  0.16659081  1
  Sb  Sb76  1  0.66401069  0.17543553  0.50078599  1
  Sb  Sb77  1  0.49957160  0.83060984  -0.00361563  1
  Sb  Sb78  1  0.50108584  0.65791865  0.50752059  1
  Sb  Sb79  1  0.50131415  0.49362782  0.32933135  1
  Sb  Sb80  1  0.16616986  0.83530330  0.33540189  1
  Sb  Sb81  1  0.33374365  0.49974485  0.83905529  1
  Sb  Sb82  1  0.49676064  0.17336737  0.32815438  1
  Sb  Sb83  1  0.83479831  0.83349905  0.33453801  1
  Sb  Sb84  1  0.83822800  -0.00166917  0.50212644  1
  Sb  Sb85  1  0.33200729  0.83490794  0.49824241  1
  Sb  Sb86  1  0.66813629  0.65670620  0.33868791  1
  Sb  Sb87  1  0.00427337  0.00822851  0.66399956  1
  Sb  Sb88  1  0.50066248  0.83419712  0.33452331  1
  Sb  Sb89  1  0.50329714  0.00333260  0.16035305  1
  Sb  Sb90  1  -0.00340722  0.82995388  0.82765827  1
  Sb  Sb91  1  0.00041277  0.66090610  -0.00142525  1
  Sb  Sb92  1  0.16956070  0.83105377  0.00004862  1
  Sb  Sb93  1  0.83058982  0.65765157  0.83094458  1
  Sb  Sb94  1  0.66810448  0.00640204  -0.00337677  1
  Sb  Sb95  1  0.00445272  0.84462523  0.17262967  1
  Sb  Sb96  1  0.50294168  0.49818710  0.67424091  1
  Sb  Sb97  1  0.83016810  0.83096294  -0.00264371  1
  Sb  Sb98  1  0.50094555  0.83194942  0.66896483  1
  Sb  Sb99  1  0.83106129  0.82927501  0.66701330  1
  Sb  Sb100  1  0.83134518  0.65504227  0.16760099  1
  Sb  Sb101  1  -0.00059150  0.49207691  0.16307021  1
  Sb  Sb102  1  0.33296160  0.00547416  -0.00273411  1
  Sb  Sb103  1  0.49569259  0.00615640  0.50529716  1
  Sb  Sb104  1  0.66625353  0.00295543  0.66995599  1
  Sb  Sb105  1  0.33212905  0.49373146  0.49746243  1
  Sb  Sb106  1  0.49916154  0.33288733  0.16019557  1
  Sb  Sb107  1  0.00042134  0.65859264  0.66511925  1
  Te  Te108  1  0.16508405  0.17059796  0.16489462  1
  Te  Te109  1  0.16598518  0.17070615  0.50138047  1
  Te  Te110  1  0.16412782  0.16266723  0.83089622  1
  Te  Te111  1  0.16720174  0.49306937  0.16458960  1
  Te  Te112  1  0.16584055  0.49661495  0.50075633  1
  Te  Te113  1  0.16783302  0.50016162  0.83095587  1
  Te  Te114  1  0.17137440  0.83356780  0.16755140  1
  Te  Te115  1  0.16609176  0.82917850  0.49923852  1
  Te  Te116  1  0.16438090  0.83935110  0.83362911  1
  Te  Te117  1  0.49298141  0.16449716  0.15845086  1
  Te  Te118  1  0.49343940  0.17228234  0.50061336  1
  Te  Te119  1  0.50031946  0.16675236  0.83849230  1
  Te  Te120  1  0.49991608  0.50079277  0.16130563  1
  Te  Te121  1  0.50290610  0.49338553  0.49848747  1
  Te  Te122  1  0.50351427  0.49850418  0.83809483  1
  Te  Te123  1  0.49491681  0.83400780  0.16676300  1
  Te  Te124  1  0.50610286  0.83317703  0.49985350  1
  Te  Te125  1  0.50592519  0.83736272  0.83304564  1
  Te  Te126  1  0.83202949  0.17169405  0.16608220  1
  Te  Te127  1  0.83121916  0.16363189  0.50434322  1
  Te  Te128  1  0.83418468  0.17080170  0.83371896  1
  Te  Te129  1  0.83093908  0.49369053  0.16852627  1
  Te  Te130  1  0.83298404  0.50202641  0.50141274  1
  Te  Te131  1  0.83359183  0.49808369  0.83217901  1
  Te  Te132  1  0.83395375  0.83370492  0.16573268  1
  Te  Te133  1  0.83124727  0.82857509  0.50073835  1
  Te  Te134  1  0.82942887  0.83901427  0.83340758  1
  Te  Te135  1  0.16677838  0.00228552  -0.00233804  1
  Te  Te136  1  0.16176259  0.00401100  0.33466301  1
  Te  Te137  1  0.16917753  -0.00083095  0.66576070  1
  Te  Te138  1  0.16503574  0.33283810  -0.00206652  1
  Te  Te139  1  0.16595485  0.33326297  0.33100175  1
  Te  Te140  1  0.16578653  0.33433534  0.67267560  1
  Te  Te141  1  0.17033901  0.66429112  -0.00406518  1
  Te  Te142  1  0.16751650  0.66294782  0.33811176  1
  Te  Te143  1  0.16647534  0.66576523  0.66720673  1
  Te  Te144  1  0.50089170  0.00210485  -0.00757088  1
  Te  Te145  1  0.50137796  0.00231921  0.33356598  1
  Te  Te146  1  0.49496628  0.00191734  0.67236919  1
  Te  Te147  1  0.50062623  0.33473317  0.00056531  1
  Te  Te148  1  0.50387768  0.33224743  0.34061903  1
  Te  Te149  1  0.50218935  0.33260283  0.66927493  1
  Te  Te150  1  0.49904009  0.66412446  -0.00598805  1
  Te  Te151  1  0.49892501  0.66709777  0.33315764  1
  Te  Te152  1  0.49800557  0.66626291  0.67332973  1
  Te  Te153  1  0.83283182  0.00367926  -0.00106014  1
  Te  Te154  1  0.83900768  0.00289966  0.33366293  1
  Te  Te155  1  0.83417128  0.00266620  0.67300304  1
  Te  Te156  1  0.83568686  0.33529688  -0.00045904  1
  Te  Te157  1  0.83461162  0.33399072  0.33781914  1
  Te  Te158  1  0.83428654  0.33500077  0.66227625  1
  Te  Te159  1  0.82947263  0.65959579  0.00030268  1
  Te  Te160  1  0.83389109  0.66142142  0.33810251  1
  Te  Te161  1  0.83089780  0.66210781  0.66245459  1
  Te  Te162  1  0.00031760  0.16587430  0.00421305  1
  Te  Te163  1  0.00061037  0.17011449  0.33290316  1
  Te  Te164  1  0.00130700  0.17363574  0.66892288  1
  Te  Te165  1  0.00811032  0.50057818  -0.00593576  1
  Te  Te166  1  -0.00020942  0.49421153  0.33108743  1
  Te  Te167  1  0.00342800  0.49561992  0.67000840  1
  Te  Te168  1  -0.00031485  0.83308527  -0.00038495  1
  Te  Te169  1  -0.00033723  0.83343927  0.34002844  1
  Te  Te170  1  -0.00252294  0.83438429  0.65937069  1
  Te  Te171  1  0.32950193  0.17032768  0.00177345  1
  Te  Te172  1  0.32960824  0.17286273  0.33300630  1
  Te  Te173  1  0.32875319  0.16505136  0.66449291  1
  Te  Te174  1  0.32845960  0.49820299  0.00059799  1
  Te  Te175  1  0.33101485  0.49249851  0.32791261  1
  Te  Te176  1  0.32835720  0.50532513  0.66462845  1
  Te  Te177  1  0.33404932  0.83077801  0.00531775  1
  Te  Te178  1  0.33445517  0.83295822  0.32787001  1
  Te  Te179  1  0.33358475  0.83029901  0.66638262  1
  Te  Te180  1  0.66878317  0.17311091  0.00144694  1
  Te  Te181  1  0.66993944  0.17407837  0.33328816  1
  Te  Te182  1  0.67110431  0.17221652  0.66574095  1
  Te  Te183  1  0.66548644  0.49610429  -0.00276765  1
  Te  Te184  1  0.66881133  0.49517459  0.33712605  1
  Te  Te185  1  0.66481186  0.49901162  0.66667757  1
  Te  Te186  1  0.66646700  0.82939242  -0.00241881  1
  Te  Te187  1  0.66704393  0.83130995  0.33550141  1
  Te  Te188  1  0.66659941  0.83157895  0.66662800  1
  Te  Te189  1  -0.00571803  0.00743999  0.17086510  1
  Te  Te190  1  0.00517481  -0.00351114  0.49796958  1
  Te  Te191  1  -0.00047717  -0.00282685  0.83230289  1
  Te  Te192  1  -0.00244975  0.33067068  0.16986958  1
  Te  Te193  1  0.01092443  0.33414225  0.50054850  1
  Te  Te194  1  -0.00722356  0.33844368  0.82767067  1
  Te  Te195  1  -0.00007261  0.67354063  0.16743391  1
  Te  Te196  1  0.00165433  0.67005142  0.49931614  1
  Te  Te197  1  0.00759368  0.66272565  0.83277811  1
  Te  Te198  1  0.33512387  -0.00015584  0.16743591  1
  Te  Te199  1  0.32832518  0.00334368  0.50350747  1
  Te  Te200  1  0.33010818  -0.00127132  0.83035808  1
  Te  Te201  1  0.33502309  0.33334146  0.16325712  1
  Te  Te202  1  0.33234280  0.33058610  0.50515893  1
  Te  Te203  1  0.34347912  0.33269300  0.84012696  1
  Te  Te204  1  0.33151952  0.66053768  0.16484825  1
  Te  Te205  1  0.33059466  0.66647593  0.50324579  1
  Te  Te206  1  0.33361154  0.66877852  0.83376151  1
  Te  Te207  1  0.67339528  -0.00331057  0.16721554  1
  Te  Te208  1  0.66492344  -0.00339523  0.50098939  1
  Te  Te209  1  0.66761318  -0.00282610  0.83254156  1
  Te  Te210  1  0.66818481  0.33808432  0.16678722  1
  Te  Te211  1  0.66326700  0.33643860  0.50233710  1
  Te  Te212  1  0.66875337  0.33603368  0.83412581  1
  Te  Te213  1  0.66589016  0.65918909  0.16485973  1
  Te  Te214  1  0.66580638  0.66348962  0.50531546  1
  Te  Te215  1  0.66898351  0.66426058  0.83093900  1
