# generated using pymatgen
data_AgSbTe2
_symmetry_space_group_name_H-M   'P 1'
_cell_length_a   18.32803053
_cell_length_b   18.32889223
_cell_length_c   18.32356204
_cell_angle_alpha   89.99957701
_cell_angle_beta   90.00338066
_cell_angle_gamma   90.00024300
_symmetry_Int_Tables_number   1
_chemical_formula_structural   AgSbTe2
_chemical_formula_sum   'Ag54 Sb54 Te108'
_cell_volume   6155.47993003
_cell_formula_units_Z   54
loop_
 _symmetry_equiv_pos_site_id
 _symmetry_equiv_pos_as_xyz
  1  'x, y, z'
loop_
 _atom_site_type_symbol
 _atom_site_label
 _atom_site_symmetry_multiplicity
 _atom_site_fract_x
 _atom_site_fract_y
 _atom_site_fract_z
 _atom_site_occupancy
  Ag  Ag0  1  0.33735306  0.49128269  0.17234323  1
  Ag  Ag1  1  0.49993934  0.83164702  0.65986573  1
  Ag  Ag2  1  0.32972840  0.17302515  0.16876328  1
  Ag  Ag3  1  0.32887731  0.50156620  0.49181579  1
  Ag  Ag4  1  0.49749232  0.17222998  0.00924011  1
  Ag  Ag5  1  0.66897187  0.83073292  0.16969425  1
  Ag  Ag6  1  0.66361470  0.32954218  0.33076238  1
  Ag  Ag7  1  0.49730739  0.83645015  0.33280005  1
  Ag  Ag8  1  0.33419627  0.00926441  0.33242423  1
  Ag  Ag9  1  0.33336135  0.83048781  0.49156203  1
  Ag  Ag10  1  -0.00260279  0.34098137  0.67513680  1
  Ag  Ag11  1  0.84384474  0.33376132  0.83933238  1
  Ag  Ag12  1  0.49791732  0.32997556  0.83468134  1
  Ag  Ag13  1  0.83311875  0.65936979  0.17293541  1
  Ag  Ag14  1  -0.00089690  0.83829503  0.16719608  1
  Ag  Ag15  1  -0.00384815  0.65973650  0.65758086  1
  Ag  Ag16  1  0.00101380  0.49626303  0.82969245  1
  Ag  Ag17  1  0.50179267  0.33496939  0.48846654  1
  Ag  Ag18  1  0.50213228  0.49076940  0.32883231  1
  Ag  Ag19  1  0.33222517  0.16904824  0.84379407  1
  Ag  Ag20  1  0.00288842  0.33075365  -0.00033663  1
  Ag  Ag21  1  0.16095629  0.32970189  0.16292035  1
  Ag  Ag22  1  0.16126386  0.33199589  0.84378723  1
  Ag  Ag23  1  0.49418385  0.00833021  0.83463466  1
  Ag  Ag24  1  0.16555567  0.49041344  0.00038045  1
  Ag  Ag25  1  0.00119032  0.01103795  0.00918826  1
  Ag  Ag26  1  0.66714737  0.49689773  0.16858915  1
  Ag  Ag27  1  0.67591464  0.66491708  0.66813653  1
  Ag  Ag28  1  0.33310067  0.83510768  0.17349407  1
  Ag  Ag29  1  0.15920307  0.66471976  0.49981773  1
  Ag  Ag30  1  0.83242762  0.49147103  0.33407917  1
  Ag  Ag31  1  0.16127691  0.66156357  0.83263581  1
  Ag  Ag32  1  0.84014412  0.65699372  0.49258973  1
  Ag  Ag33  1  0.34070995  0.32909137  0.33196530  1
  Ag  Ag34  1  0.83691956  0.33188185  0.17139502  1
  Ag  Ag35  1  0.66630285  0.00995332  0.33063963  1
  Ag  Ag36  1  0.83815843  0.49952772  0.65329067  1
  Ag  Ag37  1  0.49713482  0.49044989  0.00902794  1
  Ag  Ag38  1  0.49899196  0.17293655  0.32611076  1
  Ag  Ag39  1  0.00183268  0.82909864  0.83747517  1
  Ag  Ag40  1  -0.00054748  0.00115609  0.32931195  1
  Ag  Ag41  1  0.16346418  -0.00138211  0.49328799  1
  Ag  Ag42  1  0.84472651  0.17124895  0.01165968  1
  Ag  Ag43  1  0.16594896  0.00827692  0.83376150  1
  Ag  Ag44  1  -0.00123156  0.16817172  0.16666474  1
  Ag  Ag45  1  0.16126073  0.17188803  0.00676832  1
  Ag  Ag46  1  0.16727607  0.16685724  0.32436268  1
  Ag  Ag47  1  -0.00271144  0.66713455  0.33642165  1
  Ag  Ag48  1  0.83082000  0.17431151  0.32850760  1
  Ag  Ag49  1  0.84119969  0.00258839  0.49416892  1
  Ag  Ag50  1  0.83437076  0.33830227  0.48877168  1
  Ag  Ag51  1  -0.00193505  0.50268138  0.50190859  1
  Ag  Ag52  1  0.66826209  0.66377010  0.00446664  1
  Ag  Ag53  1  0.67445678  0.17524594  0.17093311  1
  Sb  Sb54  1  0.32770511  0.33141193  0.00790413  1
  Sb  Sb55  1  0.50603385  0.50204473  0.66313159  1
  Sb  Sb56  1  0.49684548  0.66471097  0.83347232  1
  Sb  Sb57  1  0.16487316  0.83684371  0.00093934  1
  Sb  Sb58  1  0.50600723  0.66403489  0.16764945  1
  Sb  Sb59  1  0.66814107  0.33541405  0.00917224  1
  Sb  Sb60  1  0.67056112  0.49819741  0.83920065  1
  Sb  Sb61  1  0.83785263  0.00745688  0.83136940  1
  Sb  Sb62  1  0.50129980  0.66286622  0.49808121  1
  Sb  Sb63  1  0.33217659  0.16786363  0.49122693  1
  Sb  Sb64  1  0.32839379  0.00521724  0.00530552  1
  Sb  Sb65  1  0.50000176  0.16542912  0.66658621  1
  Sb  Sb66  1  0.49949230  0.00379547  0.16702266  1
  Sb  Sb67  1  0.83550949  0.83725105  0.00413735  1
  Sb  Sb68  1  0.67210495  0.33842977  0.66204633  1
  Sb  Sb69  1  0.16150492  0.66161050  0.16776214  1
  Sb  Sb70  1  0.15874287  0.50025817  0.66968268  1
  Sb  Sb71  1  0.83537447  0.00713564  0.17417750  1
  Sb  Sb72  1  0.16522235  0.16765685  0.66992435  1
  Sb  Sb73  1  0.83515753  0.17533669  0.66241811  1
  Sb  Sb74  1  0.83142282  0.82561396  0.66490384  1
  Sb  Sb75  1  0.00532020  0.17184737  0.84336248  1
  Sb  Sb76  1  -0.00048311  0.17034860  0.49123301  1
  Sb  Sb77  1  0.66347530  0.83131941  0.49319994  1
  Sb  Sb78  1  0.33369187  -0.00029503  0.66111097  1
  Sb  Sb79  1  0.16603390  0.49472688  0.33005538  1
  Sb  Sb80  1  -0.00285063  0.33141148  0.32995905  1
  Sb  Sb81  1  0.66599691  -0.00465936  0.66025910  1
  Sb  Sb82  1  0.16465499  0.00947964  0.16848615  1
  Sb  Sb83  1  0.67182774  0.50048518  0.49185267  1
  Sb  Sb84  1  0.50053753  0.83619230  0.00457685  1
  Sb  Sb85  1  0.17045172  0.83994491  0.33291166  1
  Sb  Sb86  1  0.32777442  0.49310790  0.83634223  1
  Sb  Sb87  1  0.83172578  0.83511424  0.33148728  1
  Sb  Sb88  1  -0.00031779  -0.00174777  0.66364592  1
  Sb  Sb89  1  0.66990248  0.83283214  0.83735256  1
  Sb  Sb90  1  0.49890840  0.33278917  0.16865198  1
  Sb  Sb91  1  0.83490709  0.49383524  0.00531404  1
  Sb  Sb92  1  0.66240114  0.16888893  0.84366607  1
  Sb  Sb93  1  -0.00313885  0.66310734  0.00227272  1
  Sb  Sb94  1  0.16822867  0.83162963  0.66605875  1
  Sb  Sb95  1  0.33450631  0.66455620  0.00156557  1
  Sb  Sb96  1  0.33001699  0.33434892  0.66273508  1
  Sb  Sb97  1  0.67019820  0.00075927  0.00734337  1
  Sb  Sb98  1  0.83976308  0.65942048  0.83383354  1
  Sb  Sb99  1  0.32867713  0.66478235  0.33330610  1
  Sb  Sb100  1  -0.00170520  0.49670818  0.16820311  1
  Sb  Sb101  1  0.32911387  0.83839511  0.83443293  1
  Sb  Sb102  1  0.49782209  0.00268184  0.49553452  1
  Sb  Sb103  1  0.66724344  0.16783971  0.48932316  1
  Sb  Sb104  1  0.33005351  0.66565516  0.66430514  1
  Sb  Sb105  1  0.67295087  0.66440786  0.33092501  1
  Sb  Sb106  1  0.16369563  0.33397962  0.49709699  1
  Sb  Sb107  1  0.00302573  0.82810236  0.49715518  1
  Te  Te108  1  0.16805337  0.16901310  0.16638024  1
  Te  Te109  1  0.16732834  0.16186525  0.49756700  1
  Te  Te110  1  0.17060958  0.16819888  0.83569325  1
  Te  Te111  1  0.16981542  0.49485913  0.16182591  1
  Te  Te112  1  0.16489507  0.50216334  0.49910338  1
  Te  Te113  1  0.16438974  0.49676893  0.83762552  1
  Te  Te114  1  0.16400270  0.83061332  0.16633716  1
  Te  Te115  1  0.17194117  0.83356389  0.49998564  1
  Te  Te116  1  0.16242795  0.83335292  0.83332871  1
  Te  Te117  1  0.49537835  0.16651558  0.16812124  1
  Te  Te118  1  0.49930938  0.17309956  0.49721270  1
  Te  Te119  1  0.49669361  0.16715744  0.83266753  1
  Te  Te120  1  0.49828502  0.50007861  0.16815646  1
  Te  Te121  1  0.49857435  0.49577691  0.49564721  1
  Te  Te122  1  0.49787896  0.49563877  0.83416010  1
  Te  Te123  1  0.49927009  0.83336303  0.17075972  1
  Te  Te124  1  0.49583255  0.83369498  0.49745194  1
  Te  Te125  1  0.49907060  0.83494600  0.83344266  1
  Te  Te126  1  0.83414650  0.16796521  0.16858889  1
  Te  Te127  1  0.83322842  0.16897103  0.49417685  1
  Te  Te128  1  0.83088349  0.17410328  0.83418446  1
  Te  Te129  1  0.83179311  0.49849930  0.17038675  1
  Te  Te130  1  0.83493270  0.49957708  0.49532624  1
  Te  Te131  1  0.83797983  0.49316402  0.83667522  1
  Te  Te132  1  0.83470408  0.82749652  0.16613239  1
  Te  Te133  1  0.83295772  0.83399830  0.50035921  1
  Te  Te134  1  0.84016835  0.83591426  0.83337162  1
  Te  Te135  1  0.16195724  0.00442085  -0.00574638  1
  Te  Te136  1  0.16532109  0.00499752  0.33445627  1
  Te  Te137  1  0.16621363  -0.00041685  0.66847770  1
  Te  Te138  1  0.16625816  0.33153400  0.00116491  1
  Te  Te139  1  0.16864442  0.32710952  0.33017007  1
  Te  Te140  1  0.16059624  0.33322132  0.66997990  1
  Te  Te141  1  0.16594913  0.66291247  -0.00345777  1
  Te  Te142  1  0.15887959  0.66619837  0.33680500  1
  Te  Te143  1  0.16071818  0.66646451  0.66547638  1
  Te  Te144  1  0.50086366  0.00412343  -0.00645902  1
  Te  Te145  1  0.49933886  -0.00010362  0.33381450  1
  Te  Te146  1  0.50114503  -0.00555596  0.67070783  1
  Te  Te147  1  0.50187991  0.33278417  -0.00392342  1
  Te  Te148  1  0.50064398  0.33379396  0.33153083  1
  Te  Te149  1  0.50098736  0.33439913  0.66772761  1
  Te  Te150  1  0.50551541  0.66283863  -0.00133800  1
  Te  Te151  1  0.50073464  0.66799998  0.33460346  1
  Te  Te152  1  0.50283627  0.67082259  0.66662254  1
  Te  Te153  1  0.83899106  0.00934685  -0.00264806  1
  Te  Te154  1  0.83549990  0.00079649  0.33664965  1
  Te  Te155  1  0.83215466  0.00031878  0.65749082  1
  Te  Te156  1  0.83464920  0.32956873  0.00076000  1
  Te  Te157  1  0.83516080  0.33287831  0.33161926  1
  Te  Te158  1  0.83689569  0.33987681  0.66614765  1
  Te  Te159  1  0.82869921  0.66606741  0.00231578  1
  Te  Te160  1  0.83645779  0.66806156  0.33341358  1
  Te  Te161  1  0.83624562  0.66078461  0.66731709  1
  Te  Te162  1  0.00191757  0.16874153  0.00401985  1
  Te  Te163  1  -0.00038468  0.16410880  0.32819403  1
  Te  Te164  1  -0.00085557  0.17062321  0.66556204  1
  Te  Te165  1  0.00374079  0.49590120  -0.00253143  1
  Te  Te166  1  -0.00273485  0.50241767  0.33627404  1
  Te  Te167  1  -0.00223103  0.50055084  0.66650221  1
  Te  Te168  1  -0.00007624  0.83657572  0.00163708  1
  Te  Te169  1  0.00077961  0.83615129  0.32978079  1
  Te  Te170  1  -0.00059669  0.82852093  0.67132346  1
  Te  Te171  1  0.33710919  0.16614243  0.00369767  1
  Te  Te172  1  0.33571399  0.16750228  0.33111577  1
  Te  Te173  1  0.33354256  0.16660471  0.67418142  1
  Te  Te174  1  0.33657254  0.49959069  0.00451490  1
  Te  Te175  1  0.33338079  0.49915436  0.33274705  1
  Te  Te176  1  0.33573560  0.49998864  0.65734422  1
  Te  Te177  1  0.33372358  0.83445526  0.00863007  1
  Te  Te178  1  0.33559087  0.83151008  0.33247904  1
  Te  Te179  1  0.34033993  0.83296798  0.66388802  1
  Te  Te180  1  0.65972491  0.16563581  0.01080839  1
  Te  Te181  1  0.66596953  0.16759449  0.32852676  1
  Te  Te182  1  0.66718702  0.16566362  0.66864638  1
  Te  Te183  1  0.66208935  0.50284090  0.00588630  1
  Te  Te184  1  0.66588721  0.49818299  0.32828274  1
  Te  Te185  1  0.67408064  0.50589607  0.66865615  1
  Te  Te186  1  0.66730233  0.82917175  0.00723128  1
  Te  Te187  1  0.66114850  0.83361985  0.32776786  1
  Te  Te188  1  0.66181094  0.82744220  0.66790251  1
  Te  Te189  1  -0.00028572  -0.00067499  0.16747025  1
  Te  Te190  1  0.00236878  -0.00119094  0.49580021  1
  Te  Te191  1  0.00289466  -0.00146481  0.83171706  1
  Te  Te192  1  -0.00081957  0.33036191  0.16397856  1
  Te  Te193  1  -0.00313941  0.33777762  0.50219216  1
  Te  Te194  1  0.00144756  0.33382607  0.83592969  1
  Te  Te195  1  -0.00531751  0.66776830  0.17013670  1
  Te  Te196  1  -0.00034661  0.66617118  0.49881666  1
  Te  Te197  1  0.00294569  0.66542585  0.83553829  1
  Te  Te198  1  0.33247498  -0.00296890  0.17261631  1
  Te  Te199  1  0.32962806  -0.00319008  0.49401667  1
  Te  Te200  1  0.33186292  0.00279148  0.83281864  1
  Te  Te201  1  0.33045967  0.33311407  0.17236837  1
  Te  Te202  1  0.33321571  0.33763239  0.49540534  1
  Te  Te203  1  0.33457952  0.32963854  0.83021254  1
  Te  Te204  1  0.33145496  0.66822078  0.16660007  1
  Te  Te205  1  0.33004139  0.66561613  0.50038295  1
  Te  Te206  1  0.32350181  0.66724471  0.83278264  1
  Te  Te207  1  0.66744950  -0.00490478  0.17210287  1
  Te  Te208  1  0.67035367  -0.00098219  0.49237884  1
  Te  Te209  1  0.66357737  -0.00025384  0.83268716  1
  Te  Te210  1  0.67214581  0.33405942  0.17089980  1
  Te  Te211  1  0.66793671  0.33403742  0.49451768  1
  Te  Te212  1  0.66129899  0.33341580  0.83094489  1
  Te  Te213  1  0.67162306  0.66445116  0.16553256  1
  Te  Te214  1  0.67251054  0.66705009  0.50555241  1
  Te  Te215  1  0.66684695  0.66680398  0.83377807  1
