# generated using pymatgen
data_AgSbTe2
_symmetry_space_group_name_H-M   'P 1'
_cell_length_a   18.32440110
_cell_length_b   18.31724325
_cell_length_c   18.32590880
_cell_angle_alpha   90.00295894
_cell_angle_beta   90.00133799
_cell_angle_gamma   90.00000739
_symmetry_Int_Tables_number   1
_chemical_formula_structural   AgSbTe2
_chemical_formula_sum   'Ag54 Sb54 Te108'
_cell_volume   6151.13732206
_cell_formula_units_Z   54
loop_
 _symmetry_equiv_pos_site_id
 _symmetry_equiv_pos_as_xyz
  1  'x, y, z'
loop_
 _atom_site_type_symbol
 _atom_site_label
 _atom_site_symmetry_multiplicity
 _atom_site_fract_x
 _atom_site_fract_y
 _atom_site_fract_z
 _atom_site_occupancy
  Ag  Ag0  1  0.83391336  0.17217155  0.66929276  1
  Ag  Ag1  1  0.50499208  0.32781647  0.17107287  1
  Ag  Ag2  1  0.49093199  0.84033284  0.66370284  1
  Ag  Ag3  1  0.49170144  0.67703979  0.50317588  1
  Ag  Ag4  1  -0.00453670  0.32372457  -0.00468107  1
  Ag  Ag5  1  0.15407896  0.16707245  0.00133307  1
  Ag  Ag6  1  0.50075958  0.16438170  0.66449654  1
  Ag  Ag7  1  0.66131201  0.00531058  0.00278920  1
  Ag  Ag8  1  0.17880216  0.83188160  0.66482249  1
  Ag  Ag9  1  0.33855649  -0.00385019  0.34566170  1
  Ag  Ag10  1  0.83380964  0.83976200  0.66523156  1
  Ag  Ag11  1  0.84192252  0.17084782  -0.00291480  1
  Ag  Ag12  1  0.00069657  0.84158358  0.16076776  1
  Ag  Ag13  1  0.49548694  0.67185293  0.82470166  1
  Ag  Ag14  1  0.66823615  0.33132091  0.66125448  1
  Ag  Ag15  1  0.33679101  -0.01016004  0.66341064  1
  Ag  Ag16  1  0.33375524  0.33423072  0.66487728  1
  Ag  Ag17  1  0.65411296  0.83464535  0.50257163  1
  Ag  Ag18  1  0.83718782  0.48842790  0.00078080  1
  Ag  Ag19  1  0.50240812  0.16653676  0.33750481  1
  Ag  Ag20  1  0.83255171  0.49623856  0.33279370  1
  Ag  Ag21  1  0.17481142  0.67025225  0.50242620  1
  Ag  Ag22  1  0.33469128  0.66987228  0.34560550  1
  Ag  Ag23  1  0.00454018  0.83917034  0.83229371  1
  Ag  Ag24  1  0.16791463  0.33158908  0.50463424  1
  Ag  Ag25  1  0.17628815  -0.00087120  0.50033211  1
  Ag  Ag26  1  0.00364917  0.01215130  -0.00008695  1
  Ag  Ag27  1  0.49509405  -0.00097751  0.50519188  1
  Ag  Ag28  1  0.33265882  0.00267997  -0.00248329  1
  Ag  Ag29  1  0.33633022  0.83431443  0.50843095  1
  Ag  Ag30  1  0.33460380  0.67765392  0.66189879  1
  Ag  Ag31  1  0.83182060  0.33319152  0.50451096  1
  Ag  Ag32  1  0.83054305  0.33046734  0.15908878  1
  Ag  Ag33  1  0.33620008  0.50423061  0.83148655  1
  Ag  Ag34  1  0.49668189  0.66347882  0.17173350  1
  Ag  Ag35  1  -0.00249786  0.16512678  0.84225170  1
  Ag  Ag36  1  0.00345916  0.66800070  0.33710200  1
  Ag  Ag37  1  0.16541089  0.49335518  -0.00495178  1
  Ag  Ag38  1  0.33386286  0.83269003  0.82191928  1
  Ag  Ag39  1  0.33418309  0.50034327  0.16262043  1
  Ag  Ag40  1  -0.00511980  0.32795562  0.66736082  1
  Ag  Ag41  1  0.66298173  0.49625347  0.83319268  1
  Ag  Ag42  1  0.83536847  0.33163379  0.83210434  1
  Ag  Ag43  1  0.49706055  -0.00094698  0.82337288  1
  Ag  Ag44  1  0.83422256  0.66420045  0.50068975  1
  Ag  Ag45  1  0.65889394  0.00999662  0.33280595  1
  Ag  Ag46  1  0.50182133  0.32733043  0.50354010  1
  Ag  Ag47  1  0.66676304  0.32913795  0.33894937  1
  Ag  Ag48  1  -0.00493863  0.16482955  0.15600504  1
  Ag  Ag49  1  0.17090466  0.49910269  0.66810643  1
  Ag  Ag50  1  0.50214083  0.16389367  0.00053234  1
  Ag  Ag51  1  -0.00014054  0.16909617  0.50249675  1
  Ag  Ag52  1  0.16635750  0.00119875  0.16362120  1
  Ag  Ag53  1  0.66663842  0.16806813  0.16453719  1
  Sb  Sb54  1  0.66469477  0.66899363  -0.00048900  1
  Sb  Sb55  1  0.33309747  0.50532972  0.50410647  1
  Sb  Sb56  1  0.49959380  0.49434734  -0.00093246  1
  Sb  Sb57  1  0.17214587  0.00022684  0.83236829  1
  Sb  Sb58  1  0.66237140  0.66518366  0.33687354  1
  Sb  Sb59  1  0.16732198  0.83357647  0.33981115  1
  Sb  Sb60  1  0.16623639  0.32984478  0.16875186  1
  Sb  Sb61  1  0.16637510  0.16709333  0.66786500  1
  Sb  Sb62  1  0.00532163  0.00382691  0.67002710  1
  Sb  Sb63  1  0.50309536  0.32983652  0.83023001  1
  Sb  Sb64  1  0.00477788  0.66596897  0.66222741  1
  Sb  Sb65  1  0.66388305  0.49194516  0.16291227  1
  Sb  Sb66  1  0.16684578  0.83639081  -0.00520075  1
  Sb  Sb67  1  0.67032057  0.16989707  0.83649714  1
  Sb  Sb68  1  -0.00034395  0.49555350  0.50092641  1
  Sb  Sb69  1  0.33012947  0.33016975  -0.00399425  1
  Sb  Sb70  1  0.17031862  0.16513712  0.33172349  1
  Sb  Sb71  1  -0.00657569  0.33470670  0.33519896  1
  Sb  Sb72  1  0.50217047  0.49569165  0.33303487  1
  Sb  Sb73  1  0.00392684  0.83645696  0.50437097  1
  Sb  Sb74  1  0.49924548  0.83891509  0.34119089  1
  Sb  Sb75  1  0.33433727  0.66816809  -0.00360766  1
  Sb  Sb76  1  0.83447934  0.82925898  0.33948879  1
  Sb  Sb77  1  0.83049408  0.66056296  0.17172819  1
  Sb  Sb78  1  0.00067510  0.49755763  0.83303701  1
  Sb  Sb79  1  0.66604433  0.16588912  0.49751426  1
  Sb  Sb80  1  0.49467771  0.00330091  0.16930828  1
  Sb  Sb81  1  0.33353465  0.16047156  0.50205576  1
  Sb  Sb82  1  0.83022726  0.66240416  0.82736065  1
  Sb  Sb83  1  0.83110613  0.00275465  0.50100696  1
  Sb  Sb84  1  0.83753729  0.00730316  0.16516455  1
  Sb  Sb85  1  0.33097281  0.83275146  0.16700838  1
  Sb  Sb86  1  0.49334754  0.49847232  0.66762766  1
  Sb  Sb87  1  0.66047595  0.66363838  0.66460585  1
  Sb  Sb88  1  0.17231729  0.66651764  0.82702232  1
  Sb  Sb89  1  0.33164950  0.16500133  0.83169393  1
  Sb  Sb90  1  0.82861058  0.17212884  0.33297644  1
  Sb  Sb91  1  0.16567948  0.50035234  0.33569873  1
  Sb  Sb92  1  0.49906580  0.84069134  -0.00657133  1
  Sb  Sb93  1  0.16232489  0.33306394  0.82762925  1
  Sb  Sb94  1  0.66347468  0.83280238  0.82614575  1
  Sb  Sb95  1  0.83477271  0.83797291  -0.00525788  1
  Sb  Sb96  1  0.00063923  0.66615486  0.00274981  1
  Sb  Sb97  1  0.66816984  0.84036995  0.17207773  1
  Sb  Sb98  1  0.00154632  -0.00194051  0.33040840  1
  Sb  Sb99  1  0.33978592  0.33303589  0.33885011  1
  Sb  Sb100  1  0.83654530  0.49343624  0.66679624  1
  Sb  Sb101  1  0.67283575  0.32700004  -0.00022653  1
  Sb  Sb102  1  0.16980843  0.66975797  0.17113415  1
  Sb  Sb103  1  0.65921243  0.00434710  0.66528748  1
  Sb  Sb104  1  0.33553971  0.16856678  0.16497045  1
  Sb  Sb105  1  0.00290809  0.49652689  0.16605324  1
  Sb  Sb106  1  0.83062982  0.00574528  0.83256938  1
  Sb  Sb107  1  0.66698499  0.49847286  0.50409734  1
  Te  Te108  1  0.16387917  0.16303170  0.16276084  1
  Te  Te109  1  0.16337586  0.16661130  0.49959712  1
  Te  Te110  1  0.15959577  0.16646701  0.84068583  1
  Te  Te111  1  0.17142342  0.50001803  0.16363202  1
  Te  Te112  1  0.16635044  0.49932859  0.50335062  1
  Te  Te113  1  0.17114579  0.49984293  0.83430071  1
  Te  Te114  1  0.16189072  0.83793053  0.16430975  1
  Te  Te115  1  0.16904026  0.83438526  0.50514783  1
  Te  Te116  1  0.16762926  0.83323571  0.82734907  1
  Te  Te117  1  0.50223938  0.16837643  0.16606386  1
  Te  Te118  1  0.49985200  0.16677384  0.50276813  1
  Te  Te119  1  0.50096236  0.16194974  0.83038915  1
  Te  Te120  1  0.49634987  0.49939596  0.16548100  1
  Te  Te121  1  0.50109278  0.49475623  0.49955659  1
  Te  Te122  1  0.49864036  0.50288008  0.83437072  1
  Te  Te123  1  0.50098764  0.82671093  0.16648235  1
  Te  Te124  1  0.49736000  0.83527169  0.50304543  1
  Te  Te125  1  0.49760708  0.83382881  0.82716709  1
  Te  Te126  1  0.83279181  0.17136280  0.16564601  1
  Te  Te127  1  0.83567198  0.17022644  0.50304916  1
  Te  Te128  1  0.83651175  0.17087410  0.83128373  1
  Te  Te129  1  0.83343069  0.49359254  0.16495938  1
  Te  Te130  1  0.83307072  0.49867748  0.49726143  1
  Te  Te131  1  0.83193725  0.49569219  0.83741318  1
  Te  Te132  1  0.83866428  0.83086567  0.16546361  1
  Te  Te133  1  0.83620413  0.83207341  0.50574802  1
  Te  Te134  1  0.83379688  0.83183581  0.82672161  1
  Te  Te135  1  0.16568424  0.00142636  -0.00023246  1
  Te  Te136  1  0.17141945  -0.00064909  0.33657187  1
  Te  Te137  1  0.17268235  -0.00216076  0.66339366  1
  Te  Te138  1  0.16229086  0.33208266  0.00116480  1
  Te  Te139  1  0.16698485  0.33390707  0.34259599  1
  Te  Te140  1  0.16766491  0.33301886  0.66327942  1
  Te  Te141  1  0.16645748  0.65900925  0.00121099  1
  Te  Te142  1  0.16914555  0.66640106  0.33934071  1
  Te  Te143  1  0.17029581  0.66646317  0.66191568  1
  Te  Te144  1  0.49818536  0.00352795  0.00304256  1
  Te  Te145  1  0.49924617  0.00440643  0.33498958  1
  Te  Te146  1  0.49818694  0.00164091  0.66490751  1
  Te  Te147  1  0.49947190  0.32647257  0.00238392  1
  Te  Te148  1  0.50429660  0.32876335  0.33400891  1
  Te  Te149  1  0.50134280  0.33146482  0.66562173  1
  Te  Te150  1  0.50049885  0.66720832  -0.00043849  1
  Te  Te151  1  0.49550942  0.66590509  0.33739734  1
  Te  Te152  1  0.49581985  0.66591942  0.66435061  1
  Te  Te153  1  0.83649782  0.00599769  -0.00084372  1
  Te  Te154  1  0.82660988  -0.00124678  0.33314950  1
  Te  Te155  1  0.83226834  0.00336204  0.66671853  1
  Te  Te156  1  0.83382647  0.33127065  0.00002789  1
  Te  Te157  1  0.82888332  0.33619526  0.33886494  1
  Te  Te158  1  0.83508309  0.33277736  0.66531487  1
  Te  Te159  1  0.83240799  0.66222498  -0.00017284  1
  Te  Te160  1  0.83321794  0.66157355  0.33831526  1
  Te  Te161  1  0.83359970  0.66462775  0.66132473  1
  Te  Te162  1  -0.00211971  0.16786715  -0.00008457  1
  Te  Te163  1  0.00057893  0.16528560  0.33588310  1
  Te  Te164  1  -0.00067646  0.16893009  0.66440261  1
  Te  Te165  1  0.00072781  0.49833120  -0.00003221  1
  Te  Te166  1  -0.00447181  0.50641589  0.33254584  1
  Te  Te167  1  0.00928342  0.49363131  0.66803398  1
  Te  Te168  1  -0.00048478  0.83448057  -0.00189304  1
  Te  Te169  1  -0.00005175  0.82962953  0.32835157  1
  Te  Te170  1  -0.00461468  0.83394900  0.67157191  1
  Te  Te171  1  0.33926357  0.16251314  -0.00148998  1
  Te  Te172  1  0.34030050  0.16132836  0.33292894  1
  Te  Te173  1  0.33688121  0.17357314  0.66748284  1
  Te  Te174  1  0.33066082  0.49903319  -0.00266865  1
  Te  Te175  1  0.33324800  0.50430505  0.32788904  1
  Te  Te176  1  0.32919320  0.49486249  0.66979287  1
  Te  Te177  1  0.33245047  0.84039757  -0.00425804  1
  Te  Te178  1  0.33295068  0.83362614  0.33481369  1
  Te  Te179  1  0.33515484  0.83350438  0.66671853  1
  Te  Te180  1  0.66339365  0.16331948  0.00256152  1
  Te  Te181  1  0.66335487  0.16805797  0.33021005  1
  Te  Te182  1  0.66761833  0.17108179  0.66797775  1
  Te  Te183  1  0.67104885  0.50048988  -0.00481486  1
  Te  Te184  1  0.67236359  0.49429606  0.33213001  1
  Te  Te185  1  0.66765657  0.49334787  0.67211904  1
  Te  Te186  1  0.66821490  0.84271394  0.00066709  1
  Te  Te187  1  0.66837803  0.83734024  0.34016517  1
  Te  Te188  1  0.67074149  0.83303928  0.66161852  1
  Te  Te189  1  0.00370230  0.00196680  0.16488172  1
  Te  Te190  1  0.00290271  0.00519379  0.49916914  1
  Te  Te191  1  -0.00131075  0.00032681  0.83726252  1
  Te  Te192  1  -0.00236519  0.32859179  0.16590631  1
  Te  Te193  1  -0.00199784  0.33015126  0.50083946  1
  Te  Te194  1  -0.00381809  0.33183043  0.83301066  1
  Te  Te195  1  0.00014775  0.66930312  0.17274072  1
  Te  Te196  1  -0.00215547  0.66790692  0.49663012  1
  Te  Te197  1  -0.00088195  0.67378590  0.83302969  1
  Te  Te198  1  0.32716115  -0.00023331  0.16198921  1
  Te  Te199  1  0.33394731  -0.00251489  0.50205926  1
  Te  Te200  1  0.33696325  -0.00127961  0.83179015  1
  Te  Te201  1  0.33633448  0.33845154  0.16771355  1
  Te  Te202  1  0.33520426  0.33480182  0.50311147  1
  Te  Te203  1  0.33403297  0.33794852  0.82816541  1
  Te  Te204  1  0.33729803  0.66510458  0.16549520  1
  Te  Te205  1  0.33359702  0.66823782  0.50157028  1
  Te  Te206  1  0.33727579  0.66734088  0.83015334  1
  Te  Te207  1  0.66665023  0.00457937  0.16789412  1
  Te  Te208  1  0.66308664  -0.00355717  0.49725865  1
  Te  Te209  1  0.65902522  -0.00029812  0.83844429  1
  Te  Te210  1  0.66573145  0.32904353  0.16750459  1
  Te  Te211  1  0.66501024  0.33300466  0.50047939  1
  Te  Te212  1  0.67089884  0.33626559  0.82966040  1
  Te  Te213  1  0.65924306  0.66785941  0.16794601  1
  Te  Te214  1  0.66804613  0.67057465  0.49927157  1
  Te  Te215  1  0.66011424  0.66141170  0.83332412  1
