# generated using pymatgen
data_AgSbTe2
_symmetry_space_group_name_H-M   'P 1'
_cell_length_a   18.31533496
_cell_length_b   18.31149934
_cell_length_c   18.31091729
_cell_angle_alpha   90.00105067
_cell_angle_beta   90.00119506
_cell_angle_gamma   89.99962200
_symmetry_Int_Tables_number   1
_chemical_formula_structural   AgSbTe2
_chemical_formula_sum   'Ag54 Sb54 Te108'
_cell_volume   6141.13821869
_cell_formula_units_Z   54
loop_
 _symmetry_equiv_pos_site_id
 _symmetry_equiv_pos_as_xyz
  1  'x, y, z'
loop_
 _atom_site_type_symbol
 _atom_site_label
 _atom_site_symmetry_multiplicity
 _atom_site_fract_x
 _atom_site_fract_y
 _atom_site_fract_z
 _atom_site_occupancy
  Ag  Ag0  1  0.66516146  0.33520137  0.65656982  1
  Ag  Ag1  1  0.66356678  0.16528082  0.16868849  1
  Ag  Ag2  1  0.33447292  0.65764123  0.00046490  1
  Ag  Ag3  1  0.66570659  0.32986082  0.33873469  1
  Ag  Ag4  1  0.16336213  0.49538205  0.34088072  1
  Ag  Ag5  1  0.33802395  0.33416253  0.00289586  1
  Ag  Ag6  1  0.16472968  0.49454158  0.65647447  1
  Ag  Ag7  1  0.83619246  0.49497743  0.66053926  1
  Ag  Ag8  1  0.16614843  0.00308979  0.83243556  1
  Ag  Ag9  1  0.17556000  -0.00297771  0.16889907  1
  Ag  Ag10  1  0.00058897  0.66482978  0.66779351  1
  Ag  Ag11  1  0.49588576  0.00297353  0.16945547  1
  Ag  Ag12  1  0.33177503  0.00412741  0.65836374  1
  Ag  Ag13  1  0.65800169  0.66431913  0.00154082  1
  Ag  Ag14  1  0.16689255  0.16758771  0.66547293  1
  Ag  Ag15  1  0.00597485  0.34111459  0.00273307  1
  Ag  Ag16  1  0.49461081  0.84260573  0.33171791  1
  Ag  Ag17  1  0.33762981  0.00596338  0.33727830  1
  Ag  Ag18  1  0.49694095  0.16833785  0.00102714  1
  Ag  Ag19  1  0.33261665  0.49084562  0.50083355  1
  Ag  Ag20  1  0.49876366  0.49520038  0.65781098  1
  Ag  Ag21  1  0.49834818  0.65398834  0.49877854  1
  Ag  Ag22  1  0.65517422  0.00015347  0.00556020  1
  Ag  Ag23  1  0.83121223  0.33557354  0.49729191  1
  Ag  Ag24  1  -0.00156461  0.33561896  0.33615313  1
  Ag  Ag25  1  0.49710179  0.33296343  0.84010790  1
  Ag  Ag26  1  0.83109044  0.17473574  0.34165363  1
  Ag  Ag27  1  0.33777051  0.00443765  0.00262235  1
  Ag  Ag28  1  0.00447034  0.83340380  0.16725600  1
  Ag  Ag29  1  0.83895397  0.49139750  0.34500598  1
  Ag  Ag30  1  0.17072616  0.33784155  0.49732310  1
  Ag  Ag31  1  0.16798580  0.83565055  0.33303501  1
  Ag  Ag32  1  0.49185282  0.00266619  0.48939530  1
  Ag  Ag33  1  0.83805351  0.83694385  0.66613896  1
  Ag  Ag34  1  0.83811533  0.17065833  0.66339161  1
  Ag  Ag35  1  0.00265699  0.49850223  0.50128351  1
  Ag  Ag36  1  0.17422413  0.00637732  0.49948260  1
  Ag  Ag37  1  0.65670160  0.00757752  0.33030100  1
  Ag  Ag38  1  0.49598448  0.49491525  -0.00257324  1
  Ag  Ag39  1  0.49897581  0.84119496  0.00452808  1
  Ag  Ag40  1  0.00035427  0.83864085  0.83313007  1
  Ag  Ag41  1  0.32963605  0.16553018  0.82922943  1
  Ag  Ag42  1  0.83565842  0.49847468  -0.00208364  1
  Ag  Ag43  1  0.00351181  0.66103369  -0.00252840  1
  Ag  Ag44  1  0.16738993  0.49938066  0.00048231  1
  Ag  Ag45  1  0.33224345  0.16948523  0.50298552  1
  Ag  Ag46  1  0.66486379  0.49368844  0.50030987  1
  Ag  Ag47  1  0.49728453  0.33409468  0.49758124  1
  Ag  Ag48  1  0.49959744  0.32770721  0.16637074  1
  Ag  Ag49  1  0.00481252  0.16394015  0.83269473  1
  Ag  Ag50  1  0.16539774  0.66811666  0.16465003  1
  Ag  Ag51  1  0.33579975  0.32914282  0.34113434  1
  Ag  Ag52  1  0.84011476  0.00238787  0.83185459  1
  Ag  Ag53  1  0.00150664  0.82844363  0.50099524  1
  Sb  Sb54  1  0.17316292  0.16879567  -0.00470602  1
  Sb  Sb55  1  0.83321078  0.00664267  0.50306705  1
  Sb  Sb56  1  0.00353265  -0.00082131  -0.00224636  1
  Sb  Sb57  1  0.00124083  0.49747063  0.83161892  1
  Sb  Sb58  1  0.33297979  0.49797666  0.16764985  1
  Sb  Sb59  1  0.32895619  0.83655783  0.16707923  1
  Sb  Sb60  1  0.16912325  0.66227281  0.49664398  1
  Sb  Sb61  1  0.50280406  0.16534378  0.32920722  1
  Sb  Sb62  1  0.66319947  0.00622373  0.66476910  1
  Sb  Sb63  1  0.49770030  0.49612159  0.33711504  1
  Sb  Sb64  1  0.16964140  0.32885211  0.82963522  1
  Sb  Sb65  1  0.66042871  0.17386923  0.49594971  1
  Sb  Sb66  1  0.00181256  0.50121969  0.16834016  1
  Sb  Sb67  1  0.50328304  0.83137091  0.66433296  1
  Sb  Sb68  1  0.83260450  0.83111854  -0.00405112  1
  Sb  Sb69  1  0.33231729  0.66494348  0.33213526  1
  Sb  Sb70  1  -0.00184251  0.33699914  0.66285560  1
  Sb  Sb71  1  0.66497510  0.16716570  0.83615888  1
  Sb  Sb72  1  0.16499951  0.67042001  0.83761785  1
  Sb  Sb73  1  0.83069577  0.00118790  0.16378455  1
  Sb  Sb74  1  0.66472064  0.49456152  0.16949797  1
  Sb  Sb75  1  0.49730331  0.17301507  0.66867982  1
  Sb  Sb76  1  0.66894467  0.83104863  0.49853584  1
  Sb  Sb77  1  0.00312258  0.00355221  0.33470464  1
  Sb  Sb78  1  0.49515538  0.66878648  0.16591650  1
  Sb  Sb79  1  0.00473046  0.17097917  0.50402550  1
  Sb  Sb80  1  0.83289070  0.65667455  0.50135374  1
  Sb  Sb81  1  0.66983175  0.65923712  0.66822929  1
  Sb  Sb82  1  0.66985873  0.83585392  0.83448510  1
  Sb  Sb83  1  0.83598587  0.66875032  0.83259597  1
  Sb  Sb84  1  0.16895354  0.83104617  0.00572744  1
  Sb  Sb85  1  0.32959717  0.66627680  0.66857136  1
  Sb  Sb86  1  -0.00194897  0.16455028  0.16395227  1
  Sb  Sb87  1  0.49902602  0.66184459  0.83398142  1
  Sb  Sb88  1  0.66404420  0.66304706  0.33113280  1
  Sb  Sb89  1  0.83687827  0.83480132  0.33913277  1
  Sb  Sb90  1  0.33724024  0.16516501  0.16765793  1
  Sb  Sb91  1  0.66781210  0.83824492  0.16709684  1
  Sb  Sb92  1  0.00506718  -0.00206615  0.66727740  1
  Sb  Sb93  1  0.33329954  0.49217304  0.83209568  1
  Sb  Sb94  1  0.83016851  0.17053352  -0.00217955  1
  Sb  Sb95  1  0.32751922  0.84274910  0.83609002  1
  Sb  Sb96  1  0.66631894  0.49722561  0.83096749  1
  Sb  Sb97  1  0.32928305  0.83774963  0.49839565  1
  Sb  Sb98  1  0.00196219  0.66162886  0.33378216  1
  Sb  Sb99  1  0.83859756  0.66585878  0.16401906  1
  Sb  Sb100  1  0.16619061  0.16805355  0.33914199  1
  Sb  Sb101  1  0.33610365  0.32935539  0.66148049  1
  Sb  Sb102  1  0.66121132  0.33368667  0.00250422  1
  Sb  Sb103  1  0.49618102  0.00517156  0.83814564  1
  Sb  Sb104  1  0.83203994  0.32995285  0.82857009  1
  Sb  Sb105  1  0.82897732  0.33371865  0.17374013  1
  Sb  Sb106  1  0.17112864  0.33237775  0.17037558  1
  Sb  Sb107  1  0.16078512  0.83526420  0.66179180  1
  Te  Te108  1  0.16511122  0.15833285  0.16635032  1
  Te  Te109  1  0.16978029  0.16580176  0.50518523  1
  Te  Te110  1  0.16714649  0.16303018  0.82844393  1
  Te  Te111  1  0.16740337  0.50090994  0.16410452  1
  Te  Te112  1  0.16525971  0.49994370  0.49888319  1
  Te  Te113  1  0.16704751  0.49945612  0.83651901  1
  Te  Te114  1  0.16331440  0.83648213  0.17142247  1
  Te  Te115  1  0.16254551  0.83261474  0.49447390  1
  Te  Te116  1  0.16006554  0.84101130  0.83204278  1
  Te  Te117  1  0.50234472  0.16499942  0.16171205  1
  Te  Te118  1  0.49395825  0.16768180  0.50249330  1
  Te  Te119  1  0.49575395  0.17190926  0.83731989  1
  Te  Te120  1  0.49976264  0.49836687  0.16177750  1
  Te  Te121  1  0.49930323  0.49644840  0.49828949  1
  Te  Te122  1  0.49951463  0.49410635  0.83424724  1
  Te  Te123  1  0.50124511  0.83672876  0.16601855  1
  Te  Te124  1  0.50072074  0.83982751  0.49809123  1
  Te  Te125  1  0.49982299  0.83187348  0.83663329  1
  Te  Te126  1  0.82809927  0.16627163  0.17029543  1
  Te  Te127  1  0.83534739  0.17296430  0.50226777  1
  Te  Te128  1  0.83617366  0.16272879  0.82988661  1
  Te  Te129  1  0.83283617  0.49999720  0.16041804  1
  Te  Te130  1  0.83551776  0.49622538  0.50111572  1
  Te  Te131  1  0.83348546  0.49915448  0.83360172  1
  Te  Te132  1  0.84323739  0.83357829  0.16860794  1
  Te  Te133  1  0.83905499  0.83368028  0.50477945  1
  Te  Te134  1  0.83838900  0.83893777  0.82831868  1
  Te  Te135  1  0.17140152  -0.00021787  0.00085989  1
  Te  Te136  1  0.16864535  0.00066772  0.33453705  1
  Te  Te137  1  0.17062947  0.00166558  0.66424130  1
  Te  Te138  1  0.16877416  0.33646161  0.00151000  1
  Te  Te139  1  0.16921952  0.33505930  0.33555654  1
  Te  Te140  1  0.16636422  0.33431674  0.66181692  1
  Te  Te141  1  0.16621206  0.66435555  0.00289545  1
  Te  Te142  1  0.16773742  0.66783613  0.32704599  1
  Te  Te143  1  0.16201436  0.66225597  0.66761645  1
  Te  Te144  1  0.49904823  0.00002463  -0.00012797  1
  Te  Te145  1  0.49888555  0.00090436  0.33163471  1
  Te  Te146  1  0.49501436  -0.00059880  0.66526577  1
  Te  Te147  1  0.50034198  0.33427439  0.00158911  1
  Te  Te148  1  0.49736327  0.33239556  0.33477747  1
  Te  Te149  1  0.50213927  0.33711447  0.66037602  1
  Te  Te150  1  0.49741625  0.66250097  0.00035701  1
  Te  Te151  1  0.49941240  0.67410302  0.33638320  1
  Te  Te152  1  0.49997410  0.66111032  0.66250994  1
  Te  Te153  1  0.83097090  0.00057177  -0.00538200  1
  Te  Te154  1  0.82977567  0.00445072  0.33361300  1
  Te  Te155  1  0.83045178  0.00396982  0.66963195  1
  Te  Te156  1  0.83335849  0.33765321  -0.00031182  1
  Te  Te157  1  0.83323308  0.33452810  0.33492851  1
  Te  Te158  1  0.83164903  0.33417274  0.66370002  1
  Te  Te159  1  0.83837619  0.66261090  -0.00123527  1
  Te  Te160  1  0.83189934  0.65927838  0.33253723  1
  Te  Te161  1  0.83760510  0.66175295  0.66679591  1
  Te  Te162  1  -0.00049300  0.17067474  -0.00423260  1
  Te  Te163  1  -0.00651972  0.17387868  0.33269121  1
  Te  Te164  1  0.00072334  0.16775905  0.67135576  1
  Te  Te165  1  0.00192511  0.49986236  -0.00072751  1
  Te  Te166  1  0.00154619  0.49599233  0.33490946  1
  Te  Te167  1  0.00072399  0.50243774  0.66534532  1
  Te  Te168  1  -0.00027372  0.83041078  -0.00199150  1
  Te  Te169  1  0.00274433  0.83261320  0.33573415  1
  Te  Te170  1  -0.00318419  0.83032417  0.66565841  1
  Te  Te171  1  0.33677743  0.16753604  -0.00025940  1
  Te  Te172  1  0.33268571  0.16788080  0.33884611  1
  Te  Te173  1  0.33103331  0.16383590  0.66597262  1
  Te  Te174  1  0.33307938  0.49679190  -0.00104663  1
  Te  Te175  1  0.32921386  0.49700573  0.33774791  1
  Te  Te176  1  0.33201110  0.50132057  0.66336696  1
  Te  Te177  1  0.33833542  0.83772333  0.00014586  1
  Te  Te178  1  0.33276747  0.83637394  0.33368619  1
  Te  Te179  1  0.33390182  0.83895719  0.66775298  1
  Te  Te180  1  0.66285166  0.16353199  0.00389723  1
  Te  Te181  1  0.66979823  0.16751578  0.33190770  1
  Te  Te182  1  0.67254348  0.17280858  0.66739756  1
  Te  Te183  1  0.66665569  0.50224571  0.00097554  1
  Te  Te184  1  0.66874481  0.49600927  0.33751681  1
  Te  Te185  1  0.66687502  0.49675091  0.66333137  1
  Te  Te186  1  0.66324390  0.83475043  0.00086336  1
  Te  Te187  1  0.66488133  0.83692011  0.33307251  1
  Te  Te188  1  0.67561526  0.83216749  0.66660615  1
  Te  Te189  1  0.00296637  -0.00426159  0.16602335  1
  Te  Te190  1  0.00376337  -0.00266453  0.50029593  1
  Te  Te191  1  0.00189051  0.00174070  0.83314254  1
  Te  Te192  1  0.00116339  0.33193964  0.16463579  1
  Te  Te193  1  0.00218402  0.33662477  0.49716931  1
  Te  Te194  1  0.00061414  0.32762519  0.83981980  1
  Te  Te195  1  0.00539558  0.67082509  0.16345889  1
  Te  Te196  1  0.00011284  0.66396783  0.50253570  1
  Te  Te197  1  0.00030586  0.67179818  0.83428124  1
  Te  Te198  1  0.33532091  0.00065936  0.16672157  1
  Te  Te199  1  0.33314472  -0.00030906  0.49745693  1
  Te  Te200  1  0.32951822  0.00598435  0.83764925  1
  Te  Te201  1  0.33914808  0.33165500  0.16562473  1
  Te  Te202  1  0.33168000  0.33237033  0.50032360  1
  Te  Te203  1  0.33644655  0.32626865  0.83885123  1
  Te  Te204  1  0.32693038  0.66643273  0.15991942  1
  Te  Te205  1  0.33906665  0.66155920  0.50082387  1
  Te  Te206  1  0.33265832  0.66899951  0.84087120  1
  Te  Te207  1  0.66385822  0.00332419  0.16691611  1
  Te  Te208  1  0.66343612  0.00024789  0.49512341  1
  Te  Te209  1  0.66922375  0.00111137  0.83644226  1
  Te  Te210  1  0.66056811  0.32749375  0.17344011  1
  Te  Te211  1  0.66667341  0.33371959  0.49762552  1
  Te  Te212  1  0.65986001  0.33252778  0.82817117  1
  Te  Te213  1  0.66630776  0.66765579  0.16031111  1
  Te  Te214  1  0.65975494  0.66035754  0.50021405  1
  Te  Te215  1  0.66723009  0.66765622  0.84262273  1
