# generated using pymatgen
data_AgSbTe2
_symmetry_space_group_name_H-M   'P 1'
_cell_length_a   18.32477978
_cell_length_b   18.31863165
_cell_length_c   18.31674644
_cell_angle_alpha   90.00003216
_cell_angle_beta   90.00040215
_cell_angle_gamma   89.99799263
_symmetry_Int_Tables_number   1
_chemical_formula_structural   AgSbTe2
_chemical_formula_sum   'Ag54 Sb54 Te108'
_cell_volume   6148.65502945
_cell_formula_units_Z   54
loop_
 _symmetry_equiv_pos_site_id
 _symmetry_equiv_pos_as_xyz
  1  'x, y, z'
loop_
 _atom_site_type_symbol
 _atom_site_label
 _atom_site_symmetry_multiplicity
 _atom_site_fract_x
 _atom_site_fract_y
 _atom_site_fract_z
 _atom_site_occupancy
  Ag  Ag0  1  0.50600003  0.33154942  0.16273871  1
  Ag  Ag1  1  0.50998196  0.50531282  0.66547477  1
  Ag  Ag2  1  0.15808318  0.49540698  0.34352494  1
  Ag  Ag3  1  0.00213551  0.17261884  0.50026136  1
  Ag  Ag4  1  0.66533817  0.34704546  0.66738937  1
  Ag  Ag5  1  0.16494556  0.82659446  0.67193916  1
  Ag  Ag6  1  0.33344559  0.83317097  0.83237923  1
  Ag  Ag7  1  0.50656776  0.66371233  0.82709207  1
  Ag  Ag8  1  0.66685105  -0.00271257  0.34620384  1
  Ag  Ag9  1  0.82407454  0.16878696  -0.00110185  1
  Ag  Ag10  1  0.66734249  0.50382486  0.82261464  1
  Ag  Ag11  1  0.50299921  0.15862980  -0.00238920  1
  Ag  Ag12  1  0.32521247  0.33497483  0.33780818  1
  Ag  Ag13  1  0.66518908  0.16217248  0.50584171  1
  Ag  Ag14  1  0.66818335  0.49878472  0.50818157  1
  Ag  Ag15  1  0.66070684  0.00261720  -0.00299254  1
  Ag  Ag16  1  0.66475476  0.82664465  0.83287865  1
  Ag  Ag17  1  0.83477567  0.50293840  0.34043023  1
  Ag  Ag18  1  0.82240498  0.00330298  0.50091233  1
  Ag  Ag19  1  0.67268823  0.66477115  0.34187769  1
  Ag  Ag20  1  0.33465748  0.17158095  0.50139560  1
  Ag  Ag21  1  0.66537490  0.16616381  0.82873238  1
  Ag  Ag22  1  0.50531839  -0.00089520  0.50190447  1
  Ag  Ag23  1  0.33717820  -0.00632380  0.66786047  1
  Ag  Ag24  1  0.00507476  0.34281822  0.33644531  1
  Ag  Ag25  1  0.33790854  0.66623718  0.66636616  1
  Ag  Ag26  1  0.00386196  0.83070807  0.83160745  1
  Ag  Ag27  1  0.16533422  0.17691889  0.34057665  1
  Ag  Ag28  1  0.50368088  0.66387601  0.50913623  1
  Ag  Ag29  1  0.82796346  0.33831732  0.16744299  1
  Ag  Ag30  1  0.83210458  0.82176652  0.33354072  1
  Ag  Ag31  1  0.16634287  0.50382832  0.66130095  1
  Ag  Ag32  1  0.00089827  0.66572967  0.66304599  1
  Ag  Ag33  1  0.00092756  0.83115999  0.16335749  1
  Ag  Ag34  1  0.49767827  0.84142332  -0.00333124  1
  Ag  Ag35  1  0.32758299  0.49441306  0.50282040  1
  Ag  Ag36  1  0.50199095  0.33831740  0.83404934  1
  Ag  Ag37  1  0.16908913  0.16772431  -0.00025958  1
  Ag  Ag38  1  0.16687263  0.33587348  0.49956777  1
  Ag  Ag39  1  0.83186516  0.49778117  0.00022644  1
  Ag  Ag40  1  0.66291198  0.65979570  0.66689664  1
  Ag  Ag41  1  0.17031744  0.33746063  0.82847079  1
  Ag  Ag42  1  0.82202034  0.50354169  0.66269570  1
  Ag  Ag43  1  0.16327949  0.49990784  -0.00167380  1
  Ag  Ag44  1  0.82626625  0.66454260  0.82871804  1
  Ag  Ag45  1  0.34283749  -0.00043348  -0.00652570  1
  Ag  Ag46  1  0.00023946  0.49707332  0.49910991  1
  Ag  Ag47  1  0.50319577  0.00355044  0.15542199  1
  Ag  Ag48  1  0.16952923  0.83329380  -0.00946289  1
  Ag  Ag49  1  -0.00570332  0.66057612  0.34090853  1
  Ag  Ag50  1  0.66929179  0.49930417  0.16720508  1
  Ag  Ag51  1  0.66523728  -0.00187228  0.66382607  1
  Ag  Ag52  1  0.16476061  0.66426128  0.16691523  1
  Ag  Ag53  1  -0.00129339  -0.00825067  0.66402441  1
  Sb  Sb54  1  0.00008812  0.33424522  0.00453484  1
  Sb  Sb55  1  0.83532627  0.66163055  0.16759940  1
  Sb  Sb56  1  0.00055866  0.16345076  0.17108663  1
  Sb  Sb57  1  0.50281166  0.16858970  0.67014539  1
  Sb  Sb58  1  0.16736734  -0.00011553  0.83201809  1
  Sb  Sb59  1  0.16614615  0.33823471  0.17087257  1
  Sb  Sb60  1  0.33358159  0.16706484  0.16913029  1
  Sb  Sb61  1  0.33602886  0.33629241  0.66349105  1
  Sb  Sb62  1  0.66585871  0.33050633  -0.00599636  1
  Sb  Sb63  1  0.50628337  0.83475005  0.32931756  1
  Sb  Sb64  1  0.66599524  0.17006588  0.16659640  1
  Sb  Sb65  1  0.82911330  0.66539430  0.50257313  1
  Sb  Sb66  1  0.66807778  0.33601509  0.33759116  1
  Sb  Sb67  1  0.33186715  0.66148594  0.34209699  1
  Sb  Sb68  1  0.33553517  0.49872957  0.17166053  1
  Sb  Sb69  1  -0.00326271  0.16452603  0.82871612  1
  Sb  Sb70  1  0.82968399  0.16981912  0.66869188  1
  Sb  Sb71  1  0.32993043  0.83323026  0.15913809  1
  Sb  Sb72  1  0.83087600  0.33942698  0.83584815  1
  Sb  Sb73  1  0.82758695  0.00270507  0.16994986  1
  Sb  Sb74  1  0.66668323  0.66700815  -0.00705884  1
  Sb  Sb75  1  0.49866931  0.33432027  0.50217851  1
  Sb  Sb76  1  0.33856320  0.16373046  0.83031096  1
  Sb  Sb77  1  0.66671094  0.83303775  0.50691635  1
  Sb  Sb78  1  0.33315186  0.32951808  0.00257008  1
  Sb  Sb79  1  -0.00529779  -0.00223949  0.34060298  1
  Sb  Sb80  1  0.17082361  -0.00350335  0.16460439  1
  Sb  Sb81  1  -0.00112266  -0.00076053  -0.00410211  1
  Sb  Sb82  1  0.00063980  0.66605279  -0.00150142  1
  Sb  Sb83  1  0.49849023  0.16812915  0.33276141  1
  Sb  Sb84  1  0.16893941  0.00662178  0.50152686  1
  Sb  Sb85  1  0.50411820  0.49959433  0.34048738  1
  Sb  Sb86  1  0.33600047  0.50412300  0.82630919  1
  Sb  Sb87  1  0.50159516  0.49960690  -0.00534729  1
  Sb  Sb88  1  -0.00260121  0.50326872  0.17414302  1
  Sb  Sb89  1  0.50328968  -0.00339703  0.83238786  1
  Sb  Sb90  1  0.33828979  0.00362770  0.33683416  1
  Sb  Sb91  1  0.82860940  -0.00501591  0.82802050  1
  Sb  Sb92  1  0.83499289  0.82817205  0.66445721  1
  Sb  Sb93  1  -0.00197851  0.33825965  0.66208642  1
  Sb  Sb94  1  0.33373031  0.83268430  0.50817231  1
  Sb  Sb95  1  0.16836109  0.65833747  0.50141200  1
  Sb  Sb96  1  0.49946367  0.66572681  0.16600579  1
  Sb  Sb97  1  -0.00336853  0.50429665  0.82598678  1
  Sb  Sb98  1  0.16632327  0.66489770  0.83187691  1
  Sb  Sb99  1  0.83554136  0.33401697  0.49707791  1
  Sb  Sb100  1  0.49854998  0.82796021  0.67401418  1
  Sb  Sb101  1  0.67007711  0.82996483  0.16302681  1
  Sb  Sb102  1  0.83565625  0.17061472  0.33309132  1
  Sb  Sb103  1  0.16060040  0.82940370  0.33494463  1
  Sb  Sb104  1  0.33254377  0.67053641  -0.00817293  1
  Sb  Sb105  1  0.16691128  0.16897923  0.66629546  1
  Sb  Sb106  1  0.83337433  0.83290383  0.00051969  1
  Sb  Sb107  1  -0.00143960  0.82984428  0.50374364  1
  Te  Te108  1  0.16610708  0.16679587  0.16131064  1
  Te  Te109  1  0.16639235  0.17296396  0.49975638  1
  Te  Te110  1  0.16610762  0.17231147  0.83655065  1
  Te  Te111  1  0.16727489  0.50341915  0.16124441  1
  Te  Te112  1  0.16639345  0.49796219  0.49976779  1
  Te  Te113  1  0.16658679  0.49853380  0.83605285  1
  Te  Te114  1  0.16193902  0.82890849  0.16636389  1
  Te  Te115  1  0.16699202  0.83312181  0.50537966  1
  Te  Te116  1  0.16614797  0.83233382  0.83210565  1
  Te  Te117  1  0.50007334  0.16654614  0.16143907  1
  Te  Te118  1  0.50200179  0.16458043  0.50065541  1
  Te  Te119  1  0.50441855  0.17403342  0.83737601  1
  Te  Te120  1  0.50408621  0.49677239  0.16479102  1
  Te  Te121  1  0.50510862  0.50118845  0.50474381  1
  Te  Te122  1  0.50285610  0.49963444  0.82981577  1
  Te  Te123  1  0.49967108  0.83611814  0.15887234  1
  Te  Te124  1  0.49905709  0.83555882  0.49759096  1
  Te  Te125  1  0.50243739  0.82973209  0.83815004  1
  Te  Te126  1  0.83431370  0.17240861  0.15980014  1
  Te  Te127  1  0.83048202  0.16443132  0.50039858  1
  Te  Te128  1  0.82857388  0.16825097  0.83951178  1
  Te  Te129  1  0.83176251  0.49789315  0.16373972  1
  Te  Te130  1  0.83097074  0.49976529  0.50028641  1
  Te  Te131  1  0.83009633  0.50313125  0.83360503  1
  Te  Te132  1  0.83855776  0.83349871  0.17061306  1
  Te  Te133  1  0.83386821  0.84111954  0.49335303  1
  Te  Te134  1  0.83085809  0.82710716  0.83373621  1
  Te  Te135  1  0.16757947  -0.00137822  -0.00031250  1
  Te  Te136  1  0.16764541  0.00409039  0.33204052  1
  Te  Te137  1  0.16683044  -0.00258092  0.66687787  1
  Te  Te138  1  0.16730025  0.33401781  0.00024309  1
  Te  Te139  1  0.16551319  0.33461135  0.33312503  1
  Te  Te140  1  0.16678580  0.33687879  0.66543227  1
  Te  Te141  1  0.16709792  0.66770820  0.00178753  1
  Te  Te142  1  0.16348041  0.66200287  0.33139122  1
  Te  Te143  1  0.16413502  0.66676637  0.66680292  1
  Te  Te144  1  0.49996564  0.00080042  -0.00342092  1
  Te  Te145  1  0.50604970  0.00068792  0.33707530  1
  Te  Te146  1  0.49992805  -0.00114454  0.66449151  1
  Te  Te147  1  0.49896078  0.33140641  -0.00031772  1
  Te  Te148  1  0.49678834  0.33327408  0.32771557  1
  Te  Te149  1  0.50301769  0.33774166  0.67088409  1
  Te  Te150  1  0.49882796  0.67022318  -0.00361010  1
  Te  Te151  1  0.50468325  0.66782577  0.33567188  1
  Te  Te152  1  0.50205018  0.66653378  0.66683398  1
  Te  Te153  1  0.82988760  0.00402426  0.00050965  1
  Te  Te154  1  0.82741319  0.00316800  0.33747325  1
  Te  Te155  1  0.83283518  -0.00028754  0.66163387  1
  Te  Te156  1  0.83320423  0.33540936  0.00425911  1
  Te  Te157  1  0.83626911  0.33828941  0.32937628  1
  Te  Te158  1  0.82877749  0.34109463  0.66695008  1
  Te  Te159  1  0.83334872  0.66142339  -0.00475302  1
  Te  Te160  1  0.83304794  0.66401312  0.33369692  1
  Te  Te161  1  0.83348078  0.66361962  0.66744556  1
  Te  Te162  1  0.00460648  0.16594571  -0.00126071  1
  Te  Te163  1  0.00383667  0.16574884  0.33906300  1
  Te  Te164  1  -0.00180488  0.16354674  0.66076905  1
  Te  Te165  1  0.00105606  0.49968292  -0.00152040  1
  Te  Te166  1  -0.00146560  0.50170722  0.33573469  1
  Te  Te167  1  0.00687534  0.50332517  0.66078974  1
  Te  Te168  1  0.00376999  0.83344215  -0.00324217  1
  Te  Te169  1  -0.00444353  0.82939243  0.33221124  1
  Te  Te170  1  0.00161900  0.83029073  0.66933270  1
  Te  Te171  1  0.33209973  0.16170289  -0.00125981  1
  Te  Te172  1  0.32811042  0.17025098  0.33960266  1
  Te  Te173  1  0.33457441  0.16115972  0.66161063  1
  Te  Te174  1  0.32747386  0.50072685  -0.00024441  1
  Te  Te175  1  0.33035903  0.49670990  0.33980425  1
  Te  Te176  1  0.32572323  0.50258405  0.66211646  1
  Te  Te177  1  0.33056234  0.83709225  -0.00595304  1
  Te  Te178  1  0.33181696  0.83272386  0.33257978  1
  Te  Te179  1  0.33042210  0.83289074  0.67161204  1
  Te  Te180  1  0.66501848  0.16500486  0.00002036  1
  Te  Te181  1  0.66727088  0.16311552  0.33871909  1
  Te  Te182  1  0.66670476  0.15792820  0.66634179  1
  Te  Te183  1  0.66937035  0.49954461  0.00332998  1
  Te  Te184  1  0.67008579  0.50135257  0.33461285  1
  Te  Te185  1  0.66602220  0.50293527  0.66611174  1
  Te  Te186  1  0.66536725  0.83715151  -0.00483443  1
  Te  Te187  1  0.67167593  0.83200727  0.33081305  1
  Te  Te188  1  0.66779093  0.83765054  0.67395741  1
  Te  Te189  1  -0.00102801  -0.00643199  0.16720550  1
  Te  Te190  1  0.00140236  0.00200945  0.50549909  1
  Te  Te191  1  -0.00222609  -0.00486467  0.82518365  1
  Te  Te192  1  -0.00418029  0.33224036  0.17438796  1
  Te  Te193  1  0.00220007  0.33395646  0.49679668  1
  Te  Te194  1  0.00731451  0.33247387  0.83279922  1
  Te  Te195  1  0.00231792  0.67000088  0.16844558  1
  Te  Te196  1  -0.00080615  0.66208637  0.50113294  1
  Te  Te197  1  -0.00251209  0.67090239  0.82855500  1
  Te  Te198  1  0.34202510  0.00015306  0.16394156  1
  Te  Te199  1  0.33792298  0.00317201  0.50400095  1
  Te  Te200  1  0.33397189  -0.00365576  0.83099964  1
  Te  Te201  1  0.33932806  0.33318835  0.17376715  1
  Te  Te202  1  0.33170551  0.33331822  0.49846734  1
  Te  Te203  1  0.33280392  0.33293185  0.83313214  1
  Te  Te204  1  0.32873663  0.66608035  0.16806944  1
  Te  Te205  1  0.34023471  0.66215587  0.50714070  1
  Te  Te206  1  0.33863221  0.67155986  0.82545307  1
  Te  Te207  1  0.66189549  -0.00064329  0.16139801  1
  Te  Te208  1  0.66461473  -0.00280650  0.50169219  1
  Te  Te209  1  0.66742111  0.00505032  0.83283711  1
  Te  Te210  1  0.66614993  0.33679177  0.16923120  1
  Te  Te211  1  0.66717893  0.33300954  0.50508138  1
  Te  Te212  1  0.66563172  0.33365329  0.82826699  1
  Te  Te213  1  0.66579582  0.66162214  0.17189020  1
  Te  Te214  1  0.66389154  0.66661589  0.50190474  1
  Te  Te215  1  0.66641923  0.66479051  0.83096474  1
