# generated using pymatgen
data_AgSbTe2
_symmetry_space_group_name_H-M   'P 1'
_cell_length_a   18.34996914
_cell_length_b   18.35152932
_cell_length_c   18.34903539
_cell_angle_alpha   90.00080664
_cell_angle_beta   89.99987142
_cell_angle_gamma   89.99516611
_symmetry_Int_Tables_number   1
_chemical_formula_structural   AgSbTe2
_chemical_formula_sum   'Ag54 Sb54 Te108'
_cell_volume   6179.03758293
_cell_formula_units_Z   54
loop_
 _symmetry_equiv_pos_site_id
 _symmetry_equiv_pos_as_xyz
  1  'x, y, z'
loop_
 _atom_site_type_symbol
 _atom_site_label
 _atom_site_symmetry_multiplicity
 _atom_site_fract_x
 _atom_site_fract_y
 _atom_site_fract_z
 _atom_site_occupancy
  Ag  Ag0  1  0.67029623  0.82679044  0.16024630  1
  Ag  Ag1  1  0.16102953  -0.00467916  0.15942702  1
  Ag  Ag2  1  0.33513836  0.82871210  0.15895769  1
  Ag  Ag3  1  0.66126873  0.49450785  0.84527903  1
  Ag  Ag4  1  0.34020782  0.67704128  0.67115660  1
  Ag  Ag5  1  0.00395141  0.17156724  0.84380825  1
  Ag  Ag6  1  0.00738435  0.83380370  0.49747943  1
  Ag  Ag7  1  -0.00122059  0.66512207  0.31584690  1
  Ag  Ag8  1  0.32770677  -0.01161172  0.66821254  1
  Ag  Ag9  1  0.00845189  -0.00240111  0.66808478  1
  Ag  Ag10  1  0.84182911  0.18208865  0.00069040  1
  Ag  Ag11  1  0.34230793  0.50265969  0.15458483  1
  Ag  Ag12  1  0.33451532  0.33409620  0.68223930  1
  Ag  Ag13  1  0.66446137  0.83534528  0.49748858  1
  Ag  Ag14  1  0.66530590  0.17512380  0.83548079  1
  Ag  Ag15  1  0.66166418  0.50278238  0.16087765  1
  Ag  Ag16  1  0.83707215  -0.00698533  0.16384491  1
  Ag  Ag17  1  0.66475773  0.16356590  0.50128270  1
  Ag  Ag18  1  0.49526280  0.82818621  0.00010067  1
  Ag  Ag19  1  0.50588109  0.66130007  0.15998128  1
  Ag  Ag20  1  0.51005535  0.34255619  0.15727213  1
  Ag  Ag21  1  0.82810284  0.66990018  0.16018246  1
  Ag  Ag22  1  0.16795950  0.83351306  0.00107846  1
  Ag  Ag23  1  -0.00345997  0.16707202  0.15885369  1
  Ag  Ag24  1  0.33130945  0.83491183  0.51474369  1
  Ag  Ag25  1  0.17596030  0.83832456  0.67505420  1
  Ag  Ag26  1  0.50005600  0.66148297  0.84123299  1
  Ag  Ag27  1  0.33315526  0.16416093  0.50905010  1
  Ag  Ag28  1  -0.01227987  0.33559054  0.00062524  1
  Ag  Ag29  1  0.16181457  0.49733056  -0.00123519  1
  Ag  Ag30  1  0.33430012  0.49985004  0.50809281  1
  Ag  Ag31  1  0.65982325  0.66866047  0.67971371  1
  Ag  Ag32  1  0.33618462  0.34045781  -0.00142927  1
  Ag  Ag33  1  0.83522227  0.82830301  0.00368096  1
  Ag  Ag34  1  0.49892832  0.49934629  0.32176740  1
  Ag  Ag35  1  0.33427995  0.83214970  0.82918945  1
  Ag  Ag36  1  0.33641886  0.49349356  0.83736423  1
  Ag  Ag37  1  0.33259629  0.17281407  0.83150152  1
  Ag  Ag38  1  0.67511140  0.34108837  0.00206869  1
  Ag  Ag39  1  0.16895242  -0.00364572  0.51074602  1
  Ag  Ag40  1  0.67113312  0.65913950  0.00209086  1
  Ag  Ag41  1  0.66795058  0.00318920  0.33094098  1
  Ag  Ag42  1  0.48711815  0.82950601  0.67553424  1
  Ag  Ag43  1  0.16923399  -0.00096860  0.83520403  1
  Ag  Ag44  1  0.83355354  0.49603399  0.00086497  1
  Ag  Ag45  1  -0.00658646  0.33700907  0.31713341  1
  Ag  Ag46  1  0.15826653  0.17090520  -0.00261822  1
  Ag  Ag47  1  0.82405589  0.33328186  0.84277269  1
  Ag  Ag48  1  -0.00813657  0.66161244  0.00060531  1
  Ag  Ag49  1  0.82800459  0.33517002  0.15363470  1
  Ag  Ag50  1  0.49872053  0.34113299  0.84047787  1
  Ag  Ag51  1  0.66821913  0.33272395  0.31750708  1
  Ag  Ag52  1  -0.00440339  0.83392744  0.16222694  1
  Ag  Ag53  1  0.00327067  0.49476418  0.84074415  1
  Sb  Sb54  1  0.17007422  0.15757160  0.67545264  1
  Sb  Sb55  1  0.49690921  0.16356715  0.66839699  1
  Sb  Sb56  1  0.49732729  0.50575707  0.66969225  1
  Sb  Sb57  1  0.66909814  0.00021803  0.00280941  1
  Sb  Sb58  1  0.66204434  0.50111628  0.49684471  1
  Sb  Sb59  1  -0.00249233  -0.00175554  0.33069963  1
  Sb  Sb60  1  0.66018024  0.83113138  0.83885436  1
  Sb  Sb61  1  0.83251975  0.16728587  0.32476280  1
  Sb  Sb62  1  0.32920286  -0.00176530  -0.00576100  1
  Sb  Sb63  1  0.66083565  0.33713814  0.67447669  1
  Sb  Sb64  1  0.83535059  -0.00193006  0.49581645  1
  Sb  Sb65  1  0.82932095  0.49903070  0.32249426  1
  Sb  Sb66  1  0.00591150  0.32835878  0.67715939  1
  Sb  Sb67  1  0.33656934  0.33518084  0.32694042  1
  Sb  Sb68  1  0.16906853  0.32692525  0.49976899  1
  Sb  Sb69  1  0.83182110  0.66903748  0.49380744  1
  Sb  Sb70  1  0.49558933  -0.00263260  0.50048883  1
  Sb  Sb71  1  0.16662377  0.67094478  0.16142314  1
  Sb  Sb72  1  0.83393513  0.83288196  0.67332728  1
  Sb  Sb73  1  0.50002578  -0.00294250  0.16595520  1
  Sb  Sb74  1  0.00620542  0.83534277  0.84084253  1
  Sb  Sb75  1  0.00147157  0.67253665  0.67557584  1
  Sb  Sb76  1  -0.00229651  0.50118972  0.15856504  1
  Sb  Sb77  1  0.16584201  0.83389242  0.33059262  1
  Sb  Sb78  1  0.83251753  0.16668630  0.67543391  1
  Sb  Sb79  1  0.33723480  0.66399318  -0.00371320  1
  Sb  Sb80  1  0.49930933  0.66859355  0.50139217  1
  Sb  Sb81  1  0.66413326  -0.00474636  0.66461720  1
  Sb  Sb82  1  0.83256983  0.83266667  0.32436414  1
  Sb  Sb83  1  0.83126518  0.33194705  0.49750109  1
  Sb  Sb84  1  0.67217876  0.16907856  0.16198847  1
  Sb  Sb85  1  0.00193224  0.00363830  -0.00016223  1
  Sb  Sb86  1  0.83895734  0.00508183  0.84103705  1
  Sb  Sb87  1  0.33141851  0.66597735  0.33402681  1
  Sb  Sb88  1  0.50184851  0.82730526  0.32949229  1
  Sb  Sb89  1  0.66814789  0.66603563  0.32535058  1
  Sb  Sb90  1  0.16639535  0.16559867  0.32719722  1
  Sb  Sb91  1  0.16931903  0.49915985  0.32514532  1
  Sb  Sb92  1  0.16329652  0.33184077  0.16030035  1
  Sb  Sb93  1  0.83260223  0.50072503  0.67823531  1
  Sb  Sb94  1  0.82665537  0.66197895  0.84258976  1
  Sb  Sb95  1  0.50240430  0.17243766  0.33235926  1
  Sb  Sb96  1  0.50446999  0.50304467  0.00226520  1
  Sb  Sb97  1  0.49536777  -0.00112512  0.83312610  1
  Sb  Sb98  1  0.17450692  0.67114633  0.83775312  1
  Sb  Sb99  1  0.17200413  0.32831168  0.83708667  1
  Sb  Sb100  1  0.16835799  0.67403887  0.50223867  1
  Sb  Sb101  1  0.00169944  0.16131961  0.49924634  1
  Sb  Sb102  1  0.17146282  0.50623321  0.67491373  1
  Sb  Sb103  1  0.32756922  0.16667814  0.15995689  1
  Sb  Sb104  1  0.00726818  0.50496248  0.50220807  1
  Sb  Sb105  1  0.50025919  0.16810013  -0.00160739  1
  Sb  Sb106  1  0.33593435  -0.00170391  0.33729306  1
  Sb  Sb107  1  0.49887522  0.33455498  0.50149745  1
  Te  Te108  1  0.16136226  0.16088484  0.16005401  1
  Te  Te109  1  0.17011651  0.15955447  0.49894279  1
  Te  Te110  1  0.16724377  0.16171683  0.83834578  1
  Te  Te111  1  0.17670297  0.49997737  0.15979612  1
  Te  Te112  1  0.17357843  0.49971896  0.50013903  1
  Te  Te113  1  0.16935632  0.50242664  0.83910860  1
  Te  Te114  1  0.16794840  0.83547102  0.16452055  1
  Te  Te115  1  0.16805881  0.83782514  0.49748992  1
  Te  Te116  1  0.17046596  0.83700950  0.83570316  1
  Te  Te117  1  0.49759868  0.17112166  0.16641692  1
  Te  Te118  1  0.50037080  0.16657317  0.50058977  1
  Te  Te119  1  0.49853324  0.16902465  0.83321991  1
  Te  Te120  1  0.50107439  0.49943430  0.16408448  1
  Te  Te121  1  0.49356091  0.50090162  0.49593091  1
  Te  Te122  1  0.49940813  0.50108788  0.83188069  1
  Te  Te123  1  0.49947985  0.83189712  0.16405384  1
  Te  Te124  1  0.49925673  0.83267196  0.49995934  1
  Te  Te125  1  0.49607712  0.83228269  0.83469286  1
  Te  Te126  1  0.83710593  0.17078093  0.16015336  1
  Te  Te127  1  0.82817430  0.16528958  0.50116465  1
  Te  Te128  1  0.83462994  0.17033327  0.83969791  1
  Te  Te129  1  0.83106057  0.49800746  0.16089692  1
  Te  Te130  1  0.83530709  0.50024969  0.50161782  1
  Te  Te131  1  0.83104024  0.49586614  0.84044535  1
  Te  Te132  1  0.83282873  0.83178656  0.16303332  1
  Te  Te133  1  0.83022516  0.83413416  0.50250652  1
  Te  Te134  1  0.83340398  0.83531233  0.84114175  1
  Te  Te135  1  0.16713849  -0.00318183  -0.00080106  1
  Te  Te136  1  0.16668830  0.00104679  0.32756877  1
  Te  Te137  1  0.16836479  -0.00299803  0.66863866  1
  Te  Te138  1  0.17271995  0.33323445  -0.00036934  1
  Te  Te139  1  0.15586860  0.33337908  0.33167729  1
  Te  Te140  1  0.17441067  0.33447617  0.66615813  1
  Te  Te141  1  0.15786290  0.66936325  -0.00046736  1
  Te  Te142  1  0.15702546  0.66480324  0.33370936  1
  Te  Te143  1  0.17139674  0.67592228  0.66925044  1
  Te  Te144  1  0.49980850  -0.01025770  0.00006153  1
  Te  Te145  1  0.50798025  0.00040921  0.33317715  1
  Te  Te146  1  0.49433184  -0.00950645  0.66672574  1
  Te  Te147  1  0.49665027  0.33018551  -0.00080719  1
  Te  Te148  1  0.50478262  0.33908431  0.33100378  1
  Te  Te149  1  0.49354523  0.33331581  0.67174349  1
  Te  Te150  1  0.50266404  0.67019363  0.00068138  1
  Te  Te151  1  0.49954704  0.66015416  0.32489400  1
  Te  Te152  1  0.50004449  0.67090567  0.66711230  1
  Te  Te153  1  0.83442565  -0.00958186  0.00629798  1
  Te  Te154  1  0.82784746  0.00010500  0.32573307  1
  Te  Te155  1  0.83830903  -0.00007384  0.66670154  1
  Te  Te156  1  0.83222664  0.33654036  -0.00190827  1
  Te  Te157  1  0.83192856  0.33399035  0.33006241  1
  Te  Te158  1  0.83515565  0.33341463  0.67203169  1
  Te  Te159  1  0.83084546  0.66716222  0.00285905  1
  Te  Te160  1  0.84012284  0.66563072  0.32566061  1
  Te  Te161  1  0.82686500  0.66672989  0.66644312  1
  Te  Te162  1  0.00050481  0.16712738  0.00054998  1
  Te  Te163  1  -0.00014625  0.17346705  0.33007178  1
  Te  Te164  1  0.00047985  0.16033094  0.66895737  1
  Te  Te165  1  0.00072370  0.49720762  -0.00188698  1
  Te  Te166  1  0.00057813  0.49937997  0.33630346  1
  Te  Te167  1  0.00226694  0.50072894  0.67457028  1
  Te  Te168  1  0.00322018  0.83302986  0.00270928  1
  Te  Te169  1  -0.00096277  0.83002498  0.33314150  1
  Te  Te170  1  0.00203159  0.83601046  0.66604390  1
  Te  Te171  1  0.33101874  0.16760109  -0.00494050  1
  Te  Te172  1  0.33392532  0.16682885  0.34115885  1
  Te  Te173  1  0.33301232  0.17259924  0.66843308  1
  Te  Te174  1  0.33059087  0.50195522  -0.00315158  1
  Te  Te175  1  0.33685835  0.50028626  0.33427770  1
  Te  Te176  1  0.33276508  0.49617769  0.66892319  1
  Te  Te177  1  0.33104362  0.83193553  -0.00050831  1
  Te  Te178  1  0.33423531  0.83224503  0.32856064  1
  Te  Te179  1  0.33180460  0.83254836  0.66879152  1
  Te  Te180  1  0.66787911  0.16875842  -0.00471719  1
  Te  Te181  1  0.66686837  0.17064632  0.33786731  1
  Te  Te182  1  0.66509242  0.16587196  0.66603831  1
  Te  Te183  1  0.66733112  0.49953495  0.00175649  1
  Te  Te184  1  0.66242857  0.49461212  0.33135075  1
  Te  Te185  1  0.66589095  0.50692219  0.66610136  1
  Te  Te186  1  0.66603081  0.83338701  0.00228439  1
  Te  Te187  1  0.66611787  0.83371993  0.33582442  1
  Te  Te188  1  0.66592545  0.82976417  0.66629746  1
  Te  Te189  1  -0.00121816  -0.00315087  0.16882365  1
  Te  Te190  1  0.00420102  -0.00485377  0.49952198  1
  Te  Te191  1  0.00493021  0.00331746  0.82860432  1
  Te  Te192  1  -0.00208336  0.33456314  0.16097844  1
  Te  Te193  1  -0.00011605  0.33335958  0.50424494  1
  Te  Te194  1  0.00183777  0.33259799  0.83788459  1
  Te  Te195  1  0.00009697  0.66724634  0.15998986  1
  Te  Te196  1  -0.00052368  0.67368837  0.50552766  1
  Te  Te197  1  -0.00185525  0.66234712  0.83961178  1
  Te  Te198  1  0.33044387  -0.00263051  0.16864399  1
  Te  Te199  1  0.32973529  -0.00175486  0.50276427  1
  Te  Te200  1  0.33035248  -0.00029450  0.82859884  1
  Te  Te201  1  0.33537685  0.33509174  0.16212622  1
  Te  Te202  1  0.33325362  0.33241360  0.49553417  1
  Te  Te203  1  0.33532867  0.33367067  0.83843499  1
  Te  Te204  1  0.33657142  0.66742824  0.16747392  1
  Te  Te205  1  0.33349218  0.66925051  0.50390703  1
  Te  Te206  1  0.33948633  0.66907286  0.83044705  1
  Te  Te207  1  0.66880479  -0.00088607  0.17037119  1
  Te  Te208  1  0.66753269  -0.00076401  0.49721806  1
  Te  Te209  1  0.66856356  0.00893055  0.83128779  1
  Te  Te210  1  0.66750603  0.33044201  0.16227736  1
  Te  Te211  1  0.66632553  0.33062802  0.50367589  1
  Te  Te212  1  0.66357264  0.33501122  0.83451856  1
  Te  Te213  1  0.66715875  0.66680686  0.16445651  1
  Te  Te214  1  0.66680736  0.67118234  0.49728579  1
  Te  Te215  1  0.66111534  0.66535402  0.83769688  1
