# generated using pymatgen
data_AgSbTe2
_symmetry_space_group_name_H-M   'P 1'
_cell_length_a   18.36291637
_cell_length_b   18.35444327
_cell_length_c   18.35693665
_cell_angle_alpha   90.00258043
_cell_angle_beta   90.00498498
_cell_angle_gamma   89.99837888
_symmetry_Int_Tables_number   1
_chemical_formula_structural   AgSbTe2
_chemical_formula_sum   'Ag54 Sb54 Te108'
_cell_volume   6187.04221279
_cell_formula_units_Z   54
loop_
 _symmetry_equiv_pos_site_id
 _symmetry_equiv_pos_as_xyz
  1  'x, y, z'
loop_
 _atom_site_type_symbol
 _atom_site_label
 _atom_site_symmetry_multiplicity
 _atom_site_fract_x
 _atom_site_fract_y
 _atom_site_fract_z
 _atom_site_occupancy
  Ag  Ag0  1  0.49314883  0.67135945  0.82943336  1
  Ag  Ag1  1  0.49911542  0.50819165  0.66639184  1
  Ag  Ag2  1  0.33116080  0.32391785  0.33484254  1
  Ag  Ag3  1  0.84282312  0.16349960  0.66072701  1
  Ag  Ag4  1  0.49649754  -0.00476590  0.16688162  1
  Ag  Ag5  1  0.16481436  0.66700068  0.82182212  1
  Ag  Ag6  1  0.00140520  0.34657850  0.66880124  1
  Ag  Ag7  1  0.49523294  -0.00667550  0.82902978  1
  Ag  Ag8  1  0.67726793  0.50230310  0.50050477  1
  Ag  Ag9  1  0.84255814  0.49825571  0.66188607  1
  Ag  Ag10  1  0.00259395  0.66188933  0.33330256  1
  Ag  Ag11  1  0.49087155  0.83074979  0.67085324  1
  Ag  Ag12  1  0.84555618  -0.00199034  0.49849909  1
  Ag  Ag13  1  0.00548960  0.83028542  0.83080137  1
  Ag  Ag14  1  0.15812904  0.15482626  0.33770976  1
  Ag  Ag15  1  0.15865674  0.51307899  0.66138641  1
  Ag  Ag16  1  0.33578603  0.83578351  0.17185693  1
  Ag  Ag17  1  0.67593702  0.50349810  0.17188927  1
  Ag  Ag18  1  0.00589935  -0.00124087  0.66385677  1
  Ag  Ag19  1  0.83903478  0.49909418  0.33658806  1
  Ag  Ag20  1  0.16012008  0.16255836  0.66364194  1
  Ag  Ag21  1  0.66724738  0.33316574  0.33263911  1
  Ag  Ag22  1  0.15759063  0.50506590  -0.00381530  1
  Ag  Ag23  1  -0.00148127  0.16157045  0.17424775  1
  Ag  Ag24  1  0.00897784  0.65918597  0.67265402  1
  Ag  Ag25  1  0.49985679  0.67314944  0.16389047  1
  Ag  Ag26  1  0.84049571  0.15793587  0.33714530  1
  Ag  Ag27  1  0.33080758  0.83249794  0.50614474  1
  Ag  Ag28  1  0.00015314  -0.00670514  -0.00664681  1
  Ag  Ag29  1  0.32644649  0.83449019  0.82424095  1
  Ag  Ag30  1  0.67493651  0.15410296  0.17204295  1
  Ag  Ag31  1  0.16371879  -0.00548783  0.49470481  1
  Ag  Ag32  1  0.32709899  0.67301882  0.66736334  1
  Ag  Ag33  1  0.66296268  0.83641153  0.17017270  1
  Ag  Ag34  1  0.83947078  0.50576738  0.00120852  1
  Ag  Ag35  1  0.00257175  -0.00468645  0.33613824  1
  Ag  Ag36  1  0.31971951  0.50678232  0.50049488  1
  Ag  Ag37  1  0.15591834  0.50066457  0.33897165  1
  Ag  Ag38  1  0.00174279  0.66413486  -0.00751459  1
  Ag  Ag39  1  0.31877030  -0.00174427  0.34121559  1
  Ag  Ag40  1  0.32957214  -0.00949693  0.66089201  1
  Ag  Ag41  1  0.84310368  0.84331951  0.33231042  1
  Ag  Ag42  1  0.00180778  0.16040951  0.81782323  1
  Ag  Ag43  1  -0.00165737  0.49942479  0.16855040  1
  Ag  Ag44  1  0.67293200  0.00112879  0.33482326  1
  Ag  Ag45  1  0.16237062  -0.00107783  0.17748782  1
  Ag  Ag46  1  0.16594440  0.66674414  0.50249354  1
  Ag  Ag47  1  0.31898152  0.15526128  0.82829297  1
  Ag  Ag48  1  0.16100614  0.84083293  0.33336601  1
  Ag  Ag49  1  0.83787816  0.83129079  0.00789065  1
  Ag  Ag50  1  -0.00127979  0.51110878  0.82492016  1
  Ag  Ag51  1  0.67230679  0.00044348  0.65882621  1
  Ag  Ag52  1  0.00157794  0.50650388  0.50979390  1
  Ag  Ag53  1  0.68021698  0.50223071  0.82187803  1
  Sb  Sb54  1  0.83408474  0.33584279  0.17017158  1
  Sb  Sb55  1  0.67292825  0.66703323  -0.00032397  1
  Sb  Sb56  1  0.16175661  0.16703261  -0.00016956  1
  Sb  Sb57  1  0.83604525  0.33704747  0.83047392  1
  Sb  Sb58  1  0.16491232  0.33719086  0.50067566  1
  Sb  Sb59  1  0.50261693  0.50205202  0.33664190  1
  Sb  Sb60  1  0.83596888  0.33477071  0.49899946  1
  Sb  Sb61  1  0.67132694  0.33369361  0.66172036  1
  Sb  Sb62  1  0.16087909  0.83090451  0.00389514  1
  Sb  Sb63  1  0.67055365  0.16716876  0.49475327  1
  Sb  Sb64  1  0.50058194  0.16216849  0.33285475  1
  Sb  Sb65  1  0.49849391  0.33673104  0.83028116  1
  Sb  Sb66  1  0.00142835  0.16594109  0.50098684  1
  Sb  Sb67  1  0.67121146  0.16784526  0.83347783  1
  Sb  Sb68  1  0.49374949  0.66506045  0.50187982  1
  Sb  Sb69  1  0.67277635  0.66758870  0.33036677  1
  Sb  Sb70  1  0.83559571  -0.00051380  0.82657426  1
  Sb  Sb71  1  0.50343727  0.50472218  -0.00412602  1
  Sb  Sb72  1  0.33010204  0.15896954  0.16674799  1
  Sb  Sb73  1  0.16992524  0.83288597  0.65987083  1
  Sb  Sb74  1  0.32750537  -0.00276987  -0.00078341  1
  Sb  Sb75  1  0.32880455  0.16423599  0.50244372  1
  Sb  Sb76  1  0.66724670  0.66662286  0.66748522  1
  Sb  Sb77  1  0.50008968  0.16134832  0.00073714  1
  Sb  Sb78  1  0.49968674  0.33805790  0.49938133  1
  Sb  Sb79  1  -0.00000455  0.83504524  0.16822700  1
  Sb  Sb80  1  0.16652132  -0.00453152  0.82984265  1
  Sb  Sb81  1  0.32817147  0.33573434  0.66182773  1
  Sb  Sb82  1  0.32647682  0.50441257  0.82544539  1
  Sb  Sb83  1  0.66733186  0.82976868  0.83457364  1
  Sb  Sb84  1  0.33034023  0.50500903  0.17390535  1
  Sb  Sb85  1  0.16577011  0.33115912  0.17115945  1
  Sb  Sb86  1  0.83863278  0.66547741  0.83261491  1
  Sb  Sb87  1  0.83629287  -0.00113190  0.17505372  1
  Sb  Sb88  1  0.32714938  0.66791783  -0.00508941  1
  Sb  Sb89  1  0.49672195  0.83501372  0.33289004  1
  Sb  Sb90  1  0.49826099  0.16046768  0.66911861  1
  Sb  Sb91  1  0.32597033  0.67357151  0.33925953  1
  Sb  Sb92  1  0.16683143  0.66971551  0.16984240  1
  Sb  Sb93  1  0.49601149  -0.00223985  0.50090128  1
  Sb  Sb94  1  0.67341992  -0.00180046  0.00228454  1
  Sb  Sb95  1  0.50255639  0.33363690  0.16880887  1
  Sb  Sb96  1  0.00651662  0.83195900  0.50044298  1
  Sb  Sb97  1  0.83893864  0.16484546  0.00194236  1
  Sb  Sb98  1  0.00040659  0.33507305  0.33776753  1
  Sb  Sb99  1  0.00018509  0.33973176  -0.00309756  1
  Sb  Sb100  1  0.16411762  0.33722933  0.82963119  1
  Sb  Sb101  1  0.33047311  0.33442163  0.00297555  1
  Sb  Sb102  1  0.66905472  0.33623009  0.00517377  1
  Sb  Sb103  1  0.83412782  0.66563225  0.16666023  1
  Sb  Sb104  1  0.84030715  0.66699425  0.49889877  1
  Sb  Sb105  1  0.83534289  0.83408534  0.66365947  1
  Sb  Sb106  1  0.50217563  0.83250614  -0.00129498  1
  Sb  Sb107  1  0.66264347  0.83105008  0.49767379  1
  Te  Te108  1  0.16280545  0.16246470  0.16993826  1
  Te  Te109  1  0.16770536  0.16115709  0.49783126  1
  Te  Te110  1  0.16189711  0.16545382  0.83207710  1
  Te  Te111  1  0.16510232  0.49911925  0.17423445  1
  Te  Te112  1  0.16291312  0.49968706  0.50184540  1
  Te  Te113  1  0.16185425  0.50322411  0.82609125  1
  Te  Te114  1  0.16959704  0.83681478  0.17179479  1
  Te  Te115  1  0.17050639  0.83274983  0.49300978  1
  Te  Te116  1  0.16651374  0.82868544  0.83734554  1
  Te  Te117  1  0.50272513  0.16260183  0.16548543  1
  Te  Te118  1  0.49936796  0.16913283  0.50172469  1
  Te  Te119  1  0.50273561  0.16210243  0.83492055  1
  Te  Te120  1  0.49888263  0.50374644  0.16438428  1
  Te  Te121  1  0.50279959  0.50119618  0.50713276  1
  Te  Te122  1  0.49535234  0.50448836  0.82923150  1
  Te  Te123  1  0.50102930  0.83407748  0.16643135  1
  Te  Te124  1  0.49437951  0.83252479  0.50787617  1
  Te  Te125  1  0.50208218  0.83299545  0.83192154  1
  Te  Te126  1  0.83438027  0.16868357  0.17015337  1
  Te  Te127  1  0.83295856  0.16190866  0.49919041  1
  Te  Te128  1  0.83920062  0.16775648  0.83021307  1
  Te  Te129  1  0.83488618  0.50074717  0.17131821  1
  Te  Te130  1  0.83654903  0.50119450  0.50012777  1
  Te  Te131  1  0.83727731  0.50019852  0.82828075  1
  Te  Te132  1  0.82940316  0.83189577  0.17110969  1
  Te  Te133  1  0.82962474  0.83767840  0.49261608  1
  Te  Te134  1  0.83667972  0.83273820  0.83531911  1
  Te  Te135  1  0.15832167  0.00075708  0.00555969  1
  Te  Te136  1  0.16522358  0.00052926  0.33318231  1
  Te  Te137  1  0.16926425  0.00168913  0.66497444  1
  Te  Te138  1  0.16781560  0.34521730  -0.00012596  1
  Te  Te139  1  0.17178224  0.33959638  0.33447297  1
  Te  Te140  1  0.16212295  0.32089124  0.66636645  1
  Te  Te141  1  0.15990038  0.66224133  0.00196688  1
  Te  Te142  1  0.16300113  0.66119210  0.33634717  1
  Te  Te143  1  0.16633008  0.66989652  0.66447138  1
  Te  Te144  1  0.50157868  -0.00185900  0.00152100  1
  Te  Te145  1  0.50962592  -0.00149539  0.32767127  1
  Te  Te146  1  0.49340151  -0.00244684  0.66892539  1
  Te  Te147  1  0.49918063  0.33281514  -0.00027827  1
  Te  Te148  1  0.49863701  0.33254779  0.33269081  1
  Te  Te149  1  0.50121300  0.33976998  0.66677400  1
  Te  Te150  1  0.49817683  0.66684695  0.00027721  1
  Te  Te151  1  0.49898210  0.66831748  0.32689088  1
  Te  Te152  1  0.50122384  0.66868680  0.66835167  1
  Te  Te153  1  0.84099858  -0.00345237  -0.00218981  1
  Te  Te154  1  0.83223402  0.00102118  0.33673277  1
  Te  Te155  1  0.83005405  0.00110535  0.66129610  1
  Te  Te156  1  0.83269877  0.34451365  -0.00104060  1
  Te  Te157  1  0.82810657  0.33597838  0.33447658  1
  Te  Te158  1  0.83771603  0.33043659  0.66526236  1
  Te  Te159  1  0.84109997  0.66659643  -0.00071778  1
  Te  Te160  1  0.84065068  0.66134496  0.33372612  1
  Te  Te161  1  0.83730662  0.66172262  0.66479723  1
  Te  Te162  1  -0.00066468  0.16427058  0.00690924  1
  Te  Te163  1  -0.00013012  0.16991380  0.33404252  1
  Te  Te164  1  -0.00065852  0.15548880  0.66239474  1
  Te  Te165  1  -0.00059326  0.50087993  0.00336771  1
  Te  Te166  1  -0.00172962  0.49521110  0.32649303  1
  Te  Te167  1  0.00053754  0.50287190  0.66897560  1
  Te  Te168  1  -0.00316222  0.83267961  0.00188421  1
  Te  Te169  1  0.00090933  0.83495036  0.33463183  1
  Te  Te170  1  -0.00246340  0.83958792  0.67009200  1
  Te  Te171  1  0.33152520  0.16705428  -0.00836052  1
  Te  Te172  1  0.33037986  0.16115250  0.33250654  1
  Te  Te173  1  0.33170536  0.16690793  0.67006485  1
  Te  Te174  1  0.32833486  0.49907800  0.00096660  1
  Te  Te175  1  0.33595837  0.50462301  0.33984435  1
  Te  Te176  1  0.33340527  0.49911204  0.66125709  1
  Te  Te177  1  0.33359804  0.83291428  0.00076857  1
  Te  Te178  1  0.33158908  0.83913858  0.33201061  1
  Te  Te179  1  0.33188016  0.83298234  0.66785220  1
  Te  Te180  1  0.66954272  0.16802571  0.00920569  1
  Te  Te181  1  0.66608254  0.16494531  0.32977076  1
  Te  Te182  1  0.66849027  0.16225444  0.66703176  1
  Te  Te183  1  0.67091546  0.50080831  0.00589612  1
  Te  Te184  1  0.66707708  0.50115113  0.33305363  1
  Te  Te185  1  0.66677405  0.49925459  0.66524096  1
  Te  Te186  1  0.67602768  0.83278100  0.00513663  1
  Te  Te187  1  0.66709634  0.83559276  0.33038120  1
  Te  Te188  1  0.66578825  0.83998150  0.66723750  1
  Te  Te189  1  0.00183777  -0.00054054  0.17631864  1
  Te  Te190  1  0.00257133  -0.00094715  0.49811781  1
  Te  Te191  1  0.00097951  -0.00221517  0.83181115  1
  Te  Te192  1  0.00102075  0.33116117  0.16512467  1
  Te  Te193  1  0.00019298  0.34437874  0.50670541  1
  Te  Te194  1  0.00037955  0.32450681  0.82819514  1
  Te  Te195  1  0.00117016  0.66358453  0.17235766  1
  Te  Te196  1  0.00392079  0.66652480  0.49626118  1
  Te  Te197  1  0.00114866  0.66891569  0.83191912  1
  Te  Te198  1  0.33617960  -0.00332916  0.16550581  1
  Te  Te199  1  0.33087717  -0.00300754  0.49988380  1
  Te  Te200  1  0.33256656  -0.00313800  0.83395158  1
  Te  Te201  1  0.33468797  0.33171132  0.17423476  1
  Te  Te202  1  0.33344773  0.33837832  0.49383557  1
  Te  Te203  1  0.33301740  0.32521931  0.83505814  1
  Te  Te204  1  0.33744737  0.67326142  0.16515317  1
  Te  Te205  1  0.32885342  0.66818908  0.50504824  1
  Te  Te206  1  0.33118400  0.67093506  0.82903490  1
  Te  Te207  1  0.66827265  -0.00212498  0.16671116  1
  Te  Te208  1  0.66369352  -0.00057958  0.50000755  1
  Te  Te209  1  0.66255952  0.00140876  0.83286336  1
  Te  Te210  1  0.66581317  0.34104969  0.17239663  1
  Te  Te211  1  0.66684489  0.33986154  0.49399843  1
  Te  Te212  1  0.66493393  0.34140961  0.83348244  1
  Te  Te213  1  0.66165763  0.66605401  0.16481741  1
  Te  Te214  1  0.66518396  0.66135861  0.49914422  1
  Te  Te215  1  0.65917116  0.66062196  0.83395230  1
