# generated using pymatgen
data_AgSbTe2
_symmetry_space_group_name_H-M   'P 1'
_cell_length_a   18.33910520
_cell_length_b   18.33597600
_cell_length_c   18.33577066
_cell_angle_alpha   90.00152067
_cell_angle_beta   90.00231607
_cell_angle_gamma   89.99748996
_symmetry_Int_Tables_number   1
_chemical_formula_structural   AgSbTe2
_chemical_formula_sum   'Ag54 Sb54 Te108'
_cell_volume   6165.68510759
_cell_formula_units_Z   54
loop_
 _symmetry_equiv_pos_site_id
 _symmetry_equiv_pos_as_xyz
  1  'x, y, z'
loop_
 _atom_site_type_symbol
 _atom_site_label
 _atom_site_symmetry_multiplicity
 _atom_site_fract_x
 _atom_site_fract_y
 _atom_site_fract_z
 _atom_site_occupancy
  Ag  Ag0  1  0.66620282  0.00260227  0.66145719  1
  Ag  Ag1  1  0.66633885  0.16573388  0.82255605  1
  Ag  Ag2  1  0.49856815  0.83184675  0.00537628  1
  Ag  Ag3  1  0.00513479  0.67662326  0.65782606  1
  Ag  Ag4  1  0.50379268  0.32249434  0.49842180  1
  Ag  Ag5  1  0.00791169  0.83702419  0.17813264  1
  Ag  Ag6  1  0.49896269  0.16439013  0.33989635  1
  Ag  Ag7  1  0.00307290  0.15981234  0.18052656  1
  Ag  Ag8  1  0.01430743  0.84088512  0.49710629  1
  Ag  Ag9  1  0.66002339  0.84118190  0.49831132  1
  Ag  Ag10  1  0.83382946  0.00259597  0.82591644  1
  Ag  Ag11  1  0.32862170  0.83769388  0.49674661  1
  Ag  Ag12  1  0.50430709  0.33372159  0.82913664  1
  Ag  Ag13  1  0.33530612  0.49924687  0.82796668  1
  Ag  Ag14  1  0.49847570  0.67307415  0.49937114  1
  Ag  Ag15  1  0.50314147  0.66331472  0.83185780  1
  Ag  Ag16  1  0.83170869  0.66804682  0.83265715  1
  Ag  Ag17  1  0.82407309  0.32324938  0.49800143  1
  Ag  Ag18  1  0.16602740  0.84343620  0.65295390  1
  Ag  Ag19  1  0.16926580  -0.00783875  0.50493918  1
  Ag  Ag20  1  0.66407506  0.33014746  0.34302651  1
  Ag  Ag21  1  0.16451647  0.16033911  0.33965691  1
  Ag  Ag22  1  0.49984225  0.67172139  0.17579069  1
  Ag  Ag23  1  0.49796663  0.00153737  0.50080152  1
  Ag  Ag24  1  -0.00082822  0.67215685  0.33827699  1
  Ag  Ag25  1  0.66412933  0.00350794  -0.00850588  1
  Ag  Ag26  1  0.00153384  0.67410224  0.00006372  1
  Ag  Ag27  1  0.00305289  0.32037605  0.33576039  1
  Ag  Ag28  1  0.16807334  0.67752393  0.50137615  1
  Ag  Ag29  1  0.16625838  0.33254044  0.17225250  1
  Ag  Ag30  1  0.00186102  -0.00387311  -0.00538044  1
  Ag  Ag31  1  0.65751420  0.48945874  0.49899099  1
  Ag  Ag32  1  0.49250061  0.83555806  0.33849596  1
  Ag  Ag33  1  0.66379621  0.16369425  0.50097266  1
  Ag  Ag34  1  -0.00253496  0.15772073  0.49767688  1
  Ag  Ag35  1  0.16836696  0.50132699  0.66513617  1
  Ag  Ag36  1  0.01029060  -0.00297444  0.66037836  1
  Ag  Ag37  1  0.49932507  0.16242119  0.65632486  1
  Ag  Ag38  1  0.17267631  0.50146021  -0.00467837  1
  Ag  Ag39  1  0.83630103  0.00441628  0.50438773  1
  Ag  Ag40  1  0.33349477  -0.00159495  0.34309763  1
  Ag  Ag41  1  0.16985519  0.15498408  0.65599191  1
  Ag  Ag42  1  0.82516111  0.32491709  0.82935922  1
  Ag  Ag43  1  0.84329025  0.16782614  0.34033715  1
  Ag  Ag44  1  0.66440312  0.66622845  0.34018261  1
  Ag  Ag45  1  0.33502294  0.32582403  0.33706786  1
  Ag  Ag46  1  0.49670421  0.50705942  -0.00574801  1
  Ag  Ag47  1  0.33724286  0.50426268  0.50215760  1
  Ag  Ag48  1  0.33097010  0.83553541  0.18013914  1
  Ag  Ag49  1  0.17316279  0.83979020  0.34178158  1
  Ag  Ag50  1  0.16575257  0.00060632  0.81970487  1
  Ag  Ag51  1  0.66394638  0.32959478  -0.00210940  1
  Ag  Ag52  1  0.32227585  0.00049714  0.65943231  1
  Ag  Ag53  1  0.33256743  -0.00360087  -0.00254340  1
  Sb  Sb54  1  0.84038763  0.83763877  0.66405623  1
  Sb  Sb55  1  0.33531835  0.16009839  0.49802073  1
  Sb  Sb56  1  0.66513306  0.32758375  0.66257868  1
  Sb  Sb57  1  0.83300270  0.49437887  0.33782540  1
  Sb  Sb58  1  0.83142612  0.16353374  0.65903760  1
  Sb  Sb59  1  0.16863067  0.50120264  0.33752383  1
  Sb  Sb60  1  0.66389284  0.83872470  0.82843025  1
  Sb  Sb61  1  0.83198743  0.66905712  0.16547153  1
  Sb  Sb62  1  0.66864054  0.67282650  0.66057198  1
  Sb  Sb63  1  0.66366280  0.83511931  0.17211963  1
  Sb  Sb64  1  0.33315975  0.66962745  -0.00083422  1
  Sb  Sb65  1  0.83114212  0.49967086  -0.00448170  1
  Sb  Sb66  1  0.66065850  0.00223322  0.34110344  1
  Sb  Sb67  1  0.66909047  0.16534937  0.17336887  1
  Sb  Sb68  1  0.00526886  0.50127034  0.83231635  1
  Sb  Sb69  1  0.83653633  0.50033679  0.66513787  1
  Sb  Sb70  1  0.16777847  0.32988290  0.83485579  1
  Sb  Sb71  1  0.33820871  0.16833237  0.83130270  1
  Sb  Sb72  1  0.00632474  0.00049858  0.34077338  1
  Sb  Sb73  1  0.33499265  0.67221262  0.33730480  1
  Sb  Sb74  1  0.16907776  0.66590998  0.17184488  1
  Sb  Sb75  1  0.83114535  0.83587446  -0.00042574  1
  Sb  Sb76  1  0.33751695  0.33133730  0.00380181  1
  Sb  Sb77  1  0.00362384  0.50187563  0.16775917  1
  Sb  Sb78  1  0.00095730  0.83467176  0.82960067  1
  Sb  Sb79  1  0.32951543  0.67064937  0.66325624  1
  Sb  Sb80  1  0.16563934  0.00163868  0.17127534  1
  Sb  Sb81  1  0.16856813  0.83200180  0.00163272  1
  Sb  Sb82  1  0.00326370  0.50057867  0.50007682  1
  Sb  Sb83  1  0.49904530  0.50223878  0.33755155  1
  Sb  Sb84  1  0.49468012  0.83932544  0.65847750  1
  Sb  Sb85  1  0.33431437  0.50418857  0.16942601  1
  Sb  Sb86  1  0.83305641  0.16517195  0.00064372  1
  Sb  Sb87  1  0.32861891  0.16045815  0.17170720  1
  Sb  Sb88  1  0.83533015  0.83919351  0.33782045  1
  Sb  Sb89  1  0.33409542  0.32870845  0.65877907  1
  Sb  Sb90  1  0.16498135  0.16587726  0.00065330  1
  Sb  Sb91  1  0.50231709  0.16389562  0.00206647  1
  Sb  Sb92  1  -0.00340124  0.33157966  0.00435981  1
  Sb  Sb93  1  0.66264666  0.49917861  0.17115025  1
  Sb  Sb94  1  0.83702378  0.00142984  0.17048202  1
  Sb  Sb95  1  0.49867136  -0.00439326  0.17107384  1
  Sb  Sb96  1  0.83636294  0.33036006  0.17184798  1
  Sb  Sb97  1  -0.00537973  0.16265091  0.82699636  1
  Sb  Sb98  1  0.49561366  0.49728579  0.66658696  1
  Sb  Sb99  1  0.66124586  0.49453844  0.82811627  1
  Sb  Sb100  1  0.00109487  0.32720186  0.65933086  1
  Sb  Sb101  1  0.83452584  0.66993692  0.50264615  1
  Sb  Sb102  1  0.17066037  0.32917008  0.49473854  1
  Sb  Sb103  1  0.33515402  0.83239337  0.82943558  1
  Sb  Sb104  1  0.49977773  0.00092160  0.82874882  1
  Sb  Sb105  1  0.49712183  0.33681727  0.17149773  1
  Sb  Sb106  1  0.66476953  0.66702429  0.00126776  1
  Sb  Sb107  1  0.16685256  0.67028587  0.82783179  1
  Te  Te108  1  0.16183828  0.17081097  0.17044709  1
  Te  Te109  1  0.16506890  0.16708282  0.49894113  1
  Te  Te110  1  0.16646025  0.16222745  0.83095758  1
  Te  Te111  1  0.16864417  0.49703576  0.16011664  1
  Te  Te112  1  0.17083055  0.49900577  0.50354956  1
  Te  Te113  1  0.17217196  0.50005295  0.83423450  1
  Te  Te114  1  0.16736540  0.83202675  0.16970407  1
  Te  Te115  1  0.16869592  0.83276415  0.49783874  1
  Te  Te116  1  0.16856376  0.83929217  0.83110989  1
  Te  Te117  1  0.49989137  0.16744963  0.17613071  1
  Te  Te118  1  0.49911150  0.16479129  0.49859901  1
  Te  Te119  1  0.50580344  0.17094458  0.83404949  1
  Te  Te120  1  0.49880167  0.50759522  0.15740746  1
  Te  Te121  1  0.49890523  0.50492982  0.50179999  1
  Te  Te122  1  0.49705593  0.49804524  0.83304924  1
  Te  Te123  1  0.49819594  0.83012259  0.16877739  1
  Te  Te124  1  0.49863962  0.83400003  0.49921933  1
  Te  Te125  1  0.49977605  0.82862417  0.83851252  1
  Te  Te126  1  0.84147835  0.16657536  0.17686668  1
  Te  Te127  1  0.83377482  0.16528801  0.49921581  1
  Te  Te128  1  0.82799649  0.16508570  0.83345881  1
  Te  Te129  1  0.83282214  0.50013436  0.16517699  1
  Te  Te130  1  0.82724540  0.49393429  0.50105654  1
  Te  Te131  1  0.83262425  0.50124289  0.83202066  1
  Te  Te132  1  0.84460221  0.83369769  0.16817507  1
  Te  Te133  1  0.82438254  0.83904802  0.50043889  1
  Te  Te134  1  0.83148932  0.83429728  0.83246347  1
  Te  Te135  1  0.16543801  -0.00040098  0.00097894  1
  Te  Te136  1  0.17203893  0.00037350  0.33641487  1
  Te  Te137  1  0.16601918  0.00008320  0.66445673  1
  Te  Te138  1  0.16652432  0.33720708  0.00344582  1
  Te  Te139  1  0.16354186  0.33408565  0.33123373  1
  Te  Te140  1  0.16656779  0.33896414  0.66830763  1
  Te  Te141  1  0.16256321  0.66326486  -0.00059267  1
  Te  Te142  1  0.16306244  0.66880062  0.33819926  1
  Te  Te143  1  0.16355073  0.66458102  0.66361753  1
  Te  Te144  1  0.49969706  -0.00294810  -0.00074124  1
  Te  Te145  1  0.49530393  -0.00232468  0.33649345  1
  Te  Te146  1  0.50395090  0.00359470  0.66408436  1
  Te  Te147  1  0.50305879  0.33295390  0.00083899  1
  Te  Te148  1  0.50149866  0.33487412  0.33604067  1
  Te  Te149  1  0.49867849  0.32737634  0.66511916  1
  Te  Te150  1  0.50067345  0.66787027  -0.00556292  1
  Te  Te151  1  0.50109245  0.66855374  0.33742093  1
  Te  Te152  1  0.49999526  0.66792429  0.66548664  1
  Te  Te153  1  0.83478304  -0.00016313  -0.00459828  1
  Te  Te154  1  0.82908118  0.00686503  0.33870643  1
  Te  Te155  1  0.82920931  0.00070361  0.66583945  1
  Te  Te156  1  0.82744906  0.33336856  -0.00406603  1
  Te  Te157  1  0.83223430  0.32862477  0.33728638  1
  Te  Te158  1  0.83509307  0.33329874  0.66930739  1
  Te  Te159  1  0.83663841  0.66701834  -0.00470266  1
  Te  Te160  1  0.83342350  0.66672733  0.33365389  1
  Te  Te161  1  0.84102766  0.66816162  0.67203960  1
  Te  Te162  1  -0.00002349  0.16213447  0.00292971  1
  Te  Te163  1  0.00321559  0.16353582  0.33710698  1
  Te  Te164  1  0.00661998  0.16086644  0.66082842  1
  Te  Te165  1  0.00289277  0.50215902  0.00049682  1
  Te  Te166  1  0.00042588  0.50720669  0.33277120  1
  Te  Te167  1  0.00650231  0.50353708  0.66641826  1
  Te  Te168  1  0.00028150  0.83406154  -0.00034628  1
  Te  Te169  1  0.00056180  0.83316948  0.33678819  1
  Te  Te170  1  0.00553218  0.83542226  0.66223214  1
  Te  Te171  1  0.33353345  0.15876470  0.00131253  1
  Te  Te172  1  0.33158867  0.16547544  0.33198799  1
  Te  Te173  1  0.33340283  0.16146711  0.66851480  1
  Te  Te174  1  0.33496451  0.49956438  0.00013690  1
  Te  Te175  1  0.33298880  0.49275786  0.33773652  1
  Te  Te176  1  0.32958975  0.49893655  0.66515103  1
  Te  Te177  1  0.33674014  0.83630594  -0.00191650  1
  Te  Te178  1  0.33329895  0.83391443  0.33607278  1
  Te  Te179  1  0.32783868  0.83884203  0.66194710  1
  Te  Te180  1  0.66682004  0.16716870  0.00279178  1
  Te  Te181  1  0.65985432  0.16908267  0.33647631  1
  Te  Te182  1  0.66385410  0.16263283  0.66441787  1
  Te  Te183  1  0.66079346  0.49703898  -0.00118483  1
  Te  Te184  1  0.66631649  0.49823618  0.33871168  1
  Te  Te185  1  0.66728450  0.50347775  0.65800850  1
  Te  Te186  1  0.66099898  0.83619521  0.00140844  1
  Te  Te187  1  0.66431603  0.83071985  0.33603948  1
  Te  Te188  1  0.66586633  0.84062665  0.66103130  1
  Te  Te189  1  0.00017629  -0.00118814  0.16057934  1
  Te  Te190  1  0.00047580  -0.00120339  0.50071405  1
  Te  Te191  1  -0.00264598  0.00040375  0.83368310  1
  Te  Te192  1  0.00375954  0.33092194  0.17235640  1
  Te  Te193  1  -0.00326490  0.33278144  0.49489460  1
  Te  Te194  1  -0.00616288  0.33210530  0.83377420  1
  Te  Te195  1  0.00025935  0.67116859  0.16714954  1
  Te  Te196  1  -0.00028673  0.66740053  0.49983033  1
  Te  Te197  1  -0.00189843  0.66733855  0.83700526  1
  Te  Te198  1  0.33263489  -0.00647559  0.16086298  1
  Te  Te199  1  0.33336814  -0.00133844  0.50038838  1
  Te  Te200  1  0.33090738  0.00039163  0.83433619  1
  Te  Te201  1  0.32840751  0.33360988  0.17279808  1
  Te  Te202  1  0.33848070  0.33812977  0.49536528  1
  Te  Te203  1  0.33789815  0.33827156  0.83478832  1
  Te  Te204  1  0.33905714  0.67353171  0.16731711  1
  Te  Te205  1  0.33351463  0.66580505  0.50013758  1
  Te  Te206  1  0.33787695  0.66035296  0.83164986  1
  Te  Te207  1  0.66905660  -0.00009031  0.15272736  1
  Te  Te208  1  0.66287821  0.00322172  0.49958282  1
  Te  Te209  1  0.66786218  0.00384802  0.83267277  1
  Te  Te210  1  0.66685529  0.33332077  0.16422616  1
  Te  Te211  1  0.66461952  0.32972036  0.50041543  1
  Te  Te212  1  0.66533294  0.33019405  0.83236160  1
  Te  Te213  1  0.66137912  0.66703335  0.17314306  1
  Te  Te214  1  0.66715919  0.67169801  0.49811118  1
  Te  Te215  1  0.66644213  0.66642188  0.83188074  1
