# generated using pymatgen
data_AgSbTe2
_symmetry_space_group_name_H-M   'P 1'
_cell_length_a   18.33173614
_cell_length_b   18.34076402
_cell_length_c   18.34369097
_cell_angle_alpha   90.00263131
_cell_angle_beta   89.99800678
_cell_angle_gamma   90.00345896
_symmetry_Int_Tables_number   1
_chemical_formula_structural   AgSbTe2
_chemical_formula_sum   'Ag54 Sb54 Te108'
_cell_volume   6167.47992447
_cell_formula_units_Z   54
loop_
 _symmetry_equiv_pos_site_id
 _symmetry_equiv_pos_as_xyz
  1  'x, y, z'
loop_
 _atom_site_type_symbol
 _atom_site_label
 _atom_site_symmetry_multiplicity
 _atom_site_fract_x
 _atom_site_fract_y
 _atom_site_fract_z
 _atom_site_occupancy
  Ag  Ag0  1  0.33654355  0.49374433  0.16936374  1
  Ag  Ag1  1  0.17899222  0.83491771  -0.00481138  1
  Ag  Ag2  1  0.49114944  0.50188401  0.00891330  1
  Ag  Ag3  1  0.00341220  0.00418930  0.00540323  1
  Ag  Ag4  1  0.33649485  0.66414492  0.00195878  1
  Ag  Ag5  1  0.83121018  0.83787773  0.00190800  1
  Ag  Ag6  1  0.83130206  -0.00114844  0.17195532  1
  Ag  Ag7  1  0.00048010  0.16425674  0.82847231  1
  Ag  Ag8  1  0.83274739  0.66490616  0.49703667  1
  Ag  Ag9  1  0.17235214  0.84304970  0.67024507  1
  Ag  Ag10  1  0.83269847  -0.00002666  0.82389537  1
  Ag  Ag11  1  0.83444539  0.15950602  0.33791314  1
  Ag  Ag12  1  0.48941768  0.00607623  0.49584672  1
  Ag  Ag13  1  0.83479005  0.00444241  0.50041023  1
  Ag  Ag14  1  0.66132244  0.50635990  0.16984630  1
  Ag  Ag15  1  0.82828898  0.50017723  0.33618908  1
  Ag  Ag16  1  0.83153623  0.84223390  0.33608532  1
  Ag  Ag17  1  0.49473571  0.83453859  0.00074342  1
  Ag  Ag18  1  0.33546486  0.32892759  0.34344894  1
  Ag  Ag19  1  0.66525149  0.66397105  0.32786677  1
  Ag  Ag20  1  0.33271724  0.83912410  0.83668924  1
  Ag  Ag21  1  0.49149764  0.32717726  0.83233469  1
  Ag  Ag22  1  0.33161790  0.32902248  0.65496517  1
  Ag  Ag23  1  0.32939562  0.33856556  -0.00021178  1
  Ag  Ag24  1  0.33373685  0.48563893  0.49008846  1
  Ag  Ag25  1  0.17916531  0.32442321  0.50564181  1
  Ag  Ag26  1  0.49724705  0.00132029  0.16705911  1
  Ag  Ag27  1  0.83383236  0.32380492  0.49828618  1
  Ag  Ag28  1  0.66862576  0.83260598  0.16403240  1
  Ag  Ag29  1  0.00165358  0.16491427  0.49746742  1
  Ag  Ag30  1  0.00345180  0.16508726  0.16969948  1
  Ag  Ag31  1  0.33642007  0.00771543  0.33909616  1
  Ag  Ag32  1  0.32986845  0.16682994  0.17408626  1
  Ag  Ag33  1  0.84012907  0.16078013  0.65517387  1
  Ag  Ag34  1  0.83566474  0.84390139  0.66270364  1
  Ag  Ag35  1  0.67465772  -0.00128094  0.66544143  1
  Ag  Ag36  1  0.17329261  0.00723573  0.50287656  1
  Ag  Ag37  1  -0.00984981  0.00524169  0.33056387  1
  Ag  Ag38  1  0.49327180  0.00389149  0.83553069  1
  Ag  Ag39  1  0.49219884  0.16622889  0.33634614  1
  Ag  Ag40  1  0.16683330  0.16217963  0.66097639  1
  Ag  Ag41  1  0.65754320  0.67028656  0.00798621  1
  Ag  Ag42  1  0.33355244  -0.00176988  0.00020998  1
  Ag  Ag43  1  -0.00164425  0.49271673  0.16632813  1
  Ag  Ag44  1  0.17564849  0.49759111  0.00162790  1
  Ag  Ag45  1  0.33297423  0.66677017  0.66364959  1
  Ag  Ag46  1  0.00638647  0.32477408  0.00082051  1
  Ag  Ag47  1  0.32900258  0.17119348  0.49543861  1
  Ag  Ag48  1  0.33857050  0.65878024  0.33288837  1
  Ag  Ag49  1  0.48972425  0.32590595  0.49853531  1
  Ag  Ag50  1  0.33359903  0.00315263  0.65864701  1
  Ag  Ag51  1  0.17470893  0.33103231  0.83139276  1
  Ag  Ag52  1  0.49219515  0.49473445  0.32896536  1
  Ag  Ag53  1  0.83286748  0.49737383  0.65558512  1
  Sb  Sb54  1  0.17020530  0.66551685  0.83368404  1
  Sb  Sb55  1  0.16889582  0.00134512  0.16841684  1
  Sb  Sb56  1  0.83008800  0.67143908  0.17214376  1
  Sb  Sb57  1  0.00370867  0.32609649  0.33099204  1
  Sb  Sb58  1  0.66706574  -0.00357830  0.33629383  1
  Sb  Sb59  1  -0.00526614  0.83915924  0.16567263  1
  Sb  Sb60  1  0.33819842  0.83676982  0.16162622  1
  Sb  Sb61  1  0.66229013  0.34108265  0.00122979  1
  Sb  Sb62  1  0.66215932  0.33768004  0.33395480  1
  Sb  Sb63  1  0.00047207  0.00333492  0.66397610  1
  Sb  Sb64  1  0.17001458  0.16549889  0.34098930  1
  Sb  Sb65  1  0.50062896  0.66723523  0.16551200  1
  Sb  Sb66  1  0.66256791  0.83629840  0.83875238  1
  Sb  Sb67  1  0.00255060  0.66959661  0.00267216  1
  Sb  Sb68  1  0.32991498  0.16525174  0.83009733  1
  Sb  Sb69  1  0.66429696  -0.00542703  -0.00063825  1
  Sb  Sb70  1  0.33415482  0.49762891  0.83712946  1
  Sb  Sb71  1  0.83495323  0.32928430  0.17106860  1
  Sb  Sb72  1  0.83246792  0.67426079  0.82924486  1
  Sb  Sb73  1  0.33330217  0.83866275  0.50341881  1
  Sb  Sb74  1  0.50044494  0.66700090  0.49701277  1
  Sb  Sb75  1  0.66563610  0.16407356  0.16905859  1
  Sb  Sb76  1  0.16945744  0.33207571  0.16525395  1
  Sb  Sb77  1  0.00354034  0.84302531  0.83524093  1
  Sb  Sb78  1  0.16592284  0.83730885  0.33306355  1
  Sb  Sb79  1  0.00033969  0.49029052  0.83911790  1
  Sb  Sb80  1  0.16694510  0.66678907  0.50081262  1
  Sb  Sb81  1  0.17068022  0.66570564  0.16582643  1
  Sb  Sb82  1  0.66353293  0.32812897  0.66486832  1
  Sb  Sb83  1  0.49479879  0.16538188  0.00448689  1
  Sb  Sb84  1  0.16736949  0.16752787  -0.00526254  1
  Sb  Sb85  1  0.49509918  0.33163459  0.16977822  1
  Sb  Sb86  1  0.66594790  0.49997941  0.83794734  1
  Sb  Sb87  1  0.66952074  0.83474676  0.49449663  1
  Sb  Sb88  1  0.49688177  0.83937471  0.67173633  1
  Sb  Sb89  1  0.50305854  0.83588992  0.32796642  1
  Sb  Sb90  1  0.49980547  0.49738821  0.66471524  1
  Sb  Sb91  1  0.49631631  0.16407176  0.66047486  1
  Sb  Sb92  1  -0.00285223  0.66867043  0.33289341  1
  Sb  Sb93  1  0.83318960  0.50458434  0.00534694  1
  Sb  Sb94  1  0.66507186  0.67245457  0.66464626  1
  Sb  Sb95  1  0.83501695  0.32631130  0.82842992  1
  Sb  Sb96  1  0.66500903  0.50024717  0.49440231  1
  Sb  Sb97  1  0.00575566  0.32973941  0.66795072  1
  Sb  Sb98  1  0.66764946  0.16387845  0.49925090  1
  Sb  Sb99  1  0.49669422  0.66789907  0.83656434  1
  Sb  Sb100  1  0.17121803  0.49753402  0.32926359  1
  Sb  Sb101  1  0.16742410  0.00472970  0.83014006  1
  Sb  Sb102  1  0.16734384  0.49754470  0.66944311  1
  Sb  Sb103  1  0.83898377  0.15825345  0.00207066  1
  Sb  Sb104  1  0.00213244  0.66744237  0.66398016  1
  Sb  Sb105  1  -0.00267408  0.84404508  0.50003219  1
  Sb  Sb106  1  0.66955934  0.16325286  0.83231867  1
  Sb  Sb107  1  0.00058178  0.49155116  0.49518324  1
  Te  Te108  1  0.16630421  0.16639449  0.16593340  1
  Te  Te109  1  0.16765966  0.16582516  0.50272852  1
  Te  Te110  1  0.16247450  0.17175866  0.82559331  1
  Te  Te111  1  0.16994211  0.49899052  0.16069982  1
  Te  Te112  1  0.17109612  0.49776642  0.50127574  1
  Te  Te113  1  0.16465003  0.49211277  0.83991318  1
  Te  Te114  1  0.16371238  0.83319157  0.15785445  1
  Te  Te115  1  0.16465866  0.83613510  0.50585613  1
  Te  Te116  1  0.16997662  0.83329617  0.83293407  1
  Te  Te117  1  0.49815247  0.16177391  0.17310532  1
  Te  Te118  1  0.49818759  0.16617646  0.49638777  1
  Te  Te119  1  0.50025656  0.16492076  0.83279741  1
  Te  Te120  1  0.49763151  0.49829423  0.16822523  1
  Te  Te121  1  0.49500814  0.49870780  0.49635828  1
  Te  Te122  1  0.50181933  0.49453728  0.83627690  1
  Te  Te123  1  0.50505992  0.84091714  0.16128534  1
  Te  Te124  1  0.50175986  0.84160515  0.49964947  1
  Te  Te125  1  0.49488645  0.83857276  0.83914815  1
  Te  Te126  1  0.83406759  0.16188322  0.17220265  1
  Te  Te127  1  0.83192977  0.16551192  0.49817964  1
  Te  Te128  1  0.83886947  0.16091046  0.83208311  1
  Te  Te129  1  0.83334662  0.49969563  0.17069534  1
  Te  Te130  1  0.83432806  0.49984656  0.49702751  1
  Te  Te131  1  0.83369332  0.49973444  0.83057738  1
  Te  Te132  1  0.83027335  0.83709958  0.16736502  1
  Te  Te133  1  0.83383490  0.83802232  0.49993796  1
  Te  Te134  1  0.83391344  0.83951470  0.83130917  1
  Te  Te135  1  0.16722185  -0.00291307  -0.00139540  1
  Te  Te136  1  0.17207911  -0.00244136  0.33925173  1
  Te  Te137  1  0.16753726  0.00106535  0.66459096  1
  Te  Te138  1  0.16632894  0.33374205  -0.00099937  1
  Te  Te139  1  0.17361861  0.33354832  0.34277537  1
  Te  Te140  1  0.17162596  0.33347660  0.66660264  1
  Te  Te141  1  0.17163776  0.66885658  -0.00110139  1
  Te  Te142  1  0.17449988  0.66938230  0.33424685  1
  Te  Te143  1  0.17333703  0.66933761  0.66657617  1
  Te  Te144  1  0.49851445  -0.00087474  -0.00145548  1
  Te  Te145  1  0.49995522  0.00131188  0.33485853  1
  Te  Te146  1  0.49379400  0.00086953  0.66821126  1
  Te  Te147  1  0.49632098  0.33592346  -0.00223334  1
  Te  Te148  1  0.49644167  0.33339090  0.33663875  1
  Te  Te149  1  0.49503845  0.33215474  0.66449816  1
  Te  Te150  1  0.49731348  0.66644051  -0.00036266  1
  Te  Te151  1  0.49919536  0.66393890  0.33384674  1
  Te  Te152  1  0.49433600  0.66760456  0.66682083  1
  Te  Te153  1  0.83150926  -0.00341536  0.00427601  1
  Te  Te154  1  0.82914586  -0.00019633  0.33310937  1
  Te  Te155  1  0.83806357  0.00127824  0.66608828  1
  Te  Te156  1  0.83616618  0.33370086  -0.00199550  1
  Te  Te157  1  0.83406540  0.33630765  0.33636059  1
  Te  Te158  1  0.83230208  0.33384516  0.66421902  1
  Te  Te159  1  0.83322913  0.67381285  -0.00137667  1
  Te  Te160  1  0.83285648  0.66314055  0.33696731  1
  Te  Te161  1  0.83227122  0.66608647  0.66148125  1
  Te  Te162  1  0.00169755  0.16473588  0.00626891  1
  Te  Te163  1  -0.00359266  0.16381821  0.33246417  1
  Te  Te164  1  0.00060115  0.16800908  0.66405124  1
  Te  Te165  1  0.00138045  0.49918185  0.00597555  1
  Te  Te166  1  -0.00041511  0.49940427  0.32716550  1
  Te  Te167  1  -0.00603982  0.49904878  0.66640756  1
  Te  Te168  1  -0.00588339  0.83800043  0.00017307  1
  Te  Te169  1  -0.00580284  0.83962282  0.33240970  1
  Te  Te170  1  -0.00079626  0.83218610  0.66809261  1
  Te  Te171  1  0.33230865  0.16127504  0.00498637  1
  Te  Te172  1  0.33311400  0.16620771  0.33398280  1
  Te  Te173  1  0.33106270  0.16610788  0.66404518  1
  Te  Te174  1  0.33415759  0.50138547  -0.00189847  1
  Te  Te175  1  0.33321085  0.49948083  0.33131936  1
  Te  Te176  1  0.33319608  0.49897611  0.66623701  1
  Te  Te177  1  0.33531672  0.83584463  0.00080994  1
  Te  Te178  1  0.33365854  0.83286932  0.33071480  1
  Te  Te179  1  0.33170852  0.83853509  0.66972252  1
  Te  Te180  1  0.66689402  0.16948158  0.00118552  1
  Te  Te181  1  0.66888917  0.16907438  0.33202300  1
  Te  Te182  1  0.67569099  0.16011819  0.66701014  1
  Te  Te183  1  0.66410495  0.50821421  0.00559365  1
  Te  Te184  1  0.66751135  0.50373403  0.32962005  1
  Te  Te185  1  0.67265381  0.50239058  0.66725618  1
  Te  Te186  1  0.66835013  0.82965133  0.00378326  1
  Te  Te187  1  0.67075201  0.82687844  0.32714462  1
  Te  Te188  1  0.67223969  0.83675831  0.66807466  1
  Te  Te189  1  -0.00026003  0.00343666  0.16745259  1
  Te  Te190  1  -0.00378961  0.00689359  0.49544963  1
  Te  Te191  1  -0.00211099  0.00600798  0.84115223  1
  Te  Te192  1  0.00185458  0.33052756  0.16215405  1
  Te  Te193  1  -0.00537320  0.32604570  0.49944842  1
  Te  Te194  1  0.00199289  0.32477298  0.83958305  1
  Te  Te195  1  0.00016092  0.65709358  0.16785713  1
  Te  Te196  1  -0.00648191  0.66383167  0.49882589  1
  Te  Te197  1  0.00054875  0.66519770  0.83303456  1
  Te  Te198  1  0.33476101  0.00254235  0.16588841  1
  Te  Te199  1  0.33306521  0.00052784  0.49905423  1
  Te  Te200  1  0.33348070  0.00011331  0.83759831  1
  Te  Te201  1  0.33341239  0.33149652  0.15966534  1
  Te  Te202  1  0.33467723  0.33065360  0.49972762  1
  Te  Te203  1  0.33367632  0.33144710  0.84160351  1
  Te  Te204  1  0.33443748  0.66198087  0.16566649  1
  Te  Te205  1  0.33344421  0.66805458  0.49988435  1
  Te  Te206  1  0.33367154  0.67370042  0.83404731  1
  Te  Te207  1  0.66653792  -0.00300246  0.16736469  1
  Te  Te208  1  0.67126354  -0.00166776  0.50577846  1
  Te  Te209  1  0.66797716  -0.00076976  0.82702242  1
  Te  Te210  1  0.66666587  0.34199813  0.16606465  1
  Te  Te211  1  0.67270915  0.33463100  0.50093108  1
  Te  Te212  1  0.65715493  0.33201467  0.83258879  1
  Te  Te213  1  0.66632572  0.66709904  0.16758750  1
  Te  Te214  1  0.67167025  0.66747926  0.49610375  1
  Te  Te215  1  0.66539846  0.66768799  0.83958637  1
