# generated using pymatgen
data_AgSbTe2
_symmetry_space_group_name_H-M   'P 1'
_cell_length_a   18.34925010
_cell_length_b   18.35754789
_cell_length_c   18.34882388
_cell_angle_alpha   89.99961007
_cell_angle_beta   90.00125335
_cell_angle_gamma   89.99747245
_symmetry_Int_Tables_number   1
_chemical_formula_structural   AgSbTe2
_chemical_formula_sum   'Ag54 Sb54 Te108'
_cell_volume   6180.75062674
_cell_formula_units_Z   54
loop_
 _symmetry_equiv_pos_site_id
 _symmetry_equiv_pos_as_xyz
  1  'x, y, z'
loop_
 _atom_site_type_symbol
 _atom_site_label
 _atom_site_symmetry_multiplicity
 _atom_site_fract_x
 _atom_site_fract_y
 _atom_site_fract_z
 _atom_site_occupancy
  Ag  Ag0  1  -0.00261403  0.65845071  0.00835288  1
  Ag  Ag1  1  0.33750059  0.33437356  0.00428749  1
  Ag  Ag2  1  0.15873312  0.65887335  0.16609849  1
  Ag  Ag3  1  0.66280678  -0.01097969  0.00528722  1
  Ag  Ag4  1  0.00391031  0.34139159  0.31713517  1
  Ag  Ag5  1  0.16232218  0.49627886  0.00462494  1
  Ag  Ag6  1  0.33481855  0.49841404  0.16430504  1
  Ag  Ag7  1  0.17527098  0.83301457  0.66700084  1
  Ag  Ag8  1  0.16334562  0.33435704  0.84344005  1
  Ag  Ag9  1  0.00295390  0.18206353  0.83642809  1
  Ag  Ag10  1  0.82087763  0.66597476  0.49450698  1
  Ag  Ag11  1  0.49776234  -0.01279561  0.16453759  1
  Ag  Ag12  1  0.33495137  0.17302856  0.16639209  1
  Ag  Ag13  1  0.50383654  0.65807437  0.50280871  1
  Ag  Ag14  1  0.00237621  0.82099983  0.16467637  1
  Ag  Ag15  1  0.65787305  0.17984700  0.50303072  1
  Ag  Ag16  1  0.16302354  -0.00279909  0.16777903  1
  Ag  Ag17  1  0.50419357  0.50302367  0.33361595  1
  Ag  Ag18  1  0.50097323  0.82592620  0.32393825  1
  Ag  Ag19  1  -0.00083474  -0.00019149  0.00439396  1
  Ag  Ag20  1  0.34098705  0.83180923  0.16496366  1
  Ag  Ag21  1  0.00266494  -0.00571389  0.32013795  1
  Ag  Ag22  1  0.84849914  -0.00747588  0.16488870  1
  Ag  Ag23  1  0.16879572  0.16791989  0.66476627  1
  Ag  Ag24  1  0.84357695  0.66929665  0.16897499  1
  Ag  Ag25  1  0.65846396  0.82426732  0.16234302  1
  Ag  Ag26  1  0.66011790  0.34622551  0.67691009  1
  Ag  Ag27  1  0.66344819  0.66345149  0.66065169  1
  Ag  Ag28  1  0.50093727  0.33852356  0.49897624  1
  Ag  Ag29  1  0.33497357  0.16931894  0.49927174  1
  Ag  Ag30  1  0.17286956  0.32930425  0.50093317  1
  Ag  Ag31  1  0.33151766  -0.00396656  0.66381079  1
  Ag  Ag32  1  0.50356106  0.50295051  0.66141991  1
  Ag  Ag33  1  0.66674135  0.49886767  0.83689339  1
  Ag  Ag34  1  0.50365565  0.83505808  0.00635916  1
  Ag  Ag35  1  0.16755595  0.00692593  0.49908938  1
  Ag  Ag36  1  0.50663597  0.33489925  0.84533399  1
  Ag  Ag37  1  0.66667350  0.66370668  0.32661855  1
  Ag  Ag38  1  0.66285177  0.81865691  0.84535993  1
  Ag  Ag39  1  -0.00462829  0.66562039  0.32016952  1
  Ag  Ag40  1  0.66021918  0.50262247  0.50887977  1
  Ag  Ag41  1  -0.00131724  0.66577096  0.66731187  1
  Ag  Ag42  1  0.65981136  0.33865459  -0.00296331  1
  Ag  Ag43  1  0.49767289  0.82201910  0.66682549  1
  Ag  Ag44  1  -0.00188399  0.49855601  0.84589582  1
  Ag  Ag45  1  0.49246590  0.33637079  0.16298052  1
  Ag  Ag46  1  0.83367252  0.33595749  0.83587216  1
  Ag  Ag47  1  0.00651258  0.50888031  0.16287459  1
  Ag  Ag48  1  0.00730048  0.33999802  0.00104437  1
  Ag  Ag49  1  0.50118492  0.17785623  0.00329484  1
  Ag  Ag50  1  0.17174900  0.33691609  0.16116046  1
  Ag  Ag51  1  0.66490548  0.50651203  0.16152071  1
  Ag  Ag52  1  0.66742351  0.66412963  0.00944927  1
  Ag  Ag53  1  0.34558230  0.66885609  0.66440173  1
  Sb  Sb54  1  0.00062791  0.33932200  0.67275113  1
  Sb  Sb55  1  0.66857308  0.17423108  0.83139421  1
  Sb  Sb56  1  0.33549365  0.66253137  0.00206023  1
  Sb  Sb57  1  0.50025150  0.16926081  0.32896546  1
  Sb  Sb58  1  0.16890416  0.17353308  -0.00047017  1
  Sb  Sb59  1  0.33112107  0.16953656  0.83431911  1
  Sb  Sb60  1  0.50237201  0.66358663  0.17103018  1
  Sb  Sb61  1  0.49647599  0.00117056  0.49585163  1
  Sb  Sb62  1  0.83628543  0.49995741  0.00118057  1
  Sb  Sb63  1  0.16987087  0.83038745  0.00069216  1
  Sb  Sb64  1  0.00278422  0.83111373  0.49430919  1
  Sb  Sb65  1  0.50098614  0.00343837  0.84012461  1
  Sb  Sb66  1  0.50408162  0.66030788  0.82863259  1
  Sb  Sb67  1  0.66235904  0.82676698  0.49662208  1
  Sb  Sb68  1  0.83473162  0.33682707  0.16145589  1
  Sb  Sb69  1  0.00384005  0.16820587  0.50373305  1
  Sb  Sb70  1  -0.00397999  0.82762487  0.84000819  1
  Sb  Sb71  1  0.82944780  0.82898146  0.32799163  1
  Sb  Sb72  1  0.16865043  0.49964686  0.32657308  1
  Sb  Sb73  1  0.83651459  -0.00399411  0.49376614  1
  Sb  Sb74  1  0.82894722  0.50187165  0.33146185  1
  Sb  Sb75  1  0.33433038  0.00390068  0.00288089  1
  Sb  Sb76  1  0.82971866  0.82952726  0.66697010  1
  Sb  Sb77  1  0.83384826  0.16774198  0.33214661  1
  Sb  Sb78  1  0.17076323  0.50005178  0.67019545  1
  Sb  Sb79  1  0.33603603  0.49744458  0.83766671  1
  Sb  Sb80  1  0.33694873  0.33468782  0.66880527  1
  Sb  Sb81  1  0.00686441  0.16857702  0.16158388  1
  Sb  Sb82  1  0.82888198  0.33849079  0.50333210  1
  Sb  Sb83  1  0.16944968  0.83247807  0.33036877  1
  Sb  Sb84  1  0.16380198  0.66182776  0.83673447  1
  Sb  Sb85  1  0.33392824  0.83624533  0.49955216  1
  Sb  Sb86  1  0.83225393  0.00378156  0.84088004  1
  Sb  Sb87  1  0.32994584  -0.00058434  0.33173060  1
  Sb  Sb88  1  0.66018444  0.16764636  0.16624645  1
  Sb  Sb89  1  0.33721978  0.66600441  0.33322895  1
  Sb  Sb90  1  0.66733900  0.34009732  0.33024255  1
  Sb  Sb91  1  -0.00299485  0.50115344  0.49622581  1
  Sb  Sb92  1  0.83008105  0.66120311  0.83728903  1
  Sb  Sb93  1  0.83003804  0.16764865  0.00162217  1
  Sb  Sb94  1  0.16509411  0.00379456  0.83570371  1
  Sb  Sb95  1  0.82560651  0.50110159  0.66804159  1
  Sb  Sb96  1  0.82572364  0.83224996  0.00278652  1
  Sb  Sb97  1  0.00728077  -0.00471809  0.66903938  1
  Sb  Sb98  1  0.33988059  0.83268859  0.83465929  1
  Sb  Sb99  1  0.50236614  0.50019591  0.00288143  1
  Sb  Sb100  1  0.16595483  0.16732671  0.33448534  1
  Sb  Sb101  1  0.66901347  -0.00547438  0.32537879  1
  Sb  Sb102  1  0.49645046  0.16952744  0.66913413  1
  Sb  Sb103  1  0.33073286  0.33404001  0.32715455  1
  Sb  Sb104  1  0.65889799  -0.00522250  0.67105402  1
  Sb  Sb105  1  0.83682052  0.16806632  0.66752744  1
  Sb  Sb106  1  0.33967872  0.49547708  0.49579234  1
  Sb  Sb107  1  0.16848192  0.66443837  0.49868819  1
  Te  Te108  1  0.17421120  0.16988541  0.16701302  1
  Te  Te109  1  0.16900291  0.16709235  0.50237645  1
  Te  Te110  1  0.16354392  0.17085497  0.82993238  1
  Te  Te111  1  0.16509664  0.49734646  0.16586671  1
  Te  Te112  1  0.16817636  0.49405858  0.49917584  1
  Te  Te113  1  0.16422138  0.49535933  0.83759430  1
  Te  Te114  1  0.16243316  0.83853833  0.16555794  1
  Te  Te115  1  0.16838466  0.83610548  0.50604298  1
  Te  Te116  1  0.16663554  0.83357612  0.82886659  1
  Te  Te117  1  0.49529533  0.17748324  0.16391478  1
  Te  Te118  1  0.49764893  0.16789961  0.49922998  1
  Te  Te119  1  0.49978695  0.17399982  0.83942518  1
  Te  Te120  1  0.50160834  0.49791939  0.16710270  1
  Te  Te121  1  0.50071330  0.49897141  0.49930630  1
  Te  Te122  1  0.50292021  0.49318485  0.82940333  1
  Te  Te123  1  0.50030344  0.82796334  0.16645539  1
  Te  Te124  1  0.49808685  0.83364903  0.50664913  1
  Te  Te125  1  0.50527436  0.83614243  0.82770173  1
  Te  Te126  1  0.83015345  0.15896041  0.16761608  1
  Te  Te127  1  0.82826672  0.16501574  0.50050095  1
  Te  Te128  1  0.84074941  0.17246375  0.83311834  1
  Te  Te129  1  0.82791178  0.50462693  0.16715915  1
  Te  Te130  1  0.82549883  0.50686628  0.49985806  1
  Te  Te131  1  0.83357669  0.49486706  0.83295877  1
  Te  Te132  1  0.84039702  0.83215731  0.16612279  1
  Te  Te133  1  0.83409179  0.82638981  0.49893449  1
  Te  Te134  1  0.82297318  0.83502504  0.83286276  1
  Te  Te135  1  0.16517043  0.00019931  0.00402579  1
  Te  Te136  1  0.16247096  -0.00067326  0.33321540  1
  Te  Te137  1  0.16999878  -0.00062494  0.66719259  1
  Te  Te138  1  0.16565063  0.33404943  0.00196688  1
  Te  Te139  1  0.16188456  0.33397215  0.33593064  1
  Te  Te140  1  0.16808461  0.33250689  0.66150790  1
  Te  Te141  1  0.16503108  0.66299418  0.00396961  1
  Te  Te142  1  0.16060908  0.66689628  0.33025532  1
  Te  Te143  1  0.16242856  0.66788300  0.66597341  1
  Te  Te144  1  0.50077143  -0.00345545  0.00400559  1
  Te  Te145  1  0.50009070  -0.00325945  0.32725642  1
  Te  Te146  1  0.49399789  0.00053062  0.66635559  1
  Te  Te147  1  0.49910468  0.33786475  0.00202070  1
  Te  Te148  1  0.50087686  0.33690046  0.33565063  1
  Te  Te149  1  0.50221580  0.33346615  0.65876530  1
  Te  Te150  1  0.50334357  0.67160900  -0.00421731  1
  Te  Te151  1  0.50161317  0.66631864  0.33919151  1
  Te  Te152  1  0.50342089  0.66430569  0.66589516  1
  Te  Te153  1  0.83254550  0.00103406  0.00652412  1
  Te  Te154  1  0.84038660  -0.00120875  0.32719081  1
  Te  Te155  1  0.83377599  -0.00093668  0.66452441  1
  Te  Te156  1  0.83151644  0.33207875  -0.00395886  1
  Te  Te157  1  0.84428946  0.33347699  0.33365753  1
  Te  Te158  1  0.82408314  0.33261029  0.67153879  1
  Te  Te159  1  0.83330173  0.66700232  0.00488808  1
  Te  Te160  1  0.83401797  0.66671062  0.33163267  1
  Te  Te161  1  0.83384859  0.66690156  0.66500564  1
  Te  Te162  1  0.00027242  0.16585610  -0.00475161  1
  Te  Te163  1  -0.00098621  0.16695766  0.33533686  1
  Te  Te164  1  0.00598339  0.16509488  0.67283889  1
  Te  Te165  1  0.00049161  0.49934193  0.00254480  1
  Te  Te166  1  0.00050184  0.50180361  0.32939700  1
  Te  Te167  1  0.00195106  0.50454893  0.66471067  1
  Te  Te168  1  0.00228218  0.83446230  0.00299589  1
  Te  Te169  1  0.00178381  0.83170727  0.32737715  1
  Te  Te170  1  0.00061564  0.82870417  0.66928187  1
  Te  Te171  1  0.33810700  0.17085056  0.00353410  1
  Te  Te172  1  0.33378008  0.16651721  0.33488751  1
  Te  Te173  1  0.32943984  0.16640549  0.66396913  1
  Te  Te174  1  0.32802714  0.49704907  0.00466081  1
  Te  Te175  1  0.34134465  0.50105355  0.32558289  1
  Te  Te176  1  0.33897721  0.50507935  0.66678004  1
  Te  Te177  1  0.33903856  0.83325540  0.00290076  1
  Te  Te178  1  0.33926897  0.83239387  0.32662387  1
  Te  Te179  1  0.33510875  0.83142532  0.66776176  1
  Te  Te180  1  0.66155170  0.17353863  -0.00118448  1
  Te  Te181  1  0.66664644  0.16622268  0.34231230  1
  Te  Te182  1  0.66695928  0.16383565  0.66298797  1
  Te  Te183  1  0.66607818  0.50131999  -0.00116840  1
  Te  Te184  1  0.66326863  0.50358701  0.32744691  1
  Te  Te185  1  0.66310472  0.50258057  0.66762420  1
  Te  Te186  1  0.66299881  0.83145459  0.00276677  1
  Te  Te187  1  0.66136157  0.82782247  0.32747712  1
  Te  Te188  1  0.66223993  0.82914431  0.66677343  1
  Te  Te189  1  0.00364308  0.00828112  0.16445672  1
  Te  Te190  1  0.00529628  -0.00024848  0.49808285  1
  Te  Te191  1  -0.00215410  -0.00303002  0.84116121  1
  Te  Te192  1  -0.00088446  0.33347783  0.16080768  1
  Te  Te193  1  -0.00135524  0.33361950  0.50319751  1
  Te  Te194  1  0.00229129  0.33891779  0.83380817  1
  Te  Te195  1  0.00035457  0.66477073  0.16438382  1
  Te  Te196  1  0.00096246  0.66612206  0.50499558  1
  Te  Te197  1  -0.00257536  0.66051911  0.83330645  1
  Te  Te198  1  0.33612998  -0.00401347  0.16600065  1
  Te  Te199  1  0.32850741  0.00489602  0.50128354  1
  Te  Te200  1  0.33290692  0.00088485  0.82554338  1
  Te  Te201  1  0.33202191  0.33485060  0.16565788  1
  Te  Te202  1  0.33454869  0.33019556  0.49984794  1
  Te  Te203  1  0.32826923  0.33341355  0.83840839  1
  Te  Te204  1  0.32619068  0.66648395  0.16559047  1
  Te  Te205  1  0.33709195  0.66613049  0.50304879  1
  Te  Te206  1  0.33218529  0.66589579  0.82654002  1
  Te  Te207  1  0.65662371  0.00087239  0.16373690  1
  Te  Te208  1  0.66874623  -0.00050166  0.49867478  1
  Te  Te209  1  0.66751418  0.00149772  0.84119146  1
  Te  Te210  1  0.66773457  0.33592712  0.16294082  1
  Te  Te211  1  0.66531635  0.33830409  0.49729204  1
  Te  Te212  1  0.66526307  0.33567996  0.83457538  1
  Te  Te213  1  0.66329591  0.66687233  0.16692996  1
  Te  Te214  1  0.66386305  0.66534858  0.50099946  1
  Te  Te215  1  0.66828543  0.66147056  0.83381769  1
