# generated using pymatgen
data_AgSbTe2
_symmetry_space_group_name_H-M   'P 1'
_cell_length_a   18.34086543
_cell_length_b   18.35142253
_cell_length_c   18.34668276
_cell_angle_alpha   89.99756785
_cell_angle_beta   89.99885160
_cell_angle_gamma   90.00295132
_symmetry_Int_Tables_number   1
_chemical_formula_structural   AgSbTe2
_chemical_formula_sum   'Ag54 Sb54 Te108'
_cell_volume   6175.14428460
_cell_formula_units_Z   54
loop_
 _symmetry_equiv_pos_site_id
 _symmetry_equiv_pos_as_xyz
  1  'x, y, z'
loop_
 _atom_site_type_symbol
 _atom_site_label
 _atom_site_symmetry_multiplicity
 _atom_site_fract_x
 _atom_site_fract_y
 _atom_site_fract_z
 _atom_site_occupancy
  Ag  Ag0  1  0.00084870  0.16890977  0.16701443  1
  Ag  Ag1  1  0.33785177  0.49584300  0.49270490  1
  Ag  Ag2  1  0.33667010  0.65578722  0.32894262  1
  Ag  Ag3  1  0.65337964  0.50241612  0.50857293  1
  Ag  Ag4  1  0.49448179  0.33792580  0.17208609  1
  Ag  Ag5  1  0.00017079  0.66964749  -0.00416451  1
  Ag  Ag6  1  0.65757989  -0.01227099  -0.00644449  1
  Ag  Ag7  1  0.49756215  -0.00066802  0.50656462  1
  Ag  Ag8  1  0.84163780  0.17273959  0.67017430  1
  Ag  Ag9  1  0.66586740  0.51004174  0.82864674  1
  Ag  Ag10  1  0.33255889  0.33481297  0.66377268  1
  Ag  Ag11  1  0.00225996  0.49681372  0.51348398  1
  Ag  Ag12  1  0.49834717  0.34015867  0.83292405  1
  Ag  Ag13  1  0.33870111  0.66548649  -0.00275096  1
  Ag  Ag14  1  0.65622666  0.66955505  -0.00670198  1
  Ag  Ag15  1  0.83809435  0.83093630  0.67891705  1
  Ag  Ag16  1  0.66627759  0.66386608  0.67669912  1
  Ag  Ag17  1  0.16210516  0.82854625  0.67504353  1
  Ag  Ag18  1  0.83449956  0.82898590  -0.00492660  1
  Ag  Ag19  1  0.49135786  0.50113030  0.33771252  1
  Ag  Ag20  1  0.50140586  0.66846758  0.83584868  1
  Ag  Ag21  1  -0.00330756  0.82837395  0.83522375  1
  Ag  Ag22  1  0.49883823  0.82793080  0.33036033  1
  Ag  Ag23  1  0.49646319  0.50764011  -0.00244479  1
  Ag  Ag24  1  0.33878237  -0.01603422  -0.01024617  1
  Ag  Ag25  1  0.16929461  0.67070499  0.83405578  1
  Ag  Ag26  1  0.16166921  0.50367292  0.66486733  1
  Ag  Ag27  1  0.49145257  0.18094595  0.33816139  1
  Ag  Ag28  1  -0.00298873  0.16397952  0.82573112  1
  Ag  Ag29  1  0.83726373  0.66837300  0.16341069  1
  Ag  Ag30  1  0.00477131  0.50286722  0.16488195  1
  Ag  Ag31  1  0.83126683  0.83076413  0.33010410  1
  Ag  Ag32  1  0.00140918  0.00604845  0.67085133  1
  Ag  Ag33  1  0.00061357  0.33642447  0.66951902  1
  Ag  Ag34  1  0.33573650  0.34407542  0.34286218  1
  Ag  Ag35  1  0.16710605  0.82932807  -0.00857530  1
  Ag  Ag36  1  0.00502071  0.17481130  0.50842484  1
  Ag  Ag37  1  0.83638933  0.33500664  0.82979142  1
  Ag  Ag38  1  0.83178758  -0.01071415  0.83153654  1
  Ag  Ag39  1  0.49994123  0.82610254  -0.00507253  1
  Ag  Ag40  1  0.33170656  0.00060187  0.67032548  1
  Ag  Ag41  1  0.50070359  -0.01050024  0.83482767  1
  Ag  Ag42  1  0.33326310  0.17807137  0.49913416  1
  Ag  Ag43  1  0.33338446  0.49873580  0.17927585  1
  Ag  Ag44  1  0.33534111  0.83089019  0.83621490  1
  Ag  Ag45  1  0.17269285  0.17402420  0.33645036  1
  Ag  Ag46  1  0.17924770  0.49867163  0.34036498  1
  Ag  Ag47  1  0.84081267  0.50133276  0.67081872  1
  Ag  Ag48  1  -0.00305607  0.82454411  0.15145808  1
  Ag  Ag49  1  0.66566673  0.82693504  0.83627502  1
  Ag  Ag50  1  -0.00436451  0.50455163  0.83041375  1
  Ag  Ag51  1  0.49479990  0.34109188  0.49866685  1
  Ag  Ag52  1  0.33750319  0.34205173  -0.00337947  1
  Ag  Ag53  1  0.49912468  0.65838464  0.50376635  1
  Sb  Sb54  1  0.00472576  0.33960271  -0.00598663  1
  Sb  Sb55  1  0.00180403  -0.00815743  -0.00824258  1
  Sb  Sb56  1  -0.00196112  0.83040789  0.50694003  1
  Sb  Sb57  1  0.66974945  0.83036359  0.15637994  1
  Sb  Sb58  1  0.83103049  0.50720477  -0.00737205  1
  Sb  Sb59  1  0.00499410  0.66494590  0.32957181  1
  Sb  Sb60  1  0.33682548  0.00020471  0.33587943  1
  Sb  Sb61  1  0.33652253  0.66502294  0.66975323  1
  Sb  Sb62  1  0.00628574  0.33497693  0.33953335  1
  Sb  Sb63  1  0.83669785  -0.00641794  0.15845031  1
  Sb  Sb64  1  0.83356588  0.50278611  0.33670129  1
  Sb  Sb65  1  0.16796216  0.34001441  0.83077214  1
  Sb  Sb66  1  0.66029909  0.66719479  0.33158090  1
  Sb  Sb67  1  0.66909161  0.16674529  0.16586162  1
  Sb  Sb68  1  0.32968731  0.16387964  0.82905638  1
  Sb  Sb69  1  0.17432887  0.33573133  0.50102867  1
  Sb  Sb70  1  0.49986053  0.66266384  0.16324133  1
  Sb  Sb71  1  0.16333403  0.16861130  0.66436067  1
  Sb  Sb72  1  0.65962776  0.33874699  -0.00433864  1
  Sb  Sb73  1  0.49889292  0.83261493  0.67435588  1
  Sb  Sb74  1  0.83005345  0.67004643  0.83736714  1
  Sb  Sb75  1  0.83076728  0.33478597  0.50642293  1
  Sb  Sb76  1  0.17010581  0.82813565  0.33306349  1
  Sb  Sb77  1  0.65603909  0.33672073  0.33424779  1
  Sb  Sb78  1  0.49792615  0.16730701  0.00152240  1
  Sb  Sb79  1  0.33693810  0.83033681  0.50592595  1
  Sb  Sb80  1  0.66925379  0.16624370  0.83154664  1
  Sb  Sb81  1  0.83699459  0.15975706  -0.00793703  1
  Sb  Sb82  1  0.17152020  0.33611383  0.16690266  1
  Sb  Sb83  1  0.33115871  0.17349734  0.17174453  1
  Sb  Sb84  1  0.16608973  -0.00041219  0.16600028  1
  Sb  Sb85  1  0.82887056  -0.00075492  0.50971759  1
  Sb  Sb86  1  0.17199861  0.66224063  0.50630657  1
  Sb  Sb87  1  0.16716282  -0.00868114  0.83160760  1
  Sb  Sb88  1  0.50054111  0.16718556  0.66348970  1
  Sb  Sb89  1  -0.00446781  0.66393312  0.67336757  1
  Sb  Sb90  1  0.66181160  0.17175921  0.50212591  1
  Sb  Sb91  1  0.83290303  0.33851196  0.15838385  1
  Sb  Sb92  1  0.16494889  0.66492529  0.15887043  1
  Sb  Sb93  1  0.66658168  0.34037859  0.66906888  1
  Sb  Sb94  1  0.49812062  0.00186079  0.16310005  1
  Sb  Sb95  1  0.16709316  0.16074677  0.00121656  1
  Sb  Sb96  1  0.49825000  0.49989795  0.66737319  1
  Sb  Sb97  1  0.00000777  0.00011923  0.33997718  1
  Sb  Sb98  1  0.66655954  -0.00618805  0.67371607  1
  Sb  Sb99  1  0.17169236  0.50657994  -0.00244540  1
  Sb  Sb100  1  0.33560325  0.50403889  0.83041099  1
  Sb  Sb101  1  0.83654310  0.16319851  0.33873883  1
  Sb  Sb102  1  0.82873259  0.66518035  0.49941426  1
  Sb  Sb103  1  0.66275438  0.50267669  0.16372907  1
  Sb  Sb104  1  0.66273779  0.82809148  0.50733518  1
  Sb  Sb105  1  0.33099302  0.82716828  0.15871297  1
  Sb  Sb106  1  0.17165013  0.00099696  0.50338319  1
  Sb  Sb107  1  0.66361030  -0.00360853  0.33097457  1
  Te  Te108  1  0.16137822  0.16728211  0.17223010  1
  Te  Te109  1  0.16623559  0.16703850  0.49649306  1
  Te  Te110  1  0.15780827  0.16722391  0.83347730  1
  Te  Te111  1  0.16785729  0.50016509  0.16912506  1
  Te  Te112  1  0.16199958  0.50078263  0.50021823  1
  Te  Te113  1  0.16244112  0.50659637  0.83067613  1
  Te  Te114  1  0.15841940  0.83292909  0.16573781  1
  Te  Te115  1  0.16714719  0.83165680  0.50380337  1
  Te  Te116  1  0.16754849  0.83074691  0.83308771  1
  Te  Te117  1  0.50074192  0.17184677  0.17459012  1
  Te  Te118  1  0.49725029  0.16506039  0.49728076  1
  Te  Te119  1  0.49979680  0.16960708  0.83217854  1
  Te  Te120  1  0.49794628  0.49724243  0.16379716  1
  Te  Te121  1  0.49698395  0.50108494  0.50270630  1
  Te  Te122  1  0.50061767  0.50167120  0.83426895  1
  Te  Te123  1  0.49961630  0.83345485  0.16763746  1
  Te  Te124  1  0.50064106  0.83451670  0.49611459  1
  Te  Te125  1  0.49944541  0.83151026  0.83520326  1
  Te  Te126  1  0.83823271  0.16793162  0.16796504  1
  Te  Te127  1  0.83845187  0.16671032  0.50522529  1
  Te  Te128  1  0.83720623  0.17086216  0.82904775  1
  Te  Te129  1  0.83530467  0.50317512  0.16683110  1
  Te  Te130  1  0.84241955  0.49931444  0.50463998  1
  Te  Te131  1  0.83355565  0.49741869  0.83096993  1
  Te  Te132  1  0.83726771  0.83063995  0.16682790  1
  Te  Te133  1  0.83072556  0.83361180  0.49276332  1
  Te  Te134  1  0.83406478  0.83245602  0.83530469  1
  Te  Te135  1  0.17504632  -0.00737733  -0.00023527  1
  Te  Te136  1  0.16796167  0.00342395  0.33455631  1
  Te  Te137  1  0.16755669  -0.00417927  0.66608270  1
  Te  Te138  1  0.17518994  0.33293028  -0.00103196  1
  Te  Te139  1  0.17328932  0.33557966  0.33323571  1
  Te  Te140  1  0.16560971  0.33822874  0.66689252  1
  Te  Te141  1  0.16558140  0.67128504  -0.00608749  1
  Te  Te142  1  0.17460006  0.66191997  0.33439027  1
  Te  Te143  1  0.16810960  0.66693709  0.67237681  1
  Te  Te144  1  0.49772498  0.00090337  -0.00317188  1
  Te  Te145  1  0.50036356  -0.00792351  0.33375497  1
  Te  Te146  1  0.49695819  0.00023519  0.66961734  1
  Te  Te147  1  0.49666207  0.33363903  -0.00576176  1
  Te  Te148  1  0.49481961  0.33830918  0.33592965  1
  Te  Te149  1  0.49657923  0.33212864  0.66856083  1
  Te  Te150  1  0.49914303  0.66688395  0.00023781  1
  Te  Te151  1  0.49658367  0.66451692  0.33025448  1
  Te  Te152  1  0.50441843  0.66807935  0.66756053  1
  Te  Te153  1  0.83314661  -0.00725839  -0.00824452  1
  Te  Te154  1  0.83165153  -0.00588575  0.33348865  1
  Te  Te155  1  0.83457067  -0.00772671  0.67209811  1
  Te  Te156  1  0.83275366  0.33245454  -0.00861936  1
  Te  Te157  1  0.83095273  0.33160636  0.33022367  1
  Te  Te158  1  0.83559795  0.33640651  0.67054214  1
  Te  Te159  1  0.84070300  0.67027259  0.00334418  1
  Te  Te160  1  0.83346510  0.67103786  0.32821752  1
  Te  Te161  1  0.82706490  0.66674778  0.66326380  1
  Te  Te162  1  0.00179660  0.16776941  0.00275674  1
  Te  Te163  1  0.00342461  0.16745592  0.33394659  1
  Te  Te164  1  0.00157004  0.16734694  0.66757312  1
  Te  Te165  1  0.00141929  0.50430094  0.00240759  1
  Te  Te166  1  0.00093251  0.49869623  0.32459970  1
  Te  Te167  1  0.00052618  0.50065544  0.67024994  1
  Te  Te168  1  -0.00014547  0.83256976  -0.00411054  1
  Te  Te169  1  0.00017313  0.83344815  0.33569891  1
  Te  Te170  1  -0.00083005  0.83202153  0.66988854  1
  Te  Te171  1  0.33138736  0.17236349  0.00124236  1
  Te  Te172  1  0.33342203  0.16603450  0.33778447  1
  Te  Te173  1  0.33189039  0.16701732  0.66140023  1
  Te  Te174  1  0.33597888  0.50196746  -0.00446351  1
  Te  Te175  1  0.33537821  0.49967462  0.33503472  1
  Te  Te176  1  0.32699605  0.49743672  0.66341845  1
  Te  Te177  1  0.33630410  0.82768346  -0.00215272  1
  Te  Te178  1  0.33518391  0.83128158  0.33075522  1
  Te  Te179  1  0.33033491  0.83606763  0.67235103  1
  Te  Te180  1  0.66816875  0.16163063  0.00049926  1
  Te  Te181  1  0.66194588  0.16529340  0.33371559  1
  Te  Te182  1  0.67899116  0.16601741  0.66523569  1
  Te  Te183  1  0.66129789  0.50570800  -0.00448472  1
  Te  Te184  1  0.66380140  0.50090716  0.33763777  1
  Te  Te185  1  0.66843380  0.50350470  0.66773083  1
  Te  Te186  1  0.66318098  0.83024478  -0.00409946  1
  Te  Te187  1  0.66472567  0.83287785  0.33450851  1
  Te  Te188  1  0.67192432  0.82776282  0.67362714  1
  Te  Te189  1  -0.00034012  0.00401554  0.16831979  1
  Te  Te190  1  -0.00132330  0.00139343  0.50820128  1
  Te  Te191  1  -0.00170438  -0.00070849  0.82973193  1
  Te  Te192  1  -0.00067877  0.33546720  0.16616742  1
  Te  Te193  1  -0.00198941  0.33352034  0.50580297  1
  Te  Te194  1  0.00003859  0.33761129  0.83023526  1
  Te  Te195  1  -0.00026398  0.66658227  0.16342153  1
  Te  Te196  1  0.00032204  0.66040350  0.49824090  1
  Te  Te197  1  0.00057623  0.66675027  0.83512559  1
  Te  Te198  1  0.33301024  0.00055245  0.15927580  1
  Te  Te199  1  0.33900443  -0.00122016  0.50443857  1
  Te  Te200  1  0.33648044  -0.00042411  0.83167493  1
  Te  Te201  1  0.33701693  0.33825368  0.16290639  1
  Te  Te202  1  0.33730015  0.33479863  0.50207687  1
  Te  Te203  1  0.33511875  0.33206261  0.82978914  1
  Te  Te204  1  0.33267405  0.66051138  0.16388891  1
  Te  Te205  1  0.33932878  0.66298259  0.49939799  1
  Te  Te206  1  0.33763079  0.66977084  0.83510705  1
  Te  Te207  1  0.66776327  -0.00002938  0.15653169  1
  Te  Te208  1  0.65832531  0.00167023  0.50131829  1
  Te  Te209  1  0.66378794  -0.00049311  0.83637762  1
  Te  Te210  1  0.65890673  0.33388345  0.16479702  1
  Te  Te211  1  0.65945380  0.34045838  0.50106435  1
  Te  Te212  1  0.66243448  0.33621994  0.83325773  1
  Te  Te213  1  0.67491697  0.66581628  0.15988487  1
  Te  Te214  1  0.66010807  0.66114283  0.49947026  1
  Te  Te215  1  0.66559240  0.66680776  0.83598373  1
