# generated using pymatgen
data_AgSbTe2
_symmetry_space_group_name_H-M   'P 1'
_cell_length_a   18.33841034
_cell_length_b   18.33718575
_cell_length_c   18.33401144
_cell_angle_alpha   89.99812752
_cell_angle_beta   89.99808473
_cell_angle_gamma   89.99518220
_symmetry_Int_Tables_number   1
_chemical_formula_structural   AgSbTe2
_chemical_formula_sum   'Ag54 Sb54 Te108'
_cell_volume   6165.26667670
_cell_formula_units_Z   54
loop_
 _symmetry_equiv_pos_site_id
 _symmetry_equiv_pos_as_xyz
  1  'x, y, z'
loop_
 _atom_site_type_symbol
 _atom_site_label
 _atom_site_symmetry_multiplicity
 _atom_site_fract_x
 _atom_site_fract_y
 _atom_site_fract_z
 _atom_site_occupancy
  Ag  Ag0  1  0.84229903  0.00387446  0.83886434  1
  Ag  Ag1  1  0.50725827  0.49485280  0.32878070  1
  Ag  Ag2  1  0.67990450  0.33288439  0.00136247  1
  Ag  Ag3  1  0.15907283  0.84756546  0.00426350  1
  Ag  Ag4  1  0.67617679  0.33579325  0.66691276  1
  Ag  Ag5  1  0.33694353  0.33124621  0.33145902  1
  Ag  Ag6  1  0.83304644  0.65322296  0.83760401  1
  Ag  Ag7  1  0.67029974  0.17507375  0.49570673  1
  Ag  Ag8  1  0.82958791  0.17628042  0.32831555  1
  Ag  Ag9  1  0.32513610  0.00267267  0.67018398  1
  Ag  Ag10  1  0.50730454  0.65731797  0.83666357  1
  Ag  Ag11  1  0.15844826  0.00842804  0.84676249  1
  Ag  Ag12  1  0.31784308  -0.00232381  0.00164737  1
  Ag  Ag13  1  0.83835916  0.33607377  0.84494269  1
  Ag  Ag14  1  0.00406437  0.00987382  0.68013600  1
  Ag  Ag15  1  0.33832856  0.49585040  0.16580315  1
  Ag  Ag16  1  -0.00610078  0.49451006  0.83739982  1
  Ag  Ag17  1  0.32475380  0.66972866  0.00368557  1
  Ag  Ag18  1  0.33256823  0.16506102  0.49342738  1
  Ag  Ag19  1  -0.01302392  0.33276672  0.32691332  1
  Ag  Ag20  1  0.84200240  0.83722011  0.00172606  1
  Ag  Ag21  1  0.16630310  0.33209483  0.50199379  1
  Ag  Ag22  1  0.49872606  0.83122683  0.32992157  1
  Ag  Ag23  1  -0.00061580  0.67234112  0.00135654  1
  Ag  Ag24  1  0.83205438  0.48768525  -0.00275045  1
  Ag  Ag25  1  0.16654809  -0.00337136  0.15852865  1
  Ag  Ag26  1  -0.00465300  0.32941362  0.67733899  1
  Ag  Ag27  1  0.50260231  0.17645566  0.33318344  1
  Ag  Ag28  1  0.33086366  0.83813777  0.49220497  1
  Ag  Ag29  1  0.00469017  0.83959249  0.16008496  1
  Ag  Ag30  1  0.83430564  0.00211349  0.50487253  1
  Ag  Ag31  1  0.83990103  0.17306689  0.00415988  1
  Ag  Ag32  1  0.50796849  0.33858337  0.83507819  1
  Ag  Ag33  1  0.82921247  0.49513832  0.67416038  1
  Ag  Ag34  1  0.83632600  0.66361081  0.50305817  1
  Ag  Ag35  1  0.66644994  0.49612091  0.16839799  1
  Ag  Ag36  1  0.82789633  0.49121521  0.32993490  1
  Ag  Ag37  1  0.83460981  0.33414307  0.15853102  1
  Ag  Ag38  1  0.32619391  0.16693503  0.16929022  1
  Ag  Ag39  1  0.50706437  0.49831436  -0.00031972  1
  Ag  Ag40  1  0.50683399  0.49601758  0.67818668  1
  Ag  Ag41  1  0.16455637  0.66382393  0.49948347  1
  Ag  Ag42  1  0.00338685  0.16628874  0.16237476  1
  Ag  Ag43  1  0.68093561  0.00704712  0.00074061  1
  Ag  Ag44  1  0.16787910  0.67169105  0.15822523  1
  Ag  Ag45  1  0.32868613  0.83531229  0.16545956  1
  Ag  Ag46  1  0.15776033  0.15975800  0.00035591  1
  Ag  Ag47  1  0.15713903  0.32759137  0.83300572  1
  Ag  Ag48  1  0.67177348  0.33435738  0.33270682  1
  Ag  Ag49  1  0.67004734  0.83039701  0.16482465  1
  Ag  Ag50  1  0.67023192  0.49134529  0.49350937  1
  Ag  Ag51  1  -0.00549685  0.32989481  -0.00202072  1
  Ag  Ag52  1  0.16506627  0.16688797  0.67216193  1
  Ag  Ag53  1  0.00241809  0.00475265  -0.00255557  1
  Sb  Sb54  1  0.33317920  0.66279608  0.32727792  1
  Sb  Sb55  1  0.83400823  0.83193273  0.67222983  1
  Sb  Sb56  1  0.49657337  0.17311651  0.66235614  1
  Sb  Sb57  1  0.50189267  0.00165422  0.49984001  1
  Sb  Sb58  1  0.00351183  0.83415746  0.49268326  1
  Sb  Sb59  1  -0.00143871  0.66087077  0.32806976  1
  Sb  Sb60  1  0.50517863  0.33531770  0.16585618  1
  Sb  Sb61  1  0.16327218  0.49644918  0.00019859  1
  Sb  Sb62  1  0.49559966  -0.00031589  0.16519968  1
  Sb  Sb63  1  -0.00771219  0.49751206  0.50283148  1
  Sb  Sb64  1  -0.00231093  0.49671851  0.16066832  1
  Sb  Sb65  1  0.83396133  0.33462577  0.49919889  1
  Sb  Sb66  1  -0.00063466  0.83416322  0.84116940  1
  Sb  Sb67  1  0.16461698  0.49235652  0.66683417  1
  Sb  Sb68  1  0.49967296  0.66312175  0.50198288  1
  Sb  Sb69  1  0.33069376  0.33273467  0.00521316  1
  Sb  Sb70  1  0.33404200  0.49882140  0.83949421  1
  Sb  Sb71  1  -0.00246223  0.00616314  0.32737875  1
  Sb  Sb72  1  0.83792841  0.00564744  0.15931934  1
  Sb  Sb73  1  0.50103888  0.33410621  0.49902351  1
  Sb  Sb74  1  0.66913706  0.17151189  0.83248237  1
  Sb  Sb75  1  0.49868079  0.00216558  0.83604471  1
  Sb  Sb76  1  0.33729793  0.49778470  0.49458041  1
  Sb  Sb77  1  0.33273515  0.83493508  0.83998381  1
  Sb  Sb78  1  0.67225394  0.49657611  0.83737226  1
  Sb  Sb79  1  0.33199727  0.66962838  0.67048825  1
  Sb  Sb80  1  0.66786559  0.65584243  0.66629487  1
  Sb  Sb81  1  0.33357281  0.00442944  0.32984060  1
  Sb  Sb82  1  0.49834574  0.82911044  0.66288608  1
  Sb  Sb83  1  0.00053779  0.17255535  0.84173737  1
  Sb  Sb84  1  0.66835689  0.00663103  0.32719427  1
  Sb  Sb85  1  0.17123729  0.83207817  0.32423138  1
  Sb  Sb86  1  0.66879622  0.83457166  0.84128605  1
  Sb  Sb87  1  0.16637533  0.16963775  0.32978358  1
  Sb  Sb88  1  0.16519802  0.49644488  0.33208749  1
  Sb  Sb89  1  0.67091453  0.66192166  0.00071462  1
  Sb  Sb90  1  0.66554490  0.83399510  0.49179535  1
  Sb  Sb91  1  0.66928961  0.17004849  0.16882892  1
  Sb  Sb92  1  0.32984464  0.16753235  0.83700865  1
  Sb  Sb93  1  0.83962906  0.17225297  0.66824047  1
  Sb  Sb94  1  -0.00103377  0.16961792  0.49552894  1
  Sb  Sb95  1  0.16573123  0.84057382  0.67103063  1
  Sb  Sb96  1  0.49896879  0.82827158  0.00474347  1
  Sb  Sb97  1  0.49518276  0.66390912  0.16164785  1
  Sb  Sb98  1  0.50032961  0.17204967  0.00514253  1
  Sb  Sb99  1  0.67068740  0.00823467  0.67075709  1
  Sb  Sb100  1  0.16243176  0.66528702  0.83730359  1
  Sb  Sb101  1  0.82947039  0.83332381  0.32634291  1
  Sb  Sb102  1  0.66722606  0.65621576  0.33179452  1
  Sb  Sb103  1  0.16484480  0.00327280  0.50047505  1
  Sb  Sb104  1  -0.00130624  0.66375270  0.67248838  1
  Sb  Sb105  1  0.33127027  0.32902848  0.66325809  1
  Sb  Sb106  1  0.16170344  0.33191294  0.16424554  1
  Sb  Sb107  1  0.83767961  0.66139437  0.16089664  1
  Te  Te108  1  0.16584728  0.16665844  0.16336465  1
  Te  Te109  1  0.17046385  0.16893250  0.50007956  1
  Te  Te110  1  0.16667183  0.16670367  0.83431960  1
  Te  Te111  1  0.17290991  0.50513993  0.16720789  1
  Te  Te112  1  0.16793785  0.49989494  0.50081156  1
  Te  Te113  1  0.16172254  0.49536962  0.83174686  1
  Te  Te114  1  0.16719186  0.83223391  0.16340006  1
  Te  Te115  1  0.17118646  0.83208390  0.49969034  1
  Te  Te116  1  0.16698829  0.83692646  0.84039438  1
  Te  Te117  1  0.49326494  0.16724840  0.17345601  1
  Te  Te118  1  0.49670494  0.16715961  0.49406384  1
  Te  Te119  1  0.49937745  0.17518471  0.83231023  1
  Te  Te120  1  0.50093462  0.50000635  0.16589804  1
  Te  Te121  1  0.50589016  0.50125221  0.49290466  1
  Te  Te122  1  0.49902719  0.49859332  0.83630248  1
  Te  Te123  1  0.49716396  0.83172618  0.17054653  1
  Te  Te124  1  0.49435321  0.83195470  0.49410224  1
  Te  Te125  1  0.50099281  0.82675943  0.83214608  1
  Te  Te126  1  0.83429570  0.17069366  0.16672401  1
  Te  Te127  1  0.83178479  0.16340920  0.49982362  1
  Te  Te128  1  0.83319515  0.16597203  0.83749965  1
  Te  Te129  1  0.83130088  0.49663434  0.16599357  1
  Te  Te130  1  0.82938111  0.50301385  0.49889874  1
  Te  Te131  1  0.83329188  0.49663326  0.83495737  1
  Te  Te132  1  0.83320296  0.83230392  0.16258615  1
  Te  Te133  1  0.83363837  0.83057735  0.49922482  1
  Te  Te134  1  0.83262713  0.83861557  0.83948824  1
  Te  Te135  1  0.16287432  0.00276899  0.00198264  1
  Te  Te136  1  0.16516786  0.00030409  0.32670958  1
  Te  Te137  1  0.16495909  0.00491142  0.66690741  1
  Te  Te138  1  0.16346013  0.32859128  -0.00353670  1
  Te  Te139  1  0.17038870  0.33318778  0.33640842  1
  Te  Te140  1  0.16396980  0.32887438  0.66834658  1
  Te  Te141  1  0.16515014  0.66353166  -0.00049744  1
  Te  Te142  1  0.16518526  0.66499439  0.33947251  1
  Te  Te143  1  0.16585637  0.66781074  0.66307373  1
  Te  Te144  1  0.50311651  0.00095001  -0.00223046  1
  Te  Te145  1  0.50094379  -0.00053061  0.33362050  1
  Te  Te146  1  0.49585586  -0.00060305  0.66902475  1
  Te  Te147  1  0.49836095  0.33788678  -0.00350953  1
  Te  Te148  1  0.49991669  0.33467071  0.33284610  1
  Te  Te149  1  0.50074033  0.33762818  0.67015950  1
  Te  Te150  1  0.50051074  0.66062153  -0.00484981  1
  Te  Te151  1  0.50001429  0.66418573  0.33344610  1
  Te  Te152  1  0.49983749  0.65949964  0.67355282  1
  Te  Te153  1  0.83758237  -0.00088312  -0.00021224  1
  Te  Te154  1  0.83265794  0.00205352  0.33929501  1
  Te  Te155  1  0.83733581  0.00076721  0.67080811  1
  Te  Te156  1  0.83450526  0.33223995  0.00065102  1
  Te  Te157  1  0.83130163  0.33259725  0.33828642  1
  Te  Te158  1  0.83527663  0.33585866  0.66572694  1
  Te  Te159  1  0.83673316  0.67184950  -0.00256229  1
  Te  Te160  1  0.83433149  0.66443547  0.33821981  1
  Te  Te161  1  0.83447886  0.66183250  0.66962408  1
  Te  Te162  1  -0.00082568  0.16708652  0.00295589  1
  Te  Te163  1  -0.00526697  0.17288326  0.32704643  1
  Te  Te164  1  0.00436195  0.16754364  0.66260066  1
  Te  Te165  1  -0.00408527  0.49464015  -0.00210950  1
  Te  Te166  1  -0.00678254  0.49310273  0.33266412  1
  Te  Te167  1  -0.00406526  0.49570216  0.67218037  1
  Te  Te168  1  0.00149177  0.83277636  0.00297911  1
  Te  Te169  1  -0.00070645  0.83221514  0.32331481  1
  Te  Te170  1  -0.00010480  0.83935842  0.66331633  1
  Te  Te171  1  0.33340104  0.16256185  0.00565709  1
  Te  Te172  1  0.33378163  0.16883744  0.33227604  1
  Te  Te173  1  0.32924724  0.16193230  0.66251825  1
  Te  Te174  1  0.33474661  0.50288930  0.00552254  1
  Te  Te175  1  0.33666547  0.49540923  0.32804705  1
  Te  Te176  1  0.33967410  0.50047849  0.66492697  1
  Te  Te177  1  0.33374195  0.83382695  0.00511840  1
  Te  Te178  1  0.33714984  0.83296156  0.33118781  1
  Te  Te179  1  0.33321909  0.83940418  0.66225436  1
  Te  Te180  1  0.66856664  0.17002781  0.00067400  1
  Te  Te181  1  0.66713224  0.17131031  0.33516719  1
  Te  Te182  1  0.66567788  0.17357702  0.65784126  1
  Te  Te183  1  0.66848941  0.49629261  0.00421116  1
  Te  Te184  1  0.66779182  0.49496665  0.33094304  1
  Te  Te185  1  0.66694222  0.49416669  0.66311019  1
  Te  Te186  1  0.66669863  0.83399897  0.00625926  1
  Te  Te187  1  0.66057501  0.83528073  0.32588115  1
  Te  Te188  1  0.66525058  0.83626677  0.66370872  1
  Te  Te189  1  0.00321460  0.00153242  0.16279362  1
  Te  Te190  1  -0.00461123  -0.00005252  0.49829031  1
  Te  Te191  1  0.00062560  -0.00184813  0.83489598  1
  Te  Te192  1  -0.00318380  0.33074640  0.16565283  1
  Te  Te193  1  0.00704687  0.33382789  0.49900075  1
  Te  Te194  1  -0.00188266  0.33371447  0.83464236  1
  Te  Te195  1  0.00546959  0.66753241  0.16149980  1
  Te  Te196  1  0.00015010  0.66708306  0.50058096  1
  Te  Te197  1  -0.00488984  0.66135885  0.83936794  1
  Te  Te198  1  0.32953652  0.00003835  0.16338059  1
  Te  Te199  1  0.33305181  0.00093775  0.50099023  1
  Te  Te200  1  0.33068092  0.00026619  0.83518558  1
  Te  Te201  1  0.33130374  0.33310613  0.16996944  1
  Te  Te202  1  0.32920373  0.33020109  0.49558328  1
  Te  Te203  1  0.33057121  0.33372311  0.83276171  1
  Te  Te204  1  0.32912724  0.66893462  0.16286584  1
  Te  Te205  1  0.33041122  0.66938818  0.50082127  1
  Te  Te206  1  0.33322133  0.66699423  0.83966408  1
  Te  Te207  1  0.66671509  -0.00188224  0.15996505  1
  Te  Te208  1  0.67270358  0.00297835  0.50155917  1
  Te  Te209  1  0.66957058  0.00243391  0.83965180  1
  Te  Te210  1  0.67111488  0.33554290  0.16581130  1
  Te  Te211  1  0.66590870  0.33334896  0.49961555  1
  Te  Te212  1  0.66780451  0.33359349  0.83390747  1
  Te  Te213  1  0.66667933  0.66764539  0.16649765  1
  Te  Te214  1  0.67242543  0.66502019  0.49983006  1
  Te  Te215  1  0.67005870  0.66821774  0.83285082  1
