# generated using pymatgen
data_AgSbTe2
_symmetry_space_group_name_H-M   'P 1'
_cell_length_a   18.33518544
_cell_length_b   18.34444647
_cell_length_c   18.34287322
_cell_angle_alpha   90.00102502
_cell_angle_beta   89.99810742
_cell_angle_gamma   89.99845014
_symmetry_Int_Tables_number   1
_chemical_formula_structural   AgSbTe2
_chemical_formula_sum   'Ag54 Sb54 Te108'
_cell_volume   6169.60390265
_cell_formula_units_Z   54
loop_
 _symmetry_equiv_pos_site_id
 _symmetry_equiv_pos_as_xyz
  1  'x, y, z'
loop_
 _atom_site_type_symbol
 _atom_site_label
 _atom_site_symmetry_multiplicity
 _atom_site_fract_x
 _atom_site_fract_y
 _atom_site_fract_z
 _atom_site_occupancy
  Ag  Ag0  1  0.83847757  0.16610843  0.66698581  1
  Ag  Ag1  1  0.83467638  0.33656083  0.83493542  1
  Ag  Ag2  1  0.49340114  0.67014557  0.50396563  1
  Ag  Ag3  1  0.83505026  0.16465279  0.00443876  1
  Ag  Ag4  1  -0.00431125  0.50215191  0.50890294  1
  Ag  Ag5  1  0.83715160  0.65973887  0.83269987  1
  Ag  Ag6  1  -0.00400363  0.16543449  0.83727526  1
  Ag  Ag7  1  0.17854583  -0.00284638  0.50188694  1
  Ag  Ag8  1  0.83062662  0.32640425  0.15785150  1
  Ag  Ag9  1  0.83471386  0.49265434  0.34695725  1
  Ag  Ag10  1  -0.01027129  0.49846966  0.82973537  1
  Ag  Ag11  1  0.33817320  0.00172903  0.34367086  1
  Ag  Ag12  1  0.49884844  0.00511809  0.82253303  1
  Ag  Ag13  1  0.34556343  0.00491162  0.65591651  1
  Ag  Ag14  1  0.67661020  0.00527157  -0.00123819  1
  Ag  Ag15  1  0.67106125  0.32505559  0.00177300  1
  Ag  Ag16  1  0.33000986  0.15526829  0.50121260  1
  Ag  Ag17  1  0.83847790  0.00843009  0.16027118  1
  Ag  Ag18  1  0.49892776  0.49879185  0.66391924  1
  Ag  Ag19  1  0.50220424  0.16389632  -0.00284684  1
  Ag  Ag20  1  0.32889863  0.84335641  0.50007991  1
  Ag  Ag21  1  0.15292501  0.16184049  0.00220585  1
  Ag  Ag22  1  -0.00480745  0.00140040  0.00326516  1
  Ag  Ag23  1  -0.00401159  0.00191988  0.34092708  1
  Ag  Ag24  1  0.83456563  0.49558659  0.66778402  1
  Ag  Ag25  1  -0.00861799  0.16061565  0.15938656  1
  Ag  Ag26  1  0.49182800  -0.00111103  0.50502329  1
  Ag  Ag27  1  0.49895701  0.83645641  0.33718537  1
  Ag  Ag28  1  0.00252887  0.84234069  0.50169536  1
  Ag  Ag29  1  0.67795786  0.50005710  0.50202316  1
  Ag  Ag30  1  0.66744113  0.00289412  0.66453841  1
  Ag  Ag31  1  -0.00219272  0.84234423  0.16450539  1
  Ag  Ag32  1  -0.00096832  0.15722730  0.50257313  1
  Ag  Ag33  1  0.33346592  0.66370390  -0.00047345  1
  Ag  Ag34  1  0.83821280  0.84420138  0.66784926  1
  Ag  Ag35  1  0.83502264  0.33368531  0.50500755  1
  Ag  Ag36  1  0.16260370  0.49976205  -0.00148946  1
  Ag  Ag37  1  0.66928240  0.00069240  0.34110962  1
  Ag  Ag38  1  0.33362726  0.16755120  0.16657901  1
  Ag  Ag39  1  0.50134675  0.33320172  0.16297084  1
  Ag  Ag40  1  0.34073095  0.33018592  0.66444992  1
  Ag  Ag41  1  0.33185291  0.50085646  0.50620690  1
  Ag  Ag42  1  0.83698109  0.16534145  0.32580565  1
  Ag  Ag43  1  0.49813367  0.15871690  0.66850605  1
  Ag  Ag44  1  0.33653524  0.49397151  0.16310427  1
  Ag  Ag45  1  -0.00473134  0.00139839  0.66099821  1
  Ag  Ag46  1  0.83718149  0.49070547  -0.00627974  1
  Ag  Ag47  1  -0.00558162  0.66951194  0.66502496  1
  Ag  Ag48  1  0.33319247  0.50087438  0.83168651  1
  Ag  Ag49  1  0.49903811  0.66489887  0.83029052  1
  Ag  Ag50  1  0.17258375  0.67270212  0.50252958  1
  Ag  Ag51  1  0.15709856  0.84016624  0.00212609  1
  Ag  Ag52  1  0.83808172  0.84695774  -0.00349685  1
  Ag  Ag53  1  0.49496446  0.66247385  0.16183471  1
  Sb  Sb54  1  0.33479086  0.83083410  0.82917209  1
  Sb  Sb55  1  -0.00805161  0.32522217  -0.00060721  1
  Sb  Sb56  1  0.33187511  -0.00020878  -0.00006940  1
  Sb  Sb57  1  0.66532325  0.66720621  -0.00168705  1
  Sb  Sb58  1  0.50346805  0.83551968  0.66245861  1
  Sb  Sb59  1  0.83485422  0.66140093  0.50697600  1
  Sb  Sb60  1  0.66454895  0.49868226  0.16977726  1
  Sb  Sb61  1  0.67015908  0.66861443  0.66614673  1
  Sb  Sb62  1  0.16214376  0.83407885  0.66647977  1
  Sb  Sb63  1  -0.00218871  0.67228635  0.34139859  1
  Sb  Sb64  1  0.32999697  0.83672182  0.16995980  1
  Sb  Sb65  1  0.50319918  0.16139302  0.33469261  1
  Sb  Sb66  1  0.66799591  0.83225690  0.50121087  1
  Sb  Sb67  1  0.33784009  0.33612360  -0.00217362  1
  Sb  Sb68  1  0.33622225  0.32898769  0.33585730  1
  Sb  Sb69  1  0.66736754  0.33042879  0.66973084  1
  Sb  Sb70  1  0.67129901  0.83604068  0.16638449  1
  Sb  Sb71  1  0.50448357  0.33219288  0.83462598  1
  Sb  Sb72  1  0.16350590  0.50102235  0.33271752  1
  Sb  Sb73  1  0.33050704  0.17069865  0.83190833  1
  Sb  Sb74  1  0.16552667  0.16464211  0.66793169  1
  Sb  Sb75  1  -0.00536579  0.32642985  0.33492018  1
  Sb  Sb76  1  0.33557264  0.66971300  0.33431637  1
  Sb  Sb77  1  0.16424923  0.33144909  0.50186873  1
  Sb  Sb78  1  0.66853107  0.83613201  0.83268391  1
  Sb  Sb79  1  0.16530226  0.33139696  0.16280289  1
  Sb  Sb80  1  0.16472565  0.66490041  0.83058043  1
  Sb  Sb81  1  0.16897489  0.66699480  0.16650134  1
  Sb  Sb82  1  0.66934108  0.16566272  0.16466008  1
  Sb  Sb83  1  0.83133140  0.66498199  0.15932349  1
  Sb  Sb84  1  0.15946255  0.00084252  0.16856462  1
  Sb  Sb85  1  0.16217347  0.33401832  0.83397289  1
  Sb  Sb86  1  0.33282739  0.66732192  0.66581939  1
  Sb  Sb87  1  0.16836409  0.00091597  0.82982219  1
  Sb  Sb88  1  0.50180144  0.83699323  0.00283911  1
  Sb  Sb89  1  -0.00047037  0.49822597  0.16292091  1
  Sb  Sb90  1  0.50276972  0.49749065  -0.00394485  1
  Sb  Sb91  1  0.66926324  0.49999749  0.82891370  1
  Sb  Sb92  1  0.50268837  0.33213561  0.49892826  1
  Sb  Sb93  1  0.16167298  0.16298327  0.33078800  1
  Sb  Sb94  1  0.16797525  0.83652888  0.33433248  1
  Sb  Sb95  1  0.50361937  0.00191130  0.16841272  1
  Sb  Sb96  1  0.83354394  0.00604164  0.50072916  1
  Sb  Sb97  1  0.00207084  0.67001741  -0.00497183  1
  Sb  Sb98  1  0.66971091  0.16781954  0.50234687  1
  Sb  Sb99  1  0.66986891  0.32825457  0.33065371  1
  Sb  Sb100  1  0.67252524  0.16574175  0.83457780  1
  Sb  Sb101  1  0.83314275  0.83910298  0.33487345  1
  Sb  Sb102  1  -0.00273515  0.83605334  0.83125740  1
  Sb  Sb103  1  0.50282304  0.50406987  0.33925462  1
  Sb  Sb104  1  0.83184118  0.00361565  0.83440263  1
  Sb  Sb105  1  0.66711433  0.66976959  0.33597835  1
  Sb  Sb106  1  0.16539047  0.50025027  0.66888187  1
  Sb  Sb107  1  -0.00200892  0.33085265  0.66630510  1
  Te  Te108  1  0.17078949  0.16691495  0.16118828  1
  Te  Te109  1  0.16563155  0.16348178  0.49932632  1
  Te  Te110  1  0.15945504  0.16735108  0.84213627  1
  Te  Te111  1  0.17217689  0.49980203  0.16182416  1
  Te  Te112  1  0.16734324  0.49975237  0.49920971  1
  Te  Te113  1  0.17101448  0.49999524  0.83866530  1
  Te  Te114  1  0.16076815  0.83267904  0.16103793  1
  Te  Te115  1  0.16461414  0.83492973  0.50067332  1
  Te  Te116  1  0.16703532  0.83287480  0.84350444  1
  Te  Te117  1  0.49656189  0.16783767  0.16656062  1
  Te  Te118  1  0.49667169  0.16464534  0.50243420  1
  Te  Te119  1  0.49778097  0.16540800  0.83013149  1
  Te  Te120  1  0.49696624  0.50056696  0.16814463  1
  Te  Te121  1  0.49207831  0.49784597  0.50288110  1
  Te  Te122  1  0.49873537  0.50045947  0.82818240  1
  Te  Te123  1  0.49873147  0.82995517  0.17115542  1
  Te  Te124  1  0.50084895  0.83385379  0.49875599  1
  Te  Te125  1  0.49959462  0.82863353  0.83351027  1
  Te  Te126  1  0.83342105  0.16622394  0.16562077  1
  Te  Te127  1  0.83527489  0.17178391  0.50662444  1
  Te  Te128  1  0.83787222  0.16840378  0.82969232  1
  Te  Te129  1  0.83294345  0.49768784  0.15840799  1
  Te  Te130  1  0.83563565  0.49980030  0.50371542  1
  Te  Te131  1  0.83186794  0.49888037  0.83113156  1
  Te  Te132  1  0.83876946  0.83309103  0.16433144  1
  Te  Te133  1  0.83830077  0.82880349  0.50294334  1
  Te  Te134  1  0.83422011  0.82692828  0.83253050  1
  Te  Te135  1  0.16386698  0.00123899  -0.00130823  1
  Te  Te136  1  0.16410634  -0.00020569  0.34057303  1
  Te  Te137  1  0.15846919  -0.00055397  0.66273381  1
  Te  Te138  1  0.16887467  0.33705330  -0.00097128  1
  Te  Te139  1  0.16696186  0.33300894  0.33238135  1
  Te  Te140  1  0.18177623  0.33264934  0.66730273  1
  Te  Te141  1  0.17110928  0.66150643  -0.00053029  1
  Te  Te142  1  0.16670099  0.66755511  0.34278526  1
  Te  Te143  1  0.15737715  0.66724053  0.66148068  1
  Te  Te144  1  0.50087100  0.00292534  0.00009590  1
  Te  Te145  1  0.50103455  -0.00179487  0.33481134  1
  Te  Te146  1  0.50231217  -0.00137441  0.66527377  1
  Te  Te147  1  0.50594673  0.32883666  0.00242934  1
  Te  Te148  1  0.50247975  0.33302623  0.32324507  1
  Te  Te149  1  0.49998065  0.33395845  0.66681197  1
  Te  Te150  1  0.49770014  0.66792556  -0.00127713  1
  Te  Te151  1  0.50049963  0.67197714  0.33830029  1
  Te  Te152  1  0.50085450  0.66611893  0.66610474  1
  Te  Te153  1  0.83450920  0.00349170  -0.00278046  1
  Te  Te154  1  0.83388870  0.00169551  0.33155094  1
  Te  Te155  1  0.83289691  0.00293938  0.66873571  1
  Te  Te156  1  0.83172836  0.33064448  -0.00145154  1
  Te  Te157  1  0.83215865  0.33278053  0.33545960  1
  Te  Te158  1  0.83203320  0.33195865  0.66648988  1
  Te  Te159  1  0.83295836  0.66381422  -0.00579354  1
  Te  Te160  1  0.83178155  0.66060088  0.32962722  1
  Te  Te161  1  0.83487965  0.65933590  0.67155748  1
  Te  Te162  1  -0.00332453  0.16358033  0.00003484  1
  Te  Te163  1  -0.00405450  0.16142647  0.33813653  1
  Te  Te164  1  -0.00048594  0.16587329  0.66343669  1
  Te  Te165  1  -0.00044604  0.50200119  -0.00216850  1
  Te  Te166  1  -0.00504891  0.50152205  0.33220462  1
  Te  Te167  1  -0.00066134  0.49662494  0.66897347  1
  Te  Te168  1  -0.00195236  0.83585081  -0.00175737  1
  Te  Te169  1  -0.00032040  0.83952703  0.33647334  1
  Te  Te170  1  -0.00316292  0.83526996  0.66459660  1
  Te  Te171  1  0.34053404  0.16782995  0.00047417  1
  Te  Te172  1  0.33314452  0.16236039  0.33639889  1
  Te  Te173  1  0.33287037  0.16430919  0.66475273  1
  Te  Te174  1  0.33797911  0.50190308  0.00061460  1
  Te  Te175  1  0.33278732  0.49874896  0.32940188  1
  Te  Te176  1  0.33356198  0.50381455  0.66809250  1
  Te  Te177  1  0.33246950  0.82861379  0.00083911  1
  Te  Te178  1  0.33564420  0.83890053  0.33790310  1
  Te  Te179  1  0.33205491  0.83887632  0.66128894  1
  Te  Te180  1  0.66486504  0.16503959  -0.00053593  1
  Te  Te181  1  0.67470982  0.15944204  0.33485765  1
  Te  Te182  1  0.66197123  0.16306787  0.66742737  1
  Te  Te183  1  0.67208072  0.49944782  0.00130301  1
  Te  Te184  1  0.67220793  0.49970462  0.33953820  1
  Te  Te185  1  0.66500641  0.49940862  0.66193418  1
  Te  Te186  1  0.67407109  0.83903697  0.00001185  1
  Te  Te187  1  0.66336410  0.84101951  0.33378264  1
  Te  Te188  1  0.67741972  0.84044213  0.66604790  1
  Te  Te189  1  -0.00172887  0.00125700  0.16343844  1
  Te  Te190  1  -0.00716630  0.00018270  0.50115589  1
  Te  Te191  1  0.00053982  0.00414896  0.83056996  1
  Te  Te192  1  -0.00626577  0.32744052  0.16757724  1
  Te  Te193  1  -0.00323576  0.34044898  0.50067687  1
  Te  Te194  1  -0.00498266  0.33592424  0.83251208  1
  Te  Te195  1  0.00106846  0.67100106  0.16830446  1
  Te  Te196  1  0.00079747  0.66155579  0.50479410  1
  Te  Te197  1  -0.00206077  0.66168188  0.82791706  1
  Te  Te198  1  0.33202408  0.00502583  0.16879271  1
  Te  Te199  1  0.33417703  -0.00031422  0.50007397  1
  Te  Te200  1  0.33765696  -0.00009425  0.83023237  1
  Te  Te201  1  0.33551329  0.33140654  0.16743166  1
  Te  Te202  1  0.33406163  0.33884821  0.50268276  1
  Te  Te203  1  0.33493446  0.33912494  0.82788701  1
  Te  Te204  1  0.33591616  0.66724218  0.16483014  1
  Te  Te205  1  0.33306062  0.66195226  0.50085837  1
  Te  Te206  1  0.33510620  0.66339706  0.83464159  1
  Te  Te207  1  0.67338559  -0.00083991  0.16186219  1
  Te  Te208  1  0.66310418  0.00036419  0.50151975  1
  Te  Te209  1  0.65840196  0.00041702  0.83391123  1
  Te  Te210  1  0.66830666  0.33342628  0.16267055  1
  Te  Te211  1  0.67106481  0.33841869  0.49994589  1
  Te  Te212  1  0.67365657  0.33334813  0.84008788  1
  Te  Te213  1  0.65590064  0.66771910  0.16729683  1
  Te  Te214  1  0.65613974  0.66144615  0.50042187  1
  Te  Te215  1  0.65945409  0.66769096  0.83330080  1
