# generated using pymatgen
data_AgSbTe2
_symmetry_space_group_name_H-M   'P 1'
_cell_length_a   18.33480362
_cell_length_b   18.33900403
_cell_length_c   18.33339429
_cell_angle_alpha   89.99934958
_cell_angle_beta   89.99708418
_cell_angle_gamma   89.99537111
_symmetry_Int_Tables_number   1
_chemical_formula_structural   AgSbTe2
_chemical_formula_sum   'Ag54 Sb54 Te108'
_cell_volume   6164.45782145
_cell_formula_units_Z   54
loop_
 _symmetry_equiv_pos_site_id
 _symmetry_equiv_pos_as_xyz
  1  'x, y, z'
loop_
 _atom_site_type_symbol
 _atom_site_label
 _atom_site_symmetry_multiplicity
 _atom_site_fract_x
 _atom_site_fract_y
 _atom_site_fract_z
 _atom_site_occupancy
  Ag  Ag0  1  0.66983850  0.32577311  0.33653948  1
  Ag  Ag1  1  0.32969029  -0.00454854  0.66141322  1
  Ag  Ag2  1  0.67292676  0.82999233  0.49566905  1
  Ag  Ag3  1  0.49852598  0.65690537  0.16908351  1
  Ag  Ag4  1  0.66804959  0.01279425  0.33569884  1
  Ag  Ag5  1  -0.01141343  0.16556798  0.17662587  1
  Ag  Ag6  1  0.49956669  -0.00068791  0.49763372  1
  Ag  Ag7  1  0.34003043  0.50272138  0.16837557  1
  Ag  Ag8  1  0.33945711  0.16987706  0.50068597  1
  Ag  Ag9  1  0.83913759  0.83377422  0.65278080  1
  Ag  Ag10  1  0.00046207  0.65908536  0.33591626  1
  Ag  Ag11  1  0.83364443  0.00656804  0.16880665  1
  Ag  Ag12  1  0.66393618  0.49697584  0.49582226  1
  Ag  Ag13  1  -0.00120033  0.83266960  0.82108412  1
  Ag  Ag14  1  0.65980932  0.49976181  0.17911608  1
  Ag  Ag15  1  0.67019167  0.17599261  0.49326373  1
  Ag  Ag16  1  0.34011876  0.34766646  0.66523255  1
  Ag  Ag17  1  0.50204176  0.34052309  0.17222793  1
  Ag  Ag18  1  0.67168243  0.16835687  0.18093574  1
  Ag  Ag19  1  0.33126477  0.50002985  0.83545970  1
  Ag  Ag20  1  0.51228421  0.82991015  0.33781078  1
  Ag  Ag21  1  0.83576744  0.49631304  0.00884192  1
  Ag  Ag22  1  0.16736029  0.50254804  0.33097110  1
  Ag  Ag23  1  0.32911213  0.65814958  -0.00019757  1
  Ag  Ag24  1  0.66102960  0.34018178  0.65396639  1
  Ag  Ag25  1  0.82512618  0.49399701  0.33444439  1
  Ag  Ag26  1  0.49821422  0.33624278  0.83219233  1
  Ag  Ag27  1  0.66770413  0.82986513  0.18040856  1
  Ag  Ag28  1  0.16558684  0.66783576  0.50064791  1
  Ag  Ag29  1  0.51384919  0.17523818  0.33619008  1
  Ag  Ag30  1  0.17080528  0.66419534  0.17092250  1
  Ag  Ag31  1  0.34108272  0.50150911  0.50194626  1
  Ag  Ag32  1  -0.01184836  0.33721401  0.33539050  1
  Ag  Ag33  1  0.00550415  0.50160363  0.83294898  1
  Ag  Ag34  1  0.82946238  0.33807066  0.49539314  1
  Ag  Ag35  1  0.82791561  0.16883976  0.33230692  1
  Ag  Ag36  1  0.50810470  0.49996389  0.33427444  1
  Ag  Ag37  1  0.00000412  -0.00556385  0.66585585  1
  Ag  Ag38  1  -0.00666073  0.16284532  0.49575726  1
  Ag  Ag39  1  0.83681058  0.00143483  0.83497216  1
  Ag  Ag40  1  0.83501452  0.17235366  0.01552894  1
  Ag  Ag41  1  0.17300300  0.50318995  0.00696032  1
  Ag  Ag42  1  -0.00974185  0.83435767  0.50206293  1
  Ag  Ag43  1  0.33527505  0.34154229  -0.00286200  1
  Ag  Ag44  1  0.16606033  0.66419644  0.82631818  1
  Ag  Ag45  1  -0.00328721  0.16597204  0.83000641  1
  Ag  Ag46  1  0.33510565  0.66396819  0.66355136  1
  Ag  Ag47  1  0.83374092  0.66984316  0.49724794  1
  Ag  Ag48  1  0.66200387  0.66015038  0.66306962  1
  Ag  Ag49  1  0.49699917  0.49863012  0.65681995  1
  Ag  Ag50  1  0.16246905  -0.00414122  0.16800146  1
  Ag  Ag51  1  0.82832501  0.83355150  0.33670395  1
  Ag  Ag52  1  0.33408701  0.82577070  0.50170732  1
  Ag  Ag53  1  0.15857075  0.83141755  0.66212986  1
  Sb  Sb54  1  -0.00321187  0.83675831  0.17197629  1
  Sb  Sb55  1  0.16665676  0.82516902  -0.00281524  1
  Sb  Sb56  1  0.16870778  -0.00523252  0.49641639  1
  Sb  Sb57  1  0.50331673  0.00079033  0.17697702  1
  Sb  Sb58  1  0.83339652  0.16140529  0.65918813  1
  Sb  Sb59  1  0.32935223  0.17448750  0.82575855  1
  Sb  Sb60  1  -0.00143873  0.00184955  -0.00362907  1
  Sb  Sb61  1  0.17351258  0.50769227  0.66466526  1
  Sb  Sb62  1  0.67195416  0.66422582  0.34114205  1
  Sb  Sb63  1  0.50687005  0.33431081  0.49654197  1
  Sb  Sb64  1  0.67089624  0.16793798  0.83052955  1
  Sb  Sb65  1  0.17148098  0.33852095  0.16879378  1
  Sb  Sb66  1  0.33870983  0.00017759  0.33892661  1
  Sb  Sb67  1  -0.00082787  0.49611913  0.16982298  1
  Sb  Sb68  1  0.16468243  0.33995661  0.49912077  1
  Sb  Sb69  1  0.82800339  0.33046935  0.17521388  1
  Sb  Sb70  1  0.67198902  0.83357041  0.82581590  1
  Sb  Sb71  1  0.16209550  0.17309374  0.00171119  1
  Sb  Sb72  1  0.16085832  -0.00572101  0.83366813  1
  Sb  Sb73  1  0.50587796  0.17038043  0.00895251  1
  Sb  Sb74  1  0.33659831  0.82556101  0.17532776  1
  Sb  Sb75  1  0.83410582  0.83163764  0.00379505  1
  Sb  Sb76  1  0.33909005  0.33726447  0.33758292  1
  Sb  Sb77  1  0.84005023  0.66893605  0.82746583  1
  Sb  Sb78  1  0.49333746  0.65972698  0.83448777  1
  Sb  Sb79  1  0.66478049  0.49870338  0.83027290  1
  Sb  Sb80  1  0.32961121  0.66151880  0.33791690  1
  Sb  Sb81  1  0.00120980  0.33478183  0.00460112  1
  Sb  Sb82  1  0.49966556  0.17574145  0.65700570  1
  Sb  Sb83  1  0.32872839  0.82548177  0.82294162  1
  Sb  Sb84  1  0.50112685  0.82658736  0.65864979  1
  Sb  Sb85  1  0.49992683  0.83154235  0.00980194  1
  Sb  Sb86  1  0.66859759  0.00147160  0.01085872  1
  Sb  Sb87  1  0.16615465  0.16133562  0.66470824  1
  Sb  Sb88  1  0.16375748  0.82740294  0.33880105  1
  Sb  Sb89  1  0.00422828  0.66338661  0.00396218  1
  Sb  Sb90  1  0.82967006  -0.00218851  0.49578304  1
  Sb  Sb91  1  0.33141103  0.00134341  -0.00464032  1
  Sb  Sb92  1  0.66516553  0.33559949  0.00631442  1
  Sb  Sb93  1  0.16875970  0.34171038  0.83293001  1
  Sb  Sb94  1  0.33608214  0.17124403  0.17239139  1
  Sb  Sb95  1  -0.00172295  0.50302760  0.50024774  1
  Sb  Sb96  1  0.82943749  0.50494207  0.66093354  1
  Sb  Sb97  1  0.49493456  0.49860930  0.00591245  1
  Sb  Sb98  1  0.83113548  0.66710298  0.17473764  1
  Sb  Sb99  1  -0.00072877  0.33038337  0.66209509  1
  Sb  Sb100  1  0.16252129  0.17094402  0.33401636  1
  Sb  Sb101  1  0.83041721  0.33128909  0.82788999  1
  Sb  Sb102  1  0.50338422  0.00510868  0.82099620  1
  Sb  Sb103  1  0.66416118  0.66316516  -0.00057520  1
  Sb  Sb104  1  0.50125901  0.66671618  0.49304366  1
  Sb  Sb105  1  0.66890201  -0.00051309  0.65608912  1
  Sb  Sb106  1  0.00281290  0.67134099  0.66024723  1
  Sb  Sb107  1  -0.00607354  0.00171118  0.33811370  1
  Te  Te108  1  0.16617987  0.16303842  0.16613553  1
  Te  Te109  1  0.16384612  0.16649768  0.49941871  1
  Te  Te110  1  0.15818283  0.16435286  0.83512793  1
  Te  Te111  1  0.16596080  0.50377326  0.16772050  1
  Te  Te112  1  0.16768343  0.50653459  0.49587812  1
  Te  Te113  1  0.16906584  0.50469016  0.83277963  1
  Te  Te114  1  0.16653213  0.83072327  0.16632523  1
  Te  Te115  1  0.17065946  0.82858229  0.50289764  1
  Te  Te116  1  0.16162026  0.82705777  0.82885102  1
  Te  Te117  1  0.50485200  0.16921417  0.17513128  1
  Te  Te118  1  0.50040832  0.16547807  0.49461901  1
  Te  Te119  1  0.49987794  0.17262555  0.83472789  1
  Te  Te120  1  0.49954622  0.49993829  0.16862873  1
  Te  Te121  1  0.50111458  0.50056180  0.49709248  1
  Te  Te122  1  0.49633272  0.49610420  0.83203421  1
  Te  Te123  1  0.50496486  0.83263910  0.17589826  1
  Te  Te124  1  0.49905663  0.83418420  0.49654604  1
  Te  Te125  1  0.50139559  0.83504919  0.83481243  1
  Te  Te126  1  0.83165064  0.16756727  0.17064359  1
  Te  Te127  1  0.83244573  0.16432498  0.49452512  1
  Te  Te128  1  0.83743398  0.16324540  0.83001562  1
  Te  Te129  1  0.83137788  0.49990691  0.16953684  1
  Te  Te130  1  0.83138317  0.50287849  0.49610841  1
  Te  Te131  1  0.83585051  0.49980566  0.83298693  1
  Te  Te132  1  0.82930923  0.83709654  0.17093696  1
  Te  Te133  1  0.83242328  0.83398286  0.49707106  1
  Te  Te134  1  0.83892759  0.83714527  0.83592603  1
  Te  Te135  1  0.16690815  -0.00040309  0.00676332  1
  Te  Te136  1  0.16688357  -0.00004985  0.32720317  1
  Te  Te137  1  0.16572844  -0.00719677  0.66681837  1
  Te  Te138  1  0.17334776  0.34147391  0.00072976  1
  Te  Te139  1  0.16100200  0.34015035  0.33343239  1
  Te  Te140  1  0.17333268  0.33077684  0.66654264  1
  Te  Te141  1  0.17008718  0.66096160  0.00387453  1
  Te  Te142  1  0.16247001  0.66376027  0.33464119  1
  Te  Te143  1  0.16901279  0.67122374  0.66408004  1
  Te  Te144  1  0.49956391  0.00087788  -0.00443288  1
  Te  Te145  1  0.50532380  -0.00315074  0.33839618  1
  Te  Te146  1  0.49669989  -0.00017074  0.65908093  1
  Te  Te147  1  0.49589009  0.33223908  -0.00282594  1
  Te  Te148  1  0.50416671  0.33665882  0.33088204  1
  Te  Te149  1  0.49980450  0.33836091  0.66719393  1
  Te  Te150  1  0.49224666  0.66709279  0.00562358  1
  Te  Te151  1  0.49586055  0.66305378  0.32758103  1
  Te  Te152  1  0.49799909  0.66028640  0.66941264  1
  Te  Te153  1  0.83281178  0.00356229  0.00235561  1
  Te  Te154  1  0.82992748  -0.00050527  0.32971372  1
  Te  Te155  1  0.83534376  -0.00551054  0.67072750  1
  Te  Te156  1  0.83323435  0.33450108  -0.00360083  1
  Te  Te157  1  0.83085492  0.33442137  0.33634742  1
  Te  Te158  1  0.82942170  0.33340002  0.65892018  1
  Te  Te159  1  0.83350807  0.65946763  -0.00042572  1
  Te  Te160  1  0.84009691  0.66748455  0.33713975  1
  Te  Te161  1  0.83097711  0.67218601  0.66120796  1
  Te  Te162  1  -0.00574336  0.16840567  -0.00027981  1
  Te  Te163  1  -0.00240124  0.16791504  0.33515557  1
  Te  Te164  1  -0.00031464  0.16176042  0.66428527  1
  Te  Te165  1  -0.00126607  0.49835987  -0.00365340  1
  Te  Te166  1  0.00015673  0.49815032  0.33468170  1
  Te  Te167  1  0.00063286  0.49866155  0.67241187  1
  Te  Te168  1  0.00004450  0.83229655  -0.00683370  1
  Te  Te169  1  -0.00420789  0.83330329  0.33861979  1
  Te  Te170  1  -0.00137634  0.83285266  0.66365924  1
  Te  Te171  1  0.33335182  0.17177109  -0.00083918  1
  Te  Te172  1  0.33287797  0.16889517  0.34081008  1
  Te  Te173  1  0.33313636  0.15953470  0.66005483  1
  Te  Te174  1  0.33352816  0.49975629  0.00177393  1
  Te  Te175  1  0.33052691  0.49758346  0.33255561  1
  Te  Te176  1  0.33418795  0.50324033  0.66347254  1
  Te  Te177  1  0.33324779  0.83048680  -0.00055930  1
  Te  Te178  1  0.33483974  0.83426917  0.34206937  1
  Te  Te179  1  0.33465544  0.83173545  0.66089728  1
  Te  Te180  1  0.67458644  0.16790951  0.00267762  1
  Te  Te181  1  0.66839574  0.16898721  0.33631064  1
  Te  Te182  1  0.66567708  0.17041691  0.66020896  1
  Te  Te183  1  0.67422482  0.49996006  0.00082306  1
  Te  Te184  1  0.66795896  0.50355225  0.33510032  1
  Te  Te185  1  0.66294225  0.49952289  0.66425701  1
  Te  Te186  1  0.66682518  0.83250381  0.00458719  1
  Te  Te187  1  0.66806929  0.82341715  0.33634749  1
  Te  Te188  1  0.66958783  0.83099851  0.66007012  1
  Te  Te189  1  -0.00169282  0.00351460  0.16642323  1
  Te  Te190  1  0.00174561  -0.00083579  0.50448716  1
  Te  Te191  1  -0.00228382  -0.00015745  0.82918099  1
  Te  Te192  1  0.00300070  0.32630199  0.17226312  1
  Te  Te193  1  -0.00481199  0.32964365  0.49682805  1
  Te  Te194  1  -0.00062025  0.33193975  0.83212205  1
  Te  Te195  1  0.00353809  0.66748581  0.17285095  1
  Te  Te196  1  -0.00059308  0.66966994  0.49692008  1
  Te  Te197  1  0.00540969  0.66465841  0.83428752  1
  Te  Te198  1  0.33068981  -0.00043417  0.16438500  1
  Te  Te199  1  0.33491952  0.00221364  0.50299123  1
  Te  Te200  1  0.33323103  0.00045061  0.82644035  1
  Te  Te201  1  0.33900763  0.33770048  0.16523265  1
  Te  Te202  1  0.33170649  0.33521909  0.50409939  1
  Te  Te203  1  0.33548098  0.33773081  0.83000861  1
  Te  Te204  1  0.33200765  0.66363961  0.16563796  1
  Te  Te205  1  0.33355096  0.66387267  0.50333719  1
  Te  Te206  1  0.32818208  0.66144603  0.83225126  1
  Te  Te207  1  0.66915328  0.00022212  0.17461435  1
  Te  Te208  1  0.66278350  -0.00396285  0.49560995  1
  Te  Te209  1  0.67272532  0.00029248  0.83345124  1
  Te  Te210  1  0.66240555  0.33644565  0.17021550  1
  Te  Te211  1  0.66903985  0.33565478  0.49727894  1
  Te  Te212  1  0.66108612  0.33248541  0.82903314  1
  Te  Te213  1  0.66397454  0.66428211  0.16222174  1
  Te  Te214  1  0.66724522  0.66524784  0.50562816  1
  Te  Te215  1  0.66640841  0.66750297  0.82563498  1
