# generated using pymatgen
data_AgSbTe2
_symmetry_space_group_name_H-M   'P 1'
_cell_length_a   18.32402203
_cell_length_b   18.32614502
_cell_length_c   18.32436321
_cell_angle_alpha   89.99843769
_cell_angle_beta   90.00060524
_cell_angle_gamma   89.99970977
_symmetry_Int_Tables_number   1
_chemical_formula_structural   AgSbTe2
_chemical_formula_sum   'Ag54 Sb54 Te108'
_cell_volume   6153.48031040
_cell_formula_units_Z   54
loop_
 _symmetry_equiv_pos_site_id
 _symmetry_equiv_pos_as_xyz
  1  'x, y, z'
loop_
 _atom_site_type_symbol
 _atom_site_label
 _atom_site_symmetry_multiplicity
 _atom_site_fract_x
 _atom_site_fract_y
 _atom_site_fract_z
 _atom_site_occupancy
  Ag  Ag0  1  0.16862767  0.50106335  0.32919772  1
  Ag  Ag1  1  0.32860114  0.33046137  0.33000744  1
  Ag  Ag2  1  0.00115172  0.68063211  0.66498565  1
  Ag  Ag3  1  0.83691132  0.50221770  0.00136640  1
  Ag  Ag4  1  0.00663677  0.49846705  0.16860635  1
  Ag  Ag5  1  -0.00465086  0.83964319  0.82325627  1
  Ag  Ag6  1  0.67192095  0.83376360  0.51134477  1
  Ag  Ag7  1  0.00368373  -0.00548817  0.34139464  1
  Ag  Ag8  1  0.84367253  0.15995156  0.66757742  1
  Ag  Ag9  1  0.16450735  0.00035051  0.50580403  1
  Ag  Ag10  1  0.32979332  0.33555700  -0.00147291  1
  Ag  Ag11  1  0.67694624  -0.00636494  0.66577860  1
  Ag  Ag12  1  0.67144224  -0.00821356  -0.01419373  1
  Ag  Ag13  1  0.83570111  0.83851507  0.67014578  1
  Ag  Ag14  1  0.84056993  0.32754671  0.82809803  1
  Ag  Ag15  1  0.32675106  0.48883904  0.83607920  1
  Ag  Ag16  1  0.49156322  0.33063363  0.50583646  1
  Ag  Ag17  1  0.83856428  -0.00186129  0.82781716  1
  Ag  Ag18  1  0.32938374  0.17633711  0.17355550  1
  Ag  Ag19  1  0.66931268  0.50196202  0.50168119  1
  Ag  Ag20  1  0.48590409  0.33089396  0.82494673  1
  Ag  Ag21  1  0.67572931  0.83506939  0.82280927  1
  Ag  Ag22  1  0.16789964  0.33184629  0.82882502  1
  Ag  Ag23  1  0.16659277  0.66823997  0.82779753  1
  Ag  Ag24  1  0.00471789  0.16248417  0.82625670  1
  Ag  Ag25  1  0.32426146  0.49560808  0.16607333  1
  Ag  Ag26  1  0.16279698  0.16071141  0.66891557  1
  Ag  Ag27  1  -0.00084398  -0.00340396  0.66667462  1
  Ag  Ag28  1  0.84120411  0.33730562  0.16611570  1
  Ag  Ag29  1  0.67104732  0.67917046  0.66940821  1
  Ag  Ag30  1  0.16841927  0.33752465  0.16785380  1
  Ag  Ag31  1  0.32464543  0.67284544  0.33537506  1
  Ag  Ag32  1  -0.00141686  0.83556826  0.51050440  1
  Ag  Ag33  1  0.83578445  0.66359651  0.16450459  1
  Ag  Ag34  1  0.00606370  0.67357857  0.33767230  1
  Ag  Ag35  1  0.67340539  0.67281489  -0.00837157  1
  Ag  Ag36  1  0.16539395  0.49731621  0.00395221  1
  Ag  Ag37  1  0.32639044  -0.00362529  0.33405619  1
  Ag  Ag38  1  0.83624008  0.16541427  0.34264775  1
  Ag  Ag39  1  0.83691814  0.33113676  0.50406223  1
  Ag  Ag40  1  0.49246934  0.16349250  0.66621181  1
  Ag  Ag41  1  0.51873062  0.83700599  0.66334896  1
  Ag  Ag42  1  0.67066243  -0.00340861  0.34064962  1
  Ag  Ag43  1  0.15949289  0.00288233  0.82454896  1
  Ag  Ag44  1  0.32448829  0.17119779  0.82297752  1
  Ag  Ag45  1  0.00063217  0.32519174  0.66845121  1
  Ag  Ag46  1  0.15231071  0.84096642  0.66343980  1
  Ag  Ag47  1  0.48870148  0.83510127  0.34198302  1
  Ag  Ag48  1  0.83040521  0.82974195  -0.00978520  1
  Ag  Ag49  1  0.16946335  0.83208412  0.34052068  1
  Ag  Ag50  1  0.33044321  0.16920710  0.50333953  1
  Ag  Ag51  1  0.33049258  0.82996769  0.17576536  1
  Ag  Ag52  1  0.16675858  0.32855942  0.50415123  1
  Ag  Ag53  1  0.32420240  0.67170935  0.66454770  1
  Sb  Sb54  1  -0.00311560  0.66476566  -0.00147206  1
  Sb  Sb55  1  0.00465857  0.50018923  0.83512242  1
  Sb  Sb56  1  0.32601103  -0.00168403  0.66299565  1
  Sb  Sb57  1  0.16911844  0.17286407  -0.00952008  1
  Sb  Sb58  1  0.66568398  0.16697452  0.16850673  1
  Sb  Sb59  1  0.00311736  0.82934938  0.16912035  1
  Sb  Sb60  1  0.32975656  0.83604943  0.83105806  1
  Sb  Sb61  1  0.83827495  0.67112953  0.83445188  1
  Sb  Sb62  1  0.66679233  0.50454157  0.83042943  1
  Sb  Sb63  1  0.49737855  0.16270141  0.33938504  1
  Sb  Sb64  1  0.66918928  0.50113665  0.16959307  1
  Sb  Sb65  1  0.83743545  0.83808805  0.33662262  1
  Sb  Sb66  1  0.66553545  0.16248305  0.50283626  1
  Sb  Sb67  1  0.49747275  0.49890596  -0.00156124  1
  Sb  Sb68  1  0.49861270  0.49765559  0.66566141  1
  Sb  Sb69  1  0.33252463  0.49476426  0.50066212  1
  Sb  Sb70  1  0.33002386  0.83817126  0.49761051  1
  Sb  Sb71  1  0.16333704  0.65985322  0.16787954  1
  Sb  Sb72  1  0.83512438  0.00004323  0.16414888  1
  Sb  Sb73  1  0.00430650  0.16195197  0.50754183  1
  Sb  Sb74  1  0.49739196  0.16762802  -0.00797894  1
  Sb  Sb75  1  0.49623039  0.00138189  0.50171750  1
  Sb  Sb76  1  0.83902621  0.49643328  0.32985143  1
  Sb  Sb77  1  0.66904542  0.16130774  0.82953994  1
  Sb  Sb78  1  0.83402547  0.66493367  0.49899501  1
  Sb  Sb79  1  0.83410101  0.50029101  0.67105446  1
  Sb  Sb80  1  0.00506974  0.33190639  0.33860948  1
  Sb  Sb81  1  0.50388750  0.83370492  -0.00380313  1
  Sb  Sb82  1  0.16747104  0.50033481  0.66727693  1
  Sb  Sb83  1  0.67070828  0.33119137  0.66552701  1
  Sb  Sb84  1  0.00481926  0.33548607  -0.00615830  1
  Sb  Sb85  1  0.49572480  0.66426191  0.82951458  1
  Sb  Sb86  1  0.66834417  0.67253477  0.33600698  1
  Sb  Sb87  1  0.16578759  0.16505387  0.34132814  1
  Sb  Sb88  1  0.66541042  0.83364838  0.16673339  1
  Sb  Sb89  1  0.49197805  0.33263643  0.16866404  1
  Sb  Sb90  1  0.49156269  0.50272701  0.33586757  1
  Sb  Sb91  1  0.49901264  -0.00057488  0.16988264  1
  Sb  Sb92  1  -0.00087953  0.50191886  0.49718973  1
  Sb  Sb93  1  0.32753121  0.33098522  0.66790785  1
  Sb  Sb94  1  0.66711879  0.33410137  -0.00303875  1
  Sb  Sb95  1  0.33385175  0.66213365  0.00070551  1
  Sb  Sb96  1  0.83820095  0.00328858  0.50713673  1
  Sb  Sb97  1  0.16754792  0.00423878  0.16936679  1
  Sb  Sb98  1  0.66525648  0.33124167  0.33669765  1
  Sb  Sb99  1  0.83359197  0.16806234  -0.00561454  1
  Sb  Sb100  1  -0.00319161  -0.00249411  -0.00839927  1
  Sb  Sb101  1  0.16618182  0.66886229  0.50221884  1
  Sb  Sb102  1  0.50001961  0.00310104  0.82758749  1
  Sb  Sb103  1  0.50062020  0.66821878  0.16810984  1
  Sb  Sb104  1  0.00424018  0.17182002  0.16593556  1
  Sb  Sb105  1  0.16331160  0.82799467  -0.00336596  1
  Sb  Sb106  1  0.49962631  0.66695567  0.50179970  1
  Sb  Sb107  1  0.33440093  0.00377239  0.00226019  1
  Te  Te108  1  0.17048531  0.17295992  0.16428028  1
  Te  Te109  1  0.16946800  0.16774242  0.50570782  1
  Te  Te110  1  0.16562695  0.16798544  0.82961354  1
  Te  Te111  1  0.16720262  0.49825224  0.16712644  1
  Te  Te112  1  0.16609342  0.49192348  0.49310682  1
  Te  Te113  1  0.16842303  0.49564363  0.83388991  1
  Te  Te114  1  0.17106222  0.83388086  0.16609513  1
  Te  Te115  1  0.16409741  0.83486526  0.50099774  1
  Te  Te116  1  0.16435810  0.83324297  0.83165417  1
  Te  Te117  1  0.49166121  0.16727878  0.16686360  1
  Te  Te118  1  0.49596849  0.17075418  0.50596008  1
  Te  Te119  1  0.49709923  0.17093510  0.82566437  1
  Te  Te120  1  0.49315709  0.49983457  0.16706706  1
  Te  Te121  1  0.50606990  0.49148707  0.49949970  1
  Te  Te122  1  0.49514817  0.49246358  0.83315417  1
  Te  Te123  1  0.49308844  0.83274159  0.17026917  1
  Te  Te124  1  0.50278802  0.83407518  0.50217525  1
  Te  Te125  1  0.50126810  0.83357638  0.82725242  1
  Te  Te126  1  0.83447030  0.17206373  0.16608043  1
  Te  Te127  1  0.83286467  0.17137939  0.50292993  1
  Te  Te128  1  0.83575590  0.16681730  0.82923238  1
  Te  Te129  1  0.83356732  0.49818367  0.16398744  1
  Te  Te130  1  0.83025968  0.49392663  0.49831801  1
  Te  Te131  1  0.83322089  0.49450948  0.83966402  1
  Te  Te132  1  0.83429584  0.83066486  0.16373520  1
  Te  Te133  1  0.83438123  0.83319279  0.50360687  1
  Te  Te134  1  0.83443577  0.83244892  0.83228204  1
  Te  Te135  1  0.16635977  -0.00183345  -0.00568090  1
  Te  Te136  1  0.16622218  -0.00195442  0.33477959  1
  Te  Te137  1  0.16487019  -0.00086864  0.66648200  1
  Te  Te138  1  0.17029581  0.33825802  -0.00027577  1
  Te  Te139  1  0.16895844  0.33128070  0.33362631  1
  Te  Te140  1  0.16313091  0.33416541  0.66684816  1
  Te  Te141  1  0.16685639  0.65934596  -0.00693972  1
  Te  Te142  1  0.16627039  0.66885175  0.33387602  1
  Te  Te143  1  0.16428321  0.66692635  0.66722064  1
  Te  Te144  1  0.50902132  -0.00046645  0.00016744  1
  Te  Te145  1  0.49919710  -0.00508852  0.33543927  1
  Te  Te146  1  0.50284903  -0.00063116  0.66535860  1
  Te  Te147  1  0.49431245  0.33336703  -0.00416202  1
  Te  Te148  1  0.49452013  0.33241720  0.33856231  1
  Te  Te149  1  0.50248366  0.32982298  0.66580976  1
  Te  Te150  1  0.51020109  0.66707104  -0.00068057  1
  Te  Te151  1  0.49565624  0.67417131  0.33409230  1
  Te  Te152  1  0.50290380  0.67242293  0.66678892  1
  Te  Te153  1  0.82956364  -0.00300959  -0.00503861  1
  Te  Te154  1  0.83532893  0.00416220  0.33252582  1
  Te  Te155  1  0.83698272  0.00067410  0.66792950  1
  Te  Te156  1  0.83328030  0.33606106  0.00138410  1
  Te  Te157  1  0.83420500  0.32908619  0.33345755  1
  Te  Te158  1  0.83620628  0.33335776  0.66733505  1
  Te  Te159  1  0.83192077  0.66639735  0.00111296  1
  Te  Te160  1  0.83804927  0.66638650  0.32829439  1
  Te  Te161  1  0.83624390  0.66857290  0.66688851  1
  Te  Te162  1  0.00037670  0.16574794  -0.00863080  1
  Te  Te163  1  -0.00433150  0.16252015  0.33326620  1
  Te  Te164  1  0.00109610  0.16654375  0.66888683  1
  Te  Te165  1  -0.00012161  0.49999495  0.00649664  1
  Te  Te166  1  0.00616359  0.50248639  0.32953027  1
  Te  Te167  1  -0.00062776  0.49918440  0.66599019  1
  Te  Te168  1  -0.00625943  0.83204614  -0.00179077  1
  Te  Te169  1  0.00441134  0.83397850  0.33343072  1
  Te  Te170  1  -0.00284294  0.83620759  0.66731558  1
  Te  Te171  1  0.33464417  0.17206439  0.00290440  1
  Te  Te172  1  0.33292086  0.16746785  0.33504009  1
  Te  Te173  1  0.33109260  0.16507663  0.66562931  1
  Te  Te174  1  0.33077916  0.49710106  -0.00146354  1
  Te  Te175  1  0.32866727  0.49904450  0.33294042  1
  Te  Te176  1  0.33440504  0.51088956  0.67182635  1
  Te  Te177  1  0.33455068  0.83293566  0.00654578  1
  Te  Te178  1  0.33026324  0.83377968  0.33595854  1
  Te  Te179  1  0.32805412  0.83015893  0.66531959  1
  Te  Te180  1  0.66530150  0.15914326  0.00027603  1
  Te  Te181  1  0.66975380  0.16045153  0.33423038  1
  Te  Te182  1  0.66873797  0.16070975  0.66668758  1
  Te  Te183  1  0.67068413  0.50439049  -0.00010093  1
  Te  Te184  1  0.66527418  0.50185098  0.33929130  1
  Te  Te185  1  0.66627775  0.50558694  0.66198573  1
  Te  Te186  1  0.66960382  0.83339274  0.00077272  1
  Te  Te187  1  0.66739223  0.83688597  0.33506282  1
  Te  Te188  1  0.67408158  0.83534736  0.66688557  1
  Te  Te189  1  0.00048824  0.00223804  0.17218948  1
  Te  Te190  1  0.00388876  -0.00364800  0.50061748  1
  Te  Te191  1  -0.00062907  -0.00045687  0.83011154  1
  Te  Te192  1  0.00159416  0.33694264  0.16773517  1
  Te  Te193  1  0.00064796  0.33397572  0.50528013  1
  Te  Te194  1  0.00066892  0.33355219  0.82958175  1
  Te  Te195  1  -0.00352841  0.66260643  0.16998849  1
  Te  Te196  1  -0.00027230  0.67170262  0.50025642  1
  Te  Te197  1  0.00500156  0.66851755  0.82859862  1
  Te  Te198  1  0.33299983  -0.00055872  0.17100315  1
  Te  Te199  1  0.32741595  0.00581465  0.49506408  1
  Te  Te200  1  0.32848462  0.00633023  0.83543552  1
  Te  Te201  1  0.33097317  0.33546527  0.16855712  1
  Te  Te202  1  0.33100509  0.33059105  0.50148589  1
  Te  Te203  1  0.33018459  0.33154376  0.82999424  1
  Te  Te204  1  0.33261177  0.66489915  0.17007336  1
  Te  Te205  1  0.33341696  0.66384915  0.49883869  1
  Te  Te206  1  0.32806078  0.66686771  0.83161307  1
  Te  Te207  1  0.66694407  0.00137646  0.17484655  1
  Te  Te208  1  0.66628832  -0.00454070  0.50114945  1
  Te  Te209  1  0.66713950  -0.00436847  0.82903325  1
  Te  Te210  1  0.67173310  0.33395121  0.16682398  1
  Te  Te211  1  0.67125203  0.33512878  0.49995107  1
  Te  Te212  1  0.67145126  0.33450608  0.83421073  1
  Te  Te213  1  0.67281418  0.66601194  0.16520225  1
  Te  Te214  1  0.66700055  0.66941804  0.50442099  1
  Te  Te215  1  0.66576519  0.67069141  0.83094063  1
