# generated using pymatgen
data_AgSbTe2
_symmetry_space_group_name_H-M   'P 1'
_cell_length_a   18.33523010
_cell_length_b   18.33042981
_cell_length_c   18.32764767
_cell_angle_alpha   89.99710590
_cell_angle_beta   89.99800822
_cell_angle_gamma   89.99884574
_symmetry_Int_Tables_number   1
_chemical_formula_structural   AgSbTe2
_chemical_formula_sum   'Ag54 Sb54 Te108'
_cell_volume   6159.78763059
_cell_formula_units_Z   54
loop_
 _symmetry_equiv_pos_site_id
 _symmetry_equiv_pos_as_xyz
  1  'x, y, z'
loop_
 _atom_site_type_symbol
 _atom_site_label
 _atom_site_symmetry_multiplicity
 _atom_site_fract_x
 _atom_site_fract_y
 _atom_site_fract_z
 _atom_site_occupancy
  Ag  Ag0  1  0.65477530  0.83180266  0.16349339  1
  Ag  Ag1  1  0.48904702  0.16621062  -0.00435094  1
  Ag  Ag2  1  0.01075779  0.83313707  0.16510634  1
  Ag  Ag3  1  0.00755683  0.33167680  -0.00057224  1
  Ag  Ag4  1  0.33407636  0.00855634  -0.00887830  1
  Ag  Ag5  1  0.49658887  0.49566745  -0.00402684  1
  Ag  Ag6  1  0.66255941  0.50683411  0.50095536  1
  Ag  Ag7  1  0.00793036  0.16572861  0.16620047  1
  Ag  Ag8  1  0.33271922  0.32772156  0.67018043  1
  Ag  Ag9  1  0.17510275  0.83141891  0.66611838  1
  Ag  Ag10  1  0.65411562  -0.00940234  0.66548887  1
  Ag  Ag11  1  0.17207463  0.33665173  0.83230893  1
  Ag  Ag12  1  0.33662657  0.83336745  0.83077191  1
  Ag  Ag13  1  0.83776565  0.66962865  0.16599654  1
  Ag  Ag14  1  0.65426540  0.83110223  0.82729625  1
  Ag  Ag15  1  0.49166530  0.33335165  0.50072208  1
  Ag  Ag16  1  0.33412983  0.83608108  0.15862903  1
  Ag  Ag17  1  0.17763416  0.16617204  0.00024951  1
  Ag  Ag18  1  0.00586406  0.49779607  0.83191979  1
  Ag  Ag19  1  0.00217290  0.67386085  0.66805145  1
  Ag  Ag20  1  0.17655380  0.83610229  -0.00453375  1
  Ag  Ag21  1  0.33105071  0.16399175  0.15615127  1
  Ag  Ag22  1  0.49542712  0.15578714  0.66605557  1
  Ag  Ag23  1  0.00870837  0.33354518  0.33061512  1
  Ag  Ag24  1  0.65018524  0.33306226  -0.00330406  1
  Ag  Ag25  1  0.65232301  0.83108720  0.51253149  1
  Ag  Ag26  1  0.83298802  0.17136233  0.33294062  1
  Ag  Ag27  1  0.17849183  -0.00937294  0.50560137  1
  Ag  Ag28  1  0.17469365  0.66819528  0.50166465  1
  Ag  Ag29  1  0.84077437  0.49698609  0.33492641  1
  Ag  Ag30  1  0.00405910  -0.00547055  0.66609825  1
  Ag  Ag31  1  0.83927625  0.33487230  0.83470855  1
  Ag  Ag32  1  0.82967191  -0.00107205  0.50710976  1
  Ag  Ag33  1  0.49765696  -0.01101064  0.50435393  1
  Ag  Ag34  1  0.49927527  0.67205156  0.82703605  1
  Ag  Ag35  1  0.32983212  0.33482793  0.33804791  1
  Ag  Ag36  1  0.83381060  -0.00295116  0.82711638  1
  Ag  Ag37  1  0.33403442  0.16933647  0.84157919  1
  Ag  Ag38  1  0.33906886  0.83442925  0.50659220  1
  Ag  Ag39  1  0.33501708  -0.00364349  0.66913270  1
  Ag  Ag40  1  0.33146183  0.66643865  0.33578648  1
  Ag  Ag41  1  0.16923490  0.50695931  0.66283557  1
  Ag  Ag42  1  0.82868373  0.66726095  0.83191318  1
  Ag  Ag43  1  0.17430214  0.33657677  0.50396385  1
  Ag  Ag44  1  0.33015896  0.49617474  0.83323021  1
  Ag  Ag45  1  0.49679910  0.83512078  0.34818338  1
  Ag  Ag46  1  0.49518729  0.83614265  0.66399847  1
  Ag  Ag47  1  0.49376863  0.67652783  0.50535221  1
  Ag  Ag48  1  0.33114063  0.32171964  -0.00886936  1
  Ag  Ag49  1  0.16638815  0.67094645  0.17032229  1
  Ag  Ag50  1  0.49407197  0.83493514  -0.00597249  1
  Ag  Ag51  1  0.66171027  0.67412352  0.66676303  1
  Ag  Ag52  1  0.49707361  0.16527062  0.33739269  1
  Ag  Ag53  1  0.16751002  0.49876990  0.34176586  1
  Sb  Sb54  1  0.66725702  0.50534942  0.16911664  1
  Sb  Sb55  1  0.16875956  0.00125862  0.82857440  1
  Sb  Sb56  1  0.33428751  0.00042806  0.33689668  1
  Sb  Sb57  1  0.66364920  0.66565769  -0.00475177  1
  Sb  Sb58  1  0.66470808  0.50362766  0.82915422  1
  Sb  Sb59  1  0.83036121  0.49814727  0.00041957  1
  Sb  Sb60  1  0.82829672  0.83481237  0.66734128  1
  Sb  Sb61  1  0.49778888  -0.00732468  0.82564690  1
  Sb  Sb62  1  0.83523944  0.33594064  0.16450856  1
  Sb  Sb63  1  0.83372214  0.33119319  0.50234869  1
  Sb  Sb64  1  0.66587569  -0.00259469  0.34101124  1
  Sb  Sb65  1  0.49360762  0.33588186  0.83237580  1
  Sb  Sb66  1  0.82900851  0.83169157  0.33285528  1
  Sb  Sb67  1  0.33530991  0.16505315  0.50167923  1
  Sb  Sb68  1  0.65776112  0.00044084  -0.00794161  1
  Sb  Sb69  1  0.83458337  -0.00339337  0.16685111  1
  Sb  Sb70  1  0.82908170  0.16317862  0.66487687  1
  Sb  Sb71  1  0.83187772  0.83380232  -0.00107253  1
  Sb  Sb72  1  0.00041873  0.00341379  0.33765520  1
  Sb  Sb73  1  0.66156573  0.66837287  0.33889899  1
  Sb  Sb74  1  0.33387318  0.67146602  0.00108259  1
  Sb  Sb75  1  0.00155424  0.16612835  0.49688641  1
  Sb  Sb76  1  0.49313512  0.50388581  0.66872553  1
  Sb  Sb77  1  0.65943510  0.33405905  0.67023247  1
  Sb  Sb78  1  0.00400426  0.83372093  0.49906707  1
  Sb  Sb79  1  0.17137739  0.17239932  0.32990268  1
  Sb  Sb80  1  0.49765422  0.67191077  0.16829057  1
  Sb  Sb81  1  0.66420481  0.33388193  0.33147869  1
  Sb  Sb82  1  0.00281262  0.83001289  0.83301229  1
  Sb  Sb83  1  0.33372493  0.67231185  0.66353152  1
  Sb  Sb84  1  0.65984201  0.16288589  0.83296657  1
  Sb  Sb85  1  0.49549684  0.50114457  0.33394140  1
  Sb  Sb86  1  0.16811184  0.33633436  0.16518212  1
  Sb  Sb87  1  0.17584889  0.82738629  0.33606926  1
  Sb  Sb88  1  0.00153857  0.66452519  -0.00353279  1
  Sb  Sb89  1  0.00853952  0.33261886  0.66796250  1
  Sb  Sb90  1  0.00193594  0.50066292  0.16378182  1
  Sb  Sb91  1  0.33453637  0.50131875  0.50560286  1
  Sb  Sb92  1  0.00234541  0.50108964  0.50304950  1
  Sb  Sb93  1  0.83696991  0.50098156  0.66490686  1
  Sb  Sb94  1  0.66315969  0.16107814  0.16550808  1
  Sb  Sb95  1  0.17174879  0.49888118  -0.00348782  1
  Sb  Sb96  1  0.00499653  0.17096790  0.83673754  1
  Sb  Sb97  1  0.17019594  0.66418766  0.82923763  1
  Sb  Sb98  1  0.00579297  0.00222215  -0.00475807  1
  Sb  Sb99  1  0.49623677  0.33097995  0.16672948  1
  Sb  Sb100  1  0.83091146  0.66997659  0.50164536  1
  Sb  Sb101  1  0.00514800  0.66321231  0.33549237  1
  Sb  Sb102  1  0.49777796  -0.00267123  0.17014014  1
  Sb  Sb103  1  0.16909245  -0.00392423  0.16994639  1
  Sb  Sb104  1  0.33210540  0.50181685  0.16353797  1
  Sb  Sb105  1  0.83348634  0.16797978  0.00245301  1
  Sb  Sb106  1  0.17406599  0.16490928  0.67044135  1
  Sb  Sb107  1  0.66152683  0.16285848  0.50021234  1
  Te  Te108  1  0.16822349  0.16572020  0.16260125  1
  Te  Te109  1  0.16707958  0.17283438  0.49920345  1
  Te  Te110  1  0.17216554  0.17115877  0.83924962  1
  Te  Te111  1  0.16626380  0.50949782  0.17100031  1
  Te  Te112  1  0.16742600  0.49917911  0.50227032  1
  Te  Te113  1  0.16829200  0.49766095  0.83100610  1
  Te  Te114  1  0.17060069  0.83136573  0.16917209  1
  Te  Te115  1  0.16891499  0.83179961  0.50292974  1
  Te  Te116  1  0.17064367  0.83262202  0.83250176  1
  Te  Te117  1  0.49532052  0.16428076  0.16889114  1
  Te  Te118  1  0.49948936  0.17420270  0.49961287  1
  Te  Te119  1  0.49461143  0.16750686  0.83324579  1
  Te  Te120  1  0.50141116  0.50316406  0.15840505  1
  Te  Te121  1  0.50282577  0.49563524  0.49944017  1
  Te  Te122  1  0.49698523  0.50615029  0.83611697  1
  Te  Te123  1  0.49555816  0.83335927  0.15753309  1
  Te  Te124  1  0.49814717  0.83278280  0.50374885  1
  Te  Te125  1  0.49800815  0.83265930  0.83333013  1
  Te  Te126  1  0.83416107  0.16566715  0.17178558  1
  Te  Te127  1  0.83201932  0.16223910  0.49387228  1
  Te  Te128  1  0.83261479  0.16933841  0.83320818  1
  Te  Te129  1  0.83403553  0.50696168  0.17231324  1
  Te  Te130  1  0.82959504  0.50009123  0.49522616  1
  Te  Te131  1  0.83484203  0.50128007  0.83293068  1
  Te  Te132  1  0.83488496  0.82947377  0.16624830  1
  Te  Te133  1  0.83144583  0.83906247  0.49786100  1
  Te  Te134  1  0.83520062  0.83023627  0.83457192  1
  Te  Te135  1  0.17186482  -0.00177310  0.00015652  1
  Te  Te136  1  0.16566913  0.00064038  0.34605592  1
  Te  Te137  1  0.17033770  -0.00151953  0.66362068  1
  Te  Te138  1  0.16941517  0.33363734  -0.00127904  1
  Te  Te139  1  0.16775835  0.33717924  0.33230276  1
  Te  Te140  1  0.17070271  0.33175847  0.66629413  1
  Te  Te141  1  0.16625049  0.67122442  0.00481122  1
  Te  Te142  1  0.16978034  0.66163977  0.33841015  1
  Te  Te143  1  0.16596715  0.66739622  0.66453178  1
  Te  Te144  1  0.49427336  0.00133743  0.00088534  1
  Te  Te145  1  0.50024888  -0.00025604  0.34069532  1
  Te  Te146  1  0.49709088  -0.00164436  0.66438048  1
  Te  Te147  1  0.49334028  0.33037927  -0.00018492  1
  Te  Te148  1  0.49655478  0.33196131  0.33615419  1
  Te  Te149  1  0.49541071  0.33423083  0.66358126  1
  Te  Te150  1  0.50059275  0.67040004  -0.00316112  1
  Te  Te151  1  0.49415906  0.66987495  0.33840954  1
  Te  Te152  1  0.50145438  0.66896468  0.66564232  1
  Te  Te153  1  0.83302224  0.00149839  -0.00731146  1
  Te  Te154  1  0.83324080  0.00565879  0.33675498  1
  Te  Te155  1  0.83734749  0.00064022  0.66719545  1
  Te  Te156  1  0.84354188  0.33331464  -0.00419455  1
  Te  Te157  1  0.83302141  0.33365658  0.33319086  1
  Te  Te158  1  0.83319417  0.33168542  0.67237010  1
  Te  Te159  1  0.83268606  0.66541246  -0.00134572  1
  Te  Te160  1  0.83432475  0.66290518  0.33212683  1
  Te  Te161  1  0.83752050  0.66638193  0.67016281  1
  Te  Te162  1  0.00125388  0.16994385  0.00489042  1
  Te  Te163  1  -0.00063069  0.17101344  0.32830537  1
  Te  Te164  1  -0.00096136  0.16042074  0.66726498  1
  Te  Te165  1  0.00059381  0.49411879  -0.00518538  1
  Te  Te166  1  0.00181345  0.49568274  0.33284829  1
  Te  Te167  1  0.00531807  0.50011573  0.67094713  1
  Te  Te168  1  0.00444094  0.83366693  0.00422023  1
  Te  Te169  1  -0.00138191  0.83350864  0.32617273  1
  Te  Te170  1  0.00700128  0.83381108  0.66689455  1
  Te  Te171  1  0.33373180  0.16503006  -0.00058295  1
  Te  Te172  1  0.33715564  0.16915766  0.33001101  1
  Te  Te173  1  0.33743737  0.16651916  0.66864449  1
  Te  Te174  1  0.33672260  0.49721791  -0.00445232  1
  Te  Te175  1  0.32993997  0.49799237  0.33105965  1
  Te  Te176  1  0.32830581  0.49380002  0.67230411  1
  Te  Te177  1  0.33331056  0.83130759  -0.00067182  1
  Te  Te178  1  0.33787417  0.83335399  0.33454190  1
  Te  Te179  1  0.33459148  0.83350306  0.66675996  1
  Te  Te180  1  0.66201659  0.17165639  0.00104651  1
  Te  Te181  1  0.66305945  0.16691600  0.33107880  1
  Te  Te182  1  0.65756138  0.16318224  0.66718191  1
  Te  Te183  1  0.66175760  0.49425280  0.00019867  1
  Te  Te184  1  0.66776873  0.50026000  0.33798015  1
  Te  Te185  1  0.66669680  0.50282064  0.66136047  1
  Te  Te186  1  0.66239564  0.83425904  -0.00119340  1
  Te  Te187  1  0.66006117  0.83268443  0.32679316  1
  Te  Te188  1  0.66684379  0.83249636  0.66877341  1
  Te  Te189  1  0.00083998  0.00015126  0.16594567  1
  Te  Te190  1  -0.00433962  -0.00061526  0.50554874  1
  Te  Te191  1  -0.00420961  0.00033314  0.82854495  1
  Te  Te192  1  0.00090164  0.33029109  0.16700150  1
  Te  Te193  1  0.00277045  0.33383716  0.49452011  1
  Te  Te194  1  0.00360355  0.33585747  0.83333275  1
  Te  Te195  1  0.00090288  0.66975088  0.16657236  1
  Te  Te196  1  0.00253404  0.66696541  0.50690410  1
  Te  Te197  1  -0.00102109  0.66216769  0.82914203  1
  Te  Te198  1  0.33266411  -0.00116115  0.16416895  1
  Te  Te199  1  0.33572712  -0.00266146  0.50313852  1
  Te  Te200  1  0.33211772  -0.00352144  0.83167572  1
  Te  Te201  1  0.33278917  0.33051130  0.16971190  1
  Te  Te202  1  0.33141670  0.33473384  0.49844198  1
  Te  Te203  1  0.33271404  0.33314302  0.83248075  1
  Te  Te204  1  0.33026746  0.67008983  0.17268601  1
  Te  Te205  1  0.33412324  0.66765542  0.49730040  1
  Te  Te206  1  0.33710488  0.66884888  0.83333406  1
  Te  Te207  1  0.66857179  -0.00855307  0.16441030  1
  Te  Te208  1  0.66346185  -0.00409781  0.50589555  1
  Te  Te209  1  0.67271918  -0.00428964  0.82723080  1
  Te  Te210  1  0.66731927  0.33361426  0.15801243  1
  Te  Te211  1  0.66527498  0.33659771  0.50078631  1
  Te  Te212  1  0.67081081  0.33444404  0.83727099  1
  Te  Te213  1  0.66999790  0.67230408  0.16715139  1
  Te  Te214  1  0.66585213  0.67020539  0.50501488  1
  Te  Te215  1  0.66670711  0.66960767  0.82888315  1
