# generated using pymatgen
data_AgSbTe2
_symmetry_space_group_name_H-M   'P 1'
_cell_length_a   18.32106418
_cell_length_b   18.32426318
_cell_length_c   18.32257701
_cell_angle_alpha   90.00018604
_cell_angle_beta   89.99617251
_cell_angle_gamma   90.00075199
_symmetry_Int_Tables_number   1
_chemical_formula_structural   AgSbTe2
_chemical_formula_sum   'Ag54 Sb54 Te108'
_cell_volume   6151.25557396
_cell_formula_units_Z   54
loop_
 _symmetry_equiv_pos_site_id
 _symmetry_equiv_pos_as_xyz
  1  'x, y, z'
loop_
 _atom_site_type_symbol
 _atom_site_label
 _atom_site_symmetry_multiplicity
 _atom_site_fract_x
 _atom_site_fract_y
 _atom_site_fract_z
 _atom_site_occupancy
  Ag  Ag0  1  0.67267343  0.33249378  -0.00154463  1
  Ag  Ag1  1  0.00040416  0.33347874  0.34868055  1
  Ag  Ag2  1  -0.00081576  0.33676388  0.66255485  1
  Ag  Ag3  1  0.66510545  -0.00265603  0.33026898  1
  Ag  Ag4  1  0.33312151  0.33719102  0.67094146  1
  Ag  Ag5  1  0.33835151  0.66777326  -0.00681956  1
  Ag  Ag6  1  0.33591865  0.65904342  0.67477047  1
  Ag  Ag7  1  0.33141722  0.49706436  0.83325111  1
  Ag  Ag8  1  0.83138545  0.16595881  -0.00557287  1
  Ag  Ag9  1  0.83911979  0.50112052  0.67017408  1
  Ag  Ag10  1  0.50600981  0.67097792  0.16436877  1
  Ag  Ag11  1  0.83526825  0.50204019  -0.00366973  1
  Ag  Ag12  1  -0.00168097  0.48811731  0.51054711  1
  Ag  Ag13  1  0.49498118  0.32936029  0.82811216  1
  Ag  Ag14  1  0.33970213  0.17482986  0.83342627  1
  Ag  Ag15  1  0.17105621  0.83194658  0.33231834  1
  Ag  Ag16  1  0.83162658  0.66456395  0.83406624  1
  Ag  Ag17  1  0.83001514  -0.00784124  0.16044002  1
  Ag  Ag18  1  0.83607045  0.33579614  0.16477762  1
  Ag  Ag19  1  -0.00251601  0.49455555  0.82826963  1
  Ag  Ag20  1  0.83597902  0.49886693  0.33233595  1
  Ag  Ag21  1  0.67356378  0.67164167  0.67388237  1
  Ag  Ag22  1  0.50163201  0.50097451  0.66833713  1
  Ag  Ag23  1  -0.00159192  0.17599847  0.51033862  1
  Ag  Ag24  1  0.33521423  0.33609927  -0.01025369  1
  Ag  Ag25  1  -0.00996194  0.65401825  0.66773163  1
  Ag  Ag26  1  -0.01512895  0.00210188  -0.00245497  1
  Ag  Ag27  1  0.34190094  0.83097171  0.16124163  1
  Ag  Ag28  1  0.15779500  0.17182348  0.66779000  1
  Ag  Ag29  1  0.16204059  0.49789273  -0.00166394  1
  Ag  Ag30  1  0.82906630  0.82999669  0.32458267  1
  Ag  Ag31  1  0.33696227  0.82843084  0.83760854  1
  Ag  Ag32  1  0.50275182  0.00350882  0.50609549  1
  Ag  Ag33  1  0.66592676  -0.00410848  0.67281630  1
  Ag  Ag34  1  0.16506201  0.65736070  0.50379688  1
  Ag  Ag35  1  0.50497577  0.83010833  0.66607589  1
  Ag  Ag36  1  0.16455508  0.33413159  0.17045711  1
  Ag  Ag37  1  0.84322878  0.33484145  0.50167269  1
  Ag  Ag38  1  0.50338314  0.83719681  0.33375905  1
  Ag  Ag39  1  0.67185635  0.66931095  -0.00365260  1
  Ag  Ag40  1  0.82914763  0.83373268  0.00263664  1
  Ag  Ag41  1  0.15515270  0.33628210  0.49988073  1
  Ag  Ag42  1  -0.00678846  0.17394690  0.82823273  1
  Ag  Ag43  1  0.82615506  0.82755478  0.67078668  1
  Ag  Ag44  1  0.50045390  0.16302985  0.33644606  1
  Ag  Ag45  1  0.33772253  -0.00460227  -0.00346161  1
  Ag  Ag46  1  0.33048360  0.33290987  0.33579743  1
  Ag  Ag47  1  0.82852933  0.67239262  0.15645968  1
  Ag  Ag48  1  0.66823733  -0.00240643  -0.00131157  1
  Ag  Ag49  1  0.66802480  0.83361757  0.16399283  1
  Ag  Ag50  1  0.49843302  0.33069311  0.50861319  1
  Ag  Ag51  1  0.50054092  0.00466923  0.83068909  1
  Ag  Ag52  1  0.66856607  0.16570093  0.83439725  1
  Ag  Ag53  1  0.83677385  0.17473740  0.67420860  1
  Sb  Sb54  1  -0.00410882  0.49768390  0.16420054  1
  Sb  Sb55  1  0.66921705  0.67311783  0.33142718  1
  Sb  Sb56  1  -0.00690830  0.00403274  0.33052527  1
  Sb  Sb57  1  -0.00101140  0.83402246  0.83283436  1
  Sb  Sb58  1  0.67392684  0.49706629  0.50363627  1
  Sb  Sb59  1  0.34108077  0.00135890  0.67377390  1
  Sb  Sb60  1  0.82873993  0.00394096  0.49971340  1
  Sb  Sb61  1  -0.00625397  0.66761800  -0.00636684  1
  Sb  Sb62  1  0.33518634  0.83303282  0.50137962  1
  Sb  Sb63  1  0.66671384  0.83399999  0.49982418  1
  Sb  Sb64  1  0.50455581  0.49954144  0.33953888  1
  Sb  Sb65  1  0.33258422  0.17203034  0.50741176  1
  Sb  Sb66  1  0.33324269  0.66410318  0.33287619  1
  Sb  Sb67  1  -0.00123055  0.83305962  0.50112038  1
  Sb  Sb68  1  0.16973172  0.16792351  0.33868149  1
  Sb  Sb69  1  0.17174731  0.33350747  0.82888490  1
  Sb  Sb70  1  0.16388689  0.17208184  -0.00580420  1
  Sb  Sb71  1  0.83683964  0.66146598  0.50600967  1
  Sb  Sb72  1  -0.00282760  0.66174848  0.33929146  1
  Sb  Sb73  1  -0.00877595  0.00542809  0.67180389  1
  Sb  Sb74  1  0.16855596  0.83286920  0.66350425  1
  Sb  Sb75  1  0.32732431  0.49686181  0.50712264  1
  Sb  Sb76  1  0.83023341  0.16900885  0.33319630  1
  Sb  Sb77  1  0.16385243  0.00242330  0.16562049  1
  Sb  Sb78  1  -0.00111855  0.33203140  -0.00540884  1
  Sb  Sb79  1  0.82710216  -0.00006550  0.83886027  1
  Sb  Sb80  1  0.50582680  -0.00598862  0.16429512  1
  Sb  Sb81  1  0.16643180  0.66476198  0.82948171  1
  Sb  Sb82  1  0.33492847  0.16540863  0.16024089  1
  Sb  Sb83  1  0.17096294  0.00378869  0.50067710  1
  Sb  Sb84  1  0.66857016  0.32819601  0.32813820  1
  Sb  Sb85  1  0.16777271  0.82929267  0.00390507  1
  Sb  Sb86  1  0.50063999  0.33776982  0.16493244  1
  Sb  Sb87  1  0.50339618  0.83268406  -0.00121901  1
  Sb  Sb88  1  0.33314438  0.50223373  0.15810438  1
  Sb  Sb89  1  -0.00567711  0.83327246  0.16613785  1
  Sb  Sb90  1  -0.00266462  0.16965847  0.16342729  1
  Sb  Sb91  1  0.83091808  0.33486751  0.83318390  1
  Sb  Sb92  1  0.50202154  0.50016302  -0.00698511  1
  Sb  Sb93  1  0.16374100  0.49496303  0.67086194  1
  Sb  Sb94  1  0.66304205  0.83750128  0.83536701  1
  Sb  Sb95  1  0.17210689  0.00190780  0.83358540  1
  Sb  Sb96  1  0.49689885  0.66580589  0.50326695  1
  Sb  Sb97  1  0.66968279  0.50627738  0.16455278  1
  Sb  Sb98  1  0.66834184  0.49665608  0.83295670  1
  Sb  Sb99  1  0.66961326  0.16698165  0.50587382  1
  Sb  Sb100  1  0.34050356  0.00164487  0.32835900  1
  Sb  Sb101  1  0.50261847  0.16772892  0.66759615  1
  Sb  Sb102  1  0.16572262  0.66356462  0.16803015  1
  Sb  Sb103  1  0.50198001  0.66671241  0.83380747  1
  Sb  Sb104  1  0.16219108  0.49867297  0.33185512  1
  Sb  Sb105  1  0.50503084  0.16650426  -0.00130710  1
  Sb  Sb106  1  0.66761248  0.33282096  0.67208888  1
  Sb  Sb107  1  0.66858207  0.16114902  0.16084228  1
  Te  Te108  1  0.16635715  0.17455643  0.16724589  1
  Te  Te109  1  0.16291919  0.17141766  0.50518759  1
  Te  Te110  1  0.16451402  0.16732754  0.82750043  1
  Te  Te111  1  0.16519697  0.49440012  0.16158461  1
  Te  Te112  1  0.15990819  0.49757118  0.49860741  1
  Te  Te113  1  0.16587381  0.50007416  0.83985209  1
  Te  Te114  1  0.16872236  0.83308024  0.17265977  1
  Te  Te115  1  0.16688588  0.83417430  0.49331656  1
  Te  Te116  1  0.17544531  0.83329257  0.83357400  1
  Te  Te117  1  0.50094623  0.16745345  0.17509082  1
  Te  Te118  1  0.49986746  0.16663818  0.49787746  1
  Te  Te119  1  0.49974816  0.16693814  0.83390360  1
  Te  Te120  1  0.50109324  0.50943010  0.17015638  1
  Te  Te121  1  0.49921063  0.49607058  0.50694707  1
  Te  Te122  1  0.49632272  0.49674128  0.82683350  1
  Te  Te123  1  0.50134198  0.83034091  0.16730592  1
  Te  Te124  1  0.49984707  0.83631675  0.50070924  1
  Te  Te125  1  0.49552287  0.83565667  0.82797543  1
  Te  Te126  1  0.83313812  0.17168762  0.16138016  1
  Te  Te127  1  0.83684951  0.17169036  0.50241295  1
  Te  Te128  1  0.83233132  0.16651294  0.83407197  1
  Te  Te129  1  0.83296568  0.49669943  0.16462576  1
  Te  Te130  1  0.83886140  0.49528302  0.50346545  1
  Te  Te131  1  0.83421840  0.50142919  0.83189656  1
  Te  Te132  1  0.83147570  0.83245421  0.16446822  1
  Te  Te133  1  0.83369455  0.83442792  0.50113177  1
  Te  Te134  1  0.83358333  0.82886685  0.83154585  1
  Te  Te135  1  0.17420533  -0.00049715  0.00178038  1
  Te  Te136  1  0.16592022  -0.00592713  0.33279559  1
  Te  Te137  1  0.16589779  0.00539684  0.66505986  1
  Te  Te138  1  0.16806925  0.33654368  0.00414947  1
  Te  Te139  1  0.16774494  0.33325277  0.33538645  1
  Te  Te140  1  0.16845715  0.33176697  0.66239636  1
  Te  Te141  1  0.17058794  0.66103986  0.00122166  1
  Te  Te142  1  0.16535589  0.67019915  0.33743088  1
  Te  Te143  1  0.17301420  0.66842639  0.66258293  1
  Te  Te144  1  0.50090521  0.00006449  -0.00418357  1
  Te  Te145  1  0.50396978  -0.00265087  0.33201773  1
  Te  Te146  1  0.50463090  -0.00040952  0.66697232  1
  Te  Te147  1  0.49723866  0.33381155  -0.00233220  1
  Te  Te148  1  0.49821650  0.33347933  0.33294396  1
  Te  Te149  1  0.50055180  0.33369454  0.66840608  1
  Te  Te150  1  0.50077925  0.66591829  0.00279555  1
  Te  Te151  1  0.50072497  0.67096571  0.33132706  1
  Te  Te152  1  0.49585792  0.66790644  0.66680191  1
  Te  Te153  1  0.82910832  -0.00122768  -0.00051193  1
  Te  Te154  1  0.82832579  -0.00223565  0.32972030  1
  Te  Te155  1  0.82621430  -0.00522031  0.66671394  1
  Te  Te156  1  0.83309249  0.33457005  -0.00029119  1
  Te  Te157  1  0.83380934  0.33463712  0.33289281  1
  Te  Te158  1  0.83209359  0.33459048  0.66565952  1
  Te  Te159  1  0.83332243  0.66586683  -0.00230523  1
  Te  Te160  1  0.83383188  0.66710266  0.33186577  1
  Te  Te161  1  0.83265121  0.66563752  0.66736135  1
  Te  Te162  1  -0.00385707  0.16347574  -0.00540046  1
  Te  Te163  1  0.00050121  0.17205638  0.33581811  1
  Te  Te164  1  -0.00349811  0.16678770  0.66938151  1
  Te  Te165  1  -0.00262871  0.50052675  -0.00661596  1
  Te  Te166  1  -0.00497745  0.49451694  0.33525311  1
  Te  Te167  1  0.00088984  0.49822429  0.66935141  1
  Te  Te168  1  -0.00341176  0.83925678  -0.00128009  1
  Te  Te169  1  -0.00662157  0.83420307  0.33339411  1
  Te  Te170  1  -0.00296864  0.83307415  0.66725918  1
  Te  Te171  1  0.33274041  0.17037170  -0.00594797  1
  Te  Te172  1  0.33772914  0.17071094  0.33199523  1
  Te  Te173  1  0.33304127  0.16951715  0.67337131  1
  Te  Te174  1  0.33560964  0.49833798  -0.00543054  1
  Te  Te175  1  0.33408981  0.49371744  0.33319545  1
  Te  Te176  1  0.33166232  0.49848910  0.67133322  1
  Te  Te177  1  0.33286521  0.83014974  0.00025877  1
  Te  Te178  1  0.33740016  0.83322594  0.32952596  1
  Te  Te179  1  0.33661564  0.83288737  0.66954614  1
  Te  Te180  1  0.67062353  0.16602175  -0.00421469  1
  Te  Te181  1  0.66209703  0.15969885  0.33342638  1
  Te  Te182  1  0.67214573  0.16297256  0.67255449  1
  Te  Te183  1  0.67212871  0.50161755  -0.00099061  1
  Te  Te184  1  0.67488242  0.50067229  0.33482063  1
  Te  Te185  1  0.66597714  0.50472517  0.66783913  1
  Te  Te186  1  0.66899765  0.83148123  0.00163309  1
  Te  Te187  1  0.66732093  0.83735461  0.33123683  1
  Te  Te188  1  0.66585228  0.83313635  0.66813972  1
  Te  Te189  1  -0.00667804  0.00202823  0.16085948  1
  Te  Te190  1  0.00077624  0.00739111  0.49948131  1
  Te  Te191  1  0.00216710  0.00296832  0.83893124  1
  Te  Te192  1  -0.00121873  0.33365891  0.16669103  1
  Te  Te193  1  -0.00078959  0.33237811  0.50349628  1
  Te  Te194  1  0.00063927  0.33365044  0.82683745  1
  Te  Te195  1  -0.00729908  0.66544467  0.16675249  1
  Te  Te196  1  0.00466460  0.66609011  0.50700601  1
  Te  Te197  1  -0.00293139  0.66525032  0.82628652  1
  Te  Te198  1  0.33280850  -0.00480861  0.15952721  1
  Te  Te199  1  0.34129180  0.00206731  0.49856555  1
  Te  Te200  1  0.33855852  0.00049468  0.83773223  1
  Te  Te201  1  0.33206321  0.33362252  0.16677579  1
  Te  Te202  1  0.33968982  0.33297507  0.50185362  1
  Te  Te203  1  0.33420835  0.33467326  0.83193588  1
  Te  Te204  1  0.33325168  0.67070724  0.16473985  1
  Te  Te205  1  0.32735264  0.66478746  0.50347540  1
  Te  Te206  1  0.33439257  0.66478967  0.83407370  1
  Te  Te207  1  0.67085628  -0.00458591  0.16245232  1
  Te  Te208  1  0.66096564  0.00078815  0.50018286  1
  Te  Te209  1  0.66212662  0.00373518  0.83506248  1
  Te  Te210  1  0.67049177  0.33317907  0.15928444  1
  Te  Te211  1  0.65813870  0.33174392  0.49769502  1
  Te  Te212  1  0.66007039  0.32883256  0.83926130  1
  Te  Te213  1  0.66867859  0.67187028  0.16462122  1
  Te  Te214  1  0.66589523  0.66518252  0.50925781  1
  Te  Te215  1  0.66912152  0.66574598  0.83478472  1
