# generated using pymatgen
data_AgSbTe2
_symmetry_space_group_name_H-M   'P 1'
_cell_length_a   18.36421248
_cell_length_b   18.35897722
_cell_length_c   18.36078731
_cell_angle_alpha   89.99911415
_cell_angle_beta   89.99702807
_cell_angle_gamma   89.99731629
_symmetry_Int_Tables_number   1
_chemical_formula_structural   AgSbTe2
_chemical_formula_sum   'Ag54 Sb54 Te108'
_cell_volume   6190.30561661
_cell_formula_units_Z   54
loop_
 _symmetry_equiv_pos_site_id
 _symmetry_equiv_pos_as_xyz
  1  'x, y, z'
loop_
 _atom_site_type_symbol
 _atom_site_label
 _atom_site_symmetry_multiplicity
 _atom_site_fract_x
 _atom_site_fract_y
 _atom_site_fract_z
 _atom_site_occupancy
  Ag  Ag0  1  0.83299518  0.32109772  0.83630922  1
  Ag  Ag1  1  0.66362833  0.49941201  0.84532746  1
  Ag  Ag2  1  0.49763247  -0.00958042  0.15890515  1
  Ag  Ag3  1  0.82885866  0.15583786  0.00090939  1
  Ag  Ag4  1  0.18038355  0.32253869  0.49925104  1
  Ag  Ag5  1  0.00618652  0.32573216  0.66759486  1
  Ag  Ag6  1  0.34082873  0.83859599  0.16661086  1
  Ag  Ag7  1  0.00788833  0.83852125  0.49707542  1
  Ag  Ag8  1  0.00268156  0.50052859  0.16486140  1
  Ag  Ag9  1  0.34513723  0.33853632  0.34630155  1
  Ag  Ag10  1  0.49865325  0.83132241  0.32579304  1
  Ag  Ag11  1  0.83637484  0.84307636  0.00439756  1
  Ag  Ag12  1  -0.00288354  0.84024914  0.16453001  1
  Ag  Ag13  1  0.83422858  -0.00293986  0.15419581  1
  Ag  Ag14  1  0.49835033  0.49733848  0.32767205  1
  Ag  Ag15  1  0.16703883  0.00082275  0.84028993  1
  Ag  Ag16  1  0.66268367  0.32533733  0.00593924  1
  Ag  Ag17  1  0.17757036  0.00234700  0.50018514  1
  Ag  Ag18  1  0.66125984  0.33524684  0.32407499  1
  Ag  Ag19  1  0.82560907  0.83982917  0.32352963  1
  Ag  Ag20  1  0.85515263  0.00390394  0.84527416  1
  Ag  Ag21  1  0.48033665  -0.00213620  0.84777902  1
  Ag  Ag22  1  0.65910691  0.50026701  0.16402284  1
  Ag  Ag23  1  0.33040844  0.00093287  0.67835806  1
  Ag  Ag24  1  0.66044077  0.83499785  0.16605319  1
  Ag  Ag25  1  0.83037717  0.16090425  0.32691443  1
  Ag  Ag26  1  0.33519156  0.48126020  0.48820723  1
  Ag  Ag27  1  0.17502425  0.15700543  -0.00079027  1
  Ag  Ag28  1  0.33548428  0.84668965  0.84833034  1
  Ag  Ag29  1  0.65359921  0.16613456  0.49657179  1
  Ag  Ag30  1  0.00180773  0.00020721  -0.00259287  1
  Ag  Ag31  1  0.49298184  0.32475554  0.48701058  1
  Ag  Ag32  1  0.17443710  -0.00298395  0.15287177  1
  Ag  Ag33  1  0.49981292  0.34140075  0.16869384  1
  Ag  Ag34  1  0.33346528  -0.00036096  -0.00710445  1
  Ag  Ag35  1  0.49396050  0.00306621  0.49792381  1
  Ag  Ag36  1  0.01034188  0.00161807  0.68166268  1
  Ag  Ag37  1  0.17985920  0.49542250  0.00300340  1
  Ag  Ag38  1  0.66030681  0.66577106  0.33319292  1
  Ag  Ag39  1  0.33985264  0.50113557  0.16842586  1
  Ag  Ag40  1  0.17118808  0.84639809  0.00303153  1
  Ag  Ag41  1  0.33491556  0.16554871  0.50244589  1
  Ag  Ag42  1  0.00352325  0.84240818  0.84495386  1
  Ag  Ag43  1  0.49958826  0.49911701  0.00715317  1
  Ag  Ag44  1  0.49752483  0.84496203  0.00694518  1
  Ag  Ag45  1  0.34094796  0.66616614  0.33323480  1
  Ag  Ag46  1  0.49981380  0.15747296  0.00164358  1
  Ag  Ag47  1  0.33318949  0.84477527  0.49563762  1
  Ag  Ag48  1  0.33169797  0.15939804  0.83456239  1
  Ag  Ag49  1  0.00457180  0.15501519  0.83655434  1
  Ag  Ag50  1  0.66670748  0.00234433  -0.00173287  1
  Ag  Ag51  1  0.66417043  0.66705335  0.66320449  1
  Ag  Ag52  1  0.50102461  0.68110524  0.83479952  1
  Ag  Ag53  1  0.33258153  0.32148962  0.65917827  1
  Sb  Sb54  1  -0.00152169  0.16180505  0.15962089  1
  Sb  Sb55  1  0.49891201  0.49871128  0.66578490  1
  Sb  Sb56  1  0.33633445  0.16399950  0.16528578  1
  Sb  Sb57  1  0.16924781  0.49404338  0.67073182  1
  Sb  Sb58  1  0.83415604  0.83742259  0.67104891  1
  Sb  Sb59  1  0.82982934  0.33043422  0.50231522  1
  Sb  Sb60  1  0.66325765  0.83293082  0.84153473  1
  Sb  Sb61  1  0.49941010  0.66676918  0.16640398  1
  Sb  Sb62  1  0.17276074  0.33063117  0.16882120  1
  Sb  Sb63  1  0.50178793  0.16718314  0.33134853  1
  Sb  Sb64  1  0.82565046  0.50042335  0.32921639  1
  Sb  Sb65  1  0.16911262  0.16304930  0.67184249  1
  Sb  Sb66  1  0.66275884  -0.00249651  0.67307816  1
  Sb  Sb67  1  0.49702181  0.16572318  0.66820463  1
  Sb  Sb68  1  0.49873603  0.83562958  0.66917389  1
  Sb  Sb69  1  -0.00357818  0.32753097  -0.00338459  1
  Sb  Sb70  1  0.16429828  0.32760266  0.83226636  1
  Sb  Sb71  1  0.66466481  0.16324950  0.16613700  1
  Sb  Sb72  1  0.49835943  0.66828270  0.49807420  1
  Sb  Sb73  1  0.16793556  0.83807916  0.67017354  1
  Sb  Sb74  1  0.66213137  0.83818346  0.49225316  1
  Sb  Sb75  1  0.66276210  0.33433126  0.66803266  1
  Sb  Sb76  1  0.65916413  0.49513574  0.49609832  1
  Sb  Sb77  1  0.33695010  0.67611486  0.00549966  1
  Sb  Sb78  1  0.33839794  0.67125635  0.66301235  1
  Sb  Sb79  1  0.17239400  0.83564511  0.32763199  1
  Sb  Sb80  1  0.00227756  0.67773021  0.00013999  1
  Sb  Sb81  1  0.33670573  0.00016768  0.33229938  1
  Sb  Sb82  1  0.66192259  0.66832795  0.00405976  1
  Sb  Sb83  1  0.82767979  0.32856565  0.16254251  1
  Sb  Sb84  1  0.83189336  0.00097476  0.49993266  1
  Sb  Sb85  1  0.83133254  0.67713402  0.16596495  1
  Sb  Sb86  1  0.33848324  0.49937930  0.83838231  1
  Sb  Sb87  1  0.16904328  0.67263294  0.16521475  1
  Sb  Sb88  1  0.66594730  0.00144056  0.32394728  1
  Sb  Sb89  1  -0.00304136  0.33386685  0.33605198  1
  Sb  Sb90  1  -0.00482552  0.67272785  0.66816773  1
  Sb  Sb91  1  -0.00231592  -0.00157181  0.32857486  1
  Sb  Sb92  1  0.33912178  0.32752826  -0.00024579  1
  Sb  Sb93  1  0.82726796  0.67164832  0.83612545  1
  Sb  Sb94  1  0.50214145  0.32773713  0.83841940  1
  Sb  Sb95  1  0.17370710  0.67482457  0.83682573  1
  Sb  Sb96  1  0.16614369  0.16524473  0.33086670  1
  Sb  Sb97  1  0.00425413  0.16143857  0.50546539  1
  Sb  Sb98  1  0.17105531  0.67134807  0.49960809  1
  Sb  Sb99  1  0.83220490  0.49702393  0.66818804  1
  Sb  Sb100  1  0.66527652  0.16670528  0.83554026  1
  Sb  Sb101  1  -0.00342909  0.49835254  0.83960795  1
  Sb  Sb102  1  -0.00133877  0.67046325  0.33093701  1
  Sb  Sb103  1  0.17732718  0.49822281  0.32769416  1
  Sb  Sb104  1  0.83485857  0.16518994  0.67133101  1
  Sb  Sb105  1  0.01025531  0.49984129  0.49590860  1
  Sb  Sb106  1  0.83164234  0.66943296  0.49808867  1
  Sb  Sb107  1  0.82780552  0.49815469  0.00170880  1
  Te  Te108  1  0.16668588  0.15995540  0.16130281  1
  Te  Te109  1  0.16970500  0.16585626  0.49782259  1
  Te  Te110  1  0.16786617  0.16470181  0.83966909  1
  Te  Te111  1  0.16393157  0.49775895  0.16221551  1
  Te  Te112  1  0.17450276  0.50048059  0.49993148  1
  Te  Te113  1  0.16629108  0.50149391  0.84112094  1
  Te  Te114  1  0.16354905  0.83810955  0.16287929  1
  Te  Te115  1  0.16778762  0.83820971  0.49872376  1
  Te  Te116  1  0.16947900  0.83651002  0.83784388  1
  Te  Te117  1  0.49991222  0.16400771  0.16220666  1
  Te  Te118  1  0.49608827  0.16687422  0.49819935  1
  Te  Te119  1  0.49599842  0.16035047  0.83810817  1
  Te  Te120  1  0.50068516  0.50243505  0.16957310  1
  Te  Te121  1  0.49341099  0.49928588  0.49694611  1
  Te  Te122  1  0.50458895  0.49478482  0.83281369  1
  Te  Te123  1  0.49958455  0.83063754  0.16671630  1
  Te  Te124  1  0.49649301  0.83740998  0.49999005  1
  Te  Te125  1  0.49648845  0.83806014  0.83494990  1
  Te  Te126  1  0.83245729  0.16104303  0.16465498  1
  Te  Te127  1  0.83691436  0.16793979  0.49609039  1
  Te  Te128  1  0.83188632  0.16332690  0.83656057  1
  Te  Te129  1  0.83591924  0.49806793  0.16751618  1
  Te  Te130  1  0.83762328  0.50066393  0.49869227  1
  Te  Te131  1  0.82704708  0.50274708  0.83399373  1
  Te  Te132  1  0.83654632  0.83763641  0.16540025  1
  Te  Te133  1  0.83273362  0.83362063  0.49764820  1
  Te  Te134  1  0.83413739  0.83968037  0.83820926  1
  Te  Te135  1  0.16866620  0.00107025  -0.00054933  1
  Te  Te136  1  0.16481553  0.00121134  0.34119509  1
  Te  Te137  1  0.16774729  -0.00122946  0.65841989  1
  Te  Te138  1  0.16535392  0.33468619  0.00176093  1
  Te  Te139  1  0.16493934  0.33281667  0.33961152  1
  Te  Te140  1  0.16755756  0.33158018  0.66222626  1
  Te  Te141  1  0.16814355  0.65438400  -0.00001336  1
  Te  Te142  1  0.17155946  0.66606852  0.33355499  1
  Te  Te143  1  0.16472036  0.66451592  0.66805835  1
  Te  Te144  1  0.50006811  -0.00024971  0.00158914  1
  Te  Te145  1  0.50238598  -0.00354570  0.33650094  1
  Te  Te146  1  0.49458850  0.00107772  0.65840579  1
  Te  Te147  1  0.50352509  0.33899546  0.00375068  1
  Te  Te148  1  0.50251470  0.32968132  0.32936185  1
  Te  Te149  1  0.49395775  0.33178378  0.66193905  1
  Te  Te150  1  0.49906340  0.65715671  -0.00846873  1
  Te  Te151  1  0.49981170  0.67044001  0.33474965  1
  Te  Te152  1  0.50428476  0.66676937  0.67265095  1
  Te  Te153  1  0.82976427  -0.00112710  -0.00088374  1
  Te  Te154  1  0.83159190  -0.00056787  0.33163033  1
  Te  Te155  1  0.83632733  0.00014621  0.67161959  1
  Te  Te156  1  0.82837725  0.33095938  -0.00496170  1
  Te  Te157  1  0.82822210  0.32944254  0.33290342  1
  Te  Te158  1  0.83561055  0.33292385  0.67424006  1
  Te  Te159  1  0.83401018  0.67638297  -0.00087625  1
  Te  Te160  1  0.82692783  0.67231169  0.33294558  1
  Te  Te161  1  0.82600055  0.66670726  0.66756620  1
  Te  Te162  1  -0.00423939  0.16330522  -0.00499624  1
  Te  Te163  1  -0.00729395  0.16875986  0.33392083  1
  Te  Te164  1  0.00125842  0.16471095  0.67284055  1
  Te  Te165  1  -0.00469445  0.49931788  0.00385722  1
  Te  Te166  1  -0.00079074  0.50204572  0.32895283  1
  Te  Te167  1  0.00037826  0.49847200  0.66557408  1
  Te  Te168  1  0.00392812  0.83713788  0.00177903  1
  Te  Te169  1  -0.00223247  0.83200173  0.33093073  1
  Te  Te170  1  0.00067093  0.83882774  0.66204470  1
  Te  Te171  1  0.33559604  0.16230112  -0.00112324  1
  Te  Te172  1  0.33092179  0.17754639  0.33610744  1
  Te  Te173  1  0.33345626  0.16285499  0.66785770  1
  Te  Te174  1  0.33753409  0.49753137  0.00377598  1
  Te  Te175  1  0.33763922  0.49892295  0.33062466  1
  Te  Te176  1  0.33232392  0.50231510  0.66561766  1
  Te  Te177  1  0.33378529  0.83497449  0.00460273  1
  Te  Te178  1  0.33652460  0.83246285  0.32940359  1
  Te  Te179  1  0.33267124  0.83785855  0.65783879  1
  Te  Te180  1  0.66409724  0.16734323  -0.00130431  1
  Te  Te181  1  0.67005915  0.16948095  0.33612134  1
  Te  Te182  1  0.66724996  0.16689582  0.65798926  1
  Te  Te183  1  0.66466926  0.50147112  0.00348152  1
  Te  Te184  1  0.66114804  0.49786667  0.33072161  1
  Te  Te185  1  0.66682594  0.50498260  0.66416244  1
  Te  Te186  1  0.65855905  0.83331005  0.00560874  1
  Te  Te187  1  0.66537531  0.83422663  0.32900282  1
  Te  Te188  1  0.66699215  0.82757292  0.66375003  1
  Te  Te189  1  -0.00046106  -0.00166021  0.16284496  1
  Te  Te190  1  -0.00249032  -0.00424155  0.49786605  1
  Te  Te191  1  0.00833754  -0.00202966  0.83590404  1
  Te  Te192  1  0.00072910  0.33664448  0.16734732  1
  Te  Te193  1  0.00068765  0.33476236  0.50643361  1
  Te  Te194  1  -0.00391754  0.33393984  0.82816016  1
  Te  Te195  1  0.00074893  0.66338730  0.16705674  1
  Te  Te196  1  0.00097198  0.67383147  0.50009018  1
  Te  Te197  1  0.00136266  0.67281430  0.83101435  1
  Te  Te198  1  0.33436538  -0.00196542  0.16708707  1
  Te  Te199  1  0.33519307  0.00364463  0.49161237  1
  Te  Te200  1  0.32698270  0.00092428  0.83432332  1
  Te  Te201  1  0.33804547  0.33573144  0.16773910  1
  Te  Te202  1  0.33498945  0.32821107  0.50273384  1
  Te  Te203  1  0.33261108  0.33007939  0.82889554  1
  Te  Te204  1  0.33181841  0.66271430  0.17197496  1
  Te  Te205  1  0.33336359  0.67502878  0.49483275  1
  Te  Te206  1  0.34144170  0.66842949  0.83193736  1
  Te  Te207  1  0.66094481  -0.00302634  0.16080820  1
  Te  Te208  1  0.66559346  0.00609988  0.50393367  1
  Te  Te209  1  0.66217387  -0.00048281  0.83674323  1
  Te  Te210  1  0.66391796  0.33476541  0.16477421  1
  Te  Te211  1  0.66310390  0.32872483  0.49971628  1
  Te  Te212  1  0.66957669  0.33643266  0.83384069  1
  Te  Te213  1  0.66787368  0.66421828  0.17318473  1
  Te  Te214  1  0.66598531  0.66548564  0.49696586  1
  Te  Te215  1  0.66196023  0.66370094  0.83360362  1
