# generated using pymatgen
data_AgSbTe2
_symmetry_space_group_name_H-M   'P 1'
_cell_length_a   18.34819836
_cell_length_b   18.34669460
_cell_length_c   18.34175628
_cell_angle_alpha   89.99864464
_cell_angle_beta   89.99575715
_cell_angle_gamma   90.00367649
_symmetry_Int_Tables_number   1
_chemical_formula_structural   AgSbTe2
_chemical_formula_sum   'Ag54 Sb54 Te108'
_cell_volume   6174.36322405
_cell_formula_units_Z   54
loop_
 _symmetry_equiv_pos_site_id
 _symmetry_equiv_pos_as_xyz
  1  'x, y, z'
loop_
 _atom_site_type_symbol
 _atom_site_label
 _atom_site_symmetry_multiplicity
 _atom_site_fract_x
 _atom_site_fract_y
 _atom_site_fract_z
 _atom_site_occupancy
  Ag  Ag0  1  0.49711883  0.16109125  0.66408857  1
  Ag  Ag1  1  0.01093920  -0.00026877  0.66702772  1
  Ag  Ag2  1  0.84094008  0.81843044  0.33544679  1
  Ag  Ag3  1  0.49812873  0.49891701  -0.00692292  1
  Ag  Ag4  1  0.84352904  0.65873628  0.83230134  1
  Ag  Ag5  1  0.00463240  0.82133486  0.82810756  1
  Ag  Ag6  1  0.15945739  0.49626015  -0.00662996  1
  Ag  Ag7  1  0.84271015  0.66194291  0.16781493  1
  Ag  Ag8  1  0.16109809  0.66118675  0.83044937  1
  Ag  Ag9  1  0.16524764  0.15912425  0.67013896  1
  Ag  Ag10  1  0.84428260  0.50166278  0.67155182  1
  Ag  Ag11  1  0.84215411  0.49710920  -0.00691456  1
  Ag  Ag12  1  0.49702139  0.49941970  0.67054026  1
  Ag  Ag13  1  0.00030022  0.33630876  -0.00187619  1
  Ag  Ag14  1  0.16850349  0.83502505  0.66559134  1
  Ag  Ag15  1  0.00086953  0.50257484  0.16585526  1
  Ag  Ag16  1  0.00214627  0.34409583  0.32624404  1
  Ag  Ag17  1  0.16137615  0.34148353  0.83746765  1
  Ag  Ag18  1  0.83541957  0.17227639  0.33604463  1
  Ag  Ag19  1  0.66758931  0.16616878  0.50468450  1
  Ag  Ag20  1  0.84181293  0.17775136  -0.00995355  1
  Ag  Ag21  1  -0.00043873  0.66110221  0.33569695  1
  Ag  Ag22  1  0.16145890  0.66889315  0.51174866  1
  Ag  Ag23  1  0.84387698  0.33990970  0.83816770  1
  Ag  Ag24  1  0.00094378  0.49776310  0.83468661  1
  Ag  Ag25  1  0.00377633  0.82282494  0.50365516  1
  Ag  Ag26  1  0.48875520  0.84484859  0.66812327  1
  Ag  Ag27  1  0.32038548  0.50290933  0.50271180  1
  Ag  Ag28  1  0.16495578  0.00861270  0.16743852  1
  Ag  Ag29  1  0.16113203  0.50267989  0.67078422  1
  Ag  Ag30  1  0.84034150  0.50035549  0.33261635  1
  Ag  Ag31  1  0.33227918  0.16708027  0.50137365  1
  Ag  Ag32  1  0.32316883  0.66421883  -0.00062679  1
  Ag  Ag33  1  0.16267333  0.17607414  -0.00811915  1
  Ag  Ag34  1  0.84000940  0.16928878  0.66874069  1
  Ag  Ag35  1  0.67064003  0.65709962  -0.00702112  1
  Ag  Ag36  1  0.67056850  0.66770272  0.66906760  1
  Ag  Ag37  1  0.68179114  0.33907342  0.00030394  1
  Ag  Ag38  1  0.49834632  0.00035610  0.82690433  1
  Ag  Ag39  1  0.49005581  0.33368146  0.16504454  1
  Ag  Ag40  1  0.32351359  0.83189674  0.82156234  1
  Ag  Ag41  1  0.32913247  -0.00215079  0.66560788  1
  Ag  Ag42  1  0.15836701  0.66213077  0.16210000  1
  Ag  Ag43  1  0.32413584  0.33179479  0.33167093  1
  Ag  Ag44  1  0.00316951  0.81937263  0.17378059  1
  Ag  Ag45  1  0.49588920  0.16952260  0.34331639  1
  Ag  Ag46  1  0.16732478  -0.00675838  0.51004195  1
  Ag  Ag47  1  0.66373743  0.00046640  0.66693015  1
  Ag  Ag48  1  0.00106027  0.17705845  0.83167991  1
  Ag  Ag49  1  0.32802384  0.17056380  0.17146656  1
  Ag  Ag50  1  0.16476332  0.33471260  0.15984208  1
  Ag  Ag51  1  0.84434526  0.66306230  0.50055798  1
  Ag  Ag52  1  0.32172950  0.83206062  0.50535006  1
  Ag  Ag53  1  0.00220423  0.50461556  0.50159919  1
  Sb  Sb54  1  0.83984602  0.33769283  0.16179206  1
  Sb  Sb55  1  0.16511932  0.33590574  0.50265229  1
  Sb  Sb56  1  0.67429600  0.49921549  0.16179266  1
  Sb  Sb57  1  0.49777954  0.82651368  -0.00754938  1
  Sb  Sb58  1  0.66799397  0.00405640  0.34208892  1
  Sb  Sb59  1  0.32654844  0.16337226  0.82955032  1
  Sb  Sb60  1  0.84207660  -0.00301087  0.16696783  1
  Sb  Sb61  1  0.16716858  -0.00229428  0.82914753  1
  Sb  Sb62  1  -0.00087202  0.66581350  0.66392934  1
  Sb  Sb63  1  0.49281524  0.00280380  0.50841624  1
  Sb  Sb64  1  0.49244661  0.00582411  0.16073147  1
  Sb  Sb65  1  0.83449272  -0.00016546  0.82962824  1
  Sb  Sb66  1  0.32448893  0.66087779  0.33217826  1
  Sb  Sb67  1  0.67077782  0.83597816  0.50515078  1
  Sb  Sb68  1  0.00281730  0.00742815  -0.00635604  1
  Sb  Sb69  1  0.67132070  0.49796112  0.50418074  1
  Sb  Sb70  1  0.67362780  0.82990340  0.16615657  1
  Sb  Sb71  1  0.67857168  0.66594326  0.33662102  1
  Sb  Sb72  1  0.49765231  0.66586276  0.50343487  1
  Sb  Sb73  1  0.49750037  0.17394932  -0.00347493  1
  Sb  Sb74  1  0.66802066  0.00389536  -0.00548705  1
  Sb  Sb75  1  0.84014341  -0.00153188  0.50280362  1
  Sb  Sb76  1  0.00184775  0.16927622  0.50477163  1
  Sb  Sb77  1  0.00034831  0.65631624  0.00205342  1
  Sb  Sb78  1  0.67077339  0.33282239  0.32794382  1
  Sb  Sb79  1  0.50205101  0.49465735  0.33375019  1
  Sb  Sb80  1  0.16323342  0.82844349  -0.00577000  1
  Sb  Sb81  1  0.67664449  0.50091290  0.83373120  1
  Sb  Sb82  1  0.32213244  0.83683986  0.16919812  1
  Sb  Sb83  1  0.16072058  0.83165122  0.34207829  1
  Sb  Sb84  1  0.84013570  0.82984421  0.66437082  1
  Sb  Sb85  1  0.83733081  0.33718793  0.50305995  1
  Sb  Sb86  1  0.32366504  0.49540423  0.16893201  1
  Sb  Sb87  1  0.50171929  0.83876480  0.34018347  1
  Sb  Sb88  1  0.49740982  0.33269370  0.83612333  1
  Sb  Sb89  1  0.15774568  0.49934940  0.33545848  1
  Sb  Sb90  1  0.33189423  0.33116425  0.66265799  1
  Sb  Sb91  1  0.49792253  0.66703903  0.83083580  1
  Sb  Sb92  1  0.66876149  0.33415175  0.67123548  1
  Sb  Sb93  1  0.66514609  0.16847858  0.16871152  1
  Sb  Sb94  1  0.83812564  0.82353286  0.00179992  1
  Sb  Sb95  1  0.67039448  0.83118603  0.83009616  1
  Sb  Sb96  1  0.67346886  0.16737849  0.82689165  1
  Sb  Sb97  1  0.49874473  0.33113636  0.49706442  1
  Sb  Sb98  1  0.49866803  0.65968011  0.16305216  1
  Sb  Sb99  1  0.32585933  0.33844641  0.00366108  1
  Sb  Sb100  1  0.16603934  0.16920053  0.33590828  1
  Sb  Sb101  1  0.00112550  -0.00087070  0.33831235  1
  Sb  Sb102  1  0.32465280  0.50458691  0.82992733  1
  Sb  Sb103  1  0.00082629  0.33253829  0.67173632  1
  Sb  Sb104  1  0.33146803  0.00609824  0.34107189  1
  Sb  Sb105  1  0.00435770  0.16998090  0.16354259  1
  Sb  Sb106  1  0.32913197  -0.00236998  -0.00609375  1
  Sb  Sb107  1  0.33158123  0.67044217  0.66939100  1
  Te  Te108  1  0.16800348  0.17034519  0.16894451  1
  Te  Te109  1  0.17017424  0.16680975  0.50576888  1
  Te  Te110  1  0.16258682  0.16386984  0.83154850  1
  Te  Te111  1  0.16239840  0.50027843  0.16534285  1
  Te  Te112  1  0.16350306  0.50203111  0.50227006  1
  Te  Te113  1  0.16359558  0.50132005  0.83285366  1
  Te  Te114  1  0.16139774  0.82641417  0.16449118  1
  Te  Te115  1  0.16390349  0.83118885  0.50342878  1
  Te  Te116  1  0.16476933  0.83175280  0.82927906  1
  Te  Te117  1  0.49443916  0.17083378  0.16557997  1
  Te  Te118  1  0.49567200  0.16655689  0.50237704  1
  Te  Te119  1  0.49854666  0.16523385  0.82740894  1
  Te  Te120  1  0.49938560  0.49491116  0.16581729  1
  Te  Te121  1  0.49955888  0.49875354  0.50340684  1
  Te  Te122  1  0.49528020  0.49844150  0.83278954  1
  Te  Te123  1  0.49811103  0.83525804  0.16926730  1
  Te  Te124  1  0.49807618  0.83372590  0.50632031  1
  Te  Te125  1  0.49835772  0.83513544  0.82743085  1
  Te  Te126  1  0.83285808  0.16599402  0.17012824  1
  Te  Te127  1  0.83340780  0.16738221  0.50466258  1
  Te  Te128  1  0.83829441  0.16692595  0.83106057  1
  Te  Te129  1  0.83903954  0.50210237  0.16458586  1
  Te  Te130  1  0.83581045  0.50307680  0.50740738  1
  Te  Te131  1  0.83808153  0.49975171  0.83224876  1
  Te  Te132  1  0.84092822  0.82869662  0.17172850  1
  Te  Te133  1  0.83833273  0.82926139  0.49634361  1
  Te  Te134  1  0.84099438  0.82850819  0.83318841  1
  Te  Te135  1  0.16733963  0.00662291  0.00662015  1
  Te  Te136  1  0.16696445  -0.00030011  0.32817634  1
  Te  Te137  1  0.16891244  -0.00060681  0.66688144  1
  Te  Te138  1  0.16477596  0.33508438  -0.00074795  1
  Te  Te139  1  0.16477048  0.33380459  0.32874091  1
  Te  Te140  1  0.16713553  0.33727781  0.67139697  1
  Te  Te141  1  0.16632802  0.66380405  -0.00249206  1
  Te  Te142  1  0.16028088  0.66612525  0.32600872  1
  Te  Te143  1  0.16798612  0.66458460  0.66882366  1
  Te  Te144  1  0.49957746  -0.00027195  -0.00820561  1
  Te  Te145  1  0.50031375  0.00807761  0.33048340  1
  Te  Te146  1  0.49776401  0.00146948  0.66864927  1
  Te  Te147  1  0.49659102  0.33835675  0.00319040  1
  Te  Te148  1  0.50197428  0.32883669  0.32738725  1
  Te  Te149  1  0.50017207  0.33677700  0.66778064  1
  Te  Te150  1  0.50854524  0.66004679  -0.00126064  1
  Te  Te151  1  0.50256650  0.66830220  0.33315637  1
  Te  Te152  1  0.50591455  0.65905566  0.66640434  1
  Te  Te153  1  0.83216205  0.00889217  -0.00043800  1
  Te  Te154  1  0.83308362  0.01092800  0.33390218  1
  Te  Te155  1  0.82696280  0.00420899  0.66628729  1
  Te  Te156  1  0.83802629  0.33502942  -0.00075554  1
  Te  Te157  1  0.83752508  0.33485513  0.33215711  1
  Te  Te158  1  0.83272865  0.33308612  0.67293770  1
  Te  Te159  1  0.82991169  0.66213947  -0.00215299  1
  Te  Te160  1  0.83897161  0.66161618  0.33338576  1
  Te  Te161  1  0.83156919  0.66633953  0.66877833  1
  Te  Te162  1  0.00153878  0.17272289  -0.00293973  1
  Te  Te163  1  -0.00367657  0.16737356  0.33554183  1
  Te  Te164  1  0.00074573  0.16533024  0.66863274  1
  Te  Te165  1  0.00158600  0.49592775  -0.00201809  1
  Te  Te166  1  -0.00293792  0.50183965  0.33317678  1
  Te  Te167  1  0.00131712  0.49801714  0.66609101  1
  Te  Te168  1  -0.00068750  0.83973447  -0.00489765  1
  Te  Te169  1  -0.00219520  0.83254520  0.33429637  1
  Te  Te170  1  0.00233760  0.83800217  0.66597397  1
  Te  Te171  1  0.32813431  0.16599401  0.00152198  1
  Te  Te172  1  0.33445511  0.17082278  0.33518136  1
  Te  Te173  1  0.33289815  0.16489961  0.66431432  1
  Te  Te174  1  0.33439428  0.50464338  0.00090885  1
  Te  Te175  1  0.33659209  0.49363286  0.34012987  1
  Te  Te176  1  0.33249290  0.50004589  0.66286201  1
  Te  Te177  1  0.33327032  0.82658113  -0.00059251  1
  Te  Te178  1  0.33619236  0.83279512  0.34174092  1
  Te  Te179  1  0.33138006  0.83211430  0.66483618  1
  Te  Te180  1  0.66943440  0.17108393  -0.00025988  1
  Te  Te181  1  0.66761677  0.16760860  0.33944941  1
  Te  Te182  1  0.66336650  0.16707045  0.66451062  1
  Te  Te183  1  0.66451812  0.49920802  -0.00096249  1
  Te  Te184  1  0.67607869  0.49989799  0.33402663  1
  Te  Te185  1  0.66279759  0.50258573  0.66735351  1
  Te  Te186  1  0.66688263  0.83014294  -0.00061150  1
  Te  Te187  1  0.67443009  0.83519021  0.33479470  1
  Te  Te188  1  0.66210000  0.83325721  0.66665516  1
  Te  Te189  1  0.00588195  -0.00191498  0.16596632  1
  Te  Te190  1  0.00742730  0.00018850  0.50586272  1
  Te  Te191  1  -0.00008391  0.00042977  0.82654629  1
  Te  Te192  1  0.00384572  0.33596536  0.16570067  1
  Te  Te193  1  0.00053578  0.34041192  0.48835674  1
  Te  Te194  1  0.00086181  0.33514038  0.83388641  1
  Te  Te195  1  -0.00103959  0.66354637  0.16582013  1
  Te  Te196  1  0.00136909  0.66551436  0.49971707  1
  Te  Te197  1  0.00101540  0.66417036  0.83355086  1
  Te  Te198  1  0.32642969  0.00541947  0.16661853  1
  Te  Te199  1  0.32722895  0.00016378  0.50487349  1
  Te  Te200  1  0.33642352  -0.00628269  0.82803766  1
  Te  Te201  1  0.32930572  0.33083514  0.16999864  1
  Te  Te202  1  0.33226890  0.33211650  0.49328440  1
  Te  Te203  1  0.32624005  0.33287274  0.83317136  1
  Te  Te204  1  0.32986521  0.66721725  0.16343318  1
  Te  Te205  1  0.32758116  0.66477093  0.49802486  1
  Te  Te206  1  0.33001576  0.67159143  0.83820707  1
  Te  Te207  1  0.66476735  -0.00094139  0.16497645  1
  Te  Te208  1  0.66716095  0.00499792  0.50774474  1
  Te  Te209  1  0.66078956  -0.00120969  0.82716932  1
  Te  Te210  1  0.66105974  0.33266006  0.15987840  1
  Te  Te211  1  0.66747875  0.32547034  0.49884232  1
  Te  Te212  1  0.66784209  0.33304654  0.84162583  1
  Te  Te213  1  0.67029344  0.66666050  0.16389672  1
  Te  Te214  1  0.67030928  0.66706960  0.50450608  1
  Te  Te215  1  0.66975256  0.66690811  0.83190970  1
