# generated using pymatgen
data_AgSbTe2
_symmetry_space_group_name_H-M   'P 1'
_cell_length_a   18.32437890
_cell_length_b   18.33607144
_cell_length_c   18.34164004
_cell_angle_alpha   89.99808902
_cell_angle_beta   90.00052761
_cell_angle_gamma   89.99938528
_symmetry_Int_Tables_number   1
_chemical_formula_structural   AgSbTe2
_chemical_formula_sum   'Ag54 Sb54 Te108'
_cell_volume   6162.73823617
_cell_formula_units_Z   54
loop_
 _symmetry_equiv_pos_site_id
 _symmetry_equiv_pos_as_xyz
  1  'x, y, z'
loop_
 _atom_site_type_symbol
 _atom_site_label
 _atom_site_symmetry_multiplicity
 _atom_site_fract_x
 _atom_site_fract_y
 _atom_site_fract_z
 _atom_site_occupancy
  Ag  Ag0  1  0.66612236  0.33802934  0.67334119  1
  Ag  Ag1  1  0.34058420  0.32206316  -0.00244363  1
  Ag  Ag2  1  0.34030533  0.16244414  0.50044394  1
  Ag  Ag3  1  0.66714537  0.66751882  0.66852570  1
  Ag  Ag4  1  0.49861845  -0.00491070  0.17055566  1
  Ag  Ag5  1  0.17010096  0.16642217  0.67296125  1
  Ag  Ag6  1  0.34123897  0.83193421  0.49508248  1
  Ag  Ag7  1  0.33197117  0.16329505  0.83826944  1
  Ag  Ag8  1  0.00873899  0.67353987  0.34087632  1
  Ag  Ag9  1  0.17026270  0.51101713  0.33800089  1
  Ag  Ag10  1  0.66332342  0.50204820  0.83166800  1
  Ag  Ag11  1  0.00052075  0.83153017  0.49489758  1
  Ag  Ag12  1  0.32529677  0.67223011  0.33615447  1
  Ag  Ag13  1  0.33343620  0.15702879  0.15824140  1
  Ag  Ag14  1  0.82394825  0.32661645  0.83218936  1
  Ag  Ag15  1  0.17010101  0.66834852  0.17665280  1
  Ag  Ag16  1  0.50162934  0.32605824  0.49934846  1
  Ag  Ag17  1  0.65825936  0.82966999  0.17573714  1
  Ag  Ag18  1  0.82943424  0.67004762  0.50060612  1
  Ag  Ag19  1  0.33495718  0.51328980  0.82981098  1
  Ag  Ag20  1  0.33753057  0.82890447  0.83806425  1
  Ag  Ag21  1  0.66286037  0.66902084  -0.00223238  1
  Ag  Ag22  1  0.17009695  0.50521984  0.66580815  1
  Ag  Ag23  1  0.66126158  0.83211310  0.49466217  1
  Ag  Ag24  1  0.66595166  0.33400357  0.33378997  1
  Ag  Ag25  1  0.66674678  0.51189568  0.16431019  1
  Ag  Ag26  1  0.17245488  0.82909197  0.33356448  1
  Ag  Ag27  1  0.66098180  0.33349790  -0.00543561  1
  Ag  Ag28  1  0.82789708  0.16001296  0.33299182  1
  Ag  Ag29  1  0.16829701  -0.00245366  0.83468558  1
  Ag  Ag30  1  0.82963985  0.83286787  0.33614054  1
  Ag  Ag31  1  0.33090899  -0.00126658  -0.00228138  1
  Ag  Ag32  1  0.83361731  0.00050550  0.83281981  1
  Ag  Ag33  1  0.33861961  0.83423720  0.16717735  1
  Ag  Ag34  1  0.49946165  -0.00382334  0.49567688  1
  Ag  Ag35  1  0.66512973  0.17081163  0.83328062  1
  Ag  Ag36  1  0.49934423  0.83276019  0.66021386  1
  Ag  Ag37  1  0.32940822  0.66854951  0.66955823  1
  Ag  Ag38  1  0.66734271  0.67425355  0.33428487  1
  Ag  Ag39  1  0.17349250  0.67218149  0.83191708  1
  Ag  Ag40  1  0.33325840  0.51516758  0.50787994  1
  Ag  Ag41  1  0.00641219  0.16198062  0.16752757  1
  Ag  Ag42  1  0.33496069  0.67431744  -0.00663807  1
  Ag  Ag43  1  0.49700034  0.83340066  0.00396577  1
  Ag  Ag44  1  0.00195510  -0.00860212  0.66717358  1
  Ag  Ag45  1  0.66488964  0.16512575  0.17028133  1
  Ag  Ag46  1  0.00461586  0.67096476  0.65984873  1
  Ag  Ag47  1  0.82531998  0.50364233  0.66715116  1
  Ag  Ag48  1  0.65966307  0.82709298  0.83145756  1
  Ag  Ag49  1  0.50006369  0.83332090  0.33529780  1
  Ag  Ag50  1  0.00014502  -0.01032658  0.33477177  1
  Ag  Ag51  1  0.00807656  0.00019650  -0.00063520  1
  Ag  Ag52  1  0.66143124  0.16415416  0.49820114  1
  Ag  Ag53  1  0.17427440  0.16353028  -0.00397891  1
  Sb  Sb54  1  0.17175592  0.83032988  0.66415135  1
  Sb  Sb55  1  0.82945508  0.82937637  0.66231644  1
  Sb  Sb56  1  -0.00290541  0.49955770  0.16988251  1
  Sb  Sb57  1  0.32970507  -0.00777414  0.33023244  1
  Sb  Sb58  1  0.16799915  0.33227485  0.83251902  1
  Sb  Sb59  1  0.17448809  0.33406364  0.50095051  1
  Sb  Sb60  1  0.50071059  0.50567752  0.00009412  1
  Sb  Sb61  1  0.82749198  0.33194192  0.16299405  1
  Sb  Sb62  1  0.00345663  0.83729777  0.17428011  1
  Sb  Sb63  1  0.82995115  -0.00550722  0.50159647  1
  Sb  Sb64  1  -0.00017872  0.32570201  -0.00096026  1
  Sb  Sb65  1  0.17109308  -0.00200798  0.50418377  1
  Sb  Sb66  1  0.82327313  0.33642103  0.50329612  1
  Sb  Sb67  1  0.65987794  0.50351417  0.50226172  1
  Sb  Sb68  1  0.00557816  0.50890695  0.50146394  1
  Sb  Sb69  1  0.49723975  -0.00372779  0.83356271  1
  Sb  Sb70  1  0.83103580  0.00000588  0.16516087  1
  Sb  Sb71  1  0.82503421  0.83437453  0.00279739  1
  Sb  Sb72  1  0.17089783  0.49881810  -0.00242079  1
  Sb  Sb73  1  0.83264552  0.16446233  0.00202144  1
  Sb  Sb74  1  0.00370569  0.67524879  -0.00037997  1
  Sb  Sb75  1  0.17514906  0.83746340  0.00219323  1
  Sb  Sb76  1  0.50249405  0.32581255  0.16978426  1
  Sb  Sb77  1  0.49556205  0.66992034  0.83287621  1
  Sb  Sb78  1  0.83118587  0.66985013  0.82732129  1
  Sb  Sb79  1  0.83241855  0.50463964  0.33998134  1
  Sb  Sb80  1  0.83202933  0.66954679  0.17353526  1
  Sb  Sb81  1  0.16607462  0.16384995  0.33261540  1
  Sb  Sb82  1  0.50182918  0.67351569  0.49987238  1
  Sb  Sb83  1  0.17055241  -0.00379126  0.16292468  1
  Sb  Sb84  1  0.49828734  0.50718693  0.33514011  1
  Sb  Sb85  1  0.50387226  0.33164231  0.83058128  1
  Sb  Sb86  1  0.82766730  0.49928436  -0.00713693  1
  Sb  Sb87  1  0.49730806  0.16147540  0.66475845  1
  Sb  Sb88  1  0.33921744  0.33591340  0.66978887  1
  Sb  Sb89  1  0.83328353  0.16778346  0.66448778  1
  Sb  Sb90  1  0.33932569  0.33672911  0.33198292  1
  Sb  Sb91  1  0.32986516  -0.00510064  0.67085170  1
  Sb  Sb92  1  0.00068758  0.50278518  0.83121851  1
  Sb  Sb93  1  -0.00149063  0.15802212  0.49636689  1
  Sb  Sb94  1  0.16831687  0.66912554  0.49985003  1
  Sb  Sb95  1  0.49612674  0.16141227  0.00054789  1
  Sb  Sb96  1  0.49918303  0.50637777  0.66510859  1
  Sb  Sb97  1  0.67009890  -0.00382833  0.33301715  1
  Sb  Sb98  1  0.50411205  0.15905144  0.33432411  1
  Sb  Sb99  1  -0.00391303  0.33499946  0.66700116  1
  Sb  Sb100  1  0.17015499  0.33595551  0.16668634  1
  Sb  Sb101  1  -0.00556404  0.33366120  0.33369995  1
  Sb  Sb102  1  0.66176345  -0.00120859  -0.00072508  1
  Sb  Sb103  1  0.33814718  0.50653036  0.16463723  1
  Sb  Sb104  1  0.49710019  0.67546502  0.16720475  1
  Sb  Sb105  1  0.00147905  0.16242645  0.83513065  1
  Sb  Sb106  1  0.00162086  0.83556441  0.82785875  1
  Sb  Sb107  1  0.66916245  -0.00350528  0.66794329  1
  Te  Te108  1  0.17149731  0.16677102  0.16475672  1
  Te  Te109  1  0.17034025  0.16618149  0.50304515  1
  Te  Te110  1  0.16801684  0.16574287  0.83376584  1
  Te  Te111  1  0.16638356  0.50554891  0.16920266  1
  Te  Te112  1  0.17425768  0.49862178  0.50171414  1
  Te  Te113  1  0.17153917  0.50023262  0.82976801  1
  Te  Te114  1  0.17137369  0.82903863  0.17085684  1
  Te  Te115  1  0.16723211  0.83555569  0.49487874  1
  Te  Te116  1  0.16991851  0.83493500  0.83238600  1
  Te  Te117  1  0.49785541  0.15848308  0.16742302  1
  Te  Te118  1  0.50189855  0.16201901  0.49980746  1
  Te  Te119  1  0.50121187  0.16387057  0.83242926  1
  Te  Te120  1  0.50881918  0.49694479  0.16814426  1
  Te  Te121  1  0.49143360  0.49136563  0.49952077  1
  Te  Te122  1  0.49911661  0.49894300  0.83274710  1
  Te  Te123  1  0.49949247  0.83612598  0.16735332  1
  Te  Te124  1  0.50094341  0.83495623  0.49869915  1
  Te  Te125  1  0.49928056  0.83509869  0.83339872  1
  Te  Te126  1  0.82582708  0.16575867  0.17176922  1
  Te  Te127  1  0.82866905  0.16680688  0.49542836  1
  Te  Te128  1  0.83017413  0.16451670  0.83248253  1
  Te  Te129  1  0.82637870  0.50028327  0.16737184  1
  Te  Te130  1  0.83450726  0.50506776  0.50771057  1
  Te  Te131  1  0.82914953  0.50092156  0.82645980  1
  Te  Te132  1  0.82410554  0.83456067  0.17341636  1
  Te  Te133  1  0.82864673  0.83061268  0.49658769  1
  Te  Te134  1  0.82929056  0.83825785  0.83355002  1
  Te  Te135  1  0.16903873  0.00276991  -0.00311170  1
  Te  Te136  1  0.15895462  -0.00356231  0.33296131  1
  Te  Te137  1  0.16233896  0.00221834  0.67133575  1
  Te  Te138  1  0.17000045  0.32635361  -0.00020236  1
  Te  Te139  1  0.16559490  0.33926222  0.33327447  1
  Te  Te140  1  0.16612024  0.33364997  0.66715755  1
  Te  Te141  1  0.16920763  0.66687170  -0.00664467  1
  Te  Te142  1  0.16772480  0.66825444  0.33598396  1
  Te  Te143  1  0.16873570  0.66598356  0.66893373  1
  Te  Te144  1  0.49346822  -0.00679194  0.00310885  1
  Te  Te145  1  0.49720318  -0.00709324  0.33314738  1
  Te  Te146  1  0.49994315  -0.00725410  0.66122905  1
  Te  Te147  1  0.50062460  0.33426729  0.00070967  1
  Te  Te148  1  0.50693156  0.33408530  0.33771823  1
  Te  Te149  1  0.50702197  0.33174092  0.66092916  1
  Te  Te150  1  0.50127465  0.67276911  0.00052600  1
  Te  Te151  1  0.50604549  0.67313814  0.33327208  1
  Te  Te152  1  0.50182180  0.67307374  0.66671633  1
  Te  Te153  1  0.84013586  -0.00004618  -0.00620721  1
  Te  Te154  1  0.84065865  -0.00086152  0.33391126  1
  Te  Te155  1  0.84094884  -0.00028271  0.67102009  1
  Te  Te156  1  0.82756551  0.33220909  -0.00738005  1
  Te  Te157  1  0.82636854  0.33325117  0.33366996  1
  Te  Te158  1  0.82794910  0.33728162  0.67060027  1
  Te  Te159  1  0.82999479  0.66716353  0.00053232  1
  Te  Te160  1  0.82824614  0.66937291  0.33863784  1
  Te  Te161  1  0.83193653  0.66419478  0.66334652  1
  Te  Te162  1  0.00352556  0.16158311  0.00531346  1
  Te  Te163  1  -0.00284248  0.16652097  0.32885350  1
  Te  Te164  1  0.00560106  0.16560093  0.66521964  1
  Te  Te165  1  -0.00056133  0.49996780  0.00161378  1
  Te  Te166  1  0.00507524  0.50607689  0.33339136  1
  Te  Te167  1  0.00690046  0.50518008  0.66693849  1
  Te  Te168  1  -0.00156520  0.83964160  0.00170886  1
  Te  Te169  1  -0.00231583  0.83089509  0.33415145  1
  Te  Te170  1  -0.00028583  0.83074987  0.66128692  1
  Te  Te171  1  0.33392111  0.16454506  -0.00021488  1
  Te  Te172  1  0.33229446  0.16816025  0.33629061  1
  Te  Te173  1  0.33059966  0.16697858  0.66635259  1
  Te  Te174  1  0.33429976  0.50652543  -0.00533862  1
  Te  Te175  1  0.33024735  0.50507497  0.33356610  1
  Te  Te176  1  0.33266393  0.50214770  0.66814361  1
  Te  Te177  1  0.33481849  0.83297552  -0.00163239  1
  Te  Te178  1  0.33360242  0.83168020  0.33353450  1
  Te  Te179  1  0.33541336  0.82930747  0.66682677  1
  Te  Te180  1  0.66516400  0.16839827  -0.00292293  1
  Te  Te181  1  0.66760755  0.16455832  0.33530137  1
  Te  Te182  1  0.66682702  0.16826582  0.66654747  1
  Te  Te183  1  0.66597462  0.50207091  -0.00244561  1
  Te  Te184  1  0.66671341  0.50088145  0.33134627  1
  Te  Te185  1  0.66480411  0.50355179  0.66878963  1
  Te  Te186  1  0.66122703  0.83103636  -0.00442732  1
  Te  Te187  1  0.66652233  0.83471830  0.33438033  1
  Te  Te188  1  0.66437649  0.83031672  0.66897959  1
  Te  Te189  1  0.00050030  0.00331815  0.16633062  1
  Te  Te190  1  -0.00063350  -0.00665803  0.50074956  1
  Te  Te191  1  0.00339636  -0.00015369  0.83188459  1
  Te  Te192  1  -0.00060176  0.32424296  0.16614242  1
  Te  Te193  1  -0.00139906  0.33258544  0.49958937  1
  Te  Te194  1  -0.01107085  0.33361274  0.83411690  1
  Te  Te195  1  0.00580841  0.66690834  0.16872100  1
  Te  Te196  1  -0.00336417  0.67166984  0.50008287  1
  Te  Te197  1  0.00671322  0.66844956  0.82968573  1
  Te  Te198  1  0.33489240  -0.00252033  0.16454486  1
  Te  Te199  1  0.33755557  -0.00131343  0.50133598  1
  Te  Te200  1  0.33090322  0.00212219  0.83584571  1
  Te  Te201  1  0.33496296  0.33156933  0.16104952  1
  Te  Te202  1  0.34036516  0.32297899  0.49983461  1
  Te  Te203  1  0.33446265  0.32508360  0.83731873  1
  Te  Te204  1  0.33041752  0.66906457  0.16811825  1
  Te  Te205  1  0.33532496  0.67072994  0.49918558  1
  Te  Te206  1  0.33229328  0.66906054  0.83257500  1
  Te  Te207  1  0.66282904  0.00119221  0.16533182  1
  Te  Te208  1  0.66285362  0.00021414  0.50097028  1
  Te  Te209  1  0.66824227  0.00240540  0.83364852  1
  Te  Te210  1  0.66642717  0.32477824  0.16573035  1
  Te  Te211  1  0.66243162  0.33440234  0.49852211  1
  Te  Te212  1  0.66540973  0.33328152  0.83337623  1
  Te  Te213  1  0.66734405  0.66931682  0.16623738  1
  Te  Te214  1  0.66787857  0.66806956  0.50139102  1
  Te  Te215  1  0.66771164  0.66685682  0.83262445  1
