# generated using pymatgen
data_AgSbTe2
_symmetry_space_group_name_H-M   'P 1'
_cell_length_a   18.33645797
_cell_length_b   18.34041710
_cell_length_c   18.33524780
_cell_angle_alpha   89.99996282
_cell_angle_beta   89.99587735
_cell_angle_gamma   89.99904977
_symmetry_Int_Tables_number   1
_chemical_formula_structural   AgSbTe2
_chemical_formula_sum   'Ag54 Sb54 Te108'
_cell_volume   6166.11241684
_cell_formula_units_Z   54
loop_
 _symmetry_equiv_pos_site_id
 _symmetry_equiv_pos_as_xyz
  1  'x, y, z'
loop_
 _atom_site_type_symbol
 _atom_site_label
 _atom_site_symmetry_multiplicity
 _atom_site_fract_x
 _atom_site_fract_y
 _atom_site_fract_z
 _atom_site_occupancy
  Ag  Ag0  1  0.66749096  0.51323534  0.16726521  1
  Ag  Ag1  1  0.17319959  0.16596430  0.67198815  1
  Ag  Ag2  1  0.50295690  0.50050603  0.66501862  1
  Ag  Ag3  1  0.00530031  0.16947710  0.16709403  1
  Ag  Ag4  1  0.33289671  0.00691635  0.32887956  1
  Ag  Ag5  1  0.83076615  0.82957170  0.67084177  1
  Ag  Ag6  1  0.17686061  0.00510904  0.49758154  1
  Ag  Ag7  1  0.49075618  -0.00098333  0.17297139  1
  Ag  Ag8  1  0.00426790  0.16921919  0.50049457  1
  Ag  Ag9  1  0.50591130  0.67324585  0.49922289  1
  Ag  Ag10  1  0.66488822  0.83148119  0.49279345  1
  Ag  Ag11  1  0.33762264  0.66926704  0.66419105  1
  Ag  Ag12  1  0.00430141  0.33161443  0.67668074  1
  Ag  Ag13  1  0.33102186  0.32584076  0.33094502  1
  Ag  Ag14  1  0.17756316  0.00592005  0.16767778  1
  Ag  Ag15  1  0.49498738  0.32811930  0.16993939  1
  Ag  Ag16  1  0.33597251  0.00253484  0.01512250  1
  Ag  Ag17  1  0.66320649  0.82655338  0.17068467  1
  Ag  Ag18  1  0.33415652  0.00713156  0.66191764  1
  Ag  Ag19  1  0.32922198  0.32081286  0.66425291  1
  Ag  Ag20  1  -0.00164373  0.33011456  -0.01188069  1
  Ag  Ag21  1  0.67110842  0.66678556  0.32662572  1
  Ag  Ag22  1  0.66768734  -0.00544631  0.00738602  1
  Ag  Ag23  1  0.16267255  0.00856268  0.83371103  1
  Ag  Ag24  1  0.00013716  0.33124643  0.33293740  1
  Ag  Ag25  1  0.16758313  0.66939830  0.16885257  1
  Ag  Ag26  1  0.83615840  0.16122871  -0.00145879  1
  Ag  Ag27  1  0.83372392  0.50321092  0.66586288  1
  Ag  Ag28  1  0.83121499  0.83773061  -0.00411774  1
  Ag  Ag29  1  0.67520035  0.50031409  0.83529613  1
  Ag  Ag30  1  0.84417074  0.33129723  0.83300544  1
  Ag  Ag31  1  0.83997340  0.00344641  0.83582434  1
  Ag  Ag32  1  0.66447069  -0.00563803  0.32761463  1
  Ag  Ag33  1  0.00421666  0.17033924  0.83172518  1
  Ag  Ag34  1  0.49573379  -0.00230799  0.49665450  1
  Ag  Ag35  1  0.00233933  0.00454317  0.33224781  1
  Ag  Ag36  1  0.66902325  0.67399633  0.01344202  1
  Ag  Ag37  1  -0.00390493  0.84302812  0.83274607  1
  Ag  Ag38  1  0.82233682  0.66662344  0.17361248  1
  Ag  Ag39  1  0.48769699  0.16232581  0.66604763  1
  Ag  Ag40  1  0.50134081  0.83438112  0.66303359  1
  Ag  Ag41  1  0.32617467  0.15841469  0.16852156  1
  Ag  Ag42  1  0.16670108  0.32356244  0.16597311  1
  Ag  Ag43  1  0.51101649  0.67168217  0.17262599  1
  Ag  Ag44  1  0.83356119  0.50378730  0.33679107  1
  Ag  Ag45  1  0.15576714  0.32527121  0.83439850  1
  Ag  Ag46  1  0.82899467  0.66568306  0.49355764  1
  Ag  Ag47  1  -0.01225801  0.66092591  0.33249332  1
  Ag  Ag48  1  0.34287834  0.84587321  0.16668460  1
  Ag  Ag49  1  -0.00346283  0.49066425  0.50123869  1
  Ag  Ag50  1  0.32606010  0.16165132  0.50919277  1
  Ag  Ag51  1  0.32066482  0.16401660  0.81989103  1
  Ag  Ag52  1  -0.00686250  0.48468566  0.82535064  1
  Ag  Ag53  1  0.66966029  0.33841991  0.32973473  1
  Sb  Sb54  1  0.33735159  0.66832665  0.33465527  1
  Sb  Sb55  1  0.66691297  0.33606981  0.66380805  1
  Sb  Sb56  1  0.49860077  0.00102594  0.83194495  1
  Sb  Sb57  1  0.83733812  0.17012202  0.32875336  1
  Sb  Sb58  1  0.16639974  0.67306601  0.49622217  1
  Sb  Sb59  1  0.50666777  0.49940232  0.33586314  1
  Sb  Sb60  1  0.66252299  -0.00220550  0.66668614  1
  Sb  Sb61  1  0.16401406  0.49209981  0.66710208  1
  Sb  Sb62  1  0.83380538  0.66544963  0.83286278  1
  Sb  Sb63  1  0.67028420  0.16871315  0.83379947  1
  Sb  Sb64  1  0.50158679  0.66615048  0.82950080  1
  Sb  Sb65  1  0.49894116  0.33244261  0.83470377  1
  Sb  Sb66  1  0.33124931  0.49222458  0.82790037  1
  Sb  Sb67  1  0.83257776  -0.00394027  0.16335128  1
  Sb  Sb68  1  0.83716692  0.33813064  0.50286604  1
  Sb  Sb69  1  0.67158419  0.83026386  0.83504771  1
  Sb  Sb70  1  0.50267127  0.83603948  0.33498876  1
  Sb  Sb71  1  0.83145681  0.82870120  0.33221373  1
  Sb  Sb72  1  0.16120639  0.16507540  -0.00313925  1
  Sb  Sb73  1  0.50621409  0.83560349  0.00038505  1
  Sb  Sb74  1  0.49620051  0.16466011  0.33579227  1
  Sb  Sb75  1  0.50269471  0.16466354  -0.00097807  1
  Sb  Sb76  1  0.16497296  0.66624516  0.83515373  1
  Sb  Sb77  1  0.33866453  0.67524830  0.00160421  1
  Sb  Sb78  1  0.16824010  0.84057977  0.66720589  1
  Sb  Sb79  1  -0.00436367  0.49577349  0.16923641  1
  Sb  Sb80  1  0.15925637  0.49709730  0.33316646  1
  Sb  Sb81  1  -0.00231856  0.83586292  0.16421003  1
  Sb  Sb82  1  0.83690371  0.16789077  0.67077005  1
  Sb  Sb83  1  0.66613384  0.16274559  0.16731312  1
  Sb  Sb84  1  0.16483209  0.49801214  0.00126188  1
  Sb  Sb85  1  0.50321691  0.50096383  -0.00074147  1
  Sb  Sb86  1  0.33810221  0.49753963  0.16841359  1
  Sb  Sb87  1  0.16735218  0.16572579  0.33519512  1
  Sb  Sb88  1  0.33987724  0.84216742  0.49770813  1
  Sb  Sb89  1  -0.00113394  0.00672106  0.00109973  1
  Sb  Sb90  1  0.66554167  0.16187715  0.49848613  1
  Sb  Sb91  1  0.66474657  0.66675165  0.66346085  1
  Sb  Sb92  1  0.83540354  0.33618388  0.16433754  1
  Sb  Sb93  1  0.67073067  0.50569929  0.49720265  1
  Sb  Sb94  1  0.32896943  0.84327277  0.83443461  1
  Sb  Sb95  1  0.16640784  0.83796065  0.33097175  1
  Sb  Sb96  1  0.49814986  0.33116726  0.49731619  1
  Sb  Sb97  1  0.00119828  0.66206724  0.66253026  1
  Sb  Sb98  1  0.00406108  0.00614983  0.66624922  1
  Sb  Sb99  1  0.32750037  0.32372987  0.00105898  1
  Sb  Sb100  1  0.67147473  0.33258138  0.00468509  1
  Sb  Sb101  1  0.83129047  -0.00453742  0.50334602  1
  Sb  Sb102  1  -0.00652816  0.83594485  0.50316259  1
  Sb  Sb103  1  0.83276620  0.50027122  -0.00170787  1
  Sb  Sb104  1  -0.00614946  0.66312547  0.00563917  1
  Sb  Sb105  1  0.33048186  0.49500351  0.50107309  1
  Sb  Sb106  1  0.16462963  0.32481632  0.50026489  1
  Sb  Sb107  1  0.16119962  0.83696850  0.00157201  1
  Te  Te108  1  0.16510352  0.16565051  0.16427419  1
  Te  Te109  1  0.16518553  0.16218662  0.50590350  1
  Te  Te110  1  0.16514680  0.16611393  0.83338008  1
  Te  Te111  1  0.16736174  0.50161086  0.16704961  1
  Te  Te112  1  0.15749211  0.50333110  0.50073459  1
  Te  Te113  1  0.16084353  0.49511544  0.83369470  1
  Te  Te114  1  0.16726580  0.83473870  0.16561447  1
  Te  Te115  1  0.16604412  0.84317334  0.50038667  1
  Te  Te116  1  0.15965923  0.83761208  0.83394311  1
  Te  Te117  1  0.49777288  0.16469707  0.16627120  1
  Te  Te118  1  0.49791903  0.16311578  0.50558929  1
  Te  Te119  1  0.49857352  0.16760845  0.82779807  1
  Te  Te120  1  0.50584909  0.50276147  0.16749090  1
  Te  Te121  1  0.49980197  0.50288931  0.50536757  1
  Te  Te122  1  0.50220903  0.49923588  0.82709278  1
  Te  Te123  1  0.50206579  0.83512806  0.16485111  1
  Te  Te124  1  0.50314631  0.83364890  0.50311487  1
  Te  Te125  1  0.49850716  0.83290316  0.82471750  1
  Te  Te126  1  0.84035492  0.16729389  0.16108131  1
  Te  Te127  1  0.83961244  0.16568783  0.50136909  1
  Te  Te128  1  0.83589734  0.16632710  0.83538502  1
  Te  Te129  1  0.82897196  0.50403336  0.16852093  1
  Te  Te130  1  0.83642438  0.50414555  0.50179912  1
  Te  Te131  1  0.83449747  0.49930562  0.83131007  1
  Te  Te132  1  0.82981196  0.82842690  0.16264699  1
  Te  Te133  1  0.82753307  0.82789531  0.50647243  1
  Te  Te134  1  0.83525587  0.83315980  0.83178107  1
  Te  Te135  1  0.17145230  -0.00080907  0.00074471  1
  Te  Te136  1  0.16525173  0.00017112  0.33127251  1
  Te  Te137  1  0.17007535  0.00424876  0.66879275  1
  Te  Te138  1  0.16061123  0.33311427  0.00173921  1
  Te  Te139  1  0.16732294  0.33311118  0.32860913  1
  Te  Te140  1  0.16722432  0.32833767  0.66729052  1
  Te  Te141  1  0.16788937  0.66730884  0.00658760  1
  Te  Te142  1  0.16741059  0.66667180  0.32960429  1
  Te  Te143  1  0.17383261  0.66717180  0.66579542  1
  Te  Te144  1  0.50159643  0.00037714  0.00368716  1
  Te  Te145  1  0.50209725  0.00100619  0.33404050  1
  Te  Te146  1  0.49781997  -0.00131426  0.66507025  1
  Te  Te147  1  0.50016708  0.33312359  0.00889091  1
  Te  Te148  1  0.49918310  0.33291218  0.32924990  1
  Te  Te149  1  0.49675160  0.33654061  0.66563916  1
  Te  Te150  1  0.50647696  0.66795804  0.00732021  1
  Te  Te151  1  0.50400814  0.66596887  0.33421058  1
  Te  Te152  1  0.49882176  0.66653491  0.66378432  1
  Te  Te153  1  0.83315131  -0.00115295  -0.00345400  1
  Te  Te154  1  0.83353271  0.00069097  0.33429334  1
  Te  Te155  1  0.83244790  -0.00343506  0.67249784  1
  Te  Te156  1  0.83691371  0.33076649  -0.00465191  1
  Te  Te157  1  0.83351078  0.33849070  0.33298245  1
  Te  Te158  1  0.83521749  0.33659286  0.67135125  1
  Te  Te159  1  0.82889165  0.66951367  0.00371260  1
  Te  Te160  1  0.83144669  0.66603053  0.33366269  1
  Te  Te161  1  0.83444536  0.66540788  0.66280287  1
  Te  Te162  1  -0.00448647  0.16972258  -0.00023454  1
  Te  Te163  1  0.00078708  0.16519462  0.33377424  1
  Te  Te164  1  0.00047832  0.17161620  0.66671474  1
  Te  Te165  1  -0.00143977  0.49384833  -0.00549317  1
  Te  Te166  1  -0.00609064  0.50205547  0.33524365  1
  Te  Te167  1  -0.00273326  0.49609830  0.66482840  1
  Te  Te168  1  -0.00787400  0.83226125  -0.00475487  1
  Te  Te169  1  -0.00131361  0.83676996  0.33382891  1
  Te  Te170  1  -0.00392013  0.83227858  0.67134690  1
  Te  Te171  1  0.33675472  0.16074533  0.00889777  1
  Te  Te172  1  0.33282435  0.16692979  0.32758041  1
  Te  Te173  1  0.33259173  0.16596385  0.66456276  1
  Te  Te174  1  0.33448777  0.50063412  -0.00301944  1
  Te  Te175  1  0.33359091  0.49209369  0.33559391  1
  Te  Te176  1  0.33709519  0.50419767  0.66588833  1
  Te  Te177  1  0.33367478  0.84134852  0.00413377  1
  Te  Te178  1  0.33399321  0.83726322  0.32674104  1
  Te  Te179  1  0.33581721  0.83136057  0.66635733  1
  Te  Te180  1  0.67353991  0.16116647  -0.00060423  1
  Te  Te181  1  0.66874949  0.16699752  0.33396776  1
  Te  Te182  1  0.66012166  0.16729199  0.66588636  1
  Te  Te183  1  0.66672288  0.50117681  0.00204261  1
  Te  Te184  1  0.67144772  0.50041224  0.33100557  1
  Te  Te185  1  0.66895245  0.49999527  0.66865464  1
  Te  Te186  1  0.67086481  0.83419295  0.00132425  1
  Te  Te187  1  0.66777433  0.83411147  0.33212553  1
  Te  Te188  1  0.66700208  0.83235643  0.66578391  1
  Te  Te189  1  0.00066709  0.00334678  0.16921741  1
  Te  Te190  1  -0.00052279  0.00329762  0.49692905  1
  Te  Te191  1  0.00069298  0.00327315  0.83357691  1
  Te  Te192  1  0.00310402  0.33176904  0.17464967  1
  Te  Te193  1  0.00095875  0.33169699  0.49142105  1
  Te  Te194  1  0.00053108  0.33015469  0.83240833  1
  Te  Te195  1  0.00500651  0.66646986  0.17156265  1
  Te  Te196  1  -0.00155853  0.66803017  0.49433253  1
  Te  Te197  1  0.00213374  0.66732203  0.83502067  1
  Te  Te198  1  0.33359763  0.00096239  0.17183222  1
  Te  Te199  1  0.33550109  0.00236134  0.49918918  1
  Te  Te200  1  0.33112360  0.00484085  0.82343622  1
  Te  Te201  1  0.33115353  0.33277778  0.16719510  1
  Te  Te202  1  0.33146755  0.32701495  0.49944012  1
  Te  Te203  1  0.33071577  0.32567430  0.83124487  1
  Te  Te204  1  0.33090483  0.66658735  0.16676849  1
  Te  Te205  1  0.33631932  0.66701989  0.50172558  1
  Te  Te206  1  0.33256753  0.66703761  0.83145364  1
  Te  Te207  1  0.66630721  -0.00169653  0.16766332  1
  Te  Te208  1  0.66249202  -0.00537808  0.49598817  1
  Te  Te209  1  0.67041104  -0.00043232  0.83903840  1
  Te  Te210  1  0.66425212  0.33088849  0.17001490  1
  Te  Te211  1  0.66730954  0.33277343  0.49092875  1
  Te  Te212  1  0.66814892  0.33867245  0.83440962  1
  Te  Te213  1  0.66637202  0.66923820  0.16903896  1
  Te  Te214  1  0.66609385  0.66979962  0.49743555  1
  Te  Te215  1  0.66643805  0.66023331  0.83754087  1
