# generated using pymatgen
data_AgSbTe2
_symmetry_space_group_name_H-M   'P 1'
_cell_length_a   18.35525844
_cell_length_b   18.34307435
_cell_length_c   18.34003782
_cell_angle_alpha   89.99650667
_cell_angle_beta   89.99788465
_cell_angle_gamma   89.99879172
_symmetry_Int_Tables_number   1
_chemical_formula_structural   AgSbTe2
_chemical_formula_sum   'Ag54 Sb54 Te108'
_cell_volume   6174.94161874
_cell_formula_units_Z   54
loop_
 _symmetry_equiv_pos_site_id
 _symmetry_equiv_pos_as_xyz
  1  'x, y, z'
loop_
 _atom_site_type_symbol
 _atom_site_label
 _atom_site_symmetry_multiplicity
 _atom_site_fract_x
 _atom_site_fract_y
 _atom_site_fract_z
 _atom_site_occupancy
  Ag  Ag0  1  0.49631832  0.16370493  0.33729804  1
  Ag  Ag1  1  0.83719879  0.16897856  -0.00439389  1
  Ag  Ag2  1  0.67008720  0.50586864  0.50389674  1
  Ag  Ag3  1  0.33061277  0.00573723  0.33292166  1
  Ag  Ag4  1  0.49630201  0.16761851  0.65498062  1
  Ag  Ag5  1  0.16830423  0.01179066  0.49605922  1
  Ag  Ag6  1  0.83739448  0.17214707  0.66212973  1
  Ag  Ag7  1  0.00305774  0.83102699  0.16346749  1
  Ag  Ag8  1  0.84736143  0.49969564  -0.00564817  1
  Ag  Ag9  1  0.16406557  0.33310972  0.84097509  1
  Ag  Ag10  1  0.00771655  0.17207259  0.49011285  1
  Ag  Ag11  1  0.32679989  0.16729405  0.49325962  1
  Ag  Ag12  1  0.00015861  0.17395764  0.83310875  1
  Ag  Ag13  1  0.00286736  0.34195817  0.00604477  1
  Ag  Ag14  1  0.00088754  0.17226032  0.17866304  1
  Ag  Ag15  1  0.33571425  -0.00274803  0.00715033  1
  Ag  Ag16  1  0.50265185  0.83838155  0.33083007  1
  Ag  Ag17  1  0.67549138  0.50022575  0.83666685  1
  Ag  Ag18  1  0.49874482  0.50531351  0.00019341  1
  Ag  Ag19  1  0.16450719  0.66332322  0.49482245  1
  Ag  Ag20  1  0.16437996  0.65886112  0.16542200  1
  Ag  Ag21  1  0.16362075  0.17378223  0.65780795  1
  Ag  Ag22  1  0.00446262  0.65448159  0.00295446  1
  Ag  Ag23  1  0.49731547  -0.00007649  0.16738221  1
  Ag  Ag24  1  0.32677193  0.32286612  0.33552827  1
  Ag  Ag25  1  0.66967885  0.83186474  0.83857003  1
  Ag  Ag26  1  0.15934098  0.49403567  0.66580588  1
  Ag  Ag27  1  0.66275788  0.83131897  0.49233552  1
  Ag  Ag28  1  0.66145836  -0.00866378  -0.00122706  1
  Ag  Ag29  1  0.49719014  0.32867602  0.49718006  1
  Ag  Ag30  1  0.49781798  0.83023902  0.00511573  1
  Ag  Ag31  1  0.84797468  0.16316831  0.34035494  1
  Ag  Ag32  1  0.32254962  0.50038758  0.16441633  1
  Ag  Ag33  1  0.00715770  0.32489633  0.32723592  1
  Ag  Ag34  1  0.16269746  0.33974148  0.16396147  1
  Ag  Ag35  1  0.83182674  0.83597026  0.33606833  1
  Ag  Ag36  1  0.66775340  0.66702283  0.00186538  1
  Ag  Ag37  1  -0.00132015  0.83211979  0.84244262  1
  Ag  Ag38  1  0.32060913  0.66655019  0.00235561  1
  Ag  Ag39  1  0.16067693  0.50527267  0.00806938  1
  Ag  Ag40  1  0.33335865  0.83762844  0.49579290  1
  Ag  Ag41  1  0.67045712  0.16830270  0.82993688  1
  Ag  Ag42  1  0.32421539  0.49814267  0.49538809  1
  Ag  Ag43  1  0.16394034  0.82593723  0.00100180  1
  Ag  Ag44  1  -0.00027741  0.49596988  0.84475534  1
  Ag  Ag45  1  0.66832524  0.66960917  0.33717661  1
  Ag  Ag46  1  0.00573898  0.49619992  0.49946543  1
  Ag  Ag47  1  0.83704887  0.66152138  0.49642241  1
  Ag  Ag48  1  0.84175340  0.49631013  0.66837658  1
  Ag  Ag49  1  0.00677845  0.01204736  0.33312050  1
  Ag  Ag50  1  0.32362295  0.16608608  0.82802181  1
  Ag  Ag51  1  0.66508743  0.16592006  0.50108295  1
  Ag  Ag52  1  0.16245159  0.16619325  0.33891021  1
  Ag  Ag53  1  0.00508567  0.49566124  0.15620667  1
  Sb  Sb54  1  0.84219410  0.33307707  0.16720014  1
  Sb  Sb55  1  0.32902379  0.33099898  0.65912257  1
  Sb  Sb56  1  0.16454717  0.66077319  0.83800582  1
  Sb  Sb57  1  0.83313302  0.00040519  0.16710897  1
  Sb  Sb58  1  0.33506903  0.66813310  0.33097568  1
  Sb  Sb59  1  0.16598776  0.49427215  0.33135356  1
  Sb  Sb60  1  0.50086184  0.00159452  0.84099963  1
  Sb  Sb61  1  0.16793657  0.00096787  0.16927156  1
  Sb  Sb62  1  0.32668026  0.16871390  0.17156802  1
  Sb  Sb63  1  0.00113735  0.83301930  0.49655162  1
  Sb  Sb64  1  0.84104300  0.33322597  0.83388034  1
  Sb  Sb65  1  0.50173575  0.66540361  0.83816992  1
  Sb  Sb66  1  0.83588722  0.00236502  0.49729565  1
  Sb  Sb67  1  0.66707147  0.33409565  0.33682607  1
  Sb  Sb68  1  0.66966486  0.50276860  0.16339729  1
  Sb  Sb69  1  0.00048755  0.66229754  0.66997209  1
  Sb  Sb70  1  0.66869339  0.83255471  0.16663954  1
  Sb  Sb71  1  0.16594934  0.83756599  0.33099790  1
  Sb  Sb72  1  0.32748584  0.49418150  0.83605872  1
  Sb  Sb73  1  0.33195339  0.00452685  0.66144247  1
  Sb  Sb74  1  0.00140680  0.00582068  0.66144969  1
  Sb  Sb75  1  0.33351490  0.83832367  0.83613026  1
  Sb  Sb76  1  0.66710960  0.33184759  0.66622726  1
  Sb  Sb77  1  -0.00098141  0.66440669  0.32975939  1
  Sb  Sb78  1  0.49142386  0.33073740  0.17058676  1
  Sb  Sb79  1  0.49485568  0.00670802  0.49171226  1
  Sb  Sb80  1  0.83431079  0.83184366  0.00310752  1
  Sb  Sb81  1  0.49945319  0.66352197  0.49760709  1
  Sb  Sb82  1  0.83384826  0.00357002  0.83552896  1
  Sb  Sb83  1  0.83384991  0.83202618  0.66245565  1
  Sb  Sb84  1  0.50166782  0.84100373  0.66393750  1
  Sb  Sb85  1  0.83951872  0.66629493  0.16827316  1
  Sb  Sb86  1  0.16474917  0.83248054  0.66786175  1
  Sb  Sb87  1  0.66804155  0.66543375  0.66544069  1
  Sb  Sb88  1  0.66662948  0.00437145  0.66879351  1
  Sb  Sb89  1  0.49501858  0.33043543  0.83215931  1
  Sb  Sb90  1  0.49868803  0.49988389  0.33118485  1
  Sb  Sb91  1  0.00180927  0.00170161  0.00482795  1
  Sb  Sb92  1  0.32960924  0.66459271  0.66824027  1
  Sb  Sb93  1  0.00369699  0.33336257  0.66629981  1
  Sb  Sb94  1  0.50327712  0.16587606  0.00232810  1
  Sb  Sb95  1  0.83567750  0.49911642  0.33454187  1
  Sb  Sb96  1  0.32689813  0.33395746  0.00521657  1
  Sb  Sb97  1  0.83389766  0.33467247  0.49922269  1
  Sb  Sb98  1  0.32964315  0.83097823  0.16765373  1
  Sb  Sb99  1  0.66499793  -0.00159005  0.33108638  1
  Sb  Sb100  1  0.67212313  0.16574954  0.16827432  1
  Sb  Sb101  1  0.83419024  0.66401293  0.83272625  1
  Sb  Sb102  1  0.49983398  0.49392699  0.66710369  1
  Sb  Sb103  1  0.49477907  0.66981999  0.16492254  1
  Sb  Sb104  1  0.16139389  0.16838106  0.00137273  1
  Sb  Sb105  1  0.16855214  0.33355754  0.49555448  1
  Sb  Sb106  1  0.16586219  0.00569707  0.83200168  1
  Sb  Sb107  1  0.67251338  0.33639948  -0.00231097  1
  Te  Te108  1  0.16065283  0.16858140  0.16911508  1
  Te  Te109  1  0.16675671  0.16997081  0.50017766  1
  Te  Te110  1  0.16542424  0.16905556  0.83415231  1
  Te  Te111  1  0.16512558  0.50098022  0.16763355  1
  Te  Te112  1  0.16688720  0.49891834  0.49865491  1
  Te  Te113  1  0.16345180  0.49710810  0.82903092  1
  Te  Te114  1  0.16260025  0.83138821  0.16276639  1
  Te  Te115  1  0.16952581  0.82787659  0.50146702  1
  Te  Te116  1  0.16449444  0.83324820  0.83689102  1
  Te  Te117  1  0.50025012  0.16322825  0.17093872  1
  Te  Te118  1  0.50165011  0.16640969  0.49860934  1
  Te  Te119  1  0.50841003  0.16819197  0.83331143  1
  Te  Te120  1  0.49823556  0.49964259  0.16255723  1
  Te  Te121  1  0.50503634  0.49568547  0.50035477  1
  Te  Te122  1  0.50118464  0.49783441  0.83596054  1
  Te  Te123  1  0.49885911  0.83633400  0.16595512  1
  Te  Te124  1  0.50105061  0.83369871  0.49855843  1
  Te  Te125  1  0.50471431  0.83360514  0.83596403  1
  Te  Te126  1  0.83968429  0.16644227  0.16695642  1
  Te  Te127  1  0.83188494  0.16773484  0.50003062  1
  Te  Te128  1  0.83135223  0.16791575  0.83306293  1
  Te  Te129  1  0.83892649  0.49983819  0.16071467  1
  Te  Te130  1  0.82829324  0.50071771  0.49967935  1
  Te  Te131  1  0.83547768  0.49933626  0.83206405  1
  Te  Te132  1  0.84088631  0.83365385  0.17359879  1
  Te  Te133  1  0.83115090  0.82981979  0.49725306  1
  Te  Te134  1  0.83140340  0.83267397  0.83185102  1
  Te  Te135  1  0.17219668  -0.00597017  0.00014652  1
  Te  Te136  1  0.16830547  0.00304543  0.33543816  1
  Te  Te137  1  0.16691251  0.00426129  0.65876850  1
  Te  Te138  1  0.16327752  0.33593002  0.00260665  1
  Te  Te139  1  0.16716309  0.32857982  0.32902923  1
  Te  Te140  1  0.16725073  0.33373823  0.67595510  1
  Te  Te141  1  0.16422324  0.66559964  0.00049933  1
  Te  Te142  1  0.16677985  0.66921424  0.33340290  1
  Te  Te143  1  0.16653493  0.66157064  0.65812783  1
  Te  Te144  1  0.49921646  -0.00165238  0.00558865  1
  Te  Te145  1  0.49831281  -0.00208865  0.32905591  1
  Te  Te146  1  0.49919687  0.00969823  0.66867042  1
  Te  Te147  1  0.49859989  0.33881374  0.00181020  1
  Te  Te148  1  0.49672575  0.33130953  0.33658494  1
  Te  Te149  1  0.49760347  0.32573004  0.66094471  1
  Te  Te150  1  0.50739679  0.66869972  0.00121114  1
  Te  Te151  1  0.50608730  0.67370645  0.33180607  1
  Te  Te152  1  0.49853666  0.66791515  0.66748748  1
  Te  Te153  1  0.82656209  0.00333774  0.00137289  1
  Te  Te154  1  0.83482107  0.00167915  0.33296942  1
  Te  Te155  1  0.83416271  0.00911341  0.66558080  1
  Te  Te156  1  0.84008778  0.33403043  0.00078864  1
  Te  Te157  1  0.83521496  0.32459381  0.33282693  1
  Te  Te158  1  0.83441161  0.33486634  0.66612835  1
  Te  Te159  1  0.83233472  0.66385848  0.00047545  1
  Te  Te160  1  0.82975114  0.66791210  0.33604271  1
  Te  Te161  1  0.83388223  0.66077326  0.65726709  1
  Te  Te162  1  -0.00291065  0.16477579  -0.00881738  1
  Te  Te163  1  0.00235647  0.16781605  0.33446075  1
  Te  Te164  1  0.00110641  0.16762893  0.67408379  1
  Te  Te165  1  0.00261016  0.49879302  0.00034029  1
  Te  Te166  1  -0.00172150  0.49699789  0.34133644  1
  Te  Te167  1  -0.00065116  0.49912380  0.65689771  1
  Te  Te168  1  -0.00023222  0.83668042  0.00199938  1
  Te  Te169  1  -0.00310745  0.83255399  0.33047985  1
  Te  Te170  1  -0.00094535  0.83404385  0.67822272  1
  Te  Te171  1  0.33384234  0.16340441  0.00126110  1
  Te  Te172  1  0.33519021  0.16478761  0.33341399  1
  Te  Te173  1  0.32986007  0.16629551  0.66690331  1
  Te  Te174  1  0.33347281  0.50162803  0.00023511  1
  Te  Te175  1  0.33475645  0.50112755  0.33563066  1
  Te  Te176  1  0.33045356  0.49968377  0.66313313  1
  Te  Te177  1  0.33700204  0.83273433  -0.00048939  1
  Te  Te178  1  0.33579840  0.83587781  0.33582345  1
  Te  Te179  1  0.33403139  0.83367566  0.65986547  1
  Te  Te180  1  0.67207371  0.16899943  -0.00100190  1
  Te  Te181  1  0.65888493  0.16611942  0.33655427  1
  Te  Te182  1  0.67199912  0.16645733  0.66584499  1
  Te  Te183  1  0.66267617  0.50246348  -0.00223689  1
  Te  Te184  1  0.66713832  0.50491349  0.33677275  1
  Te  Te185  1  0.66786185  0.49931385  0.66661640  1
  Te  Te186  1  0.66762027  0.83148988  0.00024600  1
  Te  Te187  1  0.66706024  0.83258451  0.33344768  1
  Te  Te188  1  0.66732950  0.83410330  0.67194345  1
  Te  Te189  1  0.00063567  0.00172061  0.17210694  1
  Te  Te190  1  0.00513300  0.00205077  0.49406400  1
  Te  Te191  1  0.00074993  -0.00284357  0.83387896  1
  Te  Te192  1  0.00333254  0.33363385  0.16704537  1
  Te  Te193  1  0.00001644  0.33122645  0.49454727  1
  Te  Te194  1  0.00474651  0.33629346  0.83553989  1
  Te  Te195  1  0.00443639  0.66452707  0.16388882  1
  Te  Te196  1  -0.00027258  0.66598688  0.50006813  1
  Te  Te197  1  -0.00041522  0.66428201  0.83965241  1
  Te  Te198  1  0.33512477  -0.00077068  0.16855513  1
  Te  Te199  1  0.32917289  0.00166397  0.49537108  1
  Te  Te200  1  0.33336351  0.00664817  0.83883595  1
  Te  Te201  1  0.32625314  0.33909150  0.17282504  1
  Te  Te202  1  0.33506557  0.33231773  0.49408372  1
  Te  Te203  1  0.32741927  0.32567835  0.83492923  1
  Te  Te204  1  0.32755983  0.66198166  0.16268905  1
  Te  Te205  1  0.33087616  0.66234568  0.49995967  1
  Te  Te206  1  0.33301249  0.66769853  0.84140811  1
  Te  Te207  1  0.66082135  -0.00005571  0.15976198  1
  Te  Te208  1  0.66691897  -0.00239082  0.49982370  1
  Te  Te209  1  0.66735531  0.00054410  0.83905711  1
  Te  Te210  1  0.66328460  0.33451836  0.16745137  1
  Te  Te211  1  0.66081230  0.32899223  0.49956299  1
  Te  Te212  1  0.66363374  0.33377001  0.83348942  1
  Te  Te213  1  0.66742918  0.66649845  0.16485108  1
  Te  Te214  1  0.66620404  0.66868158  0.49903544  1
  Te  Te215  1  0.66790489  0.66405702  0.83669843  1
