# generated using pymatgen
data_AgSbTe2
_symmetry_space_group_name_H-M   'P 1'
_cell_length_a   18.31877806
_cell_length_b   18.32757424
_cell_length_c   18.32473982
_cell_angle_alpha   90.00029348
_cell_angle_beta   89.99978240
_cell_angle_gamma   89.99779185
_symmetry_Int_Tables_number   1
_chemical_formula_structural   AgSbTe2
_chemical_formula_sum   'Ag54 Sb54 Te108'
_cell_volume   6152.32551132
_cell_formula_units_Z   54
loop_
 _symmetry_equiv_pos_site_id
 _symmetry_equiv_pos_as_xyz
  1  'x, y, z'
loop_
 _atom_site_type_symbol
 _atom_site_label
 _atom_site_symmetry_multiplicity
 _atom_site_fract_x
 _atom_site_fract_y
 _atom_site_fract_z
 _atom_site_occupancy
  Ag  Ag0  1  0.66425166  0.83305279  0.83434380  1
  Ag  Ag1  1  0.16160427  0.33761838  0.49497828  1
  Ag  Ag2  1  0.00572725  0.32766418  0.33821269  1
  Ag  Ag3  1  0.16742639  0.16468696  0.33013245  1
  Ag  Ag4  1  0.16084554  0.83670695  0.33042044  1
  Ag  Ag5  1  0.33569506  0.00580396  -0.00380096  1
  Ag  Ag6  1  0.17916712  0.00025359  0.83961509  1
  Ag  Ag7  1  0.15873432  0.66007522  0.49174328  1
  Ag  Ag8  1  0.17137514  -0.00089530  0.17230542  1
  Ag  Ag9  1  0.83356210  0.17234442  0.66290874  1
  Ag  Ag10  1  0.83277927  0.33463744  0.17970610  1
  Ag  Ag11  1  0.49276845  0.16193406  0.00250624  1
  Ag  Ag12  1  0.34017695  0.32792240  0.66671065  1
  Ag  Ag13  1  0.34044899  0.00702106  0.67277526  1
  Ag  Ag14  1  0.49524384  0.33115123  0.82980504  1
  Ag  Ag15  1  0.33549575  0.16673433  0.83725175  1
  Ag  Ag16  1  0.66154965  0.33093519  0.66164719  1
  Ag  Ag17  1  -0.00056614  0.83606390  0.16918721  1
  Ag  Ag18  1  0.83079840  0.82959148  0.33348213  1
  Ag  Ag19  1  0.66175460  -0.00555822  0.33722711  1
  Ag  Ag20  1  0.67457337  0.50499953  0.49497089  1
  Ag  Ag21  1  0.16211976  0.49735841  0.33542733  1
  Ag  Ag22  1  0.50204813  0.00141799  0.49463417  1
  Ag  Ag23  1  0.17577325  0.16423416  0.00683667  1
  Ag  Ag24  1  0.66709731  0.50717906  0.17725295  1
  Ag  Ag25  1  0.83176213  0.49602766  0.65344549  1
  Ag  Ag26  1  0.49565912  0.00081712  0.17053873  1
  Ag  Ag27  1  -0.00107128  0.66713395  0.66093088  1
  Ag  Ag28  1  0.32726159  0.32655192  0.33713197  1
  Ag  Ag29  1  0.00756138  0.00586688  0.33290508  1
  Ag  Ag30  1  0.50002608  0.50134658  -0.00250217  1
  Ag  Ag31  1  0.33611633  0.00654860  0.33174363  1
  Ag  Ag32  1  0.83506805  0.50119490  0.34140057  1
  Ag  Ag33  1  0.49368909  0.16238592  0.33103807  1
  Ag  Ag34  1  0.50946761  0.66557605  0.49963501  1
  Ag  Ag35  1  0.50157397  0.33312528  0.50158891  1
  Ag  Ag36  1  0.16187843  0.67493388  0.17499890  1
  Ag  Ag37  1  0.33669683  0.32336218  -0.00682767  1
  Ag  Ag38  1  0.00027181  0.17572926  0.49169837  1
  Ag  Ag39  1  0.66686792  0.67265106  0.33637137  1
  Ag  Ag40  1  0.50290611  0.83486611  -0.00212378  1
  Ag  Ag41  1  0.00198771  0.15921568  0.17517377  1
  Ag  Ag42  1  0.65908600  0.00203659  0.65891689  1
  Ag  Ag43  1  -0.01246623  0.49744859  0.49655848  1
  Ag  Ag44  1  0.33725432  0.48796139  0.83419219  1
  Ag  Ag45  1  0.66453910  0.66864321  0.00713341  1
  Ag  Ag46  1  0.50140366  0.67000083  0.83442203  1
  Ag  Ag47  1  -0.00194841  0.66880591  -0.00021445  1
  Ag  Ag48  1  0.49602149  0.00189552  0.83731507  1
  Ag  Ag49  1  0.67005956  0.83001492  0.17432450  1
  Ag  Ag50  1  0.83085793  0.65531449  0.49808621  1
  Ag  Ag51  1  0.83422714  0.34244999  0.49678536  1
  Ag  Ag52  1  0.66623399  0.82657291  0.49102284  1
  Ag  Ag53  1  -0.00293079  0.83283605  0.84017763  1
  Sb  Sb54  1  -0.00227431  0.66700498  0.33500374  1
  Sb  Sb55  1  0.16479634  0.83462658  0.66084943  1
  Sb  Sb56  1  0.82851416  0.50191782  0.00344512  1
  Sb  Sb57  1  0.50187386  0.49561513  0.33223026  1
  Sb  Sb58  1  0.82927003  0.83227778  0.00594257  1
  Sb  Sb59  1  0.66698087  0.33301609  0.33836728  1
  Sb  Sb60  1  0.17183579  0.00018616  0.49297702  1
  Sb  Sb61  1  0.82582480  0.33381289  0.82528186  1
  Sb  Sb62  1  0.83433226  0.00173183  0.17030596  1
  Sb  Sb63  1  0.83418176  0.66440956  0.17468499  1
  Sb  Sb64  1  0.82823662  -0.00115763  0.83044304  1
  Sb  Sb65  1  0.50164729  0.67148146  0.16770363  1
  Sb  Sb66  1  0.16435746  0.49853324  0.65864136  1
  Sb  Sb67  1  0.66968879  0.16358343  0.16964517  1
  Sb  Sb68  1  0.50020683  0.16611812  0.66440946  1
  Sb  Sb69  1  0.00491839  0.50431173  0.82776554  1
  Sb  Sb70  1  0.33201132  0.66475353  0.66648169  1
  Sb  Sb71  1  0.33638446  0.83973962  0.83475979  1
  Sb  Sb72  1  0.33416547  0.83743022  0.16849777  1
  Sb  Sb73  1  0.50300533  0.32782196  0.16797525  1
  Sb  Sb74  1  0.33524115  0.49522372  0.50183721  1
  Sb  Sb75  1  0.16584806  0.16610127  0.66130996  1
  Sb  Sb76  1  0.16434020  0.32993481  0.17592425  1
  Sb  Sb77  1  0.50375219  0.84094383  0.33006965  1
  Sb  Sb78  1  0.33958055  0.83595518  0.49774786  1
  Sb  Sb79  1  -0.00439695  0.83123361  0.49324942  1
  Sb  Sb80  1  0.33695524  0.66794704  -0.00065642  1
  Sb  Sb81  1  0.00615259  0.33604527  0.00696967  1
  Sb  Sb82  1  0.17481057  0.32831114  0.82867754  1
  Sb  Sb83  1  0.17179001  0.49717922  0.00596502  1
  Sb  Sb84  1  0.83659817  0.16941184  0.33771098  1
  Sb  Sb85  1  0.33122663  0.16821224  0.49843275  1
  Sb  Sb86  1  0.65500856  -0.00700961  0.00277719  1
  Sb  Sb87  1  0.00744140  0.16135006  0.83368480  1
  Sb  Sb88  1  0.33794999  0.49871352  0.16469753  1
  Sb  Sb89  1  0.50369091  0.49698080  0.66848077  1
  Sb  Sb90  1  0.83155283  0.83184684  0.66005326  1
  Sb  Sb91  1  0.65742356  0.16123286  0.83193125  1
  Sb  Sb92  1  0.16966649  0.83754786  0.00549954  1
  Sb  Sb93  1  0.65886900  0.33872072  -0.00334605  1
  Sb  Sb94  1  -0.00008730  -0.00314583  0.66242651  1
  Sb  Sb95  1  0.82842961  0.66707056  0.82792392  1
  Sb  Sb96  1  0.82759713  0.00127823  0.49738539  1
  Sb  Sb97  1  0.83344320  0.16869867  -0.00129464  1
  Sb  Sb98  1  0.00794976  -0.00360960  0.00605484  1
  Sb  Sb99  1  -0.00319739  0.50171232  0.17412537  1
  Sb  Sb100  1  0.50304373  0.83671607  0.67005337  1
  Sb  Sb101  1  -0.00210423  0.33605577  0.65852185  1
  Sb  Sb102  1  0.66028888  0.50472267  0.83015077  1
  Sb  Sb103  1  0.66883997  0.16785568  0.50011047  1
  Sb  Sb104  1  0.66892576  0.66655926  0.66050564  1
  Sb  Sb105  1  0.33432546  0.66693109  0.33518173  1
  Sb  Sb106  1  0.16984211  0.67217627  0.83394021  1
  Sb  Sb107  1  0.32755393  0.16492712  0.16392151  1
  Te  Te108  1  0.16089887  0.16436211  0.16843095  1
  Te  Te109  1  0.16099519  0.16947120  0.49404979  1
  Te  Te110  1  0.17167340  0.16124073  0.83624626  1
  Te  Te111  1  0.16674488  0.50226854  0.17326649  1
  Te  Te112  1  0.16926600  0.49977783  0.49472054  1
  Te  Te113  1  0.17395947  0.50121908  0.83517497  1
  Te  Te114  1  0.16483457  0.83646576  0.16981483  1
  Te  Te115  1  0.16607675  0.82909938  0.49327246  1
  Te  Te116  1  0.16266145  0.83869126  0.83388291  1
  Te  Te117  1  0.50316199  0.16091306  0.16705879  1
  Te  Te118  1  0.50026800  0.16679293  0.49511499  1
  Te  Te119  1  0.49545791  0.16639244  0.83584917  1
  Te  Te120  1  0.50630710  0.50078219  0.16211221  1
  Te  Te121  1  0.50328574  0.49978805  0.50018986  1
  Te  Te122  1  0.49719282  0.49823773  0.83534935  1
  Te  Te123  1  0.50460586  0.83779172  0.16194388  1
  Te  Te124  1  0.50657006  0.83265793  0.50013023  1
  Te  Te125  1  0.50189012  0.83356616  0.83594860  1
  Te  Te126  1  0.84050532  0.17309358  0.16522808  1
  Te  Te127  1  0.83885278  0.16986250  0.50398252  1
  Te  Te128  1  0.83375592  0.16732004  0.82764557  1
  Te  Te129  1  0.82788458  0.49614912  0.17012430  1
  Te  Te130  1  0.83171177  0.49905126  0.49758707  1
  Te  Te131  1  0.83441501  0.49981718  0.82956182  1
  Te  Te132  1  0.83337354  0.83250982  0.17276130  1
  Te  Te133  1  0.82745448  0.83186050  0.49353304  1
  Te  Te134  1  0.83356403  0.83311396  0.83365569  1
  Te  Te135  1  0.17218981  0.00358294  0.00244836  1
  Te  Te136  1  0.16664872  0.00302227  0.33239719  1
  Te  Te137  1  0.17013190  0.00055393  0.66949499  1
  Te  Te138  1  0.17418217  0.32836383  -0.00061935  1
  Te  Te139  1  0.16592315  0.33096882  0.33584172  1
  Te  Te140  1  0.17277839  0.33223108  0.65892045  1
  Te  Te141  1  0.16453506  0.66693526  0.00285221  1
  Te  Te142  1  0.16763746  0.66576677  0.33392637  1
  Te  Te143  1  0.16210159  0.66693457  0.66242370  1
  Te  Te144  1  0.49658031  0.00149772  -0.00175821  1
  Te  Te145  1  0.49883786  0.00074771  0.33359960  1
  Te  Te146  1  0.50039911  0.00143317  0.66569185  1
  Te  Te147  1  0.49573978  0.33224880  0.00029368  1
  Te  Te148  1  0.49763136  0.32809639  0.33565743  1
  Te  Te149  1  0.50023321  0.33197042  0.66493765  1
  Te  Te150  1  0.50215394  0.66711643  0.00022812  1
  Te  Te151  1  0.50336366  0.66619159  0.33751514  1
  Te  Te152  1  0.49931967  0.66662656  0.66451343  1
  Te  Te153  1  0.83323384  0.00163104  -0.00060966  1
  Te  Te154  1  0.83000515  -0.00293233  0.33268332  1
  Te  Te155  1  0.82965911  0.00411282  0.66541650  1
  Te  Te156  1  0.83422223  0.33502898  -0.00077551  1
  Te  Te157  1  0.83330134  0.33509634  0.33713212  1
  Te  Te158  1  0.83105414  0.33438564  0.66208009  1
  Te  Te159  1  0.83247735  0.66638233  -0.00178154  1
  Te  Te160  1  0.82977064  0.66472982  0.33765998  1
  Te  Te161  1  0.83717087  0.66396174  0.66085273  1
  Te  Te162  1  0.00367530  0.16667382  0.00338617  1
  Te  Te163  1  -0.00210396  0.16691159  0.33386594  1
  Te  Te164  1  -0.00419858  0.16580808  0.66466337  1
  Te  Te165  1  0.00129754  0.50602596  -0.00105034  1
  Te  Te166  1  -0.00001270  0.49871245  0.33736351  1
  Te  Te167  1  -0.00389471  0.50456073  0.66101929  1
  Te  Te168  1  -0.00026115  0.82968138  0.00312580  1
  Te  Te169  1  -0.00015750  0.83391240  0.32956797  1
  Te  Te170  1  -0.00154919  0.82889696  0.67092803  1
  Te  Te171  1  0.33448085  0.16626320  0.00067070  1
  Te  Te172  1  0.33290977  0.16639727  0.33316210  1
  Te  Te173  1  0.33251075  0.16704312  0.67168732  1
  Te  Te174  1  0.33895410  0.49802889  -0.00312118  1
  Te  Te175  1  0.32935544  0.49607218  0.33295390  1
  Te  Te176  1  0.33269863  0.49509649  0.67312234  1
  Te  Te177  1  0.34072690  0.83845444  0.00128196  1
  Te  Te178  1  0.32427724  0.83784528  0.33359204  1
  Te  Te179  1  0.33225508  0.84147346  0.66614248  1
  Te  Te180  1  0.66331861  0.16786968  0.00034080  1
  Te  Te181  1  0.66292047  0.15974234  0.33300796  1
  Te  Te182  1  0.67070413  0.16584231  0.66710239  1
  Te  Te183  1  0.66141802  0.50622418  -0.00044662  1
  Te  Te184  1  0.66756585  0.49962858  0.33454434  1
  Te  Te185  1  0.67072157  0.49711959  0.66256879  1
  Te  Te186  1  0.66421639  0.82842082  -0.00096718  1
  Te  Te187  1  0.66540642  0.83341120  0.33280823  1
  Te  Te188  1  0.66849926  0.83851949  0.66966522  1
  Te  Te189  1  0.00145087  -0.00166566  0.17136202  1
  Te  Te190  1  0.00051922  0.00059042  0.49504099  1
  Te  Te191  1  -0.00051440  -0.00634090  0.83291475  1
  Te  Te192  1  -0.00478243  0.33333040  0.17161767  1
  Te  Te193  1  0.00084929  0.33562672  0.49831988  1
  Te  Te194  1  0.00085513  0.33324912  0.83454967  1
  Te  Te195  1  0.00126409  0.66938267  0.16399993  1
  Te  Te196  1  0.00042754  0.66584787  0.50085860  1
  Te  Te197  1  0.00088868  0.67102594  0.83429169  1
  Te  Te198  1  0.33378012  0.00016036  0.17075126  1
  Te  Te199  1  0.34009043  0.00138502  0.49889769  1
  Te  Te200  1  0.33527415  0.00117820  0.83333715  1
  Te  Te201  1  0.33389479  0.33432219  0.17237537  1
  Te  Te202  1  0.33876689  0.33215338  0.49893016  1
  Te  Te203  1  0.33632140  0.32996418  0.83246722  1
  Te  Te204  1  0.32414674  0.66717492  0.16686998  1
  Te  Te205  1  0.33521549  0.66717791  0.50186505  1
  Te  Te206  1  0.34000886  0.66612984  0.83241718  1
  Te  Te207  1  0.66487008  -0.00437620  0.17047325  1
  Te  Te208  1  0.66272649  0.00044574  0.49977788  1
  Te  Te209  1  0.66075969  -0.00579416  0.83156803  1
  Te  Te210  1  0.67150304  0.33619375  0.16576136  1
  Te  Te211  1  0.66442459  0.33405466  0.50228263  1
  Te  Te212  1  0.65792655  0.33374281  0.82772406  1
  Te  Te213  1  0.66689656  0.66824790  0.16858772  1
  Te  Te214  1  0.66810427  0.66643303  0.49923085  1
  Te  Te215  1  0.66112759  0.67145181  0.83350331  1
