# generated using pymatgen
data_AgSbTe2
_symmetry_space_group_name_H-M   'P 1'
_cell_length_a   18.32358438
_cell_length_b   18.32336443
_cell_length_c   18.32268660
_cell_angle_alpha   89.99956381
_cell_angle_beta   89.99931923
_cell_angle_gamma   90.00199383
_symmetry_Int_Tables_number   1
_chemical_formula_structural   AgSbTe2
_chemical_formula_sum   'Ag54 Sb54 Te108'
_cell_volume   6151.83678382
_cell_formula_units_Z   54
loop_
 _symmetry_equiv_pos_site_id
 _symmetry_equiv_pos_as_xyz
  1  'x, y, z'
loop_
 _atom_site_type_symbol
 _atom_site_label
 _atom_site_symmetry_multiplicity
 _atom_site_fract_x
 _atom_site_fract_y
 _atom_site_fract_z
 _atom_site_occupancy
  Ag  Ag0  1  0.32995251  0.16943753  0.16153257  1
  Ag  Ag1  1  0.50143973  0.66630973  0.50228477  1
  Ag  Ag2  1  0.82315115  0.83313965  0.00060890  1
  Ag  Ag3  1  0.00776186  0.00460550  0.00191270  1
  Ag  Ag4  1  0.49643443  0.00243689  0.16297581  1
  Ag  Ag5  1  0.16660714  0.48961208  0.00341881  1
  Ag  Ag6  1  0.66813611  0.49960372  0.17178113  1
  Ag  Ag7  1  0.82364801  0.83504232  0.33317673  1
  Ag  Ag8  1  0.17350688  0.00016596  0.84578637  1
  Ag  Ag9  1  0.66276443  0.16548299  0.82955642  1
  Ag  Ag10  1  0.16550400  0.83432873  0.32535337  1
  Ag  Ag11  1  0.00520473  0.17340253  0.16388994  1
  Ag  Ag12  1  0.82929912  0.17991199  0.66385452  1
  Ag  Ag13  1  0.67178392  0.33399560  0.65528513  1
  Ag  Ag14  1  -0.01018732  0.66601723  0.33332330  1
  Ag  Ag15  1  0.17466064  0.16533925  0.00372036  1
  Ag  Ag16  1  0.50784186  0.16384851  0.32754131  1
  Ag  Ag17  1  0.33070685  0.49385596  0.16404851  1
  Ag  Ag18  1  0.50724010  0.83046010  0.67098068  1
  Ag  Ag19  1  0.51306404  0.34032848  0.49980422  1
  Ag  Ag20  1  0.15981881  0.32902110  0.16231040  1
  Ag  Ag21  1  0.17102177  0.00480831  0.16242524  1
  Ag  Ag22  1  0.66359230  0.00106092  0.33202096  1
  Ag  Ag23  1  0.34252667  0.16418372  0.84434520  1
  Ag  Ag24  1  0.82502486  0.16735809  0.33469860  1
  Ag  Ag25  1  0.83500938  0.33347634  0.17009220  1
  Ag  Ag26  1  0.82300269  0.66695817  0.83150314  1
  Ag  Ag27  1  0.66626469  0.49109835  0.49890526  1
  Ag  Ag28  1  0.50052406  0.83916534  -0.00522648  1
  Ag  Ag29  1  0.00466277  0.33247379  0.00516157  1
  Ag  Ag30  1  0.66696531  0.83116319  0.17295358  1
  Ag  Ag31  1  -0.00754105  0.49926381  0.83578057  1
  Ag  Ag32  1  -0.00032328  0.49258843  0.16275234  1
  Ag  Ag33  1  0.82435055  0.82982455  0.66624613  1
  Ag  Ag34  1  0.66330264  0.83041949  0.49652793  1
  Ag  Ag35  1  0.34260189  -0.00060552  0.33054098  1
  Ag  Ag36  1  0.66856073  0.67100723  0.33638407  1
  Ag  Ag37  1  0.33451223  0.66477630  -0.00170302  1
  Ag  Ag38  1  0.67076909  0.50333927  0.82835659  1
  Ag  Ag39  1  0.34157893  0.50439325  0.49651066  1
  Ag  Ag40  1  0.50428594  0.67391407  0.83069038  1
  Ag  Ag41  1  0.16938669  0.84379048  0.00321537  1
  Ag  Ag42  1  0.66863153  0.32917770  0.34177268  1
  Ag  Ag43  1  0.32733448  0.33000582  0.00435664  1
  Ag  Ag44  1  0.34499037  0.82495055  0.49858642  1
  Ag  Ag45  1  0.49924006  -0.00375939  0.84117896  1
  Ag  Ag46  1  0.33875118  0.66645612  0.67031232  1
  Ag  Ag47  1  -0.01003153  0.49871419  0.49929768  1
  Ag  Ag48  1  0.66655064  0.17895993  0.49565696  1
  Ag  Ag49  1  0.49222980  0.16182213  0.00349906  1
  Ag  Ag50  1  -0.01112666  0.33645812  0.66959646  1
  Ag  Ag51  1  0.66350660  0.83178105  0.83196347  1
  Ag  Ag52  1  0.82520326  0.33533689  0.50032646  1
  Ag  Ag53  1  0.83152480  0.49525161  0.66632311  1
  Sb  Sb54  1  0.83183169  0.00293568  0.16689450  1
  Sb  Sb55  1  0.83209397  0.66290853  0.16557188  1
  Sb  Sb56  1  0.66777754  0.33267935  0.00179482  1
  Sb  Sb57  1  0.50654608  0.16276523  0.66859307  1
  Sb  Sb58  1  -0.00824988  0.17461440  0.49454799  1
  Sb  Sb59  1  -0.00768047  0.33805919  0.32768910  1
  Sb  Sb60  1  0.33686973  0.83688336  0.16752010  1
  Sb  Sb61  1  -0.00277159  0.00478651  0.67423916  1
  Sb  Sb62  1  0.66281764  0.66533464  0.66410658  1
  Sb  Sb63  1  0.33791150  0.67006656  0.33172547  1
  Sb  Sb64  1  0.82850651  -0.00404657  0.83575651  1
  Sb  Sb65  1  0.83224235  0.16424877  0.00067169  1
  Sb  Sb66  1  0.16467884  0.50405456  0.32688943  1
  Sb  Sb67  1  -0.00059473  0.66128324  0.66383912  1
  Sb  Sb68  1  0.83677310  0.50307291  -0.00298756  1
  Sb  Sb69  1  0.49665615  0.49954845  0.00053686  1
  Sb  Sb70  1  0.34160132  0.16890096  0.49648961  1
  Sb  Sb71  1  0.16447754  0.33470972  0.49229778  1
  Sb  Sb72  1  0.50277770  0.33239511  0.83074842  1
  Sb  Sb73  1  0.50298380  -0.00229320  0.49769462  1
  Sb  Sb74  1  0.50393579  0.49592462  0.33482250  1
  Sb  Sb75  1  0.83102472  0.00352644  0.49920838  1
  Sb  Sb76  1  0.34104943  0.83771307  0.83424064  1
  Sb  Sb77  1  0.17238156  0.66526515  0.49843741  1
  Sb  Sb78  1  0.33477064  0.49906780  0.83648306  1
  Sb  Sb79  1  0.33609723  -0.00334145  0.66417236  1
  Sb  Sb80  1  0.16960879  -0.00141959  0.49392515  1
  Sb  Sb81  1  0.66275240  0.66916011  -0.00103806  1
  Sb  Sb82  1  0.33888443  0.32994954  0.32807273  1
  Sb  Sb83  1  0.50674331  0.50473776  0.66511127  1
  Sb  Sb84  1  0.16172099  0.16902198  0.67608493  1
  Sb  Sb85  1  0.66624986  -0.00005199  0.66399767  1
  Sb  Sb86  1  0.16925196  0.67065285  0.83682048  1
  Sb  Sb87  1  -0.00339832  0.83307757  0.16497410  1
  Sb  Sb88  1  0.83021744  0.49863592  0.33649589  1
  Sb  Sb89  1  0.82460863  0.66212414  0.50260647  1
  Sb  Sb90  1  0.50124434  0.67124794  0.16577682  1
  Sb  Sb91  1  -0.00278822  0.17033013  0.83999027  1
  Sb  Sb92  1  0.16910153  0.83398759  0.66914730  1
  Sb  Sb93  1  0.16764018  0.66698565  0.16562785  1
  Sb  Sb94  1  0.66551343  0.16698385  0.17056086  1
  Sb  Sb95  1  0.50502494  0.83850679  0.33291434  1
  Sb  Sb96  1  0.50216361  0.32810573  0.16918468  1
  Sb  Sb97  1  0.66465192  -0.00207988  0.00409082  1
  Sb  Sb98  1  0.33016967  0.00338898  0.00531501  1
  Sb  Sb99  1  0.33654755  0.33744707  0.66846925  1
  Sb  Sb100  1  -0.00551898  0.82633239  0.49682086  1
  Sb  Sb101  1  0.16725010  0.16231907  0.32407947  1
  Sb  Sb102  1  0.16577212  0.33072190  0.84314128  1
  Sb  Sb103  1  -0.00673942  0.82893735  0.83577734  1
  Sb  Sb104  1  0.16153121  0.49867683  0.67159810  1
  Sb  Sb105  1  0.00365526  0.66415064  0.00295338  1
  Sb  Sb106  1  0.83250371  0.33795138  0.83075541  1
  Sb  Sb107  1  -0.00182933  -0.00271754  0.32718226  1
  Te  Te108  1  0.16817840  0.16652793  0.16367691  1
  Te  Te109  1  0.16733560  0.16661049  0.50027005  1
  Te  Te110  1  0.16614986  0.16143050  0.84097523  1
  Te  Te111  1  0.16811865  0.49896475  0.16271955  1
  Te  Te112  1  0.16848311  0.49917318  0.50006089  1
  Te  Te113  1  0.16446597  0.50119130  0.84019828  1
  Te  Te114  1  0.16669577  0.83731947  0.16526861  1
  Te  Te115  1  0.16727907  0.83358383  0.49938105  1
  Te  Te116  1  0.16554800  0.83896394  0.83759982  1
  Te  Te117  1  0.49891849  0.16311191  0.16565062  1
  Te  Te118  1  0.50566148  0.16739526  0.49840790  1
  Te  Te119  1  0.50191723  0.16529172  0.83462055  1
  Te  Te120  1  0.50245772  0.50024739  0.16705396  1
  Te  Te121  1  0.50272387  0.50059318  0.50027129  1
  Te  Te122  1  0.50477399  0.50524282  0.83292332  1
  Te  Te123  1  0.50464996  0.83834603  0.16150439  1
  Te  Te124  1  0.50132033  0.83260689  0.50121058  1
  Te  Te125  1  0.50177974  0.83366071  0.83450151  1
  Te  Te126  1  0.83484282  0.17051098  0.16926518  1
  Te  Te127  1  0.82765773  0.17053752  0.49959831  1
  Te  Te128  1  0.82725616  0.16498801  0.82956475  1
  Te  Te129  1  0.83205995  0.49619561  0.16566899  1
  Te  Te130  1  0.82962787  0.49728381  0.50304892  1
  Te  Te131  1  0.83138614  0.50391774  0.83064263  1
  Te  Te132  1  0.82882295  0.83272143  0.16658136  1
  Te  Te133  1  0.82896466  0.83204068  0.49874877  1
  Te  Te134  1  0.82792985  0.82943010  0.83409773  1
  Te  Te135  1  0.16730556  0.00235879  0.00223008  1
  Te  Te136  1  0.16594204  -0.00522538  0.32698756  1
  Te  Te137  1  0.16644491  0.00096700  0.67230869  1
  Te  Te138  1  0.16626391  0.33048872  0.00450528  1
  Te  Te139  1  0.16670149  0.33302400  0.32338403  1
  Te  Te140  1  0.16182801  0.33300657  0.66599985  1
  Te  Te141  1  0.17250865  0.67112864  -0.00032894  1
  Te  Te142  1  0.16562031  0.67492415  0.33302683  1
  Te  Te143  1  0.17524441  0.66706479  0.66769017  1
  Te  Te144  1  0.49938345  0.00046668  0.00142308  1
  Te  Te145  1  0.50198842  0.00381578  0.33132031  1
  Te  Te146  1  0.49995600  -0.00775957  0.67468800  1
  Te  Te147  1  0.49697928  0.32731832  -0.00038976  1
  Te  Te148  1  0.50573947  0.32659741  0.33867288  1
  Te  Te149  1  0.50517744  0.33193416  0.66051506  1
  Te  Te150  1  0.49563961  0.66976590  -0.00239100  1
  Te  Te151  1  0.50605660  0.66733576  0.33812437  1
  Te  Te152  1  0.49726786  0.67026238  0.66629704  1
  Te  Te153  1  0.84100811  -0.00706558  0.00066056  1
  Te  Te154  1  0.82993813  -0.00125111  0.33294248  1
  Te  Te155  1  0.83391440  -0.00789934  0.66733766  1
  Te  Te156  1  0.83750736  0.33304459  0.00534997  1
  Te  Te157  1  0.82910820  0.33169136  0.33386877  1
  Te  Te158  1  0.83174670  0.33542526  0.66753985  1
  Te  Te159  1  0.83481889  0.67405130  -0.00554564  1
  Te  Te160  1  0.83009129  0.67162076  0.33385365  1
  Te  Te161  1  0.83565025  0.66958149  0.67055556  1
  Te  Te162  1  -0.00182249  0.16916259  0.00381589  1
  Te  Te163  1  -0.00434674  0.16586984  0.32667854  1
  Te  Te164  1  -0.00751215  0.17277953  0.66634107  1
  Te  Te165  1  0.00325301  0.49793769  0.00191103  1
  Te  Te166  1  -0.00085045  0.50510409  0.33307229  1
  Te  Te167  1  -0.00430509  0.49671385  0.66671977  1
  Te  Te168  1  0.00659204  0.83334206  0.00031100  1
  Te  Te169  1  0.00030312  0.82899548  0.33283235  1
  Te  Te170  1  -0.00458324  0.83358848  0.66606536  1
  Te  Te171  1  0.33397314  0.16695544  0.00130305  1
  Te  Te172  1  0.33566610  0.16175639  0.32963142  1
  Te  Te173  1  0.33208791  0.16831026  0.66846363  1
  Te  Te174  1  0.32988950  0.49819885  0.00142912  1
  Te  Te175  1  0.33320650  0.50012794  0.33330327  1
  Te  Te176  1  0.33195215  0.50372584  0.66408038  1
  Te  Te177  1  0.33485103  0.82842016  0.00064553  1
  Te  Te178  1  0.33151426  0.83564259  0.33544252  1
  Te  Te179  1  0.33508840  0.82900815  0.66099938  1
  Te  Te180  1  0.66338592  0.16535874  -0.00584516  1
  Te  Te181  1  0.66764325  0.16675701  0.33237393  1
  Te  Te182  1  0.67029182  0.16706629  0.66700329  1
  Te  Te183  1  0.66651583  0.50093288  0.00125862  1
  Te  Te184  1  0.66678384  0.49916036  0.33385494  1
  Te  Te185  1  0.67058262  0.49822851  0.66661890  1
  Te  Te186  1  0.66522630  0.83340718  -0.00152617  1
  Te  Te187  1  0.66605758  0.83368404  0.33149692  1
  Te  Te188  1  0.66607812  0.83406425  0.66819688  1
  Te  Te189  1  0.00322300  0.00205387  0.16179143  1
  Te  Te190  1  0.00168531  0.00199459  0.50192218  1
  Te  Te191  1  0.00273855  0.00086336  0.84034651  1
  Te  Te192  1  -0.00139241  0.33421293  0.16627056  1
  Te  Te193  1  -0.00271262  0.33975211  0.50158848  1
  Te  Te194  1  -0.00049658  0.33838683  0.83495137  1
  Te  Te195  1  -0.00023341  0.66026812  0.17191537  1
  Te  Te196  1  0.00009748  0.65830754  0.49536735  1
  Te  Te197  1  -0.00116815  0.65947316  0.83293735  1
  Te  Te198  1  0.33441905  0.00202556  0.17112285  1
  Te  Te199  1  0.33431722  -0.00337421  0.49270110  1
  Te  Te200  1  0.33550054  0.00436869  0.83046257  1
  Te  Te201  1  0.33530103  0.33341633  0.16372035  1
  Te  Te202  1  0.33411654  0.33965274  0.49967491  1
  Te  Te203  1  0.33382429  0.32755179  0.83738999  1
  Te  Te204  1  0.33491247  0.65892058  0.16283406  1
  Te  Te205  1  0.33870998  0.66575281  0.49878385  1
  Te  Te206  1  0.33839995  0.66689869  0.83355220  1
  Te  Te207  1  0.66368368  -0.00333122  0.17086505  1
  Te  Te208  1  0.66733868  -0.00901619  0.49352814  1
  Te  Te209  1  0.66140969  -0.00160327  0.83397085  1
  Te  Te210  1  0.66997877  0.33788689  0.16866390  1
  Te  Te211  1  0.66911951  0.33427154  0.49933864  1
  Te  Te212  1  0.66643668  0.33558937  0.83271588  1
  Te  Te213  1  0.66705782  0.66486637  0.17118544  1
  Te  Te214  1  0.66224263  0.67078253  0.49769915  1
  Te  Te215  1  0.66486821  0.66698467  0.83346833  1
