# generated using pymatgen
data_AgSbTe2
_symmetry_space_group_name_H-M   'P 1'
_cell_length_a   18.33787609
_cell_length_b   18.34035464
_cell_length_c   18.34129144
_cell_angle_alpha   90.00133528
_cell_angle_beta   90.00061751
_cell_angle_gamma   90.00093848
_symmetry_Int_Tables_number   1
_chemical_formula_structural   AgSbTe2
_chemical_formula_sum   'Ag54 Sb54 Te108'
_cell_volume   6168.60092385
_cell_formula_units_Z   54
loop_
 _symmetry_equiv_pos_site_id
 _symmetry_equiv_pos_as_xyz
  1  'x, y, z'
loop_
 _atom_site_type_symbol
 _atom_site_label
 _atom_site_symmetry_multiplicity
 _atom_site_fract_x
 _atom_site_fract_y
 _atom_site_fract_z
 _atom_site_occupancy
  Ag  Ag0  1  0.16650717  0.84108330  0.00308376  1
  Ag  Ag1  1  0.83343328  0.00003438  0.82889203  1
  Ag  Ag2  1  0.66698200  0.83886034  0.49976003  1
  Ag  Ag3  1  0.82896614  0.00200118  0.17002787  1
  Ag  Ag4  1  0.49564925  0.00214495  0.16254349  1
  Ag  Ag5  1  0.50590879  0.32931716  0.50192771  1
  Ag  Ag6  1  0.49781181  0.16076376  0.32804639  1
  Ag  Ag7  1  0.66876489  -0.00058970  0.66507126  1
  Ag  Ag8  1  0.49468026  -0.00009009  0.83937127  1
  Ag  Ag9  1  0.16570984  0.00317895  0.48832188  1
  Ag  Ag10  1  0.50034419  0.68128734  0.82924080  1
  Ag  Ag11  1  0.00249076  0.50020366  0.16544152  1
  Ag  Ag12  1  0.00102200  -0.00050992  0.33084691  1
  Ag  Ag13  1  0.33516837  0.31728830  0.66661145  1
  Ag  Ag14  1  0.83343624  0.50160323  0.00155998  1
  Ag  Ag15  1  0.66176336  0.00015960  0.00767358  1
  Ag  Ag16  1  0.66381187  0.50186225  0.50155656  1
  Ag  Ag17  1  0.00052250  0.83794659  0.83537248  1
  Ag  Ag18  1  0.65874966  0.16129951  0.16883176  1
  Ag  Ag19  1  0.33173090  0.49285299  0.16473686  1
  Ag  Ag20  1  0.16814931  0.31829062  0.16691686  1
  Ag  Ag21  1  0.16830404  0.84472954  0.32609024  1
  Ag  Ag22  1  0.50325908  0.66564391  0.50747306  1
  Ag  Ag23  1  0.66735823  0.31990377  0.33673461  1
  Ag  Ag24  1  0.83062089  0.00118839  0.50340228  1
  Ag  Ag25  1  0.50109690  0.84282281  0.33062781  1
  Ag  Ag26  1  0.33615077  0.16413112  0.16946841  1
  Ag  Ag27  1  -0.00506862  0.66791760  0.67095748  1
  Ag  Ag28  1  0.83832333  0.84055088  -0.00102802  1
  Ag  Ag29  1  0.33928023  0.00145553  0.67372997  1
  Ag  Ag30  1  0.82590691  0.32235560  0.49958201  1
  Ag  Ag31  1  -0.00041114  0.15453978  0.83173044  1
  Ag  Ag32  1  0.83437728  0.32141780  0.16781971  1
  Ag  Ag33  1  0.66909532  0.00123200  0.32912016  1
  Ag  Ag34  1  -0.00184045  0.67060323  -0.00316829  1
  Ag  Ag35  1  0.49817319  0.49772442  0.66414107  1
  Ag  Ag36  1  0.83009996  0.84175944  0.33279404  1
  Ag  Ag37  1  0.17216174  0.15540833  0.00726825  1
  Ag  Ag38  1  0.17138946  0.00049738  0.83895680  1
  Ag  Ag39  1  0.17540659  0.49406839  0.66668585  1
  Ag  Ag40  1  0.83414849  0.32026035  0.82883807  1
  Ag  Ag41  1  0.66561412  0.67567652  0.66315335  1
  Ag  Ag42  1  0.33521444  0.16369652  0.50393964  1
  Ag  Ag43  1  0.83113754  0.84497780  0.66793156  1
  Ag  Ag44  1  0.49514967  0.16055536  0.00815922  1
  Ag  Ag45  1  0.33329414  0.84682591  0.16370778  1
  Ag  Ag46  1  0.83169494  0.16187982  0.66766835  1
  Ag  Ag47  1  0.49839676  0.68065782  0.16613825  1
  Ag  Ag48  1  0.17841671  0.00199759  0.16615196  1
  Ag  Ag49  1  0.17280936  0.16053623  0.32311367  1
  Ag  Ag50  1  0.17703417  0.16257768  0.66662802  1
  Ag  Ag51  1  0.49476403  0.16154041  0.66406913  1
  Ag  Ag52  1  0.33044940  0.84080174  0.83798663  1
  Ag  Ag53  1  0.33251147  0.00012356  -0.00080066  1
  Sb  Sb54  1  0.50081436  0.49804215  0.33684366  1
  Sb  Sb55  1  0.50262071  0.32506226  0.82632301  1
  Sb  Sb56  1  0.00226582  0.33445553  0.66662450  1
  Sb  Sb57  1  0.66398120  0.67315940  0.33767359  1
  Sb  Sb58  1  0.33365191  0.32412676  -0.00260875  1
  Sb  Sb59  1  0.17244560  0.67478403  0.50384745  1
  Sb  Sb60  1  0.33593956  0.67006500  0.33217824  1
  Sb  Sb61  1  0.33771351  0.84355327  0.49879056  1
  Sb  Sb62  1  -0.00411638  0.32429946  0.33055284  1
  Sb  Sb63  1  -0.00049041  0.50337062  0.83545805  1
  Sb  Sb64  1  0.33466818  0.00188569  0.32928679  1
  Sb  Sb65  1  0.83173254  0.15922557  0.33611359  1
  Sb  Sb66  1  0.66935105  0.16232287  0.83476382  1
  Sb  Sb67  1  0.33146772  0.67538697  0.00181671  1
  Sb  Sb68  1  0.83168828  0.50038894  0.32998789  1
  Sb  Sb69  1  0.50413939  0.49690115  -0.00271986  1
  Sb  Sb70  1  0.16856444  0.67531858  0.83196638  1
  Sb  Sb71  1  0.83001217  0.49692900  0.66951784  1
  Sb  Sb72  1  0.16297940  0.84158033  0.66805466  1
  Sb  Sb73  1  0.16799434  0.32472185  0.49751868  1
  Sb  Sb74  1  0.33818305  0.32765116  0.33585177  1
  Sb  Sb75  1  0.66159274  0.16317850  0.49649372  1
  Sb  Sb76  1  0.16378247  0.50101148  -0.00198618  1
  Sb  Sb77  1  0.00315339  -0.00337830  0.00044931  1
  Sb  Sb78  1  0.66712219  0.50045799  0.82785110  1
  Sb  Sb79  1  0.66274317  0.84190240  0.17164924  1
  Sb  Sb80  1  0.82679446  0.67167242  0.50317062  1
  Sb  Sb81  1  0.00214461  0.16297046  0.50428821  1
  Sb  Sb82  1  -0.00560105  0.83619719  0.50401337  1
  Sb  Sb83  1  0.16669876  0.49678398  0.33498425  1
  Sb  Sb84  1  -0.00120119  0.67562670  0.33140379  1
  Sb  Sb85  1  0.83067424  0.67353861  0.83235338  1
  Sb  Sb86  1  0.66534776  0.49414155  0.17085699  1
  Sb  Sb87  1  0.33816236  0.67247706  0.66705160  1
  Sb  Sb88  1  0.17092061  0.67133148  0.16640156  1
  Sb  Sb89  1  0.83562189  0.16003941  -0.00155888  1
  Sb  Sb90  1  0.33768972  0.49397969  0.49930245  1
  Sb  Sb91  1  0.16301226  0.32220461  0.83567096  1
  Sb  Sb92  1  0.82803928  0.67208580  0.16470357  1
  Sb  Sb93  1  -0.00194057  0.33466865  0.00157682  1
  Sb  Sb94  1  -0.00499176  0.50098586  0.49811388  1
  Sb  Sb95  1  0.49914020  0.84193827  0.00237713  1
  Sb  Sb96  1  0.00264645  0.16402768  0.16210815  1
  Sb  Sb97  1  0.00318314  0.83379848  0.16132142  1
  Sb  Sb98  1  0.66784499  0.67539026  -0.00364976  1
  Sb  Sb99  1  0.50482632  0.83818115  0.66339102  1
  Sb  Sb100  1  0.49934761  0.32589192  0.17243772  1
  Sb  Sb101  1  0.33031419  0.15928586  0.83162048  1
  Sb  Sb102  1  -0.00327838  -0.00156263  0.66881133  1
  Sb  Sb103  1  0.66410123  0.32816903  0.66101222  1
  Sb  Sb104  1  0.33353335  0.50592067  0.83511503  1
  Sb  Sb105  1  0.66915042  0.32514307  0.00547507  1
  Sb  Sb106  1  0.50133660  0.00246722  0.49777974  1
  Sb  Sb107  1  0.66699716  0.83889486  0.82889157  1
  Te  Te108  1  0.16462676  0.16233460  0.16514396  1
  Te  Te109  1  0.16964528  0.16261076  0.50640013  1
  Te  Te110  1  0.16277826  0.16223493  0.82938025  1
  Te  Te111  1  0.16774374  0.50340199  0.16650060  1
  Te  Te112  1  0.16718513  0.49863346  0.50399463  1
  Te  Te113  1  0.16688922  0.49821745  0.82767226  1
  Te  Te114  1  0.16993274  0.83664855  0.16590850  1
  Te  Te115  1  0.16786152  0.84146648  0.49552047  1
  Te  Te116  1  0.16664454  0.83882061  0.83554447  1
  Te  Te117  1  0.49862989  0.16440544  0.16827486  1
  Te  Te118  1  0.49593257  0.16828108  0.50261356  1
  Te  Te119  1  0.50107122  0.16031256  0.82819609  1
  Te  Te120  1  0.49583519  0.49419844  0.16560659  1
  Te  Te121  1  0.50175672  0.49989434  0.50333534  1
  Te  Te122  1  0.49982738  0.49805295  0.82737995  1
  Te  Te123  1  0.49671186  0.83811391  0.16840424  1
  Te  Te124  1  0.50312083  0.83053205  0.49404491  1
  Te  Te125  1  0.49742099  0.83884310  0.83445630  1
  Te  Te126  1  0.83601699  0.16399174  0.16646629  1
  Te  Te127  1  0.83476624  0.16382783  0.50264674  1
  Te  Te128  1  0.83583397  0.16296830  0.83244424  1
  Te  Te129  1  0.83357749  0.50262338  0.16312062  1
  Te  Te130  1  0.82757806  0.49943803  0.49942962  1
  Te  Te131  1  0.83314281  0.49773655  0.83921275  1
  Te  Te132  1  0.83340300  0.83781140  0.16610691  1
  Te  Te133  1  0.82883556  0.83772052  0.50183996  1
  Te  Te134  1  0.83506012  0.83749066  0.83197117  1
  Te  Te135  1  0.16660573  -0.00125237  0.00065893  1
  Te  Te136  1  0.17062449  0.00177913  0.33060708  1
  Te  Te137  1  0.16255140  0.00315720  0.67291562  1
  Te  Te138  1  0.16661481  0.33207655  0.00641048  1
  Te  Te139  1  0.16592710  0.32829367  0.32867814  1
  Te  Te140  1  0.16994646  0.33019084  0.66635944  1
  Te  Te141  1  0.16027350  0.66977206  -0.00181444  1
  Te  Te142  1  0.16556403  0.67229414  0.33636036  1
  Te  Te143  1  0.16553800  0.66342184  0.66658522  1
  Te  Te144  1  0.50120166  0.00227933  0.00012317  1
  Te  Te145  1  0.50218769  0.00190619  0.33290133  1
  Te  Te146  1  0.50210679  0.00120664  0.66465272  1
  Te  Te147  1  0.50114079  0.32458840  -0.00320804  1
  Te  Te148  1  0.50555033  0.32924670  0.34006311  1
  Te  Te149  1  0.49765623  0.33152035  0.66290246  1
  Te  Te150  1  0.50063156  0.66481443  -0.00037622  1
  Te  Te151  1  0.50093363  0.66739336  0.32720833  1
  Te  Te152  1  0.50321812  0.67048289  0.66777289  1
  Te  Te153  1  0.83350206  -0.00080509  0.00020989  1
  Te  Te154  1  0.82919245  -0.00059202  0.33267985  1
  Te  Te155  1  0.83535428  0.00107946  0.66585850  1
  Te  Te156  1  0.83254150  0.33366080  0.00631062  1
  Te  Te157  1  0.82902581  0.33293545  0.33233400  1
  Te  Te158  1  0.83326699  0.33005167  0.66608113  1
  Te  Te159  1  0.83562946  0.66803223  -0.00103389  1
  Te  Te160  1  0.83284333  0.67797606  0.33404252  1
  Te  Te161  1  0.82989026  0.66547745  0.66757807  1
  Te  Te162  1  0.00730366  0.16807664  -0.00689039  1
  Te  Te163  1  0.00875452  0.15970684  0.33367873  1
  Te  Te164  1  -0.00652627  0.16860982  0.67118930  1
  Te  Te165  1  -0.00300188  0.50581732  0.00299148  1
  Te  Te166  1  0.00058135  0.50234967  0.32734062  1
  Te  Te167  1  0.00085410  0.50535060  0.66653586  1
  Te  Te168  1  -0.00017170  0.83039458  -0.00319414  1
  Te  Te169  1  0.00082681  0.83888890  0.33330397  1
  Te  Te170  1  -0.00490602  0.82815568  0.67131748  1
  Te  Te171  1  0.33278938  0.16150594  0.00268253  1
  Te  Te172  1  0.33456365  0.16795619  0.33252146  1
  Te  Te173  1  0.33465567  0.16138197  0.66830986  1
  Te  Te174  1  0.33355817  0.49854578  0.00420749  1
  Te  Te175  1  0.33221937  0.49784068  0.32559047  1
  Te  Te176  1  0.33595209  0.50499499  0.66749463  1
  Te  Te177  1  0.33160054  0.83927866  0.00131535  1
  Te  Te178  1  0.33461948  0.83282421  0.32980755  1
  Te  Te179  1  0.33169660  0.84031353  0.66923517  1
  Te  Te180  1  0.66333978  0.15943703  0.00592363  1
  Te  Te181  1  0.66617231  0.16242966  0.33004229  1
  Te  Te182  1  0.66995105  0.16173775  0.66686245  1
  Te  Te183  1  0.67170137  0.50090665  0.00049363  1
  Te  Te184  1  0.66673296  0.49894014  0.34010886  1
  Te  Te185  1  0.66172317  0.49956711  0.66197116  1
  Te  Te186  1  0.67401063  0.83986403  0.00014846  1
  Te  Te187  1  0.66577904  0.83845754  0.33727199  1
  Te  Te188  1  0.67059398  0.83531013  0.66262509  1
  Te  Te189  1  -0.00722587  -0.00140300  0.17102320  1
  Te  Te190  1  -0.00101698  -0.00067339  0.49249121  1
  Te  Te191  1  -0.00352673  -0.00300525  0.83439053  1
  Te  Te192  1  -0.00330816  0.33787104  0.16772365  1
  Te  Te193  1  -0.01006545  0.33451563  0.49828150  1
  Te  Te194  1  -0.00729248  0.33338616  0.83368571  1
  Te  Te195  1  -0.00139387  0.66307281  0.16429371  1
  Te  Te196  1  0.00184754  0.66675649  0.50585626  1
  Te  Te197  1  0.00030378  0.67163336  0.83327190  1
  Te  Te198  1  0.33458689  0.00337811  0.16493365  1
  Te  Te199  1  0.32988408  0.00473314  0.50869462  1
  Te  Te200  1  0.33390564  -0.00147014  0.83450065  1
  Te  Te201  1  0.32994464  0.32847403  0.16567631  1
  Te  Te202  1  0.33574887  0.32727879  0.50522333  1
  Te  Te203  1  0.33233240  0.33727271  0.82677871  1
  Te  Te204  1  0.33907846  0.66460233  0.16561655  1
  Te  Te205  1  0.34194223  0.66590066  0.49954717  1
  Te  Te206  1  0.33993158  0.67539275  0.83461763  1
  Te  Te207  1  0.66685394  0.00137510  0.16771167  1
  Te  Te208  1  0.66773155  -0.00149539  0.50232892  1
  Te  Te209  1  0.66902088  0.00038514  0.82829003  1
  Te  Te210  1  0.67088641  0.32724101  0.17291225  1
  Te  Te211  1  0.66737096  0.33158875  0.49762259  1
  Te  Te212  1  0.67520641  0.33306751  0.83482923  1
  Te  Te213  1  0.65889203  0.66433216  0.16529905  1
  Te  Te214  1  0.66150406  0.66595851  0.50322387  1
  Te  Te215  1  0.65970031  0.66789284  0.82758680  1
