# generated using pymatgen
data_AgSbTe2
_symmetry_space_group_name_H-M   'P 1'
_cell_length_a   18.32235117
_cell_length_b   18.32537195
_cell_length_c   18.32091543
_cell_angle_alpha   89.99998907
_cell_angle_beta   90.00166447
_cell_angle_gamma   90.00060264
_symmetry_Int_Tables_number   1
_chemical_formula_structural   AgSbTe2
_chemical_formula_sum   'Ag54 Sb54 Te108'
_cell_volume   6151.50201739
_cell_formula_units_Z   54
loop_
 _symmetry_equiv_pos_site_id
 _symmetry_equiv_pos_as_xyz
  1  'x, y, z'
loop_
 _atom_site_type_symbol
 _atom_site_label
 _atom_site_symmetry_multiplicity
 _atom_site_fract_x
 _atom_site_fract_y
 _atom_site_fract_z
 _atom_site_occupancy
  Ag  Ag0  1  0.66653886  0.49994889  0.83596802  1
  Ag  Ag1  1  0.00306891  -0.00488216  0.66678477  1
  Ag  Ag2  1  0.66712063  0.33938420  -0.00359969  1
  Ag  Ag3  1  -0.00051436  -0.00539900  -0.00315206  1
  Ag  Ag4  1  0.66828552  0.65990685  -0.00339964  1
  Ag  Ag5  1  0.00080498  0.33491949  0.34117446  1
  Ag  Ag6  1  0.49305898  -0.00744747  0.50527034  1
  Ag  Ag7  1  0.82555367  0.50510380  -0.00378162  1
  Ag  Ag8  1  0.00152850  0.66750175  0.66328506  1
  Ag  Ag9  1  0.33704873  0.50002790  0.16055578  1
  Ag  Ag10  1  0.49831229  0.15894630  -0.00312957  1
  Ag  Ag11  1  0.83846730  0.83364924  0.67142907  1
  Ag  Ag12  1  0.83880036  0.33670254  0.51049770  1
  Ag  Ag13  1  0.49866885  0.83918483  -0.00222662  1
  Ag  Ag14  1  0.84202214  0.83383160  0.33051879  1
  Ag  Ag15  1  0.50127341  0.83045941  0.66873364  1
  Ag  Ag16  1  0.00397598  0.82926351  0.49897095  1
  Ag  Ag17  1  0.84023691  -0.00689809  0.83800277  1
  Ag  Ag18  1  0.17134253  0.49894861  0.66994563  1
  Ag  Ag19  1  0.33057764  0.33704083  0.33872554  1
  Ag  Ag20  1  0.16635128  0.66521963  0.83003019  1
  Ag  Ag21  1  0.17100977  0.16831742  0.67208216  1
  Ag  Ag22  1  0.66636220  0.33407707  0.67475661  1
  Ag  Ag23  1  -0.00016475  0.67595486  0.34402113  1
  Ag  Ag24  1  0.83466172  0.83797780  -0.00372906  1
  Ag  Ag25  1  0.50315019  0.00191878  0.15526653  1
  Ag  Ag26  1  0.32819903  0.50441658  0.51344661  1
  Ag  Ag27  1  0.50122964  0.33241133  0.16315861  1
  Ag  Ag28  1  0.16656135  -0.00800551  0.51033285  1
  Ag  Ag29  1  0.66383941  -0.00082965  0.00083558  1
  Ag  Ag30  1  0.16697544  0.50274635  -0.00989126  1
  Ag  Ag31  1  0.33314956  -0.00357361  -0.00106361  1
  Ag  Ag32  1  0.33193106  0.83326220  0.16206293  1
  Ag  Ag33  1  0.00688013  0.50752845  0.50380023  1
  Ag  Ag34  1  0.17467691  0.15436891  -0.00831396  1
  Ag  Ag35  1  -0.00076983  0.83623046  0.16819322  1
  Ag  Ag36  1  0.49826955  0.66467220  0.82949069  1
  Ag  Ag37  1  0.82995642  0.33907114  0.83060231  1
  Ag  Ag38  1  0.33432149  0.33823293  0.66618664  1
  Ag  Ag39  1  -0.00013293  -0.00935224  0.33421058  1
  Ag  Ag40  1  0.66236163  0.16933951  0.15984104  1
  Ag  Ag41  1  0.33306022  0.17008012  0.83309554  1
  Ag  Ag42  1  0.49179471  0.67223042  0.51190322  1
  Ag  Ag43  1  -0.00016801  0.33818142  0.66209659  1
  Ag  Ag44  1  0.66010500  0.49439364  0.15425331  1
  Ag  Ag45  1  0.83188721  -0.00414431  0.15459283  1
  Ag  Ag46  1  0.49301600  0.16842344  0.67411852  1
  Ag  Ag47  1  0.83389994  0.66728765  0.83445334  1
  Ag  Ag48  1  0.49054909  0.50152194  0.66906534  1
  Ag  Ag49  1  0.32754258  0.82991927  0.50032893  1
  Ag  Ag50  1  0.33428106  0.49792870  0.83037571  1
  Ag  Ag51  1  0.16582136  0.83838122  -0.00199866  1
  Ag  Ag52  1  0.16345760  0.67024849  0.50908578  1
  Ag  Ag53  1  0.16244775  -0.00239787  0.83477563  1
  Sb  Sb54  1  0.83615227  0.50353717  0.32964952  1
  Sb  Sb55  1  0.33748033  0.16548925  0.15855611  1
  Sb  Sb56  1  0.83516645  0.16320236  0.33287070  1
  Sb  Sb57  1  0.66775743  0.82793567  0.83637562  1
  Sb  Sb58  1  0.17219518  0.33504512  0.16535395  1
  Sb  Sb59  1  0.49938244  -0.00364796  0.83581662  1
  Sb  Sb60  1  0.32738075  0.66405297  0.33727001  1
  Sb  Sb61  1  0.33794506  0.33220489  -0.00346522  1
  Sb  Sb62  1  0.33237054  0.16697216  0.50680419  1
  Sb  Sb63  1  0.66349290  0.16661644  0.49996254  1
  Sb  Sb64  1  0.83732335  0.66494196  0.50636145  1
  Sb  Sb65  1  0.66063899  0.17147396  0.83872481  1
  Sb  Sb66  1  0.16702508  0.50102186  0.33827214  1
  Sb  Sb67  1  0.16363052  0.33642421  0.50456523  1
  Sb  Sb68  1  0.50150259  0.83432499  0.33249255  1
  Sb  Sb69  1  0.32887911  0.00182115  0.33079945  1
  Sb  Sb70  1  0.16617580  0.16502907  0.33555833  1
  Sb  Sb71  1  0.32938522  0.66270351  0.66656486  1
  Sb  Sb72  1  0.49834720  0.16554205  0.33068173  1
  Sb  Sb73  1  0.00608528  0.16412802  0.83328618  1
  Sb  Sb74  1  0.16137134  0.83354445  0.33324628  1
  Sb  Sb75  1  0.16585148  0.66822304  0.16205549  1
  Sb  Sb76  1  0.67114289  0.66735889  0.32810672  1
  Sb  Sb77  1  0.83472130  0.67245523  0.15884978  1
  Sb  Sb78  1  0.83637755  -0.00054153  0.50329838  1
  Sb  Sb79  1  0.16563664  0.83173634  0.66862752  1
  Sb  Sb80  1  0.82919501  0.16063903  -0.00188830  1
  Sb  Sb81  1  0.66759317  0.83446357  0.16074813  1
  Sb  Sb82  1  0.16455224  0.33398517  0.83096965  1
  Sb  Sb83  1  0.50030729  0.66747204  0.16281890  1
  Sb  Sb84  1  -0.00286413  0.15947778  0.16432628  1
  Sb  Sb85  1  -0.00202382  0.67256395  -0.00500046  1
  Sb  Sb86  1  0.82893218  0.33053339  0.16348374  1
  Sb  Sb87  1  0.00201029  0.50461327  0.16877128  1
  Sb  Sb88  1  0.32960362  0.00248143  0.67168977  1
  Sb  Sb89  1  0.33294678  0.83203241  0.83238753  1
  Sb  Sb90  1  0.00219449  0.16478259  0.50318575  1
  Sb  Sb91  1  0.66828049  0.00423402  0.67429177  1
  Sb  Sb92  1  0.83619472  0.50090498  0.67284087  1
  Sb  Sb93  1  0.00164237  0.50040442  0.82883862  1
  Sb  Sb94  1  0.50294757  0.33812940  0.83406937  1
  Sb  Sb95  1  0.16573664  -0.00224355  0.15849439  1
  Sb  Sb96  1  0.83557056  0.16644745  0.66984279  1
  Sb  Sb97  1  0.66720656  0.33486576  0.33152059  1
  Sb  Sb98  1  0.50157592  0.50148516  -0.00498092  1
  Sb  Sb99  1  0.33603874  0.67018315  -0.00229469  1
  Sb  Sb100  1  0.66697681  0.66199592  0.67347043  1
  Sb  Sb101  1  0.49928625  0.33412943  0.50298886  1
  Sb  Sb102  1  -0.00134955  0.83470203  0.83050935  1
  Sb  Sb103  1  -0.00434728  0.33090081  -0.00226713  1
  Sb  Sb104  1  0.66566840  0.49970539  0.50658351  1
  Sb  Sb105  1  0.49756745  0.50069405  0.33722089  1
  Sb  Sb106  1  0.66678529  0.83279898  0.50229339  1
  Sb  Sb107  1  0.67116704  -0.00143755  0.32664056  1
  Te  Te108  1  0.16758182  0.16683069  0.15916784  1
  Te  Te109  1  0.16820992  0.15696465  0.50733193  1
  Te  Te110  1  0.17168974  0.16718459  0.83289556  1
  Te  Te111  1  0.17216023  0.50176092  0.16119035  1
  Te  Te112  1  0.16722616  0.50306559  0.50451796  1
  Te  Te113  1  0.16788410  0.50066703  0.83059149  1
  Te  Te114  1  0.17021511  0.83239736  0.16019714  1
  Te  Te115  1  0.16677107  0.83187263  0.50093902  1
  Te  Te116  1  0.16764645  0.83148925  0.83786517  1
  Te  Te117  1  0.50165420  0.16389068  0.16411194  1
  Te  Te118  1  0.49897178  0.16107691  0.50397876  1
  Te  Te119  1  0.49417979  0.16598915  0.83414762  1
  Te  Te120  1  0.49794151  0.49937339  0.16618343  1
  Te  Te121  1  0.49659467  0.50295631  0.50557989  1
  Te  Te122  1  0.49748223  0.50389628  0.82969803  1
  Te  Te123  1  0.49652339  0.83602494  0.16447019  1
  Te  Te124  1  0.49976171  0.83296922  0.49944094  1
  Te  Te125  1  0.49988364  0.82761412  0.83300351  1
  Te  Te126  1  0.82762421  0.15851455  0.16618210  1
  Te  Te127  1  0.83133011  0.17494375  0.50088143  1
  Te  Te128  1  0.83200780  0.16651044  0.83338017  1
  Te  Te129  1  0.83255947  0.50006556  0.15884579  1
  Te  Te130  1  0.83498530  0.49669809  0.49913725  1
  Te  Te131  1  0.83360548  0.50222860  0.83714912  1
  Te  Te132  1  0.83448705  0.83741136  0.16101178  1
  Te  Te133  1  0.83766355  0.83349463  0.50762447  1
  Te  Te134  1  0.83287206  0.83293401  0.83365902  1
  Te  Te135  1  0.16702294  -0.00191924  -0.00264726  1
  Te  Te136  1  0.16018687  0.00113426  0.33923848  1
  Te  Te137  1  0.16426681  -0.00153541  0.67086251  1
  Te  Te138  1  0.16503533  0.33944632  -0.00100405  1
  Te  Te139  1  0.16594289  0.33244420  0.33364721  1
  Te  Te140  1  0.16550716  0.33334481  0.66709692  1
  Te  Te141  1  0.16638059  0.66454454  -0.00584053  1
  Te  Te142  1  0.15923152  0.66657510  0.34092036  1
  Te  Te143  1  0.16265996  0.66590230  0.66862808  1
  Te  Te144  1  0.49933612  -0.00128107  -0.00240586  1
  Te  Te145  1  0.49944873  -0.00010767  0.33499971  1
  Te  Te146  1  0.50063072  -0.00071129  0.66688589  1
  Te  Te147  1  0.50497975  0.33027523  0.00251403  1
  Te  Te148  1  0.49686359  0.33282026  0.32913637  1
  Te  Te149  1  0.49831885  0.33273273  0.66585469  1
  Te  Te150  1  0.50471812  0.67247089  -0.00376680  1
  Te  Te151  1  0.50128242  0.66841940  0.33922598  1
  Te  Te152  1  0.50277203  0.66742726  0.66840541  1
  Te  Te153  1  0.83693670  -0.00075464  -0.00153634  1
  Te  Te154  1  0.83914148  -0.00432721  0.33503952  1
  Te  Te155  1  0.83676788  -0.00240765  0.67158563  1
  Te  Te156  1  0.82925766  0.33474781  -0.00372519  1
  Te  Te157  1  0.83714124  0.33328840  0.33348195  1
  Te  Te158  1  0.83496126  0.33352957  0.66887675  1
  Te  Te159  1  0.83105609  0.66676227  -0.00553228  1
  Te  Te160  1  0.83905902  0.67194934  0.33406098  1
  Te  Te161  1  0.83528096  0.67044313  0.67315896  1
  Te  Te162  1  0.00772859  0.16167639  0.00012494  1
  Te  Te163  1  0.00086992  0.17291808  0.33222707  1
  Te  Te164  1  0.00518747  0.16591833  0.66730233  1
  Te  Te165  1  0.00330295  0.50070119  0.00155991  1
  Te  Te166  1  0.00036875  0.49473681  0.33782199  1
  Te  Te167  1  0.00214095  0.49898497  0.66287067  1
  Te  Te168  1  -0.00115918  0.83493092  0.00368811  1
  Te  Te169  1  -0.00087498  0.83444297  0.33453835  1
  Te  Te170  1  0.00028519  0.83453199  0.66270808  1
  Te  Te171  1  0.33493463  0.16485222  -0.00524876  1
  Te  Te172  1  0.33136626  0.17564545  0.33295615  1
  Te  Te173  1  0.33266565  0.16954541  0.67150690  1
  Te  Te174  1  0.33198039  0.50026668  -0.00196150  1
  Te  Te175  1  0.33253236  0.49559344  0.32717304  1
  Te  Te176  1  0.33213171  0.49879552  0.66851079  1
  Te  Te177  1  0.33473049  0.83563379  -0.00054410  1
  Te  Te178  1  0.33244622  0.83334214  0.33329484  1
  Te  Te179  1  0.34043181  0.83581857  0.66088197  1
  Te  Te180  1  0.66263110  0.16497821  0.00204069  1
  Te  Te181  1  0.66667644  0.16721066  0.32455760  1
  Te  Te182  1  0.66097958  0.17310821  0.66750240  1
  Te  Te183  1  0.66436496  0.49944459  -0.00300452  1
  Te  Te184  1  0.66713625  0.50079490  0.32531804  1
  Te  Te185  1  0.66452391  0.49405724  0.67218240  1
  Te  Te186  1  0.66691171  0.83793694  0.00064778  1
  Te  Te187  1  0.67959937  0.83248508  0.33229163  1
  Te  Te188  1  0.66445347  0.83459052  0.66781352  1
  Te  Te189  1  -0.00118888  -0.00443034  0.16657444  1
  Te  Te190  1  0.00079823  -0.00180842  0.50294897  1
  Te  Te191  1  0.00176071  0.00013811  0.83312041  1
  Te  Te192  1  -0.00076748  0.33325593  0.16917211  1
  Te  Te193  1  -0.00031063  0.33254859  0.50224796  1
  Te  Te194  1  -0.00892585  0.33245437  0.82880630  1
  Te  Te195  1  0.00054639  0.67370695  0.17412125  1
  Te  Te196  1  -0.00075633  0.66679827  0.50306601  1
  Te  Te197  1  0.00173776  0.66688113  0.82728603  1
  Te  Te198  1  0.33636489  -0.00315443  0.16340586  1
  Te  Te199  1  0.33277259  -0.00265065  0.49839024  1
  Te  Te200  1  0.32814671  0.00070581  0.83871500  1
  Te  Te201  1  0.33864397  0.33604883  0.16570659  1
  Te  Te202  1  0.33276319  0.33807406  0.50160501  1
  Te  Te203  1  0.33389920  0.33659841  0.82844018  1
  Te  Te204  1  0.33370075  0.66678225  0.16885343  1
  Te  Te205  1  0.33224442  0.66662355  0.50030969  1
  Te  Te206  1  0.33184670  0.66151764  0.83325924  1
  Te  Te207  1  0.66489935  0.00091660  0.16253906  1
  Te  Te208  1  0.66149313  0.00096291  0.50038420  1
  Te  Te209  1  0.67320519  0.00304469  0.84015912  1
  Te  Te210  1  0.66333842  0.33388012  0.16454815  1
  Te  Te211  1  0.67157890  0.33365046  0.50210786  1
  Te  Te212  1  0.66893136  0.33729169  0.83475258  1
  Te  Te213  1  0.66694407  0.65892550  0.16001993  1
  Te  Te214  1  0.66118783  0.66472675  0.49820656  1
  Te  Te215  1  0.66760179  0.66076012  0.83787127  1
