# generated using pymatgen
data_AgSbTe2
_symmetry_space_group_name_H-M   'P 1'
_cell_length_a   18.33620724
_cell_length_b   18.33683620
_cell_length_c   18.33674461
_cell_angle_alpha   90.00110645
_cell_angle_beta   89.99872409
_cell_angle_gamma   89.99733844
_symmetry_Int_Tables_number   1
_chemical_formula_structural   AgSbTe2
_chemical_formula_sum   'Ag54 Sb54 Te108'
_cell_volume   6165.32748290
_cell_formula_units_Z   54
loop_
 _symmetry_equiv_pos_site_id
 _symmetry_equiv_pos_as_xyz
  1  'x, y, z'
loop_
 _atom_site_type_symbol
 _atom_site_label
 _atom_site_symmetry_multiplicity
 _atom_site_fract_x
 _atom_site_fract_y
 _atom_site_fract_z
 _atom_site_occupancy
  Ag  Ag0  1  0.82833085  0.32650944  0.83411000  1
  Ag  Ag1  1  0.16815885  0.66908575  0.49458706  1
  Ag  Ag2  1  0.83167052  0.83118293  0.67780737  1
  Ag  Ag3  1  0.50219664  0.66462659  0.49623901  1
  Ag  Ag4  1  0.67479067  0.67581062  0.00526807  1
  Ag  Ag5  1  0.33506250  -0.00517667  -0.00663343  1
  Ag  Ag6  1  0.16466054  -0.00515846  0.83712099  1
  Ag  Ag7  1  0.82894927  -0.00630413  0.83471561  1
  Ag  Ag8  1  -0.01443445  0.67222816  -0.00586193  1
  Ag  Ag9  1  0.83043210  0.66845790  0.15564447  1
  Ag  Ag10  1  -0.00450095  -0.00394127  0.67340182  1
  Ag  Ag11  1  0.49686085  0.50071758  0.33706242  1
  Ag  Ag12  1  0.67101817  0.15243489  0.83680200  1
  Ag  Ag13  1  0.16580129  0.83129469  0.32990681  1
  Ag  Ag14  1  0.50684990  0.32608090  0.82805881  1
  Ag  Ag15  1  0.33682117  0.15905919  0.17125684  1
  Ag  Ag16  1  0.83277597  0.82974336  -0.01028138  1
  Ag  Ag17  1  0.33485161  0.67755951  0.00763744  1
  Ag  Ag18  1  0.66855126  -0.00505908  0.67846852  1
  Ag  Ag19  1  0.49957042  0.33355728  0.49859449  1
  Ag  Ag20  1  0.33711482  0.50530642  0.49424102  1
  Ag  Ag21  1  0.83273619  0.51460438  0.67169190  1
  Ag  Ag22  1  0.33947507  -0.00257270  0.67616899  1
  Ag  Ag23  1  -0.00737361  0.16239641  0.50310899  1
  Ag  Ag24  1  0.17262526  0.83462849  0.00131033  1
  Ag  Ag25  1  0.51342994  -0.00093139  0.83103307  1
  Ag  Ag26  1  0.83074783  0.51541581  -0.00199000  1
  Ag  Ag27  1  0.66964778  0.83691642  0.50631188  1
  Ag  Ag28  1  0.17014527  -0.00237686  0.16440668  1
  Ag  Ag29  1  0.83233022  0.67964273  0.84344888  1
  Ag  Ag30  1  -0.01181799  0.83707620  0.83257020  1
  Ag  Ag31  1  0.82690451  0.51098704  0.33200025  1
  Ag  Ag32  1  0.32865048  0.83726364  0.15767646  1
  Ag  Ag33  1  0.66476049  0.15723097  0.49651190  1
  Ag  Ag34  1  -0.00626569  -0.00250372  0.33777670  1
  Ag  Ag35  1  0.66794690  -0.00494008  -0.00982276  1
  Ag  Ag36  1  0.67500857  0.67154081  0.33187415  1
  Ag  Ag37  1  0.83159285  0.66960094  0.49933529  1
  Ag  Ag38  1  0.67029004  0.50740024  0.17009034  1
  Ag  Ag39  1  0.67607291  0.84046200  0.82761388  1
  Ag  Ag40  1  -0.01241859  0.15405170  0.83131309  1
  Ag  Ag41  1  -0.00779449  0.67621905  0.66904531  1
  Ag  Ag42  1  0.17017715  0.32666635  0.16901953  1
  Ag  Ag43  1  0.17576082  0.51068371  0.33315969  1
  Ag  Ag44  1  0.66951798  -0.00766348  0.33324511  1
  Ag  Ag45  1  0.34073969  0.16725119  0.49025623  1
  Ag  Ag46  1  0.50069309  0.16817884  0.33730854  1
  Ag  Ag47  1  0.33939005  0.66551744  0.33496876  1
  Ag  Ag48  1  0.33455152  0.83791899  0.83918659  1
  Ag  Ag49  1  0.66443084  0.16395020  0.16705076  1
  Ag  Ag50  1  0.83032932  0.15738520  -0.00700340  1
  Ag  Ag51  1  0.51317766  0.83478693  0.66805597  1
  Ag  Ag52  1  0.83196042  0.82923224  0.33279133  1
  Ag  Ag53  1  0.33610219  0.34087826  0.33479057  1
  Sb  Sb54  1  0.33410102  0.33028579  0.00505783  1
  Sb  Sb55  1  0.67471781  0.67449420  0.66300887  1
  Sb  Sb56  1  0.66410142  0.50786092  0.49429727  1
  Sb  Sb57  1  0.00199503  0.83405667  0.16203938  1
  Sb  Sb58  1  0.33792688  0.15680488  0.83566593  1
  Sb  Sb59  1  -0.00511786  0.67248851  0.33411602  1
  Sb  Sb60  1  0.33628538  -0.00305928  0.33192249  1
  Sb  Sb61  1  0.49857365  -0.00010024  0.16293674  1
  Sb  Sb62  1  0.50543623  0.16460727  0.00082533  1
  Sb  Sb63  1  0.83403599  0.33736868  0.16332880  1
  Sb  Sb64  1  0.50392879  0.66753760  0.17249477  1
  Sb  Sb65  1  0.66571021  0.83458733  0.16487851  1
  Sb  Sb66  1  0.33032391  0.67363626  0.66310694  1
  Sb  Sb67  1  0.50660269  0.67319041  0.82917335  1
  Sb  Sb68  1  0.83233460  0.15930905  0.67286051  1
  Sb  Sb69  1  0.66131476  0.33545364  0.33412407  1
  Sb  Sb70  1  0.49797924  0.33165350  0.17047965  1
  Sb  Sb71  1  0.16273866  0.51063281  0.00683320  1
  Sb  Sb72  1  0.50187485  0.15891185  0.66308168  1
  Sb  Sb73  1  0.66847677  0.33051817  -0.00118470  1
  Sb  Sb74  1  0.00409892  0.32889554  0.33462107  1
  Sb  Sb75  1  0.33652242  0.50254334  0.17333902  1
  Sb  Sb76  1  0.33547450  0.50632626  0.82891787  1
  Sb  Sb77  1  0.33691343  0.83338151  0.50053403  1
  Sb  Sb78  1  -0.00251048  0.33609284  -0.00134918  1
  Sb  Sb79  1  0.82696999  0.33683633  0.50355006  1
  Sb  Sb80  1  -0.00600677  0.83510069  0.50353875  1
  Sb  Sb81  1  -0.00308864  -0.00702084  -0.00629230  1
  Sb  Sb82  1  0.50608324  0.50239390  0.00522104  1
  Sb  Sb83  1  0.16564637  -0.00401646  0.49888312  1
  Sb  Sb84  1  0.17158476  0.16225335  0.33236733  1
  Sb  Sb85  1  0.50259310  -0.00034106  0.50440182  1
  Sb  Sb86  1  -0.00508788  0.50564293  0.83270196  1
  Sb  Sb87  1  0.50251700  0.83219459  0.33826846  1
  Sb  Sb88  1  0.82691582  0.16426435  0.33107382  1
  Sb  Sb89  1  0.16478769  0.67082165  0.17171494  1
  Sb  Sb90  1  0.17356533  0.33673062  0.49313476  1
  Sb  Sb91  1  0.16276276  0.83528440  0.66797423  1
  Sb  Sb92  1  0.16609104  0.32453326  0.83958164  1
  Sb  Sb93  1  0.50110760  0.83374763  -0.00622071  1
  Sb  Sb94  1  0.33622841  0.32691794  0.66095812  1
  Sb  Sb95  1  0.16117847  0.67478572  0.83268260  1
  Sb  Sb96  1  0.83414194  -0.00523338  0.16216914  1
  Sb  Sb97  1  -0.00232610  0.16232143  0.16502939  1
  Sb  Sb98  1  0.16595630  0.16287974  0.66571379  1
  Sb  Sb99  1  0.83084164  -0.00528319  0.50498356  1
  Sb  Sb100  1  0.16295707  0.15552007  0.00177677  1
  Sb  Sb101  1  0.67034476  0.50381575  0.83668799  1
  Sb  Sb102  1  0.00063853  0.50017399  0.49821240  1
  Sb  Sb103  1  0.16239237  0.50453883  0.66088998  1
  Sb  Sb104  1  0.50628935  0.50588614  0.66149632  1
  Sb  Sb105  1  -0.00393043  0.33059390  0.66801751  1
  Sb  Sb106  1  -0.00497896  0.50306164  0.16845849  1
  Sb  Sb107  1  0.66710342  0.32596365  0.66759751  1
  Te  Te108  1  0.16915712  0.16321146  0.16653893  1
  Te  Te109  1  0.16864019  0.16779264  0.49854057  1
  Te  Te110  1  0.16366618  0.15945450  0.83412704  1
  Te  Te111  1  0.16717200  0.49944230  0.17273503  1
  Te  Te112  1  0.17090839  0.50431822  0.49344644  1
  Te  Te113  1  0.16645474  0.49622222  0.83489023  1
  Te  Te114  1  0.16819387  0.83603788  0.16694149  1
  Te  Te115  1  0.16563926  0.82862708  0.49475668  1
  Te  Te116  1  0.17334434  0.83596916  0.83602443  1
  Te  Te117  1  0.50030206  0.16722838  0.17118115  1
  Te  Te118  1  0.50117651  0.16696317  0.49840881  1
  Te  Te119  1  0.50485607  0.16483512  0.83237289  1
  Te  Te120  1  0.50815453  0.49852134  0.17395181  1
  Te  Te121  1  0.49797623  0.50082653  0.49705140  1
  Te  Te122  1  0.50108225  0.49593844  0.83145230  1
  Te  Te123  1  0.48887537  0.83321392  0.16914394  1
  Te  Te124  1  0.50485396  0.82977894  0.50510016  1
  Te  Te125  1  0.49634021  0.83673659  0.82780794  1
  Te  Te126  1  0.82886053  0.16808464  0.16165772  1
  Te  Te127  1  0.83097200  0.16863394  0.50041034  1
  Te  Te128  1  0.83089402  0.16657895  0.83293877  1
  Te  Te129  1  0.82929786  0.50216127  0.16734274  1
  Te  Te130  1  0.83249993  0.50286556  0.49631033  1
  Te  Te131  1  0.83402712  0.49713354  0.83539758  1
  Te  Te132  1  0.83339141  0.82879459  0.17330375  1
  Te  Te133  1  0.82941446  0.83088487  0.49146820  1
  Te  Te134  1  0.83240835  0.83409317  0.83364814  1
  Te  Te135  1  0.16706889  -0.00686351  0.00178384  1
  Te  Te136  1  0.16722646  -0.00552178  0.33105885  1
  Te  Te137  1  0.16098727  -0.00060912  0.66959818  1
  Te  Te138  1  0.16636268  0.33631644  0.00687886  1
  Te  Te139  1  0.17190960  0.33470996  0.32911606  1
  Te  Te140  1  0.16620471  0.33533628  0.66860607  1
  Te  Te141  1  0.17546423  0.67403791  0.00078504  1
  Te  Te142  1  0.16128207  0.66885969  0.33515790  1
  Te  Te143  1  0.15864018  0.66686416  0.66086965  1
  Te  Te144  1  0.50166078  0.00056236  -0.00670659  1
  Te  Te145  1  0.50549986  0.00417902  0.33319726  1
  Te  Te146  1  0.50194197  -0.00539487  0.67073775  1
  Te  Te147  1  0.49933181  0.33395749  -0.00916643  1
  Te  Te148  1  0.49520733  0.33282488  0.33650467  1
  Te  Te149  1  0.50024643  0.33644815  0.66623170  1
  Te  Te150  1  0.49384075  0.66508290  -0.00091230  1
  Te  Te151  1  0.49895770  0.66514703  0.33690004  1
  Te  Te152  1  0.49935574  0.67285056  0.66037002  1
  Te  Te153  1  0.83066947  -0.00250648  -0.00215639  1
  Te  Te154  1  0.83196369  -0.00177659  0.33184605  1
  Te  Te155  1  0.83248102  -0.00558045  0.67058474  1
  Te  Te156  1  0.83409141  0.33141355  -0.00475685  1
  Te  Te157  1  0.83484872  0.33944340  0.33334320  1
  Te  Te158  1  0.83267294  0.34155921  0.67230064  1
  Te  Te159  1  0.82995750  0.67060366  -0.00042490  1
  Te  Te160  1  0.83461607  0.66714550  0.33907100  1
  Te  Te161  1  0.83377285  0.67038170  0.66198289  1
  Te  Te162  1  -0.00570163  0.16690896  -0.00396411  1
  Te  Te163  1  -0.00162004  0.16099050  0.33661765  1
  Te  Te164  1  -0.00082838  0.16161025  0.66633948  1
  Te  Te165  1  -0.00599965  0.50838987  0.00022416  1
  Te  Te166  1  -0.00030012  0.49793188  0.33406716  1
  Te  Te167  1  -0.00635069  0.50313286  0.66544313  1
  Te  Te168  1  -0.00371126  0.83040482  -0.00399138  1
  Te  Te169  1  0.00088218  0.83828574  0.33400034  1
  Te  Te170  1  -0.00359431  0.83584713  0.66918356  1
  Te  Te171  1  0.33266872  0.16183465  0.00661738  1
  Te  Te172  1  0.33623057  0.16393554  0.33163023  1
  Te  Te173  1  0.33379115  0.15870034  0.66452711  1
  Te  Te174  1  0.33346075  0.50255668  0.00015622  1
  Te  Te175  1  0.33496685  0.50297314  0.33491463  1
  Te  Te176  1  0.33300812  0.49990577  0.65893608  1
  Te  Te177  1  0.33656585  0.83541198  -0.00051233  1
  Te  Te178  1  0.33176996  0.82872267  0.33467755  1
  Te  Te179  1  0.33075470  0.83882709  0.66865135  1
  Te  Te180  1  0.67002846  0.16372576  -0.00133630  1
  Te  Te181  1  0.66374963  0.16858194  0.33418785  1
  Te  Te182  1  0.66675989  0.15771080  0.66557189  1
  Te  Te183  1  0.67093136  0.50332751  0.00519893  1
  Te  Te184  1  0.66683876  0.50254467  0.33079866  1
  Te  Te185  1  0.67355013  0.49952063  0.66551182  1
  Te  Te186  1  0.66747402  0.83449448  0.00049672  1
  Te  Te187  1  0.66715746  0.83126113  0.33167307  1
  Te  Te188  1  0.67101393  0.83498167  0.66655896  1
  Te  Te189  1  0.00567173  0.00070836  0.17438286  1
  Te  Te190  1  -0.00087073  0.00358785  0.49993517  1
  Te  Te191  1  -0.00035265  -0.00236230  0.83384494  1
  Te  Te192  1  0.00797818  0.33165079  0.16695783  1
  Te  Te193  1  0.00065199  0.32421005  0.50076712  1
  Te  Te194  1  -0.00218507  0.32648177  0.83323308  1
  Te  Te195  1  -0.00665872  0.66728438  0.15983988  1
  Te  Te196  1  -0.00322393  0.66643408  0.50375114  1
  Te  Te197  1  -0.00408278  0.67164774  0.83236337  1
  Te  Te198  1  0.33224906  -0.00059218  0.16558957  1
  Te  Te199  1  0.33360711  0.00509930  0.50399962  1
  Te  Te200  1  0.32608019  -0.00103015  0.83442162  1
  Te  Te201  1  0.33089856  0.33116786  0.17194524  1
  Te  Te202  1  0.33837223  0.32905845  0.49558440  1
  Te  Te203  1  0.33533444  0.33221708  0.83291088  1
  Te  Te204  1  0.33326944  0.66910233  0.16971147  1
  Te  Te205  1  0.33321660  0.66627676  0.49755037  1
  Te  Te206  1  0.33389052  0.67216223  0.83245922  1
  Te  Te207  1  0.66624161  0.00380347  0.17182167  1
  Te  Te208  1  0.66662888  -0.00223589  0.49221967  1
  Te  Te209  1  0.66894811  -0.00266882  0.83425351  1
  Te  Te210  1  0.66629905  0.32610887  0.16628412  1
  Te  Te211  1  0.65986405  0.32574430  0.50141160  1
  Te  Te212  1  0.66671052  0.33355691  0.83334243  1
  Te  Te213  1  0.66931742  0.66793753  0.16825563  1
  Te  Te214  1  0.66687745  0.67081875  0.49615222  1
  Te  Te215  1  0.67077566  0.67073392  0.83894870  1
