# generated using pymatgen
data_AgSbTe2
_symmetry_space_group_name_H-M   'P 1'
_cell_length_a   18.32797180
_cell_length_b   18.32074469
_cell_length_c   18.31887148
_cell_angle_alpha   90.00230363
_cell_angle_beta   89.99952947
_cell_angle_gamma   89.99863752
_symmetry_Int_Tables_number   1
_chemical_formula_structural   AgSbTe2
_chemical_formula_sum   'Ag54 Sb54 Te108'
_cell_volume   6151.14898248
_cell_formula_units_Z   54
loop_
 _symmetry_equiv_pos_site_id
 _symmetry_equiv_pos_as_xyz
  1  'x, y, z'
loop_
 _atom_site_type_symbol
 _atom_site_label
 _atom_site_symmetry_multiplicity
 _atom_site_fract_x
 _atom_site_fract_y
 _atom_site_fract_z
 _atom_site_occupancy
  Ag  Ag0  1  0.67290822  0.50175386  0.83362996  1
  Ag  Ag1  1  0.67490286  0.33941601  -0.00352982  1
  Ag  Ag2  1  -0.00348383  0.82684673  0.82770877  1
  Ag  Ag3  1  -0.00558688  0.67083985  0.67325354  1
  Ag  Ag4  1  0.66506430  -0.00034769  0.33736206  1
  Ag  Ag5  1  0.83388868  -0.00516967  0.83770735  1
  Ag  Ag6  1  0.83453207  0.67198865  0.15826496  1
  Ag  Ag7  1  0.66738379  0.33953261  0.67109152  1
  Ag  Ag8  1  0.16927798  0.16774231  0.65472833  1
  Ag  Ag9  1  0.16149321  0.16642283  0.00661249  1
  Ag  Ag10  1  0.49034152  0.17192033  0.65857366  1
  Ag  Ag11  1  0.33559263  0.66976010  -0.00096569  1
  Ag  Ag12  1  0.83774410  0.33137662  0.15975342  1
  Ag  Ag13  1  0.83661809  0.82814752  0.00063410  1
  Ag  Ag14  1  0.00640245  0.17039814  0.16559853  1
  Ag  Ag15  1  0.67105431  0.83543643  0.50146776  1
  Ag  Ag16  1  -0.01024708  0.66662272  -0.00658691  1
  Ag  Ag17  1  0.33187768  0.83342142  0.16732673  1
  Ag  Ag18  1  0.83321606  0.83700917  0.33823351  1
  Ag  Ag19  1  0.32452544  0.16030293  0.49441894  1
  Ag  Ag20  1  0.16874019  0.32765701  0.16866034  1
  Ag  Ag21  1  0.15946279  0.83490700  0.66202139  1
  Ag  Ag22  1  0.84158474  0.82855765  0.66461410  1
  Ag  Ag23  1  0.16674054  0.32216092  0.49904027  1
  Ag  Ag24  1  0.66951392  0.66310905  0.67300150  1
  Ag  Ag25  1  0.49500189  0.49491159  0.33183451  1
  Ag  Ag26  1  0.17135765  0.16932178  0.34067734  1
  Ag  Ag27  1  0.49358729  -0.00300219  0.49784268  1
  Ag  Ag28  1  0.16314898  0.83415557  -0.00200403  1
  Ag  Ag29  1  -0.00780023  0.50463271  0.83360601  1
  Ag  Ag30  1  0.00115564  0.33629253  0.67167372  1
  Ag  Ag31  1  0.49532739  0.33224556  0.16350748  1
  Ag  Ag32  1  -0.00270756  0.83892342  0.50920192  1
  Ag  Ag33  1  0.33255820  0.49398975  0.16748025  1
  Ag  Ag34  1  0.49035369  0.16664032  0.33866645  1
  Ag  Ag35  1  0.33120728  0.33214963  0.66601550  1
  Ag  Ag36  1  0.83408302  0.50246326  -0.00421403  1
  Ag  Ag37  1  0.33271457  0.84117427  0.49892408  1
  Ag  Ag38  1  0.16844885  0.00787238  0.49948074  1
  Ag  Ag39  1  0.83408292  0.50562852  0.67543661  1
  Ag  Ag40  1  0.17297400  0.49020309  0.33197017  1
  Ag  Ag41  1  0.32592483  0.16944008  0.17435562  1
  Ag  Ag42  1  -0.00615192  0.33348425  -0.00183588  1
  Ag  Ag43  1  0.49808860  0.67579083  0.50763150  1
  Ag  Ag44  1  0.01093789  0.16107224  0.50002128  1
  Ag  Ag45  1  0.50203949  0.66376225  0.82992808  1
  Ag  Ag46  1  0.83998384  0.17472904  0.00437836  1
  Ag  Ag47  1  0.50370764  0.33878755  0.83431457  1
  Ag  Ag48  1  0.83499800  -0.00424866  0.49823577  1
  Ag  Ag49  1  0.49951461  0.82826081  -0.00106321  1
  Ag  Ag50  1  0.67331264  0.66339811  -0.00658575  1
  Ag  Ag51  1  0.33679573  0.00315232  0.33711000  1
  Ag  Ag52  1  0.33689489  0.66528423  0.66740172  1
  Ag  Ag53  1  0.83353706  -0.00333120  0.16571109  1
  Sb  Sb54  1  0.66499324  0.16143121  0.50068404  1
  Sb  Sb55  1  0.33314079  -0.00000893  0.65917805  1
  Sb  Sb56  1  0.66856648  0.16812029  0.16655850  1
  Sb  Sb57  1  -0.00118310  0.66829219  0.33406753  1
  Sb  Sb58  1  0.49893340  0.83150549  0.66630458  1
  Sb  Sb59  1  0.83624534  0.15997092  0.32829394  1
  Sb  Sb60  1  0.16995218  0.67031705  0.50231042  1
  Sb  Sb61  1  0.16134998  -0.00146768  0.82876575  1
  Sb  Sb62  1  0.66830387  -0.00388039  0.66121825  1
  Sb  Sb63  1  0.67080923  -0.00218014  0.00366521  1
  Sb  Sb64  1  0.33263978  -0.00473275  0.00860369  1
  Sb  Sb65  1  0.83269282  0.50338552  0.32959361  1
  Sb  Sb66  1  0.50111351  0.66464545  0.16438763  1
  Sb  Sb67  1  0.50216889  0.00359339  0.17248410  1
  Sb  Sb68  1  0.49534070  0.33002199  0.50174319  1
  Sb  Sb69  1  0.16467307  0.83743272  0.33594161  1
  Sb  Sb70  1  0.33409111  0.50128768  0.83622429  1
  Sb  Sb71  1  0.33209806  0.32692921  0.33436834  1
  Sb  Sb72  1  0.00275591  0.33194658  0.33105290  1
  Sb  Sb73  1  0.50437232  0.50349229  0.00208787  1
  Sb  Sb74  1  0.66592437  0.50535730  0.50622197  1
  Sb  Sb75  1  0.50318695  0.49795402  0.66484405  1
  Sb  Sb76  1  0.00216134  0.49470643  0.16026046  1
  Sb  Sb77  1  0.33306956  0.49856844  0.49622353  1
  Sb  Sb78  1  0.50582840  -0.00137514  0.82792288  1
  Sb  Sb79  1  0.83875487  0.32711856  0.49969751  1
  Sb  Sb80  1  0.16770085  0.33206281  0.83305962  1
  Sb  Sb81  1  0.16645435  0.66771140  0.83338492  1
  Sb  Sb82  1  0.00080698  0.50081147  0.50666008  1
  Sb  Sb83  1  0.49956586  0.16643858  0.00248110  1
  Sb  Sb84  1  -0.00147498  0.16836240  0.83327838  1
  Sb  Sb85  1  0.00045906  0.83659593  0.16401052  1
  Sb  Sb86  1  0.83058788  0.33346874  0.83791464  1
  Sb  Sb87  1  0.66720892  0.83212924  0.16807344  1
  Sb  Sb88  1  0.50177868  0.83553633  0.33360923  1
  Sb  Sb89  1  0.67239964  0.82677626  0.82989103  1
  Sb  Sb90  1  0.16372426  0.00663859  0.17175109  1
  Sb  Sb91  1  0.66446144  0.32925101  0.33368768  1
  Sb  Sb92  1  0.16187203  0.49985775  0.00329060  1
  Sb  Sb93  1  0.83665137  0.16609360  0.66943615  1
  Sb  Sb94  1  -0.00075463  -0.00270513  0.66464721  1
  Sb  Sb95  1  0.33246140  0.33553601  0.00077050  1
  Sb  Sb96  1  0.66513662  0.49905019  0.16123188  1
  Sb  Sb97  1  0.66804766  0.17353599  0.83230090  1
  Sb  Sb98  1  -0.00054912  0.00076956  0.33629030  1
  Sb  Sb99  1  0.83172077  0.66858281  0.83781214  1
  Sb  Sb100  1  0.33455257  0.66979165  0.33357874  1
  Sb  Sb101  1  -0.00197797  0.00057863  0.00040150  1
  Sb  Sb102  1  0.16449348  0.66441385  0.16426709  1
  Sb  Sb103  1  0.33306713  0.16831554  0.82989672  1
  Sb  Sb104  1  0.32936155  0.83121948  0.83234418  1
  Sb  Sb105  1  0.16273939  0.49853864  0.66221047  1
  Sb  Sb106  1  0.83053648  0.67499817  0.50294103  1
  Sb  Sb107  1  0.66590711  0.67009789  0.33515870  1
  Te  Te108  1  0.16652336  0.16733730  0.16461629  1
  Te  Te109  1  0.16737505  0.16586592  0.49857010  1
  Te  Te110  1  0.16580560  0.16425987  0.84082284  1
  Te  Te111  1  0.17071684  0.49486832  0.17060818  1
  Te  Te112  1  0.16667762  0.49428942  0.49350852  1
  Te  Te113  1  0.16049850  0.49927132  0.83298216  1
  Te  Te114  1  0.17038429  0.83588400  0.16612003  1
  Te  Te115  1  0.16940906  0.83550204  0.50098409  1
  Te  Te116  1  0.15978698  0.83464890  0.83318199  1
  Te  Te117  1  0.49547683  0.17073229  0.16915876  1
  Te  Te118  1  0.49898282  0.16434702  0.49946593  1
  Te  Te119  1  0.50038591  0.16814185  0.82927209  1
  Te  Te120  1  0.49529630  0.49647549  0.16955693  1
  Te  Te121  1  0.49949464  0.50170559  0.49324435  1
  Te  Te122  1  0.50166844  0.50001342  0.83324994  1
  Te  Te123  1  0.49499252  0.83435015  0.16246056  1
  Te  Te124  1  0.49520659  0.83476093  0.49965152  1
  Te  Te125  1  0.50097003  0.83051536  0.83744915  1
  Te  Te126  1  0.83517547  0.16903034  0.16384847  1
  Te  Te127  1  0.83671871  0.15884263  0.49861056  1
  Te  Te128  1  0.83427052  0.15688922  0.83962664  1
  Te  Te129  1  0.83376485  0.49597147  0.16394772  1
  Te  Te130  1  0.83365852  0.49907081  0.49979364  1
  Te  Te131  1  0.83292638  0.49845521  0.83370455  1
  Te  Te132  1  0.83456659  0.83463774  0.16275057  1
  Te  Te133  1  0.83462053  0.83495508  0.50216212  1
  Te  Te134  1  0.83620401  0.83478753  0.83299842  1
  Te  Te135  1  0.16611959  -0.00256933  -0.00079949  1
  Te  Te136  1  0.17093069  0.00439405  0.33855055  1
  Te  Te137  1  0.16711135  0.00097346  0.66160992  1
  Te  Te138  1  0.16427460  0.33144577  0.00159608  1
  Te  Te139  1  0.16652243  0.33103241  0.33155098  1
  Te  Te140  1  0.16562725  0.33125237  0.66692920  1
  Te  Te141  1  0.17030633  0.67139131  0.00013789  1
  Te  Te142  1  0.16568007  0.66061247  0.33336938  1
  Te  Te143  1  0.16782864  0.66973463  0.66664523  1
  Te  Te144  1  0.50220172  -0.00697052  -0.00142853  1
  Te  Te145  1  0.50044734  0.00226435  0.33742522  1
  Te  Te146  1  0.50112325  0.00727347  0.66108347  1
  Te  Te147  1  0.50133181  0.33304156  -0.00032756  1
  Te  Te148  1  0.50060323  0.33209474  0.33010887  1
  Te  Te149  1  0.50099656  0.33209987  0.66715084  1
  Te  Te150  1  0.49881633  0.66875469  -0.00088103  1
  Te  Te151  1  0.50110468  0.66346237  0.33662715  1
  Te  Te152  1  0.50013213  0.66559364  0.66701426  1
  Te  Te153  1  0.83201578  -0.00459283  0.00331809  1
  Te  Te154  1  0.83124298  -0.00349481  0.33464554  1
  Te  Te155  1  0.83213669  -0.00367418  0.66262699  1
  Te  Te156  1  0.83365407  0.33357211  -0.00005841  1
  Te  Te157  1  0.83211683  0.33363587  0.32523425  1
  Te  Te158  1  0.83451555  0.33507235  0.66629410  1
  Te  Te159  1  0.83323047  0.66573105  -0.00013715  1
  Te  Te160  1  0.83236278  0.67252653  0.32446269  1
  Te  Te161  1  0.83312713  0.66668777  0.66632693  1
  Te  Te162  1  -0.00049378  0.16958468  0.00015121  1
  Te  Te163  1  0.00469860  0.16734645  0.33433121  1
  Te  Te164  1  0.00343664  0.17249801  0.66540773  1
  Te  Te165  1  -0.00365046  0.50177175  -0.00456924  1
  Te  Te166  1  0.00340129  0.50077156  0.33360437  1
  Te  Te167  1  -0.00433335  0.50033492  0.67129022  1
  Te  Te168  1  0.00019998  0.83114854  0.00039873  1
  Te  Te169  1  -0.00484712  0.83302648  0.33826499  1
  Te  Te170  1  0.00125751  0.83237536  0.66659113  1
  Te  Te171  1  0.33028748  0.16569373  0.00316592  1
  Te  Te172  1  0.33291410  0.16577764  0.33399630  1
  Te  Te173  1  0.33060498  0.16875801  0.66467480  1
  Te  Te174  1  0.33156357  0.50549356  0.00494336  1
  Te  Te175  1  0.33399127  0.50190030  0.32881606  1
  Te  Te176  1  0.33187848  0.50345239  0.66725948  1
  Te  Te177  1  0.32934234  0.83039288  -0.00022713  1
  Te  Te178  1  0.33302743  0.83760139  0.33423286  1
  Te  Te179  1  0.33066251  0.82926250  0.66430062  1
  Te  Te180  1  0.66937621  0.17164696  -0.00033275  1
  Te  Te181  1  0.66104878  0.16132752  0.33393281  1
  Te  Te182  1  0.66688151  0.17317120  0.66652614  1
  Te  Te183  1  0.67047583  0.50033060  -0.00409789  1
  Te  Te184  1  0.66212158  0.49991294  0.33411019  1
  Te  Te185  1  0.67019422  0.50156018  0.67107190  1
  Te  Te186  1  0.67020547  0.82957298  -0.00044347  1
  Te  Te187  1  0.67029308  0.83700985  0.33743048  1
  Te  Te188  1  0.66771166  0.82843360  0.66226857  1
  Te  Te189  1  -0.00668876  0.00709653  0.16812428  1
  Te  Te190  1  0.00072515  -0.00008038  0.49983809  1
  Te  Te191  1  -0.00595222  -0.00766537  0.83293563  1
  Te  Te192  1  0.00110198  0.33010279  0.16281041  1
  Te  Te193  1  0.00400408  0.33041161  0.50379115  1
  Te  Te194  1  0.00015049  0.33639399  0.83381042  1
  Te  Te195  1  -0.00397078  0.66674790  0.16182896  1
  Te  Te196  1  0.00035790  0.67069722  0.50546580  1
  Te  Te197  1  0.00118289  0.66626588  0.83365155  1
  Te  Te198  1  0.33387025  0.00125833  0.17443101  1
  Te  Te199  1  0.33350872  0.00097375  0.49826762  1
  Te  Te200  1  0.33585566  -0.00032418  0.83444923  1
  Te  Te201  1  0.33285761  0.33251278  0.16550045  1
  Te  Te202  1  0.32911134  0.33015263  0.50677342  1
  Te  Te203  1  0.34083849  0.33513631  0.82732730  1
  Te  Te204  1  0.33299141  0.67155875  0.16376148  1
  Te  Te205  1  0.33719242  0.66823953  0.50263628  1
  Te  Te206  1  0.33984571  0.66567906  0.83289038  1
  Te  Te207  1  0.67196744  0.00004790  0.17363119  1
  Te  Te208  1  0.66861053  -0.00475366  0.49666670  1
  Te  Te209  1  0.67346846  -0.00040074  0.83332562  1
  Te  Te210  1  0.66396258  0.33375901  0.16330663  1
  Te  Te211  1  0.66870501  0.33473760  0.50642589  1
  Te  Te212  1  0.66392064  0.33889981  0.83286950  1
  Te  Te213  1  0.67173103  0.66629009  0.16067950  1
  Te  Te214  1  0.66159347  0.67256936  0.50342581  1
  Te  Te215  1  0.66214495  0.66269748  0.83344839  1
