# generated using pymatgen
data_AgSbTe2
_symmetry_space_group_name_H-M   'P 1'
_cell_length_a   18.33253843
_cell_length_b   18.33779096
_cell_length_c   18.32719294
_cell_angle_alpha   89.99822742
_cell_angle_beta   89.99946010
_cell_angle_gamma   90.00120817
_symmetry_Int_Tables_number   1
_chemical_formula_structural   AgSbTe2
_chemical_formula_sum   'Ag54 Sb54 Te108'
_cell_volume   6161.20378511
_cell_formula_units_Z   54
loop_
 _symmetry_equiv_pos_site_id
 _symmetry_equiv_pos_as_xyz
  1  'x, y, z'
loop_
 _atom_site_type_symbol
 _atom_site_label
 _atom_site_symmetry_multiplicity
 _atom_site_fract_x
 _atom_site_fract_y
 _atom_site_fract_z
 _atom_site_occupancy
  Ag  Ag0  1  0.16925899  0.49620250  0.66593092  1
  Ag  Ag1  1  0.33069820  0.83575812  0.50591392  1
  Ag  Ag2  1  0.17141694  0.16513748  0.66966652  1
  Ag  Ag3  1  0.17381271  0.67445781  0.16735184  1
  Ag  Ag4  1  0.65495165  0.83193819  0.16900657  1
  Ag  Ag5  1  0.83887649  0.16813130  0.67279503  1
  Ag  Ag6  1  0.33096901  0.83031853  0.15753337  1
  Ag  Ag7  1  0.01210299  0.83316192  0.17150290  1
  Ag  Ag8  1  0.00332157  0.83379920  0.82918158  1
  Ag  Ag9  1  0.17195300  0.33501214  0.16445143  1
  Ag  Ag10  1  0.48943392  0.16260513  0.67206219  1
  Ag  Ag11  1  0.00676406  0.33020853  0.66736743  1
  Ag  Ag12  1  0.49611060  0.67714396  0.83803152  1
  Ag  Ag13  1  0.16321701  0.32992322  0.82595418  1
  Ag  Ag14  1  0.17427783  0.83696660  0.00357091  1
  Ag  Ag15  1  0.00231115  0.16036004  0.50235835  1
  Ag  Ag16  1  0.00066147  0.67576726  0.33141947  1
  Ag  Ag17  1  0.66393033  0.51161473  0.50130853  1
  Ag  Ag18  1  0.16908049  0.49846344  0.33288340  1
  Ag  Ag19  1  0.84206417  0.32437454  0.83110044  1
  Ag  Ag20  1  0.33357323  0.50944516  0.16600873  1
  Ag  Ag21  1  0.00284063  0.33384725  0.33694165  1
  Ag  Ag22  1  0.49247728  0.83447721  -0.00515036  1
  Ag  Ag23  1  0.82972292  0.16480842  -0.00864302  1
  Ag  Ag24  1  0.65767269  0.66727641  0.66142393  1
  Ag  Ag25  1  0.00924073  0.83766396  0.49642395  1
  Ag  Ag26  1  0.32599565  0.32780066  0.66936041  1
  Ag  Ag27  1  0.33667578  0.67559636  -0.00072130  1
  Ag  Ag28  1  0.17260646  0.83950225  0.66997325  1
  Ag  Ag29  1  0.00268455  0.50117814  0.83273061  1
  Ag  Ag30  1  0.83856282  0.00517656  0.83432226  1
  Ag  Ag31  1  0.48950214  -0.00386680  0.83663914  1
  Ag  Ag32  1  0.49878294  0.50835079  0.00400924  1
  Ag  Ag33  1  0.49821590  0.16617730  0.32873064  1
  Ag  Ag34  1  0.33530163  -0.00479343  -0.00738276  1
  Ag  Ag35  1  0.84222080  0.83464404  0.33285624  1
  Ag  Ag36  1  0.00960753  -0.00842569  0.33576718  1
  Ag  Ag37  1  0.49099483  0.50092361  0.32448110  1
  Ag  Ag38  1  0.33643053  0.68093423  0.67322026  1
  Ag  Ag39  1  0.49368948  0.33980205  0.16512329  1
  Ag  Ag40  1  0.66216373  0.33478315  0.66711096  1
  Ag  Ag41  1  0.33398668  0.16301855  0.82951628  1
  Ag  Ag42  1  0.17021620  -0.00902785  0.16639054  1
  Ag  Ag43  1  0.33138382  -0.00187317  0.67413078  1
  Ag  Ag44  1  0.48992756  0.83458009  0.67381338  1
  Ag  Ag45  1  0.49197820  0.66658844  0.16124321  1
  Ag  Ag46  1  0.65300986  -0.00212224  -0.00155063  1
  Ag  Ag47  1  0.17046724  -0.00049719  0.82935241  1
  Ag  Ag48  1  0.66515768  0.66942219  0.33595413  1
  Ag  Ag49  1  0.66171500  0.83117475  0.49817011  1
  Ag  Ag50  1  0.82809986  0.49757386  -0.00278001  1
  Ag  Ag51  1  0.16843486  -0.00391308  0.50358729  1
  Ag  Ag52  1  0.49918811  0.15511999  -0.00431740  1
  Ag  Ag53  1  0.32811751  -0.00251353  0.33176737  1
  Sb  Sb54  1  0.17102344  0.50368976  -0.00014446  1
  Sb  Sb55  1  0.00637064  0.66880969  0.00367721  1
  Sb  Sb56  1  0.83560751  0.49439263  0.67122145  1
  Sb  Sb57  1  0.83303596  0.16161163  0.33445346  1
  Sb  Sb58  1  0.32864271  0.15928860  0.50708828  1
  Sb  Sb59  1  0.66045434  -0.00163617  0.67110926  1
  Sb  Sb60  1  0.66263080  0.16038419  0.16546050  1
  Sb  Sb61  1  0.49709438  0.33043175  0.83573740  1
  Sb  Sb62  1  0.83469701  0.83861443  0.66403317  1
  Sb  Sb63  1  0.83054777  0.66805147  0.83346708  1
  Sb  Sb64  1  0.00276806  0.16323115  0.17118611  1
  Sb  Sb65  1  0.50030036  0.66905920  0.49958759  1
  Sb  Sb66  1  0.16969082  0.16085932  -0.00572575  1
  Sb  Sb67  1  0.33545304  0.50646018  0.49809190  1
  Sb  Sb68  1  0.16547433  0.32869773  0.50444861  1
  Sb  Sb69  1  0.66486497  0.32991300  -0.00422340  1
  Sb  Sb70  1  0.83566639  0.50422671  0.32871585  1
  Sb  Sb71  1  0.66611911  0.83456901  0.83253093  1
  Sb  Sb72  1  0.83860655  -0.00255486  0.16225119  1
  Sb  Sb73  1  0.83984980  -0.00159641  0.50617975  1
  Sb  Sb74  1  0.65626839  0.50714591  0.17008939  1
  Sb  Sb75  1  0.16471148  0.83325844  0.33021642  1
  Sb  Sb76  1  0.49945851  0.33266124  0.49921994  1
  Sb  Sb77  1  0.00112977  0.33312688  -0.00351096  1
  Sb  Sb78  1  0.66384268  0.16588216  0.83157805  1
  Sb  Sb79  1  0.66776086  0.50006257  0.83056585  1
  Sb  Sb80  1  0.83530027  0.33374504  0.16140842  1
  Sb  Sb81  1  0.32807249  0.84086999  0.83452135  1
  Sb  Sb82  1  0.65785962  0.67109529  0.00119758  1
  Sb  Sb83  1  0.00880542  0.50325261  0.16442576  1
  Sb  Sb84  1  0.49326443  -0.00242232  0.50457858  1
  Sb  Sb85  1  0.83135971  0.66857184  0.49983425  1
  Sb  Sb86  1  0.49847209  0.83222329  0.33034184  1
  Sb  Sb87  1  0.33078727  0.33051806  0.33559582  1
  Sb  Sb88  1  0.00198411  0.16526606  0.82818009  1
  Sb  Sb89  1  0.00410918  0.66643723  0.66388306  1
  Sb  Sb90  1  0.66724193  0.33946606  0.33730068  1
  Sb  Sb91  1  -0.00123120  0.50173911  0.50156238  1
  Sb  Sb92  1  0.01020499  0.00366703  0.66342637  1
  Sb  Sb93  1  0.00497651  -0.00147921  0.00017513  1
  Sb  Sb94  1  0.33016501  0.49661176  0.83492461  1
  Sb  Sb95  1  0.66430467  -0.00722609  0.32908139  1
  Sb  Sb96  1  0.83264546  0.66821235  0.16579552  1
  Sb  Sb97  1  0.17010970  0.16595854  0.33741657  1
  Sb  Sb98  1  0.33461522  0.33140768  -0.00179825  1
  Sb  Sb99  1  0.16807567  0.67387907  0.49526059  1
  Sb  Sb100  1  0.49579181  0.50199189  0.66811663  1
  Sb  Sb101  1  0.33296818  0.67163173  0.32854317  1
  Sb  Sb102  1  0.17279099  0.67073865  0.83521947  1
  Sb  Sb103  1  0.66799978  0.16153310  0.50330336  1
  Sb  Sb104  1  0.83486798  0.33229357  0.50721511  1
  Sb  Sb105  1  0.33390001  0.16303786  0.16267361  1
  Sb  Sb106  1  0.49156491  -0.00455146  0.16028747  1
  Sb  Sb107  1  0.83250527  0.83491568  0.00277133  1
  Te  Te108  1  0.16659879  0.17331729  0.16601027  1
  Te  Te109  1  0.16185747  0.16003013  0.50521218  1
  Te  Te110  1  0.16828516  0.16645203  0.83034995  1
  Te  Te111  1  0.17183131  0.49555070  0.16729006  1
  Te  Te112  1  0.16677498  0.50102514  0.49942181  1
  Te  Te113  1  0.16282982  0.49811468  0.83197768  1
  Te  Te114  1  0.16964874  0.83406334  0.16604074  1
  Te  Te115  1  0.16828867  0.83655943  0.50320797  1
  Te  Te116  1  0.16182642  0.83402543  0.83153941  1
  Te  Te117  1  0.49954026  0.16998861  0.16447163  1
  Te  Te118  1  0.50032962  0.16560418  0.50456551  1
  Te  Te119  1  0.49715466  0.16497884  0.83319075  1
  Te  Te120  1  0.49606856  0.50157763  0.16602715  1
  Te  Te121  1  0.50392870  0.49998178  0.49339241  1
  Te  Te122  1  0.49925186  0.49933878  0.83933999  1
  Te  Te123  1  0.49591681  0.83083266  0.16433434  1
  Te  Te124  1  0.49838453  0.83404885  0.50610390  1
  Te  Te125  1  0.50302610  0.83559497  0.83305676  1
  Te  Te126  1  0.83199841  0.16673059  0.16024476  1
  Te  Te127  1  0.83953825  0.16545904  0.50418870  1
  Te  Te128  1  0.83498879  0.16590991  0.83279500  1
  Te  Te129  1  0.83368115  0.49938025  0.15878286  1
  Te  Te130  1  0.82560717  0.49955763  0.49865139  1
  Te  Te131  1  0.83835068  0.50024585  0.83778613  1
  Te  Te132  1  0.83639684  0.83326512  0.17118406  1
  Te  Te133  1  0.83438180  0.83474870  0.49531950  1
  Te  Te134  1  0.84029397  0.83725689  0.83354904  1
  Te  Te135  1  0.17102580  -0.00310167  0.00043705  1
  Te  Te136  1  0.16690691  0.00246275  0.33038812  1
  Te  Te137  1  0.16989033  -0.00107657  0.66814050  1
  Te  Te138  1  0.16709829  0.33290297  0.00114871  1
  Te  Te139  1  0.16466413  0.33460340  0.33337491  1
  Te  Te140  1  0.16609285  0.33295937  0.66627096  1
  Te  Te141  1  0.17367079  0.67188493  0.00470225  1
  Te  Te142  1  0.16538068  0.65967788  0.32879247  1
  Te  Te143  1  0.17073661  0.66598977  0.66639218  1
  Te  Te144  1  0.49640374  -0.00267819  -0.00151571  1
  Te  Te145  1  0.49683052  0.00434517  0.33241047  1
  Te  Te146  1  0.49621481  -0.00013258  0.67143697  1
  Te  Te147  1  0.50040757  0.33341778  0.00418973  1
  Te  Te148  1  0.50087691  0.33414854  0.32865130  1
  Te  Te149  1  0.50173781  0.33205123  0.66795741  1
  Te  Te150  1  0.49730372  0.67002398  -0.00024559  1
  Te  Te151  1  0.50121575  0.66424690  0.32838556  1
  Te  Te152  1  0.49800450  0.66719200  0.66804942  1
  Te  Te153  1  0.83596912  0.00293232  -0.00508277  1
  Te  Te154  1  0.83569711  -0.00361456  0.33347643  1
  Te  Te155  1  0.82963777  0.00673215  0.67345217  1
  Te  Te156  1  0.83256941  0.33165665  -0.00616334  1
  Te  Te157  1  0.83903037  0.33238698  0.33168438  1
  Te  Te158  1  0.83645580  0.32960415  0.67245696  1
  Te  Te159  1  0.83156303  0.66104079  -0.00123870  1
  Te  Te160  1  0.83405181  0.67163268  0.33264875  1
  Te  Te161  1  0.82665047  0.66565767  0.66787294  1
  Te  Te162  1  -0.00642977  0.16619562  0.00152947  1
  Te  Te163  1  -0.00172184  0.16946047  0.33919345  1
  Te  Te164  1  0.00140503  0.16926729  0.66388965  1
  Te  Te165  1  -0.00139298  0.50098553  -0.00529769  1
  Te  Te166  1  0.00321450  0.49713750  0.33329463  1
  Te  Te167  1  0.00385116  0.49766579  0.66932819  1
  Te  Te168  1  0.00120124  0.83226921  0.00328508  1
  Te  Te169  1  0.00171743  0.83366540  0.33344213  1
  Te  Te170  1  0.00244917  0.83235019  0.66386815  1
  Te  Te171  1  0.33755078  0.16216642  -0.00493994  1
  Te  Te172  1  0.33864201  0.16248057  0.33524126  1
  Te  Te173  1  0.33166996  0.16471779  0.66753917  1
  Te  Te174  1  0.33751446  0.50107617  0.00509218  1
  Te  Te175  1  0.33207768  0.49896310  0.33140809  1
  Te  Te176  1  0.32924436  0.49301378  0.66561585  1
  Te  Te177  1  0.33382371  0.83379518  -0.00101077  1
  Te  Te178  1  0.33375799  0.83749168  0.33764120  1
  Te  Te179  1  0.33253923  0.83715251  0.67013100  1
  Te  Te180  1  0.66372762  0.16112436  -0.00082726  1
  Te  Te181  1  0.66046434  0.16669845  0.33445173  1
  Te  Te182  1  0.66550182  0.17030936  0.66463205  1
  Te  Te183  1  0.66358735  0.50006042  0.00062536  1
  Te  Te184  1  0.66771708  0.50597121  0.33774256  1
  Te  Te185  1  0.66572811  0.50049112  0.66285575  1
  Te  Te186  1  0.66621076  0.83686816  0.00390860  1
  Te  Te187  1  0.66555408  0.82996788  0.33307472  1
  Te  Te188  1  0.66716267  0.83027648  0.66279363  1
  Te  Te189  1  0.00619156  -0.00408093  0.17211295  1
  Te  Te190  1  0.00497087  -0.00170862  0.49690219  1
  Te  Te191  1  0.00355597  -0.00473916  0.83241493  1
  Te  Te192  1  0.00396920  0.33370291  0.17022765  1
  Te  Te193  1  -0.00040127  0.33373068  0.50145514  1
  Te  Te194  1  0.00234420  0.33347451  0.83044916  1
  Te  Te195  1  0.00308884  0.67075529  0.17140439  1
  Te  Te196  1  -0.00050907  0.67130648  0.49327482  1
  Te  Te197  1  0.00018641  0.66773413  0.83317839  1
  Te  Te198  1  0.32895838  -0.00287102  0.16885315  1
  Te  Te199  1  0.32807399  -0.00458952  0.49766187  1
  Te  Te200  1  0.33173294  0.00304899  0.83364285  1
  Te  Te201  1  0.33338104  0.33275285  0.16801190  1
  Te  Te202  1  0.33350925  0.33489090  0.50757650  1
  Te  Te203  1  0.32882482  0.32808290  0.83003662  1
  Te  Te204  1  0.33299148  0.66849780  0.16736756  1
  Te  Te205  1  0.33346876  0.67346706  0.50941489  1
  Te  Te206  1  0.33828710  0.66209564  0.83353388  1
  Te  Te207  1  0.66808952  -0.00762104  0.16067322  1
  Te  Te208  1  0.66712155  -0.00769266  0.49886190  1
  Te  Te209  1  0.66832459  -0.00051564  0.83863651  1
  Te  Te210  1  0.66288796  0.33417513  0.16779967  1
  Te  Te211  1  0.66745852  0.33313072  0.50627883  1
  Te  Te212  1  0.67243223  0.33385482  0.82693651  1
  Te  Te213  1  0.66455871  0.67320396  0.17021560  1
  Te  Te214  1  0.66604911  0.67059269  0.49934576  1
  Te  Te215  1  0.65938076  0.66691285  0.82867739  1
