# generated using pymatgen
data_AgSbTe2
_symmetry_space_group_name_H-M   'P 1'
_cell_length_a   18.34941651
_cell_length_b   18.35560394
_cell_length_c   18.35751136
_cell_angle_alpha   89.99773144
_cell_angle_beta   89.99893039
_cell_angle_gamma   90.00346299
_symmetry_Int_Tables_number   1
_chemical_formula_structural   AgSbTe2
_chemical_formula_sum   'Ag54 Sb54 Te108'
_cell_volume   6183.07823024
_cell_formula_units_Z   54
loop_
 _symmetry_equiv_pos_site_id
 _symmetry_equiv_pos_as_xyz
  1  'x, y, z'
loop_
 _atom_site_type_symbol
 _atom_site_label
 _atom_site_symmetry_multiplicity
 _atom_site_fract_x
 _atom_site_fract_y
 _atom_site_fract_z
 _atom_site_occupancy
  Ag  Ag0  1  0.33245147  0.50729125  0.50036000  1
  Ag  Ag1  1  -0.00988566  -0.01144623  0.67347909  1
  Ag  Ag2  1  0.83591754  0.50464954  0.66123059  1
  Ag  Ag3  1  -0.00476126  0.50592464  0.49776724  1
  Ag  Ag4  1  0.83576398  0.33588834  0.83407386  1
  Ag  Ag5  1  0.32612961  0.66495081  0.65917057  1
  Ag  Ag6  1  0.83666858  0.67293764  0.83852656  1
  Ag  Ag7  1  0.67842999  0.50429569  0.49756496  1
  Ag  Ag8  1  0.16568548  0.16453345  0.66703698  1
  Ag  Ag9  1  0.83526077  0.16637056  0.00697148  1
  Ag  Ag10  1  0.83429640  -0.00750303  0.83543592  1
  Ag  Ag11  1  0.00047570  0.67080168  0.66879555  1
  Ag  Ag12  1  0.67700669  0.83602910  0.82491290  1
  Ag  Ag13  1  0.33849573  -0.00660689  0.33114015  1
  Ag  Ag14  1  -0.00389683  -0.00645208  -0.00229819  1
  Ag  Ag15  1  0.68180756  0.50813610  0.17024191  1
  Ag  Ag16  1  0.50755771  -0.00331430  0.50087663  1
  Ag  Ag17  1  0.15462353  0.66214941  0.16287716  1
  Ag  Ag18  1  -0.00661631  0.34877009  0.32068247  1
  Ag  Ag19  1  0.32711371  0.66607513  0.32739474  1
  Ag  Ag20  1  0.33015536  0.82672999  0.50140211  1
  Ag  Ag21  1  0.67385063  0.15825523  0.83422526  1
  Ag  Ag22  1  0.83597663  0.49772228  0.33289786  1
  Ag  Ag23  1  -0.00477141  0.82039948  0.16498514  1
  Ag  Ag24  1  0.15409813  0.33433912  0.83436155  1
  Ag  Ag25  1  0.83266440  -0.00154640  0.16249847  1
  Ag  Ag26  1  -0.00071941  0.50357176  0.16542266  1
  Ag  Ag27  1  0.32134922  0.50700416  0.17328865  1
  Ag  Ag28  1  0.83429047  0.34105262  0.17112366  1
  Ag  Ag29  1  0.67203676  0.83438619  0.50162414  1
  Ag  Ag30  1  0.51116325  0.50157533  0.66421550  1
  Ag  Ag31  1  0.66873044  -0.00140368  0.33955173  1
  Ag  Ag32  1  0.83386880  0.17388090  0.32344932  1
  Ag  Ag33  1  -0.00190611  0.50595706  0.84092275  1
  Ag  Ag34  1  0.15040889  0.83372611  0.66572956  1
  Ag  Ag35  1  0.83514762  0.82953751  0.67104130  1
  Ag  Ag36  1  0.50198507  0.66498099  0.16540594  1
  Ag  Ag37  1  0.16159657  0.50172613  0.00500450  1
  Ag  Ag38  1  0.67090426  0.15210492  0.50009753  1
  Ag  Ag39  1  0.83656282  0.66529571  0.16205839  1
  Ag  Ag40  1  0.67505190  0.82677238  0.16362150  1
  Ag  Ag41  1  0.32637991  -0.00765489  0.00708929  1
  Ag  Ag42  1  -0.00677792  0.82562052  0.50964784  1
  Ag  Ag43  1  0.68158489  0.66678011  0.00796289  1
  Ag  Ag44  1  0.67224926  -0.00381625  0.65849703  1
  Ag  Ag45  1  0.15095295  0.34331469  0.16126235  1
  Ag  Ag46  1  0.00101340  0.66490325  0.32138930  1
  Ag  Ag47  1  0.32833007  0.34802286  0.66602460  1
  Ag  Ag48  1  -0.00016088  0.66590864  0.00474669  1
  Ag  Ag49  1  -0.00250202  0.34777343  0.00405283  1
  Ag  Ag50  1  0.32727570  0.66801077  0.00863489  1
  Ag  Ag51  1  -0.00435852  0.82263738  0.82358128  1
  Ag  Ag52  1  0.67608657  0.16083785  0.16735184  1
  Ag  Ag53  1  0.83334339  0.33978693  0.49489544  1
  Sb  Sb54  1  0.16156230  0.82780154  -0.00253093  1
  Sb  Sb55  1  0.49639794  0.50201860  -0.00144971  1
  Sb  Sb56  1  0.32321171  0.33751453  -0.00190659  1
  Sb  Sb57  1  0.50115039  0.83057395  0.00175667  1
  Sb  Sb58  1  0.50448104  0.33520723  0.83084966  1
  Sb  Sb59  1  0.67231975  -0.00580252  0.00129664  1
  Sb  Sb60  1  0.33385018  -0.00516153  0.66501005  1
  Sb  Sb61  1  0.83710837  0.66264620  0.49940987  1
  Sb  Sb62  1  0.83285086  0.83081526  0.33219462  1
  Sb  Sb63  1  0.50560561  0.66614524  0.83483038  1
  Sb  Sb64  1  0.50716970  0.34149896  0.16705465  1
  Sb  Sb65  1  0.50507664  0.82904055  0.66465253  1
  Sb  Sb66  1  0.83504262  0.16460545  0.66816249  1
  Sb  Sb67  1  0.49917056  0.16880072  0.66510028  1
  Sb  Sb68  1  0.16810906  -0.00208501  0.50099124  1
  Sb  Sb69  1  0.33066556  0.82575540  0.17019500  1
  Sb  Sb70  1  0.00025942  0.33607141  0.66969694  1
  Sb  Sb71  1  0.67226376  0.66884993  0.66770273  1
  Sb  Sb72  1  0.16413435  0.66631985  0.49829627  1
  Sb  Sb73  1  0.50616281  -0.00584393  0.16957786  1
  Sb  Sb74  1  0.83595280  0.83256233  -0.00319936  1
  Sb  Sb75  1  0.15994678  -0.00150087  0.16597861  1
  Sb  Sb76  1  0.15877592  0.50303905  0.66917948  1
  Sb  Sb77  1  0.67656817  0.33745359  0.00157402  1
  Sb  Sb78  1  0.16019515  0.33654722  0.50208499  1
  Sb  Sb79  1  0.67582109  0.33084858  0.33431466  1
  Sb  Sb80  1  0.15571221  0.50275965  0.32689274  1
  Sb  Sb81  1  -0.00743410  0.17244043  0.16508091  1
  Sb  Sb82  1  0.33769474  0.16910944  0.16686657  1
  Sb  Sb83  1  0.67131629  0.66891598  0.32878447  1
  Sb  Sb84  1  0.49667948  0.66862243  0.49812774  1
  Sb  Sb85  1  -0.00756879  0.16759511  0.83317074  1
  Sb  Sb86  1  0.33786280  0.16566170  0.49967378  1
  Sb  Sb87  1  0.16646626  0.83150573  0.33695669  1
  Sb  Sb88  1  0.50532225  0.33487990  0.50093566  1
  Sb  Sb89  1  0.66837893  0.33229680  0.66613125  1
  Sb  Sb90  1  0.33494875  0.16617614  0.83426009  1
  Sb  Sb91  1  0.16117602  0.16715574  0.33564136  1
  Sb  Sb92  1  0.83005335  0.00064797  0.49990938  1
  Sb  Sb93  1  0.32300898  0.34069248  0.33637937  1
  Sb  Sb94  1  0.50991456  0.16389503  0.00167323  1
  Sb  Sb95  1  0.50029232  0.83053807  0.33400912  1
  Sb  Sb96  1  0.84015269  0.50018487  0.00230281  1
  Sb  Sb97  1  0.50755038  -0.00196044  0.83060384  1
  Sb  Sb98  1  0.32776230  0.83033556  0.83005736  1
  Sb  Sb99  1  0.32685286  0.50186935  0.83257367  1
  Sb  Sb100  1  -0.00515370  -0.00533494  0.33224240  1
  Sb  Sb101  1  -0.00662901  0.16714688  0.50277867  1
  Sb  Sb102  1  0.15854112  0.00314067  0.83256326  1
  Sb  Sb103  1  0.50923046  0.16365644  0.33397331  1
  Sb  Sb104  1  0.15644116  0.66291939  0.83618028  1
  Sb  Sb105  1  0.50416755  0.50181137  0.33547018  1
  Sb  Sb106  1  0.67743474  0.50276807  0.83396564  1
  Sb  Sb107  1  0.15898335  0.17049225  -0.00237074  1
  Te  Te108  1  0.17033089  0.16954578  0.16692757  1
  Te  Te109  1  0.16709452  0.16792961  0.50453340  1
  Te  Te110  1  0.17011076  0.17279025  0.83030467  1
  Te  Te111  1  0.16435484  0.50064362  0.16651688  1
  Te  Te112  1  0.17344405  0.49878630  0.49954430  1
  Te  Te113  1  0.16018331  0.49452043  0.83800447  1
  Te  Te114  1  0.16086812  0.82959051  0.16616594  1
  Te  Te115  1  0.16820836  0.83284517  0.50572956  1
  Te  Te116  1  0.15883249  0.83561838  0.82660581  1
  Te  Te117  1  0.51073164  0.16685936  0.16618511  1
  Te  Te118  1  0.50868347  0.16250278  0.49954748  1
  Te  Te119  1  0.51033189  0.16687675  0.83369707  1
  Te  Te120  1  0.49932092  0.50597831  0.16587488  1
  Te  Te121  1  0.49309788  0.49999632  0.50461486  1
  Te  Te122  1  0.50145154  0.50039728  0.82479869  1
  Te  Te123  1  0.50842688  0.82596100  0.16720219  1
  Te  Te124  1  0.50205744  0.83717321  0.49957033  1
  Te  Te125  1  0.51218357  0.83335477  0.83331236  1
  Te  Te126  1  0.83175676  0.16460537  0.16610460  1
  Te  Te127  1  0.82852580  0.17240987  0.49980508  1
  Te  Te128  1  0.82931717  0.16926756  0.83221249  1
  Te  Te129  1  0.83815152  0.50043492  0.16597862  1
  Te  Te130  1  0.83611376  0.50128522  0.49948293  1
  Te  Te131  1  0.83805059  0.49798336  0.82962922  1
  Te  Te132  1  0.83432224  0.83364808  0.16875614  1
  Te  Te133  1  0.83470771  0.83284780  0.50300662  1
  Te  Te134  1  0.83562541  0.83295733  0.83376197  1
  Te  Te135  1  0.16736102  0.00180093  0.00029325  1
  Te  Te136  1  0.17436659  0.00089806  0.33254058  1
  Te  Te137  1  0.16539672  -0.00221730  0.66748483  1
  Te  Te138  1  0.15954301  0.33601981  -0.00043236  1
  Te  Te139  1  0.15588976  0.33017285  0.32727507  1
  Te  Te140  1  0.16801425  0.33112055  0.66903800  1
  Te  Te141  1  0.16423499  0.66368064  0.00170655  1
  Te  Te142  1  0.16525074  0.66831745  0.32676892  1
  Te  Te143  1  0.16593239  0.67162177  0.66900828  1
  Te  Te144  1  0.49012837  0.00010030  -0.00041482  1
  Te  Te145  1  0.50110771  -0.00126893  0.33684135  1
  Te  Te146  1  0.50558348  0.00015239  0.66202456  1
  Te  Te147  1  0.49739422  0.33243118  -0.00072298  1
  Te  Te148  1  0.49441824  0.33158049  0.33354868  1
  Te  Te149  1  0.49231726  0.33983755  0.66576165  1
  Te  Te150  1  0.48997567  0.66491247  0.00285606  1
  Te  Te151  1  0.49088030  0.66472801  0.32756473  1
  Te  Te152  1  0.49612949  0.66081293  0.66662301  1
  Te  Te153  1  0.83378578  0.00169812  -0.00010023  1
  Te  Te154  1  0.82862037  0.00105017  0.33036895  1
  Te  Te155  1  0.83141067  -0.00082572  0.66733589  1
  Te  Te156  1  0.83804031  0.32981843  -0.00234594  1
  Te  Te157  1  0.83605396  0.33482353  0.33276847  1
  Te  Te158  1  0.83306298  0.33658612  0.66933517  1
  Te  Te159  1  0.83768058  0.66634591  -0.00066289  1
  Te  Te160  1  0.83846281  0.66225520  0.32690901  1
  Te  Te161  1  0.83543549  0.66753697  0.66713246  1
  Te  Te162  1  -0.00480008  0.15409042  -0.00112627  1
  Te  Te163  1  -0.00636192  0.16347677  0.33650720  1
  Te  Te164  1  0.00557788  0.16118159  0.66674295  1
  Te  Te165  1  0.00073168  0.50375415  0.00018442  1
  Te  Te166  1  -0.00305473  0.50373022  0.33667533  1
  Te  Te167  1  -0.00369483  0.50297606  0.66132534  1
  Te  Te168  1  0.00137172  0.83336982  0.00568948  1
  Te  Te169  1  0.00090572  0.82807475  0.33056513  1
  Te  Te170  1  -0.00477435  0.83380479  0.66568321  1
  Te  Te171  1  0.33399525  0.16592363  0.00058987  1
  Te  Te172  1  0.33313849  0.16571016  0.33301968  1
  Te  Te173  1  0.32965861  0.16531291  0.66726161  1
  Te  Te174  1  0.32770311  0.50373014  0.00213975  1
  Te  Te175  1  0.33656921  0.50339695  0.33405879  1
  Te  Te176  1  0.32456124  0.50492271  0.66669481  1
  Te  Te177  1  0.33186956  0.83311589  -0.00067821  1
  Te  Te178  1  0.33258547  0.83308941  0.33823071  1
  Te  Te179  1  0.33718901  0.82765824  0.66204999  1
  Te  Te180  1  0.67432915  0.16835671  0.00137487  1
  Te  Te181  1  0.67342120  0.16434468  0.33351112  1
  Te  Te182  1  0.66500503  0.16472980  0.66421519  1
  Te  Te183  1  0.66227256  0.50732798  0.00355717  1
  Te  Te184  1  0.67126290  0.50077436  0.33296580  1
  Te  Te185  1  0.67003863  0.50012825  0.66470643  1
  Te  Te186  1  0.66544040  0.82683632  0.00590236  1
  Te  Te187  1  0.66684603  0.83612875  0.33880726  1
  Te  Te188  1  0.67050776  0.83482342  0.66529181  1
  Te  Te189  1  -0.00525123  -0.00017653  0.16482405  1
  Te  Te190  1  0.00137173  -0.00538625  0.50148237  1
  Te  Te191  1  -0.00574812  0.00156253  0.83347685  1
  Te  Te192  1  -0.00460066  0.33395498  0.16477557  1
  Te  Te193  1  -0.00644432  0.33636873  0.50088240  1
  Te  Te194  1  -0.00224614  0.33351892  0.83465378  1
  Te  Te195  1  -0.00194844  0.66421102  0.16518638  1
  Te  Te196  1  0.00191068  0.66659905  0.50828956  1
  Te  Te197  1  -0.00241833  0.66525677  0.83008136  1
  Te  Te198  1  0.33494839  -0.00073949  0.16834085  1
  Te  Te199  1  0.33584518  -0.00064719  0.49632609  1
  Te  Te200  1  0.33560237  -0.00184533  0.83764209  1
  Te  Te201  1  0.33606994  0.33983513  0.16738488  1
  Te  Te202  1  0.33277216  0.33295121  0.50460321  1
  Te  Te203  1  0.33549315  0.33314855  0.82785565  1
  Te  Te204  1  0.33520452  0.66750859  0.16825701  1
  Te  Te205  1  0.33208113  0.66711277  0.50044868  1
  Te  Te206  1  0.33579371  0.66841292  0.83675750  1
  Te  Te207  1  0.66948057  0.00005676  0.16693040  1
  Te  Te208  1  0.66788929  -0.00368110  0.49982363  1
  Te  Te209  1  0.67241765  -0.00147870  0.83455512  1
  Te  Te210  1  0.67311495  0.33684253  0.16722652  1
  Te  Te211  1  0.67165287  0.34661826  0.49983522  1
  Te  Te212  1  0.67212442  0.33164827  0.83414622  1
  Te  Te213  1  0.67030226  0.66639553  0.16832537  1
  Te  Te214  1  0.66496000  0.66446830  0.49907231  1
  Te  Te215  1  0.67317089  0.67059787  0.83653042  1
