# generated using pymatgen
data_AgSbTe2
_symmetry_space_group_name_H-M   'P 1'
_cell_length_a   18.32385815
_cell_length_b   18.31965155
_cell_length_c   18.32834859
_cell_angle_alpha   89.99921576
_cell_angle_beta   90.00158776
_cell_angle_gamma   90.00149251
_symmetry_Int_Tables_number   1
_chemical_formula_structural   AgSbTe2
_chemical_formula_sum   'Ag54 Sb54 Te108'
_cell_volume   6152.58278730
_cell_formula_units_Z   54
loop_
 _symmetry_equiv_pos_site_id
 _symmetry_equiv_pos_as_xyz
  1  'x, y, z'
loop_
 _atom_site_type_symbol
 _atom_site_label
 _atom_site_symmetry_multiplicity
 _atom_site_fract_x
 _atom_site_fract_y
 _atom_site_fract_z
 _atom_site_occupancy
  Ag  Ag0  1  0.66260281  0.17307389  0.50175721  1
  Ag  Ag1  1  0.82532392  0.33625977  0.50128523  1
  Ag  Ag2  1  0.65668623  0.16973900  0.83087620  1
  Ag  Ag3  1  0.83218361  0.33363794  0.83120147  1
  Ag  Ag4  1  0.65739621  0.82598651  0.16009849  1
  Ag  Ag5  1  0.16904969  0.17521677  0.00366969  1
  Ag  Ag6  1  0.33943911  0.82207604  0.50551804  1
  Ag  Ag7  1  0.00539467  0.66303919  0.66749241  1
  Ag  Ag8  1  0.49500227  0.67277914  0.17385101  1
  Ag  Ag9  1  0.33179966  0.33924116  0.66551423  1
  Ag  Ag10  1  0.50221587  0.83030478  -0.01003261  1
  Ag  Ag11  1  0.00739099  0.50002107  0.50793013  1
  Ag  Ag12  1  0.49494822  0.67263140  0.50123914  1
  Ag  Ag13  1  0.00341347  -0.00861700  0.66873993  1
  Ag  Ag14  1  0.16456668  0.50037603  0.66928090  1
  Ag  Ag15  1  0.16980674  0.33279116  0.83522527  1
  Ag  Ag16  1  0.49733564  -0.01336252  0.50154108  1
  Ag  Ag17  1  0.66104325  0.33746758  0.33144685  1
  Ag  Ag18  1  0.83089155  0.49720706  0.33389242  1
  Ag  Ag19  1  0.49780618  -0.01004891  0.16880807  1
  Ag  Ag20  1  0.33564355  0.16539820  0.83599365  1
  Ag  Ag21  1  0.49802026  0.82920124  0.33315594  1
  Ag  Ag22  1  0.50016227  0.82851577  0.67603809  1
  Ag  Ag23  1  0.16620668  0.33139575  0.16215148  1
  Ag  Ag24  1  0.33513473  0.66755448  -0.00004461  1
  Ag  Ag25  1  0.33047513  0.16973781  0.16511662  1
  Ag  Ag26  1  -0.00297960  0.83352647  0.16123693  1
  Ag  Ag27  1  0.33062671  0.50970871  0.50110173  1
  Ag  Ag28  1  0.17664757  0.66227548  0.16891794  1
  Ag  Ag29  1  0.33682899  -0.00385442  0.33325438  1
  Ag  Ag30  1  0.16743895  0.49593414  -0.00502485  1
  Ag  Ag31  1  -0.00070824  0.83026894  0.83168540  1
  Ag  Ag32  1  0.17252230  0.17016660  0.32506682  1
  Ag  Ag33  1  0.66649910  0.50335744  0.16953906  1
  Ag  Ag34  1  0.33881325  0.66688725  0.34353891  1
  Ag  Ag35  1  0.18191131  0.66315375  0.49990888  1
  Ag  Ag36  1  0.00558760  0.34102776  0.67000300  1
  Ag  Ag37  1  0.82791327  0.83035718  0.67257477  1
  Ag  Ag38  1  0.49889019  0.33486018  0.50202059  1
  Ag  Ag39  1  0.34420219  0.83114554  0.82848221  1
  Ag  Ag40  1  0.01276260  0.16732441  0.16696985  1
  Ag  Ag41  1  0.82443433  0.83120842  -0.00829242  1
  Ag  Ag42  1  0.65114637  0.66994490  0.66410891  1
  Ag  Ag43  1  0.65599240  0.83361034  0.83673630  1
  Ag  Ag44  1  0.65651823  0.66268061  0.33374041  1
  Ag  Ag45  1  0.83385739  0.33353073  0.16731472  1
  Ag  Ag46  1  0.17615606  0.00289323  0.83250535  1
  Ag  Ag47  1  0.33413107  0.66481897  0.65804481  1
  Ag  Ag48  1  0.49470905  -0.01268830  0.83156662  1
  Ag  Ag49  1  0.66595954  0.33412277  -0.00069804  1
  Ag  Ag50  1  0.49678178  0.33197209  0.82718356  1
  Ag  Ag51  1  0.00358946  0.50182226  0.82609516  1
  Ag  Ag52  1  0.49608163  0.67635216  0.82584722  1
  Ag  Ag53  1  0.33714757  0.33365191  0.33922767  1
  Sb  Sb54  1  0.65779469  0.83313872  0.50307306  1
  Sb  Sb55  1  0.00891721  -0.00024724  0.33714575  1
  Sb  Sb56  1  0.33460843  -0.00391621  0.00009258  1
  Sb  Sb57  1  0.83056480  0.66453799  0.16723671  1
  Sb  Sb58  1  0.00354941  0.66655063  0.33636594  1
  Sb  Sb59  1  0.16639039  0.49730041  0.33475700  1
  Sb  Sb60  1  0.33916995  0.83273753  0.16626650  1
  Sb  Sb61  1  0.50243317  0.50653726  0.33443484  1
  Sb  Sb62  1  0.82975605  0.00196169  0.16745491  1
  Sb  Sb63  1  0.00548933  0.16791547  0.83558847  1
  Sb  Sb64  1  0.32925445  0.50104635  0.82704390  1
  Sb  Sb65  1  0.17143501  0.83067243  -0.00149926  1
  Sb  Sb66  1  0.66328137  0.49767743  0.49583457  1
  Sb  Sb67  1  0.66399541  0.00030249  -0.00135669  1
  Sb  Sb68  1  0.00048644  0.33363568  -0.00421856  1
  Sb  Sb69  1  0.00426564  0.82718908  0.50490243  1
  Sb  Sb70  1  0.17371660  -0.00477317  0.50483741  1
  Sb  Sb71  1  0.49905582  0.16356048  0.66751626  1
  Sb  Sb72  1  0.82483379  0.82732321  0.33337363  1
  Sb  Sb73  1  0.49457075  0.16435487  0.33401428  1
  Sb  Sb74  1  0.16855125  0.17285538  0.66845649  1
  Sb  Sb75  1  0.66615743  -0.00633355  0.66805581  1
  Sb  Sb76  1  0.82715837  0.00386563  0.50243636  1
  Sb  Sb77  1  0.17007532  0.82528599  0.66974382  1
  Sb  Sb78  1  -0.00182275  0.17302936  0.49824430  1
  Sb  Sb79  1  0.33384811  0.33685602  -0.00199787  1
  Sb  Sb80  1  0.49495531  0.50461863  -0.00149244  1
  Sb  Sb81  1  0.83010731  0.66667660  0.83137730  1
  Sb  Sb82  1  0.17523840  0.83392492  0.33038198  1
  Sb  Sb83  1  0.00155705  0.33471098  0.33596192  1
  Sb  Sb84  1  0.66934092  0.50061232  0.83613094  1
  Sb  Sb85  1  0.33732548  0.16853640  0.50008100  1
  Sb  Sb86  1  0.33153138  -0.00391995  0.66747766  1
  Sb  Sb87  1  0.65723920  -0.00134941  0.33431694  1
  Sb  Sb88  1  0.83977603  0.50173451  0.66322495  1
  Sb  Sb89  1  0.17096430  0.33855150  0.50153265  1
  Sb  Sb90  1  0.83480363  0.17566090  0.33217070  1
  Sb  Sb91  1  0.33539566  0.50017355  0.17221097  1
  Sb  Sb92  1  0.83624510  0.50192606  0.00218407  1
  Sb  Sb93  1  0.83161271  -0.00038493  0.83245629  1
  Sb  Sb94  1  0.49554923  0.16390884  -0.00327263  1
  Sb  Sb95  1  0.00314015  -0.00172362  -0.00451569  1
  Sb  Sb96  1  0.82892107  0.66160449  0.50230936  1
  Sb  Sb97  1  0.17277136  0.66462819  0.83147321  1
  Sb  Sb98  1  0.49861109  0.33486940  0.16800660  1
  Sb  Sb99  1  0.49497395  0.50618653  0.66583422  1
  Sb  Sb100  1  0.66210206  0.16988058  0.16592438  1
  Sb  Sb101  1  0.66338393  0.33913279  0.66672811  1
  Sb  Sb102  1  0.00657718  0.66781013  -0.00397869  1
  Sb  Sb103  1  0.65922740  0.66645720  0.00119868  1
  Sb  Sb104  1  -0.00038380  0.50021240  0.16659100  1
  Sb  Sb105  1  0.17198225  0.00226098  0.16215295  1
  Sb  Sb106  1  0.83585100  0.16683603  -0.00112579  1
  Sb  Sb107  1  0.83286878  0.16630002  0.66889781  1
  Te  Te108  1  0.16983518  0.16514467  0.16509057  1
  Te  Te109  1  0.16558808  0.16494374  0.49463557  1
  Te  Te110  1  0.17032630  0.17014987  0.83469471  1
  Te  Te111  1  0.16575869  0.49884843  0.16513683  1
  Te  Te112  1  0.16697680  0.50390353  0.50128270  1
  Te  Te113  1  0.16395227  0.49788368  0.83273349  1
  Te  Te114  1  0.16119048  0.83167620  0.16481498  1
  Te  Te115  1  0.17391245  0.82616393  0.49933886  1
  Te  Te116  1  0.16012139  0.83697277  0.83498150  1
  Te  Te117  1  0.49284124  0.16199039  0.16534970  1
  Te  Te118  1  0.50442551  0.17402889  0.50099298  1
  Te  Te119  1  0.49766622  0.17344988  0.83318485  1
  Te  Te120  1  0.50621496  0.50534018  0.16470011  1
  Te  Te121  1  0.49508492  0.49510452  0.50017152  1
  Te  Te122  1  0.50067680  0.49082095  0.83333330  1
  Te  Te123  1  0.49913809  0.83272432  0.16985839  1
  Te  Te124  1  0.49830004  0.83198771  0.49681724  1
  Te  Te125  1  0.50047708  0.83237991  0.83290414  1
  Te  Te126  1  0.83448656  0.17246761  0.16476153  1
  Te  Te127  1  0.82738981  0.17405265  0.50030939  1
  Te  Te128  1  0.82834437  0.17199631  0.83528399  1
  Te  Te129  1  0.83142669  0.49452426  0.16894804  1
  Te  Te130  1  0.83438332  0.49446356  0.49674722  1
  Te  Te131  1  0.84004523  0.49433299  0.83453578  1
  Te  Te132  1  0.83363630  0.83371836  0.16609429  1
  Te  Te133  1  0.83331167  0.83479376  0.50471396  1
  Te  Te134  1  0.83787082  0.83388220  0.83207126  1
  Te  Te135  1  0.16807322  0.00599073  -0.00833016  1
  Te  Te136  1  0.17633841  0.00484263  0.33470736  1
  Te  Te137  1  0.16304263  0.00156426  0.67227162  1
  Te  Te138  1  0.16712204  0.33471617  0.00036190  1
  Te  Te139  1  0.16991725  0.33109162  0.33033109  1
  Te  Te140  1  0.16765449  0.33840986  0.66797661  1
  Te  Te141  1  0.17298470  0.66351238  0.00494957  1
  Te  Te142  1  0.17135542  0.66577096  0.33154924  1
  Te  Te143  1  0.16955599  0.66099696  0.66514176  1
  Te  Te144  1  0.50013745  -0.00597092  -0.00359613  1
  Te  Te145  1  0.49454969  -0.00311329  0.33509739  1
  Te  Te146  1  0.49901556  -0.00658340  0.66702032  1
  Te  Te147  1  0.50445299  0.33410944  -0.00082756  1
  Te  Te148  1  0.49932893  0.33267381  0.33452685  1
  Te  Te149  1  0.49735041  0.33354027  0.66612038  1
  Te  Te150  1  0.49608909  0.67003811  -0.00167803  1
  Te  Te151  1  0.49934314  0.66725308  0.33319974  1
  Te  Te152  1  0.49532621  0.66831449  0.66567846  1
  Te  Te153  1  0.83404483  -0.00961462  0.00073716  1
  Te  Te154  1  0.83398365  0.00027259  0.33551265  1
  Te  Te155  1  0.84050367  -0.00681526  0.66566843  1
  Te  Te156  1  0.82957175  0.33413924  -0.00022107  1
  Te  Te157  1  0.83287049  0.33683690  0.33330569  1
  Te  Te158  1  0.83442507  0.33410058  0.66766168  1
  Te  Te159  1  0.83343962  0.67258483  -0.00034982  1
  Te  Te160  1  0.82705373  0.66025904  0.33429789  1
  Te  Te161  1  0.84105771  0.67202547  0.66655832  1
  Te  Te162  1  0.00530817  0.16562605  0.00672410  1
  Te  Te163  1  0.00595791  0.16552015  0.32740745  1
  Te  Te164  1  0.00001441  0.17080882  0.66602060  1
  Te  Te165  1  0.00589653  0.50097341  -0.00488405  1
  Te  Te166  1  -0.00625599  0.50194936  0.33796704  1
  Te  Te167  1  0.00173400  0.50022974  0.66675237  1
  Te  Te168  1  -0.00128941  0.83313367  -0.00063768  1
  Te  Te169  1  -0.00274176  0.83381089  0.33028715  1
  Te  Te170  1  0.00283059  0.83024018  0.66848475  1
  Te  Te171  1  0.32906790  0.16773658  -0.00166058  1
  Te  Te172  1  0.33110581  0.17215951  0.33339914  1
  Te  Te173  1  0.33290801  0.17447515  0.67393438  1
  Te  Te174  1  0.32717356  0.50530831  0.00136760  1
  Te  Te175  1  0.33255026  0.49915089  0.33958344  1
  Te  Te176  1  0.32943907  0.49962559  0.66189119  1
  Te  Te177  1  0.33817273  0.82941073  -0.00629168  1
  Te  Te178  1  0.33734496  0.83160556  0.33409592  1
  Te  Te179  1  0.33623045  0.83096750  0.66815152  1
  Te  Te180  1  0.66727784  0.17251324  -0.00444767  1
  Te  Te181  1  0.66677426  0.17125339  0.33562117  1
  Te  Te182  1  0.66701441  0.16643599  0.67008800  1
  Te  Te183  1  0.66845094  0.49550337  0.00523416  1
  Te  Te184  1  0.66906859  0.49800422  0.33062003  1
  Te  Te185  1  0.66935884  0.51076682  0.66716163  1
  Te  Te186  1  0.66496845  0.83290778  -0.00122179  1
  Te  Te187  1  0.66134022  0.82994537  0.32988916  1
  Te  Te188  1  0.66609283  0.82925978  0.66941619  1
  Te  Te189  1  -0.00042698  -0.00169779  0.16814945  1
  Te  Te190  1  0.00094221  -0.00005186  0.50624102  1
  Te  Te191  1  -0.00084083  -0.00110693  0.82850472  1
  Te  Te192  1  0.00227959  0.33141014  0.16664449  1
  Te  Te193  1  -0.00032783  0.33777649  0.50479857  1
  Te  Te194  1  0.00309207  0.33239475  0.83023199  1
  Te  Te195  1  0.00285607  0.67069122  0.16720984  1
  Te  Te196  1  -0.00122534  0.66143573  0.50409943  1
  Te  Te197  1  0.00064341  0.66682866  0.82929578  1
  Te  Te198  1  0.33746633  0.00286640  0.16916092  1
  Te  Te199  1  0.33843659  0.00023691  0.49783967  1
  Te  Te200  1  0.33455360  0.00011877  0.83313244  1
  Te  Te201  1  0.33004784  0.33190779  0.16876025  1
  Te  Te202  1  0.33607060  0.33294576  0.50050322  1
  Te  Te203  1  0.33140175  0.33475658  0.83219498  1
  Te  Te204  1  0.33462540  0.66655694  0.16640869  1
  Te  Te205  1  0.33727242  0.66667023  0.49983390  1
  Te  Te206  1  0.33641980  0.66759407  0.83266113  1
  Te  Te207  1  0.66045724  -0.00333858  0.16681645  1
  Te  Te208  1  0.65893663  0.00793524  0.50053749  1
  Te  Te209  1  0.66155822  -0.00023923  0.83310105  1
  Te  Te210  1  0.66719148  0.33282881  0.17027919  1
  Te  Te211  1  0.66514397  0.33309098  0.49956318  1
  Te  Te212  1  0.66628168  0.33355262  0.83292556  1
  Te  Te213  1  0.66453001  0.66678380  0.16836974  1
  Te  Te214  1  0.66060569  0.66581309  0.49885431  1
  Te  Te215  1  0.66164038  0.66964330  0.83132741  1
