# generated using pymatgen
data_AgSbTe2
_symmetry_space_group_name_H-M   'P 1'
_cell_length_a   18.33684993
_cell_length_b   18.33364686
_cell_length_c   18.34039152
_cell_angle_alpha   90.00097584
_cell_angle_beta   89.99768080
_cell_angle_gamma   90.00477759
_symmetry_Int_Tables_number   1
_chemical_formula_structural   AgSbTe2
_chemical_formula_sum   'Ag54 Sb54 Te108'
_cell_volume   6165.69721099
_cell_formula_units_Z   54
loop_
 _symmetry_equiv_pos_site_id
 _symmetry_equiv_pos_as_xyz
  1  'x, y, z'
loop_
 _atom_site_type_symbol
 _atom_site_label
 _atom_site_symmetry_multiplicity
 _atom_site_fract_x
 _atom_site_fract_y
 _atom_site_fract_z
 _atom_site_occupancy
  Ag  Ag0  1  0.33184898  0.32585584  0.33633837  1
  Ag  Ag1  1  -0.00242693  0.16124424  0.17165439  1
  Ag  Ag2  1  0.67004305  0.84219185  0.16415993  1
  Ag  Ag3  1  0.83964714  0.00073726  0.49862482  1
  Ag  Ag4  1  0.67143307  0.49241859  0.49584111  1
  Ag  Ag5  1  0.33375118  0.16967166  0.49492565  1
  Ag  Ag6  1  0.15700573  0.00035374  0.17612532  1
  Ag  Ag7  1  0.83751990  0.83437758  -0.00409193  1
  Ag  Ag8  1  0.66938626  0.00140700  0.33519025  1
  Ag  Ag9  1  0.50852249  0.83858665  0.66841495  1
  Ag  Ag10  1  -0.00045856  0.49665134  0.17525896  1
  Ag  Ag11  1  -0.00212218  0.66951314  0.33272194  1
  Ag  Ag12  1  0.15639388  0.00292220  0.48745480  1
  Ag  Ag13  1  0.83502602  0.66661416  0.49932703  1
  Ag  Ag14  1  0.83504014  0.32968203  0.17836245  1
  Ag  Ag15  1  0.00231631  -0.00361220  0.01082880  1
  Ag  Ag16  1  -0.00692800  0.49992459  0.49283422  1
  Ag  Ag17  1  0.67537479  0.83931437  0.83424882  1
  Ag  Ag18  1  0.67217152  0.16148805  0.17643484  1
  Ag  Ag19  1  0.16407396  0.00295753  0.83400655  1
  Ag  Ag20  1  0.50130092  -0.00090188  0.16706433  1
  Ag  Ag21  1  -0.00250725  0.84231097  0.17148188  1
  Ag  Ag22  1  -0.00667969  0.32865039  0.33427227  1
  Ag  Ag23  1  0.33188736  0.49404158  0.83030394  1
  Ag  Ag24  1  0.83526837  0.33264134  0.49620702  1
  Ag  Ag25  1  0.66779539  0.15552250  0.83176349  1
  Ag  Ag26  1  -0.00174923  0.67960554  0.00995020  1
  Ag  Ag27  1  0.66743181  0.16552854  0.49374539  1
  Ag  Ag28  1  0.16241714  0.49529130  0.00061314  1
  Ag  Ag29  1  0.16363170  0.16193488  0.65722480  1
  Ag  Ag30  1  0.83578730  0.33315294  0.83001328  1
  Ag  Ag31  1  0.67189094  -0.00102024  0.66163086  1
  Ag  Ag32  1  -0.00340358  0.84173451  0.49325272  1
  Ag  Ag33  1  0.31903132  0.00589542  0.33259322  1
  Ag  Ag34  1  0.50407497  0.33816739  0.49459821  1
  Ag  Ag35  1  0.50516017  0.49555762  0.33808071  1
  Ag  Ag36  1  0.50529688  0.32517125  0.17680396  1
  Ag  Ag37  1  0.83324881  0.83725914  0.67123195  1
  Ag  Ag38  1  0.50761137  0.83680147  0.00127322  1
  Ag  Ag39  1  0.16043042  0.84577671  0.33115826  1
  Ag  Ag40  1  0.15768551  0.15915159  0.33444447  1
  Ag  Ag41  1  0.32829500  0.16476558  0.82923965  1
  Ag  Ag42  1  0.83898535  0.49056633  0.33852586  1
  Ag  Ag43  1  -0.00229055  0.00142122  0.65776097  1
  Ag  Ag44  1  0.83553678  0.67767869  0.82938614  1
  Ag  Ag45  1  -0.00754756  0.83762892  0.83826729  1
  Ag  Ag46  1  0.83987748  0.16952887  0.33523741  1
  Ag  Ag47  1  0.50724113  0.66054794  0.49799188  1
  Ag  Ag48  1  0.32975512  0.84034245  0.16907591  1
  Ag  Ag49  1  0.50077381  -0.00226551  0.83654448  1
  Ag  Ag50  1  0.16469042  0.16194277  0.00283963  1
  Ag  Ag51  1  -0.00226751  0.32262738  0.65294387  1
  Ag  Ag52  1  0.33493517  0.49097943  0.49642676  1
  Ag  Ag53  1  0.00440003  0.00089082  0.33373032  1
  Sb  Sb54  1  0.32599945  0.66865733  0.00017572  1
  Sb  Sb55  1  0.33174995  0.00158857  0.66237717  1
  Sb  Sb56  1  0.16034167  0.49694198  0.33194850  1
  Sb  Sb57  1  0.33473313  0.66686068  0.66470499  1
  Sb  Sb58  1  0.49488879  0.50531105  0.00560448  1
  Sb  Sb59  1  0.67251792  -0.00154596  0.00102409  1
  Sb  Sb60  1  0.83704825  0.16123652  0.00286091  1
  Sb  Sb61  1  0.00109674  0.50301443  0.83271402  1
  Sb  Sb62  1  0.49814423  0.83363093  0.33391793  1
  Sb  Sb63  1  0.32808171  0.49969831  0.17178327  1
  Sb  Sb64  1  0.49938030  0.16141772  0.66546220  1
  Sb  Sb65  1  0.50434226  0.67375101  0.83005827  1
  Sb  Sb66  1  0.66823849  0.33148020  0.00129825  1
  Sb  Sb67  1  0.32925918  0.66685512  0.33502820  1
  Sb  Sb68  1  0.83459513  0.50127353  0.65796999  1
  Sb  Sb69  1  0.66900105  0.67520211  0.66282241  1
  Sb  Sb70  1  -0.00312795  0.67277982  0.66199024  1
  Sb  Sb71  1  0.67194467  0.49619978  0.17569874  1
  Sb  Sb72  1  0.15990070  0.67208035  0.83585010  1
  Sb  Sb73  1  0.83357384  -0.00161248  0.82775796  1
  Sb  Sb74  1  0.33079685  0.83678943  0.49570079  1
  Sb  Sb75  1  0.84019394  0.50385983  0.00421377  1
  Sb  Sb76  1  0.50219344  0.32740154  0.83092312  1
  Sb  Sb77  1  0.33371964  0.83908830  0.83753624  1
  Sb  Sb78  1  0.83697259  0.66637912  0.17220316  1
  Sb  Sb79  1  0.33281855  0.33067340  0.00586016  1
  Sb  Sb80  1  0.16387727  0.49212399  0.66686190  1
  Sb  Sb81  1  0.32956784  0.33008265  0.65976808  1
  Sb  Sb82  1  0.67428809  0.67181797  -0.00022865  1
  Sb  Sb83  1  0.66578442  0.50083604  0.82685096  1
  Sb  Sb84  1  0.84013307  0.83913929  0.33396964  1
  Sb  Sb85  1  0.15948414  0.83950681  0.00465975  1
  Sb  Sb86  1  0.33201386  0.16147035  0.17207828  1
  Sb  Sb87  1  0.32791907  0.00030540  0.00566638  1
  Sb  Sb88  1  0.16103490  0.67057562  0.49789720  1
  Sb  Sb89  1  0.16202850  0.32545603  0.16999367  1
  Sb  Sb90  1  0.67348052  0.32406147  0.66202092  1
  Sb  Sb91  1  0.83809463  0.16189791  0.66011476  1
  Sb  Sb92  1  0.50169330  0.00128323  0.49692131  1
  Sb  Sb93  1  0.49993863  0.50272897  0.65761307  1
  Sb  Sb94  1  0.16204975  0.32521959  0.49696495  1
  Sb  Sb95  1  0.50105130  0.17000495  0.33374927  1
  Sb  Sb96  1  -0.00227588  0.16368739  0.49173923  1
  Sb  Sb97  1  0.16178126  0.67334658  0.16744988  1
  Sb  Sb98  1  0.16003936  0.84332956  0.66286707  1
  Sb  Sb99  1  0.67345282  0.67170281  0.33614676  1
  Sb  Sb100  1  0.49682127  0.15947906  0.00189867  1
  Sb  Sb101  1  -0.00062853  0.15965314  0.83615617  1
  Sb  Sb102  1  0.67024912  0.32555754  0.33586677  1
  Sb  Sb103  1  0.67284460  0.83919125  0.50000998  1
  Sb  Sb104  1  0.83495230  0.00338771  0.17508657  1
  Sb  Sb105  1  0.16246496  0.32644337  0.83342795  1
  Sb  Sb106  1  -0.00140800  0.32922281  0.00482019  1
  Sb  Sb107  1  0.50192348  0.67166964  0.17221918  1
  Te  Te108  1  0.16563587  0.16104611  0.16806316  1
  Te  Te109  1  0.17018683  0.16242790  0.49697989  1
  Te  Te110  1  0.16708979  0.16326498  0.83824436  1
  Te  Te111  1  0.16154126  0.49940719  0.16328078  1
  Te  Te112  1  0.16987761  0.50151697  0.50038301  1
  Te  Te113  1  0.17054225  0.49978985  0.83539573  1
  Te  Te114  1  0.16230331  0.83926702  0.16915588  1
  Te  Te115  1  0.16206153  0.83948708  0.49586895  1
  Te  Te116  1  0.16479552  0.83973315  0.83236138  1
  Te  Te117  1  0.50410208  0.16562453  0.16472650  1
  Te  Te118  1  0.50052351  0.17107876  0.50129304  1
  Te  Te119  1  0.50307872  0.16222592  0.83386495  1
  Te  Te120  1  0.50046839  0.49854086  0.17249979  1
  Te  Te121  1  0.49768085  0.49886790  0.49725555  1
  Te  Te122  1  0.49624230  0.50017771  0.83448080  1
  Te  Te123  1  0.50557193  0.83603194  0.16584318  1
  Te  Te124  1  0.50085266  0.83009504  0.50325348  1
  Te  Te125  1  0.50070848  0.83670629  0.83317313  1
  Te  Te126  1  0.83222777  0.16987482  0.16793832  1
  Te  Te127  1  0.82915903  0.16752053  0.49745882  1
  Te  Te128  1  0.82893354  0.17060973  0.83410623  1
  Te  Te129  1  0.83749213  0.49486148  0.17188953  1
  Te  Te130  1  0.83392662  0.49794188  0.49783829  1
  Te  Te131  1  0.83143094  0.49745268  0.83325075  1
  Te  Te132  1  0.83539234  0.83262949  0.16403791  1
  Te  Te133  1  0.83639057  0.83334827  0.50019940  1
  Te  Te134  1  0.83333486  0.83555341  0.83257169  1
  Te  Te135  1  0.16243713  0.00266657  -0.00389442  1
  Te  Te136  1  0.16523111  0.00164028  0.33173287  1
  Te  Te137  1  0.16511959  0.00479202  0.67184801  1
  Te  Te138  1  0.16659347  0.33276743  0.00138621  1
  Te  Te139  1  0.16983950  0.32769437  0.33250080  1
  Te  Te140  1  0.15812022  0.32383064  0.66679510  1
  Te  Te141  1  0.15831203  0.66104745  -0.00013470  1
  Te  Te142  1  0.15892980  0.67131613  0.33350971  1
  Te  Te143  1  0.16625862  0.66756971  0.66783639  1
  Te  Te144  1  0.49798524  -0.00536632  0.00173433  1
  Te  Te145  1  0.50787954  -0.00140436  0.32917726  1
  Te  Te146  1  0.50176848  -0.00327547  0.66953134  1
  Te  Te147  1  0.50001534  0.33537768  0.00568890  1
  Te  Te148  1  0.50026821  0.33552542  0.33484349  1
  Te  Te149  1  0.50065326  0.33389977  0.66082805  1
  Te  Te150  1  0.49948028  0.67403730  -0.00003805  1
  Te  Te151  1  0.49846805  0.66127588  0.33899211  1
  Te  Te152  1  0.50160598  0.67419943  0.66092313  1
  Te  Te153  1  0.84212091  -0.00538510  -0.00154884  1
  Te  Te154  1  0.83108197  0.00425303  0.33928239  1
  Te  Te155  1  0.83399948  -0.00265209  0.66146339  1
  Te  Te156  1  0.83339825  0.33445841  -0.00388929  1
  Te  Te157  1  0.83371422  0.33135659  0.33513399  1
  Te  Te158  1  0.83942023  0.33221380  0.66492835  1
  Te  Te159  1  0.84059809  0.67112502  -0.00303281  1
  Te  Te160  1  0.83902620  0.66166276  0.33868757  1
  Te  Te161  1  0.83387708  0.67278822  0.66489914  1
  Te  Te162  1  0.00378990  0.16152989  0.00695560  1
  Te  Te163  1  -0.00068893  0.16684733  0.33110124  1
  Te  Te164  1  0.00287018  0.16380589  0.66921006  1
  Te  Te165  1  0.00381390  0.50015152  0.00089621  1
  Te  Te166  1  -0.00006109  0.49624121  0.33433928  1
  Te  Te167  1  0.00039410  0.49581142  0.66232467  1
  Te  Te168  1  -0.00006737  0.83576506  0.00048883  1
  Te  Te169  1  -0.00077710  0.83712533  0.33271122  1
  Te  Te170  1  -0.00359266  0.83853245  0.66465017  1
  Te  Te171  1  0.32754028  0.16680727  -0.00769588  1
  Te  Te172  1  0.33424788  0.16586542  0.33541254  1
  Te  Te173  1  0.32785189  0.16698922  0.66834497  1
  Te  Te174  1  0.32713838  0.50010303  -0.00195130  1
  Te  Te175  1  0.33168854  0.49883370  0.33678144  1
  Te  Te176  1  0.33214679  0.49834286  0.66639805  1
  Te  Te177  1  0.33623472  0.83281930  0.00611278  1
  Te  Te178  1  0.32921010  0.83620531  0.32901851  1
  Te  Te179  1  0.33777856  0.83332434  0.66747512  1
  Te  Te180  1  0.66571120  0.16621868  -0.00529995  1
  Te  Te181  1  0.66812080  0.16118281  0.33385632  1
  Te  Te182  1  0.66730267  0.15845681  0.66963996  1
  Te  Te183  1  0.66533338  0.50256456  0.00037737  1
  Te  Te184  1  0.66766471  0.50401914  0.33792777  1
  Te  Te185  1  0.66642736  0.49917311  0.65774272  1
  Te  Te186  1  0.66891317  0.83340022  -0.00076128  1
  Te  Te187  1  0.66761129  0.83891915  0.32889569  1
  Te  Te188  1  0.66910425  0.84003175  0.66739728  1
  Te  Te189  1  -0.00163955  0.00106109  0.17125046  1
  Te  Te190  1  -0.00002438  0.00104925  0.49834417  1
  Te  Te191  1  0.00058506  -0.00306317  0.82876889  1
  Te  Te192  1  -0.00340102  0.33353132  0.17127113  1
  Te  Te193  1  -0.00275055  0.33420466  0.49626375  1
  Te  Te194  1  -0.00452267  0.33361886  0.83397898  1
  Te  Te195  1  -0.00079424  0.66389480  0.16904313  1
  Te  Te196  1  -0.00367396  0.66388085  0.49629852  1
  Te  Te197  1  -0.00550798  0.67148596  0.83256722  1
  Te  Te198  1  0.33848300  -0.00183522  0.17146549  1
  Te  Te199  1  0.33389355  0.00419859  0.49416605  1
  Te  Te200  1  0.33546612  0.00340435  0.83352592  1
  Te  Te201  1  0.33979292  0.33308213  0.17356848  1
  Te  Te202  1  0.33241657  0.33111377  0.49639601  1
  Te  Te203  1  0.33440453  0.33170415  0.83279691  1
  Te  Te204  1  0.33302990  0.67513732  0.16687509  1
  Te  Te205  1  0.33558536  0.66394771  0.49957931  1
  Te  Te206  1  0.33354167  0.66120915  0.83306767  1
  Te  Te207  1  0.66732593  0.00124413  0.16598730  1
  Te  Te208  1  0.66592950  0.00424546  0.50066567  1
  Te  Te209  1  0.66495442  -0.00276983  0.83517852  1
  Te  Te210  1  0.66702586  0.32851269  0.16664754  1
  Te  Te211  1  0.66810720  0.33072191  0.50144892  1
  Te  Te212  1  0.67024777  0.33194800  0.83067720  1
  Te  Te213  1  0.66859253  0.67478683  0.16731030  1
  Te  Te214  1  0.66932118  0.66397293  0.49939570  1
  Te  Te215  1  0.67347674  0.67072821  0.83210005  1
