# generated using pymatgen
data_AgSbTe2
_symmetry_space_group_name_H-M   'P 1'
_cell_length_a   18.35655682
_cell_length_b   18.34931892
_cell_length_c   18.34555620
_cell_angle_alpha   90.00301325
_cell_angle_beta   90.00256505
_cell_angle_gamma   89.99634112
_symmetry_Int_Tables_number   1
_chemical_formula_structural   AgSbTe2
_chemical_formula_sum   'Ag54 Sb54 Te108'
_cell_volume   6179.33945055
_cell_formula_units_Z   54
loop_
 _symmetry_equiv_pos_site_id
 _symmetry_equiv_pos_as_xyz
  1  'x, y, z'
loop_
 _atom_site_type_symbol
 _atom_site_label
 _atom_site_symmetry_multiplicity
 _atom_site_fract_x
 _atom_site_fract_y
 _atom_site_fract_z
 _atom_site_occupancy
  Ag  Ag0  1  0.49896585  0.82744739  0.67157040  1
  Ag  Ag1  1  0.83760376  0.17552755  -0.00615398  1
  Ag  Ag2  1  0.67250154  0.49827327  0.83467305  1
  Ag  Ag3  1  0.84108546  0.01047317  0.83690211  1
  Ag  Ag4  1  0.15295427  0.33093152  0.83373204  1
  Ag  Ag5  1  0.50095438  0.17850537  0.33426335  1
  Ag  Ag6  1  0.33236762  0.83551266  0.83457442  1
  Ag  Ag7  1  -0.00993743  0.33190275  0.67751948  1
  Ag  Ag8  1  -0.00043791  0.00463342  -0.00409066  1
  Ag  Ag9  1  0.83526315  0.65924850  0.16618459  1
  Ag  Ag10  1  0.67339097  0.33612956  0.33208437  1
  Ag  Ag11  1  0.15724398  0.17190298  0.33312136  1
  Ag  Ag12  1  0.83089186  0.49571961  -0.00410667  1
  Ag  Ag13  1  0.15628891  0.00523499  0.83723863  1
  Ag  Ag14  1  0.83333831  0.49112367  0.32935569  1
  Ag  Ag15  1  -0.00081927  0.49359301  0.15970121  1
  Ag  Ag16  1  0.34208472  0.50109208  0.49442387  1
  Ag  Ag17  1  0.82769108  0.49326196  0.67864664  1
  Ag  Ag18  1  0.66663269  0.33625554  -0.00774461  1
  Ag  Ag19  1  0.15955364  0.00227596  0.15854483  1
  Ag  Ag20  1  -0.00708445  0.49199040  0.83637574  1
  Ag  Ag21  1  0.33528400  0.66581904  0.66877805  1
  Ag  Ag22  1  0.66869195  0.65405878  -0.00034117  1
  Ag  Ag23  1  0.51031662  0.49532483  -0.00247949  1
  Ag  Ag24  1  0.32926021  -0.00174837  0.67021300  1
  Ag  Ag25  1  0.16174424  0.49836973  0.00218998  1
  Ag  Ag26  1  0.34037573  0.33743966  -0.00197296  1
  Ag  Ag27  1  -0.00162623  0.16537197  0.82748927  1
  Ag  Ag28  1  0.15809836  0.49236005  0.32533317  1
  Ag  Ag29  1  0.49998003  0.17684307  0.66752766  1
  Ag  Ag30  1  0.00154339  0.01133507  0.67989460  1
  Ag  Ag31  1  0.83590569  0.33384011  0.83238058  1
  Ag  Ag32  1  0.67053046  0.82845809  0.83375241  1
  Ag  Ag33  1  0.66252673  0.49804450  0.51024793  1
  Ag  Ag34  1  0.32980276  0.50210635  0.16655383  1
  Ag  Ag35  1  0.50471137  0.83047166  0.33493159  1
  Ag  Ag36  1  0.00129748  0.65635953  0.67204816  1
  Ag  Ag37  1  0.84216354  0.17530442  0.67745624  1
  Ag  Ag38  1  0.50342403  0.49577459  0.33384742  1
  Ag  Ag39  1  0.84063780  0.17120872  0.33074829  1
  Ag  Ag40  1  0.33399169  0.82774203  0.16008000  1
  Ag  Ag41  1  0.50718823  0.49680337  0.66566747  1
  Ag  Ag42  1  0.51009521  0.33580471  0.83489133  1
  Ag  Ag43  1  -0.00150694  0.01338959  0.32321479  1
  Ag  Ag44  1  0.67249698  0.33652704  0.67452957  1
  Ag  Ag45  1  -0.00088687  0.16778574  0.16804832  1
  Ag  Ag46  1  0.84081818  0.00197267  0.16242007  1
  Ag  Ag47  1  0.49845178  0.33669418  0.16141811  1
  Ag  Ag48  1  -0.00934022  0.33044173  0.33361198  1
  Ag  Ag49  1  0.49982591  0.66164552  0.50244570  1
  Ag  Ag50  1  0.83162856  0.83784826  0.32792653  1
  Ag  Ag51  1  0.16613511  0.83011055  -0.00319125  1
  Ag  Ag52  1  -0.00035996  0.84957518  0.83315570  1
  Ag  Ag53  1  0.15765282  0.16692581  0.67277813  1
  Sb  Sb54  1  0.16546209  0.49561409  0.67022817  1
  Sb  Sb55  1  0.00027628  0.83854512  0.16227482  1
  Sb  Sb56  1  0.16482842  0.66621183  0.83314184  1
  Sb  Sb57  1  0.83260755  0.33502714  0.50378108  1
  Sb  Sb58  1  0.50004239  0.00432224  0.83270199  1
  Sb  Sb59  1  0.32650559  0.00154357  -0.00279622  1
  Sb  Sb60  1  0.66656086  0.65852537  0.67106786  1
  Sb  Sb61  1  0.83684474  0.83198757  0.00022046  1
  Sb  Sb62  1  0.83364623  0.66171930  0.83685075  1
  Sb  Sb63  1  0.67494433  0.00397736  -0.00311069  1
  Sb  Sb64  1  -0.00368866  0.33260596  -0.00278257  1
  Sb  Sb65  1  0.16567107  0.33329301  0.50374448  1
  Sb  Sb66  1  0.66522621  0.83284337  0.16393888  1
  Sb  Sb67  1  0.83152609  0.83296529  0.66903154  1
  Sb  Sb68  1  0.33506360  0.17243687  0.50169507  1
  Sb  Sb69  1  0.16206668  0.66568861  0.16606507  1
  Sb  Sb70  1  0.32845302  0.16893453  0.16643138  1
  Sb  Sb71  1  0.16901360  0.83896495  0.67493735  1
  Sb  Sb72  1  0.17039835  0.66214705  0.50165885  1
  Sb  Sb73  1  0.49736359  0.82760808  -0.00243924  1
  Sb  Sb74  1  0.50278170  0.65885201  0.16883460  1
  Sb  Sb75  1  0.66583472  0.82592084  0.50284421  1
  Sb  Sb76  1  -0.00387189  0.66453895  -0.00300418  1
  Sb  Sb77  1  0.33528352  0.82857620  0.50368625  1
  Sb  Sb78  1  -0.00176880  0.49841805  0.50208970  1
  Sb  Sb79  1  0.33449954  0.33724164  0.32882202  1
  Sb  Sb80  1  0.16595237  0.00088531  0.50353974  1
  Sb  Sb81  1  0.49864765  -0.00359028  0.50143206  1
  Sb  Sb82  1  0.16531350  0.83647760  0.32368983  1
  Sb  Sb83  1  0.33573968  0.66134792  -0.00374004  1
  Sb  Sb84  1  0.49797314  0.00320475  0.16889627  1
  Sb  Sb85  1  0.33338481  0.49848291  0.83663735  1
  Sb  Sb86  1  0.33534408  0.33519357  0.67309413  1
  Sb  Sb87  1  0.67378828  0.16994771  0.16819871  1
  Sb  Sb88  1  0.67376203  0.17340274  0.83207118  1
  Sb  Sb89  1  0.33538117  0.66343272  0.33535785  1
  Sb  Sb90  1  0.66609574  0.17463172  0.50054726  1
  Sb  Sb91  1  0.32786497  0.16592800  0.83200012  1
  Sb  Sb92  1  0.50026084  0.66074633  0.82943711  1
  Sb  Sb93  1  0.83262535  0.33338960  0.16470340  1
  Sb  Sb94  1  0.83016210  0.66258151  0.49772500  1
  Sb  Sb95  1  0.67161366  0.00445337  0.33220323  1
  Sb  Sb96  1  -0.00239033  0.66233134  0.33412770  1
  Sb  Sb97  1  0.66898280  0.00583827  0.66961181  1
  Sb  Sb98  1  0.32973243  0.00042115  0.33516179  1
  Sb  Sb99  1  0.66673808  0.66035344  0.32938904  1
  Sb  Sb100  1  0.16755495  0.33323280  0.16172402  1
  Sb  Sb101  1  0.67001261  0.49591092  0.16124593  1
  Sb  Sb102  1  0.50624685  0.17554736  -0.00130776  1
  Sb  Sb103  1  0.15883533  0.17005920  -0.00156830  1
  Sb  Sb104  1  0.50140107  0.34149867  0.50155139  1
  Sb  Sb105  1  0.83521136  0.00066199  0.50087886  1
  Sb  Sb106  1  -0.00149470  0.83307695  0.50558422  1
  Sb  Sb107  1  -0.00138796  0.16650185  0.50154479  1
  Te  Te108  1  0.16209120  0.16388395  0.17052700  1
  Te  Te109  1  0.16967931  0.16668650  0.49330545  1
  Te  Te110  1  0.16214007  0.16713105  0.83209517  1
  Te  Te111  1  0.16523762  0.49935029  0.16596345  1
  Te  Te112  1  0.17024932  0.49914407  0.49223545  1
  Te  Te113  1  0.16511694  0.49572410  0.83701730  1
  Te  Te114  1  0.17055682  0.83538426  0.16085981  1
  Te  Te115  1  0.16677599  0.83091744  0.49643754  1
  Te  Te116  1  0.16372840  0.83394612  0.83763521  1
  Te  Te117  1  0.49844959  0.17236744  0.16795773  1
  Te  Te118  1  0.50032417  0.16376394  0.49995069  1
  Te  Te119  1  0.50009480  0.17192816  0.83056644  1
  Te  Te120  1  0.49879288  0.49775431  0.16774202  1
  Te  Te121  1  0.50144973  0.50137264  0.50111621  1
  Te  Te122  1  0.49915496  0.49534783  0.83359423  1
  Te  Te123  1  0.49481991  0.83423297  0.16753646  1
  Te  Te124  1  0.50051922  0.82761383  0.49810649  1
  Te  Te125  1  0.49715650  0.83483892  0.83063538  1
  Te  Te126  1  0.83873267  0.16461057  0.16982075  1
  Te  Te127  1  0.83020360  0.16539607  0.49259705  1
  Te  Te128  1  0.83533634  0.16855980  0.83265819  1
  Te  Te129  1  0.83668681  0.49847041  0.16781938  1
  Te  Te130  1  0.82822960  0.50124255  0.49048669  1
  Te  Te131  1  0.83317336  0.49911653  0.83460713  1
  Te  Te132  1  0.83280371  0.83729252  0.16908294  1
  Te  Te133  1  0.83194831  0.83127937  0.48943778  1
  Te  Te134  1  0.83528395  0.83352771  0.83353329  1
  Te  Te135  1  0.16319951  0.00233198  -0.00179072  1
  Te  Te136  1  0.16203894  0.00298495  0.33311865  1
  Te  Te137  1  0.16511584  0.00520190  0.66980562  1
  Te  Te138  1  0.16794763  0.33771552  -0.00445458  1
  Te  Te139  1  0.16763081  0.33320758  0.33280955  1
  Te  Te140  1  0.16758228  0.32692376  0.67086581  1
  Te  Te141  1  0.16816337  0.66329629  0.00083213  1
  Te  Te142  1  0.16666175  0.65854779  0.33442421  1
  Te  Te143  1  0.16522777  0.66669151  0.66588096  1
  Te  Te144  1  0.50039626  0.00176312  0.00288071  1
  Te  Te145  1  0.50065520  -0.00447577  0.33325993  1
  Te  Te146  1  0.50032247  -0.00077934  0.66722078  1
  Te  Te147  1  0.50426840  0.33639123  -0.00209529  1
  Te  Te148  1  0.49731171  0.33571340  0.33411375  1
  Te  Te149  1  0.50020792  0.33688431  0.66876612  1
  Te  Te150  1  0.50560544  0.65862644  0.00048732  1
  Te  Te151  1  0.50045933  0.66871911  0.33590493  1
  Te  Te152  1  0.50039977  0.66437377  0.66532307  1
  Te  Te153  1  0.83794855  -0.00073569  -0.00100853  1
  Te  Te154  1  0.83641278  0.00332894  0.33398715  1
  Te  Te155  1  0.83685733  0.00223801  0.67079064  1
  Te  Te156  1  0.83000668  0.33473243  -0.00086466  1
  Te  Te157  1  0.83288540  0.33219569  0.33148459  1
  Te  Te158  1  0.83278061  0.33399254  0.66661933  1
  Te  Te159  1  0.82952125  0.66275329  0.00503715  1
  Te  Te160  1  0.83230532  0.66735907  0.32919936  1
  Te  Te161  1  0.83865423  0.66338797  0.66541187  1
  Te  Te162  1  -0.00376819  0.16565695  0.00518817  1
  Te  Te163  1  0.00015736  0.16844847  0.33625169  1
  Te  Te164  1  -0.00080717  0.16909253  0.66655836  1
  Te  Te165  1  -0.00115114  0.49939640  0.00027110  1
  Te  Te166  1  -0.00143225  0.49865748  0.33464631  1
  Te  Te167  1  -0.00020277  0.49430817  0.66796669  1
  Te  Te168  1  0.00417122  0.83244303  -0.00555706  1
  Te  Te169  1  -0.00409385  0.83094341  0.33249488  1
  Te  Te170  1  0.00024777  0.83668003  0.67336872  1
  Te  Te171  1  0.33626929  0.17216978  0.00028825  1
  Te  Te172  1  0.34210914  0.16574938  0.33404083  1
  Te  Te173  1  0.33993574  0.16305319  0.66571938  1
  Te  Te174  1  0.33007606  0.49829653  0.00419055  1
  Te  Te175  1  0.33942073  0.50088221  0.32807914  1
  Te  Te176  1  0.33174003  0.50366946  0.66656550  1
  Te  Te177  1  0.32969127  0.83430962  -0.00105440  1
  Te  Te178  1  0.33425543  0.83366687  0.33087093  1
  Te  Te179  1  0.33626627  0.83298978  0.66864394  1
  Te  Te180  1  0.67627730  0.17252836  0.00072178  1
  Te  Te181  1  0.65883694  0.17137368  0.33433042  1
  Te  Te182  1  0.66077591  0.17417653  0.66454161  1
  Te  Te183  1  0.66853522  0.49664182  -0.00165406  1
  Te  Te184  1  0.66615693  0.49729173  0.32731004  1
  Te  Te185  1  0.66820215  0.49834805  0.67132417  1
  Te  Te186  1  0.66522456  0.83615007  -0.00579923  1
  Te  Te187  1  0.66645728  0.83407912  0.33367338  1
  Te  Te188  1  0.66258870  0.83375852  0.67042287  1
  Te  Te189  1  0.00071462  -0.00117493  0.16673596  1
  Te  Te190  1  0.00029250  -0.00272561  0.49641577  1
  Te  Te191  1  -0.00095881  0.00481386  0.83503327  1
  Te  Te192  1  0.00056674  0.33299174  0.17256110  1
  Te  Te193  1  0.00049178  0.33406902  0.49269670  1
  Te  Te194  1  -0.00295228  0.33257150  0.83496155  1
  Te  Te195  1  -0.00548384  0.66039612  0.16708034  1
  Te  Te196  1  -0.00063774  0.66688943  0.51175421  1
  Te  Te197  1  -0.00023162  0.65627684  0.82980781  1
  Te  Te198  1  0.32748343  -0.00223790  0.16734937  1
  Te  Te199  1  0.33286123  0.00052348  0.50931096  1
  Te  Te200  1  0.33189520  -0.00310815  0.82960199  1
  Te  Te201  1  0.33616458  0.33608275  0.15959734  1
  Te  Te202  1  0.33248208  0.34201671  0.50154623  1
  Te  Te203  1  0.33293006  0.33196869  0.83975598  1
  Te  Te204  1  0.33242172  0.66690502  0.16518732  1
  Te  Te205  1  0.33826530  0.66179301  0.50563869  1
  Te  Te206  1  0.33283536  0.67449522  0.82928710  1
  Te  Te207  1  0.67399255  0.00070989  0.16610086  1
  Te  Te208  1  0.66661956  -0.00239128  0.50037084  1
  Te  Te209  1  0.66944726  -0.00687513  0.83286888  1
  Te  Te210  1  0.65847405  0.33090820  0.17327539  1
  Te  Te211  1  0.66660099  0.34074132  0.49319326  1
  Te  Te212  1  0.66963305  0.33437579  0.83235855  1
  Te  Te213  1  0.67242357  0.66995472  0.15952680  1
  Te  Te214  1  0.66113688  0.65850431  0.49854601  1
  Te  Te215  1  0.66697506  0.66700911  0.83863763  1
