# generated using pymatgen
data_AgSbTe2
_symmetry_space_group_name_H-M   'P 1'
_cell_length_a   18.32189404
_cell_length_b   18.32202990
_cell_length_c   18.32668610
_cell_angle_alpha   90.00043776
_cell_angle_beta   90.00018048
_cell_angle_gamma   90.00117068
_symmetry_Int_Tables_number   1
_chemical_formula_structural   AgSbTe2
_chemical_formula_sum   'Ag54 Sb54 Te108'
_cell_volume   6152.16388605
_cell_formula_units_Z   54
loop_
 _symmetry_equiv_pos_site_id
 _symmetry_equiv_pos_as_xyz
  1  'x, y, z'
loop_
 _atom_site_type_symbol
 _atom_site_label
 _atom_site_symmetry_multiplicity
 _atom_site_fract_x
 _atom_site_fract_y
 _atom_site_fract_z
 _atom_site_occupancy
  Ag  Ag0  1  0.66560855  0.33423448  0.66722652  1
  Ag  Ag1  1  -0.00291412  0.33968225  0.66553496  1
  Ag  Ag2  1  0.66585175  0.16540378  0.49609004  1
  Ag  Ag3  1  0.84597391  0.83282251  -0.00384532  1
  Ag  Ag4  1  0.33487459  0.66562133  0.32616774  1
  Ag  Ag5  1  0.49650735  0.50294936  0.00565433  1
  Ag  Ag6  1  0.33568513  0.66537426  0.67193541  1
  Ag  Ag7  1  0.83496757  -0.00386667  0.83086586  1
  Ag  Ag8  1  -0.00059223  0.01082844  0.33344168  1
  Ag  Ag9  1  0.00295707  0.49221521  0.50648921  1
  Ag  Ag10  1  0.00358303  0.82994214  0.83927377  1
  Ag  Ag11  1  0.49476886  0.66015794  0.16354332  1
  Ag  Ag12  1  0.33872405  0.16047046  0.49675066  1
  Ag  Ag13  1  0.33433007  0.82935438  0.83395761  1
  Ag  Ag14  1  -0.00090534  0.32943416  0.32868618  1
  Ag  Ag15  1  0.00518673  0.49752056  0.16222894  1
  Ag  Ag16  1  0.66648769  0.01014422  0.33520046  1
  Ag  Ag17  1  0.16415830  0.82543552  -0.00174828  1
  Ag  Ag18  1  0.16549873  0.16673723  0.00721532  1
  Ag  Ag19  1  0.66800178  0.34056440  0.00892470  1
  Ag  Ag20  1  0.00723288  0.50560717  0.83566566  1
  Ag  Ag21  1  0.49831591  0.83041533  0.66801906  1
  Ag  Ag22  1  0.66208333  0.66184126  -0.00155572  1
  Ag  Ag23  1  0.00289440  0.82614322  0.15675227  1
  Ag  Ag24  1  0.00686459  0.65782765  0.67588346  1
  Ag  Ag25  1  0.16328031  0.50700356  0.00075910  1
  Ag  Ag26  1  0.00376121  0.17161159  0.17254291  1
  Ag  Ag27  1  0.66375511  0.17698065  0.17366390  1
  Ag  Ag28  1  0.49786735  0.83068615  0.33641588  1
  Ag  Ag29  1  0.17107537  0.66321865  0.16272354  1
  Ag  Ag30  1  0.16647593  0.49752046  0.32688861  1
  Ag  Ag31  1  0.49549611  0.50275962  0.32290900  1
  Ag  Ag32  1  0.16791468  -0.00237996  0.83744590  1
  Ag  Ag33  1  0.32746279  0.16572455  0.16882619  1
  Ag  Ag34  1  0.66666728  0.32896814  0.32451600  1
  Ag  Ag35  1  0.00031103  0.17064611  0.49334880  1
  Ag  Ag36  1  0.16154559  0.16976397  0.32747275  1
  Ag  Ag37  1  0.82802617  0.00330089  0.50303630  1
  Ag  Ag38  1  0.49760149  0.50517001  0.66835079  1
  Ag  Ag39  1  0.65580509  0.49573697  0.16327274  1
  Ag  Ag40  1  0.65671314  0.66230950  0.67248815  1
  Ag  Ag41  1  0.49931527  -0.00404059  0.82818454  1
  Ag  Ag42  1  0.50534622  0.34180540  0.16685935  1
  Ag  Ag43  1  -0.00074911  0.34369593  0.00590676  1
  Ag  Ag44  1  0.82701413  0.16570838  0.66362198  1
  Ag  Ag45  1  0.50196372  0.00157146  0.50288875  1
  Ag  Ag46  1  0.32925009  0.50909580  0.83500212  1
  Ag  Ag47  1  0.01055999  0.66221141  -0.00143032  1
  Ag  Ag48  1  0.65993537  0.83368024  0.83422153  1
  Ag  Ag49  1  0.32746912  0.66661912  -0.00007791  1
  Ag  Ag50  1  0.33115662  -0.00891120  -0.00392438  1
  Ag  Ag51  1  0.16142186  0.50256002  0.67634181  1
  Ag  Ag52  1  0.50328566  0.16682763  0.66244157  1
  Ag  Ag53  1  0.33750172  0.83564506  0.50646547  1
  Sb  Sb54  1  0.17062612  0.82540679  0.67491294  1
  Sb  Sb55  1  0.33221602  0.33806757  0.00249559  1
  Sb  Sb56  1  0.00553135  -0.00348813  0.00187393  1
  Sb  Sb57  1  0.66598633  0.16219472  0.83219554  1
  Sb  Sb58  1  0.16548916  0.00132063  0.16188191  1
  Sb  Sb59  1  0.33631941  -0.00642834  0.67152127  1
  Sb  Sb60  1  0.16901828  0.00232047  0.50263976  1
  Sb  Sb61  1  0.33342707  0.50025792  0.16233887  1
  Sb  Sb62  1  0.33350162  0.33590426  0.33069812  1
  Sb  Sb63  1  0.49747223  0.66992112  0.83575023  1
  Sb  Sb64  1  0.65737947  0.66334615  0.33036539  1
  Sb  Sb65  1  0.83008749  0.83705529  0.32946098  1
  Sb  Sb66  1  0.16647793  0.33555248  0.16602885  1
  Sb  Sb67  1  0.16390057  0.33417668  0.49848679  1
  Sb  Sb68  1  0.16509953  0.33402376  0.83544249  1
  Sb  Sb69  1  0.66250991  0.00000825  0.00196473  1
  Sb  Sb70  1  0.83513537  0.66657688  0.16391934  1
  Sb  Sb71  1  0.83760795  0.16211471  -0.00354574  1
  Sb  Sb72  1  0.16773429  0.66585476  0.49674412  1
  Sb  Sb73  1  0.83572764  0.00118434  0.16537889  1
  Sb  Sb74  1  0.83448724  0.32900820  0.83292566  1
  Sb  Sb75  1  0.33501238  0.33861542  0.66587175  1
  Sb  Sb76  1  0.49678078  0.17045605  -0.00007150  1
  Sb  Sb77  1  0.83541449  0.32619791  0.50159236  1
  Sb  Sb78  1  0.66487883  0.50455835  0.83660025  1
  Sb  Sb79  1  0.50150830  0.33273084  0.83547929  1
  Sb  Sb80  1  0.00524296  0.83517788  0.50187015  1
  Sb  Sb81  1  0.50216572  0.32985441  0.49715015  1
  Sb  Sb82  1  0.49595113  0.82736863  -0.00226510  1
  Sb  Sb83  1  0.83419847  0.67282258  0.50399904  1
  Sb  Sb84  1  0.83094102  0.33279881  0.16532873  1
  Sb  Sb85  1  0.49835780  0.67029399  0.50019067  1
  Sb  Sb86  1  0.33342202  0.16292078  0.83381279  1
  Sb  Sb87  1  0.82852610  0.83734015  0.67291512  1
  Sb  Sb88  1  0.33372676  -0.00145344  0.33104048  1
  Sb  Sb89  1  0.66321872  0.00268433  0.66354126  1
  Sb  Sb90  1  -0.00058944  0.00102633  0.66516540  1
  Sb  Sb91  1  0.16724444  0.66837322  0.84192539  1
  Sb  Sb92  1  0.33031651  0.83238710  0.16211930  1
  Sb  Sb93  1  0.49969075  -0.00126175  0.16783822  1
  Sb  Sb94  1  0.66818514  0.83031712  0.16255823  1
  Sb  Sb95  1  0.83588672  0.67202950  0.83516899  1
  Sb  Sb96  1  0.66050453  0.83883145  0.50454367  1
  Sb  Sb97  1  0.00147860  0.16556119  0.83399981  1
  Sb  Sb98  1  0.83697469  0.50481181  -0.00057818  1
  Sb  Sb99  1  0.33083981  0.50210601  0.50261836  1
  Sb  Sb100  1  0.49968311  0.16748742  0.33521391  1
  Sb  Sb101  1  0.16734122  0.17191845  0.66566007  1
  Sb  Sb102  1  0.83645710  0.49920837  0.33229523  1
  Sb  Sb103  1  0.83594072  0.49678637  0.66729694  1
  Sb  Sb104  1  0.17015084  0.83311616  0.32778894  1
  Sb  Sb105  1  0.00729569  0.66208033  0.32782722  1
  Sb  Sb106  1  0.66876692  0.49486048  0.49833580  1
  Sb  Sb107  1  0.83693738  0.16591126  0.33924254  1
  Te  Te108  1  0.16558798  0.16734592  0.16746525  1
  Te  Te109  1  0.16329900  0.16687537  0.49644749  1
  Te  Te110  1  0.16784639  0.16026478  0.83828211  1
  Te  Te111  1  0.16735937  0.50118090  0.16525259  1
  Te  Te112  1  0.16287277  0.50030716  0.49384133  1
  Te  Te113  1  0.16682054  0.49914183  0.83581602  1
  Te  Te114  1  0.16243534  0.83018399  0.16108497  1
  Te  Te115  1  0.17576047  0.83459308  0.50034041  1
  Te  Te116  1  0.16737750  0.83670632  0.83770510  1
  Te  Te117  1  0.50498977  0.16686741  0.16723496  1
  Te  Te118  1  0.50144439  0.16373727  0.50102449  1
  Te  Te119  1  0.49907600  0.16004903  0.82757510  1
  Te  Te120  1  0.49685752  0.50112633  0.16569757  1
  Te  Te121  1  0.49997728  0.49829714  0.50623197  1
  Te  Te122  1  0.49746168  0.49919831  0.82969915  1
  Te  Te123  1  0.50006549  0.82943308  0.17153103  1
  Te  Te124  1  0.49637129  0.83729865  0.50120965  1
  Te  Te125  1  0.49784006  0.83616449  0.83174108  1
  Te  Te126  1  0.83361429  0.16545586  0.16461321  1
  Te  Te127  1  0.83408169  0.16073215  0.50471219  1
  Te  Te128  1  0.83371980  0.15725768  0.82593450  1
  Te  Te129  1  0.83528862  0.50057491  0.16668102  1
  Te  Te130  1  0.84203800  0.50293342  0.49938992  1
  Te  Te131  1  0.84375996  0.49912787  0.83310964  1
  Te  Te132  1  0.84018641  0.83396862  0.15963851  1
  Te  Te133  1  0.83420385  0.84352923  0.50020510  1
  Te  Te134  1  0.83638129  0.83832982  0.83643762  1
  Te  Te135  1  0.17091520  0.00246937  -0.00246017  1
  Te  Te136  1  0.16236830  0.00285573  0.33362417  1
  Te  Te137  1  0.16767596  0.00000996  0.67466234  1
  Te  Te138  1  0.16074629  0.33202247  0.00018377  1
  Te  Te139  1  0.16213428  0.33508155  0.33252941  1
  Te  Te140  1  0.16180678  0.34163531  0.66774649  1
  Te  Te141  1  0.16682233  0.66486316  0.00440210  1
  Te  Te142  1  0.17424417  0.66476398  0.32649897  1
  Te  Te143  1  0.16650658  0.65995250  0.66370380  1
  Te  Te144  1  0.49375054  0.00066761  -0.00285074  1
  Te  Te145  1  0.50160532  -0.00295691  0.33580826  1
  Te  Te146  1  0.49938025  -0.00147391  0.66548696  1
  Te  Te147  1  0.50485631  0.33842561  0.00276318  1
  Te  Te148  1  0.50363718  0.33793247  0.32973556  1
  Te  Te149  1  0.50269174  0.33276171  0.66744406  1
  Te  Te150  1  0.50083943  0.66243616  0.00200207  1
  Te  Te151  1  0.49496600  0.66419625  0.33193575  1
  Te  Te152  1  0.49845607  0.66666145  0.66621718  1
  Te  Te153  1  0.83144639  -0.00571474  -0.00625382  1
  Te  Te154  1  0.83258645  -0.00062368  0.33785402  1
  Te  Te155  1  0.83231905  0.00427608  0.66624286  1
  Te  Te156  1  0.83317351  0.33164475  -0.00219960  1
  Te  Te157  1  0.83098490  0.33378178  0.33460236  1
  Te  Te158  1  0.83308247  0.32674943  0.66753377  1
  Te  Te159  1  0.82718977  0.67407299  0.00054015  1
  Te  Te160  1  0.83129413  0.66869788  0.33479675  1
  Te  Te161  1  0.83319686  0.66813966  0.66728471  1
  Te  Te162  1  0.00270664  0.16699836  0.00272038  1
  Te  Te163  1  0.00040473  0.16897190  0.33317880  1
  Te  Te164  1  0.00198026  0.17067194  0.66415156  1
  Te  Te165  1  0.00044425  0.50195811  0.00112380  1
  Te  Te166  1  0.00350024  0.49787179  0.32778747  1
  Te  Te167  1  -0.00082173  0.49992382  0.66667804  1
  Te  Te168  1  0.00356701  0.83450708  -0.00019077  1
  Te  Te169  1  0.00026008  0.83204989  0.33146610  1
  Te  Te170  1  0.00098681  0.82869882  0.67015808  1
  Te  Te171  1  0.32853324  0.16985379  0.00190962  1
  Te  Te172  1  0.32896145  0.16665680  0.33319436  1
  Te  Te173  1  0.33598444  0.16903058  0.66293866  1
  Te  Te174  1  0.33287308  0.50295680  -0.00361314  1
  Te  Te175  1  0.33282828  0.50322304  0.33587692  1
  Te  Te176  1  0.33429729  0.50413172  0.66766907  1
  Te  Te177  1  0.32977910  0.82960025  -0.00327365  1
  Te  Te178  1  0.33719070  0.83065994  0.33248678  1
  Te  Te179  1  0.33653841  0.82764675  0.66962366  1
  Te  Te180  1  0.66783565  0.17037543  0.00279409  1
  Te  Te181  1  0.66596335  0.16827194  0.33399810  1
  Te  Te182  1  0.66392928  0.16901911  0.66579788  1
  Te  Te183  1  0.66760438  0.50032000  0.00084938  1
  Te  Te184  1  0.66328423  0.49569364  0.33034544  1
  Te  Te185  1  0.66532565  0.50007900  0.66739506  1
  Te  Te186  1  0.66388738  0.83109935  -0.00340804  1
  Te  Te187  1  0.66086776  0.83313292  0.33292925  1
  Te  Te188  1  0.66121057  0.82921299  0.67115271  1
  Te  Te189  1  -0.00050182  0.00542621  0.17276674  1
  Te  Te190  1  0.00031431  0.00318672  0.49636763  1
  Te  Te191  1  -0.00024606  -0.00385014  0.83328256  1
  Te  Te192  1  -0.00026088  0.33427577  0.16671106  1
  Te  Te193  1  -0.00084140  0.33268505  0.49972161  1
  Te  Te194  1  -0.00071961  0.33590897  0.83306472  1
  Te  Te195  1  0.00174052  0.66518322  0.16249238  1
  Te  Te196  1  -0.00017618  0.66509330  0.50231812  1
  Te  Te197  1  0.00133602  0.66758449  0.83567109  1
  Te  Te198  1  0.33308400  0.00626533  0.16013077  1
  Te  Te199  1  0.33748864  -0.00005831  0.49986956  1
  Te  Te200  1  0.33488110  -0.00298430  0.83684221  1
  Te  Te201  1  0.34356421  0.32442258  0.16665224  1
  Te  Te202  1  0.33395233  0.32212496  0.49865799  1
  Te  Te203  1  0.33356405  0.34213689  0.83370217  1
  Te  Te204  1  0.33442599  0.66692193  0.16380316  1
  Te  Te205  1  0.33336575  0.67073431  0.50269108  1
  Te  Te206  1  0.33205787  0.66799037  0.83401596  1
  Te  Te207  1  0.66766988  0.00180364  0.17282889  1
  Te  Te208  1  0.66404323  0.00404011  0.49707444  1
  Te  Te209  1  0.66316754  -0.00548291  0.83383036  1
  Te  Te210  1  0.66615838  0.33476580  0.16558347  1
  Te  Te211  1  0.66868943  0.32746516  0.50547379  1
  Te  Te212  1  0.66804413  0.33398281  0.82971041  1
  Te  Te213  1  0.66283254  0.66188963  0.16263496  1
  Te  Te214  1  0.66740377  0.66575192  0.50674966  1
  Te  Te215  1  0.66808762  0.67146538  0.83380243  1
