# generated using pymatgen
data_AgSbTe2
_symmetry_space_group_name_H-M   'P 1'
_cell_length_a   18.32261716
_cell_length_b   18.32520773
_cell_length_c   18.32287424
_cell_angle_alpha   89.99818118
_cell_angle_beta   90.00337064
_cell_angle_gamma   89.99922628
_symmetry_Int_Tables_number   1
_chemical_formula_structural   AgSbTe2
_chemical_formula_sum   'Ag54 Sb54 Te108'
_cell_volume   6152.19388266
_cell_formula_units_Z   54
loop_
 _symmetry_equiv_pos_site_id
 _symmetry_equiv_pos_as_xyz
  1  'x, y, z'
loop_
 _atom_site_type_symbol
 _atom_site_label
 _atom_site_symmetry_multiplicity
 _atom_site_fract_x
 _atom_site_fract_y
 _atom_site_fract_z
 _atom_site_occupancy
  Ag  Ag0  1  0.82509914  0.83032691  0.34173961  1
  Ag  Ag1  1  0.83078835  0.83434842  0.66083945  1
  Ag  Ag2  1  0.67070550  0.83332837  0.17865253  1
  Ag  Ag3  1  0.50779655  0.65623480  0.83364398  1
  Ag  Ag4  1  0.16498652  0.66618086  0.17223755  1
  Ag  Ag5  1  0.33527689  0.50221568  0.50479484  1
  Ag  Ag6  1  0.83626925  0.33248023  0.17237043  1
  Ag  Ag7  1  0.66767325  0.66910209  0.33739179  1
  Ag  Ag8  1  0.16458734  0.49773892  -0.00212465  1
  Ag  Ag9  1  -0.00666592  0.33177359  0.00476823  1
  Ag  Ag10  1  0.33288722  0.17331428  0.83524221  1
  Ag  Ag11  1  0.33530856  0.34102231  0.66900742  1
  Ag  Ag12  1  0.67212549  0.33646913  0.33515713  1
  Ag  Ag13  1  0.50270743  0.33822401  0.83524081  1
  Ag  Ag14  1  -0.00912949  0.33644757  0.32846681  1
  Ag  Ag15  1  0.51170665  0.00230937  0.49633346  1
  Ag  Ag16  1  -0.00219170  0.65728735  0.33575447  1
  Ag  Ag17  1  0.16683258  0.16592747  0.32645126  1
  Ag  Ag18  1  0.15704984  0.16860323  0.00139716  1
  Ag  Ag19  1  0.67095330  0.83587719  0.49563756  1
  Ag  Ag20  1  0.83057953  0.66333554  0.82611867  1
  Ag  Ag21  1  0.83182555  0.00715116  0.82827703  1
  Ag  Ag22  1  0.83680796  0.16666106  -0.00675835  1
  Ag  Ag23  1  0.83319012  0.83946698  -0.00203971  1
  Ag  Ag24  1  0.83253321  0.49877541  0.66527630  1
  Ag  Ag25  1  -0.00494286  0.49422645  0.83644162  1
  Ag  Ag26  1  0.33494529  0.66526670  0.33819619  1
  Ag  Ag27  1  0.15935663  0.83435448  -0.00005881  1
  Ag  Ag28  1  0.00089156  0.17461523  0.16654157  1
  Ag  Ag29  1  0.67402007  0.33034928  -0.00139664  1
  Ag  Ag30  1  0.34339713  0.49608596  0.82821131  1
  Ag  Ag31  1  0.83234183  0.66319380  0.50207434  1
  Ag  Ag32  1  0.67080077  0.00805705  -0.00706923  1
  Ag  Ag33  1  -0.00967246  0.17567316  0.49639914  1
  Ag  Ag34  1  0.67108563  0.00306865  0.66464141  1
  Ag  Ag35  1  0.83198676  0.33290174  0.49592552  1
  Ag  Ag36  1  0.15857577  0.00540947  0.83606048  1
  Ag  Ag37  1  -0.01069216  0.49677659  0.49540479  1
  Ag  Ag38  1  0.67432478  0.17079478  0.83277921  1
  Ag  Ag39  1  0.33704370  0.00325634  0.33610999  1
  Ag  Ag40  1  0.16018071  0.66441853  0.49290536  1
  Ag  Ag41  1  0.49931807  0.16775522  0.33470128  1
  Ag  Ag42  1  0.50262135  0.50116505  0.33421611  1
  Ag  Ag43  1  -0.00855409  0.17299024  0.83968312  1
  Ag  Ag44  1  0.67375768  0.16258818  0.50186432  1
  Ag  Ag45  1  0.82856079  0.00449457  0.50683482  1
  Ag  Ag46  1  0.32448391  0.16770206  0.16699989  1
  Ag  Ag47  1  0.67129863  0.49907335  0.49979167  1
  Ag  Ag48  1  0.49929880  0.49783569  -0.00989075  1
  Ag  Ag49  1  0.33380208  0.65886782  0.66047996  1
  Ag  Ag50  1  0.83175217  0.16618328  0.66980296  1
  Ag  Ag51  1  -0.00037826  0.49338964  0.16988251  1
  Ag  Ag52  1  0.50883697  0.82841785  0.33505419  1
  Ag  Ag53  1  0.66564911  0.49442304  0.83147356  1
  Sb  Sb54  1  0.50725005  0.83097991  0.66173659  1
  Sb  Sb55  1  0.50567515  0.82921577  0.00367507  1
  Sb  Sb56  1  -0.00195440  0.66236305  0.66149152  1
  Sb  Sb57  1  0.50207509  0.00202738  0.17379327  1
  Sb  Sb58  1  0.16037371  0.33850983  0.49731447  1
  Sb  Sb59  1  0.33561884  0.83515475  0.16958698  1
  Sb  Sb60  1  0.16096004  0.16568106  0.66934713  1
  Sb  Sb61  1  0.67227367  0.50124715  0.16872780  1
  Sb  Sb62  1  0.50615551  0.16821561  0.66461866  1
  Sb  Sb63  1  -0.00982756  0.82938929  0.49705161  1
  Sb  Sb64  1  0.49864842  0.66448721  0.16812301  1
  Sb  Sb65  1  0.33895363  0.82728297  0.49764317  1
  Sb  Sb66  1  0.50636316  0.00321284  0.82976033  1
  Sb  Sb67  1  0.00108132  0.00436277  0.33508789  1
  Sb  Sb68  1  0.67027099  0.83351749  0.83133938  1
  Sb  Sb69  1  0.33900228  0.00139306  0.66335407  1
  Sb  Sb70  1  0.83172403  0.00367549  0.16643350  1
  Sb  Sb71  1  0.50421485  0.66634491  0.49953749  1
  Sb  Sb72  1  0.33377149  0.17237536  0.50074155  1
  Sb  Sb73  1  0.16335355  0.66548240  0.83441624  1
  Sb  Sb74  1  0.16551331  0.49969087  0.33150309  1
  Sb  Sb75  1  0.66806418  0.66765057  0.66276575  1
  Sb  Sb76  1  0.83022023  0.50198436  0.34233917  1
  Sb  Sb77  1  0.33293858  0.33315787  -0.00277977  1
  Sb  Sb78  1  0.50313921  0.17094351  0.00160003  1
  Sb  Sb79  1  0.50665058  0.33336027  0.16447808  1
  Sb  Sb80  1  0.33289356  0.83114808  0.83254747  1
  Sb  Sb81  1  0.83294480  0.16672517  0.33766704  1
  Sb  Sb82  1  0.50337762  0.50005435  0.66718801  1
  Sb  Sb83  1  0.66485661  -0.00022165  0.33854343  1
  Sb  Sb84  1  0.33194742  0.66438725  0.00068536  1
  Sb  Sb85  1  -0.00493678  0.83183932  0.16649015  1
  Sb  Sb86  1  0.67066053  0.16482819  0.16786432  1
  Sb  Sb87  1  0.67002564  0.66354683  0.00115085  1
  Sb  Sb88  1  0.33605110  0.00348566  0.00175791  1
  Sb  Sb89  1  0.66767409  0.33127403  0.66667708  1
  Sb  Sb90  1  -0.00160804  0.65809882  0.00396324  1
  Sb  Sb91  1  -0.01000814  0.00268448  0.66719824  1
  Sb  Sb92  1  0.16594870  0.83275808  0.33029990  1
  Sb  Sb93  1  -0.00132975  0.33365860  0.66686564  1
  Sb  Sb94  1  -0.00486096  0.83283534  0.83639617  1
  Sb  Sb95  1  0.83394925  0.49493545  -0.00634282  1
  Sb  Sb96  1  -0.00551788  0.00945879  -0.00213188  1
  Sb  Sb97  1  0.15839631  0.33444267  0.16664349  1
  Sb  Sb98  1  0.83655613  0.66300273  0.17063461  1
  Sb  Sb99  1  0.82941976  0.33172487  0.83207699  1
  Sb  Sb100  1  0.16013569  0.83109656  0.67037597  1
  Sb  Sb101  1  0.32857653  0.49621562  0.16665287  1
  Sb  Sb102  1  0.16368510  -0.00183217  0.50273026  1
  Sb  Sb103  1  0.16852204  0.32998585  0.83539586  1
  Sb  Sb104  1  0.16624577  0.50062275  0.66952250  1
  Sb  Sb105  1  0.33578499  0.33434938  0.33665937  1
  Sb  Sb106  1  0.16649636  0.00040355  0.16169124  1
  Sb  Sb107  1  0.50730701  0.33209928  0.50088724  1
  Te  Te108  1  0.16458043  0.16582045  0.16509597  1
  Te  Te109  1  0.16340652  0.16539846  0.49948262  1
  Te  Te110  1  0.16750264  0.16437705  0.83447824  1
  Te  Te111  1  0.16182928  0.50397397  0.16205095  1
  Te  Te112  1  0.16934513  0.50568953  0.50040101  1
  Te  Te113  1  0.16184544  0.50082530  0.83771749  1
  Te  Te114  1  0.16624018  0.82937082  0.16104004  1
  Te  Te115  1  0.16464976  0.82690592  0.50068645  1
  Te  Te116  1  0.16501894  0.83800532  0.83926262  1
  Te  Te117  1  0.49476031  0.16764524  0.17221354  1
  Te  Te118  1  0.50162739  0.16446345  0.49571304  1
  Te  Te119  1  0.49910032  0.16986770  0.83408041  1
  Te  Te120  1  0.49896063  0.49964917  0.16941710  1
  Te  Te121  1  0.50277377  0.49926080  0.49658056  1
  Te  Te122  1  0.50218305  0.49935085  0.83131943  1
  Te  Te123  1  0.50580775  0.83255898  0.17283655  1
  Te  Te124  1  0.50646247  0.83679169  0.49446557  1
  Te  Te125  1  0.50053912  0.82833094  0.83396176  1
  Te  Te126  1  0.83693608  0.17060834  0.16199352  1
  Te  Te127  1  0.83241909  0.16581805  0.49822298  1
  Te  Te128  1  0.83174278  0.16746621  0.83291821  1
  Te  Te129  1  0.84019815  0.49495868  0.16233742  1
  Te  Te130  1  0.83205863  0.50192016  0.50233524  1
  Te  Te131  1  0.83099703  0.49932634  0.82901792  1
  Te  Te132  1  0.83000874  0.83240138  0.16286426  1
  Te  Te133  1  0.83062560  0.83138259  0.50081080  1
  Te  Te134  1  0.83301045  0.83430361  0.83540826  1
  Te  Te135  1  0.16855155  0.00282838  -0.00534923  1
  Te  Te136  1  0.17179412  0.00355829  0.33391510  1
  Te  Te137  1  0.16884366  -0.00287511  0.67517884  1
  Te  Te138  1  0.16224571  0.33189568  0.00068780  1
  Te  Te139  1  0.16284119  0.32591450  0.33315972  1
  Te  Te140  1  0.17663278  0.33266313  0.66482668  1
  Te  Te141  1  0.16521187  0.66579199  0.00302531  1
  Te  Te142  1  0.16704934  0.66696989  0.33403833  1
  Te  Te143  1  0.17281032  0.66822483  0.66109982  1
  Te  Te144  1  0.50804301  -0.00178071  -0.00052266  1
  Te  Te145  1  0.49749424  0.00290588  0.33774713  1
  Te  Te146  1  0.50741529  -0.00099908  0.65797571  1
  Te  Te147  1  0.50501158  0.33809196  -0.00287682  1
  Te  Te148  1  0.50455596  0.33473040  0.33275652  1
  Te  Te149  1  0.49420495  0.33315496  0.67307143  1
  Te  Te150  1  0.50039184  0.66032118  -0.00478521  1
  Te  Te151  1  0.50184350  0.66494717  0.33350130  1
  Te  Te152  1  0.49459046  0.66758713  0.67339682  1
  Te  Te153  1  0.83012120  0.00108257  -0.00037771  1
  Te  Te154  1  0.83422509  -0.00763381  0.33617960  1
  Te  Te155  1  0.82945896  0.00260062  0.66726500  1
  Te  Te156  1  0.83357219  0.32995688  -0.00094167  1
  Te  Te157  1  0.83260747  0.33273810  0.33501925  1
  Te  Te158  1  0.83322880  0.33307398  0.65762463  1
  Te  Te159  1  0.83409410  0.67379927  -0.00365982  1
  Te  Te160  1  0.83174882  0.66897643  0.33514551  1
  Te  Te161  1  0.83287337  0.66494290  0.66652236  1
  Te  Te162  1  -0.00078519  0.17044127  -0.00170500  1
  Te  Te163  1  0.00051687  0.16962094  0.33446226  1
  Te  Te164  1  -0.00651487  0.16842983  0.66551731  1
  Te  Te165  1  0.00107747  0.49370543  -0.00216008  1
  Te  Te166  1  0.00108408  0.49773482  0.33532005  1
  Te  Te167  1  -0.00374912  0.49883062  0.66653836  1
  Te  Te168  1  -0.00044576  0.83359884  0.00195592  1
  Te  Te169  1  -0.00326744  0.82885506  0.33132309  1
  Te  Te170  1  -0.00980384  0.83207838  0.66752055  1
  Te  Te171  1  0.33180933  0.16673897  -0.00239006  1
  Te  Te172  1  0.33267994  0.16757034  0.33528379  1
  Te  Te173  1  0.33335794  0.16721385  0.67149420  1
  Te  Te174  1  0.33289383  0.49902097  -0.00354841  1
  Te  Te175  1  0.33513487  0.50250262  0.33453360  1
  Te  Te176  1  0.33272762  0.50173110  0.66857864  1
  Te  Te177  1  0.33006298  0.83431566  0.00196101  1
  Te  Te178  1  0.33623951  0.83105056  0.33261000  1
  Te  Te179  1  0.33352982  0.82963438  0.66578462  1
  Te  Te180  1  0.66811198  0.16923248  -0.00058907  1
  Te  Te181  1  0.66400984  0.16975583  0.33489231  1
  Te  Te182  1  0.67088092  0.16503829  0.66647370  1
  Te  Te183  1  0.66399617  0.49609043  -0.00108253  1
  Te  Te184  1  0.66439855  0.49805361  0.33317808  1
  Te  Te185  1  0.67086013  0.50003442  0.66700986  1
  Te  Te186  1  0.66972412  0.83271006  -0.00041568  1
  Te  Te187  1  0.66679154  0.83550365  0.33598583  1
  Te  Te188  1  0.67278308  0.83653511  0.66037724  1
  Te  Te189  1  0.00047164  0.00957119  0.16755489  1
  Te  Te190  1  -0.00431224  0.00664325  0.50037622  1
  Te  Te191  1  -0.00355572  0.00453502  0.83314007  1
  Te  Te192  1  -0.00316327  0.33307429  0.16828503  1
  Te  Te193  1  -0.00433429  0.33594175  0.50012847  1
  Te  Te194  1  0.00059066  0.33327700  0.83466420  1
  Te  Te195  1  0.00365293  0.66288626  0.17275558  1
  Te  Te196  1  -0.00371970  0.66302744  0.49598963  1
  Te  Te197  1  -0.00600142  0.66069208  0.83258548  1
  Te  Te198  1  0.33393203  0.00616700  0.17340511  1
  Te  Te199  1  0.33274381  -0.00046596  0.49572133  1
  Te  Te200  1  0.33702188  0.00358263  0.83223257  1
  Te  Te201  1  0.33386604  0.32692366  0.16742093  1
  Te  Te202  1  0.33338943  0.34122174  0.50453140  1
  Te  Te203  1  0.33545542  0.33480667  0.83295059  1
  Te  Te204  1  0.32771973  0.66626226  0.17271029  1
  Te  Te205  1  0.33804853  0.66245727  0.49884662  1
  Te  Te206  1  0.33212837  0.66246923  0.83224066  1
  Te  Te207  1  0.66704565  -0.00470733  0.15802634  1
  Te  Te208  1  0.66986722  0.00298258  0.49908582  1
  Te  Te209  1  0.67021363  0.00222601  0.83216081  1
  Te  Te210  1  0.67413426  0.33307073  0.16847360  1
  Te  Te211  1  0.67030198  0.33652472  0.49940827  1
  Te  Te212  1  0.66388784  0.33288276  0.83296282  1
  Te  Te213  1  0.66742862  0.67027596  0.17356618  1
  Te  Te214  1  0.66988558  0.66188427  0.49739999  1
  Te  Te215  1  0.66960918  0.66257183  0.83241929  1
