# generated using pymatgen
data_AgSbTe2
_symmetry_space_group_name_H-M   'P 1'
_cell_length_a   18.33869225
_cell_length_b   18.32932802
_cell_length_c   18.33936629
_cell_angle_alpha   89.99598269
_cell_angle_beta   89.99703495
_cell_angle_gamma   89.99665159
_symmetry_Int_Tables_number   1
_chemical_formula_structural   AgSbTe2
_chemical_formula_sum   'Ag54 Sb54 Te108'
_cell_volume   6164.51946207
_cell_formula_units_Z   54
loop_
 _symmetry_equiv_pos_site_id
 _symmetry_equiv_pos_as_xyz
  1  'x, y, z'
loop_
 _atom_site_type_symbol
 _atom_site_label
 _atom_site_symmetry_multiplicity
 _atom_site_fract_x
 _atom_site_fract_y
 _atom_site_fract_z
 _atom_site_occupancy
  Ag  Ag0  1  0.50820433  -0.00272852  0.49997071  1
  Ag  Ag1  1  0.33809130  0.66073656  0.65812459  1
  Ag  Ag2  1  -0.00389785  0.01041212  0.33903461  1
  Ag  Ag3  1  0.33934454  0.66106505  -0.00199691  1
  Ag  Ag4  1  0.82979620  0.50005881  0.66224722  1
  Ag  Ag5  1  0.33869014  0.34304444  0.66374812  1
  Ag  Ag6  1  0.33781939  0.17470029  0.16899822  1
  Ag  Ag7  1  0.82144210  0.00466176  0.83139894  1
  Ag  Ag8  1  -0.00635956  0.00377611  0.65736165  1
  Ag  Ag9  1  0.50210498  0.00815717  0.17767509  1
  Ag  Ag10  1  0.82330762  0.66557851  0.82997615  1
  Ag  Ag11  1  0.17822089  0.50194592  0.65852771  1
  Ag  Ag12  1  0.33664409  0.50307321  0.49899009  1
  Ag  Ag13  1  0.82899994  0.17050732  0.00264203  1
  Ag  Ag14  1  0.66404120  0.66584440  -0.00543361  1
  Ag  Ag15  1  0.66536180  0.00345726  0.67071086  1
  Ag  Ag16  1  0.16550139  -0.00187091  0.82684432  1
  Ag  Ag17  1  0.66651881  0.32976016  0.33525384  1
  Ag  Ag18  1  0.34596585  0.82192935  0.49877892  1
  Ag  Ag19  1  0.66238297  0.84177023  0.50005019  1
  Ag  Ag20  1  0.82331825  0.32941276  0.17483011  1
  Ag  Ag21  1  -0.00924717  0.16640620  0.49620612  1
  Ag  Ag22  1  0.51114933  -0.00460670  0.82778217  1
  Ag  Ag23  1  0.49704390  0.50316960  0.00109526  1
  Ag  Ag24  1  0.66662372  0.16133497  0.49983708  1
  Ag  Ag25  1  0.82461177  0.33552849  0.49925490  1
  Ag  Ag26  1  0.82262823  0.65872270  0.50138800  1
  Ag  Ag27  1  0.34230670  0.65984275  0.34054069  1
  Ag  Ag28  1  -0.00155620  0.66544903  0.33676767  1
  Ag  Ag29  1  0.82831301  0.32851103  0.83057747  1
  Ag  Ag30  1  0.49630815  0.50419403  0.33948084  1
  Ag  Ag31  1  0.66492819  0.00432879  -0.01401018  1
  Ag  Ag32  1  -0.00272606  0.66329634  -0.00022296  1
  Ag  Ag33  1  0.50490212  0.34223594  0.49679754  1
  Ag  Ag34  1  0.17500431  0.50355671  -0.00336067  1
  Ag  Ag35  1  0.33681731  0.49841813  0.17640739  1
  Ag  Ag36  1  0.00338186  0.49931702  0.49958227  1
  Ag  Ag37  1  0.50047798  0.66269696  0.49678012  1
  Ag  Ag38  1  0.17649518  0.49997123  0.34009712  1
  Ag  Ag39  1  0.66756646  0.15835224  0.82989033  1
  Ag  Ag40  1  0.15916123  0.16833341  0.33616777  1
  Ag  Ag41  1  0.66100130  0.66625766  0.34283075  1
  Ag  Ag42  1  -0.00216886  0.16685516  0.17933942  1
  Ag  Ag43  1  0.50246205  0.82292700  0.33835390  1
  Ag  Ag44  1  0.50383866  0.66734069  0.82756415  1
  Ag  Ag45  1  0.50464657  0.33341296  0.17563644  1
  Ag  Ag46  1  0.17313022  0.66617822  0.83466603  1
  Ag  Ag47  1  0.66484654  0.84487722  0.82892807  1
  Ag  Ag48  1  0.66781252  0.32731680  0.00326988  1
  Ag  Ag49  1  0.50243075  0.16723523  0.66292110  1
  Ag  Ag50  1  0.49562624  0.49951308  0.65680249  1
  Ag  Ag51  1  0.66541182  0.00557849  0.33848449  1
  Ag  Ag52  1  0.16913239  0.00283115  0.50210092  1
  Ag  Ag53  1  0.83442126  0.16817131  0.33582771  1
  Sb  Sb54  1  0.83082706  0.49644785  0.34008805  1
  Sb  Sb55  1  0.83142365  0.65716975  0.16799199  1
  Sb  Sb56  1  0.33799528  -0.00001078  0.33567479  1
  Sb  Sb57  1  0.34107738  0.82926653  0.82727199  1
  Sb  Sb58  1  0.50374946  0.16933136  0.33752362  1
  Sb  Sb59  1  0.50254735  0.82864670  0.00253795  1
  Sb  Sb60  1  -0.00775489  0.16340845  0.82905278  1
  Sb  Sb61  1  0.34067635  0.16411977  0.83611824  1
  Sb  Sb62  1  0.66638957  0.16759750  0.16995039  1
  Sb  Sb63  1  0.66292063  0.32925750  0.66333448  1
  Sb  Sb64  1  0.83006478  0.83093290  0.66553953  1
  Sb  Sb65  1  -0.00374928  0.83373849  0.49858385  1
  Sb  Sb66  1  0.66114581  0.66920182  0.66544410  1
  Sb  Sb67  1  -0.00561793  0.83213637  0.83277103  1
  Sb  Sb68  1  0.66620913  0.50040125  0.83375616  1
  Sb  Sb69  1  -0.00481343  -0.00152997  0.00000780  1
  Sb  Sb70  1  0.83065929  0.49696067  -0.00447426  1
  Sb  Sb71  1  -0.00679151  0.33080065  0.33483526  1
  Sb  Sb72  1  0.34205969  0.34038231  -0.00154931  1
  Sb  Sb73  1  0.17099398  0.33447782  0.16857627  1
  Sb  Sb74  1  0.66219417  0.49859105  0.49899064  1
  Sb  Sb75  1  0.34109248  0.33852751  0.33683660  1
  Sb  Sb76  1  0.17190876  0.16848729  0.66100968  1
  Sb  Sb77  1  0.16889006  0.33319127  0.49804662  1
  Sb  Sb78  1  0.50627443  0.33628962  0.83045305  1
  Sb  Sb79  1  0.34088880  -0.00316509  0.00013242  1
  Sb  Sb80  1  0.17176720  0.83141010  0.33707812  1
  Sb  Sb81  1  -0.00063044  0.50200462  0.82845818  1
  Sb  Sb82  1  -0.00034810  0.83748456  0.16967554  1
  Sb  Sb83  1  0.50780074  0.16923350  -0.00150819  1
  Sb  Sb84  1  -0.00787649  0.33773266  0.00198414  1
  Sb  Sb85  1  0.00465758  0.49586668  0.17318609  1
  Sb  Sb86  1  0.16817039  0.82963451  0.66481073  1
  Sb  Sb87  1  0.16319747  0.33606781  0.83173343  1
  Sb  Sb88  1  0.33849325  0.82862263  0.17306543  1
  Sb  Sb89  1  0.16763472  0.66363738  0.16477202  1
  Sb  Sb90  1  0.33854842  -0.00211272  0.66405267  1
  Sb  Sb91  1  0.82625637  0.83653431  0.33730757  1
  Sb  Sb92  1  0.17149134  0.00481803  0.17084676  1
  Sb  Sb93  1  0.50025522  0.66083891  0.17033765  1
  Sb  Sb94  1  0.16789509  0.82659090  -0.00419193  1
  Sb  Sb95  1  0.00146641  0.66669052  0.66496878  1
  Sb  Sb96  1  0.50161255  0.83154809  0.65827677  1
  Sb  Sb97  1  0.82684661  0.00858337  0.16449970  1
  Sb  Sb98  1  0.33475596  0.50337353  0.82738234  1
  Sb  Sb99  1  0.00005671  0.33161014  0.66305530  1
  Sb  Sb100  1  0.16136355  0.17066209  0.00303485  1
  Sb  Sb101  1  0.17134795  0.66575930  0.50201091  1
  Sb  Sb102  1  0.66343303  0.83495700  0.17055607  1
  Sb  Sb103  1  0.82897326  0.83499811  -0.00247637  1
  Sb  Sb104  1  0.33815567  0.16895309  0.49602466  1
  Sb  Sb105  1  0.82889822  0.00315141  0.50304233  1
  Sb  Sb106  1  0.82694586  0.16928399  0.66411130  1
  Sb  Sb107  1  0.66026652  0.49659428  0.16702569  1
  Te  Te108  1  0.16282155  0.16773278  0.17154618  1
  Te  Te109  1  0.16603842  0.16409472  0.49640135  1
  Te  Te110  1  0.16666928  0.16366824  0.83341161  1
  Te  Te111  1  0.17308739  0.49890771  0.17010711  1
  Te  Te112  1  0.16587589  0.49963492  0.50003373  1
  Te  Te113  1  0.16535216  0.50375908  0.83490704  1
  Te  Te114  1  0.16869532  0.83599982  0.16606791  1
  Te  Te115  1  0.16650808  0.84314007  0.49994497  1
  Te  Te116  1  0.16688068  0.83181386  0.83182365  1
  Te  Te117  1  0.49713349  0.16895453  0.16614626  1
  Te  Te118  1  0.50256877  0.16414604  0.50271429  1
  Te  Te119  1  0.50529035  0.16316113  0.82926799  1
  Te  Te120  1  0.49593283  0.49507370  0.16481725  1
  Te  Te121  1  0.49867895  0.50182923  0.50014621  1
  Te  Te122  1  0.50029047  0.50502628  0.83775380  1
  Te  Te123  1  0.49969375  0.84524268  0.17549775  1
  Te  Te124  1  0.50212212  0.83335753  0.49735763  1
  Te  Te125  1  0.50526374  0.83150140  0.83542576  1
  Te  Te126  1  0.83517231  0.17134870  0.16856354  1
  Te  Te127  1  0.83121900  0.16906255  0.49879226  1
  Te  Te128  1  0.82841462  0.16524702  0.83081909  1
  Te  Te129  1  0.83553355  0.48871663  0.16610225  1
  Te  Te130  1  0.83590857  0.49934202  0.50150840  1
  Te  Te131  1  0.83406368  0.50542606  0.82772645  1
  Te  Te132  1  0.83285472  0.83341965  0.16709413  1
  Te  Te133  1  0.82654525  0.81990983  0.50065825  1
  Te  Te134  1  0.82662095  0.82954416  0.83217018  1
  Te  Te135  1  0.16630330  0.00008305  -0.00335699  1
  Te  Te136  1  0.16343685  0.00144721  0.33689730  1
  Te  Te137  1  0.16925737  0.00115630  0.66481051  1
  Te  Te138  1  0.16629380  0.34085983  -0.00119590  1
  Te  Te139  1  0.16654548  0.33563020  0.33347915  1
  Te  Te140  1  0.17229113  0.34059099  0.66716622  1
  Te  Te141  1  0.16643517  0.66231748  -0.00369274  1
  Te  Te142  1  0.16452112  0.66335412  0.33305134  1
  Te  Te143  1  0.16894747  0.66183240  0.67214489  1
  Te  Te144  1  0.50521588  -0.00014241  -0.00796079  1
  Te  Te145  1  0.50285233  0.00399087  0.33832431  1
  Te  Te146  1  0.50204592  0.00003294  0.66567053  1
  Te  Te147  1  0.50716545  0.33771208  -0.00070651  1
  Te  Te148  1  0.50566847  0.33566334  0.33523156  1
  Te  Te149  1  0.49859528  0.33827651  0.66487891  1
  Te  Te150  1  0.50185818  0.66409658  0.00425677  1
  Te  Te151  1  0.50092772  0.66422459  0.33283590  1
  Te  Te152  1  0.49782736  0.66364678  0.66786191  1
  Te  Te153  1  0.82854098  0.00444322  -0.00450867  1
  Te  Te154  1  0.83283188  0.00368317  0.33280456  1
  Te  Te155  1  0.83259241  0.00062194  0.67157264  1
  Te  Te156  1  0.82759038  0.33098712  -0.00526692  1
  Te  Te157  1  0.82721717  0.33025546  0.33683478  1
  Te  Te158  1  0.83242464  0.33726517  0.66467567  1
  Te  Te159  1  0.83106521  0.66513118  -0.00189974  1
  Te  Te160  1  0.83153494  0.66601426  0.33560876  1
  Te  Te161  1  0.83452395  0.66287165  0.66646847  1
  Te  Te162  1  -0.00758108  0.16726707  0.00045827  1
  Te  Te163  1  -0.00105894  0.16756926  0.33699945  1
  Te  Te164  1  0.00281755  0.16242888  0.66063587  1
  Te  Te165  1  0.00301007  0.50461772  0.00263364  1
  Te  Te166  1  0.00121883  0.50269255  0.33735775  1
  Te  Te167  1  -0.00176621  0.49981568  0.66026837  1
  Te  Te168  1  -0.00028558  0.82373596  0.00183221  1
  Te  Te169  1  -0.00007955  0.82780559  0.33309901  1
  Te  Te170  1  0.00051927  0.84578005  0.66579235  1
  Te  Te171  1  0.33070247  0.16720278  0.00681663  1
  Te  Te172  1  0.32709991  0.16805034  0.32818891  1
  Te  Te173  1  0.34068072  0.17001065  0.66700229  1
  Te  Te174  1  0.33385738  0.50201899  -0.00078646  1
  Te  Te175  1  0.33509400  0.50016919  0.33539627  1
  Te  Te176  1  0.33531203  0.50298782  0.66424897  1
  Te  Te177  1  0.33437379  0.82373016  0.00137416  1
  Te  Te178  1  0.33900050  0.82716931  0.33889622  1
  Te  Te179  1  0.33368647  0.82399512  0.65908227  1
  Te  Te180  1  0.67008628  0.16515067  -0.00090049  1
  Te  Te181  1  0.66883786  0.16772928  0.33639475  1
  Te  Te182  1  0.66258494  0.16347984  0.66407492  1
  Te  Te183  1  0.66320596  0.50381113  0.00048301  1
  Te  Te184  1  0.66132092  0.50436450  0.33200038  1
  Te  Te185  1  0.66801230  0.49919676  0.66689360  1
  Te  Te186  1  0.66641760  0.83329554  -0.00379720  1
  Te  Te187  1  0.66216945  0.82939425  0.33686766  1
  Te  Te188  1  0.66661626  0.84140535  0.66566127  1
  Te  Te189  1  -0.00059951  0.00490162  0.17084500  1
  Te  Te190  1  -0.00467278  0.00067696  0.49790745  1
  Te  Te191  1  0.00591190  -0.00147042  0.83316146  1
  Te  Te192  1  -0.00324132  0.32695854  0.16689050  1
  Te  Te193  1  -0.00341948  0.33275803  0.50014070  1
  Te  Te194  1  -0.00985457  0.33248118  0.83276713  1
  Te  Te195  1  -0.00096236  0.66602890  0.16856800  1
  Te  Te196  1  0.00201850  0.66561916  0.49839000  1
  Te  Te197  1  -0.00079349  0.66778016  0.83527446  1
  Te  Te198  1  0.34049125  0.00244312  0.16666687  1
  Te  Te199  1  0.33289213  0.00049294  0.50023219  1
  Te  Te200  1  0.32727951  -0.00293177  0.83304867  1
  Te  Te201  1  0.33974577  0.33561346  0.16573925  1
  Te  Te202  1  0.33834198  0.33693461  0.50337364  1
  Te  Te203  1  0.33295002  0.33060979  0.82712323  1
  Te  Te204  1  0.33377799  0.66124636  0.16614722  1
  Te  Te205  1  0.33346536  0.66457019  0.49831806  1
  Te  Te206  1  0.33553314  0.66857688  0.83792141  1
  Te  Te207  1  0.66074345  0.00021358  0.17579151  1
  Te  Te208  1  0.66787278  0.00040946  0.49832897  1
  Te  Te209  1  0.66622719  0.00105414  0.83108894  1
  Te  Te210  1  0.66507832  0.33291729  0.16665877  1
  Te  Te211  1  0.66505501  0.33103937  0.49793423  1
  Te  Te212  1  0.67021931  0.32938156  0.83641696  1
  Te  Te213  1  0.66765596  0.66721383  0.16128104  1
  Te  Te214  1  0.66329074  0.66636613  0.50107240  1
  Te  Te215  1  0.66441827  0.66610089  0.83200550  1
