# generated using pymatgen
data_AgSbTe2
_symmetry_space_group_name_H-M   'P 1'
_cell_length_a   18.33741720
_cell_length_b   18.33132844
_cell_length_c   18.32593403
_cell_angle_alpha   89.99879011
_cell_angle_beta   89.99946272
_cell_angle_gamma   89.99941782
_symmetry_Int_Tables_number   1
_chemical_formula_structural   AgSbTe2
_chemical_formula_sum   'Ag54 Sb54 Te108'
_cell_volume   6160.24837898
_cell_formula_units_Z   54
loop_
 _symmetry_equiv_pos_site_id
 _symmetry_equiv_pos_as_xyz
  1  'x, y, z'
loop_
 _atom_site_type_symbol
 _atom_site_label
 _atom_site_symmetry_multiplicity
 _atom_site_fract_x
 _atom_site_fract_y
 _atom_site_fract_z
 _atom_site_occupancy
  Ag  Ag0  1  0.49641708  0.17584857  -0.00632010  1
  Ag  Ag1  1  0.00330721  0.67486000  -0.00354625  1
  Ag  Ag2  1  0.16535134  0.49981432  -0.00709991  1
  Ag  Ag3  1  -0.00050057  0.16730327  0.16437737  1
  Ag  Ag4  1  0.49363463  0.48738055  -0.00380938  1
  Ag  Ag5  1  0.32878522  0.83090612  0.50921155  1
  Ag  Ag6  1  0.50774641  0.33194422  0.15112797  1
  Ag  Ag7  1  0.83613134  0.67456275  0.50711241  1
  Ag  Ag8  1  0.83341575  0.83847250  0.33691905  1
  Ag  Ag9  1  -0.00441724  0.15994928  0.49822105  1
  Ag  Ag10  1  0.83342607  0.16775745  0.66456807  1
  Ag  Ag11  1  0.65926116  0.33303088  -0.00499429  1
  Ag  Ag12  1  0.16156163  0.16718351  0.66834636  1
  Ag  Ag13  1  -0.00425652  0.83123943  0.83561191  1
  Ag  Ag14  1  0.00422569  -0.00042989  -0.00085919  1
  Ag  Ag15  1  0.67280676  0.49180818  0.83320495  1
  Ag  Ag16  1  0.66793650  0.83475725  0.83286110  1
  Ag  Ag17  1  0.50868617  0.16384964  0.67578697  1
  Ag  Ag18  1  0.66496162  0.66803842  0.66896107  1
  Ag  Ag19  1  0.49723339  0.83480258  -0.01318660  1
  Ag  Ag20  1  0.67032283  0.33176854  0.32793328  1
  Ag  Ag21  1  0.49330768  0.83274624  0.66989437  1
  Ag  Ag22  1  0.83084353  -0.00255085  0.83238335  1
  Ag  Ag23  1  -0.00184321  0.83697051  0.50562218  1
  Ag  Ag24  1  0.34597895  0.32673765  -0.00222688  1
  Ag  Ag25  1  0.83332537  0.67416871  0.82979252  1
  Ag  Ag26  1  -0.00160221  0.00339027  0.33465384  1
  Ag  Ag27  1  0.50569652  -0.00061234  0.83549310  1
  Ag  Ag28  1  0.82990179  0.33084659  0.83829918  1
  Ag  Ag29  1  0.16067960  0.83323511  -0.00859706  1
  Ag  Ag30  1  0.17089357  0.82742172  0.67108261  1
  Ag  Ag31  1  0.32927882  0.00031534  -0.00203783  1
  Ag  Ag32  1  0.83700322  -0.00060349  0.50210406  1
  Ag  Ag33  1  0.16599436  0.50920859  0.67173702  1
  Ag  Ag34  1  0.33272942  0.51174011  0.50236944  1
  Ag  Ag35  1  0.16396494  0.16708238  -0.00375399  1
  Ag  Ag36  1  0.50839542  0.32414735  0.83840952  1
  Ag  Ag37  1  0.15438131  0.16482042  0.33695009  1
  Ag  Ag38  1  0.83117999  0.33153420  0.15644098  1
  Ag  Ag39  1  0.16442358  0.66711195  0.16054496  1
  Ag  Ag40  1  0.00027209  0.32910565  0.67362871  1
  Ag  Ag41  1  0.83661889  0.16318873  0.34233157  1
  Ag  Ag42  1  0.67709666  0.16820524  0.51046039  1
  Ag  Ag43  1  -0.00529062  0.50062775  0.83530241  1
  Ag  Ag44  1  0.66613145  0.17089716  0.83005801  1
  Ag  Ag45  1  0.83349545  0.48915753  0.33696283  1
  Ag  Ag46  1  0.32959256  -0.00090771  0.33336402  1
  Ag  Ag47  1  0.49323145  0.67171986  0.50508848  1
  Ag  Ag48  1  -0.00161179  0.32945798  -0.00605254  1
  Ag  Ag49  1  0.16811055  0.67043859  0.50319445  1
  Ag  Ag50  1  0.84147661  0.83485274  -0.01324518  1
  Ag  Ag51  1  0.33890710  0.83359644  0.82994180  1
  Ag  Ag52  1  0.50266588  0.83474161  0.33823141  1
  Ag  Ag53  1  0.33435034  0.67097445  0.66416266  1
  Sb  Sb54  1  0.33242360  0.83293985  0.16327912  1
  Sb  Sb55  1  0.00009684  0.66706323  0.67080137  1
  Sb  Sb56  1  0.83534441  0.16591936  -0.00386383  1
  Sb  Sb57  1  -0.00160354  0.67286199  0.33188710  1
  Sb  Sb58  1  0.16001925  0.66911680  0.83094845  1
  Sb  Sb59  1  0.33835125  0.32773519  0.32885339  1
  Sb  Sb60  1  0.16186446  0.49678898  0.33452038  1
  Sb  Sb61  1  -0.00084259  0.00263364  0.66854056  1
  Sb  Sb62  1  0.50649398  0.67152202  0.82915923  1
  Sb  Sb63  1  0.83599953  0.49926959  -0.00343592  1
  Sb  Sb64  1  0.33045449  0.33538512  0.67383836  1
  Sb  Sb65  1  0.16314872  0.33403609  0.16144061  1
  Sb  Sb66  1  0.66990331  0.66484094  0.34263797  1
  Sb  Sb67  1  0.67053508  0.33304627  0.67313272  1
  Sb  Sb68  1  0.33258887  0.50458549  0.83156209  1
  Sb  Sb69  1  0.67109512  0.00249075  0.33634828  1
  Sb  Sb70  1  0.66563655  0.49745815  0.50582787  1
  Sb  Sb71  1  0.16498440  0.83719748  0.33545372  1
  Sb  Sb72  1  0.16410993  0.33300032  0.83567849  1
  Sb  Sb73  1  0.83479508  0.83672542  0.66911994  1
  Sb  Sb74  1  0.33072330  0.16088783  0.50157734  1
  Sb  Sb75  1  -0.00608825  0.16576791  0.83208747  1
  Sb  Sb76  1  0.49662766  0.50126815  0.67252401  1
  Sb  Sb77  1  0.66828322  0.83229850  0.15934538  1
  Sb  Sb78  1  0.33211824  0.49827122  0.16713832  1
  Sb  Sb79  1  0.50368354  0.16195672  0.33268351  1
  Sb  Sb80  1  0.00147854  0.50224623  0.50548864  1
  Sb  Sb81  1  -0.00032215  0.83722929  0.16216442  1
  Sb  Sb82  1  0.32855557  0.67032207  -0.00762539  1
  Sb  Sb83  1  0.50345202  0.50262962  0.33165885  1
  Sb  Sb84  1  0.83820375  0.49714526  0.66683846  1
  Sb  Sb85  1  0.16572941  0.33430340  0.50213704  1
  Sb  Sb86  1  0.32735659  0.16734864  0.16190101  1
  Sb  Sb87  1  0.50283678  -0.00506372  0.50432686  1
  Sb  Sb88  1  0.16138161  -0.00409899  0.50026438  1
  Sb  Sb89  1  0.49478343  0.66512469  0.16621925  1
  Sb  Sb90  1  0.66968725  0.83539345  0.50650614  1
  Sb  Sb91  1  0.16386262  -0.00152492  0.83531113  1
  Sb  Sb92  1  0.83638500  0.00475467  0.16562504  1
  Sb  Sb93  1  0.16516353  -0.00290111  0.16458636  1
  Sb  Sb94  1  0.49816047  0.00411795  0.15849739  1
  Sb  Sb95  1  0.66779472  0.49661601  0.15888300  1
  Sb  Sb96  1  0.34027956  0.15983063  0.83399022  1
  Sb  Sb97  1  0.50072594  0.33451827  0.50459280  1
  Sb  Sb98  1  -0.00629815  0.32571831  0.33180793  1
  Sb  Sb99  1  0.67134138  0.17014668  0.16322215  1
  Sb  Sb100  1  0.83344532  0.32886321  0.50190268  1
  Sb  Sb101  1  0.66688419  -0.00160511  0.66945415  1
  Sb  Sb102  1  0.33317235  0.67405496  0.34188223  1
  Sb  Sb103  1  0.83768736  0.66297086  0.16409208  1
  Sb  Sb104  1  0.33375048  -0.00597558  0.67009695  1
  Sb  Sb105  1  0.66652790  0.00400875  -0.00472388  1
  Sb  Sb106  1  -0.00121428  0.49500476  0.15909361  1
  Sb  Sb107  1  0.67031180  0.66405740  -0.00857959  1
  Te  Te108  1  0.16057947  0.16679689  0.16186268  1
  Te  Te109  1  0.16297811  0.16616859  0.50102787  1
  Te  Te110  1  0.16861805  0.16553220  0.83505647  1
  Te  Te111  1  0.16589827  0.50519070  0.16368622  1
  Te  Te112  1  0.16915047  0.50452054  0.50276571  1
  Te  Te113  1  0.16331796  0.49998426  0.83285281  1
  Te  Te114  1  0.16591448  0.82651997  0.16126056  1
  Te  Te115  1  0.16509098  0.83080470  0.50085204  1
  Te  Te116  1  0.16257033  0.83463841  0.83171591  1
  Te  Te117  1  0.50009080  0.17168489  0.16224406  1
  Te  Te118  1  0.50027516  0.16499739  0.50407393  1
  Te  Te119  1  0.50188127  0.16380981  0.83408486  1
  Te  Te120  1  0.50002402  0.49553975  0.16024252  1
  Te  Te121  1  0.49654111  0.50610790  0.50093940  1
  Te  Te122  1  0.50111712  0.50119904  0.83781289  1
  Te  Te123  1  0.50087014  0.83374626  0.17255466  1
  Te  Te124  1  0.50223701  0.83152058  0.50231598  1
  Te  Te125  1  0.50211352  0.83267278  0.82983408  1
  Te  Te126  1  0.83788601  0.17170059  0.16916958  1
  Te  Te127  1  0.83485962  0.16644863  0.50257069  1
  Te  Te128  1  0.82854693  0.16618409  0.83151683  1
  Te  Te129  1  0.83318848  0.49465178  0.17568015  1
  Te  Te130  1  0.83297915  0.50617771  0.49687555  1
  Te  Te131  1  0.83458049  0.49636953  0.83293546  1
  Te  Te132  1  0.83257871  0.83227044  0.17312968  1
  Te  Te133  1  0.83540246  0.83636087  0.50276756  1
  Te  Te134  1  0.83479513  0.83544769  0.83024856  1
  Te  Te135  1  0.16708146  0.00012465  -0.00004748  1
  Te  Te136  1  0.16430087  0.00522110  0.33214433  1
  Te  Te137  1  0.16721433  0.00412022  0.66751956  1
  Te  Te138  1  0.15847196  0.33252391  0.00070056  1
  Te  Te139  1  0.16879504  0.32640661  0.33027603  1
  Te  Te140  1  0.16321503  0.32871564  0.66838211  1
  Te  Te141  1  0.16414483  0.66723919  -0.00241236  1
  Te  Te142  1  0.16564746  0.66528675  0.33883187  1
  Te  Te143  1  0.16589547  0.66811839  0.66411029  1
  Te  Te144  1  0.49860083  -0.00649490  -0.00415897  1
  Te  Te145  1  0.49836923  -0.00470309  0.33243680  1
  Te  Te146  1  0.49957130  0.00161755  0.67233162  1
  Te  Te147  1  0.50202343  0.33214225  -0.00467167  1
  Te  Te148  1  0.50652754  0.33319559  0.33387394  1
  Te  Te149  1  0.49899708  0.32887913  0.67319096  1
  Te  Te150  1  0.49919482  0.67574540  0.00210336  1
  Te  Te151  1  0.50155053  0.67223463  0.33713225  1
  Te  Te152  1  0.49881983  0.66774341  0.66354605  1
  Te  Te153  1  0.83606550  -0.00414498  -0.00162182  1
  Te  Te154  1  0.83681100  0.00092917  0.33379241  1
  Te  Te155  1  0.83305333  0.00646532  0.66761566  1
  Te  Te156  1  0.83763303  0.33367087  -0.00133788  1
  Te  Te157  1  0.83037653  0.33001714  0.33626284  1
  Te  Te158  1  0.83734963  0.32939561  0.67209988  1
  Te  Te159  1  0.83817765  0.66983059  -0.00319016  1
  Te  Te160  1  0.83384461  0.67574691  0.33449389  1
  Te  Te161  1  0.83286047  0.66565907  0.66781895  1
  Te  Te162  1  0.00076755  0.16437490  -0.00173911  1
  Te  Te163  1  -0.00234391  0.16486150  0.33776296  1
  Te  Te164  1  0.00015609  0.16775102  0.66601272  1
  Te  Te165  1  0.00277224  0.49663873  -0.00489490  1
  Te  Te166  1  -0.00517163  0.49932290  0.33352825  1
  Te  Te167  1  0.00579735  0.49523400  0.67203244  1
  Te  Te168  1  0.00017440  0.83573644  -0.00039476  1
  Te  Te169  1  -0.00242102  0.84001939  0.33527220  1
  Te  Te170  1  0.00496689  0.83384823  0.66652209  1
  Te  Te171  1  0.33158553  0.16473126  -0.00109906  1
  Te  Te172  1  0.33187204  0.16043317  0.33264909  1
  Te  Te173  1  0.32737536  0.16661467  0.66654301  1
  Te  Te174  1  0.33006697  0.50035367  -0.00078267  1
  Te  Te175  1  0.33325108  0.49749117  0.34051589  1
  Te  Te176  1  0.32748808  0.50299514  0.66354789  1
  Te  Te177  1  0.33258605  0.83568247  -0.00313746  1
  Te  Te178  1  0.33375722  0.83938203  0.33395605  1
  Te  Te179  1  0.33189127  0.83258591  0.66769361  1
  Te  Te180  1  0.66390586  0.17106935  -0.00409176  1
  Te  Te181  1  0.67149154  0.16997815  0.33274729  1
  Te  Te182  1  0.66639929  0.16768153  0.66844478  1
  Te  Te183  1  0.66476223  0.49635528  -0.00776627  1
  Te  Te184  1  0.67127978  0.49560647  0.33535893  1
  Te  Te185  1  0.66588686  0.50429387  0.67346206  1
  Te  Te186  1  0.66739837  0.83251006  -0.00572811  1
  Te  Te187  1  0.66836408  0.83374408  0.33384441  1
  Te  Te188  1  0.66234366  0.82924260  0.67155056  1
  Te  Te189  1  -0.00004146  0.00665008  0.16489409  1
  Te  Te190  1  -0.00365138  -0.00102301  0.49948982  1
  Te  Te191  1  -0.00525213  -0.00388811  0.83767881  1
  Te  Te192  1  -0.00469227  0.32787913  0.16312481  1
  Te  Te193  1  0.00059582  0.33136652  0.50431359  1
  Te  Te194  1  -0.00194821  0.33215464  0.83302778  1
  Te  Te195  1  0.00439712  0.66585059  0.16012296  1
  Te  Te196  1  -0.00276594  0.67036274  0.50004108  1
  Te  Te197  1  -0.00618124  0.66819516  0.83651058  1
  Te  Te198  1  0.33298434  0.00012802  0.16661933  1
  Te  Te199  1  0.33443327  -0.00737073  0.49637271  1
  Te  Te200  1  0.33835230  -0.00687345  0.83797251  1
  Te  Te201  1  0.33988989  0.33363495  0.15973327  1
  Te  Te202  1  0.33442564  0.33543010  0.49951664  1
  Te  Te203  1  0.33877549  0.33622747  0.83945191  1
  Te  Te204  1  0.32569181  0.66501905  0.16959401  1
  Te  Te205  1  0.33283482  0.67168397  0.50340941  1
  Te  Te206  1  0.33472743  0.67284092  0.82539725  1
  Te  Te207  1  0.66667233  0.00062831  0.16704103  1
  Te  Te208  1  0.67407418  0.00783593  0.50081983  1
  Te  Te209  1  0.66929163  -0.00217806  0.83417116  1
  Te  Te210  1  0.66933017  0.33361893  0.16378998  1
  Te  Te211  1  0.66558892  0.32855020  0.49710908  1
  Te  Te212  1  0.66841749  0.33229576  0.83403465  1
  Te  Te213  1  0.66629895  0.66509204  0.16773210  1
  Te  Te214  1  0.67200631  0.66553295  0.50802005  1
  Te  Te215  1  0.67317824  0.67016902  0.82918397  1
