# generated using pymatgen
data_AgSbTe2
_symmetry_space_group_name_H-M   'P 1'
_cell_length_a   18.32303956
_cell_length_b   18.32639073
_cell_length_c   18.33078180
_cell_angle_alpha   89.99949127
_cell_angle_beta   89.99999026
_cell_angle_gamma   89.99911511
_symmetry_Int_Tables_number   1
_chemical_formula_structural   AgSbTe2
_chemical_formula_sum   'Ag54 Sb54 Te108'
_cell_volume   6155.38821450
_cell_formula_units_Z   54
loop_
 _symmetry_equiv_pos_site_id
 _symmetry_equiv_pos_as_xyz
  1  'x, y, z'
loop_
 _atom_site_type_symbol
 _atom_site_label
 _atom_site_symmetry_multiplicity
 _atom_site_fract_x
 _atom_site_fract_y
 _atom_site_fract_z
 _atom_site_occupancy
  Ag  Ag0  1  0.66920694  0.15590337  0.50551234  1
  Ag  Ag1  1  0.66953153  0.00109288  0.65441861  1
  Ag  Ag2  1  0.82726398  0.00318387  0.49309563  1
  Ag  Ag3  1  0.82760802  0.32730245  0.49699866  1
  Ag  Ag4  1  -0.00014738  0.67443622  0.33176237  1
  Ag  Ag5  1  0.66579149  0.33076607  0.33441755  1
  Ag  Ag6  1  0.66875516  0.66561518  0.00065682  1
  Ag  Ag7  1  -0.00795947  0.83004793  0.17100606  1
  Ag  Ag8  1  0.15540751  0.83225970  0.33261423  1
  Ag  Ag9  1  0.83152004  0.00479008  0.83749040  1
  Ag  Ag10  1  0.83545384  0.49932397  0.00103164  1
  Ag  Ag11  1  0.50293372  0.82815359  0.33640599  1
  Ag  Ag12  1  0.33867236  0.66424799  0.33399164  1
  Ag  Ag13  1  0.50876799  0.33640599  0.49400688  1
  Ag  Ag14  1  0.50742452  0.49468366  0.00332059  1
  Ag  Ag15  1  -0.01168394  -0.00837399  0.32984530  1
  Ag  Ag16  1  0.67566530  0.82946636  0.16942914  1
  Ag  Ag17  1  0.16208157  0.50386153  0.67250222  1
  Ag  Ag18  1  -0.00170125  0.49632285  0.84185996  1
  Ag  Ag19  1  0.50162747  0.49676252  0.33654814  1
  Ag  Ag20  1  -0.00434269  0.50163721  0.49439868  1
  Ag  Ag21  1  -0.00868673  0.50278190  0.16547469  1
  Ag  Ag22  1  0.33179968  0.50284548  0.83157281  1
  Ag  Ag23  1  0.83132576  0.49598058  0.66876552  1
  Ag  Ag24  1  0.67229078  0.50500982  0.16473530  1
  Ag  Ag25  1  0.15533930  0.82765097  0.00221374  1
  Ag  Ag26  1  0.34034640  0.16955593  0.16742281  1
  Ag  Ag27  1  0.83130000  0.16050055  -0.00347533  1
  Ag  Ag28  1  0.33695579  0.82969802  0.83349710  1
  Ag  Ag29  1  0.83538280  0.83996215  0.00418012  1
  Ag  Ag30  1  0.51108653  0.17188154  -0.00169916  1
  Ag  Ag31  1  0.51326316  -0.00201807  0.49826034  1
  Ag  Ag32  1  0.83374053  -0.00439337  0.16583213  1
  Ag  Ag33  1  0.66711426  0.83855734  0.83096812  1
  Ag  Ag34  1  -0.00761991  -0.00006695  0.00427882  1
  Ag  Ag35  1  -0.00961091  0.83187146  0.48689171  1
  Ag  Ag36  1  0.15288981  0.50439338  -0.00439648  1
  Ag  Ag37  1  0.67237773  0.16033172  0.82334963  1
  Ag  Ag38  1  0.67196137  0.00210729  0.34150270  1
  Ag  Ag39  1  -0.00700581  0.33576926  0.33142781  1
  Ag  Ag40  1  0.83261187  0.67440117  0.16566539  1
  Ag  Ag41  1  0.33824999  0.33711920  0.66098397  1
  Ag  Ag42  1  -0.00397531  0.34149092  0.00438049  1
  Ag  Ag43  1  0.50151939  0.33529875  0.17459844  1
  Ag  Ag44  1  0.67068234  0.84300169  0.49469158  1
  Ag  Ag45  1  0.50416699  0.66320513  0.49640848  1
  Ag  Ag46  1  0.34594557  0.33727026  0.33536430  1
  Ag  Ag47  1  -0.01116213  0.16937519  0.83671055  1
  Ag  Ag48  1  0.51100412  0.17256255  0.66554546  1
  Ag  Ag49  1  0.82751716  0.16653020  0.66616770  1
  Ag  Ag50  1  0.50437295  0.49434519  0.66065556  1
  Ag  Ag51  1  0.66678583  0.66996357  0.66724524  1
  Ag  Ag52  1  0.83148096  0.16366246  0.33732961  1
  Ag  Ag53  1  0.16484701  0.82919764  0.66649903  1
  Sb  Sb54  1  -0.00931575  -0.00097167  0.66545265  1
  Sb  Sb55  1  0.50821929  0.17104655  0.33550239  1
  Sb  Sb56  1  0.15888069  -0.00390504  0.83355130  1
  Sb  Sb57  1  0.33297590  0.83591512  0.16590680  1
  Sb  Sb58  1  0.83167108  0.83441136  0.66946461  1
  Sb  Sb59  1  0.50906197  0.00291667  0.17122191  1
  Sb  Sb60  1  0.83121667  0.66794732  0.83834672  1
  Sb  Sb61  1  0.16800538  0.66646546  0.49902419  1
  Sb  Sb62  1  0.16078749  0.16289770  0.33325211  1
  Sb  Sb63  1  0.16517345  0.33735551  0.83337673  1
  Sb  Sb64  1  0.67434269  -0.00313007  0.00165968  1
  Sb  Sb65  1  0.16779395  0.33556064  0.16734013  1
  Sb  Sb66  1  0.82980161  0.33264265  0.17055440  1
  Sb  Sb67  1  0.50231799  0.66579665  0.82885585  1
  Sb  Sb68  1  0.32841145  -0.00037278  -0.00002689  1
  Sb  Sb69  1  -0.00843021  0.66463667  0.00576269  1
  Sb  Sb70  1  0.50953190  -0.00028130  0.82957334  1
  Sb  Sb71  1  0.50754293  0.66064629  0.17229774  1
  Sb  Sb72  1  0.50267741  0.83228650  0.66042631  1
  Sb  Sb73  1  0.33418727  0.49953566  0.50290968  1
  Sb  Sb74  1  0.33894420  0.66471417  0.00404463  1
  Sb  Sb75  1  0.34645204  0.16972198  0.49601997  1
  Sb  Sb76  1  0.33577251  0.83243172  0.50174247  1
  Sb  Sb77  1  -0.00402093  0.83251306  0.83760602  1
  Sb  Sb78  1  -0.00577422  0.66401881  0.66093048  1
  Sb  Sb79  1  0.66806380  0.49885171  0.83603336  1
  Sb  Sb80  1  0.33715684  0.00049848  0.33358878  1
  Sb  Sb81  1  0.50066200  0.33444168  0.83107233  1
  Sb  Sb82  1  0.16548026  0.50352408  0.33268915  1
  Sb  Sb83  1  -0.01200815  0.16678483  0.50146720  1
  Sb  Sb84  1  0.66859568  0.66873432  0.33263952  1
  Sb  Sb85  1  0.82960671  0.66809879  0.49520108  1
  Sb  Sb86  1  -0.00025443  0.33661129  0.66524893  1
  Sb  Sb87  1  0.66409819  0.33015228  0.65917460  1
  Sb  Sb88  1  0.66850375  0.50065415  0.49725078  1
  Sb  Sb89  1  0.33300178  0.33578548  0.00143991  1
  Sb  Sb90  1  0.33836632  0.66223425  0.66306032  1
  Sb  Sb91  1  0.33780132  0.16857430  0.83537026  1
  Sb  Sb92  1  0.15984424  0.16817293  0.00001455  1
  Sb  Sb93  1  0.83342650  0.32787187  0.83050628  1
  Sb  Sb94  1  0.16025486  0.66676509  0.16736039  1
  Sb  Sb95  1  -0.00222460  0.16690065  0.16406450  1
  Sb  Sb96  1  0.16453541  0.16810039  0.66746545  1
  Sb  Sb97  1  0.83214915  0.49490942  0.33173505  1
  Sb  Sb98  1  0.15801177  -0.00207521  0.16686655  1
  Sb  Sb99  1  0.50651140  0.83340162  0.00457130  1
  Sb  Sb100  1  0.15947624  -0.00432623  0.49909200  1
  Sb  Sb101  1  0.34103032  0.00183066  0.66654637  1
  Sb  Sb102  1  0.33626421  0.49797186  0.16494585  1
  Sb  Sb103  1  0.16562902  0.66619943  0.83400871  1
  Sb  Sb104  1  0.16370583  0.33565536  0.49918394  1
  Sb  Sb105  1  0.83178200  0.84180491  0.32656325  1
  Sb  Sb106  1  0.67093739  0.33591561  0.00607620  1
  Sb  Sb107  1  0.66729941  0.16601098  0.16839132  1
  Te  Te108  1  0.17609532  0.16603806  0.16586231  1
  Te  Te109  1  0.16838123  0.16510276  0.50170359  1
  Te  Te110  1  0.16270455  0.16482884  0.83322209  1
  Te  Te111  1  0.16162570  0.50064777  0.16042554  1
  Te  Te112  1  0.15787309  0.50064160  0.50526951  1
  Te  Te113  1  0.16631482  0.50117163  0.83352586  1
  Te  Te114  1  0.16428432  0.83322067  0.16489793  1
  Te  Te115  1  0.16340200  0.83259057  0.49990278  1
  Te  Te116  1  0.16782976  0.83242182  0.83458091  1
  Te  Te117  1  0.50032921  0.17024527  0.16291401  1
  Te  Te118  1  0.50789307  0.17119892  0.50287299  1
  Te  Te119  1  0.50321313  0.16625201  0.83433547  1
  Te  Te120  1  0.50113554  0.49632021  0.16625190  1
  Te  Te121  1  0.50018518  0.49774521  0.49932985  1
  Te  Te122  1  0.49867604  0.50035039  0.83447032  1
  Te  Te123  1  0.50228136  0.83355995  0.17348208  1
  Te  Te124  1  0.50271202  0.83416593  0.49679452  1
  Te  Te125  1  0.50130774  0.83339447  0.83412619  1
  Te  Te126  1  0.83340694  0.16231894  0.16204792  1
  Te  Te127  1  0.82966890  0.16648523  0.50168315  1
  Te  Te128  1  0.83228034  0.16659409  0.83406459  1
  Te  Te129  1  0.83236268  0.49777066  0.16497782  1
  Te  Te130  1  0.83606765  0.50061012  0.50271262  1
  Te  Te131  1  0.83568006  0.49931212  0.83352352  1
  Te  Te132  1  0.83315635  0.83407491  0.16359151  1
  Te  Te133  1  0.83238820  0.83576913  0.50416955  1
  Te  Te134  1  0.82849147  0.83687671  0.83914513  1
  Te  Te135  1  0.15830547  -0.00560440  -0.00012744  1
  Te  Te136  1  0.16386604  -0.00727525  0.33378521  1
  Te  Te137  1  0.16796211  -0.00515576  0.66603382  1
  Te  Te138  1  0.15971081  0.33924350  0.00031731  1
  Te  Te139  1  0.16410344  0.33272676  0.33355215  1
  Te  Te140  1  0.17414898  0.33825250  0.66562724  1
  Te  Te141  1  0.17027248  0.66666683  0.00082700  1
  Te  Te142  1  0.16461421  0.67204194  0.33363263  1
  Te  Te143  1  0.16836616  0.66577225  0.66565399  1
  Te  Te144  1  0.49839812  0.00612849  0.00140472  1
  Te  Te145  1  0.50442648  -0.00033081  0.33808960  1
  Te  Te146  1  0.50698398  0.00451151  0.66200489  1
  Te  Te147  1  0.49964711  0.33317355  0.00198880  1
  Te  Te148  1  0.50224529  0.33275413  0.33407609  1
  Te  Te149  1  0.49853777  0.33421275  0.66504772  1
  Te  Te150  1  0.50695199  0.66301620  0.00160800  1
  Te  Te151  1  0.50140019  0.66423988  0.33613447  1
  Te  Te152  1  0.50496691  0.66210035  0.66080681  1
  Te  Te153  1  0.83522518  0.00054014  0.00067246  1
  Te  Te154  1  0.83270968  0.00328717  0.33370239  1
  Te  Te155  1  0.82853043  0.00189652  0.66811722  1
  Te  Te156  1  0.83733999  0.33606173  0.00141115  1
  Te  Te157  1  0.83220324  0.32871708  0.33564289  1
  Te  Te158  1  0.83350439  0.33514613  0.66012404  1
  Te  Te159  1  0.82806649  0.66250803  0.00424960  1
  Te  Te160  1  0.83882650  0.66227116  0.32807977  1
  Te  Te161  1  0.82695902  0.66119856  0.66640999  1
  Te  Te162  1  -0.00286303  0.16485620  -0.00259402  1
  Te  Te163  1  -0.00482229  0.17099722  0.33308236  1
  Te  Te164  1  -0.00420931  0.16764671  0.67363282  1
  Te  Te165  1  -0.00308079  0.50252756  0.00261450  1
  Te  Te166  1  0.00099004  0.49572101  0.33230986  1
  Te  Te167  1  -0.00113997  0.49994601  0.66503088  1
  Te  Te168  1  -0.00248361  0.83198426  0.00162174  1
  Te  Te169  1  -0.00296737  0.83450385  0.33114565  1
  Te  Te170  1  0.00511160  0.83196654  0.66773217  1
  Te  Te171  1  0.33398075  0.16741096  0.00236609  1
  Te  Te172  1  0.33052072  0.17088195  0.32948049  1
  Te  Te173  1  0.33485612  0.17278787  0.66859266  1
  Te  Te174  1  0.33762175  0.50068595  -0.00467840  1
  Te  Te175  1  0.33426398  0.49859015  0.33292794  1
  Te  Te176  1  0.33606313  0.49875446  0.66944365  1
  Te  Te177  1  0.33287839  0.83278304  -0.00416251  1
  Te  Te178  1  0.33740814  0.83208675  0.33293147  1
  Te  Te179  1  0.33002795  0.83262402  0.67135911  1
  Te  Te180  1  0.66893501  0.16772539  0.00076294  1
  Te  Te181  1  0.67142510  0.16636998  0.33422851  1
  Te  Te182  1  0.66785345  0.16727329  0.66529729  1
  Te  Te183  1  0.66755487  0.50204467  0.00146353  1
  Te  Te184  1  0.66229116  0.49928724  0.32897256  1
  Te  Te185  1  0.66682144  0.50091532  0.66796787  1
  Te  Te186  1  0.66863636  0.83018844  0.00245233  1
  Te  Te187  1  0.66426218  0.83382220  0.33423206  1
  Te  Te188  1  0.66589790  0.83361433  0.66858239  1
  Te  Te189  1  -0.00547566  -0.00072399  0.16754115  1
  Te  Te190  1  -0.00679474  -0.00355371  0.49609593  1
  Te  Te191  1  -0.00760504  0.00108605  0.83641773  1
  Te  Te192  1  -0.00007894  0.33638229  0.16731526  1
  Te  Te193  1  -0.00387313  0.33526890  0.49655743  1
  Te  Te194  1  -0.00028763  0.33513792  0.83753305  1
  Te  Te195  1  -0.00515354  0.66672203  0.17072445  1
  Te  Te196  1  -0.00017572  0.66905681  0.49395469  1
  Te  Te197  1  -0.00166795  0.65767659  0.83132047  1
  Te  Te198  1  0.33467215  0.00661238  0.16713724  1
  Te  Te199  1  0.33911203  0.00108514  0.50027781  1
  Te  Te200  1  0.33321624  -0.00505122  0.83279642  1
  Te  Te201  1  0.33804357  0.33102440  0.17032521  1
  Te  Te202  1  0.33560635  0.33415680  0.49698195  1
  Te  Te203  1  0.33258349  0.33785967  0.82937523  1
  Te  Te204  1  0.33331230  0.66711192  0.17486558  1
  Te  Te205  1  0.34102295  0.66674827  0.49261821  1
  Te  Te206  1  0.33511275  0.66652509  0.83331138  1
  Te  Te207  1  0.67253133  -0.00553427  0.17203291  1
  Te  Te208  1  0.66780331  -0.00073850  0.49883624  1
  Te  Te209  1  0.67197603  -0.00020141  0.83484057  1
  Te  Te210  1  0.66217871  0.33814371  0.17271102  1
  Te  Te211  1  0.66783914  0.33518588  0.49438631  1
  Te  Te212  1  0.66655626  0.32402860  0.83522224  1
  Te  Te213  1  0.67145976  0.66691683  0.16538139  1
  Te  Te214  1  0.66332286  0.66932857  0.50310178  1
  Te  Te215  1  0.66680229  0.67135388  0.83200141  1
