# generated using pymatgen
data_AgSbTe2
_symmetry_space_group_name_H-M   'P 1'
_cell_length_a   18.33904718
_cell_length_b   18.33910270
_cell_length_c   18.33722598
_cell_angle_alpha   90.00421533
_cell_angle_beta   90.00270695
_cell_angle_gamma   90.00436054
_symmetry_Int_Tables_number   1
_chemical_formula_structural   AgSbTe2
_chemical_formula_sum   'Ag54 Sb54 Te108'
_cell_volume   6167.20641797
_cell_formula_units_Z   54
loop_
 _symmetry_equiv_pos_site_id
 _symmetry_equiv_pos_as_xyz
  1  'x, y, z'
loop_
 _atom_site_type_symbol
 _atom_site_label
 _atom_site_symmetry_multiplicity
 _atom_site_fract_x
 _atom_site_fract_y
 _atom_site_fract_z
 _atom_site_occupancy
  Ag  Ag0  1  0.00172500  0.66027172  0.00396276  1
  Ag  Ag1  1  0.50538669  0.16921441  0.66503305  1
  Ag  Ag2  1  0.16708073  -0.00340254  0.83794538  1
  Ag  Ag3  1  0.16583000  0.83176834  0.33136941  1
  Ag  Ag4  1  0.32522858  0.32806409  0.00140752  1
  Ag  Ag5  1  0.82230407  0.49843223  0.65939650  1
  Ag  Ag6  1  0.67612217  0.33107763  -0.00092098  1
  Ag  Ag7  1  0.16580196  0.00152003  0.16388166  1
  Ag  Ag8  1  0.49646287  0.17180896  -0.00460523  1
  Ag  Ag9  1  0.66656502  0.33399361  0.65828537  1
  Ag  Ag10  1  -0.00459907  0.33476466  0.01053820  1
  Ag  Ag11  1  0.00049790  0.49845473  0.49946028  1
  Ag  Ag12  1  0.83684234  0.17669593  0.00548783  1
  Ag  Ag13  1  0.16511506  0.66905900  0.83703582  1
  Ag  Ag14  1  0.84156368  0.17814198  0.33014008  1
  Ag  Ag15  1  0.16022987  0.66874828  0.16623722  1
  Ag  Ag16  1  0.16533647  0.84158228  0.00921135  1
  Ag  Ag17  1  0.84305745  0.65403564  0.16400846  1
  Ag  Ag18  1  0.33123326  0.00152292  0.66417000  1
  Ag  Ag19  1  0.01019928  -0.00108497  0.66395024  1
  Ag  Ag20  1  0.49869585  0.83178371  0.66366162  1
  Ag  Ag21  1  0.34415746  0.49223857  0.49877335  1
  Ag  Ag22  1  0.68260185  0.33423185  0.34807123  1
  Ag  Ag23  1  0.83524892  0.66124071  0.83821406  1
  Ag  Ag24  1  0.16650152  0.16606480  0.00719429  1
  Ag  Ag25  1  0.32510871  0.00853830  -0.00049985  1
  Ag  Ag26  1  0.16326728  0.17475510  0.32787882  1
  Ag  Ag27  1  0.67017364  0.49374004  0.82243997  1
  Ag  Ag28  1  0.32790903  0.66153867  0.33600279  1
  Ag  Ag29  1  0.83557017  0.49130462  0.34229035  1
  Ag  Ag30  1  0.65615618  0.49080317  0.50362294  1
  Ag  Ag31  1  0.50076924  0.65322633  0.50760579  1
  Ag  Ag32  1  0.82057636  0.33643380  0.48564106  1
  Ag  Ag33  1  0.00380905  0.82716396  0.49699662  1
  Ag  Ag34  1  0.66303665  0.00992832  0.66496358  1
  Ag  Ag35  1  0.16485527  0.49191471  0.33917136  1
  Ag  Ag36  1  0.49578889  0.49783321  0.34435073  1
  Ag  Ag37  1  0.66630582  0.17524921  0.82469588  1
  Ag  Ag38  1  0.50511034  0.49793875  0.65670790  1
  Ag  Ag39  1  0.16643741  0.33869090  0.49161647  1
  Ag  Ag40  1  -0.00651103  0.33293863  0.33024746  1
  Ag  Ag41  1  0.83887514  0.33703266  0.17473545  1
  Ag  Ag42  1  0.83471478  0.49287816  0.00246796  1
  Ag  Ag43  1  0.66076098  0.18045346  0.50503176  1
  Ag  Ag44  1  0.00403597  0.17426891  0.16600731  1
  Ag  Ag45  1  0.16728138  0.83418352  0.66389765  1
  Ag  Ag46  1  0.00590394  0.83283673  0.17038942  1
  Ag  Ag47  1  0.16783258  0.50156552  0.65720999  1
  Ag  Ag48  1  0.15662222  0.32882475  0.17405765  1
  Ag  Ag49  1  0.66798705  0.83213359  0.50272752  1
  Ag  Ag50  1  0.50166493  0.66329413  0.82552030  1
  Ag  Ag51  1  0.51059704  0.34135970  0.49909216  1
  Ag  Ag52  1  0.33561605  0.17318061  0.49959695  1
  Ag  Ag53  1  0.32703782  0.00069087  0.33872594  1
  Sb  Sb54  1  0.17073118  0.65998981  0.49686997  1
  Sb  Sb55  1  0.67135915  0.49642646  0.17110072  1
  Sb  Sb56  1  0.82728612  0.17293213  0.66546376  1
  Sb  Sb57  1  0.49815692  0.66556395  0.16748348  1
  Sb  Sb58  1  0.50571427  0.49368744  -0.00295101  1
  Sb  Sb59  1  0.83383575  0.82753193  0.66426260  1
  Sb  Sb60  1  0.66130890  0.00793851  0.34067424  1
  Sb  Sb61  1  -0.00121934  0.49624058  0.17228884  1
  Sb  Sb62  1  -0.00395986  0.16681075  0.83870939  1
  Sb  Sb63  1  -0.00492953  0.50144452  0.82905157  1
  Sb  Sb64  1  0.00322951  0.66765986  0.66770958  1
  Sb  Sb65  1  0.67357367  0.66037340  -0.00258580  1
  Sb  Sb66  1  0.67362345  0.16924964  0.16772312  1
  Sb  Sb67  1  0.50414492  0.33542939  0.82685411  1
  Sb  Sb68  1  0.33703961  0.33133015  0.66413584  1
  Sb  Sb69  1  0.17036843  0.16605398  0.66510370  1
  Sb  Sb70  1  0.32416881  0.83453116  0.16894158  1
  Sb  Sb71  1  0.49332497  0.83575740  -0.00659412  1
  Sb  Sb72  1  0.32878230  0.49819589  0.17373773  1
  Sb  Sb73  1  -0.00392369  0.33211991  0.66202725  1
  Sb  Sb74  1  0.49892060  0.00337181  0.50330838  1
  Sb  Sb75  1  0.83355666  0.00700957  0.50049135  1
  Sb  Sb76  1  0.32546358  0.66489532  0.00355957  1
  Sb  Sb77  1  0.16704739  0.00256663  0.49890872  1
  Sb  Sb78  1  0.00388672  0.83224370  0.83333510  1
  Sb  Sb79  1  0.33679374  0.50081687  0.82737274  1
  Sb  Sb80  1  0.00648470  0.00404762  0.33618429  1
  Sb  Sb81  1  0.49094342  0.00256340  0.16517186  1
  Sb  Sb82  1  0.84312563  0.00589233  0.16642863  1
  Sb  Sb83  1  0.33421887  0.66779255  0.66155378  1
  Sb  Sb84  1  0.32928158  0.83347835  0.83071801  1
  Sb  Sb85  1  0.00539494  0.65867507  0.32878603  1
  Sb  Sb86  1  0.66497799  0.65780769  0.33591904  1
  Sb  Sb87  1  0.82998082  0.65542808  0.49897393  1
  Sb  Sb88  1  0.66539698  0.83137325  0.82635365  1
  Sb  Sb89  1  0.00079382  0.17191322  0.49569996  1
  Sb  Sb90  1  0.67565481  0.83310709  0.17188451  1
  Sb  Sb91  1  0.49553805  0.82761773  0.34201796  1
  Sb  Sb92  1  0.33066211  0.83307340  0.50064903  1
  Sb  Sb93  1  0.49649330  0.17287866  0.33844478  1
  Sb  Sb94  1  0.66131354  0.00966506  -0.00654820  1
  Sb  Sb95  1  0.16694908  0.33430245  0.83498326  1
  Sb  Sb96  1  0.84141285  0.83089307  0.00168461  1
  Sb  Sb97  1  0.32463688  0.16770140  0.16913149  1
  Sb  Sb98  1  0.50034077  0.33234634  0.16997963  1
  Sb  Sb99  1  0.33647293  0.16558674  0.83288066  1
  Sb  Sb100  1  0.16074352  0.49689888  0.00217799  1
  Sb  Sb101  1  0.83044790  0.33866983  0.83683632  1
  Sb  Sb102  1  0.84091986  0.82990364  0.33623956  1
  Sb  Sb103  1  0.66474589  0.66044076  0.66539141  1
  Sb  Sb104  1  0.32846686  0.33391512  0.33484057  1
  Sb  Sb105  1  0.49545430  -0.00077649  0.82859042  1
  Sb  Sb106  1  0.00651440  0.00199532  -0.00089083  1
  Sb  Sb107  1  0.83644764  -0.00261425  0.83190055  1
  Te  Te108  1  0.16369598  0.16880106  0.16694613  1
  Te  Te109  1  0.16896794  0.17130520  0.49727455  1
  Te  Te110  1  0.16598323  0.16395413  0.83605522  1
  Te  Te111  1  0.16571266  0.50245092  0.17102931  1
  Te  Te112  1  0.16174683  0.50123149  0.49898465  1
  Te  Te113  1  0.16783398  0.50354815  0.83021356  1
  Te  Te114  1  0.16358362  0.83143313  0.16759162  1
  Te  Te115  1  0.16432208  0.83163816  0.50150434  1
  Te  Te116  1  0.16542852  0.83304962  0.82714224  1
  Te  Te117  1  0.50073987  0.16659513  0.15961085  1
  Te  Te118  1  0.49989919  0.16924163  0.50247281  1
  Te  Te119  1  0.50543514  0.16663048  0.83244292  1
  Te  Te120  1  0.50076889  0.50118544  0.17246069  1
  Te  Te121  1  0.50013201  0.49815876  0.50021066  1
  Te  Te122  1  0.50463681  0.50427965  0.82949239  1
  Te  Te123  1  0.50398315  0.83336815  0.16594306  1
  Te  Te124  1  0.50172248  0.83323860  0.50470259  1
  Te  Te125  1  0.49931085  0.82496880  0.82605581  1
  Te  Te126  1  0.83980923  0.17045536  0.16692040  1
  Te  Te127  1  0.83169930  0.17410754  0.49689718  1
  Te  Te128  1  0.82770047  0.16391798  0.83803018  1
  Te  Te129  1  0.83331280  0.49731933  0.16299779  1
  Te  Te130  1  0.83583688  0.49686109  0.50024369  1
  Te  Te131  1  0.82954598  0.50397259  0.83221332  1
  Te  Te132  1  0.84297155  0.83297063  0.16836219  1
  Te  Te133  1  0.83376046  0.83311033  0.49977306  1
  Te  Te134  1  0.83354638  0.82320949  0.83384414  1
  Te  Te135  1  0.16704801  0.00053102  -0.00050426  1
  Te  Te136  1  0.16900268  -0.00188202  0.33173122  1
  Te  Te137  1  0.16934850  -0.00024361  0.66594911  1
  Te  Te138  1  0.16363111  0.33109184  0.00063263  1
  Te  Te139  1  0.16862112  0.33347994  0.33127005  1
  Te  Te140  1  0.16592679  0.33630606  0.66651273  1
  Te  Te141  1  0.16376353  0.66519701  0.00071001  1
  Te  Te142  1  0.16818375  0.67009837  0.33108997  1
  Te  Te143  1  0.16823393  0.66867353  0.67040807  1
  Te  Te144  1  0.49067595  0.00490291  -0.00246637  1
  Te  Te145  1  0.49056788  -0.00064386  0.33154446  1
  Te  Te146  1  0.49864144  0.00032520  0.66772753  1
  Te  Te147  1  0.50219443  0.33004858  0.00189135  1
  Te  Te148  1  0.49883301  0.33792143  0.33693410  1
  Te  Te149  1  0.50249206  0.33297798  0.66128579  1
  Te  Te150  1  0.49868998  0.66757766  -0.00285220  1
  Te  Te151  1  0.49514601  0.66069794  0.33474079  1
  Te  Te152  1  0.49882379  0.66651594  0.66608589  1
  Te  Te153  1  0.83253691  0.00396577  -0.00097794  1
  Te  Te154  1  0.83132435  0.00561489  0.33248580  1
  Te  Te155  1  0.82977911  -0.00096561  0.66757093  1
  Te  Te156  1  0.83522972  0.33312401  -0.00230072  1
  Te  Te157  1  0.83674153  0.33392810  0.33108143  1
  Te  Te158  1  0.83029104  0.33939919  0.66604690  1
  Te  Te159  1  0.83878228  0.66619250  0.00204095  1
  Te  Te160  1  0.83369767  0.66188552  0.32770143  1
  Te  Te161  1  0.83493245  0.65892725  0.67095543  1
  Te  Te162  1  0.00120452  0.16784331  0.00344761  1
  Te  Te163  1  0.00179482  0.17007617  0.33085515  1
  Te  Te164  1  -0.00126020  0.16172826  0.66709985  1
  Te  Te165  1  -0.00480880  0.49973807  -0.00387899  1
  Te  Te166  1  0.00109344  0.49461569  0.33819037  1
  Te  Te167  1  0.00733376  0.49961796  0.66177483  1
  Te  Te168  1  0.00653846  0.83170405  0.00392748  1
  Te  Te169  1  0.00519389  0.83433728  0.33495864  1
  Te  Te170  1  0.00201304  0.83618981  0.66239273  1
  Te  Te171  1  0.33051312  0.16689410  -0.00066490  1
  Te  Te172  1  0.32965353  0.16359299  0.33804612  1
  Te  Te173  1  0.33864684  0.16336688  0.66396877  1
  Te  Te174  1  0.33497625  0.49582553  -0.00067675  1
  Te  Te175  1  0.32949633  0.50050532  0.33879484  1
  Te  Te176  1  0.33135479  0.49947932  0.66042328  1
  Te  Te177  1  0.32614167  0.83675161  0.00026862  1
  Te  Te178  1  0.32827396  0.83655216  0.33501562  1
  Te  Te179  1  0.33181976  0.83837178  0.66455294  1
  Te  Te180  1  0.66724446  0.16946050  -0.00004719  1
  Te  Te181  1  0.66551211  0.17222756  0.33855986  1
  Te  Te182  1  0.66566066  0.16970853  0.66500048  1
  Te  Te183  1  0.67224337  0.49506368  -0.00219188  1
  Te  Te184  1  0.67145233  0.49466693  0.33755436  1
  Te  Te185  1  0.66438161  0.49809106  0.66456269  1
  Te  Te186  1  0.66486601  0.83697180  0.00085562  1
  Te  Te187  1  0.66660807  0.83674753  0.33966038  1
  Te  Te188  1  0.66473297  0.83528969  0.66333405  1
  Te  Te189  1  0.00740521  -0.00322706  0.16759340  1
  Te  Te190  1  -0.00067064  -0.00455108  0.50501849  1
  Te  Te191  1  0.00491816  -0.00055564  0.82575463  1
  Te  Te192  1  0.00008834  0.33314138  0.16765881  1
  Te  Te193  1  0.00697079  0.33629039  0.49810171  1
  Te  Te194  1  0.00014979  0.33312642  0.84042364  1
  Te  Te195  1  0.00091162  0.66710088  0.16497203  1
  Te  Te196  1  -0.00178610  0.66690361  0.49919315  1
  Te  Te197  1  0.00297016  0.66713671  0.83891090  1
  Te  Te198  1  0.32538020  0.00058056  0.16514491  1
  Te  Te199  1  0.33301919  0.00433701  0.50136507  1
  Te  Te200  1  0.32713081  -0.00008318  0.83200793  1
  Te  Te201  1  0.33136095  0.33393434  0.16006323  1
  Te  Te202  1  0.32607902  0.33320936  0.50059050  1
  Te  Te203  1  0.33560480  0.33367759  0.84253296  1
  Te  Te204  1  0.32917865  0.66639218  0.17308966  1
  Te  Te205  1  0.33941569  0.66337177  0.49534965  1
  Te  Te206  1  0.33040625  0.66591290  0.83488585  1
  Te  Te207  1  0.66718198  -0.00033436  0.16762719  1
  Te  Te208  1  0.66659313  -0.00455931  0.50559122  1
  Te  Te209  1  0.66700760  0.00221402  0.82587616  1
  Te  Te210  1  0.67053866  0.33230320  0.15951737  1
  Te  Te211  1  0.66620837  0.33583993  0.50248782  1
  Te  Te212  1  0.66552183  0.33408700  0.83668207  1
  Te  Te213  1  0.67328803  0.66785731  0.16637535  1
  Te  Te214  1  0.66216683  0.67090358  0.49891954  1
  Te  Te215  1  0.66647507  0.66324653  0.83370500  1
