# generated using pymatgen
data_AgSbTe2
_symmetry_space_group_name_H-M   'P 1'
_cell_length_a   18.35156686
_cell_length_b   18.34346635
_cell_length_c   18.35341555
_cell_angle_alpha   89.99869791
_cell_angle_beta   90.00065174
_cell_angle_gamma   90.00017664
_symmetry_Int_Tables_number   1
_chemical_formula_structural   AgSbTe2
_chemical_formula_sum   'Ag54 Sb54 Te108'
_cell_volume   6178.33503555
_cell_formula_units_Z   54
loop_
 _symmetry_equiv_pos_site_id
 _symmetry_equiv_pos_as_xyz
  1  'x, y, z'
loop_
 _atom_site_type_symbol
 _atom_site_label
 _atom_site_symmetry_multiplicity
 _atom_site_fract_x
 _atom_site_fract_y
 _atom_site_fract_z
 _atom_site_occupancy
  Ag  Ag0  1  0.50824080  0.33339407  0.50560606  1
  Ag  Ag1  1  0.49500186  0.65811183  0.50193558  1
  Ag  Ag2  1  0.66318890  0.17212098  0.16614683  1
  Ag  Ag3  1  0.65899578  0.48730889  0.49872000  1
  Ag  Ag4  1  0.00110245  0.16665327  0.83396549  1
  Ag  Ag5  1  -0.00403262  0.17076926  0.16033740  1
  Ag  Ag6  1  0.50866284  0.33023340  0.16933290  1
  Ag  Ag7  1  0.66179936  0.16733714  0.83023987  1
  Ag  Ag8  1  0.82225512  0.32985100  0.49462112  1
  Ag  Ag9  1  0.83602280  0.83387247  0.33475259  1
  Ag  Ag10  1  0.16601373  0.00608086  0.83260536  1
  Ag  Ag11  1  0.16317283  0.83041558  0.66419773  1
  Ag  Ag12  1  -0.00254408  0.83360198  0.83176449  1
  Ag  Ag13  1  0.65491912  0.33101346  0.65275086  1
  Ag  Ag14  1  0.66273371  0.48804288  0.17314498  1
  Ag  Ag15  1  0.83558252  0.48702115  0.00129216  1
  Ag  Ag16  1  0.49872758  0.84299773  0.00230674  1
  Ag  Ag17  1  0.66086072  0.17617641  0.50534510  1
  Ag  Ag18  1  0.49895647  0.17263984  0.66508526  1
  Ag  Ag19  1  0.34596544  0.33178885  0.34112647  1
  Ag  Ag20  1  -0.00276542  0.17478869  0.50326012  1
  Ag  Ag21  1  0.34344660  0.33126998  0.65487650  1
  Ag  Ag22  1  0.00105627  0.49435697  0.50035318  1
  Ag  Ag23  1  -0.00512127  0.32493126  0.00623586  1
  Ag  Ag24  1  0.82572550  0.32969109  0.17678101  1
  Ag  Ag25  1  -0.00221421  0.66564422  -0.00132036  1
  Ag  Ag26  1  0.00340275  0.82674612  0.49914946  1
  Ag  Ag27  1  0.34095718  0.49020932  0.50078932  1
  Ag  Ag28  1  0.49669975  0.48463225  0.66166130  1
  Ag  Ag29  1  -0.00212853  0.66503899  0.34292136  1
  Ag  Ag30  1  0.83640438  0.66787946  0.83433147  1
  Ag  Ag31  1  0.33962730  0.48661180  0.17308478  1
  Ag  Ag32  1  0.33701343  0.83406600  0.50016133  1
  Ag  Ag33  1  -0.00642427  0.33118267  0.33598487  1
  Ag  Ag34  1  0.49758670  0.01652000  0.49628211  1
  Ag  Ag35  1  0.16899365  0.49436799  0.66191121  1
  Ag  Ag36  1  0.34666418  0.17061665  0.16406773  1
  Ag  Ag37  1  0.83474920  0.17494322  0.33503809  1
  Ag  Ag38  1  0.49870955  0.01386303  0.16825437  1
  Ag  Ag39  1  -0.00213868  0.83680917  0.17233426  1
  Ag  Ag40  1  0.16851998  0.16954504  0.66981313  1
  Ag  Ag41  1  0.33846464  0.16685398  0.83293834  1
  Ag  Ag42  1  0.16352310  0.66534001  0.50354664  1
  Ag  Ag43  1  0.33632953  0.00847547  0.00057402  1
  Ag  Ag44  1  0.83959715  0.17144084  0.00293622  1
  Ag  Ag45  1  0.16783258  0.16688316  -0.00750735  1
  Ag  Ag46  1  0.66885010  0.83885328  0.83308818  1
  Ag  Ag47  1  0.50186890  0.32696164  0.81767530  1
  Ag  Ag48  1  0.83204686  0.17101921  0.66227730  1
  Ag  Ag49  1  0.50411582  0.83346058  0.33880489  1
  Ag  Ag50  1  0.00208978  0.66732439  0.65991171  1
  Ag  Ag51  1  0.66510165  0.33145991  0.34021223  1
  Ag  Ag52  1  0.34274978  0.17530734  0.50352331  1
  Ag  Ag53  1  0.49755653  0.16708852  0.00241918  1
  Sb  Sb54  1  0.00457029  0.00486277  -0.00033737  1
  Sb  Sb55  1  0.83350581  0.49388774  0.33191014  1
  Sb  Sb56  1  0.66370873  0.01141787  0.66678317  1
  Sb  Sb57  1  0.66563066  0.83470790  0.50257597  1
  Sb  Sb58  1  0.83713127  0.66134688  0.50185615  1
  Sb  Sb59  1  0.67137402  0.66616998  -0.00105236  1
  Sb  Sb60  1  -0.00000107  0.49426276  0.16982044  1
  Sb  Sb61  1  0.16278494  0.66611165  0.17236955  1
  Sb  Sb62  1  0.17057475  -0.00105970  0.50568608  1
  Sb  Sb63  1  -0.00135291  0.00260840  0.33403857  1
  Sb  Sb64  1  0.50453348  0.66494946  0.82811316  1
  Sb  Sb65  1  0.16661265  0.49805616  0.34117067  1
  Sb  Sb66  1  0.67093866  0.66124721  0.66513320  1
  Sb  Sb67  1  0.82985094  0.32959581  0.83229063  1
  Sb  Sb68  1  0.16689631  0.83891449  -0.00539227  1
  Sb  Sb69  1  0.00013671  0.33144505  0.66350774  1
  Sb  Sb70  1  0.33442053  0.48942786  0.82846875  1
  Sb  Sb71  1  0.16411983  0.83182209  0.34106012  1
  Sb  Sb72  1  0.33293517  0.32672836  0.00180091  1
  Sb  Sb73  1  0.83073619  0.01028726  0.49885211  1
  Sb  Sb74  1  0.66433654  0.00947899  0.33415313  1
  Sb  Sb75  1  0.66035282  0.00540479  -0.00028759  1
  Sb  Sb76  1  0.49639183  0.83609237  0.66387338  1
  Sb  Sb77  1  0.82992538  0.01111857  0.16710894  1
  Sb  Sb78  1  0.16215165  0.16877671  0.33720367  1
  Sb  Sb79  1  0.67107092  0.66198508  0.33630791  1
  Sb  Sb80  1  0.17059313  0.00378800  0.16104572  1
  Sb  Sb81  1  0.50566940  0.17016175  0.33452217  1
  Sb  Sb82  1  0.33845844  0.00986296  0.33278538  1
  Sb  Sb83  1  -0.00103255  0.49727693  0.82911557  1
  Sb  Sb84  1  0.49641248  0.00882990  0.83479298  1
  Sb  Sb85  1  0.32831068  0.66019780  0.66418162  1
  Sb  Sb86  1  0.83825155  0.83590057  0.66409387  1
  Sb  Sb87  1  0.00241277  0.00015621  0.66667927  1
  Sb  Sb88  1  0.33230912  0.84104128  0.82735233  1
  Sb  Sb89  1  0.16678175  0.33077166  0.16607290  1
  Sb  Sb90  1  0.83371959  0.49423182  0.66669340  1
  Sb  Sb91  1  0.33264653  0.83693992  0.17252155  1
  Sb  Sb92  1  0.66845301  0.49220181  0.83104988  1
  Sb  Sb93  1  0.16205607  0.49430934  -0.00487860  1
  Sb  Sb94  1  0.50394010  0.49334022  -0.00144160  1
  Sb  Sb95  1  0.33343658  0.01216027  0.66754033  1
  Sb  Sb96  1  0.50025712  0.66258959  0.17156209  1
  Sb  Sb97  1  0.33174551  0.66248213  0.33878944  1
  Sb  Sb98  1  0.83352807  0.83773273  0.00151363  1
  Sb  Sb99  1  0.17017746  0.33611515  0.50227112  1
  Sb  Sb100  1  0.83674001  0.00178475  0.83386151  1
  Sb  Sb101  1  0.17002538  0.32501934  0.83179230  1
  Sb  Sb102  1  0.66911017  0.83586223  0.16546629  1
  Sb  Sb103  1  0.67200324  0.32931410  0.00475204  1
  Sb  Sb104  1  0.32890839  0.67018690  0.00047947  1
  Sb  Sb105  1  0.50040627  0.49914680  0.34152776  1
  Sb  Sb106  1  0.15832177  0.67199206  0.82622983  1
  Sb  Sb107  1  0.83615189  0.66087371  0.16496485  1
  Te  Te108  1  0.15566935  0.16508358  0.16360383  1
  Te  Te109  1  0.16092068  0.16386078  0.50471657  1
  Te  Te110  1  0.16449146  0.16573400  0.83244052  1
  Te  Te111  1  0.17478632  0.50056616  0.16459605  1
  Te  Te112  1  0.16360185  0.50525231  0.50451650  1
  Te  Te113  1  0.16795939  0.50147378  0.82495948  1
  Te  Te114  1  0.16022644  0.83437861  0.16535303  1
  Te  Te115  1  0.16374040  0.83210842  0.50497650  1
  Te  Te116  1  0.16220290  0.83900012  0.82711326  1
  Te  Te117  1  0.50245645  0.17016515  0.17117933  1
  Te  Te118  1  0.50000900  0.17255949  0.49607269  1
  Te  Te119  1  0.50016591  0.16688779  0.83272855  1
  Te  Te120  1  0.50040556  0.49637618  0.16540573  1
  Te  Te121  1  0.49947523  0.49604448  0.50197287  1
  Te  Te122  1  0.50136063  0.49481647  0.82744090  1
  Te  Te123  1  0.50005706  0.83026046  0.16282209  1
  Te  Te124  1  0.50032605  0.82768127  0.49947992  1
  Te  Te125  1  0.50195125  0.83402528  0.83562023  1
  Te  Te126  1  0.83553674  0.16992706  0.16629702  1
  Te  Te127  1  0.83670123  0.16937349  0.49925275  1
  Te  Te128  1  0.83459851  0.16613278  0.83462089  1
  Te  Te129  1  0.83160345  0.49359860  0.16242784  1
  Te  Te130  1  0.83629568  0.49407094  0.50038596  1
  Te  Te131  1  0.83263353  0.50481509  0.83872430  1
  Te  Te132  1  0.83681785  0.83366524  0.16983038  1
  Te  Te133  1  0.83484124  0.83408221  0.49720838  1
  Te  Te134  1  0.83596835  0.83249673  0.83329518  1
  Te  Te135  1  0.17356324  0.00635376  -0.00533469  1
  Te  Te136  1  0.16968919  -0.00067033  0.33236676  1
  Te  Te137  1  0.16819784  0.00473643  0.67210199  1
  Te  Te138  1  0.15645673  0.32782189  -0.00155916  1
  Te  Te139  1  0.15623580  0.33314888  0.33252513  1
  Te  Te140  1  0.16979844  0.33191216  0.66860591  1
  Te  Te141  1  0.15991290  0.66653370  -0.00066350  1
  Te  Te142  1  0.15833777  0.66566101  0.34124665  1
  Te  Te143  1  0.16237132  0.66806157  0.66244584  1
  Te  Te144  1  0.49564125  0.00324661  0.00117612  1
  Te  Te145  1  0.49939152  -0.00826082  0.33277702  1
  Te  Te146  1  0.49851838  0.00473653  0.65821711  1
  Te  Te147  1  0.49945985  0.32906176  0.00946761  1
  Te  Te148  1  0.50249118  0.33550350  0.32854345  1
  Te  Te149  1  0.49890943  0.32917771  0.66242916  1
  Te  Te150  1  0.49897746  0.66714488  -0.00112882  1
  Te  Te151  1  0.50054988  0.67289595  0.33865800  1
  Te  Te152  1  0.50088329  0.66543879  0.66181434  1
  Te  Te153  1  0.83237861  0.00960757  0.00112935  1
  Te  Te154  1  0.83126079  -0.00571731  0.33256742  1
  Te  Te155  1  0.83266781  0.01127256  0.66635743  1
  Te  Te156  1  0.83738958  0.33012723  -0.00178856  1
  Te  Te157  1  0.83229719  0.33238613  0.33462980  1
  Te  Te158  1  0.83251116  0.32920724  0.66318614  1
  Te  Te159  1  0.83826029  0.67013667  -0.00279266  1
  Te  Te160  1  0.83885519  0.67141435  0.33312671  1
  Te  Te161  1  0.83957168  0.66581969  0.67077086  1
  Te  Te162  1  0.00033841  0.16566148  -0.00150217  1
  Te  Te163  1  -0.00450699  0.16841522  0.33737412  1
  Te  Te164  1  0.00220170  0.16686643  0.66629333  1
  Te  Te165  1  -0.00271949  0.50164450  0.00075403  1
  Te  Te166  1  -0.00030849  0.50001943  0.33767594  1
  Te  Te167  1  0.00185144  0.50219905  0.66236136  1
  Te  Te168  1  0.00053381  0.83255762  -0.00448938  1
  Te  Te169  1  -0.00049941  0.83319785  0.33463032  1
  Te  Te170  1  0.00165462  0.83138285  0.66775650  1
  Te  Te171  1  0.33566250  0.16731258  0.00307813  1
  Te  Te172  1  0.32936879  0.17356352  0.33355247  1
  Te  Te173  1  0.33465331  0.17108793  0.66371821  1
  Te  Te174  1  0.33206232  0.50073863  0.00192380  1
  Te  Te175  1  0.33328275  0.49420756  0.33437882  1
  Te  Te176  1  0.33367345  0.49467366  0.66254682  1
  Te  Te177  1  0.33722348  0.83697433  0.00053608  1
  Te  Te178  1  0.33593035  0.83191198  0.33817224  1
  Te  Te179  1  0.32797836  0.83164827  0.66096162  1
  Te  Te180  1  0.66066537  0.16664867  -0.00067523  1
  Te  Te181  1  0.67294844  0.17189672  0.33325535  1
  Te  Te182  1  0.66385692  0.17142699  0.66614414  1
  Te  Te183  1  0.67301418  0.50078157  0.00217336  1
  Te  Te184  1  0.66730874  0.49502378  0.33379481  1
  Te  Te185  1  0.66479328  0.49401110  0.66287029  1
  Te  Te186  1  0.66225741  0.83404761  -0.00370902  1
  Te  Te187  1  0.66729271  0.83093034  0.33251207  1
  Te  Te188  1  0.66823056  0.83237351  0.67209724  1
  Te  Te189  1  -0.00067592  -0.00162048  0.16655286  1
  Te  Te190  1  -0.00011296  -0.00242810  0.49934075  1
  Te  Te191  1  0.00405338  0.00080731  0.83336651  1
  Te  Te192  1  -0.00158149  0.33149845  0.16790277  1
  Te  Te193  1  0.00401853  0.33401316  0.49909756  1
  Te  Te194  1  -0.00188808  0.32917694  0.83587037  1
  Te  Te195  1  0.00062471  0.66872113  0.16439383  1
  Te  Te196  1  -0.00194143  0.66807910  0.50081951  1
  Te  Te197  1  -0.00307692  0.66613445  0.83497055  1
  Te  Te198  1  0.33878303  0.00468935  0.16379838  1
  Te  Te199  1  0.33790408  -0.00189162  0.49936436  1
  Te  Te200  1  0.32985249  0.00646764  0.83784548  1
  Te  Te201  1  0.33215399  0.32934547  0.16718788  1
  Te  Te202  1  0.33103197  0.33294407  0.49698376  1
  Te  Te203  1  0.33998934  0.32601107  0.83352023  1
  Te  Te204  1  0.33144069  0.66285565  0.16918311  1
  Te  Te205  1  0.33387654  0.66792542  0.50031581  1
  Te  Te206  1  0.33360586  0.66707323  0.83398427  1
  Te  Te207  1  0.65859702  0.00462736  0.16722501  1
  Te  Te208  1  0.65931973  0.00384983  0.49988757  1
  Te  Te209  1  0.66641858  0.00017503  0.83281498  1
  Te  Te210  1  0.66935111  0.33159816  0.16585358  1
  Te  Te211  1  0.66726397  0.33195913  0.49770535  1
  Te  Te212  1  0.66242837  0.32716381  0.83116267  1
  Te  Te213  1  0.66714289  0.65891778  0.16735439  1
  Te  Te214  1  0.66330307  0.66191076  0.50082972  1
  Te  Te215  1  0.67234283  0.67006836  0.83256729  1
