# generated using pymatgen
data_AgSbTe2
_symmetry_space_group_name_H-M   'P 1'
_cell_length_a   18.31993766
_cell_length_b   18.31779622
_cell_length_c   18.32316147
_cell_angle_alpha   89.99876388
_cell_angle_beta   89.99651036
_cell_angle_gamma   89.99761707
_symmetry_Int_Tables_number   1
_chemical_formula_structural   AgSbTe2
_chemical_formula_sum   'Ag54 Sb54 Te108'
_cell_volume   6148.90272425
_cell_formula_units_Z   54
loop_
 _symmetry_equiv_pos_site_id
 _symmetry_equiv_pos_as_xyz
  1  'x, y, z'
loop_
 _atom_site_type_symbol
 _atom_site_label
 _atom_site_symmetry_multiplicity
 _atom_site_fract_x
 _atom_site_fract_y
 _atom_site_fract_z
 _atom_site_occupancy
  Ag  Ag0  1  0.83392644  0.49291334  0.33641144  1
  Ag  Ag1  1  0.49892595  0.32994109  0.16470591  1
  Ag  Ag2  1  0.66629059  0.65953519  -0.00282957  1
  Ag  Ag3  1  0.16682108  0.16192615  0.00066178  1
  Ag  Ag4  1  0.33080050  0.17163887  0.83808004  1
  Ag  Ag5  1  0.66749774  0.49165106  0.51294117  1
  Ag  Ag6  1  0.50002259  0.66377600  0.50324167  1
  Ag  Ag7  1  0.17020793  -0.00002786  0.50651045  1
  Ag  Ag8  1  0.17161483  0.50069948  0.67053041  1
  Ag  Ag9  1  0.16871993  0.84243264  0.67263838  1
  Ag  Ag10  1  0.00382952  0.83706812  0.83954962  1
  Ag  Ag11  1  0.32858890  0.84692478  0.16752723  1
  Ag  Ag12  1  0.83756668  0.00367136  0.83351567  1
  Ag  Ag13  1  0.33356935  0.49217601  0.82746177  1
  Ag  Ag14  1  0.83618522  0.84507779  0.33209776  1
  Ag  Ag15  1  0.33723671  0.65703953  0.66787661  1
  Ag  Ag16  1  0.00595347  0.50012234  0.16284454  1
  Ag  Ag17  1  0.00043693  0.16124791  0.16542412  1
  Ag  Ag18  1  0.49125555  0.00900887  0.16349455  1
  Ag  Ag19  1  0.50674610  0.16594705  0.32770557  1
  Ag  Ag20  1  0.82776539  0.16920710  0.33052377  1
  Ag  Ag21  1  0.33199015  0.83754520  0.49989494  1
  Ag  Ag22  1  0.32804623  0.00060924  0.66957525  1
  Ag  Ag23  1  0.49843397  0.66026977  0.16653844  1
  Ag  Ag24  1  0.00537870  0.00081038  0.32799591  1
  Ag  Ag25  1  0.66437055  0.01170818  -0.00057346  1
  Ag  Ag26  1  0.82658792  0.33210305  0.50091553  1
  Ag  Ag27  1  0.33673259  0.33421564  -0.00560462  1
  Ag  Ag28  1  0.33672330  0.33967544  0.67504496  1
  Ag  Ag29  1  0.32719959  0.00144475  0.32324177  1
  Ag  Ag30  1  0.65876311  0.65380871  0.67040834  1
  Ag  Ag31  1  0.17195801  0.33111508  0.83335031  1
  Ag  Ag32  1  0.16441048  0.49752294  0.33168384  1
  Ag  Ag33  1  0.66873810  0.17462613  0.49303553  1
  Ag  Ag34  1  0.00806886  0.84071270  0.16127264  1
  Ag  Ag35  1  0.49132693  0.00217470  0.83899792  1
  Ag  Ag36  1  0.00988735  0.00027481  0.67093150  1
  Ag  Ag37  1  0.16480331  0.84159846  -0.00290512  1
  Ag  Ag38  1  0.33855908  0.16305651  0.16196796  1
  Ag  Ag39  1  0.82014323  0.49256029  0.66549607  1
  Ag  Ag40  1  0.33411282  0.49643812  0.16220566  1
  Ag  Ag41  1  0.66818242  0.33056614  0.33836805  1
  Ag  Ag42  1  -0.00158365  0.66568190  0.00115626  1
  Ag  Ag43  1  0.66065251  0.33343109  -0.00014301  1
  Ag  Ag44  1  0.17192972  0.00133591  0.16388501  1
  Ag  Ag45  1  0.16758714  0.00272825  0.83397784  1
  Ag  Ag46  1  0.50537254  0.49980064  0.67444350  1
  Ag  Ag47  1  0.66265037  0.49738086  0.82502071  1
  Ag  Ag48  1  0.83309079  0.16554718  0.00187099  1
  Ag  Ag49  1  0.50126166  0.49906354  -0.00337580  1
  Ag  Ag50  1  0.66101744  0.16807761  0.16745998  1
  Ag  Ag51  1  0.83103321  0.17181163  0.66784611  1
  Ag  Ag52  1  0.66484178  0.34006083  0.66540038  1
  Ag  Ag53  1  0.00239929  0.50251053  0.83470200  1
  Sb  Sb54  1  0.50184102  0.83909640  0.33039031  1
  Sb  Sb55  1  0.33739066  0.32991737  0.33164794  1
  Sb  Sb56  1  0.00306613  0.16497359  0.83763042  1
  Sb  Sb57  1  0.83812624  0.83873419  0.00292647  1
  Sb  Sb58  1  0.16585360  0.16391238  0.67288980  1
  Sb  Sb59  1  0.66277060  0.17111992  0.83688933  1
  Sb  Sb60  1  0.83849147  0.83455558  0.66445952  1
  Sb  Sb61  1  -0.00505351  0.16451301  0.49605506  1
  Sb  Sb62  1  0.16555187  0.32983880  0.50541189  1
  Sb  Sb63  1  0.49174252  0.82912855  0.66699733  1
  Sb  Sb64  1  0.83629471  0.00579681  0.50224018  1
  Sb  Sb65  1  0.50071909  0.49497896  0.33109237  1
  Sb  Sb66  1  0.66503933  0.00316622  0.67226856  1
  Sb  Sb67  1  0.49485121  -0.00166015  0.49916559  1
  Sb  Sb68  1  0.17281871  0.67010530  0.50234152  1
  Sb  Sb69  1  0.17337622  0.32973427  0.16136274  1
  Sb  Sb70  1  0.00190166  -0.00162540  0.00002308  1
  Sb  Sb71  1  -0.00511861  0.33034674  0.33017109  1
  Sb  Sb72  1  0.33477454  0.66900458  0.33421850  1
  Sb  Sb73  1  0.83411050  0.33058512  0.83071950  1
  Sb  Sb74  1  0.66565777  0.83887931  0.16491438  1
  Sb  Sb75  1  0.66538523  0.66003603  0.33220458  1
  Sb  Sb76  1  0.33796443  0.50296953  0.50441937  1
  Sb  Sb77  1  0.49905442  0.17199475  0.00562726  1
  Sb  Sb78  1  0.00571875  0.83641464  0.49919840  1
  Sb  Sb79  1  -0.00115011  0.33078248  0.66909255  1
  Sb  Sb80  1  0.49985862  0.66473348  0.83384124  1
  Sb  Sb81  1  0.16724432  0.66674476  0.83362360  1
  Sb  Sb82  1  0.17143574  0.66951240  0.16529448  1
  Sb  Sb83  1  0.00210317  0.66760398  0.67183277  1
  Sb  Sb84  1  0.83635039  0.00385253  0.16377798  1
  Sb  Sb85  1  0.50581793  0.33701956  0.49836996  1
  Sb  Sb86  1  0.32731921  0.83654834  0.83596959  1
  Sb  Sb87  1  0.33513650  0.00723770  0.00014345  1
  Sb  Sb88  1  0.66746873  0.00905618  0.32795284  1
  Sb  Sb89  1  0.16597513  0.16641354  0.32639416  1
  Sb  Sb90  1  0.00060003  0.33495964  0.00034089  1
  Sb  Sb91  1  0.67021550  0.83192829  0.83463503  1
  Sb  Sb92  1  0.66346827  0.49326852  0.16463114  1
  Sb  Sb93  1  0.33380355  0.66005755  -0.00229707  1
  Sb  Sb94  1  0.82929653  0.66570067  0.16565654  1
  Sb  Sb95  1  0.83356870  0.66687528  0.83316355  1
  Sb  Sb96  1  0.82624941  0.66047919  0.50167226  1
  Sb  Sb97  1  0.33718265  0.16254840  0.50005524  1
  Sb  Sb98  1  -0.00058028  0.66912778  0.32563787  1
  Sb  Sb99  1  0.66307392  0.83275942  0.50035548  1
  Sb  Sb100  1  0.50219773  0.17142471  0.66509896  1
  Sb  Sb101  1  0.16980447  0.49775815  -0.00245968  1
  Sb  Sb102  1  0.82905614  0.49432665  -0.00124324  1
  Sb  Sb103  1  -0.00350954  0.50038566  0.50204817  1
  Sb  Sb104  1  0.82684904  0.33071580  0.16943111  1
  Sb  Sb105  1  0.49425932  0.83093501  0.00163798  1
  Sb  Sb106  1  0.49470372  0.33255605  0.83764967  1
  Sb  Sb107  1  0.16522415  0.83585314  0.33190762  1
  Te  Te108  1  0.16642158  0.16394885  0.16206416  1
  Te  Te109  1  0.16637763  0.16093344  0.49859219  1
  Te  Te110  1  0.16902686  0.16548645  0.83841827  1
  Te  Te111  1  0.16698475  0.49927691  0.16627257  1
  Te  Te112  1  0.16571184  0.49955289  0.50215049  1
  Te  Te113  1  0.16855075  0.49887967  0.83262015  1
  Te  Te114  1  0.16741823  0.83613731  0.16676088  1
  Te  Te115  1  0.17261487  0.83797409  0.50218259  1
  Te  Te116  1  0.16326134  0.83572989  0.83354110  1
  Te  Te117  1  0.49877380  0.16707233  0.16706252  1
  Te  Te118  1  0.50674130  0.16660695  0.49399344  1
  Te  Te119  1  0.49328344  0.16047692  0.83141185  1
  Te  Te120  1  0.49726527  0.49904860  0.16604812  1
  Te  Te121  1  0.50522505  0.50388215  0.49979993  1
  Te  Te122  1  0.49924755  0.49943905  0.83412050  1
  Te  Te123  1  0.49468877  0.83459255  0.16696277  1
  Te  Te124  1  0.49385168  0.82734508  0.49824831  1
  Te  Te125  1  0.50059220  0.84291058  0.83423235  1
  Te  Te126  1  0.83444246  0.16693005  0.16614094  1
  Te  Te127  1  0.82867087  0.17016875  0.49973914  1
  Te  Te128  1  0.83409595  0.16349411  0.83421385  1
  Te  Te129  1  0.83859585  0.49847718  0.16918108  1
  Te  Te130  1  0.82970020  0.49549222  0.50100387  1
  Te  Te131  1  0.83572879  0.49893154  0.82970799  1
  Te  Te132  1  0.83787735  0.83379020  0.17164781  1
  Te  Te133  1  0.83316979  0.83270495  0.49390420  1
  Te  Te134  1  0.84096629  0.84069307  0.83265284  1
  Te  Te135  1  0.16799951  0.00141517  0.00042254  1
  Te  Te136  1  0.16634390  -0.00001741  0.32757216  1
  Te  Te137  1  0.16678618  0.00188189  0.66919372  1
  Te  Te138  1  0.17049488  0.32916484  -0.00559537  1
  Te  Te139  1  0.16734838  0.33857120  0.33629472  1
  Te  Te140  1  0.17007147  0.33414093  0.67047578  1
  Te  Te141  1  0.16157284  0.67205881  0.00068529  1
  Te  Te142  1  0.16673461  0.65642669  0.33473582  1
  Te  Te143  1  0.17118278  0.66455311  0.66587391  1
  Te  Te144  1  0.50394425  -0.00243742  0.00114227  1
  Te  Te145  1  0.49661620  0.00512256  0.32982468  1
  Te  Te146  1  0.49590194  -0.00006736  0.66879180  1
  Te  Te147  1  0.49947463  0.33791710  0.00302649  1
  Te  Te148  1  0.50494875  0.32760777  0.32794404  1
  Te  Te149  1  0.50050551  0.33832119  0.66625155  1
  Te  Te150  1  0.50294189  0.66252902  0.00278208  1
  Te  Te151  1  0.50069357  0.66750732  0.32874945  1
  Te  Te152  1  0.49915835  0.66312535  0.66761598  1
  Te  Te153  1  0.82773843  0.00460053  -0.00312650  1
  Te  Te154  1  0.83641834  0.00451141  0.33399073  1
  Te  Te155  1  0.83401384  0.00199512  0.67030198  1
  Te  Te156  1  0.82796517  0.32580538  -0.00060614  1
  Te  Te157  1  0.82897514  0.33155263  0.33518418  1
  Te  Te158  1  0.83163931  0.33324930  0.66510269  1
  Te  Te159  1  0.83050854  0.66656842  -0.00017413  1
  Te  Te160  1  0.83191468  0.65828738  0.33400096  1
  Te  Te161  1  0.83023805  0.66139675  0.66625441  1
  Te  Te162  1  -0.00099628  0.16781008  0.00509768  1
  Te  Te163  1  -0.00286016  0.16266066  0.32753127  1
  Te  Te164  1  -0.00670373  0.16177290  0.66656017  1
  Te  Te165  1  -0.00173413  0.50291003  -0.00016110  1
  Te  Te166  1  -0.00134761  0.50055127  0.33113923  1
  Te  Te167  1  0.00822554  0.50012278  0.67101329  1
  Te  Te168  1  0.00255465  0.83086127  0.00124665  1
  Te  Te169  1  -0.00237271  0.83676368  0.32890118  1
  Te  Te170  1  0.00530957  0.83642175  0.67002519  1
  Te  Te171  1  0.33229223  0.17270626  0.00093716  1
  Te  Te172  1  0.33389215  0.16206339  0.33012260  1
  Te  Te173  1  0.33408583  0.16558431  0.66870298  1
  Te  Te174  1  0.33656816  0.49558196  0.00111229  1
  Te  Te175  1  0.33100390  0.49942423  0.33189781  1
  Te  Te176  1  0.33219506  0.49843139  0.66646088  1
  Te  Te177  1  0.32626453  0.82849388  0.00498754  1
  Te  Te178  1  0.33286952  0.83774206  0.33015573  1
  Te  Te179  1  0.32822856  0.83861197  0.66882373  1
  Te  Te180  1  0.66651860  0.16939749  0.00123249  1
  Te  Te181  1  0.66772157  0.16924961  0.33027995  1
  Te  Te182  1  0.67030561  0.17046587  0.66761643  1
  Te  Te183  1  0.66411265  0.49806102  -0.00014661  1
  Te  Te184  1  0.66999330  0.49266726  0.33226818  1
  Te  Te185  1  0.66410260  0.49838771  0.66818426  1
  Te  Te186  1  0.66811545  0.82658995  -0.00025752  1
  Te  Te187  1  0.67500543  0.83335740  0.33331707  1
  Te  Te188  1  0.66764027  0.82834691  0.66686842  1
  Te  Te189  1  0.00191145  0.00035950  0.16689851  1
  Te  Te190  1  0.00633875  -0.00061423  0.50033216  1
  Te  Te191  1  0.00311309  -0.00026873  0.83332820  1
  Te  Te192  1  0.00282346  0.33616735  0.16557825  1
  Te  Te193  1  -0.00750351  0.33238979  0.49965598  1
  Te  Te194  1  0.00729172  0.33919829  0.83422198  1
  Te  Te195  1  0.00020115  0.66414485  0.16112360  1
  Te  Te196  1  -0.00036899  0.66877512  0.49907232  1
  Te  Te197  1  -0.00000990  0.66494711  0.83928930  1
  Te  Te198  1  0.33307225  0.00259618  0.16370928  1
  Te  Te199  1  0.32998033  -0.00250120  0.50387960  1
  Te  Te200  1  0.33044919  0.00181316  0.83344562  1
  Te  Te201  1  0.33781468  0.33458731  0.16698762  1
  Te  Te202  1  0.33309474  0.33188030  0.50595212  1
  Te  Te203  1  0.33301157  0.33240733  0.83301443  1
  Te  Te204  1  0.33826779  0.65859873  0.16630516  1
  Te  Te205  1  0.33892994  0.67211001  0.50423021  1
  Te  Te206  1  0.33447741  0.66013654  0.82790616  1
  Te  Te207  1  0.66312699  0.00457969  0.16108543  1
  Te  Te208  1  0.66544502  0.00294577  0.50139505  1
  Te  Te209  1  0.66922958  0.00029204  0.83846912  1
  Te  Te210  1  0.66166527  0.32828809  0.16198547  1
  Te  Te211  1  0.66711648  0.33279942  0.50132700  1
  Te  Te212  1  0.66680699  0.33782344  0.83297079  1
  Te  Te213  1  0.66070081  0.66921955  0.16331468  1
  Te  Te214  1  0.65974937  0.66474546  0.50266604  1
  Te  Te215  1  0.66687580  0.66185428  0.83407230  1
