# generated using pymatgen
data_AgSbTe2
_symmetry_space_group_name_H-M   'P 1'
_cell_length_a   18.33150433
_cell_length_b   18.33542015
_cell_length_c   18.33374111
_cell_angle_alpha   90.00169385
_cell_angle_beta   89.99808542
_cell_angle_gamma   89.99642115
_symmetry_Int_Tables_number   1
_chemical_formula_structural   AgSbTe2
_chemical_formula_sum   'Ag54 Sb54 Te108'
_cell_volume   6162.26065934
_cell_formula_units_Z   54
loop_
 _symmetry_equiv_pos_site_id
 _symmetry_equiv_pos_as_xyz
  1  'x, y, z'
loop_
 _atom_site_type_symbol
 _atom_site_label
 _atom_site_symmetry_multiplicity
 _atom_site_fract_x
 _atom_site_fract_y
 _atom_site_fract_z
 _atom_site_occupancy
  Ag  Ag0  1  0.49405276  0.83294277  0.32649159  1
  Ag  Ag1  1  0.00609821  0.33198398  0.33159825  1
  Ag  Ag2  1  0.49288626  0.33510974  0.83518977  1
  Ag  Ag3  1  0.16797678  -0.00955898  0.82875717  1
  Ag  Ag4  1  0.66495219  0.82294805  0.82492512  1
  Ag  Ag5  1  0.67118456  0.65737625  0.66789688  1
  Ag  Ag6  1  0.66200007  0.50334064  0.50853605  1
  Ag  Ag7  1  0.33410944  0.33526148  0.66841745  1
  Ag  Ag8  1  0.32909331  0.00015825  0.66817846  1
  Ag  Ag9  1  -0.00033490  0.16983298  0.83153018  1
  Ag  Ag10  1  0.49299747  0.66750646  0.49904016  1
  Ag  Ag11  1  0.65827425  0.82170325  0.50749628  1
  Ag  Ag12  1  0.83341539  0.66108148  0.82509059  1
  Ag  Ag13  1  0.82951472  0.34129463  0.82469889  1
  Ag  Ag14  1  0.17106910  0.34051813  0.50684786  1
  Ag  Ag15  1  0.49904507  0.17783108  0.00738887  1
  Ag  Ag16  1  0.49596061  0.33141451  0.16059533  1
  Ag  Ag17  1  0.49347339  0.66854149  0.16589145  1
  Ag  Ag18  1  0.33623623  0.34243458  0.00116865  1
  Ag  Ag19  1  0.17526957  0.82798435  -0.00276304  1
  Ag  Ag20  1  0.49423986  0.82682367  0.00788065  1
  Ag  Ag21  1  0.49451770  0.49761019  0.00044561  1
  Ag  Ag22  1  0.66271763  0.16927509  0.16845727  1
  Ag  Ag23  1  0.33568498  0.49665648  0.83165180  1
  Ag  Ag24  1  0.83196681  0.49184330  0.34433694  1
  Ag  Ag25  1  0.17572364  0.66528419  0.16432875  1
  Ag  Ag26  1  0.50339298  0.17188908  0.66889747  1
  Ag  Ag27  1  0.17866850  0.34093435  0.16755982  1
  Ag  Ag28  1  0.33546357  0.50386833  0.16141830  1
  Ag  Ag29  1  0.66430415  0.50126471  0.82595039  1
  Ag  Ag30  1  0.83474355  0.33735303  0.50710193  1
  Ag  Ag31  1  0.83070408  0.17532056  0.33206460  1
  Ag  Ag32  1  0.00243525  -0.00336723  0.67008002  1
  Ag  Ag33  1  0.33469595  0.82143132  0.49692421  1
  Ag  Ag34  1  0.16823800  0.50331151  0.66657736  1
  Ag  Ag35  1  0.82552223  0.49735217  0.66588298  1
  Ag  Ag36  1  0.33111961  0.33434613  0.32726194  1
  Ag  Ag37  1  0.66868676  0.33994842  0.66789167  1
  Ag  Ag38  1  0.82832822  0.00054689  0.16860899  1
  Ag  Ag39  1  0.50363399  0.16900478  0.32595873  1
  Ag  Ag40  1  -0.00261492  0.66914310  0.66820519  1
  Ag  Ag41  1  0.49936885  0.00614670  0.16557690  1
  Ag  Ag42  1  0.33396415  0.66206046  0.00537466  1
  Ag  Ag43  1  0.33637015  0.82492916  0.16970113  1
  Ag  Ag44  1  0.16618929  0.66523605  0.82485541  1
  Ag  Ag45  1  0.16735815  0.81995908  0.66724986  1
  Ag  Ag46  1  0.17411288  0.66257750  0.51054495  1
  Ag  Ag47  1  0.33531391  0.50160772  0.50366628  1
  Ag  Ag48  1  -0.00611826  0.16849741  0.16514034  1
  Ag  Ag49  1  0.83195883  0.66645555  0.16325265  1
  Ag  Ag50  1  0.83088693  0.18007585  0.66567389  1
  Ag  Ag51  1  0.17440553  0.33927026  0.82734317  1
  Ag  Ag52  1  0.17605375  0.82931917  0.33523396  1
  Ag  Ag53  1  0.83183655  0.82417461  0.66661602  1
  Sb  Sb54  1  0.50005494  0.49555156  0.67068389  1
  Sb  Sb55  1  0.00187909  0.49884786  0.50252807  1
  Sb  Sb56  1  0.66438742  -0.00016077  0.00076481  1
  Sb  Sb57  1  0.49796801  0.83541453  0.66681281  1
  Sb  Sb58  1  0.00067878  0.00544968  0.33588293  1
  Sb  Sb59  1  0.66517674  0.00057209  0.33277386  1
  Sb  Sb60  1  0.83254737  0.00300501  0.50007266  1
  Sb  Sb61  1  0.66590259  0.66592128  0.33835942  1
  Sb  Sb62  1  0.33766114  0.17196800  0.16688065  1
  Sb  Sb63  1  0.49995924  0.49964285  0.33056209  1
  Sb  Sb64  1  0.33459558  -0.00306395  -0.00323114  1
  Sb  Sb65  1  0.16776546  0.50139965  0.33775424  1
  Sb  Sb66  1  0.33281524  0.66291668  0.33112497  1
  Sb  Sb67  1  0.17225942  0.16648751  -0.00159522  1
  Sb  Sb68  1  0.00070163  0.83393266  0.82985913  1
  Sb  Sb69  1  0.33397283  0.00024986  0.33528201  1
  Sb  Sb70  1  -0.00023248  0.33482198  0.66579625  1
  Sb  Sb71  1  0.66460744  0.33397949  0.33802394  1
  Sb  Sb72  1  0.00524544  0.83536752  0.16793276  1
  Sb  Sb73  1  0.49771768  0.33968771  0.50170075  1
  Sb  Sb74  1  0.00774412  0.33265944  0.00185098  1
  Sb  Sb75  1  0.00376215  0.83074171  0.50317834  1
  Sb  Sb76  1  0.00776011  0.66650341  -0.00370333  1
  Sb  Sb77  1  0.33414961  0.66271640  0.66709961  1
  Sb  Sb78  1  0.66565011  0.17059270  0.49865074  1
  Sb  Sb79  1  0.00165782  0.00138048  -0.00423768  1
  Sb  Sb80  1  -0.00123370  0.17014238  0.50234257  1
  Sb  Sb81  1  0.82895176  0.16879191  0.00059922  1
  Sb  Sb82  1  0.33449283  0.82610939  0.83292763  1
  Sb  Sb83  1  0.00149978  0.66163140  0.33726905  1
  Sb  Sb84  1  0.17015357  -0.00249884  0.16233865  1
  Sb  Sb85  1  0.65922439  0.66711933  -0.00464407  1
  Sb  Sb86  1  0.49860094  0.66074219  0.83331036  1
  Sb  Sb87  1  0.83061595  0.83173521  0.33724430  1
  Sb  Sb88  1  0.66818606  0.17088957  0.83414729  1
  Sb  Sb89  1  0.82383586  0.50020030  -0.00538320  1
  Sb  Sb90  1  0.33144184  0.17534623  0.83222964  1
  Sb  Sb91  1  0.66643535  0.00080772  0.66739217  1
  Sb  Sb92  1  0.83145160  0.83057456  -0.00398314  1
  Sb  Sb93  1  0.65787609  0.33406640  -0.00658658  1
  Sb  Sb94  1  0.33507484  0.17244746  0.50191312  1
  Sb  Sb95  1  0.83249578  0.66074495  0.50541671  1
  Sb  Sb96  1  0.00627360  0.49756452  0.16975980  1
  Sb  Sb97  1  0.17547446  0.50348622  -0.00666604  1
  Sb  Sb98  1  0.16708809  0.16996590  0.33104897  1
  Sb  Sb99  1  0.49542773  0.00423473  0.83650337  1
  Sb  Sb100  1  0.00140087  0.49625312  0.83055496  1
  Sb  Sb101  1  0.66167946  0.49793205  0.16702945  1
  Sb  Sb102  1  0.83144535  0.33473255  0.16743103  1
  Sb  Sb103  1  0.65898800  0.83359551  0.16735571  1
  Sb  Sb104  1  0.16954945  -0.00431533  0.50730322  1
  Sb  Sb105  1  0.16497015  0.17065686  0.66866778  1
  Sb  Sb106  1  0.49819971  -0.00551878  0.49760591  1
  Sb  Sb107  1  0.83654579  -0.00099951  0.83255667  1
  Te  Te108  1  0.16217909  0.16761602  0.16553438  1
  Te  Te109  1  0.16713533  0.17689744  0.49869096  1
  Te  Te110  1  0.16140498  0.17395384  0.83475848  1
  Te  Te111  1  0.17249332  0.50015487  0.16848581  1
  Te  Te112  1  0.16954920  0.50059369  0.50209806  1
  Te  Te113  1  0.16794108  0.50049569  0.82923811  1
  Te  Te114  1  0.17085861  0.83244319  0.16674421  1
  Te  Te115  1  0.17059574  0.83020687  0.50383576  1
  Te  Te116  1  0.16756409  0.82845415  0.82907554  1
  Te  Te117  1  0.49954311  0.16849467  0.16678402  1
  Te  Te118  1  0.50170091  0.16492353  0.49868519  1
  Te  Te119  1  0.50145422  0.17168877  0.83037125  1
  Te  Te120  1  0.49678810  0.50133657  0.16491787  1
  Te  Te121  1  0.49953422  0.50609444  0.49740605  1
  Te  Te122  1  0.49766792  0.49596938  0.83651306  1
  Te  Te123  1  0.49869421  0.82815893  0.16739661  1
  Te  Te124  1  0.49692829  0.82925864  0.49942854  1
  Te  Te125  1  0.50288715  0.83460971  0.83629767  1
  Te  Te126  1  0.83165165  0.16775976  0.16742685  1
  Te  Te127  1  0.83171868  0.17141843  0.49968804  1
  Te  Te128  1  0.83533702  0.16704198  0.83157983  1
  Te  Te129  1  0.83142802  0.50443532  0.16269719  1
  Te  Te130  1  0.83242485  0.49741426  0.50408208  1
  Te  Te131  1  0.83260577  0.50111974  0.82935810  1
  Te  Te132  1  0.83181060  0.83261694  0.16771444  1
  Te  Te133  1  0.83061056  0.83301767  0.50398058  1
  Te  Te134  1  0.82976959  0.83007793  0.82933709  1
  Te  Te135  1  0.16763394  -0.00543486  -0.00858600  1
  Te  Te136  1  0.16639898  -0.00602468  0.33493990  1
  Te  Te137  1  0.16703446  0.00486020  0.67082321  1
  Te  Te138  1  0.17450551  0.33429666  0.00186755  1
  Te  Te139  1  0.16833701  0.33417683  0.32944627  1
  Te  Te140  1  0.16597970  0.33611153  0.66679943  1
  Te  Te141  1  0.17146671  0.66874195  0.00468632  1
  Te  Te142  1  0.16455219  0.66997832  0.32677036  1
  Te  Te143  1  0.17073085  0.66419905  0.66778573  1
  Te  Te144  1  0.49895586  -0.00302068  0.00477020  1
  Te  Te145  1  0.49877535  0.00136543  0.32721756  1
  Te  Te146  1  0.49588932  0.00806208  0.66716557  1
  Te  Te147  1  0.49632610  0.33533886  -0.00111144  1
  Te  Te148  1  0.49739232  0.33147870  0.33267192  1
  Te  Te149  1  0.49789610  0.32999712  0.66678084  1
  Te  Te150  1  0.49450408  0.66733537  0.00063545  1
  Te  Te151  1  0.50010206  0.67020856  0.33224596  1
  Te  Te152  1  0.50693641  0.66841072  0.66259420  1
  Te  Te153  1  0.83381401  -0.00052825  0.00863716  1
  Te  Te154  1  0.83479883  0.00363238  0.32875952  1
  Te  Te155  1  0.83613756  -0.00232207  0.66674857  1
  Te  Te156  1  0.83416079  0.33375405  -0.00946123  1
  Te  Te157  1  0.83106126  0.33337399  0.33243286  1
  Te  Te158  1  0.83801493  0.33639698  0.66719432  1
  Te  Te159  1  0.83571470  0.66771264  0.00042671  1
  Te  Te160  1  0.83474611  0.66494837  0.32900798  1
  Te  Te161  1  0.83244364  0.66549433  0.66675899  1
  Te  Te162  1  0.00027882  0.16704000  0.00195515  1
  Te  Te163  1  -0.00323181  0.17066916  0.33016196  1
  Te  Te164  1  -0.00548794  0.16529488  0.66916213  1
  Te  Te165  1  -0.00224070  0.49935796  0.00152959  1
  Te  Te166  1  -0.00941759  0.49291552  0.33394024  1
  Te  Te167  1  0.00300701  0.50600587  0.66763688  1
  Te  Te168  1  0.00809924  0.83404893  -0.00015439  1
  Te  Te169  1  0.00370383  0.83490763  0.33485013  1
  Te  Te170  1  0.00075902  0.83168048  0.66719742  1
  Te  Te171  1  0.34034246  0.16965694  -0.00049682  1
  Te  Te172  1  0.33764121  0.17154258  0.33475019  1
  Te  Te173  1  0.33685588  0.16986183  0.66613513  1
  Te  Te174  1  0.33514444  0.50056331  0.00192030  1
  Te  Te175  1  0.33325615  0.49277581  0.33701487  1
  Te  Te176  1  0.33246786  0.49761367  0.66608828  1
  Te  Te177  1  0.33382932  0.83068301  -0.00023378  1
  Te  Te178  1  0.33393767  0.83475458  0.33501527  1
  Te  Te179  1  0.33019560  0.83385924  0.66482431  1
  Te  Te180  1  0.65884649  0.16657099  0.00522205  1
  Te  Te181  1  0.66703875  0.16708182  0.33079546  1
  Te  Te182  1  0.66962954  0.17019312  0.66635964  1
  Te  Te183  1  0.65642985  0.50074072  -0.00682313  1
  Te  Te184  1  0.67291098  0.49976874  0.33722166  1
  Te  Te185  1  0.66504038  0.49753056  0.66782048  1
  Te  Te186  1  0.66195505  0.83297951  -0.00449988  1
  Te  Te187  1  0.66117754  0.83312369  0.33951334  1
  Te  Te188  1  0.66656148  0.83519418  0.66663229  1
  Te  Te189  1  -0.00083650  0.00545531  0.16687666  1
  Te  Te190  1  0.00094256  0.00115646  0.50874965  1
  Te  Te191  1  0.00440094  0.00549749  0.82913744  1
  Te  Te192  1  0.00002018  0.33002719  0.16958639  1
  Te  Te193  1  -0.00045674  0.33280621  0.49339420  1
  Te  Te194  1  0.00220478  0.32963206  0.83472996  1
  Te  Te195  1  -0.00148758  0.66632474  0.16731272  1
  Te  Te196  1  0.01085701  0.66612455  0.50556899  1
  Te  Te197  1  0.00054049  0.66630800  0.82951766  1
  Te  Te198  1  0.33790897  -0.00736601  0.16641595  1
  Te  Te199  1  0.33262185  -0.00447655  0.50698352  1
  Te  Te200  1  0.32783427  0.00016662  0.82801833  1
  Te  Te201  1  0.33566070  0.33322305  0.16687285  1
  Te  Te202  1  0.33141465  0.33809894  0.50573940  1
  Te  Te203  1  0.33341576  0.33669171  0.83103278  1
  Te  Te204  1  0.33383467  0.66553503  0.16771773  1
  Te  Te205  1  0.33270537  0.66356061  0.49997245  1
  Te  Te206  1  0.33004795  0.65902361  0.83682674  1
  Te  Te207  1  0.66484746  0.00359479  0.16697232  1
  Te  Te208  1  0.66657016  -0.01032267  0.50029868  1
  Te  Te209  1  0.66639176  -0.00585937  0.83322049  1
  Te  Te210  1  0.66126383  0.33052807  0.16556502  1
  Te  Te211  1  0.66877015  0.33794999  0.50640696  1
  Te  Te212  1  0.66826735  0.33543518  0.82783945  1
  Te  Te213  1  0.66882712  0.66563712  0.16600953  1
  Te  Te214  1  0.66753395  0.66367246  0.50445974  1
  Te  Te215  1  0.66690241  0.66348657  0.82992001  1
