# generated using pymatgen
data_AgSbTe2
_symmetry_space_group_name_H-M   'P 1'
_cell_length_a   18.33748039
_cell_length_b   18.34866118
_cell_length_c   18.33835477
_cell_angle_alpha   89.99606933
_cell_angle_beta   90.00271239
_cell_angle_gamma   89.99957767
_symmetry_Int_Tables_number   1
_chemical_formula_structural   AgSbTe2
_chemical_formula_sum   'Ag54 Sb54 Te108'
_cell_volume   6170.27346770
_cell_formula_units_Z   54
loop_
 _symmetry_equiv_pos_site_id
 _symmetry_equiv_pos_as_xyz
  1  'x, y, z'
loop_
 _atom_site_type_symbol
 _atom_site_label
 _atom_site_symmetry_multiplicity
 _atom_site_fract_x
 _atom_site_fract_y
 _atom_site_fract_z
 _atom_site_occupancy
  Ag  Ag0  1  0.17004538  0.83099607  0.00335919  1
  Ag  Ag1  1  0.00167110  0.83205554  0.49940737  1
  Ag  Ag2  1  0.33196396  0.49784835  0.49481508  1
  Ag  Ag3  1  0.83515392  -0.00352292  0.49582141  1
  Ag  Ag4  1  0.17501634  0.34169072  0.50271395  1
  Ag  Ag5  1  0.00253718  0.33029631  -0.00551787  1
  Ag  Ag6  1  0.49785502  0.83335765  0.67785665  1
  Ag  Ag7  1  0.66279099  0.16482743  0.49498422  1
  Ag  Ag8  1  0.84349125  0.83417048  -0.00358469  1
  Ag  Ag9  1  0.16665616  0.17912717  0.66475412  1
  Ag  Ag10  1  0.01174869  0.33545478  0.66661288  1
  Ag  Ag11  1  0.65547970  0.66861756  0.33677675  1
  Ag  Ag12  1  0.84538042  0.49933304  0.66535281  1
  Ag  Ag13  1  0.49677389  0.32848835  0.17891640  1
  Ag  Ag14  1  0.49701664  0.15929889  0.00760097  1
  Ag  Ag15  1  0.82244510  0.16384354  0.33555224  1
  Ag  Ag16  1  0.33800087  0.83366518  0.83812359  1
  Ag  Ag17  1  0.84857724  0.66993731  0.49910247  1
  Ag  Ag18  1  0.33359293  0.49881974  0.17716746  1
  Ag  Ag19  1  0.00145725  -0.00196629  0.65924450  1
  Ag  Ag20  1  0.33238160  0.67405037  -0.00285652  1
  Ag  Ag21  1  0.50087771  0.00012426  0.48996058  1
  Ag  Ag22  1  0.16730651  0.66210972  0.49637671  1
  Ag  Ag23  1  0.33050684  0.33600668  0.65904956  1
  Ag  Ag24  1  0.49374220  0.33273915  0.49224718  1
  Ag  Ag25  1  0.65425321  0.00456118  0.33672861  1
  Ag  Ag26  1  0.00427946  0.67215143  0.34093458  1
  Ag  Ag27  1  0.16467691  0.83055807  0.33283788  1
  Ag  Ag28  1  0.49305944  0.00113108  0.17135540  1
  Ag  Ag29  1  0.33994898  0.00340143  0.32744364  1
  Ag  Ag30  1  0.00289745  -0.00246937  0.33378397  1
  Ag  Ag31  1  0.33650189  -0.00591603  0.00362087  1
  Ag  Ag32  1  0.48876706  0.83985903  -0.00765466  1
  Ag  Ag33  1  0.65113891  0.83363660  0.83533522  1
  Ag  Ag34  1  0.65190897  0.32325666  0.33584444  1
  Ag  Ag35  1  0.17360403  -0.00019711  0.16840479  1
  Ag  Ag36  1  0.00821553  -0.00378439  0.00600079  1
  Ag  Ag37  1  0.49606989  0.67854400  0.83545332  1
  Ag  Ag38  1  0.00182665  0.16315787  0.16736579  1
  Ag  Ag39  1  0.49504297  0.33153140  0.83268760  1
  Ag  Ag40  1  0.33683562  0.16886821  0.83419254  1
  Ag  Ag41  1  0.49587098  0.66837604  0.17141494  1
  Ag  Ag42  1  0.49713843  -0.00881566  0.83855168  1
  Ag  Ag43  1  0.01100336  0.67577426  0.00128658  1
  Ag  Ag44  1  0.00108255  0.66655651  0.65718046  1
  Ag  Ag45  1  0.17208789  0.50761360  0.00092891  1
  Ag  Ag46  1  0.49099080  0.48789734  0.33517528  1
  Ag  Ag47  1  0.50181432  0.17647021  0.33266273  1
  Ag  Ag48  1  0.16781074  0.49745096  0.65771111  1
  Ag  Ag49  1  0.17433780  0.50387669  0.33977556  1
  Ag  Ag50  1  0.49592006  0.66786389  0.49424135  1
  Ag  Ag51  1  0.33876150  0.33894025  0.34068386  1
  Ag  Ag52  1  0.83131020  0.33410500  0.83118240  1
  Ag  Ag53  1  0.33442548  0.49803123  0.83261879  1
  Sb  Sb54  1  0.00250811  0.83668739  0.16884281  1
  Sb  Sb55  1  0.66155795  0.33334506  0.66239557  1
  Sb  Sb56  1  0.16857369  0.82988890  0.66649628  1
  Sb  Sb57  1  0.83779305  0.83714693  0.33320760  1
  Sb  Sb58  1  0.17142336  0.16623095  0.33667918  1
  Sb  Sb59  1  0.33162399  0.82977030  0.50232655  1
  Sb  Sb60  1  0.33238294  0.66540422  0.33067934  1
  Sb  Sb61  1  0.49440802  0.16490590  0.66294682  1
  Sb  Sb62  1  0.00735203  0.49936161  0.83025164  1
  Sb  Sb63  1  0.49370641  0.50204026  0.66210943  1
  Sb  Sb64  1  0.65961340  -0.00251960  0.00507773  1
  Sb  Sb65  1  0.00381594  0.83332098  0.83299088  1
  Sb  Sb66  1  0.66395867  0.33235157  0.00286432  1
  Sb  Sb67  1  0.33394706  0.16670903  0.16476350  1
  Sb  Sb68  1  0.66258461  0.83432993  0.16607093  1
  Sb  Sb69  1  0.17182623  0.33095225  0.17087617  1
  Sb  Sb70  1  0.17137096  0.16454415  -0.00214441  1
  Sb  Sb71  1  0.33073085  0.00344346  0.66674778  1
  Sb  Sb72  1  -0.00186518  0.16137113  0.49614811  1
  Sb  Sb73  1  0.83007962  0.00249065  0.83012415  1
  Sb  Sb74  1  0.66700789  0.66654267  0.66102183  1
  Sb  Sb75  1  0.66492013  0.16569237  0.17341232  1
  Sb  Sb76  1  0.17325740  -0.00095335  0.83714717  1
  Sb  Sb77  1  0.16830491  -0.00165664  0.49522687  1
  Sb  Sb78  1  0.66685132  -0.00030096  0.66067921  1
  Sb  Sb79  1  0.65776011  0.16392119  0.82877385  1
  Sb  Sb80  1  0.82972872  0.66434699  0.82993440  1
  Sb  Sb81  1  0.49328486  0.83497151  0.33267393  1
  Sb  Sb82  1  0.83189725  0.16223743  0.00359487  1
  Sb  Sb83  1  0.33681227  0.17162859  0.50080005  1
  Sb  Sb84  1  0.33036740  0.66178214  0.66951201  1
  Sb  Sb85  1  0.33385355  0.83245041  0.16226325  1
  Sb  Sb86  1  0.00420309  0.16739215  0.83521302  1
  Sb  Sb87  1  0.65496130  0.49992248  0.16987049  1
  Sb  Sb88  1  0.49094138  0.50173415  0.00396877  1
  Sb  Sb89  1  0.83989121  0.16957466  0.66219258  1
  Sb  Sb90  1  0.83332530  0.49868789  0.33990186  1
  Sb  Sb91  1  0.17202397  0.66547831  0.83343267  1
  Sb  Sb92  1  0.33073537  0.33395503  -0.00043979  1
  Sb  Sb93  1  0.83192468  0.83096391  0.66848713  1
  Sb  Sb94  1  0.17105065  0.33455177  0.82728512  1
  Sb  Sb95  1  0.00859941  0.49756390  0.16604643  1
  Sb  Sb96  1  0.83081879  0.33305129  0.16494304  1
  Sb  Sb97  1  0.83343274  0.00009731  0.17234550  1
  Sb  Sb98  1  0.66056457  0.66999073  0.00368754  1
  Sb  Sb99  1  0.84534293  0.50359191  -0.00557171  1
  Sb  Sb100  1  0.65974808  0.49830002  0.49862788  1
  Sb  Sb101  1  0.00856068  0.50573105  0.50090207  1
  Sb  Sb102  1  0.00412687  0.33245916  0.33697189  1
  Sb  Sb103  1  0.17129983  0.66921236  0.16822823  1
  Sb  Sb104  1  0.65808526  0.50286027  0.83267497  1
  Sb  Sb105  1  0.66712109  0.83507638  0.50078006  1
  Sb  Sb106  1  0.83245906  0.33470499  0.50342010  1
  Sb  Sb107  1  0.83189452  0.66712500  0.17169724  1
  Te  Te108  1  0.16299998  0.16182798  0.16681563  1
  Te  Te109  1  0.16636364  0.16948275  0.50452656  1
  Te  Te110  1  0.17303152  0.16650550  0.82693207  1
  Te  Te111  1  0.17391611  0.49893124  0.16425432  1
  Te  Te112  1  0.17016332  0.50113145  0.49839944  1
  Te  Te113  1  0.17362184  0.50005647  0.83934949  1
  Te  Te114  1  0.16772686  0.83884657  0.16790931  1
  Te  Te115  1  0.16378596  0.82840796  0.49842667  1
  Te  Te116  1  0.17345588  0.83275011  0.83865072  1
  Te  Te117  1  0.49984816  0.16489250  0.16820610  1
  Te  Te118  1  0.50122998  0.16408836  0.49694493  1
  Te  Te119  1  0.49684789  0.17052617  0.82979299  1
  Te  Te120  1  0.49312683  0.50133586  0.17105554  1
  Te  Te121  1  0.49450027  0.50066610  0.49679056  1
  Te  Te122  1  0.49568957  0.49421827  0.83194547  1
  Te  Te123  1  0.49963236  0.83412671  0.15893721  1
  Te  Te124  1  0.49936511  0.83371132  0.50052913  1
  Te  Te125  1  0.49449228  0.83436626  0.83503258  1
  Te  Te126  1  0.83905275  0.16737419  0.17239844  1
  Te  Te127  1  0.82980952  0.16342763  0.49536099  1
  Te  Te128  1  0.83019463  0.17152380  0.83372738  1
  Te  Te129  1  0.83357895  0.49983814  0.16626778  1
  Te  Te130  1  0.83159074  0.50504779  0.50467156  1
  Te  Te131  1  0.83079993  0.49627295  0.82776764  1
  Te  Te132  1  0.83167455  0.83252496  0.15525458  1
  Te  Te133  1  0.83670774  0.83272710  0.50101386  1
  Te  Te134  1  0.83287875  0.83302479  0.83650345  1
  Te  Te135  1  0.16778594  0.00024907  0.00348981  1
  Te  Te136  1  0.16260274  0.00021589  0.33102332  1
  Te  Te137  1  0.16190145  -0.00285846  0.66546979  1
  Te  Te138  1  0.16186205  0.33219588  0.00201224  1
  Te  Te139  1  0.17154985  0.33730272  0.33820900  1
  Te  Te140  1  0.16855540  0.33760112  0.66480000  1
  Te  Te141  1  0.16967228  0.66834448  0.00080955  1
  Te  Te142  1  0.16580615  0.66667362  0.33321745  1
  Te  Te143  1  0.16187819  0.66251888  0.66466454  1
  Te  Te144  1  0.49831289  0.00002226  -0.00045357  1
  Te  Te145  1  0.49791606  -0.00510634  0.33213606  1
  Te  Te146  1  0.49917730  -0.00289034  0.66719717  1
  Te  Te147  1  0.49953923  0.33195203  -0.00420016  1
  Te  Te148  1  0.49645323  0.33247126  0.33548407  1
  Te  Te149  1  0.49524347  0.33380134  0.66739342  1
  Te  Te150  1  0.49646427  0.66672860  -0.00115030  1
  Te  Te151  1  0.49755225  0.67135488  0.33227816  1
  Te  Te152  1  0.49911146  0.66874886  0.66678574  1
  Te  Te153  1  0.83497305  -0.00293128  -0.00048410  1
  Te  Te154  1  0.84145899  0.00232540  0.33727753  1
  Te  Te155  1  0.83961411  -0.00004897  0.66121097  1
  Te  Te156  1  0.83713508  0.33274166  -0.00370818  1
  Te  Te157  1  0.83360428  0.32847934  0.33397484  1
  Te  Te158  1  0.83255176  0.33706599  0.66954074  1
  Te  Te159  1  0.83350256  0.67077371  -0.00014567  1
  Te  Te160  1  0.84229949  0.66771822  0.33833345  1
  Te  Te161  1  0.83789323  0.66354249  0.66192235  1
  Te  Te162  1  -0.00059464  0.16455545  0.00269566  1
  Te  Te163  1  0.00352442  0.16456788  0.32981210  1
  Te  Te164  1  0.00488345  0.16707953  0.66742062  1
  Te  Te165  1  0.00908690  0.49847983  -0.00131790  1
  Te  Te166  1  0.00409455  0.50365373  0.33153783  1
  Te  Te167  1  0.00536340  0.50018569  0.66672682  1
  Te  Te168  1  0.00626535  0.83504740  -0.00030549  1
  Te  Te169  1  0.00337863  0.83273551  0.33503089  1
  Te  Te170  1  0.00049330  0.83173755  0.66480301  1
  Te  Te171  1  0.33805234  0.16229448  -0.00377837  1
  Te  Te172  1  0.33819012  0.16395595  0.33255882  1
  Te  Te173  1  0.32802733  0.17123527  0.67073935  1
  Te  Te174  1  0.33007233  0.50007836  -0.00636169  1
  Te  Te175  1  0.33382476  0.50252434  0.33500460  1
  Te  Te176  1  0.32928969  0.49639899  0.66863783  1
  Te  Te177  1  0.33116152  0.83423307  -0.00040464  1
  Te  Te178  1  0.32548767  0.83962093  0.33493465  1
  Te  Te179  1  0.33655794  0.83316586  0.67251862  1
  Te  Te180  1  0.65901883  0.16610018  -0.00077345  1
  Te  Te181  1  0.66384291  0.16423955  0.33508142  1
  Te  Te182  1  0.66976322  0.16652912  0.65803351  1
  Te  Te183  1  0.67184500  0.50045565  0.00075698  1
  Te  Te184  1  0.66492680  0.50621873  0.33376395  1
  Te  Te185  1  0.67512997  0.49995248  0.66675828  1
  Te  Te186  1  0.66533372  0.83337346  -0.00447285  1
  Te  Te187  1  0.67000775  0.83061009  0.33382083  1
  Te  Te188  1  0.66154595  0.83312376  0.67273279  1
  Te  Te189  1  -0.00130591  0.00175352  0.16601588  1
  Te  Te190  1  0.00082820  -0.00392267  0.49872576  1
  Te  Te191  1  -0.00149249  0.00068684  0.83491346  1
  Te  Te192  1  -0.00015197  0.32914800  0.16355515  1
  Te  Te193  1  0.00060970  0.33192187  0.50631317  1
  Te  Te194  1  -0.00275916  0.33302451  0.83181841  1
  Te  Te195  1  -0.00022464  0.66542274  0.16022268  1
  Te  Te196  1  0.00476750  0.66849001  0.49975561  1
  Te  Te197  1  -0.00204146  0.66646900  0.84092219  1
  Te  Te198  1  0.33343305  0.00084154  0.16566977  1
  Te  Te199  1  0.33742891  -0.00114823  0.49756919  1
  Te  Te200  1  0.33744611  0.00075625  0.83408802  1
  Te  Te201  1  0.33778475  0.33559828  0.16863428  1
  Te  Te202  1  0.33416860  0.33376029  0.49930428  1
  Te  Te203  1  0.33498676  0.33241166  0.83452222  1
  Te  Te204  1  0.33773340  0.66108552  0.16120990  1
  Te  Te205  1  0.33315677  0.66276535  0.50097552  1
  Te  Te206  1  0.33722897  0.66572966  0.83582764  1
  Te  Te207  1  0.66134919  0.00020911  0.17579002  1
  Te  Te208  1  0.66524014  0.00082186  0.49571559  1
  Te  Te209  1  0.66129176  -0.00413038  0.83233091  1
  Te  Te210  1  0.65974594  0.33308870  0.17384799  1
  Te  Te211  1  0.66280918  0.32980289  0.49504986  1
  Te  Te212  1  0.66523850  0.33299074  0.83306307  1
  Te  Te213  1  0.66068810  0.66696134  0.17487560  1
  Te  Te214  1  0.65662122  0.66729468  0.49576522  1
  Te  Te215  1  0.65974553  0.67112718  0.83226708  1
