# generated using pymatgen
data_AgSbTe2
_symmetry_space_group_name_H-M   'P 1'
_cell_length_a   18.32293495
_cell_length_b   18.32369827
_cell_length_c   18.32852795
_cell_angle_alpha   90.00192647
_cell_angle_beta   90.00232170
_cell_angle_gamma   89.99852215
_symmetry_Int_Tables_number   1
_chemical_formula_structural   AgSbTe2
_chemical_formula_sum   'Ag54 Sb54 Te108'
_cell_volume   6153.69202181
_cell_formula_units_Z   54
loop_
 _symmetry_equiv_pos_site_id
 _symmetry_equiv_pos_as_xyz
  1  'x, y, z'
loop_
 _atom_site_type_symbol
 _atom_site_label
 _atom_site_symmetry_multiplicity
 _atom_site_fract_x
 _atom_site_fract_y
 _atom_site_fract_z
 _atom_site_occupancy
  Ag  Ag0  1  0.33497588  0.33712396  0.33104711  1
  Ag  Ag1  1  0.50044957  0.66745533  0.16956478  1
  Ag  Ag2  1  -0.00246831  0.67021644  0.66782311  1
  Ag  Ag3  1  0.50430585  0.34183867  0.15741677  1
  Ag  Ag4  1  0.66407607  -0.00817255  0.00409401  1
  Ag  Ag5  1  0.66484252  0.83321768  0.16590130  1
  Ag  Ag6  1  0.82949727  0.33705056  0.49543428  1
  Ag  Ag7  1  0.50407111  0.83471383  0.66784638  1
  Ag  Ag8  1  0.15902362  0.82998770  0.00230370  1
  Ag  Ag9  1  0.66264627  0.50621152  0.15660662  1
  Ag  Ag10  1  0.33799758  -0.00002111  0.33248956  1
  Ag  Ag11  1  0.82795632  0.82947240  0.00515090  1
  Ag  Ag12  1  0.50049297  0.00361416  0.83885414  1
  Ag  Ag13  1  -0.00551175  0.83017850  0.50300120  1
  Ag  Ag14  1  0.66520534  0.34629145  0.67396780  1
  Ag  Ag15  1  0.34581442  0.33608839  0.00227641  1
  Ag  Ag16  1  0.17001543  0.67019978  0.16489002  1
  Ag  Ag17  1  0.82188803  -0.00475913  0.16433769  1
  Ag  Ag18  1  0.66497154  0.82768933  0.49067362  1
  Ag  Ag19  1  0.33469834  0.16755778  0.50022736  1
  Ag  Ag20  1  0.34426556  0.49732579  0.83322448  1
  Ag  Ag21  1  0.50640658  -0.00744137  0.16389583  1
  Ag  Ag22  1  0.82066423  0.50642300  -0.00220703  1
  Ag  Ag23  1  0.33677660  0.00167132  0.66541789  1
  Ag  Ag24  1  -0.00427380  0.67163398  -0.00045161  1
  Ag  Ag25  1  0.17740609  0.50198071  0.33454245  1
  Ag  Ag26  1  0.66470838  0.50562215  0.50226580  1
  Ag  Ag27  1  0.00265440  -0.01069139  0.67229360  1
  Ag  Ag28  1  0.66121439  0.34773745  -0.00265055  1
  Ag  Ag29  1  0.17226703  0.16951605  0.33350653  1
  Ag  Ag30  1  0.16465567  0.50229444  0.66311915  1
  Ag  Ag31  1  0.16746445  0.33634936  0.49720476  1
  Ag  Ag32  1  0.66632442  0.66230627  0.66970104  1
  Ag  Ag33  1  0.16552280  0.66589530  0.83982563  1
  Ag  Ag34  1  0.50173517  0.33225477  0.83917381  1
  Ag  Ag35  1  0.16855913  -0.01137110  0.16570076  1
  Ag  Ag36  1  0.00661129  0.66915444  0.32902705  1
  Ag  Ag37  1  0.65760001  0.17367996  0.83402872  1
  Ag  Ag38  1  0.33767554  0.66211112  0.33258768  1
  Ag  Ag39  1  0.66578114  0.66302950  -0.00111024  1
  Ag  Ag40  1  0.00070503  0.83032313  0.83671628  1
  Ag  Ag41  1  0.49890585  0.50851074  0.32537329  1
  Ag  Ag42  1  0.82159606  0.83257185  0.32750746  1
  Ag  Ag43  1  0.82170636  0.33517006  0.16739802  1
  Ag  Ag44  1  0.50677975  0.49974259  0.00518324  1
  Ag  Ag45  1  0.66116571  0.49786243  0.84250368  1
  Ag  Ag46  1  0.50979713  0.82964294  0.00708628  1
  Ag  Ag47  1  0.49883073  0.15984615  0.67223465  1
  Ag  Ag48  1  0.65667189  -0.00728946  0.32176474  1
  Ag  Ag49  1  0.82197783  0.50133915  0.66982671  1
  Ag  Ag50  1  0.50462966  0.82814304  0.32763411  1
  Ag  Ag51  1  0.50308122  0.66811174  0.49076901  1
  Ag  Ag52  1  -0.00670900  -0.01212450  -0.00079046  1
  Ag  Ag53  1  0.34117393  0.16857129  0.82925917  1
  Sb  Sb54  1  0.82719233  0.50508335  0.33203783  1
  Sb  Sb55  1  0.17222006  -0.00508271  0.83764581  1
  Sb  Sb56  1  0.16876747  0.82984781  0.32621880  1
  Sb  Sb57  1  0.33542628  0.16655055  0.16829375  1
  Sb  Sb58  1  0.33993571  0.00254006  0.00162823  1
  Sb  Sb59  1  0.83588857  0.66680661  0.83590805  1
  Sb  Sb60  1  0.82957374  0.16537821  0.00055844  1
  Sb  Sb61  1  0.00091482  0.16358209  0.16682948  1
  Sb  Sb62  1  0.49896057  0.66600658  0.83714463  1
  Sb  Sb63  1  0.66724023  0.82919899  0.83894483  1
  Sb  Sb64  1  0.83485178  0.16307676  0.33254324  1
  Sb  Sb65  1  0.16837121  0.66314570  0.49703365  1
  Sb  Sb66  1  0.33707482  0.49705346  0.50057297  1
  Sb  Sb67  1  0.66120339  0.67138467  0.33043989  1
  Sb  Sb68  1  0.00489733  0.16212590  0.50051940  1
  Sb  Sb69  1  0.66319801  0.16475165  0.16133401  1
  Sb  Sb70  1  0.33739937  0.66306653  0.00402618  1
  Sb  Sb71  1  -0.00698425  0.50505958  0.16688067  1
  Sb  Sb72  1  0.82705718  0.17063749  0.66601104  1
  Sb  Sb73  1  0.00230448  0.15853454  0.83250492  1
  Sb  Sb74  1  0.17090552  0.33807350  0.17099791  1
  Sb  Sb75  1  0.16807246  0.00140374  0.49569722  1
  Sb  Sb76  1  0.33580158  0.66861023  0.66389491  1
  Sb  Sb77  1  0.49487193  0.16476341  0.33707934  1
  Sb  Sb78  1  0.65952559  0.16701600  0.50499765  1
  Sb  Sb79  1  0.82714738  -0.00218722  0.83943422  1
  Sb  Sb80  1  -0.00516126  0.33749407  0.66624286  1
  Sb  Sb81  1  0.34308007  0.83319090  0.16724318  1
  Sb  Sb82  1  0.82682472  0.66916680  0.16559853  1
  Sb  Sb83  1  -0.00635969  0.33864926  -0.00004683  1
  Sb  Sb84  1  -0.00688261  0.83216183  0.16249566  1
  Sb  Sb85  1  0.16656887  0.82973179  0.66977193  1
  Sb  Sb86  1  0.50140700  0.17018135  -0.00661686  1
  Sb  Sb87  1  0.33398502  0.83232279  0.83430204  1
  Sb  Sb88  1  0.66296549  -0.00470617  0.66971267  1
  Sb  Sb89  1  0.66082919  0.33229772  0.33049844  1
  Sb  Sb90  1  -0.00217810  0.50595491  0.83278816  1
  Sb  Sb91  1  0.49992753  -0.00689470  0.49840769  1
  Sb  Sb92  1  0.00371871  0.33974170  0.33392273  1
  Sb  Sb93  1  0.17010708  0.16145432  0.00428851  1
  Sb  Sb94  1  0.34267358  0.50015096  0.16629006  1
  Sb  Sb95  1  0.17719616  0.34079798  0.83000061  1
  Sb  Sb96  1  0.17371491  0.16995690  0.66344911  1
  Sb  Sb97  1  0.33614083  0.83543630  0.49779350  1
  Sb  Sb98  1  0.50064889  0.33895537  0.49993602  1
  Sb  Sb99  1  -0.00413006  0.50633072  0.50038416  1
  Sb  Sb100  1  0.82619431  0.66518846  0.49890240  1
  Sb  Sb101  1  0.83072714  0.82907940  0.66691163  1
  Sb  Sb102  1  0.50420818  0.50293897  0.66959854  1
  Sb  Sb103  1  0.00172325  -0.00871785  0.32991610  1
  Sb  Sb104  1  0.82186750  0.33684633  0.83618022  1
  Sb  Sb105  1  0.83230174  -0.00006264  0.49648708  1
  Sb  Sb106  1  0.34078561  0.33096376  0.66600400  1
  Sb  Sb107  1  0.16913666  0.50602730  0.00215591  1
  Te  Te108  1  0.16757010  0.16666203  0.17296247  1
  Te  Te109  1  0.17181140  0.17153319  0.49572010  1
  Te  Te110  1  0.17371380  0.16779384  0.83304732  1
  Te  Te111  1  0.16550292  0.50491797  0.17184143  1
  Te  Te112  1  0.16640575  0.49650421  0.49894604  1
  Te  Te113  1  0.16617818  0.50532408  0.83199665  1
  Te  Te114  1  0.16671431  0.83087996  0.16241303  1
  Te  Te115  1  0.16099989  0.83250737  0.49994504  1
  Te  Te116  1  0.16338888  0.82806533  0.83803186  1
  Te  Te117  1  0.49920743  0.16428814  0.16879684  1
  Te  Te118  1  0.49429642  0.16824977  0.50795521  1
  Te  Te119  1  0.49958451  0.16580994  0.83175666  1
  Te  Te120  1  0.50335021  0.50084953  0.16580088  1
  Te  Te121  1  0.50395839  0.50499758  0.49703429  1
  Te  Te122  1  0.50129529  0.49993815  0.83580498  1
  Te  Te123  1  0.50466596  0.83291299  0.16618654  1
  Te  Te124  1  0.50292176  0.82859348  0.49963573  1
  Te  Te125  1  0.49968155  0.83648580  0.83257101  1
  Te  Te126  1  0.83365886  0.16786540  0.16789309  1
  Te  Te127  1  0.83335887  0.17533305  0.49932475  1
  Te  Te128  1  0.82814379  0.16692316  0.83208390  1
  Te  Te129  1  0.82533579  0.49819225  0.16411907  1
  Te  Te130  1  0.82871178  0.49639172  0.50098084  1
  Te  Te131  1  0.82818534  0.49994624  0.83304044  1
  Te  Te132  1  0.82682958  0.83505386  0.16629663  1
  Te  Te133  1  0.83050221  0.83347914  0.49769656  1
  Te  Te134  1  0.84017796  0.83393890  0.83988939  1
  Te  Te135  1  0.16842184  -0.00548377  0.00467986  1
  Te  Te136  1  0.17030091  -0.00075439  0.32800845  1
  Te  Te137  1  0.16805727  0.00035353  0.66796885  1
  Te  Te138  1  0.16450793  0.33356331  0.00056247  1
  Te  Te139  1  0.17038292  0.33724102  0.33518504  1
  Te  Te140  1  0.16513695  0.33861021  0.66185988  1
  Te  Te141  1  0.16936627  0.66934278  0.00214052  1
  Te  Te142  1  0.16979329  0.66365509  0.33079300  1
  Te  Te143  1  0.16670229  0.66290581  0.66661219  1
  Te  Te144  1  0.50165306  -0.00298292  0.00217082  1
  Te  Te145  1  0.49881660  -0.00148142  0.33203589  1
  Te  Te146  1  0.49882670  -0.00288011  0.66598431  1
  Te  Te147  1  0.50209533  0.33425993  -0.00018656  1
  Te  Te148  1  0.49488211  0.33386661  0.33133724  1
  Te  Te149  1  0.50619884  0.33345444  0.66871154  1
  Te  Te150  1  0.50226730  0.66796280  0.00306250  1
  Te  Te151  1  0.50023809  0.66778643  0.33039297  1
  Te  Te152  1  0.50280582  0.67135164  0.66739168  1
  Te  Te153  1  0.83279822  -0.00184649  0.00427262  1
  Te  Te154  1  0.83339478  -0.00477687  0.32788646  1
  Te  Te155  1  0.83853354  0.00035436  0.66687498  1
  Te  Te156  1  0.82935109  0.33725501  0.00560339  1
  Te  Te157  1  0.83464543  0.33418061  0.33088466  1
  Te  Te158  1  0.82718986  0.33872287  0.66396594  1
  Te  Te159  1  0.83188095  0.66729464  0.00178628  1
  Te  Te160  1  0.84278744  0.67222247  0.33218080  1
  Te  Te161  1  0.83238462  0.66182147  0.66638669  1
  Te  Te162  1  0.00092791  0.16074359  -0.00176050  1
  Te  Te163  1  0.00922500  0.16631836  0.33488091  1
  Te  Te164  1  0.00023365  0.16000633  0.66669560  1
  Te  Te165  1  -0.00375592  0.50779620  -0.00079169  1
  Te  Te166  1  0.00248333  0.50815034  0.33407321  1
  Te  Te167  1  0.00193207  0.50558463  0.66688553  1
  Te  Te168  1  -0.00082648  0.83093914  0.00086639  1
  Te  Te169  1  0.00045041  0.82860040  0.33693233  1
  Te  Te170  1  -0.00119743  0.83118338  0.66802679  1
  Te  Te171  1  0.33256620  0.17420265  -0.00650269  1
  Te  Te172  1  0.33090256  0.16544617  0.33499571  1
  Te  Te173  1  0.33737656  0.16394481  0.66726057  1
  Te  Te174  1  0.33575695  0.49551501  -0.00533054  1
  Te  Te175  1  0.33706437  0.49934192  0.33428521  1
  Te  Te176  1  0.32918610  0.49989143  0.67087635  1
  Te  Te177  1  0.33413053  0.83299816  -0.00079449  1
  Te  Te178  1  0.33920438  0.83660766  0.33426993  1
  Te  Te179  1  0.33784475  0.83944601  0.66577238  1
  Te  Te180  1  0.66753421  0.16055735  -0.00704230  1
  Te  Te181  1  0.66733596  0.15721298  0.33594047  1
  Te  Te182  1  0.66037617  0.16546737  0.67224364  1
  Te  Te183  1  0.66537000  0.50254861  0.00107198  1
  Te  Te184  1  0.66171673  0.49896787  0.33839042  1
  Te  Te185  1  0.66559233  0.50258797  0.66207698  1
  Te  Te186  1  0.66733572  0.83178588  -0.00015924  1
  Te  Te187  1  0.66529035  0.83334302  0.33228236  1
  Te  Te188  1  0.66488601  0.82741571  0.66744116  1
  Te  Te189  1  0.00436288  -0.00055578  0.16141310  1
  Te  Te190  1  0.00014889  -0.00628110  0.50452179  1
  Te  Te191  1  0.00179048  -0.00551768  0.83521403  1
  Te  Te192  1  -0.00562522  0.33316170  0.16640082  1
  Te  Te193  1  0.00098724  0.33250417  0.50028001  1
  Te  Te194  1  0.00089778  0.32947760  0.83340601  1
  Te  Te195  1  0.00513166  0.66702809  0.16490032  1
  Te  Te196  1  0.00020848  0.67177716  0.50524092  1
  Te  Te197  1  0.00371580  0.66965528  0.83352800  1
  Te  Te198  1  0.33184448  0.00088389  0.16989062  1
  Te  Te199  1  0.33286664  0.00494025  0.49951140  1
  Te  Te200  1  0.33894030  0.00276704  0.83087452  1
  Te  Te201  1  0.33796378  0.33334027  0.16658948  1
  Te  Te202  1  0.33112172  0.33029760  0.49646792  1
  Te  Te203  1  0.33969684  0.33518676  0.83374000  1
  Te  Te204  1  0.33460793  0.66625612  0.17297108  1
  Te  Te205  1  0.33979177  0.66707874  0.49428212  1
  Te  Te206  1  0.32711104  0.66163202  0.83242928  1
  Te  Te207  1  0.66548480  0.00045684  0.16552334  1
  Te  Te208  1  0.66803638  -0.00481905  0.49830283  1
  Te  Te209  1  0.66052320  0.00048288  0.83733609  1
  Te  Te210  1  0.66421553  0.33102768  0.16478556  1
  Te  Te211  1  0.66884344  0.33381901  0.49921460  1
  Te  Te212  1  0.66227679  0.33591662  0.83473880  1
  Te  Te213  1  0.66285479  0.66693785  0.16352312  1
  Te  Te214  1  0.66390568  0.66818990  0.50042712  1
  Te  Te215  1  0.66666650  0.66139345  0.83401366  1
