# generated using pymatgen
data_AgSbTe2
_symmetry_space_group_name_H-M   'P 1'
_cell_length_a   18.31297007
_cell_length_b   18.32182929
_cell_length_c   18.32164985
_cell_angle_alpha   89.99891429
_cell_angle_beta   90.00141004
_cell_angle_gamma   89.99642688
_symmetry_Int_Tables_number   1
_chemical_formula_structural   AgSbTe2
_chemical_formula_sum   'Ag54 Sb54 Te108'
_cell_volume   6147.41023501
_cell_formula_units_Z   54
loop_
 _symmetry_equiv_pos_site_id
 _symmetry_equiv_pos_as_xyz
  1  'x, y, z'
loop_
 _atom_site_type_symbol
 _atom_site_label
 _atom_site_symmetry_multiplicity
 _atom_site_fract_x
 _atom_site_fract_y
 _atom_site_fract_z
 _atom_site_occupancy
  Ag  Ag0  1  0.66346697  0.50015029  0.49405959  1
  Ag  Ag1  1  0.49809875  0.16424852  -0.00713409  1
  Ag  Ag2  1  0.66627363  0.33607186  0.33127800  1
  Ag  Ag3  1  0.16029985  0.66713710  0.84171360  1
  Ag  Ag4  1  0.66493268  0.49776248  0.83592470  1
  Ag  Ag5  1  0.00119702  0.66398881  0.32511747  1
  Ag  Ag6  1  0.50221346  0.32369437  0.83181335  1
  Ag  Ag7  1  0.83059485  0.33290950  0.48980366  1
  Ag  Ag8  1  0.00048992  0.83621457  0.84372792  1
  Ag  Ag9  1  0.00544071  0.50132156  0.49137317  1
  Ag  Ag10  1  0.00109547  0.67008928  0.00547098  1
  Ag  Ag11  1  0.32941437  0.16713875  0.16874090  1
  Ag  Ag12  1  0.66445656  0.33573064  0.66563779  1
  Ag  Ag13  1  0.50174164  0.16575406  0.67177781  1
  Ag  Ag14  1  0.83480465  0.17014968  0.33336801  1
  Ag  Ag15  1  0.16809193  0.83265334  0.66611984  1
  Ag  Ag16  1  0.83370547  0.32987251  0.16962648  1
  Ag  Ag17  1  0.66859717  0.83389250  0.17114313  1
  Ag  Ag18  1  0.32479492  0.83824614  0.16682483  1
  Ag  Ag19  1  0.66966445  0.33243366  0.00528884  1
  Ag  Ag20  1  0.16323192  0.34434078  0.16782239  1
  Ag  Ag21  1  0.33889606  0.16616940  0.83684927  1
  Ag  Ag22  1  0.66688965  0.49835848  0.17153530  1
  Ag  Ag23  1  0.67002400  0.66526028  0.33309124  1
  Ag  Ag24  1  0.00322645  0.15782757  0.83537245  1
  Ag  Ag25  1  0.33588935  0.33255521  0.33076178  1
  Ag  Ag26  1  0.00175587  0.82840518  0.16187573  1
  Ag  Ag27  1  0.16701107  0.17330462  0.32864794  1
  Ag  Ag28  1  0.32130787  0.49669163  0.17224942  1
  Ag  Ag29  1  -0.00465002  0.33399407  0.00380267  1
  Ag  Ag30  1  0.16853584  0.66430523  0.49257629  1
  Ag  Ag31  1  0.66148797  0.82852194  0.48968946  1
  Ag  Ag32  1  -0.00048227  -0.00059062  0.67583402  1
  Ag  Ag33  1  0.16205013  0.65720209  0.16942320  1
  Ag  Ag34  1  0.84071724  0.66765379  0.83644069  1
  Ag  Ag35  1  0.16638137  0.49785875  0.32541843  1
  Ag  Ag36  1  0.33518796  0.17142889  0.49275430  1
  Ag  Ag37  1  0.49994876  0.66935231  0.49836002  1
  Ag  Ag38  1  0.33344717  0.00339305  0.00439403  1
  Ag  Ag39  1  0.82707185  0.16748967  0.66449723  1
  Ag  Ag40  1  0.50071432  0.00689643  0.83117744  1
  Ag  Ag41  1  0.50517537  0.83408043  0.33761964  1
  Ag  Ag42  1  0.33459530  0.49662184  0.49124864  1
  Ag  Ag43  1  0.16424430  0.50097440  0.01308173  1
  Ag  Ag44  1  0.83489504  0.00221126  0.16466795  1
  Ag  Ag45  1  0.00930180  0.50638067  0.16870422  1
  Ag  Ag46  1  0.50362070  0.49390882  0.66350315  1
  Ag  Ag47  1  0.66572971  -0.00618741  0.32689112  1
  Ag  Ag48  1  0.50144620  -0.00451017  0.50473892  1
  Ag  Ag49  1  0.16389731  -0.00191732  0.16614886  1
  Ag  Ag50  1  0.49997715  0.83867236  0.66027401  1
  Ag  Ag51  1  0.66683052  0.00280822  0.00635356  1
  Ag  Ag52  1  -0.00109164  -0.00321772  0.00126382  1
  Ag  Ag53  1  0.83686199  0.83621207  0.00361860  1
  Sb  Sb54  1  0.17030595  0.82974073  0.33104699  1
  Sb  Sb55  1  0.49992974  0.66770637  0.82706194  1
  Sb  Sb56  1  0.49964419  0.16374204  0.33438902  1
  Sb  Sb57  1  0.49966332  0.50311296  0.33800043  1
  Sb  Sb58  1  0.50121051  0.33318048  0.16484263  1
  Sb  Sb59  1  0.83223883  0.83875334  0.66968038  1
  Sb  Sb60  1  0.66383284  0.16619259  0.16735372  1
  Sb  Sb61  1  0.50415541  0.83974326  0.00068234  1
  Sb  Sb62  1  0.16908580  0.16196597  0.66345134  1
  Sb  Sb63  1  0.66216775  0.16925515  0.49937182  1
  Sb  Sb64  1  0.15935233  0.82984265  0.00166355  1
  Sb  Sb65  1  0.32945612  0.83761198  0.83894294  1
  Sb  Sb66  1  0.83229421  0.66163183  0.50109918  1
  Sb  Sb67  1  0.00133363  0.67040393  0.66885105  1
  Sb  Sb68  1  0.16975374  0.33630178  0.84140905  1
  Sb  Sb69  1  0.33328675  0.00076062  0.67021014  1
  Sb  Sb70  1  0.82697634  0.83740074  0.32656474  1
  Sb  Sb71  1  0.16966415  0.16829267  0.00653296  1
  Sb  Sb72  1  0.83499178  0.49548646  0.33153456  1
  Sb  Sb73  1  0.17008027  0.50436695  0.66202620  1
  Sb  Sb74  1  0.33521091  0.32862789  0.00711060  1
  Sb  Sb75  1  0.82741989  0.33504976  0.83738399  1
  Sb  Sb76  1  0.67192849  0.66581910  0.00624273  1
  Sb  Sb77  1  0.33786563  0.00382250  0.32781090  1
  Sb  Sb78  1  0.66932531  0.82968949  0.83546193  1
  Sb  Sb79  1  0.82835062  0.00427262  0.49497031  1
  Sb  Sb80  1  0.33324048  0.66698202  0.66488775  1
  Sb  Sb81  1  -0.00145895  0.33751331  0.32563912  1
  Sb  Sb82  1  0.33984108  0.83202502  0.49484950  1
  Sb  Sb83  1  0.17055328  -0.00350462  0.49548341  1
  Sb  Sb84  1  -0.00376135  -0.00374719  0.32722417  1
  Sb  Sb85  1  0.49845780  0.49522231  -0.00293976  1
  Sb  Sb86  1  0.83885555  0.66747680  0.16533816  1
  Sb  Sb87  1  0.33697770  0.49603987  0.83514862  1
  Sb  Sb88  1  0.49797752  0.66816521  0.17200880  1
  Sb  Sb89  1  -0.00556250  0.32970499  0.67176840  1
  Sb  Sb90  1  0.83738739  0.50160405  0.00344279  1
  Sb  Sb91  1  0.33874191  0.33239001  0.66098748  1
  Sb  Sb92  1  0.66643892  0.00336298  0.66697973  1
  Sb  Sb93  1  -0.00279329  0.50251482  0.83754534  1
  Sb  Sb94  1  0.50130249  0.00010073  0.16498560  1
  Sb  Sb95  1  0.00409604  0.16742527  0.16251305  1
  Sb  Sb96  1  0.16624502  -0.00252758  0.83937177  1
  Sb  Sb97  1  0.83162649  -0.00047824  0.83945615  1
  Sb  Sb98  1  0.16371778  0.33880761  0.49247314  1
  Sb  Sb99  1  0.50486582  0.33463515  0.50338720  1
  Sb  Sb100  1  -0.00295447  0.82840201  0.49723409  1
  Sb  Sb101  1  0.82803699  0.49451980  0.66581236  1
  Sb  Sb102  1  0.33192097  0.66143406  0.33295753  1
  Sb  Sb103  1  0.66426013  0.17085848  0.83395769  1
  Sb  Sb104  1  0.66570934  0.66169716  0.66098328  1
  Sb  Sb105  1  0.32659477  0.67015711  0.00393717  1
  Sb  Sb106  1  0.00288356  0.17069561  0.50174622  1
  Sb  Sb107  1  0.83170113  0.16421292  0.00124177  1
  Te  Te108  1  0.17042247  0.16177771  0.17024207  1
  Te  Te109  1  0.17309332  0.16674209  0.49417240  1
  Te  Te110  1  0.16571227  0.16678378  0.83268138  1
  Te  Te111  1  0.16504177  0.50051099  0.16929898  1
  Te  Te112  1  0.16860652  0.50433232  0.49778727  1
  Te  Te113  1  0.16747445  0.50557314  0.83141902  1
  Te  Te114  1  0.16524757  0.83789967  0.16747672  1
  Te  Te115  1  0.16761205  0.82802664  0.50238072  1
  Te  Te116  1  0.16259989  0.82982070  0.82921932  1
  Te  Te117  1  0.49063167  0.16668669  0.16280368  1
  Te  Te118  1  0.49500506  0.16479789  0.50298058  1
  Te  Te119  1  0.50052723  0.16498977  0.83259345  1
  Te  Te120  1  0.50767157  0.50147741  0.16577553  1
  Te  Te121  1  0.50069338  0.50092504  0.50298688  1
  Te  Te122  1  0.50376782  0.50018007  0.82773255  1
  Te  Te123  1  0.50618506  0.83315250  0.16912295  1
  Te  Te124  1  0.50133272  0.83312296  0.49987156  1
  Te  Te125  1  0.49894152  0.83629416  0.82818582  1
  Te  Te126  1  0.83422181  0.16711805  0.16928732  1
  Te  Te127  1  0.83454677  0.17153202  0.49953323  1
  Te  Te128  1  0.83913194  0.16704218  0.82843591  1
  Te  Te129  1  0.82558805  0.49440549  0.16573855  1
  Te  Te130  1  0.82868053  0.49454719  0.50058822  1
  Te  Te131  1  0.82745157  0.50412369  0.83352811  1
  Te  Te132  1  0.83318730  0.83499069  0.16391213  1
  Te  Te133  1  0.82481236  0.83375131  0.50084150  1
  Te  Te134  1  0.83794943  0.83044347  0.83693581  1
  Te  Te135  1  0.16519436  0.00019475  0.00528354  1
  Te  Te136  1  0.16620927  0.00228658  0.32827056  1
  Te  Te137  1  0.16200084  -0.00622157  0.66477141  1
  Te  Te138  1  0.16405370  0.33770300  0.00638565  1
  Te  Te139  1  0.16557621  0.33420588  0.32834795  1
  Te  Te140  1  0.16546283  0.33332676  0.66785244  1
  Te  Te141  1  0.16174795  0.66367746  0.00285255  1
  Te  Te142  1  0.16504762  0.66376247  0.33214100  1
  Te  Te143  1  0.16675201  0.67218413  0.66219744  1
  Te  Te144  1  0.50286702  0.00291068  -0.00275231  1
  Te  Te145  1  0.50551948  -0.00311667  0.33738616  1
  Te  Te146  1  0.50052181  0.00185355  0.66731299  1
  Te  Te147  1  0.50454507  0.32906323  -0.00547241  1
  Te  Te148  1  0.50302099  0.33249637  0.33460968  1
  Te  Te149  1  0.50382381  0.33098927  0.66967653  1
  Te  Te150  1  0.49988456  0.66705309  -0.00224421  1
  Te  Te151  1  0.50483608  0.67161187  0.33850700  1
  Te  Te152  1  0.49987289  0.67047213  0.66011003  1
  Te  Te153  1  0.83286128  -0.00179037  0.00459011  1
  Te  Te154  1  0.82805918  0.00718868  0.32769784  1
  Te  Te155  1  0.83682033  0.00649211  0.66583673  1
  Te  Te156  1  0.83086936  0.33232388  0.00490227  1
  Te  Te157  1  0.83244119  0.32999464  0.33077975  1
  Te  Te158  1  0.82739027  0.32733894  0.66745245  1
  Te  Te159  1  0.83935893  0.67089079  -0.00279180  1
  Te  Te160  1  0.83203695  0.66751150  0.33395757  1
  Te  Te161  1  0.83301494  0.66845018  0.67432147  1
  Te  Te162  1  0.00024962  0.16573242  -0.00459127  1
  Te  Te163  1  -0.00013799  0.16542584  0.33406020  1
  Te  Te164  1  0.00120769  0.16166712  0.67040609  1
  Te  Te165  1  0.00323115  0.49849018  0.00269656  1
  Te  Te166  1  0.00190226  0.50312757  0.33144619  1
  Te  Te167  1  -0.00007126  0.49964880  0.66124112  1
  Te  Te168  1  -0.00098735  0.83435790  0.00144746  1
  Te  Te169  1  -0.00030496  0.82682781  0.32842307  1
  Te  Te170  1  0.00089043  0.83842840  0.66510207  1
  Te  Te171  1  0.33549169  0.16414464  -0.00029487  1
  Te  Te172  1  0.33244881  0.17015122  0.33184646  1
  Te  Te173  1  0.33725094  0.16624046  0.66856403  1
  Te  Te174  1  0.32936203  0.49971769  0.00463308  1
  Te  Te175  1  0.33308650  0.49600776  0.33217897  1
  Te  Te176  1  0.34108150  0.49899761  0.66309694  1
  Te  Te177  1  0.33535430  0.83993837  0.00733118  1
  Te  Te178  1  0.33957903  0.83303898  0.32630998  1
  Te  Te179  1  0.33480737  0.83449211  0.66748043  1
  Te  Te180  1  0.66262585  0.16667139  0.00044825  1
  Te  Te181  1  0.66931833  0.17129250  0.33378646  1
  Te  Te182  1  0.66535017  0.17116433  0.66690882  1
  Te  Te183  1  0.66657229  0.49726181  0.00237933  1
  Te  Te184  1  0.66630671  0.49852685  0.33352868  1
  Te  Te185  1  0.66301099  0.49540544  0.66320901  1
  Te  Te186  1  0.67230448  0.83475560  0.00438160  1
  Te  Te187  1  0.66611641  0.83473417  0.33195318  1
  Te  Te188  1  0.66227588  0.83409164  0.66625230  1
  Te  Te189  1  -0.00174619  -0.00089691  0.16328654  1
  Te  Te190  1  0.00000596  -0.00082861  0.50123232  1
  Te  Te191  1  -0.00084752  -0.00245179  0.83666916  1
  Te  Te192  1  -0.00050544  0.33375101  0.16237594  1
  Te  Te193  1  -0.00532551  0.33929465  0.50197512  1
  Te  Te194  1  -0.00019816  0.33259464  0.84051410  1
  Te  Te195  1  0.00053795  0.66596948  0.16583530  1
  Te  Te196  1  0.00078941  0.66141977  0.49736980  1
  Te  Te197  1  0.00123253  0.66859493  0.83572928  1
  Te  Te198  1  0.33380703  -0.00022351  0.16386880  1
  Te  Te199  1  0.33861008  0.00279447  0.49924368  1
  Te  Te200  1  0.33550621  0.00480773  0.83941882  1
  Te  Te201  1  0.33268392  0.33564035  0.17057537  1
  Te  Te202  1  0.33202484  0.33503568  0.49413274  1
  Te  Te203  1  0.33840677  0.32799967  0.83374749  1
  Te  Te204  1  0.32778999  0.66375357  0.16779675  1
  Te  Te205  1  0.33464134  0.66285424  0.49863161  1
  Te  Te206  1  0.32559673  0.66660025  0.83511761  1
  Te  Te207  1  0.66763408  0.00027685  0.16658792  1
  Te  Te208  1  0.66215965  -0.00188976  0.49843852  1
  Te  Te209  1  0.66267340  -0.00117371  0.83855819  1
  Te  Te210  1  0.66774699  0.33230975  0.16675483  1
  Te  Te211  1  0.66995412  0.33529891  0.49711280  1
  Te  Te212  1  0.66314999  0.33709692  0.83605559  1
  Te  Te213  1  0.66711670  0.66744033  0.17237934  1
  Te  Te214  1  0.66638548  0.66487150  0.49513683  1
  Te  Te215  1  0.66799486  0.66044065  0.83523667  1
