# generated using pymatgen
data_AgSbTe2
_symmetry_space_group_name_H-M   'P 1'
_cell_length_a   18.34497990
_cell_length_b   18.35139016
_cell_length_c   18.34513025
_cell_angle_alpha   90.00079684
_cell_angle_beta   89.99411126
_cell_angle_gamma   89.99426578
_symmetry_Int_Tables_number   1
_chemical_formula_structural   AgSbTe2
_chemical_formula_sum   'Ag54 Sb54 Te108'
_cell_volume   6175.99596831
_cell_formula_units_Z   54
loop_
 _symmetry_equiv_pos_site_id
 _symmetry_equiv_pos_as_xyz
  1  'x, y, z'
loop_
 _atom_site_type_symbol
 _atom_site_label
 _atom_site_symmetry_multiplicity
 _atom_site_fract_x
 _atom_site_fract_y
 _atom_site_fract_z
 _atom_site_occupancy
  Ag  Ag0  1  0.16375894  0.66668417  0.49958413  1
  Ag  Ag1  1  0.50071951  0.50114798  0.00985017  1
  Ag  Ag2  1  0.67348508  -0.00157968  0.33360341  1
  Ag  Ag3  1  0.67497222  0.33533146  0.66227601  1
  Ag  Ag4  1  -0.00608794  0.82288445  0.16174525  1
  Ag  Ag5  1  0.33189877  0.82459895  0.83518463  1
  Ag  Ag6  1  0.00550061  0.66812206  0.00541398  1
  Ag  Ag7  1  0.49925193  0.00420402  0.50663106  1
  Ag  Ag8  1  0.83208037  0.34119933  0.49458415  1
  Ag  Ag9  1  0.49230566  0.66467658  0.83783143  1
  Ag  Ag10  1  0.17320768  0.66638680  0.84352656  1
  Ag  Ag11  1  0.00249006  -0.00701470  0.00256921  1
  Ag  Ag12  1  -0.00199225  0.17534878  0.16123622  1
  Ag  Ag13  1  0.33241522  0.50257634  0.49910476  1
  Ag  Ag14  1  0.67782386  0.33830111  0.00960663  1
  Ag  Ag15  1  0.83421828  0.50154453  0.32766988  1
  Ag  Ag16  1  0.84276593  0.17923045  0.66395341  1
  Ag  Ag17  1  0.83212514  0.49506822  0.65942852  1
  Ag  Ag18  1  0.16168158  0.82937596  -0.00390408  1
  Ag  Ag19  1  0.83343617  0.34500139  0.17652490  1
  Ag  Ag20  1  0.00210190  0.00406450  0.66628671  1
  Ag  Ag21  1  0.49587475  0.83308629  0.66968186  1
  Ag  Ag22  1  0.83985921  0.65405403  0.48826005  1
  Ag  Ag23  1  0.32420440  0.66676955  0.00094895  1
  Ag  Ag24  1  -0.01093093  0.49856462  0.49759825  1
  Ag  Ag25  1  0.84356656  0.82271596  0.01081027  1
  Ag  Ag26  1  0.32298053  -0.00990652  -0.00069649  1
  Ag  Ag27  1  0.49606840  -0.00818705  0.82558629  1
  Ag  Ag28  1  0.83655275  0.65840091  0.17000141  1
  Ag  Ag29  1  0.50980228  0.33773224  0.50310598  1
  Ag  Ag30  1  0.16677558  0.83530727  0.67176304  1
  Ag  Ag31  1  0.15940486  -0.00556860  0.50590057  1
  Ag  Ag32  1  0.15821107  0.66517915  0.15967561  1
  Ag  Ag33  1  0.50030740  0.17046311  0.66591310  1
  Ag  Ag34  1  -0.00682640  0.33154827  0.66556308  1
  Ag  Ag35  1  0.51118222  0.34378679  0.16736116  1
  Ag  Ag36  1  0.50241494  0.49752667  0.66847881  1
  Ag  Ag37  1  -0.00855304  0.33766508  0.32543564  1
  Ag  Ag38  1  0.33768076  0.50517762  0.16385995  1
  Ag  Ag39  1  0.67269001  0.34055463  0.33054448  1
  Ag  Ag40  1  -0.01246961  0.50131495  0.16502091  1
  Ag  Ag41  1  -0.00417681  0.34042772  0.00694148  1
  Ag  Ag42  1  0.67315741  0.49923448  0.16539341  1
  Ag  Ag43  1  0.16287368  0.16274322  -0.00426974  1
  Ag  Ag44  1  0.33556883  0.50759669  0.84078828  1
  Ag  Ag45  1  0.83399208  0.81983639  0.32703990  1
  Ag  Ag46  1  0.49324116  0.66011573  0.16192824  1
  Ag  Ag47  1  0.15949832  0.16316096  0.67021233  1
  Ag  Ag48  1  0.16524586  0.33865932  0.83426595  1
  Ag  Ag49  1  0.83457414  0.50153560  0.01341145  1
  Ag  Ag50  1  0.33590606  0.66346015  0.32166368  1
  Ag  Ag51  1  0.83727359  -0.00364406  0.17277028  1
  Ag  Ag52  1  0.83514815  -0.00045263  0.49528487  1
  Ag  Ag53  1  0.67349958  0.65883515  0.33029933  1
  Sb  Sb54  1  0.32803308  0.17316098  0.16288586  1
  Sb  Sb55  1  0.33666018  0.34387411  0.33251789  1
  Sb  Sb56  1  0.66772597  0.83347122  0.49989646  1
  Sb  Sb57  1  0.00170908  0.66560052  0.66961050  1
  Sb  Sb58  1  0.33300681  0.33600229  0.66633278  1
  Sb  Sb59  1  0.33229705  0.17069910  0.50103474  1
  Sb  Sb60  1  0.65997880  0.83206532  0.83476345  1
  Sb  Sb61  1  0.67466305  0.82484308  0.16799102  1
  Sb  Sb62  1  0.83740459  0.33532730  0.83184386  1
  Sb  Sb63  1  0.67108015  0.00445018  0.00536530  1
  Sb  Sb64  1  0.33198774  -0.00095238  0.67021916  1
  Sb  Sb65  1  -0.00041610  0.82886644  0.49598507  1
  Sb  Sb66  1  0.16230436  0.16593751  0.33375913  1
  Sb  Sb67  1  0.16090572  0.50211109  0.33314557  1
  Sb  Sb68  1  0.66177700  0.49906243  0.83804625  1
  Sb  Sb69  1  0.33230287  0.66536539  0.67210388  1
  Sb  Sb70  1  0.33662641  -0.00948229  0.33065460  1
  Sb  Sb71  1  0.84061911  0.17122443  -0.00069502  1
  Sb  Sb72  1  -0.00383954  0.66061937  0.32650376  1
  Sb  Sb73  1  -0.00588250  0.00352566  0.33248886  1
  Sb  Sb74  1  0.66990698  0.49831424  0.49413557  1
  Sb  Sb75  1  0.50715486  0.83037318  0.33733425  1
  Sb  Sb76  1  0.16595657  0.50092434  0.66688551  1
  Sb  Sb77  1  0.49931684  0.66190337  0.49962272  1
  Sb  Sb78  1  0.17027464  -0.00337340  0.83315599  1
  Sb  Sb79  1  0.67476122  0.17580584  0.16643985  1
  Sb  Sb80  1  0.66812307  0.66044189  0.00661331  1
  Sb  Sb81  1  0.50099486  0.16882251  0.33779989  1
  Sb  Sb82  1  -0.00181335  0.17053567  0.50065987  1
  Sb  Sb83  1  0.00203430  0.16726402  0.83540714  1
  Sb  Sb84  1  0.33138741  0.16718544  0.83354261  1
  Sb  Sb85  1  0.15971241  -0.00468377  0.16537265  1
  Sb  Sb86  1  0.49814873  0.82630605  -0.00246804  1
  Sb  Sb87  1  0.32944073  0.34134644  0.00076081  1
  Sb  Sb88  1  0.66512822  0.16870568  0.83206336  1
  Sb  Sb89  1  0.16023681  0.82861652  0.33100815  1
  Sb  Sb90  1  0.15826818  0.34054142  0.16108798  1
  Sb  Sb91  1  0.83347643  0.17309414  0.33614222  1
  Sb  Sb92  1  0.66916666  0.16957318  0.50030681  1
  Sb  Sb93  1  0.83418094  0.66467519  0.83825755  1
  Sb  Sb94  1  0.83558203  0.83210219  0.66429611  1
  Sb  Sb95  1  0.16401682  0.50460813  0.00068265  1
  Sb  Sb96  1  0.32711019  0.82490740  0.15991810  1
  Sb  Sb97  1  0.66775217  0.00557799  0.66187045  1
  Sb  Sb98  1  0.00589918  0.83242936  0.83955307  1
  Sb  Sb99  1  0.16114403  0.33565176  0.50451645  1
  Sb  Sb100  1  0.33147613  0.82765471  0.50484002  1
  Sb  Sb101  1  0.49463853  0.17158693  -0.00411196  1
  Sb  Sb102  1  0.66584443  0.65938432  0.66093048  1
  Sb  Sb103  1  0.50503223  -0.00107069  0.16636760  1
  Sb  Sb104  1  0.49543123  0.33869663  0.83137564  1
  Sb  Sb105  1  0.00373589  0.49884436  0.83560895  1
  Sb  Sb106  1  0.83174667  -0.00161689  0.83361326  1
  Sb  Sb107  1  0.50645501  0.50078791  0.32912876  1
  Te  Te108  1  0.16014092  0.16693592  0.16264864  1
  Te  Te109  1  0.16612031  0.16261185  0.50548124  1
  Te  Te110  1  0.16765393  0.16931847  0.83149453  1
  Te  Te111  1  0.17575891  0.50647016  0.16741675  1
  Te  Te112  1  0.16975066  0.50336037  0.50052843  1
  Te  Te113  1  0.17245460  0.50355903  0.83298642  1
  Te  Te114  1  0.16000691  0.82747424  0.16312129  1
  Te  Te115  1  0.16556081  0.83322140  0.50252294  1
  Te  Te116  1  0.17100522  0.83005465  0.83375428  1
  Te  Te117  1  0.49888018  0.17099014  0.16594567  1
  Te  Te118  1  0.49841893  0.16678499  0.50503217  1
  Te  Te119  1  0.49771333  0.16410891  0.82754837  1
  Te  Te120  1  0.49804812  0.50037800  0.16776740  1
  Te  Te121  1  0.49883247  0.49820795  0.50235224  1
  Te  Te122  1  0.49576300  0.50262389  0.82965809  1
  Te  Te123  1  0.50120557  0.82853548  0.16728800  1
  Te  Te124  1  0.49934207  0.83500009  0.50659590  1
  Te  Te125  1  0.49448548  0.83082985  0.83154626  1
  Te  Te126  1  0.83968518  0.16066381  0.16443114  1
  Te  Te127  1  0.83474287  0.16092547  0.50717556  1
  Te  Te128  1  0.83231472  0.16473627  0.82197789  1
  Te  Te129  1  0.83309161  0.49908387  0.16804852  1
  Te  Te130  1  0.83260493  0.49816462  0.50195219  1
  Te  Te131  1  0.83249204  0.50196622  0.82520961  1
  Te  Te132  1  0.83491883  0.83542421  0.16721710  1
  Te  Te133  1  0.83447720  0.83932228  0.49690375  1
  Te  Te134  1  0.83178871  0.83222067  0.83790027  1
  Te  Te135  1  0.16385845  -0.00208675  0.00020509  1
  Te  Te136  1  0.16832824  -0.00221906  0.34200963  1
  Te  Te137  1  0.16557987  -0.00054789  0.66672976  1
  Te  Te138  1  0.16173613  0.33031005  -0.00306849  1
  Te  Te139  1  0.16289322  0.33228295  0.33395586  1
  Te  Te140  1  0.16261048  0.33019861  0.66957791  1
  Te  Te141  1  0.16579030  0.66759014  0.00104678  1
  Te  Te142  1  0.17113415  0.66753342  0.33907650  1
  Te  Te143  1  0.16565836  0.67095701  0.66018472  1
  Te  Te144  1  0.50154803  0.00108844  -0.00078460  1
  Te  Te145  1  0.50513030  -0.00062075  0.33762767  1
  Te  Te146  1  0.50056055  -0.00078982  0.66571815  1
  Te  Te147  1  0.49746472  0.33817561  0.00223827  1
  Te  Te148  1  0.50508044  0.33324727  0.33542254  1
  Te  Te149  1  0.49927239  0.33514524  0.66470378  1
  Te  Te150  1  0.50188426  0.66243996  0.00110220  1
  Te  Te151  1  0.50168581  0.66762758  0.32993298  1
  Te  Te152  1  0.50111115  0.66513283  0.66812309  1
  Te  Te153  1  0.83845232  0.00208753  0.00058455  1
  Te  Te154  1  0.83168557  0.00694208  0.33453498  1
  Te  Te155  1  0.83566093  -0.00325510  0.66466826  1
  Te  Te156  1  0.83625691  0.33570868  -0.00179115  1
  Te  Te157  1  0.83198937  0.33413398  0.33522291  1
  Te  Te158  1  0.83330690  0.33458271  0.66897350  1
  Te  Te159  1  0.83481532  0.66354202  0.00257289  1
  Te  Te160  1  0.83490686  0.66404328  0.33185736  1
  Te  Te161  1  0.83351229  0.66466505  0.66517046  1
  Te  Te162  1  0.00352634  0.16713249  0.00133641  1
  Te  Te163  1  0.00044592  0.17474758  0.32463426  1
  Te  Te164  1  0.00129135  0.16517201  0.66675355  1
  Te  Te165  1  -0.00222590  0.49967583  0.00127067  1
  Te  Te166  1  -0.00422894  0.49584886  0.33491118  1
  Te  Te167  1  -0.00192896  0.49755374  0.66472306  1
  Te  Te168  1  0.00088444  0.83264050  0.00160379  1
  Te  Te169  1  -0.00712826  0.83576990  0.32613293  1
  Te  Te170  1  0.00385238  0.83781217  0.66658039  1
  Te  Te171  1  0.32594494  0.16142299  -0.00014804  1
  Te  Te172  1  0.33137061  0.16456847  0.33183712  1
  Te  Te173  1  0.33515533  0.16673023  0.66634659  1
  Te  Te174  1  0.33529512  0.50470577  0.00029853  1
  Te  Te175  1  0.33206622  0.50601002  0.33481160  1
  Te  Te176  1  0.33686525  0.49984976  0.66228348  1
  Te  Te177  1  0.33190302  0.83105031  -0.00433313  1
  Te  Te178  1  0.33398360  0.82441933  0.33273533  1
  Te  Te179  1  0.33295326  0.83391257  0.67208389  1
  Te  Te180  1  0.66492020  0.17743595  -0.00083802  1
  Te  Te181  1  0.66602001  0.16432880  0.33231498  1
  Te  Te182  1  0.66062920  0.17291499  0.66652277  1
  Te  Te183  1  0.66720165  0.49585436  0.00362812  1
  Te  Te184  1  0.67174124  0.49908867  0.32810721  1
  Te  Te185  1  0.66508924  0.49514142  0.66832480  1
  Te  Te186  1  0.67389400  0.83592047  0.00058384  1
  Te  Te187  1  0.67442095  0.83624205  0.33368724  1
  Te  Te188  1  0.66060818  0.83373538  0.66791139  1
  Te  Te189  1  -0.00226083  -0.00086806  0.16483027  1
  Te  Te190  1  0.00057292  0.00040659  0.50089341  1
  Te  Te191  1  0.00043009  -0.00063404  0.83302751  1
  Te  Te192  1  -0.00314001  0.33962118  0.16534142  1
  Te  Te193  1  -0.00354953  0.33688169  0.50512636  1
  Te  Te194  1  0.00605944  0.33384827  0.82931660  1
  Te  Te195  1  -0.00138083  0.66269958  0.16555715  1
  Te  Te196  1  -0.00104414  0.66196104  0.50126855  1
  Te  Te197  1  0.00560784  0.66605052  0.84030456  1
  Te  Te198  1  0.33349251  0.00014878  0.16158840  1
  Te  Te199  1  0.33817747  -0.00060414  0.49745570  1
  Te  Te200  1  0.33700128  -0.00091362  0.83931578  1
  Te  Te201  1  0.33734586  0.34004699  0.16766891  1
  Te  Te202  1  0.33544886  0.33946826  0.49784724  1
  Te  Te203  1  0.32642544  0.33986575  0.83399533  1
  Te  Te204  1  0.33459068  0.66528128  0.16275255  1
  Te  Te205  1  0.33208717  0.66254494  0.49875368  1
  Te  Te206  1  0.33267622  0.66488387  0.83534630  1
  Te  Te207  1  0.67179942  0.00268394  0.17089753  1
  Te  Te208  1  0.66689138  0.00069190  0.49608171  1
  Te  Te209  1  0.65806585  0.00033706  0.83460511  1
  Te  Te210  1  0.67050614  0.33629395  0.16892278  1
  Te  Te211  1  0.66971797  0.33362053  0.49990597  1
  Te  Te212  1  0.66437240  0.33389326  0.82945940  1
  Te  Te213  1  0.67094002  0.66106951  0.17099984  1
  Te  Te214  1  0.67294561  0.66683056  0.49236005  1
  Te  Te215  1  0.65907813  0.66678366  0.83175343  1
