# generated using pymatgen
data_AgSbTe2
_symmetry_space_group_name_H-M   'P 1'
_cell_length_a   18.33652101
_cell_length_b   18.33563687
_cell_length_c   18.33820269
_cell_angle_alpha   89.99754703
_cell_angle_beta   90.00186639
_cell_angle_gamma   89.99659989
_symmetry_Int_Tables_number   1
_chemical_formula_structural   AgSbTe2
_chemical_formula_sum   'Ag54 Sb54 Te108'
_cell_volume   6165.51994843
_cell_formula_units_Z   54
loop_
 _symmetry_equiv_pos_site_id
 _symmetry_equiv_pos_as_xyz
  1  'x, y, z'
loop_
 _atom_site_type_symbol
 _atom_site_label
 _atom_site_symmetry_multiplicity
 _atom_site_fract_x
 _atom_site_fract_y
 _atom_site_fract_z
 _atom_site_occupancy
  Ag  Ag0  1  0.16354576  0.66379703  0.83620879  1
  Ag  Ag1  1  0.49762009  0.67550249  0.16574776  1
  Ag  Ag2  1  0.66780184  0.50085360  0.50983640  1
  Ag  Ag3  1  0.33232360  0.66955279  0.00031047  1
  Ag  Ag4  1  0.66861277  0.15460600  0.51326557  1
  Ag  Ag5  1  0.83459197  0.83773648  0.34036471  1
  Ag  Ag6  1  0.83251274  0.15404841  0.33469597  1
  Ag  Ag7  1  0.50899450  -0.00486566  0.50852905  1
  Ag  Ag8  1  0.66946772  0.32345541  -0.00977015  1
  Ag  Ag9  1  0.16247084  0.50030789  0.67505731  1
  Ag  Ag10  1  0.50962733  -0.00052289  0.83325675  1
  Ag  Ag11  1  0.50862971  0.83976583  0.66362827  1
  Ag  Ag12  1  0.16654144  0.67097621  0.15966379  1
  Ag  Ag13  1  0.83154456  0.67921225  0.50328818  1
  Ag  Ag14  1  0.34378262  0.83645180  0.49915020  1
  Ag  Ag15  1  0.16999177  0.50734469  0.33672120  1
  Ag  Ag16  1  0.83769886  0.67193310  0.16571958  1
  Ag  Ag17  1  0.83241261  0.50274568  0.67232191  1
  Ag  Ag18  1  0.17043654  0.34336553  0.83308743  1
  Ag  Ag19  1  0.66643969  0.83905652  0.50342068  1
  Ag  Ag20  1  0.67205421  0.49093555  0.82949211  1
  Ag  Ag21  1  -0.00761587  -0.00623617  0.33329207  1
  Ag  Ag22  1  0.33697295  -0.00341887  0.33874386  1
  Ag  Ag23  1  0.50661506  0.33235494  0.83299453  1
  Ag  Ag24  1  0.16353860  0.83169117  0.32823891  1
  Ag  Ag25  1  0.33579038  0.16509772  0.16646070  1
  Ag  Ag26  1  0.82833186  -0.00200934  0.82712423  1
  Ag  Ag27  1  0.67193375  0.00328818  -0.01003304  1
  Ag  Ag28  1  -0.00271590  0.83453764  0.83773845  1
  Ag  Ag29  1  0.66794695  0.16738019  0.83200741  1
  Ag  Ag30  1  0.49585341  0.50483274  0.33395720  1
  Ag  Ag31  1  0.83645856  0.83720107  -0.00281335  1
  Ag  Ag32  1  0.66898024  0.00339956  0.66984138  1
  Ag  Ag33  1  0.50249684  0.83935092  0.00084111  1
  Ag  Ag34  1  -0.01140472  -0.00560003  -0.00591327  1
  Ag  Ag35  1  -0.00449797  0.83366638  0.15725726  1
  Ag  Ag36  1  0.49749107  -0.00682821  0.16527460  1
  Ag  Ag37  1  0.33048045  0.49744436  0.83138301  1
  Ag  Ag38  1  0.49978960  0.83686758  0.33609560  1
  Ag  Ag39  1  0.15957274  0.83141513  0.00322738  1
  Ag  Ag40  1  0.34296414  -0.00014590  0.66385672  1
  Ag  Ag41  1  0.83285291  0.50281354  -0.01070245  1
  Ag  Ag42  1  0.83092191  0.83994805  0.66303049  1
  Ag  Ag43  1  -0.01628390  -0.00647432  0.67335565  1
  Ag  Ag44  1  0.82694578  0.15416417  -0.00424241  1
  Ag  Ag45  1  0.66416959  0.32430700  0.67257623  1
  Ag  Ag46  1  0.51003527  0.15483358  -0.00233574  1
  Ag  Ag47  1  0.34169114  0.33033148  0.66865799  1
  Ag  Ag48  1  -0.00373830  0.67550715  0.67022279  1
  Ag  Ag49  1  0.82766197  0.15331953  0.67069365  1
  Ag  Ag50  1  -0.00241469  0.50402078  0.83260912  1
  Ag  Ag51  1  -0.00958432  0.33044535  -0.00409896  1
  Ag  Ag52  1  0.33404845  0.33057869  0.33820134  1
  Ag  Ag53  1  0.82582063  -0.00447366  0.51391739  1
  Sb  Sb54  1  0.50501586  0.50254279  0.00037112  1
  Sb  Sb55  1  0.16643155  -0.00294614  0.50030421  1
  Sb  Sb56  1  0.16910107  0.34090818  0.16146993  1
  Sb  Sb57  1  0.82992566  0.32916699  0.50350214  1
  Sb  Sb58  1  0.17090156  -0.00736711  0.16627970  1
  Sb  Sb59  1  0.33819221  -0.00420704  -0.00165115  1
  Sb  Sb60  1  0.83395676  0.33628336  0.16194148  1
  Sb  Sb61  1  0.49886782  0.33230216  0.16277200  1
  Sb  Sb62  1  0.00054103  0.15582414  0.16420467  1
  Sb  Sb63  1  0.16232883  0.83080901  0.66718183  1
  Sb  Sb64  1  0.16521235  0.16188703  -0.00120680  1
  Sb  Sb65  1  0.67264816  0.67027002  0.66719872  1
  Sb  Sb66  1  0.66691766  0.67112985  -0.00241404  1
  Sb  Sb67  1  0.33071550  0.83233047  0.83153500  1
  Sb  Sb68  1  0.66539846  0.16288519  0.16052850  1
  Sb  Sb69  1  0.16265251  0.66949881  0.50143306  1
  Sb  Sb70  1  0.34239940  0.15883864  0.49910975  1
  Sb  Sb71  1  0.50628991  0.67445656  0.49657575  1
  Sb  Sb72  1  -0.00446930  0.33281885  0.67537630  1
  Sb  Sb73  1  0.82844496  -0.00672173  0.16303965  1
  Sb  Sb74  1  -0.00470912  0.50111810  0.50788386  1
  Sb  Sb75  1  0.82861673  0.33186762  0.83421622  1
  Sb  Sb76  1  0.16234428  0.17032920  0.66955689  1
  Sb  Sb77  1  0.66687612  0.50141589  0.16419919  1
  Sb  Sb78  1  0.00012224  0.67284213  0.33527021  1
  Sb  Sb79  1  0.33340149  0.67135625  0.32895082  1
  Sb  Sb80  1  -0.00954429  0.16201439  0.50071528  1
  Sb  Sb81  1  0.83339602  0.50415973  0.33700168  1
  Sb  Sb82  1  0.34100294  0.16943192  0.83528128  1
  Sb  Sb83  1  0.50827117  0.15786564  0.67274335  1
  Sb  Sb84  1  0.00033224  0.50854540  0.15989600  1
  Sb  Sb85  1  0.66299694  0.33156544  0.33617480  1
  Sb  Sb86  1  -0.00581054  0.83481093  0.50211276  1
  Sb  Sb87  1  0.33321259  0.49945620  0.16431150  1
  Sb  Sb88  1  0.83670211  0.66963523  0.83224871  1
  Sb  Sb89  1  0.16967333  0.33690428  0.50538254  1
  Sb  Sb90  1  0.50347280  0.50354641  0.66500799  1
  Sb  Sb91  1  0.49679906  0.66892480  0.83633191  1
  Sb  Sb92  1  0.16348901  -0.00282453  0.83302892  1
  Sb  Sb93  1  0.32911751  0.66781229  0.67102153  1
  Sb  Sb94  1  0.33813341  0.50465727  0.50215934  1
  Sb  Sb95  1  0.66677851  0.66869687  0.33403365  1
  Sb  Sb96  1  0.00178048  0.67309196  -0.00584503  1
  Sb  Sb97  1  0.67050560  0.83745178  0.83046237  1
  Sb  Sb98  1  -0.00845936  0.16434334  0.83475583  1
  Sb  Sb99  1  0.33409039  0.83706355  0.16964494  1
  Sb  Sb100  1  0.66754512  -0.00034024  0.33827919  1
  Sb  Sb101  1  0.50155793  0.32866308  0.50546957  1
  Sb  Sb102  1  0.00402177  0.33007970  0.32651039  1
  Sb  Sb103  1  0.66783425  0.83529210  0.16878973  1
  Sb  Sb104  1  0.16607354  0.16206817  0.33200777  1
  Sb  Sb105  1  0.16195396  0.50604036  -0.00636206  1
  Sb  Sb106  1  0.50369694  0.16135895  0.32872650  1
  Sb  Sb107  1  0.33562926  0.33612153  -0.00544656  1
  Te  Te108  1  0.17334295  0.16875471  0.16652134  1
  Te  Te109  1  0.16772616  0.16803581  0.49987570  1
  Te  Te110  1  0.16689794  0.17289469  0.83417474  1
  Te  Te111  1  0.16645298  0.50866279  0.17212845  1
  Te  Te112  1  0.16767491  0.50206330  0.49755057  1
  Te  Te113  1  0.16638002  0.50242125  0.83367353  1
  Te  Te114  1  0.16645243  0.82895653  0.16709329  1
  Te  Te115  1  0.17153535  0.83271015  0.49333425  1
  Te  Te116  1  0.16221666  0.82922102  0.83585036  1
  Te  Te117  1  0.49685040  0.16506717  0.16077514  1
  Te  Te118  1  0.50859031  0.15918144  0.49791382  1
  Te  Te119  1  0.50518235  0.16493966  0.83767643  1
  Te  Te120  1  0.49974916  0.50311415  0.17288347  1
  Te  Te121  1  0.50504028  0.50117723  0.49496337  1
  Te  Te122  1  0.49719219  0.49904419  0.83280032  1
  Te  Te123  1  0.50127607  0.83302706  0.16574482  1
  Te  Te124  1  0.50386905  0.83595769  0.50012919  1
  Te  Te125  1  0.49977094  0.83627344  0.83419331  1
  Te  Te126  1  0.83392985  0.16773863  0.16489123  1
  Te  Te127  1  0.82638787  0.16265341  0.50135206  1
  Te  Te128  1  0.82856222  0.16177719  0.83508970  1
  Te  Te129  1  0.83439033  0.50944107  0.16709548  1
  Te  Te130  1  0.82818853  0.50019893  0.50127633  1
  Te  Te131  1  0.83542788  0.50200507  0.83259375  1
  Te  Te132  1  0.83455406  0.83034955  0.16559206  1
  Te  Te133  1  0.83201266  0.83572850  0.50115295  1
  Te  Te134  1  0.83563628  0.83549549  0.83356040  1
  Te  Te135  1  0.16167890  -0.00706297  -0.00114986  1
  Te  Te136  1  0.17057633  -0.00612384  0.33327197  1
  Te  Te137  1  0.17108197  0.00104976  0.66663400  1
  Te  Te138  1  0.16652178  0.33322007  -0.00572551  1
  Te  Te139  1  0.17231927  0.33456787  0.33199842  1
  Te  Te140  1  0.16690317  0.33836967  0.67211485  1
  Te  Te141  1  0.16799518  0.67099393  -0.00066670  1
  Te  Te142  1  0.16669869  0.66923202  0.33295943  1
  Te  Te143  1  0.16110833  0.66189579  0.66967216  1
  Te  Te144  1  0.49759065  -0.00192565  -0.00500842  1
  Te  Te145  1  0.49934780  -0.00253896  0.33087080  1
  Te  Te146  1  0.50130173  -0.00202644  0.66784907  1
  Te  Te147  1  0.50382204  0.33413234  -0.00484058  1
  Te  Te148  1  0.49445005  0.33347489  0.33306575  1
  Te  Te149  1  0.50137447  0.33536405  0.67211212  1
  Te  Te150  1  0.49707749  0.67071393  0.00421475  1
  Te  Te151  1  0.49959154  0.66938543  0.32837001  1
  Te  Te152  1  0.49799638  0.67738911  0.66629712  1
  Te  Te153  1  0.83265679  -0.00226412  0.00311953  1
  Te  Te154  1  0.83306895  -0.00290856  0.32764319  1
  Te  Te155  1  0.82922496  -0.00158536  0.66921428  1
  Te  Te156  1  0.83128543  0.33806743  -0.00000486  1
  Te  Te157  1  0.83489179  0.33147877  0.33115424  1
  Te  Te158  1  0.82802701  0.34198183  0.66752760  1
  Te  Te159  1  0.83363692  0.66856667  0.00263457  1
  Te  Te160  1  0.83392202  0.67242336  0.33256328  1
  Te  Te161  1  0.83696983  0.66320688  0.66585852  1
  Te  Te162  1  -0.00415189  0.16444294  0.00141949  1
  Te  Te163  1  -0.00545825  0.16097246  0.33197094  1
  Te  Te164  1  -0.00848149  0.16084829  0.66704509  1
  Te  Te165  1  -0.00466828  0.49716657  -0.00483963  1
  Te  Te166  1  0.00609792  0.49747791  0.33344713  1
  Te  Te167  1  0.00035373  0.49722660  0.67205501  1
  Te  Te168  1  -0.00147902  0.83430633  -0.00144046  1
  Te  Te169  1  -0.00126669  0.83598624  0.33503018  1
  Te  Te170  1  -0.00225914  0.83529223  0.66917029  1
  Te  Te171  1  0.33433466  0.16706997  0.00383090  1
  Te  Te172  1  0.33432493  0.16330828  0.33203665  1
  Te  Te173  1  0.33151071  0.16894594  0.66623470  1
  Te  Te174  1  0.33377672  0.50442545  -0.00475455  1
  Te  Te175  1  0.33313721  0.49916750  0.33397496  1
  Te  Te176  1  0.33210305  0.49842239  0.66928845  1
  Te  Te177  1  0.33607965  0.83018496  -0.00062662  1
  Te  Te178  1  0.33779839  0.83665649  0.33558735  1
  Te  Te179  1  0.33095283  0.83626046  0.66290591  1
  Te  Te180  1  0.66768949  0.16482476  -0.00240030  1
  Te  Te181  1  0.67335046  0.16866309  0.33382028  1
  Te  Te182  1  0.66861033  0.16648112  0.66999817  1
  Te  Te183  1  0.67165080  0.49926414  -0.00326109  1
  Te  Te184  1  0.66254810  0.49732316  0.33448245  1
  Te  Te185  1  0.66737430  0.50273010  0.66864020  1
  Te  Te186  1  0.66655483  0.83807990  -0.00097610  1
  Te  Te187  1  0.66732253  0.83390669  0.33958548  1
  Te  Te188  1  0.66927860  0.83606167  0.66463609  1
  Te  Te189  1  0.00276591  -0.00788402  0.16903939  1
  Te  Te190  1  -0.00450502  0.00038574  0.49804001  1
  Te  Te191  1  -0.00222620  -0.00208828  0.83330782  1
  Te  Te192  1  0.00223442  0.33328595  0.15728604  1
  Te  Te193  1  0.00098734  0.33219781  0.49791314  1
  Te  Te194  1  0.00370274  0.33503541  0.83741274  1
  Te  Te195  1  0.00115626  0.67433967  0.16831371  1
  Te  Te196  1  -0.00753057  0.66514045  0.50805371  1
  Te  Te197  1  0.00246482  0.66618813  0.82920715  1
  Te  Te198  1  0.33811419  0.00385452  0.16838592  1
  Te  Te199  1  0.33480905  -0.00368453  0.50028403  1
  Te  Te200  1  0.33358078  0.00129546  0.82663076  1
  Te  Te201  1  0.33323901  0.32904530  0.17121437  1
  Te  Te202  1  0.33503089  0.33301451  0.50143765  1
  Te  Te203  1  0.33525160  0.33609636  0.83029593  1
  Te  Te204  1  0.33299708  0.66630553  0.16242115  1
  Te  Te205  1  0.33314440  0.67328439  0.50081688  1
  Te  Te206  1  0.32859906  0.66261635  0.83769544  1
  Te  Te207  1  0.65603328  -0.00032524  0.15786018  1
  Te  Te208  1  0.66810333  -0.00109715  0.50015297  1
  Te  Te209  1  0.66804912  -0.00212123  0.83108685  1
  Te  Te210  1  0.66569043  0.33322472  0.15894461  1
  Te  Te211  1  0.66504219  0.33926459  0.50561906  1
  Te  Te212  1  0.66656519  0.33240985  0.83277962  1
  Te  Te213  1  0.66443298  0.66707429  0.16619767  1
  Te  Te214  1  0.67310200  0.66310834  0.50031741  1
  Te  Te215  1  0.66508582  0.65262454  0.83326027  1
