# generated using pymatgen
data_AgSbTe2
_symmetry_space_group_name_H-M   'P 1'
_cell_length_a   18.35231048
_cell_length_b   18.35912628
_cell_length_c   18.35914274
_cell_angle_alpha   90.00198824
_cell_angle_beta   90.00136767
_cell_angle_gamma   89.99508385
_symmetry_Int_Tables_number   1
_chemical_formula_structural   AgSbTe2
_chemical_formula_sum   'Ag54 Sb54 Te108'
_cell_volume   6185.78973618
_cell_formula_units_Z   54
loop_
 _symmetry_equiv_pos_site_id
 _symmetry_equiv_pos_as_xyz
  1  'x, y, z'
loop_
 _atom_site_type_symbol
 _atom_site_label
 _atom_site_symmetry_multiplicity
 _atom_site_fract_x
 _atom_site_fract_y
 _atom_site_fract_z
 _atom_site_occupancy
  Ag  Ag0  1  0.51005117  -0.00743020  0.17514988  1
  Ag  Ag1  1  0.82996554  0.16247713  0.00317870  1
  Ag  Ag2  1  0.33522232  0.15739394  0.49654611  1
  Ag  Ag3  1  -0.00728653  0.00044557  0.66129163  1
  Ag  Ag4  1  0.33661881  0.49960940  0.82199701  1
  Ag  Ag5  1  0.17434732  -0.00296244  0.49567098  1
  Ag  Ag6  1  0.17172068  0.32610142  0.49759239  1
  Ag  Ag7  1  0.50233568  -0.00029961  0.82492402  1
  Ag  Ag8  1  0.00555612  0.67802181  0.32995149  1
  Ag  Ag9  1  0.82792661  0.67428490  0.49580065  1
  Ag  Ag10  1  0.83186050  0.84233019  0.01226632  1
  Ag  Ag11  1  0.49702479  -0.00542672  0.49569794  1
  Ag  Ag12  1  0.49848712  0.49995677  0.65588336  1
  Ag  Ag13  1  0.67281863  0.32941670  0.00944708  1
  Ag  Ag14  1  0.66534216  0.32934149  0.66262858  1
  Ag  Ag15  1  0.66740542  0.32522796  0.33244928  1
  Ag  Ag16  1  0.49831670  0.67525028  0.48859709  1
  Ag  Ag17  1  0.66390841  0.51083899  0.16667485  1
  Ag  Ag18  1  0.33114244  0.15695977  0.18026502  1
  Ag  Ag19  1  0.67118314  0.83851643  0.48973257  1
  Ag  Ag20  1  -0.00955839  0.67776913  0.00992729  1
  Ag  Ag21  1  0.82700210  -0.00057901  0.16761109  1
  Ag  Ag22  1  0.82990286  0.16314521  0.66934969  1
  Ag  Ag23  1  0.82952351  0.50149253  0.00423176  1
  Ag  Ag24  1  0.83898887  0.83598022  0.33141798  1
  Ag  Ag25  1  0.49864297  0.67377278  0.17353177  1
  Ag  Ag26  1  0.50079662  0.83086185  0.33428248  1
  Ag  Ag27  1  0.33727544  0.50757662  0.49549806  1
  Ag  Ag28  1  0.67179080  -0.00013880  0.01315215  1
  Ag  Ag29  1  -0.00807551  -0.00797128  0.33467372  1
  Ag  Ag30  1  0.66694362  0.15941402  0.49768244  1
  Ag  Ag31  1  0.67214401  0.67315339  0.00582293  1
  Ag  Ag32  1  0.33926527  0.83242063  0.17754031  1
  Ag  Ag33  1  0.33429280  0.67263993  0.33324492  1
  Ag  Ag34  1  0.83039318  0.15337323  0.33280540  1
  Ag  Ag35  1  0.67093691  -0.00377859  0.33094894  1
  Ag  Ag36  1  0.66941797  0.83829290  0.17322928  1
  Ag  Ag37  1  -0.00904701  0.83511808  0.48850580  1
  Ag  Ag38  1  0.17430270  0.66928244  0.17541976  1
  Ag  Ag39  1  0.83288222  0.84579911  0.65201198  1
  Ag  Ag40  1  0.34413871  0.50627385  0.17456523  1
  Ag  Ag41  1  0.17418141  0.67817310  0.49127414  1
  Ag  Ag42  1  -0.01120908  -0.00435741  0.01272655  1
  Ag  Ag43  1  0.33504560  0.00192057  0.65508040  1
  Ag  Ag44  1  0.82936936  0.32574709  0.16380507  1
  Ag  Ag45  1  0.33404724  0.83416414  0.49372491  1
  Ag  Ag46  1  0.16815215  0.15637539  0.33709811  1
  Ag  Ag47  1  -0.01329826  0.83404768  0.17861362  1
  Ag  Ag48  1  0.33845954  0.33128695  0.65951794  1
  Ag  Ag49  1  0.49979607  0.51290737  0.33417942  1
  Ag  Ag50  1  0.82914961  0.32628698  0.84440761  1
  Ag  Ag51  1  -0.01056656  0.16326022  0.83462995  1
  Ag  Ag52  1  0.67202272  0.16732049  0.83067638  1
  Ag  Ag53  1  0.15417486  0.83516942  0.33460368  1
  Sb  Sb54  1  0.33539768  0.83108154  0.82824555  1
  Sb  Sb55  1  0.66853945  0.84074459  0.83567315  1
  Sb  Sb56  1  -0.00261362  0.67618193  0.66157822  1
  Sb  Sb57  1  0.49731623  0.33298108  0.49929800  1
  Sb  Sb58  1  0.15785348  0.83343199  0.01371150  1
  Sb  Sb59  1  0.50888507  0.16367828  0.00248326  1
  Sb  Sb60  1  0.50544427  0.50186993  0.00514236  1
  Sb  Sb61  1  0.66134352  0.50196293  0.49242663  1
  Sb  Sb62  1  0.50830548  0.83475666  0.01210192  1
  Sb  Sb63  1  0.16456047  0.33753454  0.17500206  1
  Sb  Sb64  1  0.17405018  0.50932306  0.33482950  1
  Sb  Sb65  1  0.16300717  0.50127565  0.00389855  1
  Sb  Sb66  1  0.50075254  0.66911695  0.83531783  1
  Sb  Sb67  1  0.33462412  0.66715451  0.01112804  1
  Sb  Sb68  1  0.82939559  0.67423588  0.16952105  1
  Sb  Sb69  1  0.66636271  0.16184324  0.16994905  1
  Sb  Sb70  1  0.16011153  0.16357167  0.00934995  1
  Sb  Sb71  1  0.16707171  -0.00646060  0.17644161  1
  Sb  Sb72  1  0.33580280  0.16897598  0.82706470  1
  Sb  Sb73  1  0.16255601  0.83604039  0.65222823  1
  Sb  Sb74  1  0.16856225  0.00102726  0.82685722  1
  Sb  Sb75  1  0.33707755  0.33591057  0.33825325  1
  Sb  Sb76  1  0.16422037  0.16479586  0.65804574  1
  Sb  Sb77  1  0.50531429  0.83262351  0.65564146  1
  Sb  Sb78  1  -0.00289538  0.15659516  0.50032995  1
  Sb  Sb79  1  0.50639488  0.32958129  0.83050387  1
  Sb  Sb80  1  0.66654811  0.66343221  0.66675627  1
  Sb  Sb81  1  0.50589795  0.33244566  0.16984872  1
  Sb  Sb82  1  0.16470912  0.33071819  0.82748844  1
  Sb  Sb83  1  -0.00535593  0.51104964  0.16804249  1
  Sb  Sb84  1  0.66895759  0.00391593  0.66186475  1
  Sb  Sb85  1  0.82898839  0.00723409  0.83962549  1
  Sb  Sb86  1  0.17506721  0.49959926  0.66221360  1
  Sb  Sb87  1  0.34045457  0.33473436  -0.00134788  1
  Sb  Sb88  1  0.83323746  0.33413406  0.49682495  1
  Sb  Sb89  1  -0.00207995  0.15785782  0.16655390  1
  Sb  Sb90  1  0.33597123  -0.00863398  0.33747541  1
  Sb  Sb91  1  0.33456655  0.66892363  0.65425155  1
  Sb  Sb92  1  0.66373386  0.49267320  0.83915914  1
  Sb  Sb93  1  -0.00929040  0.32909738  0.00168887  1
  Sb  Sb94  1  -0.00360165  0.84038041  0.83532404  1
  Sb  Sb95  1  0.83114728  -0.00515567  0.49200648  1
  Sb  Sb96  1  0.66378710  0.67520580  0.32851247  1
  Sb  Sb97  1  -0.00454707  0.32895438  0.33442848  1
  Sb  Sb98  1  0.83283944  0.66383020  0.83634635  1
  Sb  Sb99  1  0.16664238  0.66669725  0.83523479  1
  Sb  Sb100  1  0.50496617  0.16689444  0.66324228  1
  Sb  Sb101  1  -0.00368927  0.32661666  0.66451051  1
  Sb  Sb102  1  0.33591112  -0.00117559  0.00158341  1
  Sb  Sb103  1  0.00030520  0.49527825  0.83540642  1
  Sb  Sb104  1  0.82714623  0.49571471  0.66886267  1
  Sb  Sb105  1  0.50122290  0.16103762  0.33405130  1
  Sb  Sb106  1  0.00588357  0.51050001  0.49898622  1
  Sb  Sb107  1  0.82610594  0.50440041  0.32789246  1
  Te  Te108  1  0.17123917  0.16879490  0.17518895  1
  Te  Te109  1  0.16529197  0.16297373  0.49513941  1
  Te  Te110  1  0.16289511  0.16707586  0.83465628  1
  Te  Te111  1  0.16963965  0.50667475  0.16769829  1
  Te  Te112  1  0.17369417  0.50071778  0.49962664  1
  Te  Te113  1  0.17444040  0.49858018  0.83410638  1
  Te  Te114  1  0.17526293  0.82831777  0.17477063  1
  Te  Te115  1  0.17199711  0.83557388  0.49485249  1
  Te  Te116  1  0.16684244  0.83261172  0.83333745  1
  Te  Te117  1  0.48937780  0.16293016  0.16686472  1
  Te  Te118  1  0.50052133  0.16197880  0.49949830  1
  Te  Te119  1  0.50393617  0.16079606  0.83301296  1
  Te  Te120  1  0.50294985  0.49879579  0.16974360  1
  Te  Te121  1  0.49736660  0.50047017  0.49638565  1
  Te  Te122  1  0.49535602  0.50063459  0.83417133  1
  Te  Te123  1  0.50107382  0.83346020  0.17085828  1
  Te  Te124  1  0.50058299  0.83349800  0.49796942  1
  Te  Te125  1  0.50037234  0.83877424  0.83208216  1
  Te  Te126  1  0.83448819  0.16279374  0.17029194  1
  Te  Te127  1  0.82998394  0.16914094  0.49560905  1
  Te  Te128  1  0.83052802  0.16743136  0.83205862  1
  Te  Te129  1  0.82782242  0.49726903  0.16271240  1
  Te  Te130  1  0.83417073  0.50788520  0.50034479  1
  Te  Te131  1  0.83255733  0.49258948  0.83794970  1
  Te  Te132  1  0.83029178  0.83609705  0.16899236  1
  Te  Te133  1  0.83174917  0.83202704  0.49599093  1
  Te  Te134  1  0.83281783  0.83117939  0.83189332  1
  Te  Te135  1  0.15977437  -0.00031186  -0.00264935  1
  Te  Te136  1  0.16352582  -0.00210958  0.33687576  1
  Te  Te137  1  0.17231157  0.00031774  0.65961545  1
  Te  Te138  1  0.16555665  0.33283800  -0.00014717  1
  Te  Te139  1  0.16452143  0.33016070  0.33840102  1
  Te  Te140  1  0.17164823  0.33242075  0.65996704  1
  Te  Te141  1  0.16070287  0.66678004  0.00369764  1
  Te  Te142  1  0.16814607  0.66937306  0.33482600  1
  Te  Te143  1  0.16562116  0.66749493  0.66116248  1
  Te  Te144  1  0.50406691  -0.00080364  0.00537914  1
  Te  Te145  1  0.50363900  -0.00263257  0.33477837  1
  Te  Te146  1  0.49781282  -0.00070035  0.66219193  1
  Te  Te147  1  0.51106634  0.33269193  -0.00111929  1
  Te  Te148  1  0.50727489  0.33561756  0.33359628  1
  Te  Te149  1  0.49953459  0.33767608  0.66581815  1
  Te  Te150  1  0.50567697  0.66804324  0.00450669  1
  Te  Te151  1  0.50113045  0.66895326  0.33255488  1
  Te  Te152  1  0.50042781  0.66097849  0.66703064  1
  Te  Te153  1  0.83224891  0.00120514  0.00162688  1
  Te  Te154  1  0.83236299  -0.00327989  0.33078626  1
  Te  Te155  1  0.83373796  0.00287720  0.67001759  1
  Te  Te156  1  0.83020978  0.32767347  0.00242666  1
  Te  Te157  1  0.82831661  0.33623917  0.32903572  1
  Te  Te158  1  0.82917593  0.32809425  0.66521392  1
  Te  Te159  1  0.83218118  0.66569942  0.00027446  1
  Te  Te160  1  0.83690419  0.67020103  0.33628791  1
  Te  Te161  1  0.83300922  0.66571680  0.66333169  1
  Te  Te162  1  -0.00632836  0.16043471  -0.00156481  1
  Te  Te163  1  -0.00542430  0.16175566  0.33289179  1
  Te  Te164  1  -0.00527521  0.16180433  0.66895200  1
  Te  Te165  1  -0.00679212  0.50200710  -0.00013459  1
  Te  Te166  1  -0.00018116  0.50315494  0.33362910  1
  Te  Te167  1  -0.00046598  0.49944050  0.66872894  1
  Te  Te168  1  -0.00632459  0.83582888  0.00080952  1
  Te  Te169  1  -0.00023640  0.83348770  0.33338305  1
  Te  Te170  1  -0.00575711  0.84011568  0.66600620  1
  Te  Te171  1  0.33042014  0.16842690  -0.00143069  1
  Te  Te172  1  0.33227710  0.16951765  0.33766005  1
  Te  Te173  1  0.33353776  0.16699505  0.66143614  1
  Te  Te174  1  0.33288050  0.49941392  0.00775136  1
  Te  Te175  1  0.33867696  0.50216160  0.33386705  1
  Te  Te176  1  0.33842214  0.50045674  0.66103137  1
  Te  Te177  1  0.33071037  0.83259471  -0.00023010  1
  Te  Te178  1  0.34099523  0.83198423  0.33410220  1
  Te  Te179  1  0.33402648  0.83874193  0.66157157  1
  Te  Te180  1  0.67075787  0.16439860  -0.00005720  1
  Te  Te181  1  0.66735606  0.16357068  0.33655258  1
  Te  Te182  1  0.66975774  0.16967349  0.66315242  1
  Te  Te183  1  0.67036545  0.49585431  0.00466822  1
  Te  Te184  1  0.66131632  0.49584522  0.32762125  1
  Te  Te185  1  0.66088138  0.49428653  0.66734906  1
  Te  Te186  1  0.67220365  0.83686159  0.00103126  1
  Te  Te187  1  0.66427313  0.83476993  0.33268140  1
  Te  Te188  1  0.67329760  0.83183575  0.66631970  1
  Te  Te189  1  0.00115586  -0.00606071  0.16950544  1
  Te  Te190  1  0.00027927  -0.00510238  0.49884483  1
  Te  Te191  1  0.00250869  0.00459506  0.82402834  1
  Te  Te192  1  -0.00578506  0.33632411  0.16741370  1
  Te  Te193  1  0.00729993  0.33663369  0.50026159  1
  Te  Te194  1  -0.00528010  0.32641002  0.83283656  1
  Te  Te195  1  -0.00072204  0.67280026  0.16781795  1
  Te  Te196  1  0.00242077  0.67448278  0.49740294  1
  Te  Te197  1  0.00108347  0.66490788  0.83791068  1
  Te  Te198  1  0.33400863  -0.00112074  0.16461424  1
  Te  Te199  1  0.33480198  0.00003347  0.49844069  1
  Te  Te200  1  0.33823926  0.00014533  0.83062409  1
  Te  Te201  1  0.33321481  0.33763640  0.16614860  1
  Te  Te202  1  0.33130077  0.33147780  0.50193436  1
  Te  Te203  1  0.33382727  0.33759905  0.82777456  1
  Te  Te204  1  0.33670350  0.66770426  0.17090886  1
  Te  Te205  1  0.33570450  0.66824965  0.49488339  1
  Te  Te206  1  0.33332901  0.66102037  0.83504111  1
  Te  Te207  1  0.66704999  -0.00175140  0.16949113  1
  Te  Te208  1  0.66496605  -0.00098339  0.49784503  1
  Te  Te209  1  0.66164620  0.00633662  0.83050356  1
  Te  Te210  1  0.66985544  0.32760136  0.16817525  1
  Te  Te211  1  0.66677939  0.33258906  0.49925379  1
  Te  Te212  1  0.67012591  0.32764068  0.82848906  1
  Te  Te213  1  0.66360022  0.66769674  0.16357597  1
  Te  Te214  1  0.66390616  0.66953344  0.50168562  1
  Te  Te215  1  0.66657876  0.66544787  0.84212507  1
