# generated using pymatgen
data_AgSbTe2
_symmetry_space_group_name_H-M   'P 1'
_cell_length_a   18.31722963
_cell_length_b   18.32464127
_cell_length_c   18.32173184
_cell_angle_alpha   89.99873388
_cell_angle_beta   90.00022053
_cell_angle_gamma   90.00102568
_symmetry_Int_Tables_number   1
_chemical_formula_structural   AgSbTe2
_chemical_formula_sum   'Ag54 Sb54 Te108'
_cell_volume   6149.81134977
_cell_formula_units_Z   54
loop_
 _symmetry_equiv_pos_site_id
 _symmetry_equiv_pos_as_xyz
  1  'x, y, z'
loop_
 _atom_site_type_symbol
 _atom_site_label
 _atom_site_symmetry_multiplicity
 _atom_site_fract_x
 _atom_site_fract_y
 _atom_site_fract_z
 _atom_site_occupancy
  Ag  Ag0  1  0.83767190  0.82811790  0.66483799  1
  Ag  Ag1  1  0.67387765  0.82877851  0.50088139  1
  Ag  Ag2  1  0.67980205  0.33407094  0.67106818  1
  Ag  Ag3  1  0.15821015  0.17499754  0.33112573  1
  Ag  Ag4  1  -0.00302831  0.82414209  0.16285279  1
  Ag  Ag5  1  -0.00114990  0.50506611  0.83581764  1
  Ag  Ag6  1  0.32353005  0.00393823  0.67473155  1
  Ag  Ag7  1  0.00191357  0.50097037  0.16900345  1
  Ag  Ag8  1  -0.00336421  0.33609620  0.66859513  1
  Ag  Ag9  1  0.83692693  0.66420913  0.83379285  1
  Ag  Ag10  1  0.32981863  0.33221083  0.66716341  1
  Ag  Ag11  1  0.67362123  0.33709318  -0.00723097  1
  Ag  Ag12  1  0.33491598  0.16153809  0.83346015  1
  Ag  Ag13  1  0.66691889  0.16860775  0.83422409  1
  Ag  Ag14  1  0.83963232  0.66825478  0.16408961  1
  Ag  Ag15  1  0.16210451  0.00206969  0.50656651  1
  Ag  Ag16  1  0.84058833  0.17199256  0.33663616  1
  Ag  Ag17  1  0.50211361  0.67007617  0.16119694  1
  Ag  Ag18  1  0.67521320  0.66594469  -0.00110487  1
  Ag  Ag19  1  -0.00544299  0.65852470  0.32445271  1
  Ag  Ag20  1  0.83787901  0.50137470  0.66476729  1
  Ag  Ag21  1  0.83533205  0.82774554  -0.00159667  1
  Ag  Ag22  1  0.49680044  0.33703896  0.50137154  1
  Ag  Ag23  1  0.84126422  0.50664595  0.33852699  1
  Ag  Ag24  1  -0.00496007  0.66983461  0.67122748  1
  Ag  Ag25  1  0.83532049  0.82563591  0.33790550  1
  Ag  Ag26  1  -0.00486881  0.34209924  0.00213937  1
  Ag  Ag27  1  0.00202680  0.34175486  0.32774545  1
  Ag  Ag28  1  0.50024820  0.50359779  -0.00044827  1
  Ag  Ag29  1  0.32672204  0.16679219  0.16268251  1
  Ag  Ag30  1  0.33901594  -0.00027083  -0.00568490  1
  Ag  Ag31  1  0.49383139  -0.00382297  0.83845960  1
  Ag  Ag32  1  0.50589019  0.66746920  0.84025979  1
  Ag  Ag33  1  0.83602660  -0.00844546  0.50366078  1
  Ag  Ag34  1  0.16636411  0.33359466  0.49667608  1
  Ag  Ag35  1  0.66314614  -0.00454512  -0.00303480  1
  Ag  Ag36  1  0.32677937  0.49976036  0.16539078  1
  Ag  Ag37  1  0.33003043  0.49562292  0.83233681  1
  Ag  Ag38  1  0.33442845  0.49641508  0.50522083  1
  Ag  Ag39  1  0.00305760  0.17606323  0.16935558  1
  Ag  Ag40  1  0.49462136  -0.00837554  0.15793053  1
  Ag  Ag41  1  0.67220988  0.50102871  0.50176423  1
  Ag  Ag42  1  0.17150513  0.00015018  0.82620857  1
  Ag  Ag43  1  0.83663555  0.33866008  0.82897978  1
  Ag  Ag44  1  -0.00768219  0.66217699  0.00099845  1
  Ag  Ag45  1  -0.00309266  0.82477645  0.82869039  1
  Ag  Ag46  1  0.83365314  0.67045066  0.50111787  1
  Ag  Ag47  1  0.16215867  0.33438654  0.17418725  1
  Ag  Ag48  1  0.83570063  0.17336617  0.66579725  1
  Ag  Ag49  1  0.15500142  0.84091646  0.66652422  1
  Ag  Ag50  1  0.33275487  0.83336502  0.16648714  1
  Ag  Ag51  1  0.50701415  0.83219660  0.32898381  1
  Ag  Ag52  1  0.15769073  0.49332577  0.33293754  1
  Ag  Ag53  1  0.00222518  -0.00955287  0.66889050  1
  Sb  Sb54  1  -0.00016021  0.16810087  0.83462110  1
  Sb  Sb55  1  0.50207594  0.49925544  0.67076509  1
  Sb  Sb56  1  0.16677085  0.16696142  0.00400052  1
  Sb  Sb57  1  0.83701647  0.33710265  0.50602535  1
  Sb  Sb58  1  0.16549966  0.49889880  0.00364485  1
  Sb  Sb59  1  0.16188616  0.33017666  0.83098774  1
  Sb  Sb60  1  0.16067740  0.83474101  -0.00252056  1
  Sb  Sb61  1  0.16020398  0.49909153  0.66236901  1
  Sb  Sb62  1  0.32467348  0.33483377  0.33762753  1
  Sb  Sb63  1  0.50840348  0.66260729  0.49881149  1
  Sb  Sb64  1  0.33378578  0.66894692  0.00070518  1
  Sb  Sb65  1  0.84065581  0.33859750  0.16334349  1
  Sb  Sb66  1  0.32783767  0.66562745  0.66930508  1
  Sb  Sb67  1  0.33186126  0.33232949  -0.00382475  1
  Sb  Sb68  1  0.67555640  0.66190188  0.67125909  1
  Sb  Sb69  1  0.15967537  0.66520473  0.50028081  1
  Sb  Sb70  1  0.16957625  0.00322927  0.16705094  1
  Sb  Sb71  1  -0.00226349  0.49987638  0.49774554  1
  Sb  Sb72  1  0.50321421  0.33482730  0.83077813  1
  Sb  Sb73  1  0.67115798  0.49722230  0.83167334  1
  Sb  Sb74  1  0.16016003  0.66859034  0.83170125  1
  Sb  Sb75  1  0.67600204  0.33485903  0.33588794  1
  Sb  Sb76  1  0.49935147  0.16447566  0.33070511  1
  Sb  Sb77  1  0.83483264  -0.00122086  0.82858322  1
  Sb  Sb78  1  0.66950414  0.16620272  0.16172529  1
  Sb  Sb79  1  0.66872123  -0.00127546  0.33039407  1
  Sb  Sb80  1  -0.00667403  0.83364192  0.50379795  1
  Sb  Sb81  1  0.67287786  0.83454333  0.83106882  1
  Sb  Sb82  1  0.33104539  0.17052516  0.50254462  1
  Sb  Sb83  1  0.67105512  0.00353517  0.67104802  1
  Sb  Sb84  1  0.16025513  0.83341082  0.33619372  1
  Sb  Sb85  1  -0.00185603  -0.00070205  0.33691597  1
  Sb  Sb86  1  0.49402413  0.33624092  0.16863985  1
  Sb  Sb87  1  0.66888508  0.83182914  0.16826243  1
  Sb  Sb88  1  0.50566934  0.83148367  0.00343770  1
  Sb  Sb89  1  0.33582862  0.82992424  0.49693337  1
  Sb  Sb90  1  0.67099167  0.16921829  0.50548564  1
  Sb  Sb91  1  0.16054747  0.16351278  0.66266365  1
  Sb  Sb92  1  0.32943924  0.83547183  0.83735433  1
  Sb  Sb93  1  0.83390516  0.16552776  -0.00128035  1
  Sb  Sb94  1  0.83384532  0.50572524  -0.00234090  1
  Sb  Sb95  1  0.50146431  0.16823442  0.66880006  1
  Sb  Sb96  1  0.67526796  0.66672885  0.32887223  1
  Sb  Sb97  1  -0.00052942  0.16748864  0.49622720  1
  Sb  Sb98  1  0.67097828  0.50111517  0.16724465  1
  Sb  Sb99  1  0.50005192  0.16689771  -0.00049018  1
  Sb  Sb100  1  0.83259726  -0.00488374  0.16923757  1
  Sb  Sb101  1  -0.00123525  -0.00193763  -0.00409508  1
  Sb  Sb102  1  0.33182273  0.00078290  0.33232682  1
  Sb  Sb103  1  0.50283966  0.83336974  0.66554115  1
  Sb  Sb104  1  0.50036053  0.00162268  0.50184281  1
  Sb  Sb105  1  0.32907027  0.66447654  0.33169409  1
  Sb  Sb106  1  0.50068715  0.50392047  0.33014972  1
  Sb  Sb107  1  0.16135945  0.66251107  0.16769000  1
  Te  Te108  1  0.16568242  0.16898343  0.17035167  1
  Te  Te109  1  0.16747799  0.16706222  0.49322610  1
  Te  Te110  1  0.17219248  0.16236098  0.83265960  1
  Te  Te111  1  0.16563052  0.49673526  0.16998909  1
  Te  Te112  1  0.17275791  0.49832557  0.49521522  1
  Te  Te113  1  0.16762598  0.49919693  0.83215856  1
  Te  Te114  1  0.16676404  0.83427586  0.16815076  1
  Te  Te115  1  0.16947652  0.83684284  0.50465826  1
  Te  Te116  1  0.16157266  0.83673082  0.82901724  1
  Te  Te117  1  0.49473369  0.16334234  0.16758432  1
  Te  Te118  1  0.50085431  0.17405302  0.49806883  1
  Te  Te119  1  0.49725790  0.16291769  0.83369043  1
  Te  Te120  1  0.49902413  0.50398775  0.16345451  1
  Te  Te121  1  0.49730729  0.49736961  0.49890651  1
  Te  Te122  1  0.49778120  0.50244579  0.83689230  1
  Te  Te123  1  0.50102358  0.83201212  0.16870211  1
  Te  Te124  1  0.50538626  0.83258630  0.49305353  1
  Te  Te125  1  0.50031292  0.83188971  0.83419699  1
  Te  Te126  1  0.83798928  0.16521174  0.17130480  1
  Te  Te127  1  0.83306550  0.16221071  0.50036934  1
  Te  Te128  1  0.83186753  0.16877395  0.83061800  1
  Te  Te129  1  0.83768894  0.50556944  0.17211615  1
  Te  Te130  1  0.83210072  0.50246682  0.50167030  1
  Te  Te131  1  0.83679754  0.50039902  0.83069269  1
  Te  Te132  1  0.83533953  0.82992326  0.16879403  1
  Te  Te133  1  0.83250930  0.83212923  0.50042313  1
  Te  Te134  1  0.83725415  0.83116905  0.83114757  1
  Te  Te135  1  0.17125506  0.00005978  -0.00513788  1
  Te  Te136  1  0.16601692  0.00265851  0.34042385  1
  Te  Te137  1  0.16479728  0.00176364  0.66548620  1
  Te  Te138  1  0.15975965  0.33313072  0.00332002  1
  Te  Te139  1  0.16255099  0.33382205  0.33433655  1
  Te  Te140  1  0.16690692  0.33133409  0.66293649  1
  Te  Te141  1  0.15516015  0.66704788  -0.00044152  1
  Te  Te142  1  0.15697836  0.66232643  0.33536262  1
  Te  Te143  1  0.15890409  0.67450975  0.66510547  1
  Te  Te144  1  0.50058466  -0.00080723  -0.00071766  1
  Te  Te145  1  0.50037750  -0.00538106  0.33166724  1
  Te  Te146  1  0.49645069  0.00005623  0.67153130  1
  Te  Te147  1  0.50300026  0.33988451  0.00002092  1
  Te  Te148  1  0.50355792  0.33388564  0.33838458  1
  Te  Te149  1  0.49251056  0.33434382  0.66283198  1
  Te  Te150  1  0.49923053  0.66567673  0.00007740  1
  Te  Te151  1  0.50080877  0.67200962  0.32885130  1
  Te  Te152  1  0.50011910  0.66723725  0.67295508  1
  Te  Te153  1  0.82939512  -0.00554242  -0.00027648  1
  Te  Te154  1  0.83272736  -0.00257619  0.33857178  1
  Te  Te155  1  0.83582950  -0.00234029  0.66406951  1
  Te  Te156  1  0.83416706  0.33280332  -0.00440276  1
  Te  Te157  1  0.84099372  0.33249388  0.33384657  1
  Te  Te158  1  0.83556703  0.33426782  0.66670929  1
  Te  Te159  1  0.83402039  0.66682880  -0.00078894  1
  Te  Te160  1  0.83536375  0.66559396  0.33221431  1
  Te  Te161  1  0.83482928  0.66602040  0.66947410  1
  Te  Te162  1  -0.00082678  0.16992590  0.00701723  1
  Te  Te163  1  -0.00130543  0.16510762  0.32947679  1
  Te  Te164  1  -0.00579410  0.17323803  0.66826516  1
  Te  Te165  1  -0.00046444  0.50044348  -0.00129966  1
  Te  Te166  1  -0.00126422  0.49968465  0.33375665  1
  Te  Te167  1  -0.00202597  0.49839358  0.66862891  1
  Te  Te168  1  -0.00468709  0.83223129  0.00196807  1
  Te  Te169  1  -0.00378615  0.83153784  0.32745200  1
  Te  Te170  1  -0.00224989  0.83263562  0.66761354  1
  Te  Te171  1  0.33355703  0.16344854  -0.00032865  1
  Te  Te172  1  0.33059858  0.16756485  0.32690110  1
  Te  Te173  1  0.33307381  0.16677421  0.67017489  1
  Te  Te174  1  0.33577625  0.50059662  -0.00029707  1
  Te  Te175  1  0.33217846  0.50011808  0.32678324  1
  Te  Te176  1  0.33121487  0.49810501  0.66819340  1
  Te  Te177  1  0.33210000  0.83761982  0.00628868  1
  Te  Te178  1  0.33188744  0.83253494  0.32736450  1
  Te  Te179  1  0.33327778  0.83554564  0.66641216  1
  Te  Te180  1  0.66675458  0.17046021  -0.00562965  1
  Te  Te181  1  0.67456524  0.16725363  0.33191241  1
  Te  Te182  1  0.67140984  0.17190138  0.67269257  1
  Te  Te183  1  0.66375995  0.49983018  -0.00035824  1
  Te  Te184  1  0.67122262  0.49951523  0.33965370  1
  Te  Te185  1  0.67050735  0.49457198  0.66330608  1
  Te  Te186  1  0.67333340  0.83161440  -0.00048320  1
  Te  Te187  1  0.67068305  0.83269347  0.33859233  1
  Te  Te188  1  0.67123101  0.83414542  0.66122047  1
  Te  Te189  1  0.00117566  -0.00246798  0.16484845  1
  Te  Te190  1  0.00027183  0.00080571  0.50683542  1
  Te  Te191  1  0.00409996  0.00016440  0.82955883  1
  Te  Te192  1  0.00143407  0.33656238  0.16692405  1
  Te  Te193  1  0.00475358  0.33348953  0.50337726  1
  Te  Te194  1  -0.00277567  0.33507653  0.83265311  1
  Te  Te195  1  -0.00109432  0.66467154  0.16565787  1
  Te  Te196  1  -0.00672298  0.66689992  0.50395137  1
  Te  Te197  1  -0.00230437  0.66558414  0.83265214  1
  Te  Te198  1  0.33460328  -0.00009592  0.16522026  1
  Te  Te199  1  0.33214916  -0.00030577  0.50638764  1
  Te  Te200  1  0.33330452  -0.00188037  0.83363566  1
  Te  Te201  1  0.32813716  0.33439007  0.16484366  1
  Te  Te202  1  0.33064857  0.33606262  0.50374391  1
  Te  Te203  1  0.33296542  0.33457190  0.83015911  1
  Te  Te204  1  0.33542074  0.66568481  0.16642321  1
  Te  Te205  1  0.33535071  0.65896734  0.50040637  1
  Te  Te206  1  0.33609723  0.66179995  0.83420750  1
  Te  Te207  1  0.66020179  0.00060396  0.15879808  1
  Te  Te208  1  0.66909563  -0.00197038  0.50114259  1
  Te  Te209  1  0.66311118  0.00345547  0.83744540  1
  Te  Te210  1  0.66540927  0.33266863  0.15988337  1
  Te  Te211  1  0.66583601  0.33661924  0.50389422  1
  Te  Te212  1  0.66951239  0.33128577  0.83215102  1
  Te  Te213  1  0.66466141  0.66613185  0.15950082  1
  Te  Te214  1  0.67278996  0.66441089  0.50077618  1
  Te  Te215  1  0.66794926  0.66593237  0.83809029  1
