# generated using pymatgen
data_AgSbTe2
_symmetry_space_group_name_H-M   'P 1'
_cell_length_a   18.35672953
_cell_length_b   18.35801450
_cell_length_c   18.35354054
_cell_angle_alpha   89.99957455
_cell_angle_beta   89.99849858
_cell_angle_gamma   90.00004119
_symmetry_Int_Tables_number   1
_chemical_formula_structural   AgSbTe2
_chemical_formula_sum   'Ag54 Sb54 Te108'
_cell_volume   6185.01664673
_cell_formula_units_Z   54
loop_
 _symmetry_equiv_pos_site_id
 _symmetry_equiv_pos_as_xyz
  1  'x, y, z'
loop_
 _atom_site_type_symbol
 _atom_site_label
 _atom_site_symmetry_multiplicity
 _atom_site_fract_x
 _atom_site_fract_y
 _atom_site_fract_z
 _atom_site_occupancy
  Ag  Ag0  1  0.34827060  0.67127886  0.66368969  1
  Ag  Ag1  1  0.82806731  0.83161955  0.33153333  1
  Ag  Ag2  1  0.17185958  -0.00595284  0.16878190  1
  Ag  Ag3  1  -0.00970765  0.00156189  0.00103170  1
  Ag  Ag4  1  0.66667206  0.50282644  0.16484258  1
  Ag  Ag5  1  0.50053557  -0.00418176  0.49009076  1
  Ag  Ag6  1  0.66413847  0.67594030  0.67031641  1
  Ag  Ag7  1  0.82932377  -0.01033669  0.16185770  1
  Ag  Ag8  1  0.35067900  -0.00317954  0.00913751  1
  Ag  Ag9  1  0.50413589  0.50212025  0.32584102  1
  Ag  Ag10  1  0.66719793  -0.00983693  0.66616918  1
  Ag  Ag11  1  -0.00155644  0.16506378  0.50374856  1
  Ag  Ag12  1  0.82715480  0.67102596  0.16878187  1
  Ag  Ag13  1  0.16862946  0.50679129  0.66366271  1
  Ag  Ag14  1  -0.00313775  0.16162440  0.82471525  1
  Ag  Ag15  1  0.50204825  0.33977884  0.17179413  1
  Ag  Ag16  1  0.16666389  0.83079784  0.65735971  1
  Ag  Ag17  1  0.66196714  -0.00366374  0.32672540  1
  Ag  Ag18  1  0.16270816  0.67702046  0.50439352  1
  Ag  Ag19  1  0.50320210  -0.00581487  0.84043546  1
  Ag  Ag20  1  0.17117683  -0.00780857  0.49750670  1
  Ag  Ag21  1  0.82320995  0.51097602  0.32517764  1
  Ag  Ag22  1  0.83492451  0.15259032  0.66926069  1
  Ag  Ag23  1  0.50904415  0.83180805  0.65834654  1
  Ag  Ag24  1  0.49986273  0.32965016  0.49666022  1
  Ag  Ag25  1  -0.00874628  0.32394290  0.66409014  1
  Ag  Ag26  1  0.66797727  -0.00449685  0.00460942  1
  Ag  Ag27  1  0.34004818  0.83847578  0.17496499  1
  Ag  Ag28  1  0.50684456  0.49919093  0.00923547  1
  Ag  Ag29  1  0.65926880  0.83480158  0.50580511  1
  Ag  Ag30  1  -0.00848338  0.83501165  0.16706750  1
  Ag  Ag31  1  0.82971268  0.83731679  0.01281507  1
  Ag  Ag32  1  0.66552929  0.83378777  0.82353835  1
  Ag  Ag33  1  0.50504113  0.51392342  0.66459830  1
  Ag  Ag34  1  0.50481896  0.67306787  0.83190627  1
  Ag  Ag35  1  -0.01481622  0.50637501  0.16484260  1
  Ag  Ag36  1  0.16602130  0.50113385  0.00318506  1
  Ag  Ag37  1  0.82471793  0.83478332  0.66173156  1
  Ag  Ag38  1  0.50886347  0.15402333  0.00520726  1
  Ag  Ag39  1  0.82386750  0.50835804  0.00698401  1
  Ag  Ag40  1  0.66687009  0.33502496  0.66757292  1
  Ag  Ag41  1  0.34658028  -0.00592408  0.32796356  1
  Ag  Ag42  1  0.66523029  0.34167693  -0.00154921  1
  Ag  Ag43  1  0.17277195  0.33401974  0.50161683  1
  Ag  Ag44  1  0.66562995  0.67027746  0.00209017  1
  Ag  Ag45  1  0.50323383  0.83582196  0.33712991  1
  Ag  Ag46  1  0.50817507  0.67009323  0.16415611  1
  Ag  Ag47  1  0.17775958  0.83653308  0.33832968  1
  Ag  Ag48  1  0.83255545  0.67081600  0.49417474  1
  Ag  Ag49  1  0.34125952  0.83538863  0.49689484  1
  Ag  Ag50  1  -0.01295392  0.00075495  0.66860370  1
  Ag  Ag51  1  0.50368637  -0.00617749  0.17191372  1
  Ag  Ag52  1  0.82813813  0.15610842  -0.00083966  1
  Ag  Ag53  1  0.50215804  0.15062803  0.32552710  1
  Sb  Sb54  1  0.83166136  -0.00597941  0.49987872  1
  Sb  Sb55  1  -0.00100968  0.49728069  0.83635246  1
  Sb  Sb56  1  0.33660532  0.50079798  0.83294246  1
  Sb  Sb57  1  0.33595533  0.50819621  0.50091790  1
  Sb  Sb58  1  0.34022286  -0.00753300  0.66411525  1
  Sb  Sb59  1  0.50750515  0.83451664  0.00198206  1
  Sb  Sb60  1  0.83119367  0.33144908  0.83337823  1
  Sb  Sb61  1  -0.00736487  0.66886127  0.00331815  1
  Sb  Sb62  1  0.33373777  0.16208822  0.83429657  1
  Sb  Sb63  1  0.17478914  0.66732510  0.82914030  1
  Sb  Sb64  1  0.34151631  0.83385229  0.83098874  1
  Sb  Sb65  1  0.17031437  0.15774588  0.33638657  1
  Sb  Sb66  1  0.16288617  0.33415799  0.82799748  1
  Sb  Sb67  1  0.34109963  0.33115543  0.00383548  1
  Sb  Sb68  1  0.66337225  0.33162899  0.33265055  1
  Sb  Sb69  1  0.66377254  0.16677401  0.16277126  1
  Sb  Sb70  1  0.16467771  0.16536574  0.00128054  1
  Sb  Sb71  1  0.82952016  0.50555777  0.66629128  1
  Sb  Sb72  1  0.16856995  0.50654118  0.33533572  1
  Sb  Sb73  1  0.66678694  0.67366809  0.33218314  1
  Sb  Sb74  1  0.33599682  0.34047309  0.66356606  1
  Sb  Sb75  1  0.00010222  0.33577139  0.33724700  1
  Sb  Sb76  1  0.16915704  -0.00189557  0.83188537  1
  Sb  Sb77  1  0.50732103  0.15985592  0.66797297  1
  Sb  Sb78  1  0.33845453  0.15555909  0.16731784  1
  Sb  Sb79  1  0.17042244  0.33368398  0.16860606  1
  Sb  Sb80  1  0.66706382  0.83284543  0.16782004  1
  Sb  Sb81  1  -0.00183847  0.16077477  0.16736141  1
  Sb  Sb82  1  0.33757616  0.32784656  0.33514793  1
  Sb  Sb83  1  -0.00425481  0.67175116  0.66612265  1
  Sb  Sb84  1  0.66936973  0.15927366  0.83452674  1
  Sb  Sb85  1  -0.00306013  0.66924888  0.33297152  1
  Sb  Sb86  1  0.82618785  0.66940033  0.83568490  1
  Sb  Sb87  1  0.66389249  0.50540968  0.49799498  1
  Sb  Sb88  1  -0.00256259  -0.00375161  0.33287316  1
  Sb  Sb89  1  0.15789893  0.16357985  0.66338673  1
  Sb  Sb90  1  0.50239514  0.67284145  0.49847915  1
  Sb  Sb91  1  0.66781052  0.16011146  0.50243559  1
  Sb  Sb92  1  0.34120971  0.50911005  0.16693067  1
  Sb  Sb93  1  0.66489841  0.50604608  0.83883664  1
  Sb  Sb94  1  -0.00542864  0.83838933  0.83497169  1
  Sb  Sb95  1  0.16223664  0.83301016  0.00248142  1
  Sb  Sb96  1  0.33996653  0.67099173  -0.00163717  1
  Sb  Sb97  1  0.00036703  0.83855017  0.49751144  1
  Sb  Sb98  1  0.82693708  0.33768836  0.16414617  1
  Sb  Sb99  1  0.16599474  0.67262172  0.16844238  1
  Sb  Sb100  1  0.50310543  0.33371396  0.83284300  1
  Sb  Sb101  1  0.82729369  -0.00059960  0.83678137  1
  Sb  Sb102  1  0.82933687  0.33611186  0.50114672  1
  Sb  Sb103  1  0.82876075  0.16092428  0.33227030  1
  Sb  Sb104  1  -0.00562072  0.33043125  -0.00231360  1
  Sb  Sb105  1  0.33352442  0.15892538  0.50034454  1
  Sb  Sb106  1  0.00059792  0.49713624  0.49878444  1
  Sb  Sb107  1  0.33557633  0.67512269  0.33741751  1
  Te  Te108  1  0.16682314  0.16096328  0.16851994  1
  Te  Te109  1  0.16337474  0.17132990  0.49886012  1
  Te  Te110  1  0.15984370  0.16680094  0.83339815  1
  Te  Te111  1  0.17000511  0.50096910  0.16483180  1
  Te  Te112  1  0.16796763  0.49587175  0.50253642  1
  Te  Te113  1  0.16644882  0.49964576  0.83147338  1
  Te  Te114  1  0.16334919  0.83636271  0.16750883  1
  Te  Te115  1  0.16061585  0.83461508  0.49836088  1
  Te  Te116  1  0.16612935  0.83246828  0.82747428  1
  Te  Te117  1  0.49971368  0.16640078  0.16551555  1
  Te  Te118  1  0.49996404  0.16546723  0.49899635  1
  Te  Te119  1  0.50043458  0.16161285  0.83989410  1
  Te  Te120  1  0.50140828  0.50255619  0.16608164  1
  Te  Te121  1  0.49868285  0.49678429  0.50664276  1
  Te  Te122  1  0.49991955  0.50204534  0.82328793  1
  Te  Te123  1  0.49983995  0.83186570  0.17005854  1
  Te  Te124  1  0.49968770  0.83316531  0.49845646  1
  Te  Te125  1  0.50479341  0.83319830  0.83158101  1
  Te  Te126  1  0.83325971  0.16501729  0.16332315  1
  Te  Te127  1  0.83724805  0.16892291  0.50156049  1
  Te  Te128  1  0.83846451  0.16592714  0.83344165  1
  Te  Te129  1  0.82940103  0.49940416  0.16712419  1
  Te  Te130  1  0.83320626  0.50641726  0.49458054  1
  Te  Te131  1  0.83447841  0.50087796  0.84505611  1
  Te  Te132  1  0.83170908  0.83204095  0.16893973  1
  Te  Te133  1  0.83444005  0.83040205  0.50093881  1
  Te  Te134  1  0.82801419  0.83310097  0.82290942  1
  Te  Te135  1  0.15922354  0.00024182  0.00297239  1
  Te  Te136  1  0.16422199  -0.00562932  0.33318193  1
  Te  Te137  1  0.17275412  -0.00446313  0.66382466  1
  Te  Te138  1  0.16729050  0.33769053  0.00075419  1
  Te  Te139  1  0.16866927  0.33298384  0.33902415  1
  Te  Te140  1  0.16829394  0.33574732  0.66121920  1
  Te  Te141  1  0.16906595  0.66207345  -0.00114494  1
  Te  Te142  1  0.16672581  0.67361051  0.33927032  1
  Te  Te143  1  0.16054471  0.66592954  0.66463061  1
  Te  Te144  1  0.50582467  -0.00300147  0.00343377  1
  Te  Te145  1  0.50306545  -0.00457672  0.33365792  1
  Te  Te146  1  0.50473682  -0.00411034  0.66511505  1
  Te  Te147  1  0.50410042  0.33997843  0.00054419  1
  Te  Te148  1  0.49974569  0.34275455  0.33363427  1
  Te  Te149  1  0.50349694  0.32754025  0.66406732  1
  Te  Te150  1  0.50316714  0.66596160  0.00151197  1
  Te  Te151  1  0.49982505  0.66304149  0.32966049  1
  Te  Te152  1  0.50380269  0.67105286  0.66027164  1
  Te  Te153  1  0.83084652  -0.00194554  -0.00041278  1
  Te  Te154  1  0.82760785  -0.00403329  0.32899275  1
  Te  Te155  1  0.83058019  -0.00233671  0.66539403  1
  Te  Te156  1  0.82688762  0.33169627  -0.00006654  1
  Te  Te157  1  0.83303364  0.33492444  0.33293155  1
  Te  Te158  1  0.83333477  0.33821577  0.66634491  1
  Te  Te159  1  0.82798027  0.66844194  0.00312975  1
  Te  Te160  1  0.83255403  0.66799404  0.33193975  1
  Te  Te161  1  0.82749267  0.67155948  0.66671284  1
  Te  Te162  1  -0.00314394  0.16326962  -0.00021431  1
  Te  Te163  1  -0.00068458  0.16750427  0.33939601  1
  Te  Te164  1  -0.00367831  0.16440458  0.66526566  1
  Te  Te165  1  0.00314385  0.49855639  0.00421812  1
  Te  Te166  1  0.00007873  0.50009496  0.32557169  1
  Te  Te167  1  0.00092993  0.49786780  0.66771630  1
  Te  Te168  1  -0.00631988  0.83724748  0.00211547  1
  Te  Te169  1  -0.00986212  0.83305215  0.32705549  1
  Te  Te170  1  0.00342761  0.83967995  0.66783479  1
  Te  Te171  1  0.33655533  0.16097525  -0.00058289  1
  Te  Te172  1  0.34217869  0.15757356  0.33438572  1
  Te  Te173  1  0.33202210  0.16791682  0.66830132  1
  Te  Te174  1  0.33255682  0.50066985  0.00021932  1
  Te  Te175  1  0.33783714  0.49919660  0.33359727  1
  Te  Te176  1  0.33156148  0.50803152  0.66703071  1
  Te  Te177  1  0.32956204  0.83845301  0.00058543  1
  Te  Te178  1  0.33597182  0.83523949  0.33485845  1
  Te  Te179  1  0.32799029  0.82988139  0.66531282  1
  Te  Te180  1  0.66720759  0.16363464  -0.00153639  1
  Te  Te181  1  0.66081196  0.16005868  0.33523656  1
  Te  Te182  1  0.67464062  0.17460091  0.66854334  1
  Te  Te183  1  0.66458621  0.50128225  -0.00071400  1
  Te  Te184  1  0.66576115  0.49810785  0.33045871  1
  Te  Te185  1  0.66462924  0.49585151  0.66596405  1
  Te  Te186  1  0.67065616  0.83195666  0.00030897  1
  Te  Te187  1  0.66543107  0.83648284  0.33901281  1
  Te  Te188  1  0.66526776  0.83379680  0.66417826  1
  Te  Te189  1  -0.00459954  -0.00203924  0.16474633  1
  Te  Te190  1  0.00122453  0.00453125  0.50385309  1
  Te  Te191  1  0.00235560  0.00331904  0.83207587  1
  Te  Te192  1  0.00313571  0.33666030  0.16650541  1
  Te  Te193  1  -0.00133376  0.33038719  0.50434935  1
  Te  Te194  1  -0.00071685  0.32693562  0.82637064  1
  Te  Te195  1  -0.00230885  0.66585514  0.16566962  1
  Te  Te196  1  0.00005274  0.66426598  0.50081656  1
  Te  Te197  1  0.00250872  0.66607297  0.83529261  1
  Te  Te198  1  0.33260681  -0.00429016  0.16743298  1
  Te  Te199  1  0.33315831  -0.00497016  0.49713718  1
  Te  Te200  1  0.34000071  0.00048830  0.84273117  1
  Te  Te201  1  0.34016333  0.33427225  0.16781339  1
  Te  Te202  1  0.33563624  0.33164131  0.50036686  1
  Te  Te203  1  0.33181347  0.33130436  0.83445356  1
  Te  Te204  1  0.33552908  0.67718630  0.16565306  1
  Te  Te205  1  0.32713913  0.67373767  0.50466347  1
  Te  Te206  1  0.34308031  0.66660497  0.82701944  1
  Te  Te207  1  0.66611210  0.00158478  0.16642005  1
  Te  Te208  1  0.66520689  -0.00309411  0.50544604  1
  Te  Te209  1  0.66177345  -0.00374455  0.82931702  1
  Te  Te210  1  0.66026953  0.33795473  0.16462107  1
  Te  Te211  1  0.66132895  0.33390954  0.50155393  1
  Te  Te212  1  0.66560503  0.33375774  0.83352149  1
  Te  Te213  1  0.66791553  0.66318188  0.16652806  1
  Te  Te214  1  0.67173681  0.67175064  0.50418776  1
  Te  Te215  1  0.66206102  0.67093432  0.83296050  1
