# generated using pymatgen
data_AgSbTe2
_symmetry_space_group_name_H-M   'P 1'
_cell_length_a   18.32449868
_cell_length_b   18.32057816
_cell_length_c   18.32046671
_cell_angle_alpha   90.00099660
_cell_angle_beta   89.99957668
_cell_angle_gamma   89.99929232
_symmetry_Int_Tables_number   1
_chemical_formula_structural   AgSbTe2
_chemical_formula_sum   'Ag54 Sb54 Te108'
_cell_volume   6150.46299712
_cell_formula_units_Z   54
loop_
 _symmetry_equiv_pos_site_id
 _symmetry_equiv_pos_as_xyz
  1  'x, y, z'
loop_
 _atom_site_type_symbol
 _atom_site_label
 _atom_site_symmetry_multiplicity
 _atom_site_fract_x
 _atom_site_fract_y
 _atom_site_fract_z
 _atom_site_occupancy
  Ag  Ag0  1  0.83616179  0.16615655  0.33401699  1
  Ag  Ag1  1  0.49052374  0.83334045  0.33626325  1
  Ag  Ag2  1  0.15880769  0.33226352  0.49395094  1
  Ag  Ag3  1  0.32825270  0.83077759  0.17235807  1
  Ag  Ag4  1  0.83802656  0.82646448  0.66052222  1
  Ag  Ag5  1  -0.00348721  -0.00112626  0.67223313  1
  Ag  Ag6  1  0.66697912  0.82681953  0.49924978  1
  Ag  Ag7  1  -0.00002050  0.49963707  0.16825669  1
  Ag  Ag8  1  0.49900262  0.32829306  0.82859827  1
  Ag  Ag9  1  0.32422570  -0.00252520  0.00236959  1
  Ag  Ag10  1  0.34060025  0.50545928  0.49437614  1
  Ag  Ag11  1  0.49684259  0.65904951  0.50209469  1
  Ag  Ag12  1  0.17013789  0.33094869  0.17366178  1
  Ag  Ag13  1  0.32896585  0.16265209  0.84167371  1
  Ag  Ag14  1  0.83031982  0.50804737  0.66652302  1
  Ag  Ag15  1  0.33500704  0.33519994  0.33190411  1
  Ag  Ag16  1  0.50397975  0.34012233  0.49782266  1
  Ag  Ag17  1  0.33519395  0.67295972  0.00605115  1
  Ag  Ag18  1  0.00197026  0.16858172  0.16803550  1
  Ag  Ag19  1  0.33553733  -0.00881988  0.32613827  1
  Ag  Ag20  1  0.49370849  0.00336428  0.83427114  1
  Ag  Ag21  1  0.16297159  0.00109578  0.83719973  1
  Ag  Ag22  1  0.33569966  0.66719265  0.65742712  1
  Ag  Ag23  1  0.50879607  0.49975915  0.66134247  1
  Ag  Ag24  1  0.33172585  0.66992391  0.33516566  1
  Ag  Ag25  1  0.16775636  0.84121438  -0.00066080  1
  Ag  Ag26  1  0.67012950  0.67043273  -0.00240510  1
  Ag  Ag27  1  0.84199580  -0.00227707  0.82991509  1
  Ag  Ag28  1  -0.00454786  0.33273056  0.65583638  1
  Ag  Ag29  1  0.00374812  0.00102790  -0.00570308  1
  Ag  Ag30  1  0.67044896  0.34197209  0.65462276  1
  Ag  Ag31  1  -0.00265398  0.17222491  0.49873573  1
  Ag  Ag32  1  -0.01095596  0.66896564  0.66160526  1
  Ag  Ag33  1  0.49175810  0.33354556  0.17825664  1
  Ag  Ag34  1  0.83279499  0.50548899  -0.00139158  1
  Ag  Ag35  1  -0.00159294  0.66634188  0.33342325  1
  Ag  Ag36  1  0.00201867  0.16224818  0.83261960  1
  Ag  Ag37  1  0.66945324  -0.00551891  -0.00145486  1
  Ag  Ag38  1  -0.00137579  0.33203965  0.33649898  1
  Ag  Ag39  1  0.16626591  0.15990725  0.00026134  1
  Ag  Ag40  1  0.67084358  0.16940927  0.16736953  1
  Ag  Ag41  1  0.83342798  0.67059159  0.82827241  1
  Ag  Ag42  1  0.33103646  0.49662548  0.17335522  1
  Ag  Ag43  1  0.67221957  0.66154403  0.66439016  1
  Ag  Ag44  1  0.83426637  0.33117999  0.49944434  1
  Ag  Ag45  1  0.66611738  0.33228632  0.33844185  1
  Ag  Ag46  1  0.33687916  0.82443499  0.49198740  1
  Ag  Ag47  1  0.83488219  -0.00056988  0.50272303  1
  Ag  Ag48  1  0.83325394  0.83435974  0.33931849  1
  Ag  Ag49  1  0.66152750  0.49985556  0.50352863  1
  Ag  Ag50  1  0.32952900  0.17021992  0.16546247  1
  Ag  Ag51  1  0.83670632  0.66648751  0.16521217  1
  Ag  Ag52  1  0.15856728  0.83269909  0.66764729  1
  Ag  Ag53  1  0.00359042  0.83172184  0.16814202  1
  Sb  Sb54  1  0.66749409  0.49952049  0.82552683  1
  Sb  Sb55  1  0.66665749  0.83509634  0.17074713  1
  Sb  Sb56  1  0.49521327  0.83421979  0.00611679  1
  Sb  Sb57  1  0.49605942  0.00381431  0.16344013  1
  Sb  Sb58  1  0.16342012  0.16324274  0.67125281  1
  Sb  Sb59  1  0.83066278  0.33118910  0.82518020  1
  Sb  Sb60  1  0.16767319  0.83476170  0.33250290  1
  Sb  Sb61  1  0.49504861  0.16547084  0.00089400  1
  Sb  Sb62  1  0.66518679  0.00218942  0.33072862  1
  Sb  Sb63  1  0.83654110  0.16584879  0.66082683  1
  Sb  Sb64  1  0.16206589  0.00300159  0.50507835  1
  Sb  Sb65  1  0.16239679  0.67296383  0.83237606  1
  Sb  Sb66  1  0.16830947  0.49759718  0.33420075  1
  Sb  Sb67  1  -0.00021135  0.83435017  0.49879897  1
  Sb  Sb68  1  0.50106777  0.16745860  0.33162287  1
  Sb  Sb69  1  0.16369124  0.50379218  0.66460725  1
  Sb  Sb70  1  0.50360315  -0.00011775  0.50388148  1
  Sb  Sb71  1  0.49835355  0.66242126  0.17257229  1
  Sb  Sb72  1  0.33567208  0.49654088  0.83347827  1
  Sb  Sb73  1  0.49972908  0.17422318  0.66761341  1
  Sb  Sb74  1  0.66893869  0.16465372  0.83760561  1
  Sb  Sb75  1  0.16459967  0.50122659  0.00399033  1
  Sb  Sb76  1  0.50165528  0.82851386  0.66083683  1
  Sb  Sb77  1  0.50324674  0.50073230  -0.00313547  1
  Sb  Sb78  1  0.67302464  -0.00213011  0.66978687  1
  Sb  Sb79  1  0.82970414  0.66676218  0.50119335  1
  Sb  Sb80  1  0.33397633  0.33153716  0.00805749  1
  Sb  Sb81  1  0.83440208  0.50036815  0.33657296  1
  Sb  Sb82  1  -0.00058291  0.84016812  0.83313172  1
  Sb  Sb83  1  0.67233769  0.17101437  0.49554222  1
  Sb  Sb84  1  -0.00288271  0.49571660  0.83528560  1
  Sb  Sb85  1  0.49727519  0.50003750  0.34048049  1
  Sb  Sb86  1  0.66891368  0.83307302  0.82827888  1
  Sb  Sb87  1  0.50232540  0.66755712  0.82769685  1
  Sb  Sb88  1  0.33237900  0.83681074  0.83500674  1
  Sb  Sb89  1  0.83517784  -0.00340039  0.16630867  1
  Sb  Sb90  1  -0.00186112  0.49587073  0.49712403  1
  Sb  Sb91  1  0.16257026  0.16886778  0.32654069  1
  Sb  Sb92  1  -0.00094610  0.67168252  0.00132440  1
  Sb  Sb93  1  0.16514966  0.66493512  0.16667685  1
  Sb  Sb94  1  0.00193670  0.00050654  0.33309829  1
  Sb  Sb95  1  0.00003028  0.32863593  0.00396690  1
  Sb  Sb96  1  0.66674011  0.66509397  0.33688986  1
  Sb  Sb97  1  0.17212851  0.66358520  0.50052565  1
  Sb  Sb98  1  0.32882977  -0.00596550  0.66901382  1
  Sb  Sb99  1  0.66655476  0.49666107  0.17154154  1
  Sb  Sb100  1  0.83676190  0.83110300  0.00069569  1
  Sb  Sb101  1  0.66790834  0.33398265  0.00270394  1
  Sb  Sb102  1  0.16948321  0.32553602  0.83265612  1
  Sb  Sb103  1  0.83804566  0.16752064  0.00446942  1
  Sb  Sb104  1  0.32758821  0.16963159  0.49542137  1
  Sb  Sb105  1  0.33254330  0.33830314  0.65917399  1
  Sb  Sb106  1  0.16751771  0.00456335  0.16050669  1
  Sb  Sb107  1  0.83601033  0.33632380  0.17392700  1
  Te  Te108  1  0.16613056  0.17050160  0.16143223  1
  Te  Te109  1  0.15952925  0.17172216  0.50185840  1
  Te  Te110  1  0.16572749  0.16161400  0.83829320  1
  Te  Te111  1  0.16691199  0.49272571  0.16615219  1
  Te  Te112  1  0.17696444  0.49149637  0.50165528  1
  Te  Te113  1  0.16601593  0.49840364  0.83502791  1
  Te  Te114  1  0.16713753  0.83243631  0.16460035  1
  Te  Te115  1  0.17207273  0.83469871  0.50519186  1
  Te  Te116  1  0.16605664  0.83951748  0.83350450  1
  Te  Te117  1  0.49612310  0.17313887  0.16661580  1
  Te  Te118  1  0.49903852  0.17096104  0.50007471  1
  Te  Te119  1  0.49737933  0.16565044  0.83391405  1
  Te  Te120  1  0.49581917  0.49396749  0.16497565  1
  Te  Te121  1  0.49978234  0.50010958  0.50288956  1
  Te  Te122  1  0.50015134  0.49557651  0.82553858  1
  Te  Te123  1  0.49578702  0.83250489  0.17509060  1
  Te  Te124  1  0.49849979  0.83560832  0.49612606  1
  Te  Te125  1  0.50109657  0.83876076  0.83349918  1
  Te  Te126  1  0.83569282  0.16701112  0.17188282  1
  Te  Te127  1  0.83764629  0.16730551  0.49465338  1
  Te  Te128  1  0.83854075  0.16203738  0.83567687  1
  Te  Te129  1  0.83446449  0.50454359  0.16584246  1
  Te  Te130  1  0.83053517  0.49616666  0.50494076  1
  Te  Te131  1  0.83369143  0.50282456  0.83181257  1
  Te  Te132  1  0.83478308  0.82881000  0.17014618  1
  Te  Te133  1  0.83442493  0.83350937  0.50020143  1
  Te  Te134  1  0.83346441  0.83386144  0.82840783  1
  Te  Te135  1  0.16624644  -0.00089325  -0.00217340  1
  Te  Te136  1  0.17643714  0.00165572  0.33677744  1
  Te  Te137  1  0.16031497  -0.00581027  0.67231037  1
  Te  Te138  1  0.16654576  0.33033980  0.00223975  1
  Te  Te139  1  0.16443762  0.33215915  0.33364220  1
  Te  Te140  1  0.16149710  0.33412528  0.66361348  1
  Te  Te141  1  0.17287112  0.67154471  -0.00109405  1
  Te  Te142  1  0.16376697  0.66741194  0.33366363  1
  Te  Te143  1  0.16854458  0.67225447  0.66764353  1
  Te  Te144  1  0.50275012  -0.00069155  -0.00497443  1
  Te  Te145  1  0.49538885  -0.00429223  0.33466265  1
  Te  Te146  1  0.50252166  0.00062429  0.67343917  1
  Te  Te147  1  0.50185767  0.33418591  -0.00640042  1
  Te  Te148  1  0.49919632  0.33275781  0.33544088  1
  Te  Te149  1  0.49992410  0.33888111  0.66282046  1
  Te  Te150  1  0.50047497  0.66651469  -0.00208384  1
  Te  Te151  1  0.49815080  0.67185709  0.33926221  1
  Te  Te152  1  0.50026786  0.66270954  0.66325884  1
  Te  Te153  1  0.83454323  -0.00086923  -0.00280413  1
  Te  Te154  1  0.83348157  -0.00150767  0.33612694  1
  Te  Te155  1  0.83683889  -0.00163764  0.66650268  1
  Te  Te156  1  0.83258341  0.34175731  -0.00346418  1
  Te  Te157  1  0.83658628  0.33325337  0.33789642  1
  Te  Te158  1  0.83428713  0.33298934  0.66214541  1
  Te  Te159  1  0.83226947  0.66635304  -0.00002439  1
  Te  Te160  1  0.83581269  0.66921661  0.33173280  1
  Te  Te161  1  0.83230174  0.66734036  0.66508632  1
  Te  Te162  1  0.00267091  0.16250472  0.00348310  1
  Te  Te163  1  -0.00269576  0.16747471  0.33153721  1
  Te  Te164  1  0.00024477  0.16710409  0.66592150  1
  Te  Te165  1  -0.00396844  0.50115950  0.00647528  1
  Te  Te166  1  0.00029254  0.50143649  0.32799155  1
  Te  Te167  1  -0.00417798  0.50113801  0.66657442  1
  Te  Te168  1  0.00388614  0.83821674  0.00573489  1
  Te  Te169  1  -0.00191564  0.83235703  0.32951007  1
  Te  Te170  1  -0.00128777  0.83175628  0.66558562  1
  Te  Te171  1  0.32976956  0.16476216  0.00219247  1
  Te  Te172  1  0.33319523  0.17111167  0.32813262  1
  Te  Te173  1  0.33154837  0.16555739  0.67115872  1
  Te  Te174  1  0.33372155  0.50514269  0.00363624  1
  Te  Te175  1  0.33386915  0.50033010  0.33245352  1
  Te  Te176  1  0.33191166  0.50677679  0.66550570  1
  Te  Te177  1  0.33063241  0.83476989  0.00303225  1
  Te  Te178  1  0.33035818  0.83176165  0.33265010  1
  Te  Te179  1  0.33380697  0.82771118  0.66430496  1
  Te  Te180  1  0.66831360  0.16443363  0.00595870  1
  Te  Te181  1  0.67111613  0.16977108  0.32811879  1
  Te  Te182  1  0.66752447  0.17265681  0.66814715  1
  Te  Te183  1  0.67143317  0.50465471  0.00222587  1
  Te  Te184  1  0.66655472  0.49386621  0.34022779  1
  Te  Te185  1  0.66907061  0.49999323  0.66299778  1
  Te  Te186  1  0.66610902  0.83210270  0.00147161  1
  Te  Te187  1  0.67270693  0.83432466  0.33848096  1
  Te  Te188  1  0.67061955  0.82933450  0.66024211  1
  Te  Te189  1  0.00058400  0.00046283  0.16505859  1
  Te  Te190  1  -0.00476829  0.00399228  0.50143516  1
  Te  Te191  1  -0.00015115  0.00216608  0.83313474  1
  Te  Te192  1  0.00106411  0.33204716  0.16991940  1
  Te  Te193  1  -0.00082160  0.33448961  0.49781480  1
  Te  Te194  1  0.00019016  0.32604450  0.83065008  1
  Te  Te195  1  -0.00113130  0.66702186  0.16703334  1
  Te  Te196  1  0.00218353  0.66485199  0.49897632  1
  Te  Te197  1  -0.00545352  0.66475432  0.82897786  1
  Te  Te198  1  0.33341328  -0.00016247  0.16491894  1
  Te  Te199  1  0.33333058  -0.00008243  0.49966134  1
  Te  Te200  1  0.33316842  0.00290327  0.83593473  1
  Te  Te201  1  0.33273413  0.33368168  0.16910251  1
  Te  Te202  1  0.33728429  0.33337821  0.49437530  1
  Te  Te203  1  0.33757588  0.32764185  0.83167377  1
  Te  Te204  1  0.33376476  0.66643613  0.16848343  1
  Te  Te205  1  0.33447879  0.66594610  0.49722139  1
  Te  Te206  1  0.33304533  0.66618143  0.83546056  1
  Te  Te207  1  0.66553367  0.00498499  0.16072606  1
  Te  Te208  1  0.67262409  -0.00147652  0.50032627  1
  Te  Te209  1  0.66844410  -0.00016664  0.83848439  1
  Te  Te210  1  0.66531715  0.32922526  0.17082163  1
  Te  Te211  1  0.66647497  0.33198160  0.49876020  1
  Te  Te212  1  0.66092541  0.33097611  0.83058951  1
  Te  Te213  1  0.66968559  0.66576808  0.16442810  1
  Te  Te214  1  0.66304631  0.66664671  0.50197896  1
  Te  Te215  1  0.67064609  0.66651457  0.83374883  1
