# generated using pymatgen
data_AgSbTe2
_symmetry_space_group_name_H-M   'P 1'
_cell_length_a   18.33387710
_cell_length_b   18.33851911
_cell_length_c   18.33607371
_cell_angle_alpha   89.99863320
_cell_angle_beta   89.99627490
_cell_angle_gamma   89.99796936
_symmetry_Int_Tables_number   1
_chemical_formula_structural   AgSbTe2
_chemical_formula_sum   'Ag54 Sb54 Te108'
_cell_volume   6164.88418859
_cell_formula_units_Z   54
loop_
 _symmetry_equiv_pos_site_id
 _symmetry_equiv_pos_as_xyz
  1  'x, y, z'
loop_
 _atom_site_type_symbol
 _atom_site_label
 _atom_site_symmetry_multiplicity
 _atom_site_fract_x
 _atom_site_fract_y
 _atom_site_fract_z
 _atom_site_occupancy
  Ag  Ag0  1  -0.00558634  0.33338271  0.00016569  1
  Ag  Ag1  1  0.34416837  0.50643326  0.17380295  1
  Ag  Ag2  1  0.50491257  0.34420295  0.49752668  1
  Ag  Ag3  1  0.16595616  -0.00364379  0.83609923  1
  Ag  Ag4  1  0.17396940  0.83000815  0.33161297  1
  Ag  Ag5  1  -0.00241074  0.16800209  0.16817939  1
  Ag  Ag6  1  0.49861391  -0.01643576  0.16654796  1
  Ag  Ag7  1  0.50371337  0.16911453  0.66647402  1
  Ag  Ag8  1  0.83758987  0.66367824  0.49725714  1
  Ag  Ag9  1  0.49900684  0.50376739  0.33528258  1
  Ag  Ag10  1  0.34639686  0.82925935  0.16248494  1
  Ag  Ag11  1  0.50954293  0.82843796  0.01022743  1
  Ag  Ag12  1  0.50426134  0.66220773  0.49975163  1
  Ag  Ag13  1  0.33935776  0.33675063  0.33018266  1
  Ag  Ag14  1  0.34514510  0.66957244  0.00431254  1
  Ag  Ag15  1  -0.00585485  0.66461729  0.65769080  1
  Ag  Ag16  1  0.50760834  0.66818089  0.16879315  1
  Ag  Ag17  1  0.65626125  0.82158006  0.15289728  1
  Ag  Ag18  1  -0.00989962  0.16891377  0.49938517  1
  Ag  Ag19  1  0.15117500  0.66715619  0.49961200  1
  Ag  Ag20  1  0.33924556  0.16156978  0.16799344  1
  Ag  Ag21  1  0.66646605  0.15909895  0.82748819  1
  Ag  Ag22  1  0.83194638  0.00313814  0.50085499  1
  Ag  Ag23  1  0.50266187  0.34077389  0.16929928  1
  Ag  Ag24  1  0.66035669  0.51186800  0.16477150  1
  Ag  Ag25  1  0.82098310  0.82578816  0.00125786  1
  Ag  Ag26  1  -0.00282930  0.82056415  0.50155488  1
  Ag  Ag27  1  0.67026701  0.16574097  0.50349145  1
  Ag  Ag28  1  0.66612389  -0.01350207  -0.00291737  1
  Ag  Ag29  1  0.83302391  0.16883149  0.33761155  1
  Ag  Ag30  1  0.82830773  0.50488503  0.66269950  1
  Ag  Ag31  1  0.83307085  0.50538995  0.00149100  1
  Ag  Ag32  1  0.34767006  0.50397036  0.49706996  1
  Ag  Ag33  1  0.82776084  0.34036036  0.17040856  1
  Ag  Ag34  1  -0.00195154  0.82862284  0.83159337  1
  Ag  Ag35  1  0.34195230  -0.00880210  0.66851200  1
  Ag  Ag36  1  -0.00350860  0.50884881  0.82456533  1
  Ag  Ag37  1  0.82285309  0.66242433  0.16981603  1
  Ag  Ag38  1  0.49932266  0.82163538  0.32445446  1
  Ag  Ag39  1  0.50107711  0.34100684  0.83270912  1
  Ag  Ag40  1  -0.00559998  0.50893312  0.50310373  1
  Ag  Ag41  1  0.34287393  0.82987261  0.83884889  1
  Ag  Ag42  1  0.82958232  0.33378777  0.49481466  1
  Ag  Ag43  1  0.17816674  -0.00119873  0.16257055  1
  Ag  Ag44  1  0.50409646  0.50656809  0.65986784  1
  Ag  Ag45  1  -0.00809655  0.66648586  0.34462015  1
  Ag  Ag46  1  -0.00512829  0.16754361  0.83119149  1
  Ag  Ag47  1  0.34543391  0.66875727  0.66506337  1
  Ag  Ag48  1  0.66301186  -0.00385562  0.67030588  1
  Ag  Ag49  1  0.50258088  0.66653095  0.83526335  1
  Ag  Ag50  1  0.66112625  0.83133491  0.84083666  1
  Ag  Ag51  1  0.66270270  0.67592306  0.01313749  1
  Ag  Ag52  1  0.66571019  0.66720131  0.32497557  1
  Ag  Ag53  1  0.66271285  0.66951495  0.66602807  1
  Sb  Sb54  1  -0.00655382  0.66493519  -0.00164340  1
  Sb  Sb55  1  0.16738028  0.50426134  0.66552232  1
  Sb  Sb56  1  0.16239196  0.16108725  0.33244478  1
  Sb  Sb57  1  0.16504653  0.33943569  0.49784912  1
  Sb  Sb58  1  -0.00015360  0.33685066  0.33210267  1
  Sb  Sb59  1  0.16844374  0.32934379  0.83430429  1
  Sb  Sb60  1  0.33159716  0.82574427  0.49889185  1
  Sb  Sb61  1  0.50065848  -0.00608469  0.83464076  1
  Sb  Sb62  1  0.83209387  -0.00121243  0.82875637  1
  Sb  Sb63  1  0.16945754  0.67229510  0.82862682  1
  Sb  Sb64  1  -0.00253920  0.83507260  0.16642108  1
  Sb  Sb65  1  0.66354202  0.33922730  0.33417836  1
  Sb  Sb66  1  0.82934201  -0.00131201  0.16952334  1
  Sb  Sb67  1  0.50510074  0.50915219  0.00517993  1
  Sb  Sb68  1  -0.00369588  0.49800244  0.16959415  1
  Sb  Sb69  1  0.17207770  0.50836523  0.33490035  1
  Sb  Sb70  1  0.82727703  0.66674303  0.83283495  1
  Sb  Sb71  1  0.33462383  0.00029222  0.33388385  1
  Sb  Sb72  1  0.16832508  0.32979159  0.16828771  1
  Sb  Sb73  1  0.66802042  0.33633928  0.00086118  1
  Sb  Sb74  1  0.83205966  0.16761467  0.00334731  1
  Sb  Sb75  1  -0.00525604  0.00172662  -0.00170184  1
  Sb  Sb76  1  -0.00351493  0.33861176  0.66863972  1
  Sb  Sb77  1  0.16186239  0.50284218  0.00137926  1
  Sb  Sb78  1  0.16565920  0.16512427  0.00133013  1
  Sb  Sb79  1  0.33899981  -0.00732094  -0.00028721  1
  Sb  Sb80  1  0.50418223  0.16996633  0.33542236  1
  Sb  Sb81  1  0.66716846  0.50553028  0.83629283  1
  Sb  Sb82  1  0.66542245  0.16492877  0.16782301  1
  Sb  Sb83  1  0.66519781  0.33515019  0.66549742  1
  Sb  Sb84  1  0.83215302  0.82671663  0.66895915  1
  Sb  Sb85  1  0.33512979  0.34030629  0.00598229  1
  Sb  Sb86  1  0.17165668  0.67246311  0.17376718  1
  Sb  Sb87  1  0.50232008  0.16277896  -0.00153758  1
  Sb  Sb88  1  0.33461923  0.50679852  0.83206652  1
  Sb  Sb89  1  0.16938950  0.16170299  0.66600413  1
  Sb  Sb90  1  0.66657939  0.50191637  0.49885843  1
  Sb  Sb91  1  0.82762355  0.50032402  0.33476019  1
  Sb  Sb92  1  0.34042145  0.33897126  0.66267927  1
  Sb  Sb93  1  0.50101330  0.82733365  0.66720311  1
  Sb  Sb94  1  0.33731719  0.16081280  0.83615366  1
  Sb  Sb95  1  0.82781775  0.17050981  0.66069196  1
  Sb  Sb96  1  0.33636604  0.17158302  0.49746014  1
  Sb  Sb97  1  0.50392406  -0.00283760  0.49918497  1
  Sb  Sb98  1  0.16215287  -0.00696778  0.50085435  1
  Sb  Sb99  1  0.83017551  0.83021443  0.33152540  1
  Sb  Sb100  1  0.66621514  -0.00534266  0.33345547  1
  Sb  Sb101  1  0.16653525  0.83182832  0.66484440  1
  Sb  Sb102  1  -0.00424408  -0.00309819  0.66672343  1
  Sb  Sb103  1  0.82909823  0.33510561  0.83327100  1
  Sb  Sb104  1  0.67003538  0.83082118  0.50023014  1
  Sb  Sb105  1  -0.00114255  -0.00490373  0.33416215  1
  Sb  Sb106  1  0.34268019  0.66383293  0.33439562  1
  Sb  Sb107  1  0.16847892  0.83252688  0.00281740  1
  Te  Te108  1  0.16382220  0.16059531  0.16794367  1
  Te  Te109  1  0.16239338  0.16541084  0.49927669  1
  Te  Te110  1  0.16309740  0.16058759  0.83388408  1
  Te  Te111  1  0.17465773  0.49944791  0.16754726  1
  Te  Te112  1  0.16049033  0.50616656  0.50010147  1
  Te  Te113  1  0.15748071  0.49855367  0.83330891  1
  Te  Te114  1  0.16492427  0.83928975  0.17032668  1
  Te  Te115  1  0.16182271  0.82957096  0.49434471  1
  Te  Te116  1  0.16250160  0.83723287  0.83380236  1
  Te  Te117  1  0.49801300  0.17872052  0.16710518  1
  Te  Te118  1  0.50297800  0.16536469  0.50369144  1
  Te  Te119  1  0.50275660  0.16681447  0.83020363  1
  Te  Te120  1  0.50053230  0.50028627  0.16422714  1
  Te  Te121  1  0.50423147  0.50031374  0.50006272  1
  Te  Te122  1  0.49939835  0.50111960  0.82941291  1
  Te  Te123  1  0.50153565  0.82845080  0.16824067  1
  Te  Te124  1  0.50027639  0.82948570  0.49313008  1
  Te  Te125  1  0.50042106  0.82874493  0.83271462  1
  Te  Te126  1  0.83481204  0.16782959  0.17082598  1
  Te  Te127  1  0.83142105  0.17144260  0.50015943  1
  Te  Te128  1  0.83333584  0.16733124  0.83238093  1
  Te  Te129  1  0.83320584  0.50056667  0.16707184  1
  Te  Te130  1  0.83316434  0.50148993  0.49973106  1
  Te  Te131  1  0.83759365  0.49912807  0.83268817  1
  Te  Te132  1  0.83073524  0.83000589  0.16300828  1
  Te  Te133  1  0.83794315  0.82806310  0.49968155  1
  Te  Te134  1  0.83508762  0.83347204  0.83822684  1
  Te  Te135  1  0.16674534  -0.00060613  0.00091234  1
  Te  Te136  1  0.16683654  -0.00766541  0.32930644  1
  Te  Te137  1  0.17277113  -0.00154319  0.67095142  1
  Te  Te138  1  0.15774793  0.33422627  -0.00010696  1
  Te  Te139  1  0.17506101  0.33267702  0.33369282  1
  Te  Te140  1  0.16918554  0.33137349  0.66701638  1
  Te  Te141  1  0.17305935  0.66700744  -0.00046333  1
  Te  Te142  1  0.16034873  0.67229799  0.33833620  1
  Te  Te143  1  0.16296549  0.66738907  0.66050117  1
  Te  Te144  1  0.50506379  -0.00544069  0.00418493  1
  Te  Te145  1  0.49991836  -0.00017116  0.32739240  1
  Te  Te146  1  0.50202440  0.00242736  0.66660313  1
  Te  Te147  1  0.49996347  0.33407363  0.00028460  1
  Te  Te148  1  0.49880114  0.33572799  0.33385706  1
  Te  Te149  1  0.50000447  0.33432365  0.66409079  1
  Te  Te150  1  0.50236043  0.66853635  -0.00005883  1
  Te  Te151  1  0.50227723  0.66378207  0.33010890  1
  Te  Te152  1  0.50145689  0.66677502  0.66661259  1
  Te  Te153  1  0.82693183  -0.00420040  0.00025965  1
  Te  Te154  1  0.83266228  0.00531716  0.34010303  1
  Te  Te155  1  0.82745480  0.00036957  0.66015068  1
  Te  Te156  1  0.83548716  0.33608270  0.00343029  1
  Te  Te157  1  0.83328812  0.33170349  0.33305004  1
  Te  Te158  1  0.83257065  0.34291858  0.66077800  1
  Te  Te159  1  0.82959382  0.66566527  0.00053726  1
  Te  Te160  1  0.83055037  0.66562770  0.33315928  1
  Te  Te161  1  0.83541744  0.66330182  0.66617721  1
  Te  Te162  1  -0.00137487  0.16947209  -0.00028130  1
  Te  Te163  1  -0.00374544  0.16794227  0.33356690  1
  Te  Te164  1  0.00031115  0.16648966  0.66846542  1
  Te  Te165  1  -0.00546049  0.49685551  0.00033316  1
  Te  Te166  1  0.00208891  0.50459623  0.33839279  1
  Te  Te167  1  -0.00009588  0.50323059  0.66537791  1
  Te  Te168  1  -0.00257135  0.83336706  -0.00509823  1
  Te  Te169  1  -0.00188859  0.82823363  0.33546950  1
  Te  Te170  1  -0.00071464  0.82906093  0.66699526  1
  Te  Te171  1  0.33348897  0.16743506  0.00821234  1
  Te  Te172  1  0.33260874  0.17072327  0.32843120  1
  Te  Te173  1  0.33953217  0.16585592  0.66733789  1
  Te  Te174  1  0.33086908  0.50792390  0.00149912  1
  Te  Te175  1  0.33777610  0.49823519  0.33410068  1
  Te  Te176  1  0.33807337  0.50594643  0.66296124  1
  Te  Te177  1  0.33567396  0.82935186  0.00007871  1
  Te  Te178  1  0.33505849  0.83399980  0.32973575  1
  Te  Te179  1  0.33316436  0.83117046  0.66855735  1
  Te  Te180  1  0.66728653  0.16482366  -0.00597943  1
  Te  Te181  1  0.67166209  0.16563338  0.33816828  1
  Te  Te182  1  0.66412091  0.16680481  0.66656112  1
  Te  Te183  1  0.67380501  0.50350900  0.00365026  1
  Te  Te184  1  0.66074095  0.50536641  0.32604750  1
  Te  Te185  1  0.66569099  0.50470207  0.66898614  1
  Te  Te186  1  0.66522249  0.83096331  -0.00296186  1
  Te  Te187  1  0.66280364  0.82832664  0.33110595  1
  Te  Te188  1  0.66732613  0.83450875  0.67024004  1
  Te  Te189  1  -0.00080976  0.00667877  0.16599679  1
  Te  Te190  1  -0.00501635  0.00766554  0.50128590  1
  Te  Te191  1  0.00255317  -0.00058079  0.83196191  1
  Te  Te192  1  -0.00202543  0.32970828  0.16480459  1
  Te  Te193  1  -0.00258880  0.32960307  0.49985821  1
  Te  Te194  1  -0.00042002  0.32894826  0.83596481  1
  Te  Te195  1  0.00056676  0.66589635  0.16759470  1
  Te  Te196  1  -0.00474381  0.66514858  0.50096498  1
  Te  Te197  1  0.00148661  0.66705350  0.83214362  1
  Te  Te198  1  0.33669858  -0.00190836  0.16652770  1
  Te  Te199  1  0.33185936  0.00084398  0.50702025  1
  Te  Te200  1  0.33107096  -0.00503668  0.83131455  1
  Te  Te201  1  0.33514598  0.33657668  0.16808527  1
  Te  Te202  1  0.33651218  0.33953529  0.49558644  1
  Te  Te203  1  0.33863581  0.33284431  0.83605190  1
  Te  Te204  1  0.33495999  0.66864267  0.16697824  1
  Te  Te205  1  0.34440921  0.66339557  0.50226603  1
  Te  Te206  1  0.33553143  0.67079644  0.82853144  1
  Te  Te207  1  0.66202401  -0.00212978  0.16402830  1
  Te  Te208  1  0.67027324  0.00152885  0.50346255  1
  Te  Te209  1  0.66608231  -0.00183710  0.83192467  1
  Te  Te210  1  0.66822892  0.33308585  0.16727473  1
  Te  Te211  1  0.66587704  0.32889897  0.49937297  1
  Te  Te212  1  0.66076071  0.32862493  0.83354000  1
  Te  Te213  1  0.66742240  0.66708760  0.16837434  1
  Te  Te214  1  0.66391273  0.66690459  0.50640538  1
  Te  Te215  1  0.66252715  0.66933526  0.82570498  1
