# generated using pymatgen
data_AgSbTe2
_symmetry_space_group_name_H-M   'P 1'
_cell_length_a   18.33331552
_cell_length_b   18.34314671
_cell_length_c   18.34618694
_cell_angle_alpha   90.00104372
_cell_angle_beta   89.99795474
_cell_angle_gamma   90.00110232
_symmetry_Int_Tables_number   1
_chemical_formula_structural   AgSbTe2
_chemical_formula_sum   'Ag54 Sb54 Te108'
_cell_volume   6169.65197509
_cell_formula_units_Z   54
loop_
 _symmetry_equiv_pos_site_id
 _symmetry_equiv_pos_as_xyz
  1  'x, y, z'
loop_
 _atom_site_type_symbol
 _atom_site_label
 _atom_site_symmetry_multiplicity
 _atom_site_fract_x
 _atom_site_fract_y
 _atom_site_fract_z
 _atom_site_occupancy
  Ag  Ag0  1  0.66797114  0.66253371  0.67153146  1
  Ag  Ag1  1  0.16671973  0.16927829  -0.01050894  1
  Ag  Ag2  1  0.83004406  0.33407043  0.17057980  1
  Ag  Ag3  1  0.66637130  0.33303709  0.33881212  1
  Ag  Ag4  1  0.66582506  0.17147808  0.83035013  1
  Ag  Ag5  1  0.50031963  -0.00364981  0.16602249  1
  Ag  Ag6  1  0.16873932  0.00210584  0.50964792  1
  Ag  Ag7  1  0.33660664  0.33783010  0.33292341  1
  Ag  Ag8  1  0.50466390  0.33254767  0.49810792  1
  Ag  Ag9  1  0.66276231  0.65616017  -0.00920414  1
  Ag  Ag10  1  0.83164593  0.48740087  0.66269748  1
  Ag  Ag11  1  0.33808139  0.65625623  0.33447132  1
  Ag  Ag12  1  0.49662966  0.83181497  -0.00412832  1
  Ag  Ag13  1  0.82883045  0.65320597  0.50639202  1
  Ag  Ag14  1  0.33211880  0.49809513  0.49499036  1
  Ag  Ag15  1  0.50364067  0.66573380  0.49775340  1
  Ag  Ag16  1  0.33358232  0.84194604  0.83452146  1
  Ag  Ag17  1  0.00171627  0.17482064  0.51173031  1
  Ag  Ag18  1  0.16911842  0.83667607  -0.00465925  1
  Ag  Ag19  1  0.17368901  0.49627214  0.33468203  1
  Ag  Ag20  1  0.00069679  0.83511459  0.50427726  1
  Ag  Ag21  1  0.01141380  0.16657480  0.82871200  1
  Ag  Ag22  1  0.50299545  0.16234891  0.66595130  1
  Ag  Ag23  1  0.83708772  0.49488414  0.34605703  1
  Ag  Ag24  1  -0.00508419  0.49191233  0.49818520  1
  Ag  Ag25  1  0.83259760  0.17495165  0.66796324  1
  Ag  Ag26  1  0.67256212  0.33276137  0.67268399  1
  Ag  Ag27  1  0.33843467  0.33569151  -0.00019494  1
  Ag  Ag28  1  0.66384547  0.17168541  0.15994259  1
  Ag  Ag29  1  0.65735336  0.01521886  0.66916865  1
  Ag  Ag30  1  0.34439045  0.00350621  0.67090477  1
  Ag  Ag31  1  0.49220245  0.00079186  0.82520248  1
  Ag  Ag32  1  0.66291935  0.33557918  -0.00873948  1
  Ag  Ag33  1  0.49636921  0.00197332  0.51285348  1
  Ag  Ag34  1  0.00503754  0.84452523  0.83254145  1
  Ag  Ag35  1  0.17310202  0.49245449  -0.00073025  1
  Ag  Ag36  1  0.83008057  0.33395082  0.82030041  1
  Ag  Ag37  1  0.49859331  0.83664721  0.33884021  1
  Ag  Ag38  1  0.49824883  0.49963112  -0.00047785  1
  Ag  Ag39  1  0.82916392  0.65727287  0.82369705  1
  Ag  Ag40  1  0.00001881  0.83543287  0.15974445  1
  Ag  Ag41  1  0.00637085  -0.00231751  -0.00610620  1
  Ag  Ag42  1  0.50163425  0.84770513  0.66682900  1
  Ag  Ag43  1  0.66815469  0.49028243  0.83357091  1
  Ag  Ag44  1  -0.01150409  0.33502962  0.34521462  1
  Ag  Ag45  1  0.16282620  0.32176319  0.83537364  1
  Ag  Ag46  1  0.50020399  0.66974672  0.17071309  1
  Ag  Ag47  1  0.50086182  0.16911606  0.34396324  1
  Ag  Ag48  1  0.16315845  0.16598127  0.67632338  1
  Ag  Ag49  1  -0.01352162  0.32724282  0.66120315  1
  Ag  Ag50  1  0.83296767  0.33590504  0.50532272  1
  Ag  Ag51  1  0.33532957  0.49833298  0.17694908  1
  Ag  Ag52  1  0.32437770  0.16346405  0.83096237  1
  Ag  Ag53  1  0.17305665  0.00973372  0.82939366  1
  Sb  Sb54  1  0.66151492  0.49428021  0.16174193  1
  Sb  Sb55  1  0.33241375  0.00394423  -0.00687421  1
  Sb  Sb56  1  -0.00488603  0.16602552  0.16407945  1
  Sb  Sb57  1  0.49735958  0.16718908  -0.00542267  1
  Sb  Sb58  1  -0.00436880  0.49426305  0.82942617  1
  Sb  Sb59  1  0.00392813  0.50162148  0.17138548  1
  Sb  Sb60  1  0.49912303  0.49727778  0.33283583  1
  Sb  Sb61  1  0.82925482  0.00667209  0.16586815  1
  Sb  Sb62  1  0.82760138  0.17621597  0.34052717  1
  Sb  Sb63  1  0.34276565  0.67105487  0.66339028  1
  Sb  Sb64  1  0.83328803  0.00578718  0.50353182  1
  Sb  Sb65  1  0.33684343  0.00355761  0.33975874  1
  Sb  Sb66  1  0.50592256  0.49614571  0.66812756  1
  Sb  Sb67  1  0.33625209  0.32848667  0.66760770  1
  Sb  Sb68  1  0.16455345  0.33010733  0.50438579  1
  Sb  Sb69  1  0.00007204  0.00642135  0.66989437  1
  Sb  Sb70  1  0.66520560  0.17098121  0.50771926  1
  Sb  Sb71  1  0.16491989  0.33347249  0.16273048  1
  Sb  Sb72  1  0.66138046  0.00861454  0.33879917  1
  Sb  Sb73  1  0.66792149  0.49697132  0.50523424  1
  Sb  Sb74  1  0.83052207  0.83441013  0.66688508  1
  Sb  Sb75  1  0.17171893  -0.00048937  0.16199886  1
  Sb  Sb76  1  0.83413564  0.00457056  0.83088859  1
  Sb  Sb77  1  0.83109613  0.82361993  0.33579286  1
  Sb  Sb78  1  0.33858323  0.17089229  0.16258691  1
  Sb  Sb79  1  0.66529638  0.83545032  0.83157363  1
  Sb  Sb80  1  0.66552434  0.83715348  0.16521645  1
  Sb  Sb81  1  0.33309459  0.17021706  0.50597053  1
  Sb  Sb82  1  0.16168521  0.49125070  0.66680582  1
  Sb  Sb83  1  0.50299159  0.32637361  0.82895804  1
  Sb  Sb84  1  -0.00681827  0.66299242  0.66597507  1
  Sb  Sb85  1  0.17008180  0.84113463  0.67170885  1
  Sb  Sb86  1  0.83284918  0.83208024  -0.00195813  1
  Sb  Sb87  1  0.33479631  0.82969145  0.16152186  1
  Sb  Sb88  1  0.00188791  0.00469249  0.33376864  1
  Sb  Sb89  1  0.83557824  0.17070580  -0.00928603  1
  Sb  Sb90  1  0.16737571  0.66810085  0.50098153  1
  Sb  Sb91  1  0.66490540  0.00328255  -0.00531121  1
  Sb  Sb92  1  0.33422646  0.83226262  0.50351853  1
  Sb  Sb93  1  0.00326660  0.66095719  0.33642510  1
  Sb  Sb94  1  0.83229947  0.49680357  -0.00341319  1
  Sb  Sb95  1  0.66084218  0.65912417  0.33504170  1
  Sb  Sb96  1  0.34005573  0.66179078  0.00189465  1
  Sb  Sb97  1  0.82697986  0.66010335  0.16795011  1
  Sb  Sb98  1  0.50323802  0.33300124  0.16928262  1
  Sb  Sb99  1  -0.00414060  0.66966448  -0.00098479  1
  Sb  Sb100  1  0.33704873  0.49721593  0.83167384  1
  Sb  Sb101  1  0.66534062  0.83269948  0.50127191  1
  Sb  Sb102  1  0.17086600  0.82982954  0.33159355  1
  Sb  Sb103  1  -0.00036594  0.33045873  -0.00359055  1
  Sb  Sb104  1  0.50541648  0.67200823  0.83179642  1
  Sb  Sb105  1  0.16219245  0.66782447  0.83431586  1
  Sb  Sb106  1  0.17195216  0.66538916  0.16559016  1
  Sb  Sb107  1  0.17039844  0.17362741  0.33495523  1
  Te  Te108  1  0.16568771  0.16472546  0.16172521  1
  Te  Te109  1  0.16368389  0.16209203  0.50047644  1
  Te  Te110  1  0.16791924  0.16557656  0.83322676  1
  Te  Te111  1  0.17236947  0.50040533  0.16586848  1
  Te  Te112  1  0.16636942  0.50030168  0.49848138  1
  Te  Te113  1  0.16695200  0.49919549  0.83712426  1
  Te  Te114  1  0.16182801  0.83324631  0.16183372  1
  Te  Te115  1  0.16387042  0.83729952  0.49984274  1
  Te  Te116  1  0.16546279  0.83397567  0.83589657  1
  Te  Te117  1  0.50327302  0.16426350  0.16408716  1
  Te  Te118  1  0.49863139  0.16704397  0.50162454  1
  Te  Te119  1  0.50430279  0.16203819  0.83016986  1
  Te  Te120  1  0.49540679  0.50261925  0.16097382  1
  Te  Te121  1  0.49767478  0.49872959  0.50069086  1
  Te  Te122  1  0.50529411  0.50119834  0.83815753  1
  Te  Te123  1  0.50025439  0.83163621  0.16432276  1
  Te  Te124  1  0.49890787  0.83367178  0.50088600  1
  Te  Te125  1  0.49854246  0.83731514  0.83244649  1
  Te  Te126  1  0.82678173  0.17231253  0.16928844  1
  Te  Te127  1  0.83983292  0.17129991  0.50583686  1
  Te  Te128  1  0.82670962  0.17137035  0.82795014  1
  Te  Te129  1  0.83505119  0.49573697  0.16757930  1
  Te  Te130  1  0.83251098  0.49656920  0.50235378  1
  Te  Te131  1  0.83063671  0.49743387  0.83053699  1
  Te  Te132  1  0.83809577  0.83354025  0.16766003  1
  Te  Te133  1  0.83935309  0.83439548  0.49863986  1
  Te  Te134  1  0.84008076  0.83297059  0.83358739  1
  Te  Te135  1  0.16625544  -0.00270851  -0.00260425  1
  Te  Te136  1  0.16887075  0.00032098  0.33668759  1
  Te  Te137  1  0.16578927  0.00504797  0.66865496  1
  Te  Te138  1  0.16599746  0.33276538  -0.00353002  1
  Te  Te139  1  0.17384450  0.33740463  0.33190263  1
  Te  Te140  1  0.16853458  0.32678827  0.67401995  1
  Te  Te141  1  0.16629400  0.66933973  0.00010570  1
  Te  Te142  1  0.17473727  0.66050526  0.33333995  1
  Te  Te143  1  0.16741367  0.66649440  0.66696209  1
  Te  Te144  1  0.49941071  -0.00344353  0.00222905  1
  Te  Te145  1  0.50005543  -0.00050776  0.33012810  1
  Te  Te146  1  0.50111539  0.00287326  0.66835667  1
  Te  Te147  1  0.50075932  0.33510856  -0.00011351  1
  Te  Te148  1  0.49960769  0.33125219  0.33548397  1
  Te  Te149  1  0.50408248  0.32970398  0.66082974  1
  Te  Te150  1  0.50357683  0.66748638  -0.00126866  1
  Te  Te151  1  0.49873087  0.66610924  0.33580920  1
  Te  Te152  1  0.50657031  0.66319533  0.66135936  1
  Te  Te153  1  0.84045281  0.00065911  0.00029042  1
  Te  Te154  1  0.83124608  -0.00146608  0.33339769  1
  Te  Te155  1  0.82134772  0.00328785  0.66584840  1
  Te  Te156  1  0.82822913  0.33374465  0.00593674  1
  Te  Te157  1  0.83164626  0.33539156  0.33773746  1
  Te  Te158  1  0.83172711  0.33150652  0.66524180  1
  Te  Te159  1  0.82432342  0.66501679  -0.00118407  1
  Te  Te160  1  0.83188300  0.65736484  0.33821129  1
  Te  Te161  1  0.82842336  0.66876334  0.66503808  1
  Te  Te162  1  0.00381927  0.16246164  -0.00333962  1
  Te  Te163  1  0.00035936  0.17337265  0.33318013  1
  Te  Te164  1  0.00029669  0.16718333  0.66875069  1
  Te  Te165  1  0.00825772  0.50106068  0.00162728  1
  Te  Te166  1  0.00138238  0.49558929  0.33678644  1
  Te  Te167  1  -0.00548755  0.49451116  0.66127374  1
  Te  Te168  1  0.00028777  0.83506781  -0.00427191  1
  Te  Te169  1  0.00097617  0.83356044  0.33761507  1
  Te  Te170  1  0.00090112  0.83360283  0.66769802  1
  Te  Te171  1  0.32929322  0.17259616  -0.00459673  1
  Te  Te172  1  0.33962001  0.17253555  0.33166836  1
  Te  Te173  1  0.33619872  0.16405299  0.67028584  1
  Te  Te174  1  0.33422617  0.49630740  -0.00352283  1
  Te  Te175  1  0.33573393  0.49711983  0.33422964  1
  Te  Te176  1  0.33252487  0.50100691  0.66158763  1
  Te  Te177  1  0.33437757  0.83167562  -0.00400572  1
  Te  Te178  1  0.33818243  0.83244087  0.33158007  1
  Te  Te179  1  0.33854298  0.83822151  0.67163531  1
  Te  Te180  1  0.66747151  0.17028947  -0.00285968  1
  Te  Te181  1  0.66083132  0.17325108  0.33062077  1
  Te  Te182  1  0.66494670  0.17219161  0.66725613  1
  Te  Te183  1  0.66545787  0.49768219  -0.00399576  1
  Te  Te184  1  0.67028628  0.49303038  0.32980127  1
  Te  Te185  1  0.67097424  0.49808404  0.67180143  1
  Te  Te186  1  0.66071248  0.83425092  -0.00011875  1
  Te  Te187  1  0.65955550  0.83338749  0.33259382  1
  Te  Te188  1  0.66101281  0.82474882  0.66621104  1
  Te  Te189  1  0.00004502  -0.00286486  0.16409925  1
  Te  Te190  1  0.00150435  -0.00121300  0.49981652  1
  Te  Te191  1  0.00075959  0.00346669  0.83352867  1
  Te  Te192  1  -0.00571399  0.33380986  0.16864053  1
  Te  Te193  1  0.00283583  0.33282199  0.50135913  1
  Te  Te194  1  -0.00249195  0.32946011  0.83180003  1
  Te  Te195  1  -0.00272128  0.67384185  0.16784435  1
  Te  Te196  1  -0.00352509  0.66851132  0.50014242  1
  Te  Te197  1  -0.00914778  0.66637010  0.83321361  1
  Te  Te198  1  0.33968373  0.00036796  0.16762318  1
  Te  Te199  1  0.33435846  0.00065102  0.50614062  1
  Te  Te200  1  0.33253122  0.00159985  0.83223280  1
  Te  Te201  1  0.33335249  0.33735063  0.16425079  1
  Te  Te202  1  0.33406437  0.33652691  0.49855910  1
  Te  Te203  1  0.33302696  0.33042567  0.83606294  1
  Te  Te204  1  0.33967478  0.66214562  0.17052232  1
  Te  Te205  1  0.33700542  0.66356755  0.49622176  1
  Te  Te206  1  0.33247914  0.67106359  0.83188668  1
  Te  Te207  1  0.66213597  0.00660299  0.16633484  1
  Te  Te208  1  0.65983974  0.00019960  0.50599075  1
  Te  Te209  1  0.66489244  0.00371166  0.82999489  1
  Te  Te210  1  0.66830525  0.33094856  0.16465196  1
  Te  Te211  1  0.66613542  0.33278495  0.49808153  1
  Te  Te212  1  0.66521638  0.33239043  0.83239838  1
  Te  Te213  1  0.66083618  0.66749240  0.16429313  1
  Te  Te214  1  0.66633828  0.66585201  0.50214846  1
  Te  Te215  1  0.67042139  0.66937742  0.83307814  1
