# generated using pymatgen
data_AgSbTe2
_symmetry_space_group_name_H-M   'P 1'
_cell_length_a   18.36348903
_cell_length_b   18.35539672
_cell_length_c   18.37734005
_cell_angle_alpha   89.99940818
_cell_angle_beta   89.99535885
_cell_angle_gamma   90.00537859
_symmetry_Int_Tables_number   1
_chemical_formula_structural   AgSbTe2
_chemical_formula_sum   'Ag54 Sb54 Te108'
_cell_volume   6194.43390692
_cell_formula_units_Z   54
loop_
 _symmetry_equiv_pos_site_id
 _symmetry_equiv_pos_as_xyz
  1  'x, y, z'
loop_
 _atom_site_type_symbol
 _atom_site_label
 _atom_site_symmetry_multiplicity
 _atom_site_fract_x
 _atom_site_fract_y
 _atom_site_fract_z
 _atom_site_occupancy
  Ag  Ag0  1  0.66857170  0.82217654  0.51052182  1
  Ag  Ag1  1  0.50138182  0.50753677  0.66351070  1
  Ag  Ag2  1  0.49668375  -0.01044270  0.83200449  1
  Ag  Ag3  1  0.16955312  0.16803698  0.34126295  1
  Ag  Ag4  1  -0.00420615  0.83485725  0.16350516  1
  Ag  Ag5  1  0.50067881  0.50201899  0.34909506  1
  Ag  Ag6  1  0.33572379  0.16390256  0.83431341  1
  Ag  Ag7  1  0.66248674  0.49979214  0.17290992  1
  Ag  Ag8  1  0.50106809  0.34589446  0.50531850  1
  Ag  Ag9  1  0.82144657  0.33829569  0.50338943  1
  Ag  Ag10  1  0.17454379  0.00226984  0.83324736  1
  Ag  Ag11  1  0.49743655  0.16829437  0.66911962  1
  Ag  Ag12  1  0.00758178  0.15679807  0.82794826  1
  Ag  Ag13  1  -0.00273652  0.00437279  0.67213709  1
  Ag  Ag14  1  0.17988271  0.33184240  0.50316493  1
  Ag  Ag15  1  0.65808258  0.66572332  0.66596580  1
  Ag  Ag16  1  0.17001306  0.16811810  0.66823811  1
  Ag  Ag17  1  0.34079084  0.33646978  0.34711444  1
  Ag  Ag18  1  0.65854669  0.50863379  0.82085397  1
  Ag  Ag19  1  0.34056315  0.49824443  0.82580571  1
  Ag  Ag20  1  0.66275327  0.83058924  0.82711279  1
  Ag  Ag21  1  0.33675537  0.32628631  -0.00500310  1
  Ag  Ag22  1  0.83499484  -0.00503436  0.82949377  1
  Ag  Ag23  1  0.50647639  0.82029685  0.67437727  1
  Ag  Ag24  1  0.83397564  0.16516889  0.66813295  1
  Ag  Ag25  1  0.49593144  -0.00336019  0.15555544  1
  Ag  Ag26  1  0.50167755  0.66920859  0.16728588  1
  Ag  Ag27  1  0.33535547  0.16658782  0.15631639  1
  Ag  Ag28  1  0.34941134  0.84349955  0.83259142  1
  Ag  Ag29  1  0.50176314  0.67735618  0.82086484  1
  Ag  Ag30  1  0.65849930  0.33992431  0.66533492  1
  Ag  Ag31  1  -0.01043017  0.83159364  0.50760002  1
  Ag  Ag32  1  0.50274409  0.65897621  0.51065200  1
  Ag  Ag33  1  0.00136564  0.33028101  -0.00960673  1
  Ag  Ag34  1  0.00068496  0.67163264  0.33612165  1
  Ag  Ag35  1  -0.00634749  0.83988332  0.82938376  1
  Ag  Ag36  1  0.82410180  0.83649549  0.66700068  1
  Ag  Ag37  1  0.65809833  0.50270575  0.50247327  1
  Ag  Ag38  1  0.49946563  -0.00602967  0.51613375  1
  Ag  Ag39  1  -0.00208615  0.32498285  0.66649973  1
  Ag  Ag40  1  0.34187999  0.33462798  0.66531899  1
  Ag  Ag41  1  0.33959599  0.66084709  0.34230533  1
  Ag  Ag42  1  0.49504240  0.16050555  -0.01146398  1
  Ag  Ag43  1  0.34522047  0.65758922  0.66557884  1
  Ag  Ag44  1  0.66213872  0.66867390  -0.01614166  1
  Ag  Ag45  1  0.83391087  0.83095148  0.34830732  1
  Ag  Ag46  1  0.82514165  0.83431862  -0.01577257  1
  Ag  Ag47  1  0.83149833  0.33169005  0.17158566  1
  Ag  Ag48  1  0.33820409  0.00559800  -0.00697342  1
  Ag  Ag49  1  0.65908381  0.33741163  0.34929230  1
  Ag  Ag50  1  0.17598134  0.00166843  0.15920529  1
  Ag  Ag51  1  0.50334380  0.83508721  -0.01356052  1
  Ag  Ag52  1  0.34507530  0.49635481  0.50696458  1
  Ag  Ag53  1  0.81922426  0.67384178  0.49999158  1
  Sb  Sb54  1  0.50166606  0.33435963  0.17036368  1
  Sb  Sb55  1  0.33570576  0.00210226  0.32994317  1
  Sb  Sb56  1  0.82735866  0.66639267  0.17262668  1
  Sb  Sb57  1  0.65946776  0.17141023  0.16581123  1
  Sb  Sb58  1  -0.01056032  0.66977058  0.00112361  1
  Sb  Sb59  1  0.16645594  0.32603828  0.17071561  1
  Sb  Sb60  1  0.17158244  0.66278210  0.50120333  1
  Sb  Sb61  1  0.82845396  0.16333963  -0.00656889  1
  Sb  Sb62  1  -0.00611336  0.50237103  0.16808509  1
  Sb  Sb63  1  0.82398846  0.49958438  0.66548808  1
  Sb  Sb64  1  -0.00000800  -0.00415750  0.33820454  1
  Sb  Sb65  1  0.00040974  0.16476767  0.50935387  1
  Sb  Sb66  1  -0.00233575  0.50220490  0.50203943  1
  Sb  Sb67  1  0.49500596  0.17217556  0.33731373  1
  Sb  Sb68  1  0.83195234  -0.00092119  0.15990934  1
  Sb  Sb69  1  0.83795946  0.16589902  0.33949949  1
  Sb  Sb70  1  0.00426638  0.00181871  -0.00831409  1
  Sb  Sb71  1  0.33518884  0.83757226  0.16262338  1
  Sb  Sb72  1  0.00478965  0.16235095  0.15970879  1
  Sb  Sb73  1  0.16367656  0.83790734  0.33426619  1
  Sb  Sb74  1  0.16824611  0.83906712  0.66812561  1
  Sb  Sb75  1  0.16918625  0.83536350  -0.00222318  1
  Sb  Sb76  1  0.33563878  0.17343143  0.50600464  1
  Sb  Sb77  1  0.66249155  0.66200020  0.34076226  1
  Sb  Sb78  1  0.00029716  0.33698964  0.33922331  1
  Sb  Sb79  1  0.17247770  0.67316690  0.16891858  1
  Sb  Sb80  1  0.66489438  -0.00405089  0.66746168  1
  Sb  Sb81  1  0.34081227  0.49575784  0.16671243  1
  Sb  Sb82  1  0.83419768  0.32869365  0.82748216  1
  Sb  Sb83  1  0.34346036  0.66703350  -0.00409602  1
  Sb  Sb84  1  0.50098676  0.50079629  -0.00733146  1
  Sb  Sb85  1  0.66349418  0.33883477  -0.00574487  1
  Sb  Sb86  1  0.34039279  0.82717148  0.50792810  1
  Sb  Sb87  1  0.65831539  -0.00701443  -0.00257659  1
  Sb  Sb88  1  0.17602663  0.49591842  0.33492517  1
  Sb  Sb89  1  0.66152669  0.16494690  0.82923628  1
  Sb  Sb90  1  0.50407521  0.82786481  0.33840483  1
  Sb  Sb91  1  0.82903250  -0.00303775  0.50788255  1
  Sb  Sb92  1  0.66750093  0.82824020  0.16623892  1
  Sb  Sb93  1  0.66355032  0.17132975  0.50429303  1
  Sb  Sb94  1  0.33546200  0.00373073  0.67261903  1
  Sb  Sb95  1  -0.00001884  0.50028587  0.83024971  1
  Sb  Sb96  1  0.82591051  0.50365588  0.33676935  1
  Sb  Sb97  1  0.17818009  0.49153968  0.66550776  1
  Sb  Sb98  1  -0.00264796  0.67081311  0.66407057  1
  Sb  Sb99  1  0.17015922  0.00385865  0.50449369  1
  Sb  Sb100  1  0.66403290  0.00304932  0.33580929  1
  Sb  Sb101  1  0.17008507  0.32713511  0.82631467  1
  Sb  Sb102  1  0.17717373  0.67456007  0.83107674  1
  Sb  Sb103  1  0.17015764  0.49665212  -0.00196853  1
  Sb  Sb104  1  0.82979220  0.50310169  -0.00024129  1
  Sb  Sb105  1  0.17446766  0.16582443  -0.00575331  1
  Sb  Sb106  1  0.82354849  0.67460701  0.82476467  1
  Sb  Sb107  1  0.49745613  0.33437439  0.82393958  1
  Te  Te108  1  0.17159958  0.16034051  0.16574415  1
  Te  Te109  1  0.16659682  0.17043640  0.50320024  1
  Te  Te110  1  0.16692315  0.16214467  0.82934399  1
  Te  Te111  1  0.16488342  0.50077489  0.16638072  1
  Te  Te112  1  0.16893379  0.49274180  0.49912653  1
  Te  Te113  1  0.17413808  0.50237572  0.83291815  1
  Te  Te114  1  0.16175952  0.84109556  0.16613938  1
  Te  Te115  1  0.16206854  0.83437999  0.50015821  1
  Te  Te116  1  0.15629968  0.84073853  0.83361582  1
  Te  Te117  1  0.49517333  0.16339295  0.16958837  1
  Te  Te118  1  0.50002052  0.15467990  0.50389204  1
  Te  Te119  1  0.49796902  0.16812409  0.83096745  1
  Te  Te120  1  0.50417163  0.50253769  0.16204657  1
  Te  Te121  1  0.50053481  0.50184887  0.50386066  1
  Te  Te122  1  0.50073950  0.50073717  0.82910869  1
  Te  Te123  1  0.50041361  0.83439632  0.17064079  1
  Te  Te124  1  0.50366928  0.83390142  0.50352904  1
  Te  Te125  1  0.50339593  0.83277632  0.83086513  1
  Te  Te126  1  0.83281932  0.16891893  0.16606240  1
  Te  Te127  1  0.83278738  0.16917854  0.50541420  1
  Te  Te128  1  0.83283159  0.16084364  0.82881456  1
  Te  Te129  1  0.82625279  0.49430914  0.16806122  1
  Te  Te130  1  0.83017339  0.49907801  0.50017908  1
  Te  Te131  1  0.82916976  0.50269294  0.83374895  1
  Te  Te132  1  0.83579390  0.83442400  0.16670553  1
  Te  Te133  1  0.83036302  0.83410337  0.50586822  1
  Te  Te134  1  0.83266989  0.83388794  0.82799038  1
  Te  Te135  1  0.17275376  -0.00001997  -0.00174937  1
  Te  Te136  1  0.16764716  0.00650800  0.33290522  1
  Te  Te137  1  0.16258765  0.00622809  0.66967769  1
  Te  Te138  1  0.16346182  0.33244736  0.00210471  1
  Te  Te139  1  0.16954760  0.32893185  0.33847197  1
  Te  Te140  1  0.16289951  0.32740358  0.66238568  1
  Te  Te141  1  0.16453148  0.66546871  0.00078985  1
  Te  Te142  1  0.16987310  0.66672699  0.33336756  1
  Te  Te143  1  0.17112510  0.66546185  0.66684219  1
  Te  Te144  1  0.49769954  -0.00192047  -0.00407609  1
  Te  Te145  1  0.50004955  0.00045043  0.32713069  1
  Te  Te146  1  0.50002295  0.00860689  0.67290429  1
  Te  Te147  1  0.49678784  0.32836702  0.00188590  1
  Te  Te148  1  0.49940261  0.33724452  0.33668061  1
  Te  Te149  1  0.49873871  0.32723719  0.66364718  1
  Te  Te150  1  0.50407654  0.66930288  0.00588266  1
  Te  Te151  1  0.49739146  0.66332632  0.32886558  1
  Te  Te152  1  0.50082160  0.66582476  0.66574208  1
  Te  Te153  1  0.83274599  -0.00526077  -0.00637435  1
  Te  Te154  1  0.83256240  -0.00373667  0.33184969  1
  Te  Te155  1  0.83445171  -0.00049037  0.66977134  1
  Te  Te156  1  0.83440044  0.33219417  -0.00055926  1
  Te  Te157  1  0.83227822  0.33295121  0.33667921  1
  Te  Te158  1  0.83762875  0.33383460  0.66394812  1
  Te  Te159  1  0.82478056  0.67346650  0.00344988  1
  Te  Te160  1  0.83716922  0.67056939  0.33914603  1
  Te  Te161  1  0.83146105  0.67041511  0.65881590  1
  Te  Te162  1  -0.00291411  0.17070133  -0.00798625  1
  Te  Te163  1  0.00635187  0.16646028  0.33137029  1
  Te  Te164  1  -0.00357332  0.16539675  0.66911011  1
  Te  Te165  1  -0.00110728  0.49343977  -0.00055866  1
  Te  Te166  1  0.00179482  0.50770616  0.33352404  1
  Te  Te167  1  0.00256404  0.49681713  0.66765560  1
  Te  Te168  1  -0.00312776  0.83386050  -0.00132685  1
  Te  Te169  1  -0.00312744  0.83175584  0.33465336  1
  Te  Te170  1  0.00168390  0.83390301  0.66760580  1
  Te  Te171  1  0.33584625  0.16619885  -0.00331320  1
  Te  Te172  1  0.32948973  0.17101692  0.33499772  1
  Te  Te173  1  0.33257818  0.16941786  0.67054627  1
  Te  Te174  1  0.33359495  0.49427194  -0.00420301  1
  Te  Te175  1  0.33966202  0.49768533  0.33280607  1
  Te  Te176  1  0.33804912  0.49680529  0.66678172  1
  Te  Te177  1  0.33821048  0.83477682  -0.00547033  1
  Te  Te178  1  0.33256518  0.82775004  0.33398815  1
  Te  Te179  1  0.33552650  0.83189434  0.67310541  1
  Te  Te180  1  0.65853160  0.16782605  -0.00136058  1
  Te  Te181  1  0.66883261  0.17643509  0.33318536  1
  Te  Te182  1  0.66958717  0.17440675  0.66768793  1
  Te  Te183  1  0.66651015  0.50714109  0.00014882  1
  Te  Te184  1  0.66165326  0.49527692  0.33564904  1
  Te  Te185  1  0.66397033  0.50190851  0.66357976  1
  Te  Te186  1  0.66430270  0.82876409  0.00072224  1
  Te  Te187  1  0.67296211  0.83518886  0.33429829  1
  Te  Te188  1  0.66432745  0.83403015  0.66687157  1
  Te  Te189  1  0.00054161  -0.00432176  0.16614002  1
  Te  Te190  1  0.00060313  -0.00598348  0.50599756  1
  Te  Te191  1  -0.00172904  -0.00036514  0.83174468  1
  Te  Te192  1  -0.00420619  0.33327415  0.16876263  1
  Te  Te193  1  -0.00483155  0.33401958  0.50411214  1
  Te  Te194  1  0.00142040  0.33342836  0.83057232  1
  Te  Te195  1  -0.00042701  0.67108646  0.17009942  1
  Te  Te196  1  0.00391489  0.67020203  0.49714155  1
  Te  Te197  1  0.00221752  0.66886735  0.83410925  1
  Te  Te198  1  0.33483651  0.00296869  0.16409816  1
  Te  Te199  1  0.33782768  -0.00334856  0.49895237  1
  Te  Te200  1  0.33413140  0.00205120  0.83319393  1
  Te  Te201  1  0.33280105  0.32835701  0.16023454  1
  Te  Te202  1  0.33831956  0.33465437  0.50381265  1
  Te  Te203  1  0.33150388  0.33154227  0.83277270  1
  Te  Te204  1  0.33760067  0.66611333  0.16710408  1
  Te  Te205  1  0.33718010  0.66234254  0.50193248  1
  Te  Te206  1  0.33997627  0.66406036  0.83132724  1
  Te  Te207  1  0.66071875  0.00214262  0.16717171  1
  Te  Te208  1  0.66104198  -0.00525673  0.49923957  1
  Te  Te209  1  0.66433430  -0.00436623  0.83335328  1
  Te  Te210  1  0.66999425  0.33804923  0.16158026  1
  Te  Te211  1  0.66277755  0.33375842  0.50541895  1
  Te  Te212  1  0.66856338  0.33913882  0.82683532  1
  Te  Te213  1  0.66230529  0.66094970  0.17276006  1
  Te  Te214  1  0.66338909  0.66454805  0.50099264  1
  Te  Te215  1  0.66350521  0.66834754  0.82725556  1
