# generated using pymatgen
data_AgSbTe2
_symmetry_space_group_name_H-M   'P 1'
_cell_length_a   18.32149509
_cell_length_b   18.32498888
_cell_length_c   18.32128651
_cell_angle_alpha   89.99638812
_cell_angle_beta   90.00084304
_cell_angle_gamma   89.99912175
_symmetry_Int_Tables_number   1
_chemical_formula_structural   AgSbTe2
_chemical_formula_sum   'Ag54 Sb54 Te108'
_cell_volume   6151.21059310
_cell_formula_units_Z   54
loop_
 _symmetry_equiv_pos_site_id
 _symmetry_equiv_pos_as_xyz
  1  'x, y, z'
loop_
 _atom_site_type_symbol
 _atom_site_label
 _atom_site_symmetry_multiplicity
 _atom_site_fract_x
 _atom_site_fract_y
 _atom_site_fract_z
 _atom_site_occupancy
  Ag  Ag0  1  0.33099423  0.65568276  0.66209660  1
  Ag  Ag1  1  0.32537128  0.33685326  -0.00508604  1
  Ag  Ag2  1  0.16581984  0.33493069  0.50192904  1
  Ag  Ag3  1  0.16269032  0.49640878  0.00108873  1
  Ag  Ag4  1  0.00349265  0.00520983  0.00307005  1
  Ag  Ag5  1  0.49655011  0.49922321  -0.00050806  1
  Ag  Ag6  1  0.83890638  -0.00133935  0.16789219  1
  Ag  Ag7  1  0.83414050  0.83219545  0.34146102  1
  Ag  Ag8  1  0.32872562  0.33758197  0.67018042  1
  Ag  Ag9  1  0.17421223  0.83472899  0.33295891  1
  Ag  Ag10  1  0.65859889  0.00260631  0.66574220  1
  Ag  Ag11  1  0.00434432  0.50018913  0.83123946  1
  Ag  Ag12  1  0.33884810  0.00420436  0.66306180  1
  Ag  Ag13  1  0.66634602  0.49796080  0.83401374  1
  Ag  Ag14  1  0.16716736  0.16924267  0.32582290  1
  Ag  Ag15  1  0.00223357  0.65806229  -0.00746000  1
  Ag  Ag16  1  0.49377756  0.33598759  0.16852737  1
  Ag  Ag17  1  0.33344034  0.66958795  0.34352748  1
  Ag  Ag18  1  0.33120644  0.50398182  0.50703976  1
  Ag  Ag19  1  0.33186834  0.49614441  0.82679699  1
  Ag  Ag20  1  0.66637537  0.49901885  0.16081486  1
  Ag  Ag21  1  0.00050435  0.81797341  0.83200811  1
  Ag  Ag22  1  0.00411303  0.33705649  0.32562585  1
  Ag  Ag23  1  0.00724310  0.33990650  0.66974985  1
  Ag  Ag24  1  0.33226188  0.17719450  0.82689753  1
  Ag  Ag25  1  0.33898624  0.82341966  0.49979224  1
  Ag  Ag26  1  0.33228306  -0.00692908  0.33742647  1
  Ag  Ag27  1  0.16553027  0.00929544  0.16770108  1
  Ag  Ag28  1  0.49502818  0.82700220  0.34178574  1
  Ag  Ag29  1  0.66100739  0.17551086  0.82770931  1
  Ag  Ag30  1  0.49684906  0.66725203  0.50120958  1
  Ag  Ag31  1  0.49992565  0.83099905  0.65977417  1
  Ag  Ag32  1  0.49678063  0.00497481  0.16871388  1
  Ag  Ag33  1  0.84378360  0.50342177  0.66796359  1
  Ag  Ag34  1  0.66441367  0.16472056  0.50845602  1
  Ag  Ag35  1  0.49300558  0.16729499  0.66696720  1
  Ag  Ag36  1  0.66753139  0.33445978  0.33361650  1
  Ag  Ag37  1  0.49214994  0.50101077  0.66557720  1
  Ag  Ag38  1  0.00639846  0.17535303  0.16372059  1
  Ag  Ag39  1  0.83588839  0.33696088  0.83123808  1
  Ag  Ag40  1  0.16498904  0.33262206  0.16427972  1
  Ag  Ag41  1  0.00295295  0.49552040  0.16085652  1
  Ag  Ag42  1  0.67091807  0.65978761  -0.00050707  1
  Ag  Ag43  1  0.65690543  0.83282235  0.50169522  1
  Ag  Ag44  1  0.17498168  0.16961415  0.66864939  1
  Ag  Ag45  1  0.83088319  0.82602197  0.66147288  1
  Ag  Ag46  1  0.00678007  0.65763140  0.67101506  1
  Ag  Ag47  1  0.82872230  0.66718265  0.50256451  1
  Ag  Ag48  1  0.00765305  0.49814679  0.51327635  1
  Ag  Ag49  1  0.00779395  0.34065073  0.00369216  1
  Ag  Ag50  1  0.16546731  0.17954973  0.00482793  1
  Ag  Ag51  1  0.49845631  0.50249488  0.33383934  1
  Ag  Ag52  1  0.16253958  0.66443991  0.83438796  1
  Ag  Ag53  1  0.16509421  0.65688633  0.16349099  1
  Sb  Sb54  1  0.32630365  0.16792577  0.16555991  1
  Sb  Sb55  1  0.83900528  0.33335674  0.16384081  1
  Sb  Sb56  1  0.00586079  0.00269235  0.32621525  1
  Sb  Sb57  1  0.66617148  0.82902059  0.17316343  1
  Sb  Sb58  1  0.16775043  0.49532077  0.67325746  1
  Sb  Sb59  1  0.49529491  0.33962777  0.49780297  1
  Sb  Sb60  1  0.49447616  0.66172829  0.17121641  1
  Sb  Sb61  1  0.66573032  0.66663722  0.66803739  1
  Sb  Sb62  1  0.83612252  0.83138256  -0.00245696  1
  Sb  Sb63  1  0.83982026  0.16752997  -0.00018389  1
  Sb  Sb64  1  0.33226670  0.83411303  0.17657280  1
  Sb  Sb65  1  0.49397195  0.17393884  -0.00286512  1
  Sb  Sb66  1  0.16511754  0.33918923  0.83610932  1
  Sb  Sb67  1  0.66896611  0.17162669  0.16505274  1
  Sb  Sb68  1  0.32913570  0.82878223  0.82295059  1
  Sb  Sb69  1  0.33634106  0.16961747  0.50649241  1
  Sb  Sb70  1  0.83715862  0.33921096  0.50402786  1
  Sb  Sb71  1  0.66146311  0.00241830  0.33642229  1
  Sb  Sb72  1  0.49568453  0.66199876  0.82685262  1
  Sb  Sb73  1  0.83156157  -0.00709200  0.49719773  1
  Sb  Sb74  1  0.00495307  0.17416139  0.83703877  1
  Sb  Sb75  1  0.33224755  0.49863041  0.16598280  1
  Sb  Sb76  1  0.49820360  -0.00643464  0.49993973  1
  Sb  Sb77  1  0.66391830  0.50106783  0.50264885  1
  Sb  Sb78  1  0.49996611  0.82665515  0.00138689  1
  Sb  Sb79  1  0.00032420  0.17553329  0.49753663  1
  Sb  Sb80  1  0.17028420  0.49851222  0.32877433  1
  Sb  Sb81  1  0.66383326  0.33177281  0.66476206  1
  Sb  Sb82  1  0.83117335  0.50314568  0.33816930  1
  Sb  Sb83  1  0.16948543  0.00571660  0.49483938  1
  Sb  Sb84  1  0.83747456  0.16436757  0.33292271  1
  Sb  Sb85  1  0.83837494  0.50004771  -0.00654012  1
  Sb  Sb86  1  0.67131072  0.82862971  0.82477295  1
  Sb  Sb87  1  0.83796860  0.66760932  0.17069681  1
  Sb  Sb88  1  0.32936008  0.33467660  0.33475928  1
  Sb  Sb89  1  0.00127401  0.82481258  0.50336262  1
  Sb  Sb90  1  0.00123496  0.83219446  0.16473626  1
  Sb  Sb91  1  0.83960046  0.66071570  0.82608513  1
  Sb  Sb92  1  0.49527174  0.16711446  0.33724978  1
  Sb  Sb93  1  0.66861624  -0.00213974  -0.00252145  1
  Sb  Sb94  1  0.00604506  0.66180430  0.33473179  1
  Sb  Sb95  1  0.32871531  0.65786794  -0.00370322  1
  Sb  Sb96  1  0.49944773  0.33691083  0.83454885  1
  Sb  Sb97  1  0.16653824  -0.00204302  0.83703711  1
  Sb  Sb98  1  0.83337157  0.16989804  0.66684655  1
  Sb  Sb99  1  0.16925246  0.83544726  0.66107690  1
  Sb  Sb100  1  0.49897823  0.00090838  0.83255544  1
  Sb  Sb101  1  0.16580587  0.82974514  0.00552871  1
  Sb  Sb102  1  0.66172076  0.66321788  0.33265965  1
  Sb  Sb103  1  0.17110226  0.65993448  0.50050802  1
  Sb  Sb104  1  0.00128811  -0.00002291  0.67189239  1
  Sb  Sb105  1  0.66611781  0.33959015  0.00148813  1
  Sb  Sb106  1  0.32853497  0.00638234  0.00034851  1
  Sb  Sb107  1  0.83427475  0.00348511  0.83437100  1
  Te  Te108  1  0.16536890  0.16936406  0.16497225  1
  Te  Te109  1  0.16646104  0.17365374  0.50260496  1
  Te  Te110  1  0.17126801  0.16405644  0.83192536  1
  Te  Te111  1  0.16484047  0.49709324  0.16267296  1
  Te  Te112  1  0.16689398  0.49461283  0.49602104  1
  Te  Te113  1  0.16671412  0.50436596  0.83914716  1
  Te  Te114  1  0.16640719  0.83547316  0.17319693  1
  Te  Te115  1  0.16899061  0.83466753  0.49295843  1
  Te  Te116  1  0.16148131  0.82745970  0.83293185  1
  Te  Te117  1  0.50016895  0.16884256  0.16688817  1
  Te  Te118  1  0.50505896  0.16888185  0.50535132  1
  Te  Te119  1  0.49911665  0.16766971  0.82925534  1
  Te  Te120  1  0.50141332  0.49787273  0.16847415  1
  Te  Te121  1  0.49720176  0.50463601  0.50138529  1
  Te  Te122  1  0.49889447  0.50056444  0.83185005  1
  Te  Te123  1  0.50082581  0.83630382  0.17106767  1
  Te  Te124  1  0.49877269  0.83119363  0.50133820  1
  Te  Te125  1  0.50093608  0.83203009  0.82648258  1
  Te  Te126  1  0.83932738  0.16019354  0.16724720  1
  Te  Te127  1  0.82544951  0.16577254  0.49948419  1
  Te  Te128  1  0.82768387  0.17216877  0.83283265  1
  Te  Te129  1  0.83127332  0.50110808  0.16883570  1
  Te  Te130  1  0.83431525  0.50603532  0.50606968  1
  Te  Te131  1  0.83298842  0.49727217  0.82761801  1
  Te  Te132  1  0.83283817  0.83707773  0.17105339  1
  Te  Te133  1  0.83555001  0.82769647  0.50140271  1
  Te  Te134  1  0.83920368  0.83473048  0.82672721  1
  Te  Te135  1  0.16349494  -0.00156693  0.00600333  1
  Te  Te136  1  0.17045630  0.00120667  0.32880769  1
  Te  Te137  1  0.17057285  0.00617497  0.66679692  1
  Te  Te138  1  0.16567418  0.33483919  -0.00007471  1
  Te  Te139  1  0.16447538  0.33192405  0.32862870  1
  Te  Te140  1  0.16715637  0.33082941  0.66737013  1
  Te  Te141  1  0.16319831  0.66361669  0.00150252  1
  Te  Te142  1  0.17214878  0.66900983  0.33024286  1
  Te  Te143  1  0.16687385  0.67057618  0.66871466  1
  Te  Te144  1  0.49948978  -0.00142061  0.00760079  1
  Te  Te145  1  0.49496673  -0.00102255  0.32866742  1
  Te  Te146  1  0.49998180  0.00171534  0.66709872  1
  Te  Te147  1  0.49826793  0.33971846  0.00694567  1
  Te  Te148  1  0.49999946  0.33534586  0.32946278  1
  Te  Te149  1  0.49529695  0.33498775  0.66597786  1
  Te  Te150  1  0.50107363  0.65973992  0.00131408  1
  Te  Te151  1  0.49570133  0.66575880  0.33634091  1
  Te  Te152  1  0.49743127  0.66430071  0.66284789  1
  Te  Te153  1  0.83779633  -0.00054988  0.00626308  1
  Te  Te154  1  0.83294312  -0.00531464  0.32878128  1
  Te  Te155  1  0.83154355  -0.00395656  0.66609964  1
  Te  Te156  1  0.84016422  0.33248798  -0.00530729  1
  Te  Te157  1  0.83534249  0.33355572  0.33397822  1
  Te  Te158  1  0.83679019  0.33834849  0.66942218  1
  Te  Te159  1  0.83607546  0.66720210  0.00211036  1
  Te  Te160  1  0.83327879  0.67219279  0.33922847  1
  Te  Te161  1  0.83315752  0.66527779  0.66300172  1
  Te  Te162  1  0.00577579  0.16631687  0.00281314  1
  Te  Te163  1  0.00497759  0.17182306  0.32964718  1
  Te  Te164  1  0.00285118  0.16995863  0.66716360  1
  Te  Te165  1  -0.00004215  0.50020485  -0.00034244  1
  Te  Te166  1  -0.00060893  0.49622292  0.32713948  1
  Te  Te167  1  0.00321294  0.49971662  0.66925617  1
  Te  Te168  1  -0.00001780  0.82878126  -0.00551721  1
  Te  Te169  1  -0.00206578  0.83263676  0.33451063  1
  Te  Te170  1  -0.00160551  0.83325921  0.67055646  1
  Te  Te171  1  0.32775474  0.17302833  -0.00781130  1
  Te  Te172  1  0.32716780  0.16221890  0.33657750  1
  Te  Te173  1  0.33503062  0.16677540  0.66718547  1
  Te  Te174  1  0.33566019  0.49592498  -0.00210046  1
  Te  Te175  1  0.33833790  0.50228154  0.33566644  1
  Te  Te176  1  0.33184825  0.49892633  0.66738640  1
  Te  Te177  1  0.33511458  0.83416016  -0.00514769  1
  Te  Te178  1  0.33478379  0.83254676  0.33775634  1
  Te  Te179  1  0.33692251  0.83647003  0.66090114  1
  Te  Te180  1  0.66464133  0.16633791  -0.00654804  1
  Te  Te181  1  0.66578261  0.17150005  0.33426315  1
  Te  Te182  1  0.66673781  0.16499254  0.66844727  1
  Te  Te183  1  0.66613508  0.50153445  -0.00122278  1
  Te  Te184  1  0.66290765  0.49617938  0.33270187  1
  Te  Te185  1  0.66209108  0.49844730  0.67143536  1
  Te  Te186  1  0.66710608  0.82656061  -0.00119368  1
  Te  Te187  1  0.66441813  0.83347227  0.34019813  1
  Te  Te188  1  0.66579186  0.83457988  0.66286654  1
  Te  Te189  1  0.00306788  -0.00088026  0.16279668  1
  Te  Te190  1  -0.00010812  0.00109726  0.50050149  1
  Te  Te191  1  -0.00107420  0.00200614  0.84176525  1
  Te  Te192  1  0.00034025  0.33407008  0.16519483  1
  Te  Te193  1  0.00368036  0.33878433  0.50298058  1
  Te  Te194  1  -0.00201440  0.33687323  0.83121867  1
  Te  Te195  1  0.00452500  0.66196568  0.16576162  1
  Te  Te196  1  0.00085114  0.65872453  0.50413871  1
  Te  Te197  1  0.00030761  0.66184531  0.83160840  1
  Te  Te198  1  0.33181173  0.00108456  0.16874506  1
  Te  Te199  1  0.33297521  -0.00332575  0.50143193  1
  Te  Te200  1  0.33315675  0.00114808  0.82792538  1
  Te  Te201  1  0.33154020  0.33279068  0.16452679  1
  Te  Te202  1  0.32805365  0.33844648  0.50349678  1
  Te  Te203  1  0.33393051  0.33557093  0.83244206  1
  Te  Te204  1  0.32590500  0.66702475  0.16738935  1
  Te  Te205  1  0.33247469  0.66472268  0.50200710  1
  Te  Te206  1  0.32739911  0.66121354  0.82764015  1
  Te  Te207  1  0.66493280  0.00111192  0.16602463  1
  Te  Te208  1  0.66621307  -0.00084717  0.50448644  1
  Te  Te209  1  0.66713328  0.00142986  0.82855401  1
  Te  Te210  1  0.66788152  0.33727308  0.16970830  1
  Te  Te211  1  0.66744488  0.33143711  0.49477486  1
  Te  Te212  1  0.66975523  0.33547573  0.83371469  1
  Te  Te213  1  0.66693519  0.66069089  0.16240379  1
  Te  Te214  1  0.66473059  0.67053766  0.50009995  1
  Te  Te215  1  0.66744460  0.66144658  0.83901157  1
