# generated using pymatgen
data_AgSbTe2
_symmetry_space_group_name_H-M   'P 1'
_cell_length_a   18.33721952
_cell_length_b   18.33225736
_cell_length_c   18.33002260
_cell_angle_alpha   89.99957753
_cell_angle_beta   89.99978432
_cell_angle_gamma   89.99794399
_symmetry_Int_Tables_number   1
_chemical_formula_structural   AgSbTe2
_chemical_formula_sum   'Ag54 Sb54 Te108'
_cell_volume   6161.86855414
_cell_formula_units_Z   54
loop_
 _symmetry_equiv_pos_site_id
 _symmetry_equiv_pos_as_xyz
  1  'x, y, z'
loop_
 _atom_site_type_symbol
 _atom_site_label
 _atom_site_symmetry_multiplicity
 _atom_site_fract_x
 _atom_site_fract_y
 _atom_site_fract_z
 _atom_site_occupancy
  Ag  Ag0  1  0.49789276  -0.00716171  0.83184010  1
  Ag  Ag1  1  0.66417227  0.16374886  0.50629730  1
  Ag  Ag2  1  0.16558252  0.49441802  0.66568119  1
  Ag  Ag3  1  0.49286241  0.16776424  0.33811481  1
  Ag  Ag4  1  0.32350993  0.16097004  0.50081314  1
  Ag  Ag5  1  0.00526047  0.83126687  0.16152149  1
  Ag  Ag6  1  -0.00071138  0.50727172  0.50473531  1
  Ag  Ag7  1  0.32443773  -0.01277868  -0.01093297  1
  Ag  Ag8  1  0.66211588  0.50062725  0.82651980  1
  Ag  Ag9  1  0.83409032  0.51394747  -0.01273241  1
  Ag  Ag10  1  0.83831039  -0.00637044  0.50528471  1
  Ag  Ag11  1  0.66847527  0.16941767  0.82459739  1
  Ag  Ag12  1  0.16692266  0.32707529  0.50668231  1
  Ag  Ag13  1  0.33425045  0.67602486  -0.01233312  1
  Ag  Ag14  1  0.33453071  -0.00623481  0.66982386  1
  Ag  Ag15  1  0.16640464  0.33044296  0.82537930  1
  Ag  Ag16  1  0.32112513  0.83167238  0.14994685  1
  Ag  Ag17  1  0.00219734  0.16572533  0.83064486  1
  Ag  Ag18  1  0.83800239  0.83112330  -0.00630992  1
  Ag  Ag19  1  0.16588321  0.67689219  0.49896296  1
  Ag  Ag20  1  -0.00115059  0.67352318  0.33767695  1
  Ag  Ag21  1  0.17096894  0.83541838  0.00156654  1
  Ag  Ag22  1  0.49942053  0.66807263  0.83358835  1
  Ag  Ag23  1  0.00239970  0.83537406  0.83669280  1
  Ag  Ag24  1  0.33177706  0.67447243  0.67061221  1
  Ag  Ag25  1  0.67053484  0.83123904  0.16702489  1
  Ag  Ag26  1  0.67311602  0.50317673  0.50910695  1
  Ag  Ag27  1  0.16567937  -0.00406391  0.50213934  1
  Ag  Ag28  1  0.48503569  0.83235361  -0.00383653  1
  Ag  Ag29  1  0.16523457  0.15602694  -0.00941330  1
  Ag  Ag30  1  0.49903312  0.50051567  0.67096093  1
  Ag  Ag31  1  0.16409434  0.17046153  0.66535435  1
  Ag  Ag32  1  0.83432658  0.83350220  0.66413847  1
  Ag  Ag33  1  0.83628573  0.16207343  0.66707623  1
  Ag  Ag34  1  0.49575897  0.33814779  0.83223313  1
  Ag  Ag35  1  0.33375364  0.32938830  0.33653794  1
  Ag  Ag36  1  0.00631107  -0.00944899  -0.00456410  1
  Ag  Ag37  1  0.32222853  0.83747107  0.50374917  1
  Ag  Ag38  1  0.66569900  0.00061327  0.66654174  1
  Ag  Ag39  1  0.34013392  0.51062556  0.82907509  1
  Ag  Ag40  1  0.00415970  0.83122374  0.49946884  1
  Ag  Ag41  1  0.16812112  0.16370371  0.34725950  1
  Ag  Ag42  1  0.00432926  0.33272161  0.66984190  1
  Ag  Ag43  1  0.33013580  0.82853816  0.83759735  1
  Ag  Ag44  1  0.16332354  0.83187893  0.33713781  1
  Ag  Ag45  1  0.67374094  0.83316231  0.49864627  1
  Ag  Ag46  1  0.00150880  0.32912570  -0.01123301  1
  Ag  Ag47  1  0.84331287  0.83062751  0.34322406  1
  Ag  Ag48  1  0.66682371  0.67162233  -0.00431450  1
  Ag  Ag49  1  0.82912603  0.66773500  0.83460497  1
  Ag  Ag50  1  0.66388873  0.33435830  0.33757236  1
  Ag  Ag51  1  0.66958044  0.67085552  0.33577482  1
  Ag  Ag52  1  0.16656240  0.67318299  0.16831905  1
  Ag  Ag53  1  0.83315417  0.50355174  0.66919354  1
  Sb  Sb54  1  0.49951120  0.83113807  0.67177118  1
  Sb  Sb55  1  0.49878854  0.16938557  0.66581233  1
  Sb  Sb56  1  0.32690880  0.33290359  0.66479849  1
  Sb  Sb57  1  0.50154465  0.49710608  0.34313861  1
  Sb  Sb58  1  0.83944384  0.16110105  -0.01180037  1
  Sb  Sb59  1  0.16280408  0.50344214  -0.00813611  1
  Sb  Sb60  1  0.83616109  0.67317667  0.50630280  1
  Sb  Sb61  1  0.83403243  -0.00604101  0.17004066  1
  Sb  Sb62  1  0.16681055  0.50348899  0.34357388  1
  Sb  Sb63  1  0.66591216  0.82942424  0.83168383  1
  Sb  Sb64  1  0.16946010  0.00265249  0.82980714  1
  Sb  Sb65  1  0.00141586  0.67120566  -0.00046301  1
  Sb  Sb66  1  0.33296997  0.66671371  0.33635578  1
  Sb  Sb67  1  0.32955713  0.50067634  0.50803610  1
  Sb  Sb68  1  0.83596961  0.33172205  0.50272638  1
  Sb  Sb69  1  0.33100958  0.50782497  0.16011630  1
  Sb  Sb70  1  0.00442741  0.66571214  0.66351044  1
  Sb  Sb71  1  0.49921360  0.33280987  0.16425113  1
  Sb  Sb72  1  0.49786176  -0.00354630  0.16007370  1
  Sb  Sb73  1  0.32803771  0.33384373  -0.00136553  1
  Sb  Sb74  1  0.33159064  0.00082875  0.33868729  1
  Sb  Sb75  1  0.49506602  0.16123216  -0.00262283  1
  Sb  Sb76  1  0.49820914  0.66803826  0.50587996  1
  Sb  Sb77  1  -0.00084978  0.50095817  0.82729047  1
  Sb  Sb78  1  0.00179345  0.33676571  0.33874544  1
  Sb  Sb79  1  0.83660630  0.67145024  0.16272412  1
  Sb  Sb80  1  0.00067485  0.50765736  0.16870346  1
  Sb  Sb81  1  0.83584047  0.16034794  0.34437026  1
  Sb  Sb82  1  0.49775864  0.00023842  0.50650470  1
  Sb  Sb83  1  0.00054558  0.00107195  0.67003223  1
  Sb  Sb84  1  0.83163041  0.50784581  0.33865445  1
  Sb  Sb85  1  0.66514904  0.66745431  0.66805760  1
  Sb  Sb86  1  0.16695167  -0.00795016  0.16635729  1
  Sb  Sb87  1  0.50486276  0.50740738  -0.01009162  1
  Sb  Sb88  1  0.67087511  0.33829524  -0.00185533  1
  Sb  Sb89  1  0.49698641  0.66993135  0.15999799  1
  Sb  Sb90  1  0.66750463  -0.00815003  -0.00840323  1
  Sb  Sb91  1  0.00329630  0.15927694  0.15907174  1
  Sb  Sb92  1  0.83422101  0.33342784  0.16607808  1
  Sb  Sb93  1  0.33106572  0.16391176  0.82768002  1
  Sb  Sb94  1  0.32999419  0.15926144  0.17079569  1
  Sb  Sb95  1  0.16621356  0.33711830  0.16744086  1
  Sb  Sb96  1  0.66794061  0.50744613  0.16530735  1
  Sb  Sb97  1  0.49803514  0.83614198  0.33116088  1
  Sb  Sb98  1  0.67027095  0.33289360  0.66421206  1
  Sb  Sb99  1  0.00406454  0.16393588  0.50631231  1
  Sb  Sb100  1  0.16858978  0.66629684  0.82974467  1
  Sb  Sb101  1  0.66667742  0.16067010  0.16949590  1
  Sb  Sb102  1  0.83057990  -0.00755107  0.82659973  1
  Sb  Sb103  1  0.83637550  0.33772562  0.83118593  1
  Sb  Sb104  1  0.00279885  -0.00703319  0.33375200  1
  Sb  Sb105  1  0.16557735  0.83500262  0.66568100  1
  Sb  Sb106  1  0.66641004  -0.00401846  0.34346138  1
  Sb  Sb107  1  0.49688281  0.33209733  0.50567209  1
  Te  Te108  1  0.16637872  0.16747920  0.16528009  1
  Te  Te109  1  0.16505537  0.16677095  0.50347450  1
  Te  Te110  1  0.16450468  0.16892957  0.83233188  1
  Te  Te111  1  0.16649315  0.51026506  0.16641475  1
  Te  Te112  1  0.16417980  0.49806072  0.50591209  1
  Te  Te113  1  0.16811819  0.49513032  0.82735120  1
  Te  Te114  1  0.16527093  0.83112634  0.16796659  1
  Te  Te115  1  0.16397416  0.83580060  0.50281645  1
  Te  Te116  1  0.16645609  0.83412466  0.83444273  1
  Te  Te117  1  0.49948822  0.16574688  0.17484302  1
  Te  Te118  1  0.50412971  0.16704204  0.49688239  1
  Te  Te119  1  0.50276794  0.17027842  0.83430502  1
  Te  Te120  1  0.49913881  0.50006703  0.16722874  1
  Te  Te121  1  0.50756175  0.50001530  0.50947562  1
  Te  Te122  1  0.50061899  0.50162046  0.83044825  1
  Te  Te123  1  0.50481541  0.83316023  0.16021442  1
  Te  Te124  1  0.50331065  0.83355515  0.50003438  1
  Te  Te125  1  0.49899599  0.83097144  0.83549315  1
  Te  Te126  1  0.83367496  0.16403346  0.16843408  1
  Te  Te127  1  0.83016405  0.16145532  0.50677612  1
  Te  Te128  1  0.83241090  0.16659234  0.82589565  1
  Te  Te129  1  0.83391762  0.50031135  0.15980813  1
  Te  Te130  1  0.83346279  0.50014050  0.50516309  1
  Te  Te131  1  0.83223388  0.50342573  0.83031145  1
  Te  Te132  1  0.83270621  0.83355313  0.16861504  1
  Te  Te133  1  0.83320798  0.83347412  0.50241483  1
  Te  Te134  1  0.83304111  0.82976490  0.82991357  1
  Te  Te135  1  0.16623512  -0.00213297  -0.00037461  1
  Te  Te136  1  0.16741093  -0.00059202  0.33872606  1
  Te  Te137  1  0.16992498  0.00441323  0.66300551  1
  Te  Te138  1  0.16143815  0.33483455  -0.00061108  1
  Te  Te139  1  0.16811935  0.33223239  0.33520189  1
  Te  Te140  1  0.16560040  0.33226151  0.66675573  1
  Te  Te141  1  0.17028588  0.67025809  0.00052894  1
  Te  Te142  1  0.16726812  0.67000284  0.33838619  1
  Te  Te143  1  0.17085966  0.66295617  0.66181893  1
  Te  Te144  1  0.49800277  -0.00547202  -0.00772171  1
  Te  Te145  1  0.49939625  0.00731405  0.33216696  1
  Te  Te146  1  0.49975150  0.00069992  0.67278153  1
  Te  Te147  1  0.50013809  0.33296078  -0.00581037  1
  Te  Te148  1  0.50082177  0.32988498  0.33284457  1
  Te  Te149  1  0.50017843  0.33873543  0.67340996  1
  Te  Te150  1  0.50028028  0.67160497  -0.00584250  1
  Te  Te151  1  0.50693759  0.66628997  0.33269015  1
  Te  Te152  1  0.49430951  0.66220891  0.67304297  1
  Te  Te153  1  0.83681222  -0.00616612  -0.00036203  1
  Te  Te154  1  0.83430130  -0.00815386  0.34219469  1
  Te  Te155  1  0.83177137  -0.00103615  0.66341639  1
  Te  Te156  1  0.84011431  0.33052844  0.00013551  1
  Te  Te157  1  0.82861174  0.33415683  0.33360074  1
  Te  Te158  1  0.84083971  0.33360541  0.66622735  1
  Te  Te159  1  0.83350127  0.66992663  -0.00303824  1
  Te  Te160  1  0.83111120  0.67269534  0.33198973  1
  Te  Te161  1  0.83301462  0.66748734  0.67256383  1
  Te  Te162  1  0.00435815  0.16831388  -0.00657152  1
  Te  Te163  1  0.00558232  0.16672232  0.33015195  1
  Te  Te164  1  0.00054627  0.16796308  0.67094909  1
  Te  Te165  1  -0.00556589  0.49862322  -0.00029502  1
  Te  Te166  1  -0.00164945  0.50704355  0.34017177  1
  Te  Te167  1  -0.00033019  0.49902098  0.66323138  1
  Te  Te168  1  -0.00095085  0.83123729  -0.00250491  1
  Te  Te169  1  0.00215459  0.83239164  0.33734882  1
  Te  Te170  1  -0.00346817  0.83356466  0.66718957  1
  Te  Te171  1  0.32639005  0.16425254  0.00151385  1
  Te  Te172  1  0.32933731  0.16717521  0.33710497  1
  Te  Te173  1  0.33108213  0.16320956  0.66091243  1
  Te  Te174  1  0.33364703  0.50367440  -0.00811195  1
  Te  Te175  1  0.33502945  0.49425625  0.33273204  1
  Te  Te176  1  0.33192420  0.49880027  0.67038855  1
  Te  Te177  1  0.32934685  0.83198867  -0.00483875  1
  Te  Te178  1  0.32993281  0.83323945  0.34408769  1
  Te  Te179  1  0.33321363  0.83419532  0.66434798  1
  Te  Te180  1  0.66681094  0.16669221  -0.00111946  1
  Te  Te181  1  0.66981482  0.16802007  0.33655386  1
  Te  Te182  1  0.66603990  0.16713344  0.66658649  1
  Te  Te183  1  0.67275604  0.50575673  -0.00275834  1
  Te  Te184  1  0.66713087  0.50166303  0.33551842  1
  Te  Te185  1  0.67168126  0.49980714  0.66703294  1
  Te  Te186  1  0.67778356  0.83007449  -0.00118736  1
  Te  Te187  1  0.66332259  0.83126419  0.33672202  1
  Te  Te188  1  0.66825137  0.83566096  0.66324940  1
  Te  Te189  1  -0.00001586  -0.00849240  0.15739252  1
  Te  Te190  1  0.00114724  -0.00406529  0.50077788  1
  Te  Te191  1  -0.00206040  -0.00093405  0.83632716  1
  Te  Te192  1  0.00011076  0.33424709  0.16502254  1
  Te  Te193  1  0.00534310  0.33524465  0.50273184  1
  Te  Te194  1  0.00263975  0.33382630  0.83070835  1
  Te  Te195  1  0.00498046  0.67283551  0.17406038  1
  Te  Te196  1  0.00271226  0.66853668  0.49804325  1
  Te  Te197  1  -0.00319502  0.67246032  0.83192684  1
  Te  Te198  1  0.33352041  -0.00872803  0.15916897  1
  Te  Te199  1  0.33183328  0.00069046  0.50442650  1
  Te  Te200  1  0.33616553  -0.00108858  0.83077133  1
  Te  Te201  1  0.33335494  0.33410636  0.17275682  1
  Te  Te202  1  0.32985371  0.33179712  0.49689011  1
  Te  Te203  1  0.33082774  0.33251466  0.83422046  1
  Te  Te204  1  0.32937301  0.67290879  0.16751121  1
  Te  Te205  1  0.33014847  0.66907084  0.50406148  1
  Te  Te206  1  0.33050809  0.66827281  0.83126941  1
  Te  Te207  1  0.66607454  -0.00771276  0.16607061  1
  Te  Te208  1  0.66514347  -0.00013782  0.50639501  1
  Te  Te209  1  0.66330566  0.00578265  0.82729757  1
  Te  Te210  1  0.66613684  0.33271743  0.17326669  1
  Te  Te211  1  0.66655508  0.33189283  0.49760537  1
  Te  Te212  1  0.66480677  0.33431588  0.83403361  1
  Te  Te213  1  0.66629100  0.67188885  0.16451171  1
  Te  Te214  1  0.66608713  0.66699177  0.49915117  1
  Te  Te215  1  0.66531309  0.66307368  0.83441221  1
