# generated using pymatgen
data_AgSbTe2
_symmetry_space_group_name_H-M   'P 1'
_cell_length_a   18.32724067
_cell_length_b   18.33306608
_cell_length_c   18.33670322
_cell_angle_alpha   90.00215675
_cell_angle_beta   89.99715102
_cell_angle_gamma   89.99957536
_symmetry_Int_Tables_number   1
_chemical_formula_structural   AgSbTe2
_chemical_formula_sum   'Ag54 Sb54 Te108'
_cell_volume   6161.03168211
_cell_formula_units_Z   54
loop_
 _symmetry_equiv_pos_site_id
 _symmetry_equiv_pos_as_xyz
  1  'x, y, z'
loop_
 _atom_site_type_symbol
 _atom_site_label
 _atom_site_symmetry_multiplicity
 _atom_site_fract_x
 _atom_site_fract_y
 _atom_site_fract_z
 _atom_site_occupancy
  Ag  Ag0  1  0.66847118  0.00003389  0.66974317  1
  Ag  Ag1  1  0.66039575  -0.00286405  0.33531735  1
  Ag  Ag2  1  0.34648223  0.66443755  0.00535165  1
  Ag  Ag3  1  0.16728798  0.82917367  0.33402033  1
  Ag  Ag4  1  0.50101030  0.32860531  0.50222031  1
  Ag  Ag5  1  0.33511233  0.17480549  0.15496981  1
  Ag  Ag6  1  0.66807711  0.49866437  0.84006713  1
  Ag  Ag7  1  0.66950012  0.49922634  0.50124205  1
  Ag  Ag8  1  0.34072393  0.01205198  -0.00086952  1
  Ag  Ag9  1  0.66666514  0.82337658  0.16437560  1
  Ag  Ag10  1  0.82178605  0.50117475  -0.00015381  1
  Ag  Ag11  1  0.33837825  0.32668815  0.00604449  1
  Ag  Ag12  1  0.66689662  0.50389308  0.15866842  1
  Ag  Ag13  1  0.50164392  0.82000844  0.00069928  1
  Ag  Ag14  1  0.66188011  0.17200926  0.83435976  1
  Ag  Ag15  1  0.49953199  0.65863216  0.15697482  1
  Ag  Ag16  1  -0.00716000  0.83351495  0.82542877  1
  Ag  Ag17  1  0.65817706  -0.00506015  -0.00314827  1
  Ag  Ag18  1  0.82910243  -0.00494198  0.83054488  1
  Ag  Ag19  1  0.83241408  0.50357813  0.67282137  1
  Ag  Ag20  1  0.34383669  0.16663448  0.84362917  1
  Ag  Ag21  1  0.33621719  0.33202478  0.32426261  1
  Ag  Ag22  1  0.50557795  0.65966476  0.84547966  1
  Ag  Ag23  1  -0.00519613  0.33154109  0.66540857  1
  Ag  Ag24  1  0.33692452  0.00276348  0.33659902  1
  Ag  Ag25  1  0.16353585  0.50100620  0.66308197  1
  Ag  Ag26  1  0.83484558  0.83158329  0.34089307  1
  Ag  Ag27  1  0.82580307  0.34247419  0.16084782  1
  Ag  Ag28  1  0.50426959  0.33072345  0.83887292  1
  Ag  Ag29  1  0.00297325  0.16288174  0.50455418  1
  Ag  Ag30  1  0.18181961  0.16478011  0.00066180  1
  Ag  Ag31  1  0.18178014  0.66336519  0.16849179  1
  Ag  Ag32  1  0.33533479  0.66700345  0.66753358  1
  Ag  Ag33  1  0.50402436  0.50572404  0.00170766  1
  Ag  Ag34  1  -0.00417273  0.83871469  0.50480964  1
  Ag  Ag35  1  0.33147149  0.66287345  0.32455042  1
  Ag  Ag36  1  0.33594671  0.00316831  0.66343756  1
  Ag  Ag37  1  -0.00528044  0.00037016  0.66431602  1
  Ag  Ag38  1  0.33806133  0.49940915  0.16467210  1
  Ag  Ag39  1  0.17202785  0.50595011  0.33153107  1
  Ag  Ag40  1  0.82614572  0.66207791  0.83320538  1
  Ag  Ag41  1  0.82626746  0.66110976  0.16205137  1
  Ag  Ag42  1  0.33555864  0.16322395  0.50082779  1
  Ag  Ag43  1  0.49829409  0.33931292  0.15453130  1
  Ag  Ag44  1  0.17726527  0.00098998  0.50116826  1
  Ag  Ag45  1  0.82535864  0.34134792  0.83190603  1
  Ag  Ag46  1  0.66042531  0.66396073  0.00158822  1
  Ag  Ag47  1  -0.01050292  0.50051594  0.16545141  1
  Ag  Ag48  1  0.83502207  0.82818571  0.66691057  1
  Ag  Ag49  1  0.49672613  0.17042258  -0.00731438  1
  Ag  Ag50  1  0.83175412  0.66257425  0.50231476  1
  Ag  Ag51  1  0.82953771  0.33948470  0.50387767  1
  Ag  Ag52  1  0.49697271  0.16558336  0.67340999  1
  Ag  Ag53  1  0.49603296  0.00647987  0.50359784  1
  Sb  Sb54  1  0.16657481  0.00038778  0.82881598  1
  Sb  Sb55  1  0.49857842  0.00102624  0.16385417  1
  Sb  Sb56  1  0.49697669  0.49900338  0.32372094  1
  Sb  Sb57  1  0.33994850  0.82872716  0.16738872  1
  Sb  Sb58  1  0.00227610  0.33571581  0.33643068  1
  Sb  Sb59  1  0.49766375  0.16656918  0.33274924  1
  Sb  Sb60  1  0.82646431  0.82685746  -0.00296050  1
  Sb  Sb61  1  -0.00219495  0.16512307  0.82792197  1
  Sb  Sb62  1  0.16275473  0.83112973  0.66213214  1
  Sb  Sb63  1  0.33035620  0.83890986  0.49905065  1
  Sb  Sb64  1  0.50345690  0.66435593  0.49928475  1
  Sb  Sb65  1  0.66434663  0.66824282  0.32496287  1
  Sb  Sb66  1  -0.00145858  0.66713797  0.66674228  1
  Sb  Sb67  1  0.67091676  0.83107149  0.49578058  1
  Sb  Sb68  1  0.33829836  0.49674036  0.49664313  1
  Sb  Sb69  1  0.82652030  0.17311811  -0.00253842  1
  Sb  Sb70  1  0.50390051  0.49610471  0.67186624  1
  Sb  Sb71  1  0.65916455  0.16978654  0.15874239  1
  Sb  Sb72  1  0.17202418  0.49811127  0.00218673  1
  Sb  Sb73  1  0.34085335  0.49723982  0.83784645  1
  Sb  Sb74  1  -0.00934517  0.50320626  0.83448212  1
  Sb  Sb75  1  0.16905431  0.66550103  0.83698857  1
  Sb  Sb76  1  0.17240436  0.16634909  0.33191070  1
  Sb  Sb77  1  0.33415852  0.33218951  0.66798762  1
  Sb  Sb78  1  0.16959578  0.33350805  0.83304393  1
  Sb  Sb79  1  0.83233896  0.16259870  0.33467002  1
  Sb  Sb80  1  -0.00291193  0.66583812  0.00063720  1
  Sb  Sb81  1  0.17444858  0.34021851  0.16724451  1
  Sb  Sb82  1  0.17166221  0.16803136  0.66832571  1
  Sb  Sb83  1  0.16450130  0.66964305  0.49637687  1
  Sb  Sb84  1  0.83010670  -0.00056537  0.50522115  1
  Sb  Sb85  1  0.00535546  0.17436708  0.16968322  1
  Sb  Sb86  1  0.65732561  0.33949106  -0.00152235  1
  Sb  Sb87  1  0.17398145  0.83581365  0.00520565  1
  Sb  Sb88  1  0.16888790  0.33030904  0.50050905  1
  Sb  Sb89  1  0.49989034  0.83442431  0.32927762  1
  Sb  Sb90  1  0.00244713  0.66635933  0.33256625  1
  Sb  Sb91  1  -0.00561715  0.82785619  0.16768604  1
  Sb  Sb92  1  0.83392941  0.50447019  0.33005969  1
  Sb  Sb93  1  0.17072750  -0.00488301  0.17168689  1
  Sb  Sb94  1  0.82875419  0.16762638  0.66763128  1
  Sb  Sb95  1  -0.00395364  0.49971501  0.49800100  1
  Sb  Sb96  1  0.66287509  0.33067790  0.33296384  1
  Sb  Sb97  1  0.66957463  0.33149321  0.66928806  1
  Sb  Sb98  1  0.00260906  -0.00214769  0.34166153  1
  Sb  Sb99  1  0.33336233  0.83652010  0.83419376  1
  Sb  Sb100  1  0.66309661  0.16765995  0.50532695  1
  Sb  Sb101  1  0.00097208  0.33432300  -0.00385707  1
  Sb  Sb102  1  0.50460843  0.83827762  0.67177719  1
  Sb  Sb103  1  0.66586860  0.66904496  0.67248627  1
  Sb  Sb104  1  0.50467970  0.00489069  0.83343688  1
  Sb  Sb105  1  -0.00088984  -0.00013661  -0.00648221  1
  Sb  Sb106  1  0.82926499  -0.00150734  0.16191179  1
  Sb  Sb107  1  0.66895493  0.83312113  0.83824939  1
  Te  Te108  1  0.17203136  0.16658168  0.16332252  1
  Te  Te109  1  0.16740663  0.16265581  0.49987452  1
  Te  Te110  1  0.16966043  0.16686384  0.83846640  1
  Te  Te111  1  0.17455033  0.50447719  0.16751040  1
  Te  Te112  1  0.16594759  0.50046669  0.50086951  1
  Te  Te113  1  0.16414304  0.50029472  0.82764185  1
  Te  Te114  1  0.16289637  0.82556558  0.17259753  1
  Te  Te115  1  0.15988791  0.83755744  0.49496573  1
  Te  Te116  1  0.15820470  0.83249398  0.83458818  1
  Te  Te117  1  0.49390139  0.17243994  0.16340439  1
  Te  Te118  1  0.49915803  0.16642924  0.50072690  1
  Te  Te119  1  0.50094007  0.16733017  0.83189917  1
  Te  Te120  1  0.49975798  0.49858523  0.16368586  1
  Te  Te121  1  0.50641094  0.49559102  0.50307952  1
  Te  Te122  1  0.50607765  0.49768336  0.83631368  1
  Te  Te123  1  0.50631164  0.83203155  0.16207296  1
  Te  Te124  1  0.50138102  0.83743805  0.50095837  1
  Te  Te125  1  0.49947300  0.82386358  0.83879549  1
  Te  Te126  1  0.83473222  0.17419803  0.16610534  1
  Te  Te127  1  0.83490803  0.17285346  0.50015790  1
  Te  Te128  1  0.82924293  0.17025646  0.83352081  1
  Te  Te129  1  0.82926156  0.50020996  0.16873862  1
  Te  Te130  1  0.83265822  0.50053005  0.49775355  1
  Te  Te131  1  0.82965636  0.50096943  0.83300168  1
  Te  Te132  1  0.82892099  0.83018717  0.16696969  1
  Te  Te133  1  0.83566817  0.83265080  0.50215928  1
  Te  Te134  1  0.83413339  0.83223936  0.83113547  1
  Te  Te135  1  0.17148048  0.00272660  0.00028506  1
  Te  Te136  1  0.17060481  -0.00421818  0.33886615  1
  Te  Te137  1  0.16988176  -0.00082251  0.66207726  1
  Te  Te138  1  0.17337489  0.32908315  -0.00048393  1
  Te  Te139  1  0.17368467  0.33812746  0.33383779  1
  Te  Te140  1  0.16016243  0.33914946  0.66678879  1
  Te  Te141  1  0.16861769  0.66723428  0.00579529  1
  Te  Te142  1  0.17006965  0.66688433  0.33131351  1
  Te  Te143  1  0.17186335  0.66293112  0.66707886  1
  Te  Te144  1  0.49853361  0.00664903  -0.00031150  1
  Te  Te145  1  0.49880531  -0.00013329  0.33603750  1
  Te  Te146  1  0.49776572  0.00163884  0.66589630  1
  Te  Te147  1  0.49723922  0.33128063  -0.00204649  1
  Te  Te148  1  0.49527331  0.33317110  0.34095854  1
  Te  Te149  1  0.50033814  0.32842263  0.66469558  1
  Te  Te150  1  0.50247551  0.66390693  0.00122027  1
  Te  Te151  1  0.49244116  0.66802822  0.33190374  1
  Te  Te152  1  0.49605412  0.66826731  0.66685055  1
  Te  Te153  1  0.83005451  0.00058683  -0.00721052  1
  Te  Te154  1  0.83093231  -0.00551187  0.33225766  1
  Te  Te155  1  0.83335455  0.00125628  0.66971105  1
  Te  Te156  1  0.83436159  0.33991473  -0.00060182  1
  Te  Te157  1  0.83289047  0.33181944  0.33665494  1
  Te  Te158  1  0.83405342  0.33417348  0.66646643  1
  Te  Te159  1  0.83101207  0.66193804  -0.00009932  1
  Te  Te160  1  0.83225391  0.67154001  0.33475994  1
  Te  Te161  1  0.83229430  0.66624396  0.66766450  1
  Te  Te162  1  0.00303350  0.16690291  -0.00034300  1
  Te  Te163  1  0.00170929  0.16682660  0.34162959  1
  Te  Te164  1  0.00255458  0.16551606  0.66343614  1
  Te  Te165  1  0.00091999  0.49893026  0.00609145  1
  Te  Te166  1  0.00910003  0.49941385  0.32682252  1
  Te  Te167  1  -0.00430421  0.49791144  0.66636161  1
  Te  Te168  1  0.00121823  0.83483553  -0.00335877  1
  Te  Te169  1  -0.00248376  0.83326257  0.33566351  1
  Te  Te170  1  -0.00337117  0.83435147  0.66508188  1
  Te  Te171  1  0.33716863  0.16741466  -0.00064546  1
  Te  Te172  1  0.33286819  0.16478220  0.34055979  1
  Te  Te173  1  0.33555166  0.16497908  0.66113382  1
  Te  Te174  1  0.33637798  0.50402649  0.00266114  1
  Te  Te175  1  0.33153776  0.50088249  0.33099486  1
  Te  Te176  1  0.33227200  0.50151391  0.66730309  1
  Te  Te177  1  0.33918789  0.82818508  0.00024596  1
  Te  Te178  1  0.33040300  0.83671641  0.33267143  1
  Te  Te179  1  0.33203244  0.83493077  0.66717351  1
  Te  Te180  1  0.66181616  0.15892823  -0.00524898  1
  Te  Te181  1  0.66700412  0.15743799  0.33057192  1
  Te  Te182  1  0.66086391  0.16012782  0.67217961  1
  Te  Te183  1  0.66541538  0.50149051  -0.00019838  1
  Te  Te184  1  0.66575794  0.49981737  0.33760047  1
  Te  Te185  1  0.67189752  0.50149999  0.66564515  1
  Te  Te186  1  0.66291596  0.83476130  0.00433777  1
  Te  Te187  1  0.66944915  0.83699175  0.32824169  1
  Te  Te188  1  0.67298961  0.83910630  0.66557410  1
  Te  Te189  1  -0.00006195  0.00288763  0.16586987  1
  Te  Te190  1  -0.00273364  0.00053562  0.50512426  1
  Te  Te191  1  -0.00469028  -0.00259764  0.82591709  1
  Te  Te192  1  -0.00490696  0.33840638  0.16695827  1
  Te  Te193  1  -0.00231489  0.33130515  0.50352949  1
  Te  Te194  1  -0.00393105  0.33398333  0.82806621  1
  Te  Te195  1  -0.01133381  0.66113782  0.16656992  1
  Te  Te196  1  -0.00622892  0.67136276  0.49989061  1
  Te  Te197  1  -0.00451732  0.67185343  0.83340898  1
  Te  Te198  1  0.33339582  0.00143185  0.16692079  1
  Te  Te199  1  0.33546359  0.00027850  0.50037749  1
  Te  Te200  1  0.33295743  0.00393301  0.83342820  1
  Te  Te201  1  0.33638758  0.33469117  0.16684897  1
  Te  Te202  1  0.33667941  0.32928757  0.49997484  1
  Te  Te203  1  0.33770407  0.32907708  0.83561991  1
  Te  Te204  1  0.33865597  0.66728899  0.16672298  1
  Te  Te205  1  0.33387687  0.66647423  0.50309166  1
  Te  Te206  1  0.33621313  0.66678862  0.83229364  1
  Te  Te207  1  0.66591269  0.00196925  0.16465263  1
  Te  Te208  1  0.66220566  0.00004068  0.49995672  1
  Te  Te209  1  0.66913676  -0.00142960  0.83277824  1
  Te  Te210  1  0.66473316  0.33736661  0.16774414  1
  Te  Te211  1  0.66657958  0.33527031  0.49990960  1
  Te  Te212  1  0.66576799  0.33388029  0.83346305  1
  Te  Te213  1  0.66501290  0.66395220  0.16439402  1
  Te  Te214  1  0.67140860  0.66257748  0.49978050  1
  Te  Te215  1  0.66637185  0.66539559  0.83704543  1
