# generated using pymatgen
data_AgSbTe2
_symmetry_space_group_name_H-M   'P 1'
_cell_length_a   18.33376529
_cell_length_b   18.33681640
_cell_length_c   18.33389786
_cell_angle_alpha   90.00227640
_cell_angle_beta   89.99943454
_cell_angle_gamma   89.99913533
_symmetry_Int_Tables_number   1
_chemical_formula_structural   AgSbTe2
_chemical_formula_sum   'Ag54 Sb54 Te108'
_cell_volume   6163.54272701
_cell_formula_units_Z   54
loop_
 _symmetry_equiv_pos_site_id
 _symmetry_equiv_pos_as_xyz
  1  'x, y, z'
loop_
 _atom_site_type_symbol
 _atom_site_label
 _atom_site_symmetry_multiplicity
 _atom_site_fract_x
 _atom_site_fract_y
 _atom_site_fract_z
 _atom_site_occupancy
  Ag  Ag0  1  0.83197954  0.65539956  0.16363106  1
  Ag  Ag1  1  0.33847031  0.66205952  -0.00261083  1
  Ag  Ag2  1  0.31938485  0.49609041  0.16436445  1
  Ag  Ag3  1  0.16938219  0.49992813  0.31909787  1
  Ag  Ag4  1  0.16722957  0.83688600  0.67274728  1
  Ag  Ag5  1  0.82714871  0.00190690  0.15618862  1
  Ag  Ag6  1  0.49573291  0.33772555  0.83624814  1
  Ag  Ag7  1  0.32890381  0.00163551  0.67881519  1
  Ag  Ag8  1  0.17645491  0.50373062  0.00722040  1
  Ag  Ag9  1  0.17176754  0.17093036  0.33279840  1
  Ag  Ag10  1  0.00859865  0.33222002  0.66955064  1
  Ag  Ag11  1  0.66586245  0.34546444  0.32828638  1
  Ag  Ag12  1  0.49568870  0.50593084  0.00467730  1
  Ag  Ag13  1  0.68302430  0.49672749  0.17243970  1
  Ag  Ag14  1  0.00133941  0.50549284  0.84171417  1
  Ag  Ag15  1  0.32922426  0.33396590  0.67599090  1
  Ag  Ag16  1  0.50021825  0.00261269  0.16392104  1
  Ag  Ag17  1  0.17345618  0.67079259  0.83414861  1
  Ag  Ag18  1  0.66805684  0.65688861  0.31956602  1
  Ag  Ag19  1  0.00002523  0.50041339  0.16240805  1
  Ag  Ag20  1  0.33501193  0.17002368  0.15763522  1
  Ag  Ag21  1  0.50934835  0.50111558  0.32084650  1
  Ag  Ag22  1  0.66306585  0.50040818  0.48633661  1
  Ag  Ag23  1  0.66294053  0.66822085  0.00204750  1
  Ag  Ag24  1  0.66575284  0.16866273  0.49546679  1
  Ag  Ag25  1  0.83304641  0.34403103  0.16367878  1
  Ag  Ag26  1  0.16589405  0.65733751  0.16158469  1
  Ag  Ag27  1  0.16984510  0.16194459  0.66695982  1
  Ag  Ag28  1  0.01109906  -0.00098988  0.67151661  1
  Ag  Ag29  1  0.66587350  -0.00548530  -0.00031167  1
  Ag  Ag30  1  0.33548937  0.16022918  0.83938483  1
  Ag  Ag31  1  0.83327308  0.66477233  0.49391308  1
  Ag  Ag32  1  0.01052871  0.83349041  0.83148413  1
  Ag  Ag33  1  0.17084857  -0.00595890  0.83059253  1
  Ag  Ag34  1  0.83416223  -0.00255568  0.83923057  1
  Ag  Ag35  1  0.66643472  0.17060015  0.16360096  1
  Ag  Ag36  1  0.33465532  0.34115157  -0.00179757  1
  Ag  Ag37  1  0.16786561  0.34515368  0.16632976  1
  Ag  Ag38  1  0.33072047  0.83582753  0.83493641  1
  Ag  Ag39  1  0.83025015  0.50307552  0.00945608  1
  Ag  Ag40  1  0.82639860  0.15576973  0.00225497  1
  Ag  Ag41  1  0.33866307  -0.00005958  -0.00278920  1
  Ag  Ag42  1  0.66433619  0.83755853  0.84030133  1
  Ag  Ag43  1  0.33504036  0.50169904  0.49256659  1
  Ag  Ag44  1  0.32954285  0.66513619  0.68130768  1
  Ag  Ag45  1  0.49768420  -0.00044846  0.49475576  1
  Ag  Ag46  1  0.50395307  0.82746801  -0.00300204  1
  Ag  Ag47  1  0.16787418  0.66509939  0.50020234  1
  Ag  Ag48  1  0.66140868  0.16190578  0.84550164  1
  Ag  Ag49  1  0.81896654  0.50205554  0.31910907  1
  Ag  Ag50  1  0.49097073  0.66522557  0.83924678  1
  Ag  Ag51  1  0.82522768  0.83675520  -0.00244914  1
  Ag  Ag52  1  0.00159430  0.83186805  0.51011361  1
  Ag  Ag53  1  0.33410672  0.00272278  0.32855705  1
  Sb  Sb54  1  0.16841948  0.33834036  0.49758661  1
  Sb  Sb55  1  0.00740329  0.66864718  0.66746239  1
  Sb  Sb56  1  0.00397244  0.33786097  -0.00248300  1
  Sb  Sb57  1  0.17140593  0.33503563  0.83624721  1
  Sb  Sb58  1  0.83200645  0.82690491  0.32723694  1
  Sb  Sb59  1  0.33592732  0.66456475  0.32806353  1
  Sb  Sb60  1  0.83424085  0.67124257  0.84021536  1
  Sb  Sb61  1  0.49861875  0.66760292  0.50328771  1
  Sb  Sb62  1  0.00088445  0.66402231  -0.00111424  1
  Sb  Sb63  1  -0.00245507  -0.00210356  -0.00607687  1
  Sb  Sb64  1  0.49597882  0.49992946  0.67056698  1
  Sb  Sb65  1  0.50125899  0.66340950  0.15891410  1
  Sb  Sb66  1  0.66509951  0.33200116  0.66461835  1
  Sb  Sb67  1  0.84044121  0.83303950  0.67466904  1
  Sb  Sb68  1  0.33562305  0.16809908  0.50106485  1
  Sb  Sb69  1  0.49613036  -0.00202283  0.83935002  1
  Sb  Sb70  1  0.83167293  0.33925291  0.49442392  1
  Sb  Sb71  1  0.33304598  0.83210580  0.15730781  1
  Sb  Sb72  1  0.82855517  -0.00423127  0.50101547  1
  Sb  Sb73  1  0.00464065  -0.00022726  0.33681880  1
  Sb  Sb74  1  -0.00302492  0.16249732  0.50247124  1
  Sb  Sb75  1  0.83128736  0.32962247  0.84141790  1
  Sb  Sb76  1  0.33021641  0.83082599  0.50803432  1
  Sb  Sb77  1  0.16937647  -0.00039421  0.16161972  1
  Sb  Sb78  1  0.49792855  0.17063516  0.33086999  1
  Sb  Sb79  1  -0.00128595  0.33667776  0.33440840  1
  Sb  Sb80  1  0.83624699  0.16540357  0.67286950  1
  Sb  Sb81  1  0.32990501  0.50173048  0.84055188  1
  Sb  Sb82  1  0.50151122  0.16527488  0.00048909  1
  Sb  Sb83  1  0.66730769  0.83045743  0.15881067  1
  Sb  Sb84  1  0.66229440  0.33445407  0.00561558  1
  Sb  Sb85  1  0.49261498  0.83481243  0.67500053  1
  Sb  Sb86  1  -0.00328780  0.66429742  0.33311151  1
  Sb  Sb87  1  0.16894181  0.83051883  0.33763993  1
  Sb  Sb88  1  0.83531894  0.50071220  0.66716215  1
  Sb  Sb89  1  0.33621484  0.33420627  0.32785674  1
  Sb  Sb90  1  0.17188667  -0.00328013  0.50713940  1
  Sb  Sb91  1  0.49324038  0.16482412  0.66931431  1
  Sb  Sb92  1  0.00399325  0.16433450  0.83346453  1
  Sb  Sb93  1  0.00163678  0.50475575  0.49924315  1
  Sb  Sb94  1  0.49974072  0.82980925  0.32648597  1
  Sb  Sb95  1  0.83305752  0.17136985  0.32563392  1
  Sb  Sb96  1  0.49903066  0.33315943  0.50313126  1
  Sb  Sb97  1  0.16971011  0.16939252  -0.00062905  1
  Sb  Sb98  1  0.66239184  0.66590201  0.67242893  1
  Sb  Sb99  1  0.66229831  0.00132536  0.67384474  1
  Sb  Sb100  1  0.66915920  0.83122384  0.50697717  1
  Sb  Sb101  1  0.49905912  0.33562026  0.16186231  1
  Sb  Sb102  1  0.16875648  0.82762441  -0.00672288  1
  Sb  Sb103  1  0.66299437  0.00016263  0.32440564  1
  Sb  Sb104  1  -0.00194462  0.82811371  0.16030474  1
  Sb  Sb105  1  0.66918040  0.50041186  0.84081987  1
  Sb  Sb106  1  0.00061470  0.17112302  0.16500233  1
  Sb  Sb107  1  0.16921596  0.50169976  0.67049110  1
  Te  Te108  1  0.16979252  0.16639206  0.16828227  1
  Te  Te109  1  0.16622388  0.16664947  0.49878433  1
  Te  Te110  1  0.17144363  0.16497068  0.83073309  1
  Te  Te111  1  0.16349720  0.50119379  0.16308785  1
  Te  Te112  1  0.16983379  0.50520405  0.50108051  1
  Te  Te113  1  0.16075494  0.50324150  0.83757926  1
  Te  Te114  1  0.16396024  0.82516388  0.16791877  1
  Te  Te115  1  0.16271535  0.82759597  0.50480593  1
  Te  Te116  1  0.16919499  0.83279102  0.83241613  1
  Te  Te117  1  0.49752903  0.16397715  0.16736798  1
  Te  Te118  1  0.50568003  0.16288874  0.49920789  1
  Te  Te119  1  0.49937817  0.17054378  0.83380986  1
  Te  Te120  1  0.49805306  0.50001809  0.16475494  1
  Te  Te121  1  0.49927376  0.50103135  0.49914871  1
  Te  Te122  1  0.50269918  0.50176058  0.83846248  1
  Te  Te123  1  0.50014185  0.84068573  0.15959474  1
  Te  Te124  1  0.50071747  0.83751774  0.49954514  1
  Te  Te125  1  0.49767914  0.83085780  0.83803335  1
  Te  Te126  1  0.83261491  0.16256413  0.16338471  1
  Te  Te127  1  0.82694055  0.16629354  0.49844297  1
  Te  Te128  1  0.82884031  0.16187832  0.83884437  1
  Te  Te129  1  0.83821574  0.50009130  0.16594980  1
  Te  Te130  1  0.83217375  0.50505651  0.49884123  1
  Te  Te131  1  0.83801820  0.49955585  0.83554401  1
  Te  Te132  1  0.83417747  0.83877740  0.16043464  1
  Te  Te133  1  0.83722035  0.82766092  0.49978130  1
  Te  Te134  1  0.82947881  0.83701626  0.83790280  1
  Te  Te135  1  0.16925755  0.00039592  -0.00683456  1
  Te  Te136  1  0.17204057  0.00065655  0.33262588  1
  Te  Te137  1  0.16949745  -0.00000487  0.66822620  1
  Te  Te138  1  0.17197333  0.33679372  0.00510790  1
  Te  Te139  1  0.16716380  0.33367723  0.32940845  1
  Te  Te140  1  0.16978948  0.32970951  0.66628507  1
  Te  Te141  1  0.16835534  0.66415257  -0.00085251  1
  Te  Te142  1  0.16746177  0.66373674  0.33348469  1
  Te  Te143  1  0.17085254  0.66884384  0.66835614  1
  Te  Te144  1  0.50048381  -0.00075228  0.00221854  1
  Te  Te145  1  0.49615867  -0.00126310  0.32936646  1
  Te  Te146  1  0.49404330  -0.00086912  0.65999874  1
  Te  Te147  1  0.49482843  0.33904059  -0.00359883  1
  Te  Te148  1  0.50442658  0.34046839  0.33510688  1
  Te  Te149  1  0.49370135  0.33243692  0.67387031  1
  Te  Te150  1  0.50065637  0.66717153  -0.00085772  1
  Te  Te151  1  0.50586957  0.66212261  0.33413740  1
  Te  Te152  1  0.49199902  0.66771358  0.67414966  1
  Te  Te153  1  0.83364109  -0.00158387  -0.00258845  1
  Te  Te154  1  0.83426870  -0.00005096  0.33041665  1
  Te  Te155  1  0.83428448  0.00005427  0.67095443  1
  Te  Te156  1  0.83349305  0.34045211  0.00540613  1
  Te  Te157  1  0.83000213  0.33926839  0.32681480  1
  Te  Te158  1  0.83738548  0.33210547  0.66728002  1
  Te  Te159  1  0.83067570  0.66414793  0.00287210  1
  Te  Te160  1  0.82977304  0.66280925  0.33026182  1
  Te  Te161  1  0.83265085  0.66685958  0.66058127  1
  Te  Te162  1  -0.01004296  0.16803275  -0.00082252  1
  Te  Te163  1  0.00973717  0.16791300  0.33427736  1
  Te  Te164  1  0.00535922  0.16453338  0.66637347  1
  Te  Te165  1  -0.00337485  0.49952328  0.00046686  1
  Te  Te166  1  0.00941374  0.49916608  0.33084968  1
  Te  Te167  1  0.00091932  0.49544378  0.66919063  1
  Te  Te168  1  -0.00562134  0.83231629  -0.00757958  1
  Te  Te169  1  0.00029051  0.83418528  0.33951835  1
  Te  Te170  1  0.00528884  0.83566827  0.67108182  1
  Te  Te171  1  0.33279672  0.16367879  -0.00068293  1
  Te  Te172  1  0.33067955  0.16534495  0.33264249  1
  Te  Te173  1  0.32922351  0.16549512  0.66779792  1
  Te  Te174  1  0.33452387  0.50099015  0.00194556  1
  Te  Te175  1  0.32846327  0.49975618  0.33027220  1
  Te  Te176  1  0.33302670  0.50024631  0.66125262  1
  Te  Te177  1  0.33484002  0.83464617  -0.00541330  1
  Te  Te178  1  0.33464717  0.84039076  0.33414168  1
  Te  Te179  1  0.32765388  0.83279736  0.67263118  1
  Te  Te180  1  0.66751178  0.16817861  0.00316009  1
  Te  Te181  1  0.66671601  0.16703310  0.32922582  1
  Te  Te182  1  0.66744473  0.16686451  0.66337580  1
  Te  Te183  1  0.66719223  0.50104398  0.00376630  1
  Te  Te184  1  0.66482264  0.50150763  0.33106788  1
  Te  Te185  1  0.66637800  0.49852841  0.66069088  1
  Te  Te186  1  0.66546048  0.83381969  -0.00292284  1
  Te  Te187  1  0.66604822  0.82660213  0.33685603  1
  Te  Te188  1  0.66664364  0.83358332  0.67725141  1
  Te  Te189  1  -0.00309612  -0.00133731  0.16809859  1
  Te  Te190  1  -0.00144500  -0.00554483  0.50590088  1
  Te  Te191  1  0.00159769  -0.00185617  0.82943885  1
  Te  Te192  1  0.00131967  0.33771255  0.16670825  1
  Te  Te193  1  -0.00043606  0.33281580  0.50813283  1
  Te  Te194  1  0.00022269  0.33475765  0.82898070  1
  Te  Te195  1  -0.00124015  0.66223439  0.16706408  1
  Te  Te196  1  0.00126090  0.67071189  0.50051249  1
  Te  Te197  1  0.00221779  0.66771811  0.83159164  1
  Te  Te198  1  0.33299030  0.00072775  0.16287246  1
  Te  Te199  1  0.33731171  -0.00067544  0.49660953  1
  Te  Te200  1  0.33484289  0.00091854  0.83506404  1
  Te  Te201  1  0.33233397  0.33198323  0.16371762  1
  Te  Te202  1  0.33400254  0.33829044  0.50582117  1
  Te  Te203  1  0.33493778  0.33397470  0.83548065  1
  Te  Te204  1  0.33122412  0.66330197  0.16189992  1
  Te  Te205  1  0.33021959  0.66369290  0.49668481  1
  Te  Te206  1  0.33207601  0.66379298  0.83706655  1
  Te  Te207  1  0.66677062  0.00167630  0.16162750  1
  Te  Te208  1  0.66291874  0.00156721  0.49924064  1
  Te  Te209  1  0.66443282  0.00212315  0.83759120  1
  Te  Te210  1  0.66619875  0.33227783  0.16875149  1
  Te  Te211  1  0.66658169  0.33363726  0.49591979  1
  Te  Te212  1  0.66261335  0.32841515  0.83280299  1
  Te  Te213  1  0.66708260  0.66439538  0.16255437  1
  Te  Te214  1  0.66807107  0.66377286  0.50434003  1
  Te  Te215  1  0.66568615  0.66876609  0.83910251  1
