# generated using pymatgen
data_AgSbTe2
_symmetry_space_group_name_H-M   'P 1'
_cell_length_a   18.33652545
_cell_length_b   18.33178313
_cell_length_c   18.33288626
_cell_angle_alpha   89.99878547
_cell_angle_beta   90.00157225
_cell_angle_gamma   90.00115770
_symmetry_Int_Tables_number   1
_chemical_formula_structural   AgSbTe2
_chemical_formula_sum   'Ag54 Sb54 Te108'
_cell_volume   6162.43852776
_cell_formula_units_Z   54
loop_
 _symmetry_equiv_pos_site_id
 _symmetry_equiv_pos_as_xyz
  1  'x, y, z'
loop_
 _atom_site_type_symbol
 _atom_site_label
 _atom_site_symmetry_multiplicity
 _atom_site_fract_x
 _atom_site_fract_y
 _atom_site_fract_z
 _atom_site_occupancy
  Ag  Ag0  1  -0.00050760  0.49512139  0.15905881  1
  Ag  Ag1  1  -0.00587683  0.66052896  -0.00319157  1
  Ag  Ag2  1  0.65808976  0.00710708  0.33183181  1
  Ag  Ag3  1  0.15757714  0.49629058  0.66506956  1
  Ag  Ag4  1  0.32691798  0.33265473  0.67317556  1
  Ag  Ag5  1  0.16592730  0.17320662  0.66491317  1
  Ag  Ag6  1  -0.00334398  0.50078299  0.83743032  1
  Ag  Ag7  1  0.16684105  0.84068108  0.33218579  1
  Ag  Ag8  1  0.17691295  0.00061216  0.16950128  1
  Ag  Ag9  1  0.50126311  0.83786022  -0.00065868  1
  Ag  Ag10  1  0.84163400  0.49414348  0.67929390  1
  Ag  Ag11  1  0.33025673  0.83444341  0.49544564  1
  Ag  Ag12  1  0.49926419  -0.00298333  0.48672421  1
  Ag  Ag13  1  0.33741019  0.32886438  0.00176266  1
  Ag  Ag14  1  0.67326435  0.49000354  0.16338058  1
  Ag  Ag15  1  0.50619199  0.32781133  0.16070149  1
  Ag  Ag16  1  0.50578651  0.16251351  0.32840494  1
  Ag  Ag17  1  0.82951640  0.33637304  0.84002103  1
  Ag  Ag18  1  0.49071526  0.00615036  0.16616905  1
  Ag  Ag19  1  0.00277871  0.65642166  0.67773204  1
  Ag  Ag20  1  -0.01188449  0.33758873  0.00059695  1
  Ag  Ag21  1  0.67254721  0.33138976  0.67936049  1
  Ag  Ag22  1  0.83487881  0.17976568  0.00447657  1
  Ag  Ag23  1  0.32956112  0.49392693  0.16538184  1
  Ag  Ag24  1  0.66985489  0.32576330  0.31904097  1
  Ag  Ag25  1  0.67346549  0.33534955  0.00106024  1
  Ag  Ag26  1  0.16577277  0.49930389  0.33179465  1
  Ag  Ag27  1  0.82959769  0.16955965  0.32473707  1
  Ag  Ag28  1  0.33797372  0.83510208  0.84337153  1
  Ag  Ag29  1  0.32881477  0.84654307  0.16474913  1
  Ag  Ag30  1  0.66601643  0.17107581  0.83436278  1
  Ag  Ag31  1  0.83730751  0.65678194  0.83968542  1
  Ag  Ag32  1  0.00560871  0.83296917  0.49291549  1
  Ag  Ag33  1  0.00303553  0.16251113  0.16575762  1
  Ag  Ag34  1  0.16601628  0.66903173  0.50249839  1
  Ag  Ag35  1  0.00959921  0.00198445  0.32127965  1
  Ag  Ag36  1  0.66350146  0.83887600  0.83848400  1
  Ag  Ag37  1  0.83281430  0.83080350  -0.00059261  1
  Ag  Ag38  1  0.82788611  0.33287422  0.15547592  1
  Ag  Ag39  1  0.16549066  0.16027815  0.32954005  1
  Ag  Ag40  1  0.49511736  0.67600282  0.49970478  1
  Ag  Ag41  1  -0.00687591  0.34116722  0.67457399  1
  Ag  Ag42  1  0.33151041  0.00077416  0.32213569  1
  Ag  Ag43  1  0.83269056  0.33312271  0.50422700  1
  Ag  Ag44  1  0.67622849  0.66218442  -0.00231066  1
  Ag  Ag45  1  0.00532839  0.84655315  0.16506203  1
  Ag  Ag46  1  0.50278158  0.00290430  0.83890296  1
  Ag  Ag47  1  0.66428774  0.00745325  0.67321754  1
  Ag  Ag48  1  0.51002345  0.32892456  0.84327750  1
  Ag  Ag49  1  0.32994120  0.16072193  0.16704465  1
  Ag  Ag50  1  0.33426348  0.00083881  0.01018794  1
  Ag  Ag51  1  0.15492099  0.66643880  0.82994418  1
  Ag  Ag52  1  0.83596686  0.49492870  -0.00227277  1
  Ag  Ag53  1  0.00070295  -0.00162476  0.00572319  1
  Sb  Sb54  1  0.83025110  0.00371351  0.49698364  1
  Sb  Sb55  1  0.33283000  0.16227946  0.49438086  1
  Sb  Sb56  1  0.33658892  0.32678211  0.32847838  1
  Sb  Sb57  1  -0.00407471  0.32787532  0.32801561  1
  Sb  Sb58  1  0.50415156  0.32973104  0.49835307  1
  Sb  Sb59  1  0.49840286  0.16711917  0.66535186  1
  Sb  Sb60  1  0.49938825  0.83511878  0.67140010  1
  Sb  Sb61  1  0.16230505  0.16688601  0.00254220  1
  Sb  Sb62  1  0.16229194  0.33602392  0.50149769  1
  Sb  Sb63  1  0.49892216  0.66789935  0.16767541  1
  Sb  Sb64  1  0.66717274  0.16681129  0.50016142  1
  Sb  Sb65  1  0.83458176  0.82909743  0.67326423  1
  Sb  Sb66  1  0.67169726  0.66324299  0.67432735  1
  Sb  Sb67  1  0.83398836  0.00820475  0.16433335  1
  Sb  Sb68  1  0.33138468  0.66893722  0.00038330  1
  Sb  Sb69  1  0.16626789  0.83367785  0.00577007  1
  Sb  Sb70  1  0.83955532  0.84184297  0.32605999  1
  Sb  Sb71  1  0.66737948  0.17032399  0.16492807  1
  Sb  Sb72  1  0.83552753  0.17440670  0.66954373  1
  Sb  Sb73  1  0.33674336  0.00309292  0.66754721  1
  Sb  Sb74  1  0.50076539  0.49680328  0.66770914  1
  Sb  Sb75  1  0.16531854  0.83248294  0.66241831  1
  Sb  Sb76  1  -0.00446524  0.17269087  0.83963583  1
  Sb  Sb77  1  0.16401708  0.33657286  0.83215609  1
  Sb  Sb78  1  0.66744108  0.49814697  0.49600659  1
  Sb  Sb79  1  0.17122785  -0.00439818  0.83748869  1
  Sb  Sb80  1  0.50392108  0.16594248  0.00541249  1
  Sb  Sb81  1  0.66505102  0.83542481  0.50341351  1
  Sb  Sb82  1  0.00025740  0.16327520  0.49409303  1
  Sb  Sb83  1  -0.00354478  0.00252769  0.66886019  1
  Sb  Sb84  1  0.00050107  0.50187711  0.50172308  1
  Sb  Sb85  1  0.33709838  0.16438937  0.83945939  1
  Sb  Sb86  1  0.83521503  0.65972587  0.15814853  1
  Sb  Sb87  1  0.82839341  0.00318582  0.83661008  1
  Sb  Sb88  1  0.50256303  0.66744861  0.83325439  1
  Sb  Sb89  1  0.32699153  0.50076089  0.83711750  1
  Sb  Sb90  1  0.83781223  0.66326115  0.50738005  1
  Sb  Sb91  1  0.67472960  0.49465667  0.83895483  1
  Sb  Sb92  1  0.33102862  0.67337653  0.33347960  1
  Sb  Sb93  1  0.49522257  0.84218975  0.32802671  1
  Sb  Sb94  1  0.17092129  -0.00501694  0.49216975  1
  Sb  Sb95  1  -0.00010628  0.82745177  0.84003927  1
  Sb  Sb96  1  0.16444686  0.66955214  0.16604233  1
  Sb  Sb97  1  0.66597136  0.66617096  0.32738322  1
  Sb  Sb98  1  0.83738078  0.49206166  0.32808055  1
  Sb  Sb99  1  0.16601758  0.32887511  0.16679174  1
  Sb  Sb100  1  0.66500622  0.00308272  0.00186932  1
  Sb  Sb101  1  0.32693079  0.66251144  0.66695627  1
  Sb  Sb102  1  0.15905851  0.49960564  0.00227045  1
  Sb  Sb103  1  0.00104560  0.66919753  0.33000159  1
  Sb  Sb104  1  0.50513809  0.49864176  0.00117202  1
  Sb  Sb105  1  0.49675170  0.49439023  0.32966202  1
  Sb  Sb106  1  0.66761107  0.83336327  0.16060451  1
  Sb  Sb107  1  0.33038936  0.50205799  0.49697050  1
  Te  Te108  1  0.16552384  0.16284386  0.16833169  1
  Te  Te109  1  0.16688021  0.16661273  0.49845770  1
  Te  Te110  1  0.16760991  0.16483121  0.82784387  1
  Te  Te111  1  0.16454974  0.50118390  0.16922133  1
  Te  Te112  1  0.16703025  0.50597288  0.49994034  1
  Te  Te113  1  0.16092972  0.50473363  0.82839566  1
  Te  Te114  1  0.16691209  0.83561885  0.17146151  1
  Te  Te115  1  0.16752464  0.83023612  0.49583711  1
  Te  Te116  1  0.17226714  0.82875879  0.83093055  1
  Te  Te117  1  0.49762938  0.16749585  0.16892042  1
  Te  Te118  1  0.49941428  0.16002710  0.49208842  1
  Te  Te119  1  0.50387809  0.16837003  0.83261218  1
  Te  Te120  1  0.49634480  0.49616241  0.16690258  1
  Te  Te121  1  0.49868964  0.50571196  0.49872809  1
  Te  Te122  1  0.49674237  0.49334028  0.83321236  1
  Te  Te123  1  0.49673757  0.83535983  0.16132846  1
  Te  Te124  1  0.49783644  0.83633705  0.49994163  1
  Te  Te125  1  0.49976718  0.83330268  0.83767967  1
  Te  Te126  1  0.83580801  0.17266552  0.16516404  1
  Te  Te127  1  0.83419035  0.17208193  0.49400869  1
  Te  Te128  1  0.82820622  0.17110711  0.83754131  1
  Te  Te129  1  0.83563308  0.49406568  0.16295597  1
  Te  Te130  1  0.83277709  0.49498219  0.50025814  1
  Te  Te131  1  0.83570393  0.49768052  0.83606858  1
  Te  Te132  1  0.83721631  0.83110811  0.16094869  1
  Te  Te133  1  0.83777266  0.83270492  0.49944392  1
  Te  Te134  1  0.83078858  0.83311677  0.83811635  1
  Te  Te135  1  0.16782833  0.00031643  0.00553949  1
  Te  Te136  1  0.16714642  -0.00001395  0.33109322  1
  Te  Te137  1  0.16630057  0.00638335  0.66687016  1
  Te  Te138  1  0.17822760  0.33332366  -0.00087247  1
  Te  Te139  1  0.16716202  0.33440855  0.33523385  1
  Te  Te140  1  0.16522055  0.33501608  0.66637514  1
  Te  Te141  1  0.16112643  0.66646739  -0.00645274  1
  Te  Te142  1  0.16620621  0.66378181  0.33780338  1
  Te  Te143  1  0.16242208  0.66509376  0.66642966  1
  Te  Te144  1  0.49863534  -0.00053001  0.00013090  1
  Te  Te145  1  0.49818463  0.00225765  0.32923662  1
  Te  Te146  1  0.50487377  0.00132659  0.67529836  1
  Te  Te147  1  0.49684274  0.33353360  0.00119794  1
  Te  Te148  1  0.50535483  0.32683359  0.33069839  1
  Te  Te149  1  0.50670014  0.33276030  0.66698488  1
  Te  Te150  1  0.50356304  0.67250282  -0.00037975  1
  Te  Te151  1  0.50031450  0.66736508  0.33914286  1
  Te  Te152  1  0.50101440  0.66537789  0.66099215  1
  Te  Te153  1  0.83732026  -0.00742284  -0.00046586  1
  Te  Te154  1  0.83091179  0.00805887  0.33261503  1
  Te  Te155  1  0.82588587  0.00147032  0.66614926  1
  Te  Te156  1  0.83339478  0.33535971  -0.00018643  1
  Te  Te157  1  0.82942759  0.32939802  0.33553575  1
  Te  Te158  1  0.83381782  0.33437881  0.66797619  1
  Te  Te159  1  0.83395170  0.66863530  -0.00212706  1
  Te  Te160  1  0.83139924  0.66642406  0.33657784  1
  Te  Te161  1  0.83946037  0.66012390  0.67396715  1
  Te  Te162  1  -0.00352720  0.16851203  0.00405255  1
  Te  Te163  1  0.00376771  0.16221450  0.32865070  1
  Te  Te164  1  0.00368040  0.16935333  0.66665381  1
  Te  Te165  1  -0.00183687  0.49842441  -0.00153140  1
  Te  Te166  1  0.00515841  0.49932072  0.33032084  1
  Te  Te167  1  0.00054274  0.49911571  0.66446377  1
  Te  Te168  1  -0.00001444  0.83567040  0.00379993  1
  Te  Te169  1  0.00340452  0.83662349  0.32927077  1
  Te  Te170  1  -0.00078971  0.83332400  0.66319034  1
  Te  Te171  1  0.33213484  0.16463787  0.00506536  1
  Te  Te172  1  0.32860148  0.16247181  0.32898991  1
  Te  Te173  1  0.32952072  0.17226614  0.66688562  1
  Te  Te174  1  0.33364907  0.49993497  0.00397852  1
  Te  Te175  1  0.32855328  0.49871511  0.32908612  1
  Te  Te176  1  0.32984830  0.49379197  0.66757775  1
  Te  Te177  1  0.33390136  0.83436194  0.00326585  1
  Te  Te178  1  0.32989696  0.83853229  0.33139557  1
  Te  Te179  1  0.33297548  0.83324862  0.66268631  1
  Te  Te180  1  0.67211675  0.17047108  -0.00455127  1
  Te  Te181  1  0.66753394  0.16722955  0.33370115  1
  Te  Te182  1  0.66735815  0.16845856  0.67059465  1
  Te  Te183  1  0.67049301  0.49812276  0.00376376  1
  Te  Te184  1  0.66666084  0.49722299  0.32498060  1
  Te  Te185  1  0.67003132  0.49442186  0.66532556  1
  Te  Te186  1  0.66630599  0.83536467  -0.00177653  1
  Te  Te187  1  0.66933103  0.83626057  0.33313669  1
  Te  Te188  1  0.66765763  0.83487419  0.67391608  1
  Te  Te189  1  -0.00533972  0.00210114  0.16544314  1
  Te  Te190  1  -0.00094283  -0.00611218  0.49953684  1
  Te  Te191  1  0.00122281  0.00008805  0.83928174  1
  Te  Te192  1  -0.00003951  0.33367465  0.16345207  1
  Te  Te193  1  -0.00520148  0.33222868  0.50313906  1
  Te  Te194  1  -0.00219478  0.33680218  0.83578566  1
  Te  Te195  1  0.00033440  0.66056969  0.16126528  1
  Te  Te196  1  0.00242752  0.67229545  0.49971723  1
  Te  Te197  1  -0.00247576  0.66596805  0.83576277  1
  Te  Te198  1  0.33341866  0.00154512  0.16604329  1
  Te  Te199  1  0.33855834  -0.00514953  0.50059044  1
  Te  Te200  1  0.33905179  -0.00425142  0.83594252  1
  Te  Te201  1  0.33323509  0.33363303  0.16506892  1
  Te  Te202  1  0.33550542  0.33331128  0.50591359  1
  Te  Te203  1  0.33456841  0.33278586  0.83449034  1
  Te  Te204  1  0.33299320  0.65935967  0.16641978  1
  Te  Te205  1  0.33218425  0.67174902  0.50036728  1
  Te  Te206  1  0.33328520  0.67273751  0.83330021  1
  Te  Te207  1  0.66136849  -0.00021293  0.17132689  1
  Te  Te208  1  0.66109070  -0.00046981  0.49815249  1
  Te  Te209  1  0.66322711  0.00008311  0.83436764  1
  Te  Te210  1  0.66606429  0.33265995  0.16302673  1
  Te  Te211  1  0.66984933  0.33397684  0.50200201  1
  Te  Te212  1  0.66761582  0.33421060  0.83786410  1
  Te  Te213  1  0.66554369  0.66119209  0.15926630  1
  Te  Te214  1  0.66421155  0.66706035  0.50138831  1
  Te  Te215  1  0.66959748  0.67036667  0.83778427  1
