# generated using pymatgen
data_AgSbTe2
_symmetry_space_group_name_H-M   'P 1'
_cell_length_a   18.33635494
_cell_length_b   18.33380765
_cell_length_c   18.33792204
_cell_angle_alpha   90.00088710
_cell_angle_beta   89.99819445
_cell_angle_gamma   89.99647109
_symmetry_Int_Tables_number   1
_chemical_formula_structural   AgSbTe2
_chemical_formula_sum   'Ag54 Sb54 Te108'
_cell_volume   6164.75467814
_cell_formula_units_Z   54
loop_
 _symmetry_equiv_pos_site_id
 _symmetry_equiv_pos_as_xyz
  1  'x, y, z'
loop_
 _atom_site_type_symbol
 _atom_site_label
 _atom_site_symmetry_multiplicity
 _atom_site_fract_x
 _atom_site_fract_y
 _atom_site_fract_z
 _atom_site_occupancy
  Ag  Ag0  1  0.50271611  0.16754127  0.66301597  1
  Ag  Ag1  1  0.16848023  0.82561360  0.33175474  1
  Ag  Ag2  1  0.33709457  0.00750180  -0.00651427  1
  Ag  Ag3  1  0.50156126  0.49018790  0.66587992  1
  Ag  Ag4  1  -0.00481220  0.50125837  0.49376795  1
  Ag  Ag5  1  0.66369048  0.32422366  -0.00241438  1
  Ag  Ag6  1  -0.00324978  0.66006602  0.34105938  1
  Ag  Ag7  1  0.50179407  0.66909804  0.83021038  1
  Ag  Ag8  1  0.66749012  0.16244605  0.82653250  1
  Ag  Ag9  1  0.34119374  0.00901314  0.67112462  1
  Ag  Ag10  1  0.66066169  0.16289727  0.51229846  1
  Ag  Ag11  1  0.49957800  0.32941187  0.51114667  1
  Ag  Ag12  1  0.34161958  0.16649126  0.51021899  1
  Ag  Ag13  1  0.49749811  0.49606138  0.00136194  1
  Ag  Ag14  1  0.66905643  0.00719292  0.66748895  1
  Ag  Ag15  1  0.82642391  0.67326875  0.82404279  1
  Ag  Ag16  1  0.00294443  0.49890001  0.17285321  1
  Ag  Ag17  1  0.83786110  0.50489018  0.33890961  1
  Ag  Ag18  1  0.33724724  0.17424067  0.16651977  1
  Ag  Ag19  1  0.34225863  0.32611224  0.66999953  1
  Ag  Ag20  1  0.82728045  0.00082668  0.14803052  1
  Ag  Ag21  1  0.82443056  0.15860398  -0.00559095  1
  Ag  Ag22  1  0.33399223  0.49264672  0.16744114  1
  Ag  Ag23  1  0.67167734  0.00764123  -0.00246431  1
  Ag  Ag24  1  0.66333722  0.16479511  0.16357880  1
  Ag  Ag25  1  0.49615304  0.33378693  0.16435259  1
  Ag  Ag26  1  0.33677467  0.66337799  -0.00338346  1
  Ag  Ag27  1  0.50883939  0.01089993  0.51217376  1
  Ag  Ag28  1  0.16712164  0.49957753  0.33050618  1
  Ag  Ag29  1  0.66037520  0.32169375  0.66992372  1
  Ag  Ag30  1  -0.01587215  0.00055375  0.66960255  1
  Ag  Ag31  1  0.82967484  0.50237535  0.66193767  1
  Ag  Ag32  1  0.33239513  0.66217287  0.33470269  1
  Ag  Ag33  1  0.33457738  0.83544996  0.83302470  1
  Ag  Ag34  1  0.82738479  -0.00047264  0.51861587  1
  Ag  Ag35  1  -0.01319084  0.66608508  0.66277999  1
  Ag  Ag36  1  0.81670737  0.15493711  0.67020256  1
  Ag  Ag37  1  0.50728864  -0.00198982  0.82969311  1
  Ag  Ag38  1  0.66851122  0.00051852  0.33334552  1
  Ag  Ag39  1  -0.00006579  0.32976603  0.00161378  1
  Ag  Ag40  1  0.17858925  0.16683459  0.66474832  1
  Ag  Ag41  1  0.33642268  0.66526590  0.66871058  1
  Ag  Ag42  1  0.66875861  0.66705796  0.33332801  1
  Ag  Ag43  1  0.17035319  0.33153239  0.83789432  1
  Ag  Ag44  1  0.17827226  0.33389448  0.16351773  1
  Ag  Ag45  1  0.83161068  0.84625274  -0.00745975  1
  Ag  Ag46  1  -0.01565332  0.00611823  -0.00502641  1
  Ag  Ag47  1  0.33772681  0.33133034  0.00200349  1
  Ag  Ag48  1  0.49861874  0.49966407  0.33388413  1
  Ag  Ag49  1  0.83339119  0.84339692  0.67135551  1
  Ag  Ag50  1  0.17035983  0.16936830  0.33503829  1
  Ag  Ag51  1  0.66881031  0.84794893  0.16611178  1
  Ag  Ag52  1  0.82594661  -0.00149382  0.83367403  1
  Ag  Ag53  1  0.83344977  0.66683963  0.50707063  1
  Sb  Sb54  1  0.50441624  0.83312225  -0.00197466  1
  Sb  Sb55  1  -0.00028828  0.17084174  0.16558026  1
  Sb  Sb56  1  0.83161372  0.66940623  0.16776825  1
  Sb  Sb57  1  0.50683885  0.00862381  0.16381371  1
  Sb  Sb58  1  0.49918541  0.82935056  0.33274072  1
  Sb  Sb59  1  0.16673029  0.16940703  -0.00220073  1
  Sb  Sb60  1  0.16469757  0.83773330  0.66404184  1
  Sb  Sb61  1  0.17302827  0.49601992  0.00587360  1
  Sb  Sb62  1  0.33813919  0.00028508  0.33414043  1
  Sb  Sb63  1  0.33463315  0.33622713  0.32908194  1
  Sb  Sb64  1  0.16214248  0.66473957  0.49887253  1
  Sb  Sb65  1  -0.00612573  -0.00392133  0.33540172  1
  Sb  Sb66  1  0.00017170  0.66510679  -0.00182649  1
  Sb  Sb67  1  0.16525372  0.00286616  0.50098535  1
  Sb  Sb68  1  0.33446054  0.83686600  0.50510616  1
  Sb  Sb69  1  0.00004599  0.83447296  0.83325302  1
  Sb  Sb70  1  0.66335739  0.33084446  0.33391405  1
  Sb  Sb71  1  0.34002066  0.16379389  0.83196200  1
  Sb  Sb72  1  0.33789093  0.83442494  0.16294788  1
  Sb  Sb73  1  0.33691940  0.50139089  0.83671971  1
  Sb  Sb74  1  0.83316042  0.16676275  0.33472360  1
  Sb  Sb75  1  0.66815568  0.84255140  0.49825966  1
  Sb  Sb76  1  0.16717832  0.00566320  0.83205563  1
  Sb  Sb77  1  -0.00599806  0.16576653  0.83271314  1
  Sb  Sb78  1  0.49818222  0.16997101  0.33871076  1
  Sb  Sb79  1  0.83343267  0.32944161  0.83238668  1
  Sb  Sb80  1  -0.00043978  0.33229796  0.67041899  1
  Sb  Sb81  1  0.82955792  0.49805504  -0.00035820  1
  Sb  Sb82  1  0.50419004  0.66398436  0.50348391  1
  Sb  Sb83  1  0.16770629  0.66028836  0.17018287  1
  Sb  Sb84  1  0.16408849  0.00706904  0.16687772  1
  Sb  Sb85  1  0.82738345  0.33286473  0.50322971  1
  Sb  Sb86  1  0.49861637  0.65915444  0.16414070  1
  Sb  Sb87  1  0.66756161  0.84048892  0.83607883  1
  Sb  Sb88  1  0.00157462  0.34035443  0.32821366  1
  Sb  Sb89  1  0.17275316  0.33147961  0.49878009  1
  Sb  Sb90  1  0.33307569  0.49573975  0.49658438  1
  Sb  Sb91  1  0.66370851  0.66759403  0.00210268  1
  Sb  Sb92  1  -0.00244491  0.49947481  0.83166782  1
  Sb  Sb93  1  -0.00271940  0.17006040  0.50284709  1
  Sb  Sb94  1  0.83376347  0.82988003  0.33480653  1
  Sb  Sb95  1  0.49764689  0.33164008  0.83197356  1
  Sb  Sb96  1  0.17044619  0.66195745  0.83121214  1
  Sb  Sb97  1  0.66382415  0.49546446  0.16842421  1
  Sb  Sb98  1  0.50439243  0.83874768  0.66908168  1
  Sb  Sb99  1  0.16864357  0.49559763  0.66187860  1
  Sb  Sb100  1  0.66911807  0.66852481  0.66399670  1
  Sb  Sb101  1  0.50628844  0.17006354  -0.00527388  1
  Sb  Sb102  1  0.66903826  0.49564774  0.50026929  1
  Sb  Sb103  1  -0.00335897  0.82902675  0.50039514  1
  Sb  Sb104  1  0.66532727  0.49541588  0.83152847  1
  Sb  Sb105  1  -0.00517218  0.83076483  0.16759511  1
  Sb  Sb106  1  0.83004396  0.32933404  0.16532371  1
  Sb  Sb107  1  0.16494492  0.83537446  0.00337369  1
  Te  Te108  1  0.17004833  0.17276008  0.16782756  1
  Te  Te109  1  0.17024491  0.16757477  0.50033073  1
  Te  Te110  1  0.16636323  0.17266621  0.82761343  1
  Te  Te111  1  0.16914866  0.49476098  0.17089373  1
  Te  Te112  1  0.16096055  0.49839105  0.49227867  1
  Te  Te113  1  0.16592657  0.49212508  0.83281502  1
  Te  Te114  1  0.16717235  0.83503665  0.17213298  1
  Te  Te115  1  0.16666419  0.83439116  0.49079809  1
  Te  Te116  1  0.17379943  0.83184921  0.83382543  1
  Te  Te117  1  0.49786706  0.17274759  0.16901028  1
  Te  Te118  1  0.49997167  0.16774427  0.50052319  1
  Te  Te119  1  0.50604039  0.16046180  0.82629207  1
  Te  Te120  1  0.49681585  0.49513502  0.16685816  1
  Te  Te121  1  0.50065487  0.49608707  0.50207465  1
  Te  Te122  1  0.50046019  0.50656426  0.82820889  1
  Te  Te123  1  0.50765762  0.83291490  0.16619121  1
  Te  Te124  1  0.50021183  0.84146840  0.50000573  1
  Te  Te125  1  0.49470520  0.83237777  0.83401177  1
  Te  Te126  1  0.83138439  0.16183915  0.16540108  1
  Te  Te127  1  0.82925061  0.16364767  0.50429704  1
  Te  Te128  1  0.82865281  0.16395326  0.83190911  1
  Te  Te129  1  0.83577890  0.50006154  0.16878240  1
  Te  Te130  1  0.83425664  0.50057755  0.49961958  1
  Te  Te131  1  0.83231435  0.50602522  0.82945148  1
  Te  Te132  1  0.82920621  0.83818434  0.16534250  1
  Te  Te133  1  0.83297981  0.83318198  0.50523912  1
  Te  Te134  1  0.83376391  0.83306826  0.83281676  1
  Te  Te135  1  0.17553645  0.00076249  0.00021111  1
  Te  Te136  1  0.16472637  0.00536243  0.33301352  1
  Te  Te137  1  0.17672185  0.00445646  0.66572713  1
  Te  Te138  1  0.16894780  0.33305478  0.00205299  1
  Te  Te139  1  0.16773402  0.33349447  0.32837455  1
  Te  Te140  1  0.16839014  0.32832778  0.66739835  1
  Te  Te141  1  0.17363054  0.66733218  -0.00072762  1
  Te  Te142  1  0.16849104  0.66209480  0.33394422  1
  Te  Te143  1  0.17126974  0.66757415  0.66600626  1
  Te  Te144  1  0.49695740  0.00053882  -0.00415447  1
  Te  Te145  1  0.50690959  -0.00165984  0.33418175  1
  Te  Te146  1  0.50062999  -0.00038312  0.66854490  1
  Te  Te147  1  0.49956515  0.33471500  -0.00208837  1
  Te  Te148  1  0.50078002  0.33973190  0.32946734  1
  Te  Te149  1  0.50007487  0.33303084  0.67047671  1
  Te  Te150  1  0.49609519  0.66266910  -0.00469475  1
  Te  Te151  1  0.49905048  0.66157911  0.33518733  1
  Te  Te152  1  0.49904076  0.66836945  0.66816521  1
  Te  Te153  1  0.82932718  0.00232086  -0.00711627  1
  Te  Te154  1  0.82897412  -0.00094514  0.33578858  1
  Te  Te155  1  0.82970953  0.00052925  0.67390760  1
  Te  Te156  1  0.83058574  0.33022902  -0.00093868  1
  Te  Te157  1  0.83253594  0.34098701  0.33427211  1
  Te  Te158  1  0.83044439  0.34095406  0.66814013  1
  Te  Te159  1  0.83434592  0.66772069  -0.00509424  1
  Te  Te160  1  0.83380207  0.66516239  0.33469559  1
  Te  Te161  1  0.83092264  0.66044870  0.66622735  1
  Te  Te162  1  -0.00418624  0.16571791  -0.00019028  1
  Te  Te163  1  0.00635220  0.16662675  0.33459802  1
  Te  Te164  1  0.00121445  0.16237063  0.66575494  1
  Te  Te165  1  -0.00012680  0.49672015  0.00442350  1
  Te  Te166  1  -0.00112109  0.50235645  0.33252288  1
  Te  Te167  1  -0.00027642  0.50251628  0.66407779  1
  Te  Te168  1  -0.00512707  0.83749252  0.00091641  1
  Te  Te169  1  0.00615163  0.82645409  0.33290739  1
  Te  Te170  1  -0.00303919  0.83373441  0.66680162  1
  Te  Te171  1  0.33392687  0.16877998  0.00130139  1
  Te  Te172  1  0.33045998  0.16569790  0.32986026  1
  Te  Te173  1  0.33686294  0.16773223  0.66845336  1
  Te  Te174  1  0.33762256  0.49846595  0.00394749  1
  Te  Te175  1  0.33448803  0.50215424  0.33117421  1
  Te  Te176  1  0.33562095  0.50252573  0.66505216  1
  Te  Te177  1  0.33295990  0.83058508  -0.00281558  1
  Te  Te178  1  0.32988222  0.82880977  0.33255813  1
  Te  Te179  1  0.33179230  0.82770592  0.67049856  1
  Te  Te180  1  0.66572831  0.16724532  0.00306652  1
  Te  Te181  1  0.66746284  0.16285760  0.32594997  1
  Te  Te182  1  0.66275218  0.16684487  0.66728882  1
  Te  Te183  1  0.65961661  0.49715429  0.00005310  1
  Te  Te184  1  0.66417938  0.50215366  0.33360373  1
  Te  Te185  1  0.66430645  0.49866333  0.66574405  1
  Te  Te186  1  0.67150864  0.83463264  0.00448526  1
  Te  Te187  1  0.66658010  0.83304843  0.32842053  1
  Te  Te188  1  0.67355641  0.83899890  0.66679441  1
  Te  Te189  1  -0.00532995  0.00030239  0.16323469  1
  Te  Te190  1  -0.00700320  0.00066891  0.50573942  1
  Te  Te191  1  -0.00047097  -0.00021742  0.83323596  1
  Te  Te192  1  -0.00070567  0.33784877  0.16137580  1
  Te  Te193  1  0.00015976  0.33953919  0.50057943  1
  Te  Te194  1  0.00542502  0.33308843  0.84083391  1
  Te  Te195  1  -0.00023298  0.66064656  0.16845549  1
  Te  Te196  1  -0.00443319  0.66288938  0.50144541  1
  Te  Te197  1  -0.00243352  0.66686098  0.82767301  1
  Te  Te198  1  0.33414167  0.00297496  0.16427785  1
  Te  Te199  1  0.33585913  0.00488276  0.50306518  1
  Te  Te200  1  0.33240742  -0.00142323  0.83252070  1
  Te  Te201  1  0.33542140  0.33391641  0.16548437  1
  Te  Te202  1  0.33899768  0.32841648  0.50616272  1
  Te  Te203  1  0.33156039  0.33313436  0.83386160  1
  Te  Te204  1  0.33377528  0.66542267  0.16753250  1
  Te  Te205  1  0.33504550  0.66763952  0.49999910  1
  Te  Te206  1  0.33538256  0.66748989  0.83286349  1
  Te  Te207  1  0.66762753  0.00407867  0.16264185  1
  Te  Te208  1  0.66781133  0.00266719  0.50235771  1
  Te  Te209  1  0.66588847  0.00074164  0.83574372  1
  Te  Te210  1  0.66258905  0.32846719  0.16297799  1
  Te  Te211  1  0.66029602  0.32636096  0.50320694  1
  Te  Te212  1  0.66619160  0.32727407  0.83458523  1
  Te  Te213  1  0.66594828  0.66629766  0.17235291  1
  Te  Te214  1  0.67190207  0.66772069  0.49358054  1
  Te  Te215  1  0.66557378  0.66843676  0.83336501  1
