# generated using pymatgen
data_AgSbTe2
_symmetry_space_group_name_H-M   'P 1'
_cell_length_a   18.33508273
_cell_length_b   18.33997688
_cell_length_c   18.33257500
_cell_angle_alpha   89.99876230
_cell_angle_beta   89.99851084
_cell_angle_gamma   90.00042056
_symmetry_Int_Tables_number   1
_chemical_formula_structural   AgSbTe2
_chemical_formula_sum   'Ag54 Sb54 Te108'
_cell_volume   6164.60320578
_cell_formula_units_Z   54
loop_
 _symmetry_equiv_pos_site_id
 _symmetry_equiv_pos_as_xyz
  1  'x, y, z'
loop_
 _atom_site_type_symbol
 _atom_site_label
 _atom_site_symmetry_multiplicity
 _atom_site_fract_x
 _atom_site_fract_y
 _atom_site_fract_z
 _atom_site_occupancy
  Ag  Ag0  1  0.34136871  0.82251466  0.15648811  1
  Ag  Ag1  1  0.82411836  0.50688291  0.33434133  1
  Ag  Ag2  1  0.49403392  0.83679273  0.01039295  1
  Ag  Ag3  1  0.50068400  0.15719221  0.66302556  1
  Ag  Ag4  1  0.00649249  0.67031066  0.00122396  1
  Ag  Ag5  1  0.00251769  -0.00554722  -0.00548254  1
  Ag  Ag6  1  0.66700607  0.00088964  0.65766572  1
  Ag  Ag7  1  0.33977300  0.66225280  0.32614539  1
  Ag  Ag8  1  0.49809826  0.50507993  0.33328204  1
  Ag  Ag9  1  0.49615381  0.83629735  0.66672103  1
  Ag  Ag10  1  0.00548584  0.50500583  0.83585636  1
  Ag  Ag11  1  0.66027164  0.50751773  0.49372786  1
  Ag  Ag12  1  0.33388350  0.51088656  0.17593068  1
  Ag  Ag13  1  0.82215877  -0.00445935  0.49939921  1
  Ag  Ag14  1  0.49886128  0.17157565  0.32616607  1
  Ag  Ag15  1  0.33491008  0.50335942  0.49204121  1
  Ag  Ag16  1  0.33176870  0.16276155  0.83688222  1
  Ag  Ag17  1  0.50223469  0.00236964  0.16980092  1
  Ag  Ag18  1  -0.00331137  -0.00545135  0.67224668  1
  Ag  Ag19  1  0.33079237  0.33853760  0.66636571  1
  Ag  Ag20  1  0.82904386  0.16162557  0.66516927  1
  Ag  Ag21  1  0.00799717  0.83226543  0.83268311  1
  Ag  Ag22  1  0.17693269  0.17468525  0.33214021  1
  Ag  Ag23  1  0.83297091  0.67177772  0.17381123  1
  Ag  Ag24  1  0.65795627  0.83543688  0.17134119  1
  Ag  Ag25  1  0.65547858  0.15630146  0.17747394  1
  Ag  Ag26  1  0.00707936  0.67231975  0.66745815  1
  Ag  Ag27  1  0.66172653  0.66213335  0.33483252  1
  Ag  Ag28  1  0.32979149  0.67252122  0.01260914  1
  Ag  Ag29  1  -0.00231762  0.66389221  0.33072475  1
  Ag  Ag30  1  0.48974779  0.67306260  0.17371543  1
  Ag  Ag31  1  0.50386854  0.67053551  0.49170124  1
  Ag  Ag32  1  0.00260034  0.33679062  -0.00263651  1
  Ag  Ag33  1  0.34335088  0.16476490  0.16302018  1
  Ag  Ag34  1  0.16894385  0.33701383  0.50175666  1
  Ag  Ag35  1  0.66224542  0.34127397  0.33421801  1
  Ag  Ag36  1  0.17362951  0.82380197  0.66729545  1
  Ag  Ag37  1  0.82398015  -0.00678175  0.16978391  1
  Ag  Ag38  1  0.66390036  0.83676062  0.49498479  1
  Ag  Ag39  1  0.17761326  0.66567808  0.16902008  1
  Ag  Ag40  1  0.33654289  -0.00923837  0.00327782  1
  Ag  Ag41  1  0.00780019  0.16415644  0.83383918  1
  Ag  Ag42  1  0.49869943  0.31680810  0.16945928  1
  Ag  Ag43  1  0.33054142  0.83393872  0.83862678  1
  Ag  Ag44  1  0.82635561  0.66990832  0.49283695  1
  Ag  Ag45  1  0.17434376  0.50167096  0.33479128  1
  Ag  Ag46  1  0.50391464  -0.00399000  0.49838144  1
  Ag  Ag47  1  0.83159169  0.83346940  0.00392079  1
  Ag  Ag48  1  0.16632717  0.50248643  0.00094995  1
  Ag  Ag49  1  0.16650298  0.33543373  0.82962059  1
  Ag  Ag50  1  0.16920595  0.50471476  0.66476784  1
  Ag  Ag51  1  0.49552686  0.15678520  0.01389264  1
  Ag  Ag52  1  0.32825052  0.66621511  0.66478525  1
  Ag  Ag53  1  0.66236413  0.15714786  0.49478117  1
  Sb  Sb54  1  0.50118012  0.82949933  0.33036382  1
  Sb  Sb55  1  0.00420069  0.50288000  0.50110716  1
  Sb  Sb56  1  0.66423549  -0.00143382  0.33611493  1
  Sb  Sb57  1  0.83476725  0.33481339  0.49945416  1
  Sb  Sb58  1  0.83979057  0.50023975  0.65939305  1
  Sb  Sb59  1  0.65856441  0.32691359  0.65779864  1
  Sb  Sb60  1  0.83230275  0.83699214  0.66842827  1
  Sb  Sb61  1  0.32760312  0.50216949  0.83327150  1
  Sb  Sb62  1  0.32932054  0.33458599  -0.00150307  1
  Sb  Sb63  1  0.17358253  0.33884579  0.16750310  1
  Sb  Sb64  1  0.49698892  0.33360830  0.49416312  1
  Sb  Sb65  1  0.00052495  0.33920841  0.32809403  1
  Sb  Sb66  1  0.66458202  0.67200983  0.65574315  1
  Sb  Sb67  1  0.67331905  0.49973993  0.82417026  1
  Sb  Sb68  1  0.83156677  0.16009813  -0.00229501  1
  Sb  Sb69  1  0.49575909  0.66787962  0.83413160  1
  Sb  Sb70  1  0.66010550  0.50396059  0.17473946  1
  Sb  Sb71  1  0.16989783  0.82703924  -0.00454501  1
  Sb  Sb72  1  0.34154167  0.82602964  0.50144587  1
  Sb  Sb73  1  0.83717710  -0.00112150  0.83195179  1
  Sb  Sb74  1  0.33757329  -0.00277339  0.32735787  1
  Sb  Sb75  1  0.49214837  0.33017112  0.83722312  1
  Sb  Sb76  1  0.83938998  0.66890491  0.83328200  1
  Sb  Sb77  1  0.17127737  -0.00510804  0.16519514  1
  Sb  Sb78  1  0.33776324  0.33977358  0.33443841  1
  Sb  Sb79  1  0.66771762  0.33166568  0.00839880  1
  Sb  Sb80  1  0.17164165  0.17049070  0.00334698  1
  Sb  Sb81  1  0.00001281  0.83018782  0.15895487  1
  Sb  Sb82  1  0.33510822  -0.00271936  0.67074177  1
  Sb  Sb83  1  0.00688353  0.33378115  0.67128682  1
  Sb  Sb84  1  0.16657948  0.66181971  0.83629481  1
  Sb  Sb85  1  0.66263572  0.16542767  0.83131581  1
  Sb  Sb86  1  0.83128450  0.82559877  0.32884236  1
  Sb  Sb87  1  0.00759906  0.50509053  0.16397192  1
  Sb  Sb88  1  0.17093336  0.66190231  0.49850077  1
  Sb  Sb89  1  0.84045441  0.50910407  0.00778758  1
  Sb  Sb90  1  0.49206514  0.50406326  0.65822221  1
  Sb  Sb91  1  -0.00379365  0.16463535  0.50482919  1
  Sb  Sb92  1  0.82781736  0.33389193  0.16818562  1
  Sb  Sb93  1  0.16894580  0.16802786  0.66560718  1
  Sb  Sb94  1  0.17063598  0.00349564  0.50160941  1
  Sb  Sb95  1  0.66340641  0.66855514  0.01191235  1
  Sb  Sb96  1  0.33960517  0.17062807  0.49876073  1
  Sb  Sb97  1  0.16597730  0.00188612  0.83339205  1
  Sb  Sb98  1  0.16953983  0.82672634  0.33716462  1
  Sb  Sb99  1  0.66359943  0.83396313  0.83342599  1
  Sb  Sb100  1  0.49770528  -0.00038852  0.83516976  1
  Sb  Sb101  1  0.49178868  0.50335566  0.01006486  1
  Sb  Sb102  1  0.66408008  -0.00152675  0.00189059  1
  Sb  Sb103  1  0.82769795  0.16935167  0.33643966  1
  Sb  Sb104  1  0.84327498  0.33149806  0.83300805  1
  Sb  Sb105  1  -0.00574618  0.82996045  0.50601059  1
  Sb  Sb106  1  0.00004257  0.16457658  0.16211344  1
  Sb  Sb107  1  -0.00164524  -0.00486699  0.33299539  1
  Te  Te108  1  0.16819770  0.16691131  0.17180221  1
  Te  Te109  1  0.16704585  0.17104646  0.49457220  1
  Te  Te110  1  0.16864439  0.17220403  0.83365185  1
  Te  Te111  1  0.17303809  0.50360103  0.16856131  1
  Te  Te112  1  0.17065216  0.49803393  0.50103119  1
  Te  Te113  1  0.16407875  0.49580560  0.83137926  1
  Te  Te114  1  0.17191251  0.82685211  0.16819240  1
  Te  Te115  1  0.16704634  0.83497457  0.50684516  1
  Te  Te116  1  0.16847399  0.83426208  0.82693337  1
  Te  Te117  1  0.50076458  0.16027923  0.16900118  1
  Te  Te118  1  0.50341981  0.16729985  0.50421602  1
  Te  Te119  1  0.49449587  0.16640429  0.82490061  1
  Te  Te120  1  0.49447263  0.51199884  0.17177458  1
  Te  Te121  1  0.49833250  0.50100881  0.49513560  1
  Te  Te122  1  0.50322637  0.49871907  0.83431416  1
  Te  Te123  1  0.49983658  0.83279527  0.16756973  1
  Te  Te124  1  0.50404449  0.83408282  0.50154686  1
  Te  Te125  1  0.49548597  0.83330694  0.83052862  1
  Te  Te126  1  0.83007958  0.16327713  0.16676581  1
  Te  Te127  1  0.82865148  0.16347653  0.50392178  1
  Te  Te128  1  0.83648284  0.16619293  0.82851004  1
  Te  Te129  1  0.83157035  0.50293860  0.17368244  1
  Te  Te130  1  0.83136038  0.50305574  0.49459383  1
  Te  Te131  1  0.84218819  0.49988414  0.83324613  1
  Te  Te132  1  0.83405546  0.83462821  0.16359316  1
  Te  Te133  1  0.82758196  0.83455140  0.50092556  1
  Te  Te134  1  0.83565933  0.83346628  0.84195438  1
  Te  Te135  1  0.16418397  0.00152461  0.00105387  1
  Te  Te136  1  0.16631408  0.00716129  0.33412405  1
  Te  Te137  1  0.16017474  -0.00269838  0.66505277  1
  Te  Te138  1  0.16169704  0.33848947  -0.00056668  1
  Te  Te139  1  0.16634073  0.33619413  0.33495757  1
  Te  Te140  1  0.17038939  0.33505167  0.66574544  1
  Te  Te141  1  0.16702056  0.66269726  0.00269622  1
  Te  Te142  1  0.16589077  0.66312979  0.33189050  1
  Te  Te143  1  0.16519670  0.66559030  0.66449423  1
  Te  Te144  1  0.49835373  -0.00177767  0.00202293  1
  Te  Te145  1  0.49964452  0.00854453  0.33371021  1
  Te  Te146  1  0.49927274  -0.00215759  0.66601047  1
  Te  Te147  1  0.49994110  0.33225733  0.00637065  1
  Te  Te148  1  0.50243663  0.33196854  0.32940580  1
  Te  Te149  1  0.49213352  0.33389939  0.66770465  1
  Te  Te150  1  0.49507884  0.67105829  0.00275864  1
  Te  Te151  1  0.49904955  0.66681564  0.33419182  1
  Te  Te152  1  0.49740545  0.67095910  0.66456939  1
  Te  Te153  1  0.83410144  -0.00443362  0.00510392  1
  Te  Te154  1  0.83472418  0.00052836  0.33326104  1
  Te  Te155  1  0.83526462  0.00150844  0.66350181  1
  Te  Te156  1  0.84098505  0.33444532  0.00109132  1
  Te  Te157  1  0.82924829  0.34163689  0.33357855  1
  Te  Te158  1  0.83248489  0.32706994  0.66550813  1
  Te  Te159  1  0.83464516  0.67286872  0.00382373  1
  Te  Te160  1  0.83596945  0.66506974  0.33479314  1
  Te  Te161  1  0.83598321  0.66682850  0.66108801  1
  Te  Te162  1  -0.00018235  0.16002954  -0.00514275  1
  Te  Te163  1  0.00003824  0.16818103  0.33301512  1
  Te  Te164  1  0.00021422  0.16494442  0.67161860  1
  Te  Te165  1  0.00395107  0.50634883  -0.00251233  1
  Te  Te166  1  0.00567812  0.50442848  0.33275968  1
  Te  Te167  1  0.00536889  0.50230965  0.67042318  1
  Te  Te168  1  0.00386102  0.83259103  -0.00568092  1
  Te  Te169  1  0.00248513  0.82571528  0.33377071  1
  Te  Te170  1  -0.00167899  0.83273964  0.67183686  1
  Te  Te171  1  0.33623545  0.16766638  -0.00165881  1
  Te  Te172  1  0.33600046  0.16636534  0.33170403  1
  Te  Te173  1  0.33544034  0.16499455  0.66868091  1
  Te  Te174  1  0.32754366  0.50535962  0.00075047  1
  Te  Te175  1  0.33448913  0.50118827  0.33413305  1
  Te  Te176  1  0.32867922  0.50116220  0.66743196  1
  Te  Te177  1  0.33264010  0.83254038  -0.00120700  1
  Te  Te178  1  0.33251010  0.82566997  0.32934282  1
  Te  Te179  1  0.33392362  0.83199134  0.66729629  1
  Te  Te180  1  0.65913729  0.16677117  0.00146893  1
  Te  Te181  1  0.66455650  0.16688265  0.33451921  1
  Te  Te182  1  0.66489094  0.16314263  0.66438115  1
  Te  Te183  1  0.66835012  0.49951262  -0.00469500  1
  Te  Te184  1  0.66290291  0.50175487  0.33525406  1
  Te  Te185  1  0.66757549  0.49778001  0.65706880  1
  Te  Te186  1  0.66293249  0.83348501  0.00262902  1
  Te  Te187  1  0.66699213  0.82587146  0.33287573  1
  Te  Te188  1  0.66201504  0.83832646  0.66527029  1
  Te  Te189  1  -0.00162612  -0.00193714  0.16341115  1
  Te  Te190  1  -0.00312753  -0.00151272  0.50305293  1
  Te  Te191  1  0.00090053  -0.00015198  0.83315583  1
  Te  Te192  1  0.00000522  0.33356340  0.15872163  1
  Te  Te193  1  0.00628262  0.33317276  0.49910018  1
  Te  Te194  1  0.00659869  0.33123137  0.83728167  1
  Te  Te195  1  -0.00713147  0.66683613  0.16524816  1
  Te  Te196  1  -0.00461860  0.66640975  0.50122706  1
  Te  Te197  1  0.00100044  0.66891125  0.83268410  1
  Te  Te198  1  0.33622747  0.00450170  0.16251224  1
  Te  Te199  1  0.34068061  -0.00100754  0.49901144  1
  Te  Te200  1  0.33201460  -0.00010416  0.84060961  1
  Te  Te201  1  0.33853807  0.32563421  0.16597328  1
  Te  Te202  1  0.32990136  0.33790819  0.50431779  1
  Te  Te203  1  0.32736936  0.33187795  0.83000798  1
  Te  Te204  1  0.33326793  0.66615691  0.16781624  1
  Te  Te205  1  0.33710624  0.66251393  0.50533232  1
  Te  Te206  1  0.33262794  0.67149303  0.82440152  1
  Te  Te207  1  0.66503786  -0.00304063  0.16681820  1
  Te  Te208  1  0.66438762  -0.00171415  0.49946781  1
  Te  Te209  1  0.66880185  0.00003708  0.82209802  1
  Te  Te210  1  0.66072867  0.33077000  0.17262958  1
  Te  Te211  1  0.66701138  0.33340605  0.49361419  1
  Te  Te212  1  0.66823985  0.33376523  0.83301293  1
  Te  Te213  1  0.67252406  0.67000573  0.17303691  1
  Te  Te214  1  0.66459184  0.66752177  0.49619682  1
  Te  Te215  1  0.66856238  0.66546907  0.83230906  1
