# generated using pymatgen
data_AgSbTe2
_symmetry_space_group_name_H-M   'P 1'
_cell_length_a   18.32280303
_cell_length_b   18.32642073
_cell_length_c   18.32315461
_cell_angle_alpha   90.00190512
_cell_angle_beta   89.99847980
_cell_angle_gamma   90.00116569
_symmetry_Int_Tables_number   1
_chemical_formula_structural   AgSbTe2
_chemical_formula_sum   'Ag54 Sb54 Te108'
_cell_volume   6152.75768643
_cell_formula_units_Z   54
loop_
 _symmetry_equiv_pos_site_id
 _symmetry_equiv_pos_as_xyz
  1  'x, y, z'
loop_
 _atom_site_type_symbol
 _atom_site_label
 _atom_site_symmetry_multiplicity
 _atom_site_fract_x
 _atom_site_fract_y
 _atom_site_fract_z
 _atom_site_occupancy
  Ag  Ag0  1  0.49183020  0.17181063  0.00743783  1
  Ag  Ag1  1  0.65870097  0.32565525  0.33059145  1
  Ag  Ag2  1  0.33548117  0.49574453  0.50281513  1
  Ag  Ag3  1  0.65445582  0.16458260  0.16687738  1
  Ag  Ag4  1  0.17536821  0.32763175  0.16545100  1
  Ag  Ag5  1  0.49555628  0.33289145  0.49611272  1
  Ag  Ag6  1  0.50265992  0.17109304  0.32157169  1
  Ag  Ag7  1  0.82347126  0.17079296  0.32584052  1
  Ag  Ag8  1  0.33856492  0.66631327  0.66966734  1
  Ag  Ag9  1  0.66821208  0.00678390  0.32798041  1
  Ag  Ag10  1  0.49926957  0.66404742  0.83519648  1
  Ag  Ag11  1  -0.00661123  -0.00655205  0.67363629  1
  Ag  Ag12  1  -0.00302806  0.33412375  0.66325086  1
  Ag  Ag13  1  0.33324010  0.84205193  0.16394985  1
  Ag  Ag14  1  0.83184831  0.15515949  0.00513298  1
  Ag  Ag15  1  0.66828075  0.66647081  -0.00188771  1
  Ag  Ag16  1  -0.00915070  0.67003654  0.67270442  1
  Ag  Ag17  1  0.66935694  -0.00169363  0.66689358  1
  Ag  Ag18  1  0.17309490  0.50115382  0.00349459  1
  Ag  Ag19  1  0.49841266  0.16501951  0.66829202  1
  Ag  Ag20  1  0.49839837  0.01015339  0.16450632  1
  Ag  Ag21  1  0.50027991  0.66247608  0.50555975  1
  Ag  Ag22  1  0.66912231  0.83267461  0.83410466  1
  Ag  Ag23  1  0.49166512  0.49476465  -0.00113213  1
  Ag  Ag24  1  0.16391059  0.83735156  0.00336977  1
  Ag  Ag25  1  0.16715646  0.49772291  0.32580378  1
  Ag  Ag26  1  0.33611772  0.32480461  0.00557329  1
  Ag  Ag27  1  0.17590365  0.00353931  0.16154342  1
  Ag  Ag28  1  0.32898120  0.01070637  0.00321586  1
  Ag  Ag29  1  0.34197914  0.16604025  0.16016346  1
  Ag  Ag30  1  0.33688849  0.33144757  0.32275719  1
  Ag  Ag31  1  -0.00506591  0.67235558  -0.00644407  1
  Ag  Ag32  1  0.33860826  0.17221315  0.84711905  1
  Ag  Ag33  1  0.00049551  0.33332418  0.33448802  1
  Ag  Ag34  1  0.49862434  0.66702547  0.15491748  1
  Ag  Ag35  1  0.83380851  0.50636211  -0.00208607  1
  Ag  Ag36  1  0.83209529  0.83093587  0.67572906  1
  Ag  Ag37  1  0.83168047  0.00310389  0.15771195  1
  Ag  Ag38  1  -0.00073006  0.83172130  0.50342997  1
  Ag  Ag39  1  -0.00171313  -0.00378617  -0.00133417  1
  Ag  Ag40  1  0.33690105  0.49934758  0.83464217  1
  Ag  Ag41  1  0.83648374  0.49499219  0.33236264  1
  Ag  Ag42  1  0.83238919  -0.00919005  0.84076446  1
  Ag  Ag43  1  0.50591400  0.83243025  0.66818076  1
  Ag  Ag44  1  0.83556526  0.51414220  0.67041512  1
  Ag  Ag45  1  0.83173756  0.66598872  0.51342535  1
  Ag  Ag46  1  0.17942245  0.16000157  0.00347844  1
  Ag  Ag47  1  0.16805106  0.83014794  0.32216548  1
  Ag  Ag48  1  0.49465553  0.32272743  0.16591151  1
  Ag  Ag49  1  0.49631352  0.33327073  0.84185628  1
  Ag  Ag50  1  0.83303993  0.67085050  0.83313484  1
  Ag  Ag51  1  0.16487728  0.66592073  0.83703562  1
  Ag  Ag52  1  0.83818828  0.83587096  -0.00570098  1
  Ag  Ag53  1  0.33816114  0.17430157  0.49588587  1
  Sb  Sb54  1  0.33237125  0.33648813  0.66871768  1
  Sb  Sb55  1  0.16664536  0.66591658  0.50441649  1
  Sb  Sb56  1  0.50201957  0.50129686  0.67072430  1
  Sb  Sb57  1  0.50363522  0.00038884  0.83804868  1
  Sb  Sb58  1  0.66751330  0.67153460  0.67388679  1
  Sb  Sb59  1  0.49855477  0.49235146  0.32920810  1
  Sb  Sb60  1  0.66898550  -0.00174124  0.00168214  1
  Sb  Sb61  1  0.33402167  0.66028669  0.33522547  1
  Sb  Sb62  1  0.49917631  0.00279185  0.49733269  1
  Sb  Sb63  1  0.00021676  0.49971748  0.16588023  1
  Sb  Sb64  1  0.82883566  0.33567486  0.83520288  1
  Sb  Sb65  1  0.65852794  0.33419421  0.00459162  1
  Sb  Sb66  1  0.83648459  0.83365533  0.33198571  1
  Sb  Sb67  1  0.33442806  0.49473995  0.16263060  1
  Sb  Sb68  1  0.49991589  0.83296044  -0.00192160  1
  Sb  Sb69  1  -0.00737732  0.83124473  0.83245086  1
  Sb  Sb70  1  0.49621702  0.83613554  0.33404609  1
  Sb  Sb71  1  0.83143198  0.32803116  0.16718742  1
  Sb  Sb72  1  0.66269734  0.50550438  0.83609239  1
  Sb  Sb73  1  0.00185082  0.16596334  0.16466062  1
  Sb  Sb74  1  0.17082995  0.16954028  0.32483556  1
  Sb  Sb75  1  0.00334178  0.16650533  0.83520546  1
  Sb  Sb76  1  0.66645698  0.32800431  0.66273523  1
  Sb  Sb77  1  0.00209353  0.50312740  0.50110947  1
  Sb  Sb78  1  0.66255493  0.83925172  0.16194332  1
  Sb  Sb79  1  0.16321341  0.83198469  0.67265808  1
  Sb  Sb80  1  0.00325579  0.16486186  0.50012049  1
  Sb  Sb81  1  0.83364521  -0.00378113  0.50112672  1
  Sb  Sb82  1  0.17283568  0.16668005  0.67406655  1
  Sb  Sb83  1  0.33432991  0.66458232  -0.00402007  1
  Sb  Sb84  1  0.17328984  0.33738599  0.84051926  1
  Sb  Sb85  1  0.00483501  0.83497680  0.16490994  1
  Sb  Sb86  1  -0.00361004  0.00320087  0.32925706  1
  Sb  Sb87  1  0.00450191  0.33278713  0.00163629  1
  Sb  Sb88  1  0.33443305  -0.00251565  0.67368399  1
  Sb  Sb89  1  0.66476384  0.49442087  0.16598844  1
  Sb  Sb90  1  0.17230029  0.66768042  0.15933876  1
  Sb  Sb91  1  0.00261547  0.50220207  0.83430168  1
  Sb  Sb92  1  0.16527659  0.50077540  0.66981466  1
  Sb  Sb93  1  0.17237234  0.33490371  0.49298037  1
  Sb  Sb94  1  0.16300001  -0.00527345  0.84225415  1
  Sb  Sb95  1  0.66126504  0.16227862  0.83936632  1
  Sb  Sb96  1  0.33071682  0.83180785  0.49721979  1
  Sb  Sb97  1  0.33796087  0.83131919  0.83855576  1
  Sb  Sb98  1  0.66582305  0.66593900  0.32800724  1
  Sb  Sb99  1  0.82827799  0.67049421  0.15841700  1
  Sb  Sb100  1  0.16679279  -0.00095125  0.49230427  1
  Sb  Sb101  1  0.82938155  0.16146277  0.66828891  1
  Sb  Sb102  1  0.33718677  0.00721242  0.32308822  1
  Sb  Sb103  1  -0.00027439  0.66401542  0.33388151  1
  Sb  Sb104  1  0.82976075  0.33798935  0.49655512  1
  Sb  Sb105  1  0.66955971  0.83213445  0.50485121  1
  Sb  Sb106  1  0.66051557  0.16680683  0.49175862  1
  Sb  Sb107  1  0.66245085  0.50122686  0.49998366  1
  Te  Te108  1  0.16828660  0.16551424  0.16117858  1
  Te  Te109  1  0.17446001  0.16643266  0.50022028  1
  Te  Te110  1  0.17421169  0.16768801  0.84241659  1
  Te  Te111  1  0.16730421  0.49884618  0.16588355  1
  Te  Te112  1  0.17399559  0.50069063  0.49565416  1
  Te  Te113  1  0.17365194  0.50454390  0.83760737  1
  Te  Te114  1  0.17042174  0.83430942  0.16363747  1
  Te  Te115  1  0.16221499  0.83303200  0.49707582  1
  Te  Te116  1  0.16919561  0.82679255  0.84084609  1
  Te  Te117  1  0.49861092  0.16690347  0.16614576  1
  Te  Te118  1  0.49653327  0.16870115  0.50509196  1
  Te  Te119  1  0.49748114  0.16736196  0.83256365  1
  Te  Te120  1  0.50038810  0.50675898  0.16045414  1
  Te  Te121  1  0.49586606  0.50042769  0.50034483  1
  Te  Te122  1  0.49743187  0.50101110  0.83694947  1
  Te  Te123  1  0.49535993  0.82900424  0.16782821  1
  Te  Te124  1  0.49894104  0.82917739  0.50496120  1
  Te  Te125  1  0.50516198  0.83096162  0.82906640  1
  Te  Te126  1  0.83549039  0.16395722  0.16706406  1
  Te  Te127  1  0.83401081  0.16738353  0.49489615  1
  Te  Te128  1  0.83139463  0.16651883  0.83815027  1
  Te  Te129  1  0.83257630  0.50013724  0.16618092  1
  Te  Te130  1  0.83383924  0.50525713  0.50020605  1
  Te  Te131  1  0.83183895  0.50285101  0.83447123  1
  Te  Te132  1  0.83217166  0.83915503  0.16311429  1
  Te  Te133  1  0.83707796  0.82790009  0.49996172  1
  Te  Te134  1  0.83111474  0.83238658  0.83379901  1
  Te  Te135  1  0.16416141  -0.00060579  0.00270355  1
  Te  Te136  1  0.16494475  -0.00316606  0.32411921  1
  Te  Te137  1  0.16016282  -0.00040724  0.66794272  1
  Te  Te138  1  0.16900646  0.33754502  0.00430622  1
  Te  Te139  1  0.16795077  0.33549633  0.32793400  1
  Te  Te140  1  0.15818076  0.33305883  0.66717277  1
  Te  Te141  1  0.16579680  0.66332239  -0.00330454  1
  Te  Te142  1  0.16577954  0.66465567  0.33257155  1
  Te  Te143  1  0.16537598  0.66628870  0.67287042  1
  Te  Te144  1  0.49937679  0.00242244  0.00422800  1
  Te  Te145  1  0.50447816  0.00414650  0.32957793  1
  Te  Te146  1  0.50095844  -0.00248843  0.66688260  1
  Te  Te147  1  0.49815613  0.33326254  0.00151464  1
  Te  Te148  1  0.49814320  0.33231033  0.33183914  1
  Te  Te149  1  0.50042101  0.33180934  0.66357887  1
  Te  Te150  1  0.50068630  0.66690885  -0.00382603  1
  Te  Te151  1  0.50089747  0.66591115  0.33956337  1
  Te  Te152  1  0.50158277  0.66699024  0.66791826  1
  Te  Te153  1  0.83229270  -0.00271245  -0.00111821  1
  Te  Te154  1  0.83034238  0.00310590  0.33141186  1
  Te  Te155  1  0.83386013  -0.00325292  0.66784868  1
  Te  Te156  1  0.83446910  0.34074516  0.00029616  1
  Te  Te157  1  0.83544202  0.33396452  0.33241775  1
  Te  Te158  1  0.83622612  0.33118070  0.66576747  1
  Te  Te159  1  0.83494690  0.66707093  -0.00257598  1
  Te  Te160  1  0.83316283  0.66227373  0.33244619  1
  Te  Te161  1  0.83110802  0.67020169  0.66955331  1
  Te  Te162  1  -0.00948550  0.16422917  -0.00150498  1
  Te  Te163  1  -0.00223737  0.17190279  0.33597332  1
  Te  Te164  1  0.00070956  0.16507857  0.66674191  1
  Te  Te165  1  -0.00005649  0.50132467  -0.00046894  1
  Te  Te166  1  -0.00005774  0.49596484  0.33386963  1
  Te  Te167  1  -0.00355857  0.50324714  0.66715317  1
  Te  Te168  1  0.00033182  0.83382867  0.00028162  1
  Te  Te169  1  0.00558799  0.83374192  0.33786214  1
  Te  Te170  1  -0.00137992  0.83198069  0.66484969  1
  Te  Te171  1  0.33527484  0.16745892  0.00294008  1
  Te  Te172  1  0.33624751  0.17130485  0.33450441  1
  Te  Te173  1  0.33804415  0.16568150  0.66278821  1
  Te  Te174  1  0.33359530  0.49895805  -0.00323309  1
  Te  Te175  1  0.33083610  0.49366026  0.33565093  1
  Te  Te176  1  0.33350971  0.50490589  0.66863804  1
  Te  Te177  1  0.33105050  0.83456211  0.00437869  1
  Te  Te178  1  0.32740193  0.83341320  0.32926251  1
  Te  Te179  1  0.33500355  0.82865042  0.66648598  1
  Te  Te180  1  0.67172941  0.16704302  0.00618822  1
  Te  Te181  1  0.66539625  0.16655720  0.33016215  1
  Te  Te182  1  0.66086643  0.16039027  0.66693707  1
  Te  Te183  1  0.67013183  0.50395828  0.00078210  1
  Te  Te184  1  0.67315188  0.49695611  0.33285490  1
  Te  Te185  1  0.67662891  0.49732346  0.66713450  1
  Te  Te186  1  0.66999648  0.82914489  -0.00409942  1
  Te  Te187  1  0.66623910  0.83978896  0.33304096  1
  Te  Te188  1  0.66780430  0.83737108  0.67021021  1
  Te  Te189  1  -0.00466740  -0.00062268  0.16131112  1
  Te  Te190  1  0.00087706  -0.00455042  0.50310101  1
  Te  Te191  1  -0.00516018  0.00086517  0.83462238  1
  Te  Te192  1  0.00578139  0.33321133  0.17194033  1
  Te  Te193  1  0.00052590  0.33335658  0.49992990  1
  Te  Te194  1  -0.00070261  0.33418005  0.82689163  1
  Te  Te195  1  -0.00059524  0.66751152  0.15917379  1
  Te  Te196  1  -0.00260120  0.66990996  0.50315877  1
  Te  Te197  1  -0.00181763  0.66560451  0.83352434  1
  Te  Te198  1  0.33531182  0.00266226  0.16327251  1
  Te  Te199  1  0.33221159  0.00309342  0.50124285  1
  Te  Te200  1  0.33251996  0.00428029  0.84079988  1
  Te  Te201  1  0.33442056  0.33290182  0.16499008  1
  Te  Te202  1  0.33682958  0.33468434  0.50313744  1
  Te  Te203  1  0.33797993  0.33419931  0.83413532  1
  Te  Te204  1  0.33950285  0.66935478  0.16777288  1
  Te  Te205  1  0.33598082  0.66411386  0.50423689  1
  Te  Te206  1  0.33848372  0.66589969  0.83004521  1
  Te  Te207  1  0.66579582  0.00338943  0.16757517  1
  Te  Te208  1  0.66699038  -0.00046757  0.50216323  1
  Te  Te209  1  0.67134853  -0.00402078  0.82982802  1
  Te  Te210  1  0.66174399  0.32743133  0.17174146  1
  Te  Te211  1  0.65911097  0.33399238  0.49264381  1
  Te  Te212  1  0.65694626  0.33271965  0.83165481  1
  Te  Te213  1  0.65969888  0.66770763  0.16037395  1
  Te  Te214  1  0.66611115  0.66689215  0.49721180  1
  Te  Te215  1  0.66684511  0.67050321  0.83837302  1
