# generated using pymatgen
data_AgSbTe2
_symmetry_space_group_name_H-M   'P 1'
_cell_length_a   18.35173859
_cell_length_b   18.34617714
_cell_length_c   18.34544444
_cell_angle_alpha   89.99740301
_cell_angle_beta   89.99946726
_cell_angle_gamma   89.99907964
_symmetry_Int_Tables_number   1
_chemical_formula_structural   AgSbTe2
_chemical_formula_sum   'Ag54 Sb54 Te108'
_cell_volume   6176.62214221
_cell_formula_units_Z   54
loop_
 _symmetry_equiv_pos_site_id
 _symmetry_equiv_pos_as_xyz
  1  'x, y, z'
loop_
 _atom_site_type_symbol
 _atom_site_label
 _atom_site_symmetry_multiplicity
 _atom_site_fract_x
 _atom_site_fract_y
 _atom_site_fract_z
 _atom_site_occupancy
  Ag  Ag0  1  0.67901918  0.83582861  0.16414984  1
  Ag  Ag1  1  0.83917441  -0.00035749  0.16328563  1
  Ag  Ag2  1  0.84599046  0.16819007  -0.00383137  1
  Ag  Ag3  1  0.33056905  0.00306220  0.67012284  1
  Ag  Ag4  1  0.48687591  0.50056631  -0.00259119  1
  Ag  Ag5  1  0.15822801  0.17530961  -0.00117227  1
  Ag  Ag6  1  0.50145429  0.66350621  0.50384843  1
  Ag  Ag7  1  0.15812982  0.16877129  0.32184559  1
  Ag  Ag8  1  -0.00137972  0.65973590  -0.01111686  1
  Ag  Ag9  1  0.15270667  0.66596544  0.50832497  1
  Ag  Ag10  1  0.83630215  0.34045226  0.50771410  1
  Ag  Ag11  1  0.32340526  0.49877112  0.14961105  1
  Ag  Ag12  1  0.84114946  0.16822853  0.67543756  1
  Ag  Ag13  1  0.16032192  0.32977823  0.16076736  1
  Ag  Ag14  1  -0.00336879  0.50635710  0.83696159  1
  Ag  Ag15  1  0.32752760  0.65545543  -0.00464935  1
  Ag  Ag16  1  0.16050614  0.16317991  0.67600392  1
  Ag  Ag17  1  0.00215025  0.16708320  0.15526149  1
  Ag  Ag18  1  0.50153386  -0.00198852  0.15904288  1
  Ag  Ag19  1  -0.00279082  0.83803343  0.16073004  1
  Ag  Ag20  1  0.50200787  0.34323055  0.83913375  1
  Ag  Ag21  1  0.67208007  0.50138844  0.83632268  1
  Ag  Ag22  1  0.83550468  0.33983832  0.83353071  1
  Ag  Ag23  1  0.15476596  0.66389226  0.83383982  1
  Ag  Ag24  1  0.49849837  0.00002340  0.83954691  1
  Ag  Ag25  1  -0.00193418  0.33319741  0.32121378  1
  Ag  Ag26  1  0.67960512  0.50264499  0.50813709  1
  Ag  Ag27  1  0.83870540  0.65930983  0.50885219  1
  Ag  Ag28  1  0.00146090  0.33024448  0.00108019  1
  Ag  Ag29  1  0.67223127  0.34007534  -0.00366166  1
  Ag  Ag30  1  0.15849797  0.83370628  0.66782575  1
  Ag  Ag31  1  0.67006584  0.65663003  -0.00487230  1
  Ag  Ag32  1  -0.00161267  0.82065745  0.83443141  1
  Ag  Ag33  1  0.83673698  0.83409190  0.33263814  1
  Ag  Ag34  1  0.50505454  0.82623310  0.33043322  1
  Ag  Ag35  1  0.32357356  0.17377773  0.83306554  1
  Ag  Ag36  1  0.84052255  0.82321221  0.66391416  1
  Ag  Ag37  1  0.84079981  0.16684761  0.33002762  1
  Ag  Ag38  1  0.00218145  0.16994103  0.84265104  1
  Ag  Ag39  1  0.49962440  0.50286293  0.32548178  1
  Ag  Ag40  1  0.67413740  0.00141513  0.00233124  1
  Ag  Ag41  1  0.17167729  0.49631916  -0.00111795  1
  Ag  Ag42  1  -0.00255902  0.82358953  0.51416176  1
  Ag  Ag43  1  0.00248448  0.49336936  0.15376523  1
  Ag  Ag44  1  -0.00359993  0.50513088  0.50319833  1
  Ag  Ag45  1  0.32204476  0.34286035  -0.00223648  1
  Ag  Ag46  1  0.32909022  0.16769561  0.50998308  1
  Ag  Ag47  1  0.49973195  0.66045194  0.83690103  1
  Ag  Ag48  1  0.83737557  0.50413090  0.67150293  1
  Ag  Ag49  1  0.84424050  0.65736816  0.83031577  1
  Ag  Ag50  1  -0.00198676  0.01447723  0.00333538  1
  Ag  Ag51  1  0.15621085  0.00692422  0.16317636  1
  Ag  Ag52  1  -0.00157568  0.66828690  0.67547779  1
  Ag  Ag53  1  0.33622258  0.49780697  0.83877110  1
  Sb  Sb54  1  0.84076437  0.32948860  0.16053211  1
  Sb  Sb55  1  0.49559200  0.33224988  0.15930207  1
  Sb  Sb56  1  0.66804535  0.66522267  0.33006615  1
  Sb  Sb57  1  0.49817546  0.16561997  0.67024310  1
  Sb  Sb58  1  -0.00138432  0.00622445  0.32489674  1
  Sb  Sb59  1  -0.00121750  0.66386013  0.33501687  1
  Sb  Sb60  1  0.84010976  0.49451304  -0.00713824  1
  Sb  Sb61  1  0.50484858  0.50268538  0.67527422  1
  Sb  Sb62  1  0.83291839  0.00045526  0.83934259  1
  Sb  Sb63  1  0.16390877  -0.00050145  0.49935773  1
  Sb  Sb64  1  0.16614740  0.49804484  0.32724985  1
  Sb  Sb65  1  0.67686796  0.16153731  0.16279636  1
  Sb  Sb66  1  0.33259507  0.00182546  0.33367810  1
  Sb  Sb67  1  0.67399360  0.33586971  0.32644815  1
  Sb  Sb68  1  0.32588621  0.66907049  0.67295750  1
  Sb  Sb69  1  0.67630493  0.66614462  0.67199047  1
  Sb  Sb70  1  -0.00120307  0.33616616  0.67225891  1
  Sb  Sb71  1  0.67476446  0.82487966  0.49468448  1
  Sb  Sb72  1  0.33071010  0.32979079  0.67659163  1
  Sb  Sb73  1  0.49907509  0.16794530  0.33151591  1
  Sb  Sb74  1  0.32893063  0.83337587  0.50129167  1
  Sb  Sb75  1  0.33104742  0.00192910  -0.00296952  1
  Sb  Sb76  1  0.67322085  0.82700598  0.83965730  1
  Sb  Sb77  1  0.66813885  -0.00204888  0.32695237  1
  Sb  Sb78  1  0.49852091  -0.00468163  0.50032377  1
  Sb  Sb79  1  0.32853976  0.33368208  0.32812817  1
  Sb  Sb80  1  0.50019891  0.66800819  0.16181592  1
  Sb  Sb81  1  0.00195203  0.16838033  0.50156709  1
  Sb  Sb82  1  0.66849782  0.17362567  0.50028826  1
  Sb  Sb83  1  0.16722555  0.00101001  0.83702122  1
  Sb  Sb84  1  0.50403829  0.34090524  0.50472928  1
  Sb  Sb85  1  0.50110386  0.83022516  0.66500325  1
  Sb  Sb86  1  0.83682130  0.83644466  0.00014517  1
  Sb  Sb87  1  0.33044427  0.49789314  0.50479214  1
  Sb  Sb88  1  0.00184227  -0.00488334  0.67403874  1
  Sb  Sb89  1  0.16193029  0.33619404  0.84012698  1
  Sb  Sb90  1  0.16072703  0.83151131  -0.00447300  1
  Sb  Sb91  1  0.49780454  0.17078082  -0.00137461  1
  Sb  Sb92  1  0.15964020  0.50022806  0.67425660  1
  Sb  Sb93  1  0.32914957  0.83088858  0.16526368  1
  Sb  Sb94  1  0.32935176  0.83057233  0.83349987  1
  Sb  Sb95  1  0.83359796  0.50070758  0.33999194  1
  Sb  Sb96  1  0.67184217  0.33597310  0.67430544  1
  Sb  Sb97  1  0.15934572  0.33568967  0.49534741  1
  Sb  Sb98  1  0.83495714  -0.00013694  0.49796336  1
  Sb  Sb99  1  0.67029860  0.17212222  0.83684253  1
  Sb  Sb100  1  0.50259579  0.82860793  0.00192936  1
  Sb  Sb101  1  0.16333827  0.66580575  0.16062705  1
  Sb  Sb102  1  0.32427652  0.17023718  0.16080377  1
  Sb  Sb103  1  0.15886709  0.83710510  0.33597310  1
  Sb  Sb104  1  0.33428536  0.66455363  0.32982862  1
  Sb  Sb105  1  0.66602726  -0.00069550  0.67626565  1
  Sb  Sb106  1  0.83595334  0.67028298  0.16094140  1
  Sb  Sb107  1  0.67036649  0.50339913  0.15976259  1
  Te  Te108  1  0.16388216  0.16765294  0.16312328  1
  Te  Te109  1  0.16967291  0.16760326  0.50165425  1
  Te  Te110  1  0.16599106  0.16671916  0.83552419  1
  Te  Te111  1  0.16395267  0.49902240  0.16303711  1
  Te  Te112  1  0.16283353  0.50441530  0.50008745  1
  Te  Te113  1  0.16132780  0.50268688  0.83649826  1
  Te  Te114  1  0.16187717  0.83768199  0.16866296  1
  Te  Te115  1  0.16167701  0.82931121  0.50386050  1
  Te  Te116  1  0.16166309  0.83033759  0.82834237  1
  Te  Te117  1  0.49906084  0.16000663  0.16837852  1
  Te  Te118  1  0.49565561  0.16789068  0.49998517  1
  Te  Te119  1  0.50011005  0.16262204  0.83304395  1
  Te  Te120  1  0.50107489  0.49962467  0.16310862  1
  Te  Te121  1  0.49812740  0.50349991  0.50323441  1
  Te  Te122  1  0.50129191  0.50027169  0.83583940  1
  Te  Te123  1  0.49649285  0.83644973  0.17060379  1
  Te  Te124  1  0.50176852  0.82778184  0.49567708  1
  Te  Te125  1  0.50134376  0.83427965  0.83255664  1
  Te  Te126  1  0.84007243  0.16345551  0.16759600  1
  Te  Te127  1  0.83378512  0.16862757  0.49695343  1
  Te  Te128  1  0.83477779  0.16698486  0.83544623  1
  Te  Te129  1  0.83973954  0.50168073  0.17143577  1
  Te  Te130  1  0.83565918  0.50051714  0.50104324  1
  Te  Te131  1  0.83506412  0.49953235  0.83187981  1
  Te  Te132  1  0.83658321  0.83572795  0.16826522  1
  Te  Te133  1  0.83728214  0.83263171  0.49997221  1
  Te  Te134  1  0.83772945  0.83324989  0.82843041  1
  Te  Te135  1  0.16313653  0.00086889  0.00395171  1
  Te  Te136  1  0.16768648  0.00685795  0.32725700  1
  Te  Te137  1  0.16867715  0.00078185  0.66716663  1
  Te  Te138  1  0.16402192  0.33510799  0.00091090  1
  Te  Te139  1  0.16145795  0.32966210  0.32757276  1
  Te  Te140  1  0.16607154  0.32359431  0.66370658  1
  Te  Te141  1  0.16440206  0.66467181  -0.00383385  1
  Te  Te142  1  0.16852878  0.66773305  0.34188243  1
  Te  Te143  1  0.16165169  0.66682887  0.66869870  1
  Te  Te144  1  0.49759548  -0.00085604  -0.00065640  1
  Te  Te145  1  0.50035224  -0.00283651  0.33144063  1
  Te  Te146  1  0.49578532  -0.00211023  0.67110396  1
  Te  Te147  1  0.50262217  0.33751420  -0.00327586  1
  Te  Te148  1  0.50127497  0.33720686  0.33347434  1
  Te  Te149  1  0.50130965  0.33321847  0.67630597  1
  Te  Te150  1  0.50404578  0.66248510  -0.00274695  1
  Te  Te151  1  0.50098581  0.66488788  0.33386165  1
  Te  Te152  1  0.49792049  0.66811181  0.66701432  1
  Te  Te153  1  0.83503344  0.00354335  0.00392916  1
  Te  Te154  1  0.83238125  -0.00060907  0.32766463  1
  Te  Te155  1  0.83282958  0.00671050  0.66694153  1
  Te  Te156  1  0.83462797  0.32828832  -0.00348181  1
  Te  Te157  1  0.83738697  0.33110115  0.33385490  1
  Te  Te158  1  0.83394467  0.33056237  0.66820259  1
  Te  Te159  1  0.83302483  0.66928432  -0.00575127  1
  Te  Te160  1  0.83187231  0.67258188  0.33990369  1
  Te  Te161  1  0.83738092  0.66530991  0.66802994  1
  Te  Te162  1  0.00167785  0.16979160  0.00047287  1
  Te  Te163  1  -0.00004272  0.17114897  0.33674647  1
  Te  Te164  1  0.00038686  0.16420595  0.66703307  1
  Te  Te165  1  -0.00077117  0.49995949  -0.00234647  1
  Te  Te166  1  0.00092563  0.49414632  0.33781734  1
  Te  Te167  1  -0.00311671  0.50305315  0.66642309  1
  Te  Te168  1  0.00008871  0.82460934  -0.00140459  1
  Te  Te169  1  -0.00320040  0.83473961  0.32347220  1
  Te  Te170  1  -0.00114793  0.83249398  0.67145197  1
  Te  Te171  1  0.32999441  0.16954321  -0.00600583  1
  Te  Te172  1  0.32976974  0.16770060  0.33471378  1
  Te  Te173  1  0.33254348  0.16396490  0.67189698  1
  Te  Te174  1  0.33155554  0.49968510  -0.00553962  1
  Te  Te175  1  0.33899677  0.49850468  0.33385745  1
  Te  Te176  1  0.33173163  0.49926166  0.67506196  1
  Te  Te177  1  0.33248649  0.82585442  -0.00005402  1
  Te  Te178  1  0.33994703  0.83331555  0.33412234  1
  Te  Te179  1  0.32809955  0.83977471  0.66554165  1
  Te  Te180  1  0.66704306  0.16276804  0.00042813  1
  Te  Te181  1  0.67395428  0.16707944  0.33309400  1
  Te  Te182  1  0.67614636  0.16690159  0.66618597  1
  Te  Te183  1  0.67025779  0.49962465  -0.00258200  1
  Te  Te184  1  0.66023726  0.49970256  0.33144860  1
  Te  Te185  1  0.67423361  0.50092982  0.66833237  1
  Te  Te186  1  0.66770488  0.84069167  0.00537792  1
  Te  Te187  1  0.66697546  0.83219158  0.32733342  1
  Te  Te188  1  0.67546901  0.83427163  0.66547327  1
  Te  Te189  1  -0.00070036  0.00215880  0.16339803  1
  Te  Te190  1  -0.00008476  -0.01061111  0.49938459  1
  Te  Te191  1  0.00021230  0.01010781  0.84061964  1
  Te  Te192  1  0.00123067  0.33279217  0.16353772  1
  Te  Te193  1  -0.00494421  0.33674462  0.50222215  1
  Te  Te194  1  -0.00385027  0.32911760  0.83643854  1
  Te  Te195  1  0.00025231  0.66649814  0.16561099  1
  Te  Te196  1  -0.00308926  0.66704330  0.49637139  1
  Te  Te197  1  -0.00092204  0.66551888  0.83229482  1
  Te  Te198  1  0.33757351  -0.00006578  0.16558653  1
  Te  Te199  1  0.33231797  0.00570690  0.50554149  1
  Te  Te200  1  0.33598713  0.00020757  0.83134965  1
  Te  Te201  1  0.32805936  0.33831512  0.16086798  1
  Te  Te202  1  0.33390660  0.32870032  0.50065568  1
  Te  Te203  1  0.33408968  0.33354488  0.83854932  1
  Te  Te204  1  0.33172695  0.65928333  0.16064974  1
  Te  Te205  1  0.34028359  0.66539134  0.50099719  1
  Te  Te206  1  0.33963367  0.66449290  0.83632104  1
  Te  Te207  1  0.66436783  -0.00382632  0.16197380  1
  Te  Te208  1  0.66485654  0.00080881  0.50193369  1
  Te  Te209  1  0.66124907  -0.00199400  0.84029830  1
  Te  Te210  1  0.66556699  0.33330939  0.15800911  1
  Te  Te211  1  0.67267331  0.34144497  0.49823536  1
  Te  Te212  1  0.66884735  0.33800260  0.83843080  1
  Te  Te213  1  0.66820815  0.67314150  0.15755058  1
  Te  Te214  1  0.66433752  0.66051642  0.50030775  1
  Te  Te215  1  0.66061009  0.66361798  0.83650874  1
