# generated using pymatgen
data_AgSbTe2
_symmetry_space_group_name_H-M   'P 1'
_cell_length_a   18.33517950
_cell_length_b   18.34051737
_cell_length_c   18.33898114
_cell_angle_alpha   89.99816783
_cell_angle_beta   90.00093363
_cell_angle_gamma   90.00134591
_symmetry_Int_Tables_number   1
_chemical_formula_structural   AgSbTe2
_chemical_formula_sum   'Ag54 Sb54 Te108'
_cell_volume   6166.97165048
_cell_formula_units_Z   54
loop_
 _symmetry_equiv_pos_site_id
 _symmetry_equiv_pos_as_xyz
  1  'x, y, z'
loop_
 _atom_site_type_symbol
 _atom_site_label
 _atom_site_symmetry_multiplicity
 _atom_site_fract_x
 _atom_site_fract_y
 _atom_site_fract_z
 _atom_site_occupancy
  Ag  Ag0  1  0.32988652  0.16304586  0.83674797  1
  Ag  Ag1  1  0.50057210  0.33608613  0.49943785  1
  Ag  Ag2  1  0.66082224  0.66952186  -0.00662677  1
  Ag  Ag3  1  0.17467019  0.17210237  -0.00568539  1
  Ag  Ag4  1  0.33713961  0.66768381  0.33075084  1
  Ag  Ag5  1  0.17383165  0.33363288  0.15288337  1
  Ag  Ag6  1  0.49079862  0.16244511  -0.00601185  1
  Ag  Ag7  1  0.33759219  0.50553008  0.49334424  1
  Ag  Ag8  1  -0.00125654  0.49562432  0.83431463  1
  Ag  Ag9  1  0.17962531  0.83114661  -0.00478973  1
  Ag  Ag10  1  0.83360913  0.33849551  0.83600987  1
  Ag  Ag11  1  0.33643665  -0.00878600  0.67438532  1
  Ag  Ag12  1  0.82142951  0.50302463  0.67401254  1
  Ag  Ag13  1  0.33132889  0.50379914  0.17015619  1
  Ag  Ag14  1  0.17315806  0.66769550  0.50908793  1
  Ag  Ag15  1  0.81815807  0.83008368  0.66685007  1
  Ag  Ag16  1  0.83376363  0.49721012  -0.00816244  1
  Ag  Ag17  1  0.49270032  0.83582455  -0.00160452  1
  Ag  Ag18  1  0.66852299  -0.01419600  0.33162095  1
  Ag  Ag19  1  0.32972413  0.33417207  0.00140603  1
  Ag  Ag20  1  0.66111336  0.83563123  0.17264624  1
  Ag  Ag21  1  0.17022377  0.66304769  0.83188457  1
  Ag  Ag22  1  0.83120077  0.16862037  -0.00185051  1
  Ag  Ag23  1  0.33917371  0.34572057  0.32755978  1
  Ag  Ag24  1  0.82963207  -0.00134534  0.16573652  1
  Ag  Ag25  1  0.50332307  0.50511279  0.33593014  1
  Ag  Ag26  1  0.01392299  0.17225199  0.83662003  1
  Ag  Ag27  1  0.66639432  0.16066135  0.16515673  1
  Ag  Ag28  1  0.17032236  0.49702496  -0.00610431  1
  Ag  Ag29  1  0.66732088  0.66827382  0.67271338  1
  Ag  Ag30  1  0.00727683  0.00176996  0.00113059  1
  Ag  Ag31  1  0.82023606  0.83087011  0.33476305  1
  Ag  Ag32  1  0.66034511  0.82797271  0.82971938  1
  Ag  Ag33  1  0.33405855  0.83610978  0.83869630  1
  Ag  Ag34  1  0.49739913  0.15988514  0.67319424  1
  Ag  Ag35  1  0.82319345  0.50465654  0.33237958  1
  Ag  Ag36  1  0.66442243  0.34273788  0.66770777  1
  Ag  Ag37  1  -0.00922993  -0.00335389  0.32731515  1
  Ag  Ag38  1  0.33823005  0.83017600  0.15357379  1
  Ag  Ag39  1  0.66003100  0.34632684  0.33512388  1
  Ag  Ag40  1  0.17958193  0.83057598  0.67332367  1
  Ag  Ag41  1  0.65896343  0.66734427  0.33422501  1
  Ag  Ag42  1  0.66061132  -0.01174709  0.66435873  1
  Ag  Ag43  1  0.32924552  -0.00903977  -0.00520712  1
  Ag  Ag44  1  0.33367621  0.67648047  0.00287964  1
  Ag  Ag45  1  0.16683494  0.33577756  0.83517466  1
  Ag  Ag46  1  0.66179179  0.49973809  0.50254320  1
  Ag  Ag47  1  0.18174571  0.83100399  0.33067409  1
  Ag  Ag48  1  0.17611056  0.16921170  0.67766283  1
  Ag  Ag49  1  0.49938378  0.82771330  0.33250648  1
  Ag  Ag50  1  0.33187347  0.82686185  0.49986925  1
  Ag  Ag51  1  0.49795080  0.83779449  0.66920546  1
  Ag  Ag52  1  0.67223224  0.50420409  0.82377519  1
  Ag  Ag53  1  0.16785695  0.50379605  0.67595610  1
  Sb  Sb54  1  -0.00266712  0.16398646  0.15797293  1
  Sb  Sb55  1  0.16544270  0.00161431  0.16272105  1
  Sb  Sb56  1  0.50113942  0.50249131  0.66213142  1
  Sb  Sb57  1  0.16897284  0.00336439  0.83522056  1
  Sb  Sb58  1  0.00406522  0.66885467  -0.00321055  1
  Sb  Sb59  1  0.66353988  -0.00497439  0.00046231  1
  Sb  Sb60  1  0.17213426  0.66538874  0.16256944  1
  Sb  Sb61  1  0.00175637  -0.00052118  0.67155883  1
  Sb  Sb62  1  0.83370179  0.33187561  0.16179016  1
  Sb  Sb63  1  0.16953730  -0.00642506  0.50064878  1
  Sb  Sb64  1  0.83030793  -0.00338095  0.49537147  1
  Sb  Sb65  1  0.00658404  0.83328083  0.49912894  1
  Sb  Sb66  1  0.33727919  -0.00830190  0.33068312  1
  Sb  Sb67  1  0.82960856  0.83254371  -0.00056970  1
  Sb  Sb68  1  0.49879139  -0.00260862  0.83308047  1
  Sb  Sb69  1  -0.00284682  0.33432056  0.67107211  1
  Sb  Sb70  1  0.00197205  0.67009483  0.33377009  1
  Sb  Sb71  1  0.00418185  0.83375586  0.83447382  1
  Sb  Sb72  1  0.17127916  0.50491450  0.33224173  1
  Sb  Sb73  1  0.82827261  0.16756316  0.67558744  1
  Sb  Sb74  1  0.00314696  0.16445221  0.50758973  1
  Sb  Sb75  1  0.50421740  -0.00266726  0.16590773  1
  Sb  Sb76  1  0.83358473  0.66701916  0.50070536  1
  Sb  Sb77  1  0.66521053  0.17160720  0.49839602  1
  Sb  Sb78  1  0.49867266  0.66908051  0.16797528  1
  Sb  Sb79  1  0.50058670  0.16689358  0.33200538  1
  Sb  Sb80  1  0.00161824  0.83561588  0.16688260  1
  Sb  Sb81  1  0.83254083  0.66123958  0.83314619  1
  Sb  Sb82  1  0.33122654  0.50260080  0.83460426  1
  Sb  Sb83  1  0.17654233  0.34093477  0.50479703  1
  Sb  Sb84  1  0.33496150  0.16682289  0.50661004  1
  Sb  Sb85  1  0.33696958  0.33239578  0.66883969  1
  Sb  Sb86  1  0.49572017  0.66409403  0.49877125  1
  Sb  Sb87  1  0.49639130  0.33302046  0.16986641  1
  Sb  Sb88  1  0.49846518  0.33397971  0.83110273  1
  Sb  Sb89  1  0.00442374  0.49840870  0.16059260  1
  Sb  Sb90  1  0.33776403  0.16548695  0.15744415  1
  Sb  Sb91  1  0.82500615  0.33770341  0.50475514  1
  Sb  Sb92  1  0.50024266  0.00097310  0.50212296  1
  Sb  Sb93  1  0.00025828  0.50016900  0.50411717  1
  Sb  Sb94  1  0.65839778  0.82514649  0.50079463  1
  Sb  Sb95  1  0.82821884  0.67080961  0.16703183  1
  Sb  Sb96  1  0.66229052  0.33660852  -0.00012164  1
  Sb  Sb97  1  0.33489116  0.67181844  0.66697669  1
  Sb  Sb98  1  0.16880283  0.16307116  0.33028403  1
  Sb  Sb99  1  0.00031774  0.66677609  0.66961394  1
  Sb  Sb100  1  0.00757816  0.32848005  -0.00340973  1
  Sb  Sb101  1  -0.00110801  0.33094744  0.33232836  1
  Sb  Sb102  1  0.49737088  0.66834133  0.83229270  1
  Sb  Sb103  1  0.83179234  0.00126162  0.83760029  1
  Sb  Sb104  1  0.83006022  0.16450588  0.32645036  1
  Sb  Sb105  1  0.66229307  0.50330091  0.16941958  1
  Sb  Sb106  1  0.49593488  0.50313451  0.00392331  1
  Sb  Sb107  1  0.66295374  0.16672166  0.83661668  1
  Te  Te108  1  0.16721562  0.17209311  0.16138834  1
  Te  Te109  1  0.16775488  0.16833310  0.50697847  1
  Te  Te110  1  0.16950479  0.16757118  0.83440802  1
  Te  Te111  1  0.17143082  0.49554607  0.16241467  1
  Te  Te112  1  0.16858056  0.50581477  0.50284336  1
  Te  Te113  1  0.17043687  0.49736763  0.83369169  1
  Te  Te114  1  0.17027630  0.83337116  0.16543108  1
  Te  Te115  1  0.17202656  0.82875927  0.50154299  1
  Te  Te116  1  0.16668762  0.83158517  0.83411717  1
  Te  Te117  1  0.50667569  0.16609649  0.16119083  1
  Te  Te118  1  0.49994604  0.17378757  0.50643214  1
  Te  Te119  1  0.49533934  0.16726002  0.83382246  1
  Te  Te120  1  0.49152695  0.49930560  0.17445835  1
  Te  Te121  1  0.49930104  0.49747895  0.49612921  1
  Te  Te122  1  0.51074878  0.50032608  0.83460324  1
  Te  Te123  1  0.50035837  0.83416580  0.16677074  1
  Te  Te124  1  0.49276748  0.83440032  0.49973514  1
  Te  Te125  1  0.50078371  0.83199378  0.83402946  1
  Te  Te126  1  0.82876492  0.16422087  0.15891696  1
  Te  Te127  1  0.83517699  0.16864088  0.50210052  1
  Te  Te128  1  0.83110845  0.17224017  0.83865285  1
  Te  Te129  1  0.83532382  0.49907046  0.16752479  1
  Te  Te130  1  0.83087325  0.50080511  0.50024651  1
  Te  Te131  1  0.83212387  0.49949502  0.83259044  1
  Te  Te132  1  0.82945115  0.83690533  0.17012759  1
  Te  Te133  1  0.83568161  0.83201050  0.50097534  1
  Te  Te134  1  0.83379043  0.83260678  0.82804752  1
  Te  Te135  1  0.16816212  -0.00210513  0.00112142  1
  Te  Te136  1  0.16640573  -0.00645663  0.33188655  1
  Te  Te137  1  0.16984722  -0.00468297  0.66545247  1
  Te  Te138  1  0.16896455  0.33398771  -0.00455875  1
  Te  Te139  1  0.16953003  0.33288426  0.33585635  1
  Te  Te140  1  0.16746551  0.33501621  0.67171417  1
  Te  Te141  1  0.16992124  0.66793597  -0.00316195  1
  Te  Te142  1  0.16967779  0.67201236  0.33228762  1
  Te  Te143  1  0.16742290  0.66748090  0.66985830  1
  Te  Te144  1  0.49534932  -0.00060436  -0.00001917  1
  Te  Te145  1  0.50665317  -0.00330651  0.33524461  1
  Te  Te146  1  0.49916230  -0.00025825  0.66661057  1
  Te  Te147  1  0.49345622  0.33045553  -0.00014333  1
  Te  Te148  1  0.49914577  0.33248626  0.33551312  1
  Te  Te149  1  0.50468652  0.33248775  0.66378196  1
  Te  Te150  1  0.49903183  0.67137429  -0.00034820  1
  Te  Te151  1  0.49788147  0.66629836  0.33406650  1
  Te  Te152  1  0.50782656  0.67361203  0.66531619  1
  Te  Te153  1  0.83214579  0.00178461  0.00402233  1
  Te  Te154  1  0.82872803  -0.00263233  0.32953951  1
  Te  Te155  1  0.83170264  -0.00325314  0.66579106  1
  Te  Te156  1  0.83125722  0.33626559  -0.00298449  1
  Te  Te157  1  0.82955153  0.33610444  0.33230103  1
  Te  Te158  1  0.82673382  0.33729400  0.67162339  1
  Te  Te159  1  0.83087395  0.66114437  0.00036772  1
  Te  Te160  1  0.83335976  0.66765091  0.33402600  1
  Te  Te161  1  0.82919548  0.66638410  0.66632902  1
  Te  Te162  1  -0.00102566  0.16230107  -0.00494443  1
  Te  Te163  1  -0.00036285  0.16008103  0.33410737  1
  Te  Te164  1  0.00530545  0.16546194  0.67499586  1
  Te  Te165  1  0.00024058  0.50098637  -0.00465264  1
  Te  Te166  1  -0.00764523  0.50029855  0.33347403  1
  Te  Te167  1  0.00250616  0.50007555  0.67193112  1
  Te  Te168  1  0.00083536  0.83972176  -0.00036548  1
  Te  Te169  1  -0.00439354  0.83761786  0.33275588  1
  Te  Te170  1  0.00075210  0.83513723  0.66725798  1
  Te  Te171  1  0.33323744  0.16911112  -0.00224510  1
  Te  Te172  1  0.33338331  0.16590608  0.33333195  1
  Te  Te173  1  0.33479746  0.16487051  0.67116579  1
  Te  Te174  1  0.33145165  0.49699580  0.00181756  1
  Te  Te175  1  0.33186065  0.50261051  0.33257420  1
  Te  Te176  1  0.33175563  0.50140308  0.66326273  1
  Te  Te177  1  0.33517917  0.83309282  -0.00222830  1
  Te  Te178  1  0.33809673  0.83179462  0.33703067  1
  Te  Te179  1  0.33643851  0.83277428  0.66916294  1
  Te  Te180  1  0.66688198  0.16574409  0.00229881  1
  Te  Te181  1  0.66592715  0.16586838  0.32893454  1
  Te  Te182  1  0.66153589  0.16648650  0.66708921  1
  Te  Te183  1  0.66557718  0.50519926  0.00265431  1
  Te  Te184  1  0.66506069  0.50316714  0.33029788  1
  Te  Te185  1  0.66410623  0.50196283  0.66456881  1
  Te  Te186  1  0.66559314  0.82992955  -0.00324175  1
  Te  Te187  1  0.66286927  0.82938076  0.33770739  1
  Te  Te188  1  0.66165318  0.83070740  0.66309099  1
  Te  Te189  1  -0.00671922  0.00016681  0.16588648  1
  Te  Te190  1  -0.00053092  0.00062537  0.49024218  1
  Te  Te191  1  -0.00208362  0.00598743  0.83938352  1
  Te  Te192  1  0.01018488  0.33187172  0.16767378  1
  Te  Te193  1  0.00052466  0.33209491  0.49974692  1
  Te  Te194  1  -0.00050094  0.33461938  0.83336236  1
  Te  Te195  1  -0.00053495  0.66630091  0.16591053  1
  Te  Te196  1  0.01298032  0.66559156  0.50050264  1
  Te  Te197  1  0.00933261  0.65887234  0.83401438  1
  Te  Te198  1  0.33312849  -0.00654101  0.16222122  1
  Te  Te199  1  0.33410291  -0.00358873  0.50390967  1
  Te  Te200  1  0.33338655  -0.00194725  0.83351804  1
  Te  Te201  1  0.33134041  0.33144613  0.16800353  1
  Te  Te202  1  0.33920530  0.33703184  0.49585980  1
  Te  Te203  1  0.33024428  0.33185111  0.83611965  1
  Te  Te204  1  0.33336307  0.66843525  0.16696120  1
  Te  Te205  1  0.33086687  0.66579947  0.49943691  1
  Te  Te206  1  0.32958933  0.66996014  0.83830150  1
  Te  Te207  1  0.66948833  -0.00391202  0.16743235  1
  Te  Te208  1  0.66617674  0.00195539  0.50218913  1
  Te  Te209  1  0.66787530  -0.00644974  0.82606788  1
  Te  Te210  1  0.66756064  0.33116814  0.17176326  1
  Te  Te211  1  0.66196775  0.33874048  0.49721748  1
  Te  Te212  1  0.66890439  0.33558518  0.83180294  1
  Te  Te213  1  0.66568595  0.67361069  0.17014945  1
  Te  Te214  1  0.66858890  0.65938787  0.49487571  1
  Te  Te215  1  0.66710180  0.66744029  0.83324350  1
