# generated using pymatgen
data_AgSbTe2
_symmetry_space_group_name_H-M   'P 1'
_cell_length_a   18.35059196
_cell_length_b   18.35185313
_cell_length_c   18.34665626
_cell_angle_alpha   90.00165816
_cell_angle_beta   90.00271308
_cell_angle_gamma   90.00112073
_symmetry_Int_Tables_number   1
_chemical_formula_structural   AgSbTe2
_chemical_formula_sum   'Ag54 Sb54 Te108'
_cell_volume   6178.55513696
_cell_formula_units_Z   54
loop_
 _symmetry_equiv_pos_site_id
 _symmetry_equiv_pos_as_xyz
  1  'x, y, z'
loop_
 _atom_site_type_symbol
 _atom_site_label
 _atom_site_symmetry_multiplicity
 _atom_site_fract_x
 _atom_site_fract_y
 _atom_site_fract_z
 _atom_site_occupancy
  Ag  Ag0  1  0.16961859  0.15882238  0.01211927  1
  Ag  Ag1  1  0.50489340  0.65864560  0.50087973  1
  Ag  Ag2  1  0.65900271  0.50511393  0.83163687  1
  Ag  Ag3  1  0.00878489  0.67345901  -0.00492217  1
  Ag  Ag4  1  0.49117129  0.83458807  0.32783492  1
  Ag  Ag5  1  0.00112590  0.67612481  0.67069940  1
  Ag  Ag6  1  0.16405708  -0.01044140  0.82858445  1
  Ag  Ag7  1  0.17111402  0.50269305  0.66792017  1
  Ag  Ag8  1  0.17220832  0.51676163  0.00528185  1
  Ag  Ag9  1  0.00492297  0.83020913  0.84235053  1
  Ag  Ag10  1  0.84076859  0.66815747  0.15505590  1
  Ag  Ag11  1  0.32510829  0.83134589  0.16295593  1
  Ag  Ag12  1  0.49913993  0.33667953  0.49408066  1
  Ag  Ag13  1  0.17347412  0.33479105  0.16794293  1
  Ag  Ag14  1  0.66738115  0.66684877  0.00050452  1
  Ag  Ag15  1  0.49288089  0.16904580  0.32881662  1
  Ag  Ag16  1  0.00226014  0.16332328  0.50328657  1
  Ag  Ag17  1  0.00550915  -0.01454322  -0.00474006  1
  Ag  Ag18  1  0.49192512  0.50057737  0.66713503  1
  Ag  Ag19  1  0.16503099  0.67618594  0.15602195  1
  Ag  Ag20  1  0.83184862  0.67059305  0.50365218  1
  Ag  Ag21  1  0.84880023  0.82771341  -0.00099727  1
  Ag  Ag22  1  0.66806857  0.82614185  0.50042623  1
  Ag  Ag23  1  0.00667811  -0.00830795  0.66776443  1
  Ag  Ag24  1  0.65299798  0.16951678  0.16914439  1
  Ag  Ag25  1  0.33252299  0.33184820  0.32958543  1
  Ag  Ag26  1  0.16143408  0.00083476  0.51371363  1
  Ag  Ag27  1  0.33179298  0.50110504  0.84244819  1
  Ag  Ag28  1  0.16639064  -0.01141354  0.16216896  1
  Ag  Ag29  1  0.49002562  0.32927297  0.16966671  1
  Ag  Ag30  1  0.84473009  0.83159275  0.66737695  1
  Ag  Ag31  1  0.16492124  0.15301219  0.66394172  1
  Ag  Ag32  1  0.66883078  0.16571368  0.49700181  1
  Ag  Ag33  1  0.84376415  0.66836574  0.83949732  1
  Ag  Ag34  1  0.16181829  0.83096269  0.00591041  1
  Ag  Ag35  1  0.84086473  -0.00526635  0.50493664  1
  Ag  Ag36  1  0.84605978  0.16041269  0.66191391  1
  Ag  Ag37  1  0.16921393  0.83467169  0.32017365  1
  Ag  Ag38  1  0.66460020  0.50779761  0.50313784  1
  Ag  Ag39  1  0.16143999  0.83928765  0.66954044  1
  Ag  Ag40  1  0.32211779  0.66504481  0.00220951  1
  Ag  Ag41  1  0.31962888  0.00326947  0.66660699  1
  Ag  Ag42  1  0.32894247  0.49902906  0.16189541  1
  Ag  Ag43  1  0.16865882  0.50129024  0.32237482  1
  Ag  Ag44  1  0.17262225  0.16391117  0.32795715  1
  Ag  Ag45  1  0.16249313  0.67171698  0.84351893  1
  Ag  Ag46  1  0.83399807  0.33522753  0.16538383  1
  Ag  Ag47  1  0.01411874  0.83072279  0.15531898  1
  Ag  Ag48  1  0.49514239  0.82479744  0.00497806  1
  Ag  Ag49  1  0.49098545  0.16840112  0.01013332  1
  Ag  Ag50  1  0.00323713  0.50136056  0.50339409  1
  Ag  Ag51  1  0.49065061  0.50688392  -0.00195588  1
  Ag  Ag52  1  0.33108331  0.33405267  0.66099294  1
  Ag  Ag53  1  0.32924896  0.17463487  0.16670389  1
  Sb  Sb54  1  0.49733304  0.66518428  0.83393803  1
  Sb  Sb55  1  0.66347280  0.33883930  0.00277237  1
  Sb  Sb56  1  0.66497412  0.83542140  0.16910756  1
  Sb  Sb57  1  0.33250151  0.34011591  0.00597621  1
  Sb  Sb58  1  0.16431523  0.66956614  0.50147762  1
  Sb  Sb59  1  0.83275433  0.34048831  0.83555067  1
  Sb  Sb60  1  0.49837561  0.00149677  0.50039212  1
  Sb  Sb61  1  0.65919482  0.33236332  0.33289766  1
  Sb  Sb62  1  0.33333211  0.83296717  0.49600387  1
  Sb  Sb63  1  0.00641015  0.51055583  0.83049868  1
  Sb  Sb64  1  0.17115259  0.33033705  0.49748154  1
  Sb  Sb65  1  0.32529388  0.66569821  0.67192941  1
  Sb  Sb66  1  0.83936171  0.50068715  0.33311025  1
  Sb  Sb67  1  0.82901262  0.33377275  0.49764979  1
  Sb  Sb68  1  0.49637398  0.82803547  0.66569178  1
  Sb  Sb69  1  0.49627490  0.66449884  0.16568740  1
  Sb  Sb70  1  0.49214399  0.00438181  0.16574602  1
  Sb  Sb71  1  0.83812007  0.16069214  -0.00100875  1
  Sb  Sb72  1  0.67028849  -0.00572184  0.00088802  1
  Sb  Sb73  1  0.32326717  0.82807297  0.83947672  1
  Sb  Sb74  1  0.83499933  0.16721876  0.33658258  1
  Sb  Sb75  1  0.67252877  0.66566627  0.66780679  1
  Sb  Sb76  1  0.83617790  0.51019330  0.00062356  1
  Sb  Sb77  1  0.00393983  0.15871188  0.82904025  1
  Sb  Sb78  1  0.32951773  0.17102119  0.83908846  1
  Sb  Sb79  1  0.83716106  0.83192491  0.33402381  1
  Sb  Sb80  1  0.83526670  0.50299486  0.66577044  1
  Sb  Sb81  1  0.00627915  -0.00123183  0.33849727  1
  Sb  Sb82  1  0.66517011  0.66664829  0.33211059  1
  Sb  Sb83  1  0.00995310  0.50615074  0.16809738  1
  Sb  Sb84  1  0.66677325  0.17090693  0.83370249  1
  Sb  Sb85  1  0.67127928  -0.00053632  0.66433253  1
  Sb  Sb86  1  0.66523168  0.00025550  0.33369069  1
  Sb  Sb87  1  0.49398728  0.49837260  0.33328494  1
  Sb  Sb88  1  0.00245594  0.66901894  0.33288193  1
  Sb  Sb89  1  0.84170833  -0.00296519  0.16935010  1
  Sb  Sb90  1  0.33008885  0.16713364  0.49546208  1
  Sb  Sb91  1  0.00426487  0.33661088  0.00371596  1
  Sb  Sb92  1  0.49613357  0.33698092  0.83598199  1
  Sb  Sb93  1  0.66201868  0.49749081  0.16705051  1
  Sb  Sb94  1  0.32893377  0.00362049  0.33351077  1
  Sb  Sb95  1  0.67312936  0.82680618  0.83232007  1
  Sb  Sb96  1  0.33154409  0.66380071  0.32739536  1
  Sb  Sb97  1  0.00883388  0.33285192  0.33299159  1
  Sb  Sb98  1  0.32316243  -0.00435547  -0.00091100  1
  Sb  Sb99  1  0.00709975  0.33172508  0.66510721  1
  Sb  Sb100  1  0.48913244  -0.00142964  0.83585885  1
  Sb  Sb101  1  0.16851129  0.33835867  0.83715715  1
  Sb  Sb102  1  0.66160539  0.33550228  0.66324051  1
  Sb  Sb103  1  0.49442672  0.17183260  0.66288665  1
  Sb  Sb104  1  0.00827080  0.16243371  0.16953760  1
  Sb  Sb105  1  -0.00183521  0.83351854  0.50258795  1
  Sb  Sb106  1  0.84116470  -0.00835025  0.82779453  1
  Sb  Sb107  1  0.33146391  0.49994129  0.49937773  1
  Te  Te108  1  0.16772914  0.17468694  0.17007425  1
  Te  Te109  1  0.16477803  0.16494770  0.50350649  1
  Te  Te110  1  0.16651453  0.16824283  0.82426539  1
  Te  Te111  1  0.16877650  0.49471451  0.16466944  1
  Te  Te112  1  0.16498503  0.50006060  0.50299243  1
  Te  Te113  1  0.17013085  0.50326484  0.83501046  1
  Te  Te114  1  0.16897590  0.83146754  0.16588357  1
  Te  Te115  1  0.16625695  0.83737773  0.50774487  1
  Te  Te116  1  0.16488366  0.83103162  0.83006778  1
  Te  Te117  1  0.49630341  0.16721430  0.16808766  1
  Te  Te118  1  0.50191276  0.16942680  0.49641211  1
  Te  Te119  1  0.50080931  0.16758654  0.84157445  1
  Te  Te120  1  0.49653463  0.49596421  0.16403101  1
  Te  Te121  1  0.50084445  0.49822115  0.49860519  1
  Te  Te122  1  0.49806604  0.50071989  0.83572472  1
  Te  Te123  1  0.49856295  0.83362707  0.16741001  1
  Te  Te124  1  0.50383696  0.83378219  0.49912183  1
  Te  Te125  1  0.50058477  0.83317015  0.83864060  1
  Te  Te126  1  0.83719784  0.16682482  0.16730287  1
  Te  Te127  1  0.83298347  0.16832906  0.50195761  1
  Te  Te128  1  0.83218115  0.16760944  0.82624293  1
  Te  Te129  1  0.83207724  0.50280126  0.16780209  1
  Te  Te130  1  0.83058119  0.50226654  0.49970737  1
  Te  Te131  1  0.82822275  0.50715477  0.83282591  1
  Te  Te132  1  0.83143275  0.82897643  0.16480083  1
  Te  Te133  1  0.83143439  0.83315021  0.50006636  1
  Te  Te134  1  0.83744434  0.82744902  0.83072974  1
  Te  Te135  1  0.16455251  -0.00077909  0.00124082  1
  Te  Te136  1  0.16780552  0.00013406  0.32427562  1
  Te  Te137  1  0.16374888  -0.00230507  0.66878016  1
  Te  Te138  1  0.16722609  0.31966788  0.00378463  1
  Te  Te139  1  0.17257122  0.33268633  0.33118318  1
  Te  Te140  1  0.17221601  0.34315567  0.66654087  1
  Te  Te141  1  0.16682000  0.67119654  0.00060585  1
  Te  Te142  1  0.16804435  0.66782319  0.33305743  1
  Te  Te143  1  0.16203913  0.66223141  0.66579067  1
  Te  Te144  1  0.50134942  0.00229494  -0.00042581  1
  Te  Te145  1  0.49776435  -0.00165943  0.33384572  1
  Te  Te146  1  0.49678755  0.00052713  0.66800302  1
  Te  Te147  1  0.49909546  0.32994125  0.00540323  1
  Te  Te148  1  0.49419088  0.33139727  0.33111004  1
  Te  Te149  1  0.49439481  0.33878115  0.66403433  1
  Te  Te150  1  0.50352994  0.66464314  0.00052635  1
  Te  Te151  1  0.49899788  0.67139594  0.33733844  1
  Te  Te152  1  0.49939076  0.66157884  0.66311203  1
  Te  Te153  1  0.84038773  -0.00830608  -0.00097326  1
  Te  Te154  1  0.83532661  -0.00029614  0.34268845  1
  Te  Te155  1  0.83736615  -0.00080265  0.66354854  1
  Te  Te156  1  0.83386320  0.33182400  0.00422348  1
  Te  Te157  1  0.83307080  0.33326712  0.32588996  1
  Te  Te158  1  0.83342479  0.32700880  0.66717169  1
  Te  Te159  1  0.83385240  0.67011703  -0.00112160  1
  Te  Te160  1  0.83326271  0.66662850  0.33924968  1
  Te  Te161  1  0.83800970  0.66870623  0.66349737  1
  Te  Te162  1  0.00516458  0.16485651  -0.00094806  1
  Te  Te163  1  0.00648528  0.16595547  0.34154000  1
  Te  Te164  1  0.00351174  0.16623429  0.66322404  1
  Te  Te165  1  0.00754327  0.50496843  -0.00111119  1
  Te  Te166  1  0.00814712  0.50019381  0.34045862  1
  Te  Te167  1  0.00275067  0.49910879  0.66365345  1
  Te  Te168  1  0.00352214  0.83021973  -0.00086602  1
  Te  Te169  1  0.00634616  0.83401008  0.32485115  1
  Te  Te170  1  0.00008270  0.83286542  0.66228547  1
  Te  Te171  1  0.33202197  0.16443807  0.00437883  1
  Te  Te172  1  0.33300942  0.16908614  0.32940760  1
  Te  Te173  1  0.32967847  0.16822628  0.66804518  1
  Te  Te174  1  0.33196702  0.50087044  0.00175787  1
  Te  Te175  1  0.32830317  0.49567780  0.32823232  1
  Te  Te176  1  0.33383584  0.50054299  0.66526143  1
  Te  Te177  1  0.33528289  0.83033127  0.00204488  1
  Te  Te178  1  0.33081513  0.83316058  0.32878084  1
  Te  Te179  1  0.32960947  0.83542929  0.66786155  1
  Te  Te180  1  0.66789820  0.16551005  0.00271237  1
  Te  Te181  1  0.66413225  0.16630267  0.33278613  1
  Te  Te182  1  0.66390285  0.16730529  0.66365193  1
  Te  Te183  1  0.66563974  0.50575554  -0.00092807  1
  Te  Te184  1  0.66648322  0.49961261  0.34132828  1
  Te  Te185  1  0.66394845  0.50036617  0.66431179  1
  Te  Te186  1  0.65720748  0.82868630  0.00043192  1
  Te  Te187  1  0.66331769  0.83417009  0.33917706  1
  Te  Te188  1  0.66747007  0.83320301  0.66099759  1
  Te  Te189  1  0.00442881  -0.00481629  0.16268064  1
  Te  Te190  1  0.00116300  0.00164053  0.50379972  1
  Te  Te191  1  0.00480063  -0.00653671  0.83163403  1
  Te  Te192  1  -0.00494644  0.33434855  0.16787972  1
  Te  Te193  1  -0.00228205  0.33542489  0.49981165  1
  Te  Te194  1  -0.00177775  0.33443473  0.83442304  1
  Te  Te195  1  0.00084871  0.66910755  0.16643991  1
  Te  Te196  1  -0.00237559  0.66381672  0.50269831  1
  Te  Te197  1  0.00209143  0.67006157  0.83221027  1
  Te  Te198  1  0.32723283  -0.00388136  0.16629024  1
  Te  Te199  1  0.32705057  0.00024818  0.50626635  1
  Te  Te200  1  0.32470316  0.00231726  0.82772635  1
  Te  Te201  1  0.33363654  0.33365991  0.16617917  1
  Te  Te202  1  0.33860246  0.33326508  0.49808338  1
  Te  Te203  1  0.33312334  0.34058084  0.82251217  1
  Te  Te204  1  0.33060562  0.66621239  0.16229792  1
  Te  Te205  1  0.34202595  0.66759568  0.50050074  1
  Te  Te206  1  0.32888637  0.66178582  0.83941688  1
  Te  Te207  1  0.66995131  0.00897976  0.16644062  1
  Te  Te208  1  0.66881574  0.00638108  0.49985367  1
  Te  Te209  1  0.66636134  0.00083116  0.83292773  1
  Te  Te210  1  0.66937583  0.32895739  0.16726822  1
  Te  Te211  1  0.66097763  0.32911796  0.49869090  1
  Te  Te212  1  0.66657205  0.34408972  0.83344784  1
  Te  Te213  1  0.67049698  0.66601368  0.16339380  1
  Te  Te214  1  0.66704027  0.66635270  0.50035879  1
  Te  Te215  1  0.66694405  0.66313610  0.83662517  1
