# generated using pymatgen
data_AgSbTe2
_symmetry_space_group_name_H-M   'P 1'
_cell_length_a   18.32342527
_cell_length_b   18.34378570
_cell_length_c   18.34393022
_cell_angle_alpha   90.00417521
_cell_angle_beta   90.00135627
_cell_angle_gamma   90.00360240
_symmetry_Int_Tables_number   1
_chemical_formula_structural   AgSbTe2
_chemical_formula_sum   'Ag54 Sb54 Te108'
_cell_volume   6165.77988999
_cell_formula_units_Z   54
loop_
 _symmetry_equiv_pos_site_id
 _symmetry_equiv_pos_as_xyz
  1  'x, y, z'
loop_
 _atom_site_type_symbol
 _atom_site_label
 _atom_site_symmetry_multiplicity
 _atom_site_fract_x
 _atom_site_fract_y
 _atom_site_fract_z
 _atom_site_occupancy
  Ag  Ag0  1  0.49293571  -0.00167836  0.16607995  1
  Ag  Ag1  1  0.01348003  0.66230987  0.00020141  1
  Ag  Ag2  1  0.17223079  0.82553019  0.66879565  1
  Ag  Ag3  1  0.66447746  0.50578239  0.16808758  1
  Ag  Ag4  1  0.33089175  0.00452731  0.67187567  1
  Ag  Ag5  1  0.66405534  0.34250815  -0.00567456  1
  Ag  Ag6  1  0.33202284  0.83659467  0.83832803  1
  Ag  Ag7  1  0.65978972  0.33941278  0.66951414  1
  Ag  Ag8  1  0.33653063  0.33664508  0.65825959  1
  Ag  Ag9  1  0.66668831  0.66309100  0.66917617  1
  Ag  Ag10  1  0.17626609  0.82597309  0.00100409  1
  Ag  Ag11  1  0.17242728  0.83937057  0.33097684  1
  Ag  Ag12  1  0.82683218  0.16764978  0.66084164  1
  Ag  Ag13  1  0.48855250  0.33554161  0.50152281  1
  Ag  Ag14  1  0.66483461  0.66386621  -0.00275022  1
  Ag  Ag15  1  0.65921126  0.82817013  0.16345952  1
  Ag  Ag16  1  0.82593384  0.33275494  0.83331357  1
  Ag  Ag17  1  0.82896239  0.16830897  0.33826753  1
  Ag  Ag18  1  0.17642897  0.50369801  0.65899530  1
  Ag  Ag19  1  0.33688440  0.16208548  0.82804405  1
  Ag  Ag20  1  0.49466860  0.83201512  -0.00089333  1
  Ag  Ag21  1  0.17649256  0.67065852  0.83937164  1
  Ag  Ag22  1  0.17030104  0.33865435  0.17197904  1
  Ag  Ag23  1  0.17614424  0.34327476  0.49439073  1
  Ag  Ag24  1  0.83082607  0.49783630  0.33499278  1
  Ag  Ag25  1  0.83121718  0.66512872  0.16923540  1
  Ag  Ag26  1  0.49403896  0.66632631  0.83596904  1
  Ag  Ag27  1  0.33016863  0.32501987  0.34501474  1
  Ag  Ag28  1  0.33323467  0.50034882  0.82804093  1
  Ag  Ag29  1  0.82977117  0.66623002  0.49563412  1
  Ag  Ag30  1  0.65799198  0.16776211  0.83336914  1
  Ag  Ag31  1  0.83116321  0.00033088  0.49802663  1
  Ag  Ag32  1  0.16598653  0.66838288  0.15775950  1
  Ag  Ag33  1  0.49669428  0.50184749  -0.00466861  1
  Ag  Ag34  1  0.49824095  0.16706553  0.00008785  1
  Ag  Ag35  1  0.33193918  0.49012756  0.50668973  1
  Ag  Ag36  1  0.66593941  0.82711944  0.50030143  1
  Ag  Ag37  1  0.17626326  0.50792012  0.00150823  1
  Ag  Ag38  1  0.17481238  -0.00942389  0.83249729  1
  Ag  Ag39  1  0.33148737  0.00497613  0.33343588  1
  Ag  Ag40  1  0.00703408  0.33916528  -0.00088737  1
  Ag  Ag41  1  0.66103868  0.50286400  0.49911295  1
  Ag  Ag42  1  0.17582608  -0.01252882  0.17280908  1
  Ag  Ag43  1  0.17506825  -0.00337738  0.49600815  1
  Ag  Ag44  1  0.33460755  -0.00322070  0.00087861  1
  Ag  Ag45  1  0.17171535  0.49852865  0.33539014  1
  Ag  Ag46  1  0.65934449  0.83173610  0.83622765  1
  Ag  Ag47  1  0.49379176  0.16440288  0.33139424  1
  Ag  Ag48  1  0.33184394  0.17714460  0.49857698  1
  Ag  Ag49  1  0.33231650  0.83857945  0.15698728  1
  Ag  Ag50  1  0.16680238  0.66370112  0.50086347  1
  Ag  Ag51  1  0.65933226  0.00067854  0.33485562  1
  Ag  Ag52  1  0.17746756  0.16466838  0.33538094  1
  Ag  Ag53  1  0.49483077  0.49842146  0.66973614  1
  Sb  Sb54  1  0.00239086  0.66545728  0.32910699  1
  Sb  Sb55  1  0.50133516  0.33724407  0.82996720  1
  Sb  Sb56  1  0.66284947  0.33054367  0.33489972  1
  Sb  Sb57  1  0.65937246  -0.00315695  0.00347846  1
  Sb  Sb58  1  0.00060178  0.66524839  0.67053142  1
  Sb  Sb59  1  0.00907709  0.49956431  0.83661286  1
  Sb  Sb60  1  0.00656896  0.16678826  0.49939559  1
  Sb  Sb61  1  0.00318242  0.16811086  0.16645178  1
  Sb  Sb62  1  0.82598414  0.16914564  -0.00014522  1
  Sb  Sb63  1  0.17047397  0.16860686  0.66231377  1
  Sb  Sb64  1  0.83293064  0.33375043  0.50189230  1
  Sb  Sb65  1  0.33404454  0.50461878  0.16505224  1
  Sb  Sb66  1  0.83303409  0.00426159  0.82876944  1
  Sb  Sb67  1  0.33434794  0.67229194  -0.00248937  1
  Sb  Sb68  1  0.00436789  0.16881649  0.83406627  1
  Sb  Sb69  1  0.00197473  0.50186586  0.16560169  1
  Sb  Sb70  1  0.49759299  0.49527427  0.33485683  1
  Sb  Sb71  1  0.00254398  0.33416595  0.67045319  1
  Sb  Sb72  1  0.00817562  0.83186794  0.83533279  1
  Sb  Sb73  1  0.49625069  0.83921024  0.32801170  1
  Sb  Sb74  1  0.00912749  0.00102498  0.66492435  1
  Sb  Sb75  1  0.33427750  0.83370306  0.50257768  1
  Sb  Sb76  1  0.82765512  0.49760961  0.66231690  1
  Sb  Sb77  1  0.00755727  0.83122417  0.16516143  1
  Sb  Sb78  1  0.49297907  -0.00378254  0.83815483  1
  Sb  Sb79  1  0.17482917  0.16693847  0.00368229  1
  Sb  Sb80  1  0.82961749  0.50107801  0.00290847  1
  Sb  Sb81  1  0.66035815  -0.00067583  0.66343126  1
  Sb  Sb82  1  0.17018738  0.33559498  0.83316314  1
  Sb  Sb83  1  0.83356653  0.83247070  0.33473477  1
  Sb  Sb84  1  0.50002275  0.66132844  0.50639134  1
  Sb  Sb85  1  0.33296632  0.15910444  0.17121032  1
  Sb  Sb86  1  0.49929335  0.17152866  0.66781736  1
  Sb  Sb87  1  0.00989224  0.33326984  0.32907494  1
  Sb  Sb88  1  0.82979264  -0.00515536  0.17341567  1
  Sb  Sb89  1  0.00729996  0.00114767  0.33357889  1
  Sb  Sb90  1  0.66713449  0.66923980  0.33273065  1
  Sb  Sb91  1  0.49615935  0.00429840  0.49514882  1
  Sb  Sb92  1  0.01289468  -0.00191988  0.00012419  1
  Sb  Sb93  1  0.00597947  0.50083465  0.49938421  1
  Sb  Sb94  1  0.33324113  0.66213491  0.66896967  1
  Sb  Sb95  1  0.66428129  0.16696999  0.16462461  1
  Sb  Sb96  1  0.83465986  0.33836288  0.16516958  1
  Sb  Sb97  1  0.82933850  0.66265055  0.83410720  1
  Sb  Sb98  1  0.83281504  0.83582576  0.66479930  1
  Sb  Sb99  1  0.66230867  0.16857674  0.50237883  1
  Sb  Sb100  1  0.49980040  0.67138475  0.15924495  1
  Sb  Sb101  1  0.32870648  0.66770988  0.33439138  1
  Sb  Sb102  1  0.82899468  0.83176368  0.00057204  1
  Sb  Sb103  1  0.33609909  0.33031511  -0.00075045  1
  Sb  Sb104  1  0.66008903  0.50094886  0.83277786  1
  Sb  Sb105  1  0.00205414  0.83199563  0.49979825  1
  Sb  Sb106  1  0.49561631  0.33111426  0.16890462  1
  Sb  Sb107  1  0.49539739  0.82725111  0.67268863  1
  Te  Te108  1  0.16627507  0.17295116  0.17304770  1
  Te  Te109  1  0.17091444  0.15988441  0.49664575  1
  Te  Te110  1  0.17239025  0.16384297  0.83332725  1
  Te  Te111  1  0.16870941  0.50399277  0.16567914  1
  Te  Te112  1  0.16859516  0.50196336  0.49804588  1
  Te  Te113  1  0.17389872  0.50227690  0.83874853  1
  Te  Te114  1  0.16937123  0.83026132  0.16575475  1
  Te  Te115  1  0.16736237  0.83440212  0.49941487  1
  Te  Te116  1  0.16973043  0.83134811  0.83464483  1
  Te  Te117  1  0.50007797  0.16231362  0.16587446  1
  Te  Te118  1  0.49466874  0.17155424  0.49757777  1
  Te  Te119  1  0.49855750  0.16519068  0.83517124  1
  Te  Te120  1  0.50347910  0.50025178  0.16294191  1
  Te  Te121  1  0.49955887  0.49655786  0.50179768  1
  Te  Te122  1  0.49528098  0.50385950  0.83427228  1
  Te  Te123  1  0.49899333  0.83680280  0.16202624  1
  Te  Te124  1  0.50650665  0.83108057  0.49994671  1
  Te  Te125  1  0.49937591  0.82955233  0.83768439  1
  Te  Te126  1  0.83295205  0.16552180  0.17375608  1
  Te  Te127  1  0.83247055  0.16593626  0.49891679  1
  Te  Te128  1  0.83079859  0.16956375  0.83220630  1
  Te  Te129  1  0.82726010  0.50430882  0.17037432  1
  Te  Te130  1  0.83116905  0.50259305  0.49688717  1
  Te  Te131  1  0.83493037  0.49401008  0.83167523  1
  Te  Te132  1  0.82735991  0.82659958  0.16821586  1
  Te  Te133  1  0.82830872  0.83136441  0.50008529  1
  Te  Te134  1  0.82774099  0.83431288  0.83187388  1
  Te  Te135  1  0.17338453  -0.00117685  0.00149080  1
  Te  Te136  1  0.16891091  0.00215819  0.33308315  1
  Te  Te137  1  0.17128681  0.00089432  0.66396844  1
  Te  Te138  1  0.16695957  0.33486333  0.00173694  1
  Te  Te139  1  0.16887024  0.33457670  0.33354582  1
  Te  Te140  1  0.16979978  0.33712783  0.66414875  1
  Te  Te141  1  0.17051157  0.66660381  -0.00113469  1
  Te  Te142  1  0.16457681  0.66044049  0.33814881  1
  Te  Te143  1  0.16474994  0.66537935  0.66517332  1
  Te  Te144  1  0.49559558  -0.00094753  0.00410553  1
  Te  Te145  1  0.49912794  0.00412552  0.32909849  1
  Te  Te146  1  0.49158820  -0.00096205  0.66533368  1
  Te  Te147  1  0.50372089  0.33393338  0.00149505  1
  Te  Te148  1  0.49477624  0.32739325  0.33733001  1
  Te  Te149  1  0.50013706  0.33725177  0.66328485  1
  Te  Te150  1  0.50480362  0.66516258  -0.00344681  1
  Te  Te151  1  0.49790381  0.66629435  0.33256223  1
  Te  Te152  1  0.50731212  0.66055963  0.67272762  1
  Te  Te153  1  0.83850620  0.00120809  0.00079650  1
  Te  Te154  1  0.83311002  0.00028389  0.33729064  1
  Te  Te155  1  0.83265784  0.00403046  0.66085014  1
  Te  Te156  1  0.82588007  0.33379223  -0.00264155  1
  Te  Te157  1  0.83434725  0.33538381  0.33292130  1
  Te  Te158  1  0.83132080  0.33062270  0.66982050  1
  Te  Te159  1  0.82530965  0.66629216  0.00339918  1
  Te  Te160  1  0.83481087  0.66385507  0.33401745  1
  Te  Te161  1  0.82927066  0.66659560  0.66205405  1
  Te  Te162  1  -0.00108711  0.17299693  -0.00090350  1
  Te  Te163  1  -0.01055026  0.16769260  0.33343627  1
  Te  Te164  1  -0.01220249  0.16766447  0.66695806  1
  Te  Te165  1  0.00373176  0.50040828  0.00086796  1
  Te  Te166  1  -0.00521535  0.49860277  0.33283458  1
  Te  Te167  1  0.01045375  0.49955590  0.66789430  1
  Te  Te168  1  0.00302656  0.82792381  0.00002232  1
  Te  Te169  1  0.01167550  0.83313534  0.33279894  1
  Te  Te170  1  0.01052767  0.83317445  0.66750299  1
  Te  Te171  1  0.33903208  0.16254849  -0.00524434  1
  Te  Te172  1  0.33366394  0.16639943  0.33408367  1
  Te  Te173  1  0.33375380  0.16728287  0.66619574  1
  Te  Te174  1  0.33565584  0.49770742  -0.00226639  1
  Te  Te175  1  0.33068623  0.49739368  0.33493302  1
  Te  Te176  1  0.33392064  0.49933247  0.66670303  1
  Te  Te177  1  0.33345269  0.83599698  -0.00131078  1
  Te  Te178  1  0.33037023  0.83762001  0.33324339  1
  Te  Te179  1  0.33019557  0.83644958  0.67047098  1
  Te  Te180  1  0.65998773  0.16639083  -0.00431100  1
  Te  Te181  1  0.66677867  0.16316580  0.33346317  1
  Te  Te182  1  0.66669516  0.16778335  0.67058500  1
  Te  Te183  1  0.66404442  0.50150200  -0.00091004  1
  Te  Te184  1  0.66657841  0.49895153  0.33400611  1
  Te  Te185  1  0.66392448  0.49964813  0.66442398  1
  Te  Te186  1  0.66299422  0.83158669  -0.00027264  1
  Te  Te187  1  0.66602815  0.83883638  0.33382973  1
  Te  Te188  1  0.66567932  0.83063481  0.66677387  1
  Te  Te189  1  0.00691894  -0.00014143  0.16528626  1
  Te  Te190  1  -0.00708060  -0.00073190  0.50042815  1
  Te  Te191  1  0.00857648  0.00061246  0.83324997  1
  Te  Te192  1  0.00502392  0.33470492  0.15825657  1
  Te  Te193  1  0.00873198  0.33314647  0.50103383  1
  Te  Te194  1  -0.00622408  0.33290543  0.83917845  1
  Te  Te195  1  -0.00161120  0.66659817  0.15950131  1
  Te  Te196  1  -0.00197166  0.66695046  0.50172821  1
  Te  Te197  1  0.00008888  0.66615220  0.84027762  1
  Te  Te198  1  0.33208135  -0.00160119  0.16846367  1
  Te  Te199  1  0.33221744  -0.00159123  0.49581146  1
  Te  Te200  1  0.33177902  -0.00078187  0.83238038  1
  Te  Te201  1  0.32919272  0.33597227  0.16788817  1
  Te  Te202  1  0.33158699  0.33350366  0.50113940  1
  Te  Te203  1  0.33398395  0.33247876  0.82984841  1
  Te  Te204  1  0.32754893  0.67448114  0.16806668  1
  Te  Te205  1  0.32818802  0.66311496  0.50176631  1
  Te  Te206  1  0.33392833  0.66747764  0.83209595  1
  Te  Te207  1  0.66525322  -0.00380923  0.17158927  1
  Te  Te208  1  0.66707067  -0.00057411  0.49695765  1
  Te  Te209  1  0.66699976  -0.00058699  0.83298672  1
  Te  Te210  1  0.66576601  0.33772854  0.16343700  1
  Te  Te211  1  0.66656122  0.33751933  0.50333196  1
  Te  Te212  1  0.66635007  0.33334930  0.83209966  1
  Te  Te213  1  0.66578884  0.66724742  0.16635100  1
  Te  Te214  1  0.66664868  0.66500692  0.49959420  1
  Te  Te215  1  0.66690583  0.66839505  0.83352837  1
