# generated using pymatgen
data_AgSbTe2
_symmetry_space_group_name_H-M   'P 1'
_cell_length_a   18.34808849
_cell_length_b   18.34823491
_cell_length_c   18.34588855
_cell_angle_alpha   90.00379929
_cell_angle_beta   89.99954022
_cell_angle_gamma   90.00045523
_symmetry_Int_Tables_number   1
_chemical_formula_structural   AgSbTe2
_chemical_formula_sum   'Ag54 Sb54 Te108'
_cell_volume   6176.23579111
_cell_formula_units_Z   54
loop_
 _symmetry_equiv_pos_site_id
 _symmetry_equiv_pos_as_xyz
  1  'x, y, z'
loop_
 _atom_site_type_symbol
 _atom_site_label
 _atom_site_symmetry_multiplicity
 _atom_site_fract_x
 _atom_site_fract_y
 _atom_site_fract_z
 _atom_site_occupancy
  Ag  Ag0  1  0.01391015  0.33456368  0.66322600  1
  Ag  Ag1  1  0.00077499  0.66332200  0.66200792  1
  Ag  Ag2  1  0.66215349  0.49067823  0.17837632  1
  Ag  Ag3  1  0.49673757  0.49445519  0.33710952  1
  Ag  Ag4  1  0.33313400  0.32172166  -0.01345683  1
  Ag  Ag5  1  0.17641196  0.32639900  0.82268301  1
  Ag  Ag6  1  0.33222370  0.84073317  0.16456799  1
  Ag  Ag7  1  0.33294727  0.68223614  0.00156494  1
  Ag  Ag8  1  0.49760420  0.84665859  0.66453038  1
  Ag  Ag9  1  0.66337354  0.16945842  0.17810438  1
  Ag  Ag10  1  0.65701729  0.66855646  0.33926468  1
  Ag  Ag11  1  0.01066480  0.49671815  0.50289028  1
  Ag  Ag12  1  0.17928785  -0.00100484  0.15471933  1
  Ag  Ag13  1  0.49999747  0.00678505  0.49831634  1
  Ag  Ag14  1  0.00122736  0.16656240  0.50077024  1
  Ag  Ag15  1  0.32976863  0.00149567  -0.01022575  1
  Ag  Ag16  1  0.01164430  0.83657987  0.83063686  1
  Ag  Ag17  1  0.66263109  0.83621437  0.49962920  1
  Ag  Ag18  1  0.83033988  0.16619481  0.65764672  1
  Ag  Ag19  1  0.81814790  0.16370969  0.34180287  1
  Ag  Ag20  1  0.17276441  0.84133194  -0.00053662  1
  Ag  Ag21  1  0.49405992  0.49538590  0.65654882  1
  Ag  Ag22  1  0.01609313  0.00027496  0.00095399  1
  Ag  Ag23  1  0.65693465  0.83457153  0.82662006  1
  Ag  Ag24  1  0.48971432  0.00315885  0.82383502  1
  Ag  Ag25  1  0.33493629  0.00090615  0.33275694  1
  Ag  Ag26  1  0.50026605  0.16226201  0.33825790  1
  Ag  Ag27  1  0.16801915  0.33753818  0.50542098  1
  Ag  Ag28  1  0.66050136  0.16017349  0.49609138  1
  Ag  Ag29  1  0.17158089  0.65887876  0.49843678  1
  Ag  Ag30  1  0.17149341  0.49406152  0.65878776  1
  Ag  Ag31  1  0.33654179  0.66968837  0.33656407  1
  Ag  Ag32  1  0.17963626  0.00307334  0.84354980  1
  Ag  Ag33  1  0.49553105  0.16478323  0.65692804  1
  Ag  Ag34  1  0.34132484  0.16484820  0.50508425  1
  Ag  Ag35  1  0.01020785  0.00205736  0.33479769  1
  Ag  Ag36  1  0.82515933  0.66793732  0.50108724  1
  Ag  Ag37  1  0.49378957  0.00541465  0.18063443  1
  Ag  Ag38  1  0.82163249  0.00841680  0.49758283  1
  Ag  Ag39  1  0.17218354  0.15268339  -0.00186427  1
  Ag  Ag40  1  0.33534393  0.32468543  0.33663790  1
  Ag  Ag41  1  0.83267248  0.67089614  0.82317963  1
  Ag  Ag42  1  0.33157935  0.84649642  0.83628059  1
  Ag  Ag43  1  0.49844207  0.32507220  0.17320467  1
  Ag  Ag44  1  0.17635136  0.50255553  0.34053658  1
  Ag  Ag45  1  0.33379278  0.16045031  0.82641401  1
  Ag  Ag46  1  0.66028279  0.50310801  0.49650628  1
  Ag  Ag47  1  0.33626993  0.00916784  0.67703653  1
  Ag  Ag48  1  0.65563269  0.00514836  0.33825702  1
  Ag  Ag49  1  0.17202769  0.83832656  0.33436737  1
  Ag  Ag50  1  0.49106123  0.32464760  0.82969981  1
  Ag  Ag51  1  0.50037555  0.66826741  0.49866406  1
  Ag  Ag52  1  0.33199813  0.32717030  0.66842025  1
  Ag  Ag53  1  0.82152641  0.33051480  0.16994003  1
  Sb  Sb54  1  0.65969401  0.33158195  0.66356756  1
  Sb  Sb55  1  0.65677406  0.83713300  0.17340859  1
  Sb  Sb56  1  0.65956716  -0.00018550  0.00535146  1
  Sb  Sb57  1  -0.00173281  0.83469974  0.50364409  1
  Sb  Sb58  1  0.65907998  0.33157030  0.00377570  1
  Sb  Sb59  1  0.49768583  0.49814754  0.00339484  1
  Sb  Sb60  1  0.33393295  0.49702338  0.83140051  1
  Sb  Sb61  1  0.00799961  0.16170038  0.82603012  1
  Sb  Sb62  1  0.33266512  0.66494927  0.66153546  1
  Sb  Sb63  1  0.00716915  0.83629820  0.16448574  1
  Sb  Sb64  1  0.50101716  0.67077301  0.82466089  1
  Sb  Sb65  1  0.16826301  0.66913534  0.82805617  1
  Sb  Sb66  1  0.33794619  0.83881661  0.50054826  1
  Sb  Sb67  1  0.17251602  0.00233970  0.50097613  1
  Sb  Sb68  1  0.83540390  0.83885302  0.33550300  1
  Sb  Sb69  1  0.33669921  0.50027792  0.17180933  1
  Sb  Sb70  1  0.82906767  0.83742759  0.66407213  1
  Sb  Sb71  1  0.00164077  0.50345674  0.82451661  1
  Sb  Sb72  1  0.83394791  0.50022352  0.00131780  1
  Sb  Sb73  1  0.16972662  0.67232426  0.17377744  1
  Sb  Sb74  1  0.65608216  -0.00059677  0.65734129  1
  Sb  Sb75  1  0.83349295  0.33461321  0.83270898  1
  Sb  Sb76  1  0.00711304  0.67265326  -0.00901850  1
  Sb  Sb77  1  0.66411702  0.50426412  0.82824058  1
  Sb  Sb78  1  0.00968096  0.32698784  -0.00577403  1
  Sb  Sb79  1  0.66819050  0.66723783  0.65685225  1
  Sb  Sb80  1  0.83917023  0.16499018  0.00049974  1
  Sb  Sb81  1  0.00634394  0.00258600  0.66413026  1
  Sb  Sb82  1  0.33293557  0.49259897  0.49820298  1
  Sb  Sb83  1  0.17447754  0.32747423  0.16830136  1
  Sb  Sb84  1  0.17362770  0.16353763  0.33251955  1
  Sb  Sb85  1  0.49423204  0.83751777  0.34069609  1
  Sb  Sb86  1  0.49308234  0.33117207  0.49964563  1
  Sb  Sb87  1  0.17184482  0.83037591  0.66493874  1
  Sb  Sb88  1  0.83310873  -0.00287734  0.82585211  1
  Sb  Sb89  1  -0.00264510  0.16531013  0.17383947  1
  Sb  Sb90  1  0.65746319  0.15987752  0.82965584  1
  Sb  Sb91  1  0.00651221  0.32850858  0.34030082  1
  Sb  Sb92  1  0.82644883  0.49301445  0.33887496  1
  Sb  Sb93  1  0.66085007  0.66941837  0.00426602  1
  Sb  Sb94  1  0.82973741  0.66215661  0.17472471  1
  Sb  Sb95  1  0.83745975  0.32715843  0.49672880  1
  Sb  Sb96  1  0.33837990  0.15980191  0.16759495  1
  Sb  Sb97  1  0.83017948  0.00413549  0.17499838  1
  Sb  Sb98  1  0.84064270  0.83536216  -0.00356754  1
  Sb  Sb99  1  -0.00239218  0.49730813  0.17936027  1
  Sb  Sb100  1  0.16936001  0.50131128  -0.00034452  1
  Sb  Sb101  1  0.65883656  0.32970225  0.33533240  1
  Sb  Sb102  1  0.17393670  0.17158784  0.66655006  1
  Sb  Sb103  1  0.49105271  0.83562200  -0.00724734  1
  Sb  Sb104  1  0.49218129  0.16532932  0.00171593  1
  Sb  Sb105  1  0.00387686  0.67043030  0.34257748  1
  Sb  Sb106  1  0.49705511  0.66855855  0.17597386  1
  Sb  Sb107  1  0.83389330  0.49670816  0.66080700  1
  Te  Te108  1  0.16438077  0.15973568  0.16149692  1
  Te  Te109  1  0.16224379  0.17035254  0.49906301  1
  Te  Te110  1  0.17097102  0.16627294  0.83466848  1
  Te  Te111  1  0.16444701  0.49948684  0.17398941  1
  Te  Te112  1  0.16880905  0.49908786  0.49968814  1
  Te  Te113  1  0.16598941  0.49626501  0.83007287  1
  Te  Te114  1  0.17161967  0.83860226  0.16875150  1
  Te  Te115  1  0.16674497  0.82934715  0.49662745  1
  Te  Te116  1  0.17000084  0.83367318  0.83203875  1
  Te  Te117  1  0.50362348  0.16592744  0.16746294  1
  Te  Te118  1  0.50081671  0.16728118  0.49894760  1
  Te  Te119  1  0.49552273  0.16482993  0.83353555  1
  Te  Te120  1  0.50400546  0.49865992  0.17153477  1
  Te  Te121  1  0.49922105  0.49796124  0.49708941  1
  Te  Te122  1  0.50195772  0.49827454  0.83121975  1
  Te  Te123  1  0.49381526  0.83938177  0.16502225  1
  Te  Te124  1  0.50323676  0.83207541  0.50516659  1
  Te  Te125  1  0.49773802  0.83553874  0.82686589  1
  Te  Te126  1  0.82834573  0.17084349  0.16817496  1
  Te  Te127  1  0.83165020  0.16664914  0.49871499  1
  Te  Te128  1  0.83045955  0.16721023  0.83048003  1
  Te  Te129  1  0.82707388  0.49327984  0.16892260  1
  Te  Te130  1  0.82926856  0.50596564  0.49994897  1
  Te  Te131  1  0.83241479  0.50857880  0.83287469  1
  Te  Te132  1  0.83145614  0.83226955  0.16564396  1
  Te  Te133  1  0.82752467  0.83040582  0.49982411  1
  Te  Te134  1  0.83130196  0.82956952  0.83141913  1
  Te  Te135  1  0.17044348  -0.00295953  -0.00102586  1
  Te  Te136  1  0.16912084  -0.00139406  0.33628563  1
  Te  Te137  1  0.17403355  -0.00167568  0.67025844  1
  Te  Te138  1  0.17381070  0.33308409  -0.00074880  1
  Te  Te139  1  0.17268941  0.33557682  0.33497845  1
  Te  Te140  1  0.17011739  0.33447801  0.66646157  1
  Te  Te141  1  0.17300469  0.67015361  0.00016275  1
  Te  Te142  1  0.16909847  0.66537879  0.33789692  1
  Te  Te143  1  0.16437396  0.66082086  0.66109372  1
  Te  Te144  1  0.49418046  -0.00035674  -0.00418119  1
  Te  Te145  1  0.49873404  -0.00011663  0.33693293  1
  Te  Te146  1  0.49565086  0.00389228  0.66416961  1
  Te  Te147  1  0.49217455  0.33299803  -0.00362098  1
  Te  Te148  1  0.49504456  0.33399925  0.33190580  1
  Te  Te149  1  0.49574132  0.33186694  0.66860251  1
  Te  Te150  1  0.49230088  0.66643017  -0.00034530  1
  Te  Te151  1  0.49877170  0.66707111  0.33828296  1
  Te  Te152  1  0.50014005  0.65619971  0.65971448  1
  Te  Te153  1  0.83483322  0.00052578  0.00073655  1
  Te  Te154  1  0.83386627  0.00454655  0.33866293  1
  Te  Te155  1  0.83658531  0.00528348  0.65877443  1
  Te  Te156  1  0.83565912  0.33322359  0.00405427  1
  Te  Te157  1  0.83813430  0.32550275  0.32909432  1
  Te  Te158  1  0.83399372  0.32856618  0.66884009  1
  Te  Te159  1  0.83421711  0.66692568  -0.00086027  1
  Te  Te160  1  0.83269668  0.66594094  0.33984817  1
  Te  Te161  1  0.83689914  0.66673050  0.66312629  1
  Te  Te162  1  0.00684674  0.16070849  -0.00186803  1
  Te  Te163  1  0.00260360  0.16213302  0.33921596  1
  Te  Te164  1  -0.00382287  0.16910037  0.66182909  1
  Te  Te165  1  0.00118526  0.49990480  0.00148675  1
  Te  Te166  1  0.00359935  0.50000211  0.34321946  1
  Te  Te167  1  0.00074257  0.49888841  0.66090386  1
  Te  Te168  1  0.00792449  0.83891452  -0.00542227  1
  Te  Te169  1  0.00576072  0.83906045  0.33290122  1
  Te  Te170  1  0.00026639  0.83094715  0.67056086  1
  Te  Te171  1  0.32977474  0.16436178  -0.00147995  1
  Te  Te172  1  0.33744343  0.16639381  0.33457757  1
  Te  Te173  1  0.33512641  0.16762530  0.66591469  1
  Te  Te174  1  0.33246137  0.49826885  0.00348655  1
  Te  Te175  1  0.33581349  0.50677457  0.33276778  1
  Te  Te176  1  0.33325581  0.49736529  0.66630994  1
  Te  Te177  1  0.33094052  0.83953151  -0.00082527  1
  Te  Te178  1  0.33113205  0.83248480  0.33447535  1
  Te  Te179  1  0.33761155  0.83209164  0.67013135  1
  Te  Te180  1  0.66944230  0.16579431  0.00290525  1
  Te  Te181  1  0.66207730  0.16620549  0.33635076  1
  Te  Te182  1  0.66525755  0.16576421  0.66199129  1
  Te  Te183  1  0.66620255  0.50062714  0.00511027  1
  Te  Te184  1  0.66278164  0.49996171  0.33573243  1
  Te  Te185  1  0.66121846  0.49968326  0.66119400  1
  Te  Te186  1  0.66805755  0.83287276  -0.00147487  1
  Te  Te187  1  0.66784415  0.83278593  0.33722815  1
  Te  Te188  1  0.66080190  0.83311635  0.66594471  1
  Te  Te189  1  -0.00066534  -0.00019127  0.16896883  1
  Te  Te190  1  0.00207149  0.00252897  0.49741408  1
  Te  Te191  1  -0.00031172  -0.00405744  0.83449099  1
  Te  Te192  1  -0.00042840  0.33296250  0.16474642  1
  Te  Te193  1  0.00365089  0.33386562  0.50411786  1
  Te  Te194  1  0.00266970  0.33390527  0.82660076  1
  Te  Te195  1  -0.00203058  0.66661237  0.16392686  1
  Te  Te196  1  0.00224177  0.66740048  0.50380827  1
  Te  Te197  1  -0.00230277  0.67161006  0.82677080  1
  Te  Te198  1  0.33445029  -0.00015315  0.17445020  1
  Te  Te199  1  0.33726776  0.00399331  0.49330479  1
  Te  Te200  1  0.33422662  0.00164434  0.83246286  1
  Te  Te201  1  0.33865983  0.33298167  0.17451992  1
  Te  Te202  1  0.32803529  0.32623829  0.49891694  1
  Te  Te203  1  0.33397010  0.33450826  0.83152546  1
  Te  Te204  1  0.33305834  0.67391573  0.16819632  1
  Te  Te205  1  0.33490186  0.67047800  0.49687348  1
  Te  Te206  1  0.33429852  0.66818788  0.83724086  1
  Te  Te207  1  0.66167863  0.00485178  0.17303411  1
  Te  Te208  1  0.66420511  0.00046691  0.49700209  1
  Te  Te209  1  0.66429568  -0.00664810  0.83659771  1
  Te  Te210  1  0.66114910  0.33120238  0.16742905  1
  Te  Te211  1  0.67049627  0.33884156  0.50025639  1
  Te  Te212  1  0.66265231  0.33382586  0.83557558  1
  Te  Te213  1  0.66538781  0.66429891  0.17418611  1
  Te  Te214  1  0.66427429  0.66622527  0.49636016  1
  Te  Te215  1  0.66967719  0.67254541  0.83575437  1
