# generated using pymatgen
data_AgSbTe2
_symmetry_space_group_name_H-M   'P 1'
_cell_length_a   18.35516012
_cell_length_b   18.34007454
_cell_length_c   18.34955631
_cell_angle_alpha   90.00000221
_cell_angle_beta   89.99971123
_cell_angle_gamma   89.99986104
_symmetry_Int_Tables_number   1
_chemical_formula_structural   AgSbTe2
_chemical_formula_sum   'Ag54 Sb54 Te108'
_cell_volume   6177.10297894
_cell_formula_units_Z   54
loop_
 _symmetry_equiv_pos_site_id
 _symmetry_equiv_pos_as_xyz
  1  'x, y, z'
loop_
 _atom_site_type_symbol
 _atom_site_label
 _atom_site_symmetry_multiplicity
 _atom_site_fract_x
 _atom_site_fract_y
 _atom_site_fract_z
 _atom_site_occupancy
  Ag  Ag0  1  0.49033716  0.32844535  0.50554883  1
  Ag  Ag1  1  0.33406538  0.66016015  0.00070475  1
  Ag  Ag2  1  0.33477860  0.48744458  0.82775283  1
  Ag  Ag3  1  0.49393525  0.00715479  0.82149638  1
  Ag  Ag4  1  0.33017427  0.16845731  0.16462919  1
  Ag  Ag5  1  0.17820793  0.33005664  0.82230038  1
  Ag  Ag6  1  0.17571414  0.00829163  0.49867772  1
  Ag  Ag7  1  0.65853746  0.33020349  0.33924311  1
  Ag  Ag8  1  0.16909959  0.16793305  0.33936503  1
  Ag  Ag9  1  0.83262162  0.65483945  0.16754761  1
  Ag  Ag10  1  0.65437738  0.17673273  0.82874349  1
  Ag  Ag11  1  0.33328126  0.16850508  0.83533254  1
  Ag  Ag12  1  0.49768212  0.33032449  0.17167906  1
  Ag  Ag13  1  0.82328565  0.49399441  0.67007185  1
  Ag  Ag14  1  0.65714890  0.32964131  0.66577708  1
  Ag  Ag15  1  0.17073452  0.48748545  0.33313209  1
  Ag  Ag16  1  0.83082233  0.00419099  0.17689917  1
  Ag  Ag17  1  0.16747785  0.16804515  0.66355010  1
  Ag  Ag18  1  0.17849312  0.00490999  0.18012259  1
  Ag  Ag19  1  0.67064797  0.49386362  0.17013246  1
  Ag  Ag20  1  0.33225020  0.33374907  -0.01432854  1
  Ag  Ag21  1  0.49515682  0.00601923  0.50152444  1
  Ag  Ag22  1  0.01051732  -0.00095568  0.33511241  1
  Ag  Ag23  1  0.49624122  0.84680839  0.66592768  1
  Ag  Ag24  1  0.00274129  0.49491170  0.83419614  1
  Ag  Ag25  1  0.00931216  0.33399723  -0.00900986  1
  Ag  Ag26  1  0.00269773  0.66680387  0.33157923  1
  Ag  Ag27  1  0.49808210  0.84218016  0.33562207  1
  Ag  Ag28  1  0.83223763  0.32985956  0.49971928  1
  Ag  Ag29  1  0.33522273  0.32993220  0.33847818  1
  Ag  Ag30  1  0.66420778  0.65550231  0.33026122  1
  Ag  Ag31  1  0.65320703  0.01174978  0.66103066  1
  Ag  Ag32  1  0.83238679  0.66120060  0.83873669  1
  Ag  Ag33  1  0.49262196  0.33014525  0.82528725  1
  Ag  Ag34  1  0.33405600  0.66508488  0.33052102  1
  Ag  Ag35  1  0.83169252  0.00744317  0.49671445  1
  Ag  Ag36  1  0.33445009  0.00733573  0.34028640  1
  Ag  Ag37  1  0.33488023  0.32852347  0.66943476  1
  Ag  Ag38  1  0.01031331  0.33408810  0.66796771  1
  Ag  Ag39  1  0.33406527  0.49055994  0.50460261  1
  Ag  Ag40  1  0.49991088  0.48705665  0.66898794  1
  Ag  Ag41  1  0.17963369  0.84846221  0.66748644  1
  Ag  Ag42  1  0.66254735  0.49525921  0.82939205  1
  Ag  Ag43  1  0.49532608  0.83742337  -0.00494197  1
  Ag  Ag44  1  0.49661908  0.00463046  0.17763079  1
  Ag  Ag45  1  0.33257861  0.00842692  0.66886603  1
  Ag  Ag46  1  0.33518427  0.84431374  0.83149438  1
  Ag  Ag47  1  0.17042250  0.16863515  -0.00796775  1
  Ag  Ag48  1  0.00669217  0.16869385  0.49846274  1
  Ag  Ag49  1  0.82911719  0.33637661  0.17258204  1
  Ag  Ag50  1  -0.00505689  0.49494181  0.16784747  1
  Ag  Ag51  1  0.17418338  0.32927571  0.50372074  1
  Ag  Ag52  1  0.65503465  0.00608024  0.33788895  1
  Ag  Ag53  1  0.17736754  0.01205342  0.82079854  1
  Sb  Sb54  1  0.17387408  0.84031276  -0.00448457  1
  Sb  Sb55  1  0.50170127  0.66420500  0.16851118  1
  Sb  Sb56  1  0.66260980  0.17001951  0.16586321  1
  Sb  Sb57  1  0.00640099  0.00695410  0.66192362  1
  Sb  Sb58  1  0.17093098  0.49378976  0.66377165  1
  Sb  Sb59  1  0.83204485  0.33774862  0.83016936  1
  Sb  Sb60  1  0.16606180  0.66884763  0.16909590  1
  Sb  Sb61  1  0.49215535  0.16516280  0.33276927  1
  Sb  Sb62  1  0.00272486  0.84056093  0.49903797  1
  Sb  Sb63  1  0.66553964  0.66223395  0.66449369  1
  Sb  Sb64  1  0.00394493  0.49301927  0.49862308  1
  Sb  Sb65  1  0.00400987  0.33148843  0.33583594  1
  Sb  Sb66  1  0.66284319  0.83833192  0.49854197  1
  Sb  Sb67  1  0.00393417  0.00526042  0.00456578  1
  Sb  Sb68  1  0.17208214  0.83928759  0.33779631  1
  Sb  Sb69  1  0.49353069  0.16746797  0.66771246  1
  Sb  Sb70  1  0.16758683  0.49305060  0.00275655  1
  Sb  Sb71  1  0.00644334  0.17226362  0.82950123  1
  Sb  Sb72  1  0.66846949  0.16682510  0.50386970  1
  Sb  Sb73  1  0.66267138  0.66490883  0.00177588  1
  Sb  Sb74  1  0.49836977  0.66438637  0.83273424  1
  Sb  Sb75  1  0.33396525  0.00615427  -0.00387038  1
  Sb  Sb76  1  0.16868908  0.65976698  0.83268126  1
  Sb  Sb77  1  0.65914058  0.83175291  0.83086914  1
  Sb  Sb78  1  0.49538259  0.49653859  0.33705300  1
  Sb  Sb79  1  0.82871818  0.83371135  0.00156247  1
  Sb  Sb80  1  0.82846808  0.83188458  0.66622648  1
  Sb  Sb81  1  0.82959022  0.83590156  0.33336116  1
  Sb  Sb82  1  0.83337218  0.66268796  0.49636286  1
  Sb  Sb83  1  0.33449088  0.49237276  0.16791273  1
  Sb  Sb84  1  0.66319975  0.33343699  -0.00207489  1
  Sb  Sb85  1  0.83805646  0.17003276  0.00130412  1
  Sb  Sb86  1  0.83553968  0.49746905  0.33389713  1
  Sb  Sb87  1  -0.00053783  0.83248833  0.16807732  1
  Sb  Sb88  1  0.00365684  0.65995881  0.00259041  1
  Sb  Sb89  1  0.00043097  0.65944277  0.66474211  1
  Sb  Sb90  1  0.83690473  0.16546928  0.33390503  1
  Sb  Sb91  1  0.83358163  0.49731506  -0.00238039  1
  Sb  Sb92  1  0.33547126  0.84038923  0.16449189  1
  Sb  Sb93  1  0.66318284  0.00103992  0.00119859  1
  Sb  Sb94  1  0.49427104  0.16590016  -0.00239119  1
  Sb  Sb95  1  0.49795945  0.49878973  -0.00380582  1
  Sb  Sb96  1  0.32748996  0.17113480  0.50232930  1
  Sb  Sb97  1  0.83725140  0.17324048  0.66562210  1
  Sb  Sb98  1  0.16857952  0.66398253  0.49865790  1
  Sb  Sb99  1  0.66370593  0.83305855  0.17027362  1
  Sb  Sb100  1  0.49866099  0.66547999  0.49792763  1
  Sb  Sb101  1  0.00565821  0.16982041  0.17023686  1
  Sb  Sb102  1  0.66244066  0.49418955  0.50062100  1
  Sb  Sb103  1  0.33413165  0.66417713  0.66558126  1
  Sb  Sb104  1  0.17016480  0.32823613  0.16888623  1
  Sb  Sb105  1  0.00811414  0.83036853  0.83037698  1
  Sb  Sb106  1  0.82843182  -0.00309594  0.82967953  1
  Sb  Sb107  1  0.33366467  0.83557770  0.50256536  1
  Te  Te108  1  0.16908765  0.16249443  0.17141966  1
  Te  Te109  1  0.16708931  0.16872500  0.50048222  1
  Te  Te110  1  0.16742099  0.16971983  0.83149935  1
  Te  Te111  1  0.16314128  0.50246705  0.17288009  1
  Te  Te112  1  0.17133888  0.49610171  0.49442372  1
  Te  Te113  1  0.16756273  0.49164180  0.83454886  1
  Te  Te114  1  0.16736917  0.84267683  0.16476009  1
  Te  Te115  1  0.16742367  0.83924589  0.50690843  1
  Te  Te116  1  0.17245963  0.83573189  0.82834488  1
  Te  Te117  1  0.49630416  0.16740434  0.16340694  1
  Te  Te118  1  0.50360098  0.16882269  0.49963995  1
  Te  Te119  1  0.49812023  0.16652625  0.83404025  1
  Te  Te120  1  0.50503132  0.49405192  0.16674780  1
  Te  Te121  1  0.49543463  0.49511281  0.50489289  1
  Te  Te122  1  0.49902448  0.49731716  0.83073055  1
  Te  Te123  1  0.49913918  0.83686107  0.17205903  1
  Te  Te124  1  0.49917839  0.83831578  0.50067642  1
  Te  Te125  1  0.49535030  0.83239784  0.83063331  1
  Te  Te126  1  0.83238574  0.16548617  0.16563196  1
  Te  Te127  1  0.84044439  0.16828701  0.49972874  1
  Te  Te128  1  0.83179011  0.16313788  0.83448192  1
  Te  Te129  1  0.83242920  0.49813669  0.16863083  1
  Te  Te130  1  0.83389948  0.49438835  0.50622838  1
  Te  Te131  1  0.83208150  0.50155809  0.83106967  1
  Te  Te132  1  0.83161371  0.83990764  0.16582634  1
  Te  Te133  1  0.83447728  0.83964675  0.50083097  1
  Te  Te134  1  0.83424443  0.82454442  0.83408569  1
  Te  Te135  1  0.16599852  0.00720316  -0.00002106  1
  Te  Te136  1  0.17065816  0.00046931  0.33725848  1
  Te  Te137  1  0.16780339  0.00440864  0.66442713  1
  Te  Te138  1  0.16938077  0.32996577  0.00309039  1
  Te  Te139  1  0.16872759  0.33086870  0.33550248  1
  Te  Te140  1  0.17107058  0.33409431  0.66456753  1
  Te  Te141  1  0.17315458  0.66894435  0.00063058  1
  Te  Te142  1  0.16860256  0.66989889  0.33437466  1
  Te  Te143  1  0.16571900  0.67510597  0.66663160  1
  Te  Te144  1  0.50072250  -0.00396777  0.00263663  1
  Te  Te145  1  0.49653604  0.00163954  0.33602814  1
  Te  Te146  1  0.49733452  0.00279149  0.66508878  1
  Te  Te147  1  0.49407351  0.33271202  0.00078731  1
  Te  Te148  1  0.50037531  0.33304221  0.33301572  1
  Te  Te149  1  0.49910421  0.33130762  0.66627658  1
  Te  Te150  1  0.49460046  0.67153918  0.00087314  1
  Te  Te151  1  0.50122371  0.66893166  0.33357196  1
  Te  Te152  1  0.50142494  0.67089207  0.66452168  1
  Te  Te153  1  0.83453816  -0.00008816  0.00428132  1
  Te  Te154  1  0.83149787  -0.00090211  0.33629424  1
  Te  Te155  1  0.83588079  -0.00107746  0.66107282  1
  Te  Te156  1  0.83595876  0.33320416  0.00958744  1
  Te  Te157  1  0.83057489  0.33319789  0.33373505  1
  Te  Te158  1  0.82899171  0.33654908  0.66438826  1
  Te  Te159  1  0.83444274  0.66794025  0.00496039  1
  Te  Te160  1  0.83003042  0.66702635  0.32956980  1
  Te  Te161  1  0.83308795  0.66001958  0.66674045  1
  Te  Te162  1  0.00738468  0.17420738  0.00052783  1
  Te  Te163  1  0.00509262  0.16018632  0.33686910  1
  Te  Te164  1  0.00498714  0.17375547  0.66272980  1
  Te  Te165  1  0.00078734  0.49430219  0.00068112  1
  Te  Te166  1  0.00349042  0.50295587  0.33097503  1
  Te  Te167  1  0.00180593  0.49472569  0.67001258  1
  Te  Te168  1  -0.00047947  0.83148807  -0.00091354  1
  Te  Te169  1  0.00046748  0.83386947  0.33256652  1
  Te  Te170  1  -0.00181588  0.83085983  0.66637164  1
  Te  Te171  1  0.32993521  0.17269041  -0.00038492  1
  Te  Te172  1  0.32850794  0.16514914  0.33026011  1
  Te  Te173  1  0.32785894  0.16708837  0.67018850  1
  Te  Te174  1  0.33260997  0.49729305  -0.00472415  1
  Te  Te175  1  0.33130095  0.49782115  0.33289628  1
  Te  Te176  1  0.33717544  0.49818885  0.66609128  1
  Te  Te177  1  0.33706135  0.82993075  -0.00329292  1
  Te  Te178  1  0.33781805  0.83050855  0.33278561  1
  Te  Te179  1  0.33555244  0.83004327  0.66863615  1
  Te  Te180  1  0.66953519  0.16651606  -0.01030837  1
  Te  Te181  1  0.66846923  0.16909333  0.33191993  1
  Te  Te182  1  0.67122343  0.16752192  0.67027941  1
  Te  Te183  1  0.66594594  0.50097227  -0.00191111  1
  Te  Te184  1  0.66585566  0.49581178  0.33027139  1
  Te  Te185  1  0.66346475  0.49703108  0.66819344  1
  Te  Te186  1  0.65705825  0.83233570  -0.00062289  1
  Te  Te187  1  0.66101906  0.84232210  0.33329337  1
  Te  Te188  1  0.66206070  0.83544162  0.66638755  1
  Te  Te189  1  -0.00514050  0.00038382  0.17267587  1
  Te  Te190  1  -0.00160212  0.00479099  0.49624272  1
  Te  Te191  1  -0.00033138  -0.00185380  0.83470090  1
  Te  Te192  1  -0.00187075  0.33596149  0.16900008  1
  Te  Te193  1  -0.00251281  0.33034901  0.50337845  1
  Te  Te194  1  -0.00322904  0.33710291  0.83202833  1
  Te  Te195  1  -0.00230810  0.66346979  0.17054815  1
  Te  Te196  1  -0.00006476  0.66766477  0.49186137  1
  Te  Te197  1  -0.00275118  0.65922470  0.83344373  1
  Te  Te198  1  0.33559784  0.00459303  0.16434243  1
  Te  Te199  1  0.33492946  -0.00123861  0.50136801  1
  Te  Te200  1  0.33387719  0.00199652  0.83253008  1
  Te  Te201  1  0.33672924  0.32975484  0.17856650  1
  Te  Te202  1  0.33376740  0.33256670  0.49787232  1
  Te  Te203  1  0.33407834  0.33141974  0.83090038  1
  Te  Te204  1  0.33401923  0.66492355  0.16810740  1
  Te  Te205  1  0.33301756  0.65888640  0.49271169  1
  Te  Te206  1  0.33193528  0.66339632  0.83658534  1
  Te  Te207  1  0.66437887  0.00145049  0.17067998  1
  Te  Te208  1  0.66486672  0.00194387  0.50112315  1
  Te  Te209  1  0.66324823  0.00031292  0.82942609  1
  Te  Te210  1  0.66534184  0.33397449  0.16515726  1
  Te  Te211  1  0.66941373  0.33237683  0.49972531  1
  Te  Te212  1  0.66516814  0.33515890  0.83135387  1
  Te  Te213  1  0.66947179  0.66270997  0.16970974  1
  Te  Te214  1  0.66791401  0.66705009  0.49084807  1
  Te  Te215  1  0.67184632  0.66105051  0.83288001  1
