# generated using pymatgen
data_AgSbTe2
_symmetry_space_group_name_H-M   'P 1'
_cell_length_a   18.31390801
_cell_length_b   18.31216086
_cell_length_c   18.31453881
_cell_angle_alpha   90.00141434
_cell_angle_beta   89.99732142
_cell_angle_gamma   89.99974643
_symmetry_Int_Tables_number   1
_chemical_formula_structural   AgSbTe2
_chemical_formula_sum   'Ag54 Sb54 Te108'
_cell_volume   6142.09613262
_cell_formula_units_Z   54
loop_
 _symmetry_equiv_pos_site_id
 _symmetry_equiv_pos_as_xyz
  1  'x, y, z'
loop_
 _atom_site_type_symbol
 _atom_site_label
 _atom_site_symmetry_multiplicity
 _atom_site_fract_x
 _atom_site_fract_y
 _atom_site_fract_z
 _atom_site_occupancy
  Ag  Ag0  1  0.83234623  -0.00202859  0.50505053  1
  Ag  Ag1  1  0.66797036  0.32940108  0.65772611  1
  Ag  Ag2  1  -0.00054466  0.49594085  0.49216945  1
  Ag  Ag3  1  0.66970699  0.67452357  0.65891590  1
  Ag  Ag4  1  -0.00152345  0.50186372  0.83333623  1
  Ag  Ag5  1  0.15770967  0.33411392  0.49091889  1
  Ag  Ag6  1  0.83366034  0.00105277  0.82524694  1
  Ag  Ag7  1  0.33119087  0.16431930  0.16665957  1
  Ag  Ag8  1  0.32736190  0.83922889  0.16795115  1
  Ag  Ag9  1  0.16860502  0.17129960  0.32900491  1
  Ag  Ag10  1  0.16634719  0.16449011  0.00426953  1
  Ag  Ag11  1  0.50761171  0.83875589  0.66390527  1
  Ag  Ag12  1  0.82914158  0.15976175  0.66534000  1
  Ag  Ag13  1  -0.00391460  0.33643441  0.33498295  1
  Ag  Ag14  1  0.16072706  0.33175955  0.17366611  1
  Ag  Ag15  1  -0.00961238  0.83127400  0.50233878  1
  Ag  Ag16  1  0.16380305  0.84068864  -0.00056662  1
  Ag  Ag17  1  0.33076215  0.50052865  0.49882733  1
  Ag  Ag18  1  0.34345868  -0.00217601  0.66450457  1
  Ag  Ag19  1  0.16263059  -0.00096127  0.83369436  1
  Ag  Ag20  1  0.83726970  0.33070973  0.49369180  1
  Ag  Ag21  1  0.83586831  0.49604143  0.32835898  1
  Ag  Ag22  1  0.49704720  0.16482485  0.33732260  1
  Ag  Ag23  1  0.33729054  0.00106965  0.33813694  1
  Ag  Ag24  1  0.15289571  0.48960213  0.33453482  1
  Ag  Ag25  1  0.33465478  0.83558017  0.50176141  1
  Ag  Ag26  1  -0.00168020  0.16105887  0.83085209  1
  Ag  Ag27  1  -0.00314477  0.17467460  0.50192985  1
  Ag  Ag28  1  0.32705157  0.83911435  0.82936063  1
  Ag  Ag29  1  0.83475184  0.65464315  0.16906096  1
  Ag  Ag30  1  0.82835840  0.83906298  0.65812986  1
  Ag  Ag31  1  -0.00028997  0.82643396  0.16671139  1
  Ag  Ag32  1  0.67019892  0.66649650  0.34031652  1
  Ag  Ag33  1  0.83832706  0.34123947  0.17557617  1
  Ag  Ag34  1  0.33289769  0.32948648  0.00287625  1
  Ag  Ag35  1  0.50388967  0.50270696  0.66653606  1
  Ag  Ag36  1  -0.00232145  0.66602205  -0.00123775  1
  Ag  Ag37  1  0.83423677  0.49521048  0.01295292  1
  Ag  Ag38  1  0.50343706  0.66775981  0.50286406  1
  Ag  Ag39  1  0.50462593  0.49583817  -0.00283204  1
  Ag  Ag40  1  0.67696533  0.33536416  0.33753521  1
  Ag  Ag41  1  0.66787137  0.00113314  -0.00614466  1
  Ag  Ag42  1  0.83655161  0.16865292  -0.00265667  1
  Ag  Ag43  1  0.50118698  0.00058220  0.82860507  1
  Ag  Ag44  1  0.66676112  -0.00209907  0.66501868  1
  Ag  Ag45  1  -0.00894006  0.50183090  0.17184719  1
  Ag  Ag46  1  0.00209765  0.83656694  0.83128677  1
  Ag  Ag47  1  0.83377136  0.83167727  0.34022963  1
  Ag  Ag48  1  -0.00828202  0.66857902  0.66694829  1
  Ag  Ag49  1  0.50730708  0.15658745  0.66616962  1
  Ag  Ag50  1  0.67937671  0.49924231  0.16989820  1
  Ag  Ag51  1  0.66675371  0.00026403  0.33884602  1
  Ag  Ag52  1  0.67426116  0.83389390  0.50220393  1
  Ag  Ag53  1  0.49819116  0.16779192  -0.00070558  1
  Sb  Sb54  1  0.49960842  0.00045514  0.16531052  1
  Sb  Sb55  1  0.32959564  0.16463467  0.49633149  1
  Sb  Sb56  1  0.33087111  0.50376478  0.82980805  1
  Sb  Sb57  1  0.67119846  0.50016905  0.83491674  1
  Sb  Sb58  1  0.00061310  0.33622922  0.00611941  1
  Sb  Sb59  1  0.83672368  0.67148348  0.83468191  1
  Sb  Sb60  1  -0.00630776  0.33551822  0.65801712  1
  Sb  Sb61  1  0.66664014  0.33055096  0.00226376  1
  Sb  Sb62  1  0.50044582  0.32709805  0.83348590  1
  Sb  Sb63  1  0.83127479  0.50095602  0.66366921  1
  Sb  Sb64  1  0.16388327  0.83577195  0.66919824  1
  Sb  Sb65  1  0.83561129  0.32841974  0.83156860  1
  Sb  Sb66  1  0.32894517  0.32859626  0.33125118  1
  Sb  Sb67  1  0.16165573  0.49680969  0.00423482  1
  Sb  Sb68  1  0.67046760  0.50368323  0.49702646  1
  Sb  Sb69  1  -0.00209144  0.00277807  0.33563539  1
  Sb  Sb70  1  -0.00370885  -0.00186131  -0.00292068  1
  Sb  Sb71  1  0.67054408  0.83022707  0.17428916  1
  Sb  Sb72  1  0.33910657  0.67151202  0.33501258  1
  Sb  Sb73  1  0.50372815  0.83877257  0.34029289  1
  Sb  Sb74  1  0.49640116  0.83595136  -0.00664146  1
  Sb  Sb75  1  0.32973733  0.66540057  0.00181996  1
  Sb  Sb76  1  -0.00842196  -0.00403962  0.66805746  1
  Sb  Sb77  1  0.16760638  0.00418710  0.16379086  1
  Sb  Sb78  1  0.83331153  0.00178295  0.16826191  1
  Sb  Sb79  1  0.16286981  0.83552725  0.33034716  1
  Sb  Sb80  1  0.66477129  0.17084014  0.16819018  1
  Sb  Sb81  1  0.50335122  0.33550273  0.49933954  1
  Sb  Sb82  1  0.50493106  0.49551876  0.33468472  1
  Sb  Sb83  1  0.50067725  0.67100013  0.82728909  1
  Sb  Sb84  1  0.67267975  0.16205393  0.50117487  1
  Sb  Sb85  1  0.33895530  0.32862024  0.66655484  1
  Sb  Sb86  1  0.16202039  0.67306860  0.83429077  1
  Sb  Sb87  1  0.50576825  0.66615152  0.17023410  1
  Sb  Sb88  1  0.16392641  0.32808526  0.83539222  1
  Sb  Sb89  1  0.67101078  0.83743477  0.82482864  1
  Sb  Sb90  1  0.33029170  0.49795302  0.17073360  1
  Sb  Sb91  1  0.16285628  0.00225898  0.50363229  1
  Sb  Sb92  1  0.67207048  0.16320191  0.83209974  1
  Sb  Sb93  1  0.33626210  0.00374776  -0.00148136  1
  Sb  Sb94  1  0.16580113  0.66382671  0.49856948  1
  Sb  Sb95  1  0.33623985  0.67359656  0.66377925  1
  Sb  Sb96  1  0.15803125  0.66330691  0.16743187  1
  Sb  Sb97  1  0.83834390  0.83599551  0.00008203  1
  Sb  Sb98  1  -0.00737096  0.66177607  0.33436295  1
  Sb  Sb99  1  0.50070024  0.33273764  0.16759683  1
  Sb  Sb100  1  0.83393430  0.16943550  0.33512494  1
  Sb  Sb101  1  0.33012038  0.15925290  0.83672651  1
  Sb  Sb102  1  0.00237602  0.16948654  0.16743876  1
  Sb  Sb103  1  0.50541086  -0.00328471  0.50609377  1
  Sb  Sb104  1  0.83038388  0.66944663  0.49581879  1
  Sb  Sb105  1  0.67217469  0.66906206  0.00089782  1
  Sb  Sb106  1  0.16252578  0.16451012  0.66637016  1
  Sb  Sb107  1  0.16688437  0.49837946  0.66055310  1
  Te  Te108  1  0.16852820  0.17005331  0.16548577  1
  Te  Te109  1  0.16033063  0.17016120  0.49788007  1
  Te  Te110  1  0.16029234  0.16142998  0.83654950  1
  Te  Te111  1  0.16438142  0.49430440  0.17285138  1
  Te  Te112  1  0.16386337  0.49728444  0.49548506  1
  Te  Te113  1  0.16076510  0.49909026  0.83386822  1
  Te  Te114  1  0.16514732  0.83317094  0.16302281  1
  Te  Te115  1  0.16883631  0.83298048  0.49863081  1
  Te  Te116  1  0.16330810  0.83848649  0.83659074  1
  Te  Te117  1  0.49482083  0.16666908  0.16266971  1
  Te  Te118  1  0.49846158  0.16683810  0.50104226  1
  Te  Te119  1  0.49805187  0.16151100  0.83302964  1
  Te  Te120  1  0.49944737  0.50075847  0.16059576  1
  Te  Te121  1  0.49877170  0.50302806  0.50305393  1
  Te  Te122  1  0.49883473  0.49999985  0.83412719  1
  Te  Te123  1  0.49464982  0.83219398  0.16596791  1
  Te  Te124  1  0.49590106  0.83087933  0.50381111  1
  Te  Te125  1  0.49682159  0.83829397  0.82711538  1
  Te  Te126  1  0.83390892  0.17007115  0.16028799  1
  Te  Te127  1  0.83743646  0.16683212  0.50160013  1
  Te  Te128  1  0.83843076  0.16290598  0.83443704  1
  Te  Te129  1  0.83510250  0.49813273  0.16821570  1
  Te  Te130  1  0.83826067  0.49611921  0.49731255  1
  Te  Te131  1  0.83918963  0.49976455  0.83440508  1
  Te  Te132  1  0.83793486  0.83363318  0.16934859  1
  Te  Te133  1  0.83315131  0.83312000  0.49902710  1
  Te  Te134  1  0.83979172  0.83912624  0.83189700  1
  Te  Te135  1  0.16747708  0.00237943  -0.00406600  1
  Te  Te136  1  0.16988478  0.00549700  0.33442626  1
  Te  Te137  1  0.17759183  0.00140905  0.67220812  1
  Te  Te138  1  0.16928788  0.32851194  0.00309784  1
  Te  Te139  1  0.16739779  0.33163134  0.33384093  1
  Te  Te140  1  0.16886146  0.33161810  0.66117240  1
  Te  Te141  1  0.16026851  0.66989705  0.00092394  1
  Te  Te142  1  0.16985780  0.66085967  0.33282071  1
  Te  Te143  1  0.15778573  0.66565247  0.66671684  1
  Te  Te144  1  0.50546570  0.00319516  -0.00530008  1
  Te  Te145  1  0.50108078  0.00519067  0.33313491  1
  Te  Te146  1  0.50342061  -0.00092595  0.66778195  1
  Te  Te147  1  0.49880851  0.33167979  0.00015469  1
  Te  Te148  1  0.50622108  0.32629792  0.33305262  1
  Te  Te149  1  0.50621361  0.33403529  0.66664954  1
  Te  Te150  1  0.50129468  0.66144121  -0.00047675  1
  Te  Te151  1  0.50855699  0.66708492  0.33863923  1
  Te  Te152  1  0.50294692  0.66702739  0.66356678  1
  Te  Te153  1  0.82832288  0.00487176  -0.00187473  1
  Te  Te154  1  0.83025950  -0.00079791  0.33684167  1
  Te  Te155  1  0.83069965  -0.00001642  0.66591803  1
  Te  Te156  1  0.83228186  0.33132042  0.00152793  1
  Te  Te157  1  0.83430726  0.33172327  0.33409877  1
  Te  Te158  1  0.82722254  0.32977992  0.66340481  1
  Te  Te159  1  0.83724318  0.66346778  0.00423095  1
  Te  Te160  1  0.82887715  0.66744728  0.32990678  1
  Te  Te161  1  0.83167794  0.67034684  0.66749946  1
  Te  Te162  1  -0.00032194  0.16706677  -0.00129312  1
  Te  Te163  1  0.00430996  0.17047410  0.33571154  1
  Te  Te164  1  -0.00506364  0.16755743  0.66540232  1
  Te  Te165  1  -0.00253551  0.50313260  0.00175334  1
  Te  Te166  1  -0.00324761  0.49955902  0.33309330  1
  Te  Te167  1  -0.00066531  0.50414526  0.66829012  1
  Te  Te168  1  0.00272801  0.83145203  -0.00143934  1
  Te  Te169  1  -0.00371984  0.83339187  0.33632060  1
  Te  Te170  1  -0.00217170  0.83052412  0.66544074  1
  Te  Te171  1  0.33348279  0.16816357  0.00273600  1
  Te  Te172  1  0.33329906  0.16271333  0.33011248  1
  Te  Te173  1  0.33833793  0.16142157  0.66691878  1
  Te  Te174  1  0.33541891  0.49607250  -0.00075010  1
  Te  Te175  1  0.33605479  0.50077801  0.33962699  1
  Te  Te176  1  0.33841741  0.50040729  0.66241832  1
  Te  Te177  1  0.32821415  0.83349645  0.00137550  1
  Te  Te178  1  0.33217105  0.83927005  0.33450147  1
  Te  Te179  1  0.33238350  0.83690365  0.66483692  1
  Te  Te180  1  0.66415361  0.16325541  0.00066521  1
  Te  Te181  1  0.66272583  0.16484154  0.33399374  1
  Te  Te182  1  0.66753823  0.16335279  0.66650699  1
  Te  Te183  1  0.66761795  0.49967468  0.00248643  1
  Te  Te184  1  0.66902273  0.49814378  0.33060416  1
  Te  Te185  1  0.66311859  0.50216069  0.66670938  1
  Te  Te186  1  0.66590906  0.83924305  0.00167926  1
  Te  Te187  1  0.67067657  0.83546276  0.33772432  1
  Te  Te188  1  0.66781555  0.83515305  0.66392488  1
  Te  Te189  1  0.00039847  -0.01045825  0.16702357  1
  Te  Te190  1  -0.00492219  -0.00474513  0.50158732  1
  Te  Te191  1  -0.00069685  0.00025605  0.83256822  1
  Te  Te192  1  -0.00022521  0.33582586  0.17173284  1
  Te  Te193  1  -0.00150782  0.33477448  0.49707608  1
  Te  Te194  1  0.00094681  0.33374497  0.83125236  1
  Te  Te195  1  -0.00526564  0.66672345  0.16704402  1
  Te  Te196  1  -0.00096827  0.66923285  0.50317689  1
  Te  Te197  1  -0.00027029  0.66740502  0.83382942  1
  Te  Te198  1  0.33332703  -0.00041449  0.17109069  1
  Te  Te199  1  0.33131555  -0.00222798  0.49966613  1
  Te  Te200  1  0.33535301  -0.00384606  0.83204149  1
  Te  Te201  1  0.32984699  0.33008902  0.16370439  1
  Te  Te202  1  0.33049808  0.33743023  0.50038448  1
  Te  Te203  1  0.33208885  0.33543905  0.83962475  1
  Te  Te204  1  0.33344572  0.67380526  0.16734191  1
  Te  Te205  1  0.33804285  0.66748639  0.50024621  1
  Te  Te206  1  0.33190384  0.67678472  0.83292405  1
  Te  Te207  1  0.66646569  -0.00075726  0.17254473  1
  Te  Te208  1  0.67111638  -0.00395260  0.49946857  1
  Te  Te209  1  0.66840990  -0.00025896  0.83179400  1
  Te  Te210  1  0.67085825  0.33813905  0.17014346  1
  Te  Te211  1  0.67096242  0.33479524  0.49860430  1
  Te  Te212  1  0.66739454  0.33392305  0.82370232  1
  Te  Te213  1  0.67309837  0.66247354  0.16934445  1
  Te  Te214  1  0.66467581  0.66982742  0.50060877  1
  Te  Te215  1  0.66819031  0.66796594  0.82635294  1
