# generated using pymatgen
data_AgSbTe2
_symmetry_space_group_name_H-M   'P 1'
_cell_length_a   18.33896335
_cell_length_b   18.33856465
_cell_length_c   18.33353658
_cell_angle_alpha   90.00164753
_cell_angle_beta   90.00148497
_cell_angle_gamma   90.00220836
_symmetry_Int_Tables_number   1
_chemical_formula_structural   AgSbTe2
_chemical_formula_sum   'Ag54 Sb54 Te108'
_cell_volume   6165.75653528
_cell_formula_units_Z   54
loop_
 _symmetry_equiv_pos_site_id
 _symmetry_equiv_pos_as_xyz
  1  'x, y, z'
loop_
 _atom_site_type_symbol
 _atom_site_label
 _atom_site_symmetry_multiplicity
 _atom_site_fract_x
 _atom_site_fract_y
 _atom_site_fract_z
 _atom_site_occupancy
  Ag  Ag0  1  0.17844047  0.66474420  0.16917748  1
  Ag  Ag1  1  0.16318815  0.83445475  0.66542619  1
  Ag  Ag2  1  0.00229661  0.33318266  0.00291768  1
  Ag  Ag3  1  0.82810488  0.67048532  0.17454673  1
  Ag  Ag4  1  0.66271906  -0.01174572  0.33384050  1
  Ag  Ag5  1  0.17299518  0.50117440  0.00010840  1
  Ag  Ag6  1  0.00965870  0.84130671  0.82619033  1
  Ag  Ag7  1  0.17138556  0.50080802  0.66623800  1
  Ag  Ag8  1  0.50827694  0.83413655  0.33630645  1
  Ag  Ag9  1  0.84013085  0.84033090  0.65431231  1
  Ag  Ag10  1  0.33209942  0.17218106  0.83515856  1
  Ag  Ag11  1  0.66355251  0.16689499  0.16816405  1
  Ag  Ag12  1  0.50070228  -0.00781377  0.49239692  1
  Ag  Ag13  1  0.33144846  0.50064034  0.83986420  1
  Ag  Ag14  1  0.68091584  0.83421137  0.48763401  1
  Ag  Ag15  1  0.32655873  0.82032677  0.83307378  1
  Ag  Ag16  1  0.49427155  0.66309864  0.17468047  1
  Ag  Ag17  1  0.00387242  0.16332790  0.82520399  1
  Ag  Ag18  1  0.84021192  0.00168445  0.82464940  1
  Ag  Ag19  1  0.33175307  0.65785105  0.00388595  1
  Ag  Ag20  1  0.16998323  0.50638247  0.33406049  1
  Ag  Ag21  1  0.16339606  -0.00391527  0.50340768  1
  Ag  Ag22  1  0.00039699  0.49893642  0.49822412  1
  Ag  Ag23  1  0.33377723  0.33506185  0.67793096  1
  Ag  Ag24  1  0.33432893  0.33863605  -0.00075109  1
  Ag  Ag25  1  0.83521268  -0.00634902  0.49797557  1
  Ag  Ag26  1  0.66003595  0.33148578  0.00372130  1
  Ag  Ag27  1  0.83764376  0.32914880  0.49476724  1
  Ag  Ag28  1  0.49130314  0.66323411  0.83313706  1
  Ag  Ag29  1  0.82893275  -0.00071543  0.17894533  1
  Ag  Ag30  1  0.65582506  0.67555914  0.33121024  1
  Ag  Ag31  1  0.84049694  0.16110625  0.66518268  1
  Ag  Ag32  1  0.33643869  0.67054256  0.32760047  1
  Ag  Ag33  1  0.33272438  0.33457598  0.32813617  1
  Ag  Ag34  1  0.17542044  0.67236800  0.83512322  1
  Ag  Ag35  1  0.49330999  0.33421591  0.84028133  1
  Ag  Ag36  1  0.48927606  0.50008258  0.66750350  1
  Ag  Ag37  1  0.66885372  0.83550956  0.17701715  1
  Ag  Ag38  1  -0.00296972  0.16513938  0.50423131  1
  Ag  Ag39  1  0.16312656  0.16355310  0.66860000  1
  Ag  Ag40  1  0.82968090  0.68101980  0.49230793  1
  Ag  Ag41  1  0.50286105  0.67286911  0.48963251  1
  Ag  Ag42  1  0.81938561  0.83239735  0.34314753  1
  Ag  Ag43  1  -0.00743642  0.83444657  0.50157961  1
  Ag  Ag44  1  0.49719665  0.15929355  0.33252889  1
  Ag  Ag45  1  0.66401440  0.16687666  0.83659656  1
  Ag  Ag46  1  0.16879475  0.82923067  0.34148835  1
  Ag  Ag47  1  0.16531794  -0.00662033  0.82620333  1
  Ag  Ag48  1  0.33162567  0.49820162  0.16335582  1
  Ag  Ag49  1  0.00197685  0.33303306  0.33434535  1
  Ag  Ag50  1  0.33969501  -0.00709109  0.33374103  1
  Ag  Ag51  1  0.49522151  0.33498932  0.16520878  1
  Ag  Ag52  1  0.33873123  0.17635311  0.16965427  1
  Ag  Ag53  1  0.82779894  0.33117378  0.17083645  1
  Sb  Sb54  1  0.16783134  0.17344038  -0.00683086  1
  Sb  Sb55  1  0.49156101  0.49845698  -0.00194934  1
  Sb  Sb56  1  0.00019266  -0.00072117  0.66383097  1
  Sb  Sb57  1  0.16501047  -0.00596047  0.17038873  1
  Sb  Sb58  1  0.49678620  0.82895358  0.66158818  1
  Sb  Sb59  1  0.66980841  -0.00003341  0.65975204  1
  Sb  Sb60  1  0.49952805  0.17036369  0.00680789  1
  Sb  Sb61  1  -0.00469409  0.83205462  0.17166041  1
  Sb  Sb62  1  0.49881668  0.82928056  0.00649510  1
  Sb  Sb63  1  0.16238705  0.33130071  0.49896014  1
  Sb  Sb64  1  0.33249610  0.00293979  0.00285981  1
  Sb  Sb65  1  0.32978262  0.00279820  0.66337499  1
  Sb  Sb66  1  0.33259977  0.66218818  0.66848512  1
  Sb  Sb67  1  0.82973758  0.16251518  0.33640492  1
  Sb  Sb68  1  0.49244775  0.50414846  0.33627842  1
  Sb  Sb69  1  0.00512538  0.33008423  0.66543812  1
  Sb  Sb70  1  0.17424826  0.33329653  0.83206417  1
  Sb  Sb71  1  0.00692439  0.49803189  0.17160978  1
  Sb  Sb72  1  0.17149551  0.16520224  0.33738249  1
  Sb  Sb73  1  0.82990925  0.32674790  0.83333731  1
  Sb  Sb74  1  0.66594261  0.33312440  0.32930048  1
  Sb  Sb75  1  0.66616399  0.83892265  0.83250014  1
  Sb  Sb76  1  0.33185720  0.83321839  0.49950403  1
  Sb  Sb77  1  0.16843565  0.82717247  -0.00344298  1
  Sb  Sb78  1  0.50351093  0.00065146  0.17481260  1
  Sb  Sb79  1  0.66799280  0.00457752  0.00729403  1
  Sb  Sb80  1  0.00708647  0.66255932  0.00049060  1
  Sb  Sb81  1  0.84158743  0.49748733  0.00133948  1
  Sb  Sb82  1  0.67088804  0.50629338  0.49830404  1
  Sb  Sb83  1  0.49676080  0.00187149  0.82489391  1
  Sb  Sb84  1  0.32827804  0.50092731  0.49930786  1
  Sb  Sb85  1  0.83745465  0.49945901  0.66429320  1
  Sb  Sb86  1  0.66024516  0.49840645  0.16779315  1
  Sb  Sb87  1  0.66291568  0.33095201  0.66912361  1
  Sb  Sb88  1  0.49735057  0.16987691  0.66343654  1
  Sb  Sb89  1  0.83886998  0.50423261  0.33352052  1
  Sb  Sb90  1  -0.00027610  0.17001580  0.16904933  1
  Sb  Sb91  1  0.01030320  0.49754399  0.82920966  1
  Sb  Sb92  1  0.00067448  0.00489327  -0.00379006  1
  Sb  Sb93  1  0.16727555  0.67058127  0.49866343  1
  Sb  Sb94  1  0.00269889  0.66592755  0.33462245  1
  Sb  Sb95  1  -0.00108528  0.00219155  0.33703995  1
  Sb  Sb96  1  0.83401694  0.83296016  0.00389455  1
  Sb  Sb97  1  0.83355575  0.67548276  0.83141127  1
  Sb  Sb98  1  0.66464952  0.66873031  0.66121248  1
  Sb  Sb99  1  0.83336689  0.16785404  -0.00323696  1
  Sb  Sb100  1  0.66025748  0.66106955  0.00711209  1
  Sb  Sb101  1  0.50239575  0.33487939  0.49694661  1
  Sb  Sb102  1  0.65661603  0.49569095  0.83465692  1
  Sb  Sb103  1  0.67110269  0.16042014  0.49717569  1
  Sb  Sb104  1  0.17367930  0.33778655  0.16725955  1
  Sb  Sb105  1  0.00193851  0.67000889  0.66503504  1
  Sb  Sb106  1  0.32941936  0.16593153  0.49867779  1
  Sb  Sb107  1  0.33708889  0.82957539  0.16853082  1
  Te  Te108  1  0.17110979  0.16320820  0.16590204  1
  Te  Te109  1  0.16164772  0.16132519  0.50530746  1
  Te  Te110  1  0.16654930  0.16552405  0.82912345  1
  Te  Te111  1  0.17169167  0.50438249  0.17138511  1
  Te  Te112  1  0.16132910  0.50178392  0.50024472  1
  Te  Te113  1  0.17129338  0.50358602  0.82810191  1
  Te  Te114  1  0.16454665  0.82699632  0.16844463  1
  Te  Te115  1  0.16577811  0.83490641  0.50357654  1
  Te  Te116  1  0.16719443  0.83326217  0.83297191  1
  Te  Te117  1  0.49948172  0.16771591  0.17180827  1
  Te  Te118  1  0.50188582  0.16518139  0.49470172  1
  Te  Te119  1  0.49891029  0.16945054  0.83169408  1
  Te  Te120  1  0.49323610  0.50054251  0.16806011  1
  Te  Te121  1  0.50250725  0.50398729  0.50619043  1
  Te  Te122  1  0.49368395  0.49820442  0.82986342  1
  Te  Te123  1  0.50456007  0.82970344  0.17336079  1
  Te  Te124  1  0.49788096  0.83194286  0.49754833  1
  Te  Te125  1  0.49732639  0.83159864  0.83177324  1
  Te  Te126  1  0.83137152  0.16706712  0.16739920  1
  Te  Te127  1  0.83569560  0.16681081  0.50302289  1
  Te  Te128  1  0.83506109  0.16292715  0.82927812  1
  Te  Te129  1  0.83386029  0.49693265  0.16640927  1
  Te  Te130  1  0.83958497  0.49277519  0.50078821  1
  Te  Te131  1  0.83424107  0.50326649  0.83181220  1
  Te  Te132  1  0.83059215  0.83409925  0.17035781  1
  Te  Te133  1  0.83619246  0.83659196  0.49909150  1
  Te  Te134  1  0.83385656  0.83923321  0.83173535  1
  Te  Te135  1  0.16722234  0.00007106  -0.00476558  1
  Te  Te136  1  0.16960248  -0.00337657  0.33625355  1
  Te  Te137  1  0.16736819  -0.00069294  0.66640898  1
  Te  Te138  1  0.16886170  0.33988088  0.00064575  1
  Te  Te139  1  0.16729552  0.33496935  0.33310288  1
  Te  Te140  1  0.17318541  0.33362881  0.66487149  1
  Te  Te141  1  0.17139912  0.66141267  0.00106672  1
  Te  Te142  1  0.16871765  0.66640789  0.33254387  1
  Te  Te143  1  0.16735965  0.66865227  0.66938680  1
  Te  Te144  1  0.50033690  -0.00183318  -0.00263471  1
  Te  Te145  1  0.49980097  -0.00241004  0.33568096  1
  Te  Te146  1  0.49957598  -0.00042201  0.65509607  1
  Te  Te147  1  0.49750369  0.33362945  0.00181617  1
  Te  Te148  1  0.49797630  0.33409072  0.32906730  1
  Te  Te149  1  0.49502560  0.33732601  0.66645559  1
  Te  Te150  1  0.49367649  0.66493286  -0.00339608  1
  Te  Te151  1  0.49734550  0.66677812  0.33226934  1
  Te  Te152  1  0.49929017  0.66189538  0.67253048  1
  Te  Te153  1  0.83317666  -0.00006662  -0.00277016  1
  Te  Te154  1  0.83258011  -0.00375776  0.33644981  1
  Te  Te155  1  0.83315722  0.00053215  0.66525435  1
  Te  Te156  1  0.83545927  0.33380524  0.00439537  1
  Te  Te157  1  0.83405488  0.33330686  0.33162440  1
  Te  Te158  1  0.83266419  0.32999547  0.66420442  1
  Te  Te159  1  0.83238692  0.66494073  0.00561769  1
  Te  Te160  1  0.83700031  0.66985295  0.33379297  1
  Te  Te161  1  0.83231537  0.67018314  0.66176316  1
  Te  Te162  1  0.00096119  0.17394318  -0.00342917  1
  Te  Te163  1  0.00085053  0.17283266  0.33777403  1
  Te  Te164  1  0.00108603  0.16715181  0.66597789  1
  Te  Te165  1  0.01011078  0.49397372  -0.00112434  1
  Te  Te166  1  0.00575639  0.49346507  0.33828020  1
  Te  Te167  1  0.00637565  0.49870709  0.66081588  1
  Te  Te168  1  0.00025602  0.83274087  -0.00742272  1
  Te  Te169  1  0.00873708  0.83427040  0.33773560  1
  Te  Te170  1  0.00071547  0.83368685  0.66646180  1
  Te  Te171  1  0.33329294  0.17092169  0.00042200  1
  Te  Te172  1  0.33563766  0.17050222  0.33150917  1
  Te  Te173  1  0.33036911  0.17198106  0.66943102  1
  Te  Te174  1  0.32972128  0.49959447  0.00066488  1
  Te  Te175  1  0.32958455  0.49887781  0.33235814  1
  Te  Te176  1  0.33049775  0.49660656  0.66518894  1
  Te  Te177  1  0.33426684  0.83176800  -0.00655418  1
  Te  Te178  1  0.32826818  0.83272803  0.33261442  1
  Te  Te179  1  0.32903888  0.83473513  0.67368067  1
  Te  Te180  1  0.66634456  0.17155947  0.00194216  1
  Te  Te181  1  0.66188532  0.16584125  0.32928796  1
  Te  Te182  1  0.66915186  0.16670407  0.67219857  1
  Te  Te183  1  0.66927006  0.49048163  -0.00043707  1
  Te  Te184  1  0.66737308  0.50849555  0.33343105  1
  Te  Te185  1  0.66318742  0.49989086  0.66727640  1
  Te  Te186  1  0.66640325  0.83144448  0.00612051  1
  Te  Te187  1  0.66438711  0.83149108  0.33241337  1
  Te  Te188  1  0.67073051  0.83399094  0.66342648  1
  Te  Te189  1  -0.00811461  0.00109305  0.16533562  1
  Te  Te190  1  0.00012908  -0.00004731  0.49873439  1
  Te  Te191  1  0.00141950  0.00173504  0.83383736  1
  Te  Te192  1  -0.00479477  0.33303129  0.16784471  1
  Te  Te193  1  -0.00254852  0.32990690  0.49916287  1
  Te  Te194  1  -0.00114650  0.32932620  0.83678561  1
  Te  Te195  1  -0.00796286  0.66590643  0.16590870  1
  Te  Te196  1  -0.00430992  0.66997660  0.49956875  1
  Te  Te197  1  0.00243192  0.66970312  0.83413241  1
  Te  Te198  1  0.33200616  0.00396303  0.17156401  1
  Te  Te199  1  0.33184698  0.00010152  0.49380553  1
  Te  Te200  1  0.33028202  0.00905165  0.83420484  1
  Te  Te201  1  0.33459237  0.33468786  0.16668136  1
  Te  Te202  1  0.33435172  0.33324755  0.49154108  1
  Te  Te203  1  0.33527173  0.33354493  0.83561499  1
  Te  Te204  1  0.33495530  0.66827015  0.16667628  1
  Te  Te205  1  0.33911581  0.66661128  0.49232057  1
  Te  Te206  1  0.33238001  0.66351035  0.83083613  1
  Te  Te207  1  0.66960779  0.00241430  0.17153187  1
  Te  Te208  1  0.66892190  -0.00420251  0.49417686  1
  Te  Te209  1  0.66660829  0.00566777  0.83524946  1
  Te  Te210  1  0.66520733  0.33120398  0.16465049  1
  Te  Te211  1  0.67325336  0.33381125  0.49938559  1
  Te  Te212  1  0.66087075  0.32810299  0.83773889  1
  Te  Te213  1  0.66642362  0.66620006  0.16977546  1
  Te  Te214  1  0.66668228  0.67190117  0.49518939  1
  Te  Te215  1  0.66288101  0.66778110  0.83643204  1
