# generated using pymatgen
data_AgSbTe2
_symmetry_space_group_name_H-M   'P 1'
_cell_length_a   18.31311427
_cell_length_b   18.30937726
_cell_length_c   18.30792136
_cell_angle_alpha   89.99938049
_cell_angle_beta   89.99908086
_cell_angle_gamma   90.00006547
_symmetry_Int_Tables_number   1
_chemical_formula_structural   AgSbTe2
_chemical_formula_sum   'Ag54 Sb54 Te108'
_cell_volume   6138.67748224
_cell_formula_units_Z   54
loop_
 _symmetry_equiv_pos_site_id
 _symmetry_equiv_pos_as_xyz
  1  'x, y, z'
loop_
 _atom_site_type_symbol
 _atom_site_label
 _atom_site_symmetry_multiplicity
 _atom_site_fract_x
 _atom_site_fract_y
 _atom_site_fract_z
 _atom_site_occupancy
  Ag  Ag0  1  0.49944109  0.50687058  0.66864788  1
  Ag  Ag1  1  0.16357952  0.33542644  0.17049669  1
  Ag  Ag2  1  0.50195750  0.32902262  0.16239190  1
  Ag  Ag3  1  0.32465536  0.17222459  0.50218253  1
  Ag  Ag4  1  0.83421083  0.33088456  0.16288906  1
  Ag  Ag5  1  0.83295562  0.17444134  0.00364651  1
  Ag  Ag6  1  0.66435224  -0.00639129  0.66957292  1
  Ag  Ag7  1  0.32635997  0.33076031  0.32924399  1
  Ag  Ag8  1  0.49461895  0.66693140  0.82604643  1
  Ag  Ag9  1  0.66733947  0.83503256  0.82907001  1
  Ag  Ag10  1  0.17234759  0.67185625  0.83607873  1
  Ag  Ag11  1  0.82797369  0.83155989  0.66690906  1
  Ag  Ag12  1  0.49609360  0.16666895  0.66437050  1
  Ag  Ag13  1  0.33501446  0.17164134  0.82893690  1
  Ag  Ag14  1  0.83275212  -0.00216891  0.83538087  1
  Ag  Ag15  1  0.16855351  0.17062967  0.34168648  1
  Ag  Ag16  1  0.66525356  0.17157499  0.16966219  1
  Ag  Ag17  1  0.82994697  0.00634522  0.16358500  1
  Ag  Ag18  1  0.00289611  0.00460937  0.33306037  1
  Ag  Ag19  1  0.49569810  0.33093404  0.83588533  1
  Ag  Ag20  1  0.00842156  0.32734431  0.32867962  1
  Ag  Ag21  1  0.66273499  0.16763229  0.49714319  1
  Ag  Ag22  1  0.16292481  0.83674141  0.33065767  1
  Ag  Ag23  1  0.16668280  0.50141721  0.00153863  1
  Ag  Ag24  1  0.33087005  0.33674767  0.00325783  1
  Ag  Ag25  1  0.83827688  0.83347986  0.33554758  1
  Ag  Ag26  1  0.83930210  0.49297208  0.00246398  1
  Ag  Ag27  1  0.16859417  0.66568435  0.50107730  1
  Ag  Ag28  1  0.66820654  0.33335409  0.00514970  1
  Ag  Ag29  1  0.82921726  0.66773253  0.50272236  1
  Ag  Ag30  1  0.66981791  0.49002771  0.16449327  1
  Ag  Ag31  1  0.32996342  0.83295015  0.16620960  1
  Ag  Ag32  1  0.33494620  0.49692753  0.83299955  1
  Ag  Ag33  1  0.16807666  0.82508435  0.00133462  1
  Ag  Ag34  1  0.32779492  0.65935176  -0.00259763  1
  Ag  Ag35  1  0.49977516  0.66522658  0.50918531  1
  Ag  Ag36  1  0.49593722  0.16746142  0.33856236  1
  Ag  Ag37  1  0.00134822  0.33522456  0.66698393  1
  Ag  Ag38  1  0.50510658  0.00938668  0.16478217  1
  Ag  Ag39  1  0.16755816  0.66120356  0.16129060  1
  Ag  Ag40  1  0.00126416  0.33574440  0.00675426  1
  Ag  Ag41  1  -0.00014970  0.49458090  0.16400350  1
  Ag  Ag42  1  0.01140383  0.16924125  0.49877369  1
  Ag  Ag43  1  0.16545492  0.01272661  0.50267043  1
  Ag  Ag44  1  0.16773263  0.32375539  0.49112618  1
  Ag  Ag45  1  0.66138166  0.67302166  0.66319143  1
  Ag  Ag46  1  0.00022212  0.66467266  0.66592941  1
  Ag  Ag47  1  0.16743903  -0.00325988  0.82921547  1
  Ag  Ag48  1  0.50714176  0.82681555  0.67035356  1
  Ag  Ag49  1  0.50035828  0.00031662  0.83016689  1
  Ag  Ag50  1  0.00089810  0.83431326  0.83163675  1
  Ag  Ag51  1  0.66607070  0.66853385  0.34130891  1
  Ag  Ag52  1  0.17091080  0.16689541  0.65492261  1
  Ag  Ag53  1  0.33114152  0.49607960  0.50457145  1
  Sb  Sb54  1  0.00481715  0.16422348  0.82891646  1
  Sb  Sb55  1  0.49654679  0.00160643  0.50365314  1
  Sb  Sb56  1  0.33751210  0.00309430  0.66863177  1
  Sb  Sb57  1  0.33543105  0.66555452  0.67056983  1
  Sb  Sb58  1  0.67000243  -0.00211566  0.33602897  1
  Sb  Sb59  1  0.49306623  0.33217992  0.50157811  1
  Sb  Sb60  1  0.66698492  0.83375849  0.50658107  1
  Sb  Sb61  1  0.66621869  0.33329500  0.32648723  1
  Sb  Sb62  1  0.83339725  0.50254936  0.32823299  1
  Sb  Sb63  1  0.33268494  0.83201905  0.83741840  1
  Sb  Sb64  1  0.00728715  0.49676172  0.49696977  1
  Sb  Sb65  1  0.49511415  0.49669324  -0.00467298  1
  Sb  Sb66  1  0.83828514  0.83258359  -0.00210982  1
  Sb  Sb67  1  -0.00172925  -0.00080296  0.66491626  1
  Sb  Sb68  1  0.17203010  0.33269902  0.83470675  1
  Sb  Sb69  1  0.00724248  0.66185011  -0.00421367  1
  Sb  Sb70  1  0.66468050  0.83511762  0.16321217  1
  Sb  Sb71  1  0.00478239  0.83087092  0.16443340  1
  Sb  Sb72  1  0.16380715  0.17081186  0.00126658  1
  Sb  Sb73  1  0.16691651  0.49617183  0.32918003  1
  Sb  Sb74  1  0.83367388  0.67168819  0.82905676  1
  Sb  Sb75  1  0.17084753  0.49795415  0.66916028  1
  Sb  Sb76  1  0.83301019  0.16274497  0.66948713  1
  Sb  Sb77  1  0.82973632  0.50454409  0.67177498  1
  Sb  Sb78  1  0.49892427  0.49456037  0.33609968  1
  Sb  Sb79  1  0.83727873  0.66535663  0.16964016  1
  Sb  Sb80  1  0.66736874  0.00495407  -0.00386996  1
  Sb  Sb81  1  0.33354173  0.66192418  0.33161483  1
  Sb  Sb82  1  0.49458127  0.83297073  -0.00529882  1
  Sb  Sb83  1  0.33065917  0.83234433  0.49623200  1
  Sb  Sb84  1  0.00063715  0.66702691  0.33774179  1
  Sb  Sb85  1  0.49936579  0.83703034  0.33627287  1
  Sb  Sb86  1  0.83635789  -0.00219713  0.50040967  1
  Sb  Sb87  1  0.50230732  0.17011923  -0.00110634  1
  Sb  Sb88  1  0.00022619  0.00501673  0.00273708  1
  Sb  Sb89  1  0.33056657  0.33141628  0.66699969  1
  Sb  Sb90  1  0.16645784  0.83518718  0.66748131  1
  Sb  Sb91  1  0.83916821  0.33576965  0.49406692  1
  Sb  Sb92  1  0.66726447  0.33257486  0.67038154  1
  Sb  Sb93  1  0.49602869  0.66447800  0.16577414  1
  Sb  Sb94  1  0.83047762  0.32756692  0.84138699  1
  Sb  Sb95  1  0.33766242  0.16836881  0.16782256  1
  Sb  Sb96  1  0.33199847  0.49798187  0.16334714  1
  Sb  Sb97  1  0.00546743  0.50249373  0.83664536  1
  Sb  Sb98  1  0.00081429  0.83492918  0.50287717  1
  Sb  Sb99  1  0.66069121  0.16261511  0.83330223  1
  Sb  Sb100  1  0.32806112  0.00628896  0.33284205  1
  Sb  Sb101  1  0.16572776  0.00178448  0.16849313  1
  Sb  Sb102  1  0.66251247  0.66155611  -0.00239868  1
  Sb  Sb103  1  -0.00361654  0.17382815  0.17180111  1
  Sb  Sb104  1  0.66071034  0.50305557  0.83735569  1
  Sb  Sb105  1  0.66260195  0.49956635  0.49728092  1
  Sb  Sb106  1  0.33206047  0.00327307  -0.00049711  1
  Sb  Sb107  1  0.83555860  0.16360093  0.32995971  1
  Te  Te108  1  0.16741024  0.17139136  0.17064937  1
  Te  Te109  1  0.16794526  0.16839240  0.49883243  1
  Te  Te110  1  0.17192895  0.16241104  0.83318000  1
  Te  Te111  1  0.16665259  0.49823766  0.16309915  1
  Te  Te112  1  0.17227568  0.50545936  0.50135823  1
  Te  Te113  1  0.17269804  0.50386811  0.83687297  1
  Te  Te114  1  0.16871895  0.83462643  0.16774555  1
  Te  Te115  1  0.16677832  0.82679340  0.49655133  1
  Te  Te116  1  0.16616328  0.83388207  0.83291033  1
  Te  Te117  1  0.50346551  0.16746056  0.16661097  1
  Te  Te118  1  0.50114757  0.16661698  0.50094782  1
  Te  Te119  1  0.49656630  0.16555761  0.83136019  1
  Te  Te120  1  0.50435786  0.49517147  0.16705321  1
  Te  Te121  1  0.49533087  0.50268501  0.50429892  1
  Te  Te122  1  0.49575803  0.50057025  0.82941697  1
  Te  Te123  1  0.49522486  0.83496588  0.16682510  1
  Te  Te124  1  0.49905203  0.82926233  0.50468881  1
  Te  Te125  1  0.50008559  0.83603241  0.83013393  1
  Te  Te126  1  0.83045384  0.16670917  0.16491736  1
  Te  Te127  1  0.82757816  0.16733729  0.50006899  1
  Te  Te128  1  0.83291935  0.15870378  0.83783556  1
  Te  Te129  1  0.83322160  0.49853461  0.16236281  1
  Te  Te130  1  0.83363141  0.50665220  0.50134383  1
  Te  Te131  1  0.83302705  0.49879945  0.84104706  1
  Te  Te132  1  0.83391478  0.83611342  0.16953737  1
  Te  Te133  1  0.83357463  0.82903047  0.50005522  1
  Te  Te134  1  0.83433551  0.83775877  0.83202851  1
  Te  Te135  1  0.16596183  -0.00247967  -0.00465919  1
  Te  Te136  1  0.16314924  -0.00088276  0.33421833  1
  Te  Te137  1  0.16555253  0.00361020  0.66771204  1
  Te  Te138  1  0.16665173  0.33584556  0.00168212  1
  Te  Te139  1  0.16709762  0.33290111  0.33239963  1
  Te  Te140  1  0.16085156  0.33029272  0.66552481  1
  Te  Te141  1  0.16794867  0.66579700  -0.00032092  1
  Te  Te142  1  0.16700931  0.66962533  0.33385936  1
  Te  Te143  1  0.16444795  0.66707737  0.66803537  1
  Te  Te144  1  0.50029765  0.00019885  0.00008461  1
  Te  Te145  1  0.50076646  0.00558071  0.33034746  1
  Te  Te146  1  0.50388417  0.00525446  0.66887172  1
  Te  Te147  1  0.49769354  0.33387531  0.00021242  1
  Te  Te148  1  0.49904425  0.32717342  0.33076001  1
  Te  Te149  1  0.50238152  0.32796767  0.67028615  1
  Te  Te150  1  0.49274953  0.66541144  -0.00420780  1
  Te  Te151  1  0.50322504  0.66756244  0.33578388  1
  Te  Te152  1  0.49961813  0.66673109  0.66811352  1
  Te  Te153  1  0.83388208  0.00111133  0.00119312  1
  Te  Te154  1  0.83757381  -0.00581373  0.33187415  1
  Te  Te155  1  0.82912436  -0.00521607  0.66957544  1
  Te  Te156  1  0.83420391  0.33369887  0.00327555  1
  Te  Te157  1  0.83775300  0.33350596  0.32491613  1
  Te  Te158  1  0.83857961  0.33456383  0.66704490  1
  Te  Te159  1  0.83334549  0.66166411  -0.00065425  1
  Te  Te160  1  0.83169614  0.67118908  0.33808298  1
  Te  Te161  1  0.83300072  0.67003782  0.66404047  1
  Te  Te162  1  -0.00490064  0.17408459  -0.00222849  1
  Te  Te163  1  0.00167702  0.16668256  0.33740611  1
  Te  Te164  1  0.00160758  0.16955804  0.66150270  1
  Te  Te165  1  0.00294212  0.49591215  0.00240430  1
  Te  Te166  1  -0.00067538  0.49373927  0.32743234  1
  Te  Te167  1  -0.00109034  0.50064171  0.66688761  1
  Te  Te168  1  0.00668793  0.83359840  -0.00548752  1
  Te  Te169  1  0.00133177  0.83506487  0.33292292  1
  Te  Te170  1  -0.00286971  0.82994949  0.67069276  1
  Te  Te171  1  0.33266529  0.17423106  -0.00489543  1
  Te  Te172  1  0.33320967  0.17108318  0.33474103  1
  Te  Te173  1  0.33256410  0.16726793  0.66663607  1
  Te  Te174  1  0.32938167  0.49804107  -0.00276746  1
  Te  Te175  1  0.33378801  0.49189439  0.34072043  1
  Te  Te176  1  0.33895689  0.49803345  0.66800479  1
  Te  Te177  1  0.32744085  0.83176462  0.00471940  1
  Te  Te178  1  0.32978478  0.83321328  0.32803306  1
  Te  Te179  1  0.34148810  0.83450774  0.66539004  1
  Te  Te180  1  0.67163439  0.17169199  0.00403234  1
  Te  Te181  1  0.66379978  0.16603333  0.33244004  1
  Te  Te182  1  0.66452306  0.16543472  0.66445759  1
  Te  Te183  1  0.66901090  0.49536313  0.00438835  1
  Te  Te184  1  0.66643358  0.50698761  0.32784927  1
  Te  Te185  1  0.66114997  0.50403529  0.66657330  1
  Te  Te186  1  0.66792401  0.83161305  -0.00744970  1
  Te  Te187  1  0.66856196  0.82872018  0.33218315  1
  Te  Te188  1  0.66742419  0.83292989  0.66803193  1
  Te  Te189  1  -0.00468658  -0.00018218  0.17106669  1
  Te  Te190  1  0.00400483  0.00391251  0.49627862  1
  Te  Te191  1  0.00134535  -0.00340731  0.83397893  1
  Te  Te192  1  0.00128300  0.33420089  0.16636583  1
  Te  Te193  1  0.00384314  0.33079083  0.49911718  1
  Te  Te194  1  -0.00026601  0.33346686  0.83076873  1
  Te  Te195  1  0.00671112  0.66026507  0.16814746  1
  Te  Te196  1  0.00333763  0.66518214  0.50468520  1
  Te  Te197  1  0.00340642  0.66978504  0.82796506  1
  Te  Te198  1  0.33864350  -0.00373690  0.16593990  1
  Te  Te199  1  0.32601009  0.00551822  0.49974587  1
  Te  Te200  1  0.33353858  0.00431265  0.83488633  1
  Te  Te201  1  0.33345478  0.33360921  0.16556031  1
  Te  Te202  1  0.32887848  0.33262682  0.49897713  1
  Te  Te203  1  0.33643497  0.33381270  0.83447452  1
  Te  Te204  1  0.32832840  0.66783146  0.16304108  1
  Te  Te205  1  0.33380911  0.66413263  0.49899164  1
  Te  Te206  1  0.33300872  0.66564195  0.83683033  1
  Te  Te207  1  0.66647589  0.00248043  0.16677113  1
  Te  Te208  1  0.66681998  0.00519837  0.50513432  1
  Te  Te209  1  0.66390857  -0.00303581  0.83088470  1
  Te  Te210  1  0.66623158  0.33203208  0.16540996  1
  Te  Te211  1  0.66896607  0.32930900  0.49970269  1
  Te  Te212  1  0.66063890  0.33317199  0.83990218  1
  Te  Te213  1  0.66670159  0.66560276  0.16782652  1
  Te  Te214  1  0.66427194  0.66582641  0.50141873  1
  Te  Te215  1  0.66210915  0.67073214  0.82921406  1
