# generated using pymatgen
data_AgSbTe2
_symmetry_space_group_name_H-M   'P 1'
_cell_length_a   18.33913551
_cell_length_b   18.33690189
_cell_length_c   18.34008318
_cell_angle_alpha   89.99869393
_cell_angle_beta   90.00567483
_cell_angle_gamma   89.99970962
_symmetry_Int_Tables_number   1
_chemical_formula_structural   AgSbTe2
_chemical_formula_sum   'Ag54 Sb54 Te108'
_cell_volume   6167.45684955
_cell_formula_units_Z   54
loop_
 _symmetry_equiv_pos_site_id
 _symmetry_equiv_pos_as_xyz
  1  'x, y, z'
loop_
 _atom_site_type_symbol
 _atom_site_label
 _atom_site_symmetry_multiplicity
 _atom_site_fract_x
 _atom_site_fract_y
 _atom_site_fract_z
 _atom_site_occupancy
  Ag  Ag0  1  0.00269217  0.49570840  0.49917707  1
  Ag  Ag1  1  0.33559770  0.65904958  0.67342508  1
  Ag  Ag2  1  0.83737675  0.33400947  0.51271368  1
  Ag  Ag3  1  -0.00926726  0.33584252  0.66566840  1
  Ag  Ag4  1  0.00302604  0.66376269  0.00308086  1
  Ag  Ag5  1  0.50773520  -0.00023059  0.50054266  1
  Ag  Ag6  1  0.67748618  0.83442820  0.16693873  1
  Ag  Ag7  1  0.32390447  0.17830178  0.16484268  1
  Ag  Ag8  1  0.49994701  0.50219209  0.66417730  1
  Ag  Ag9  1  0.15402072  0.33905162  0.50527888  1
  Ag  Ag10  1  0.67699219  0.00339917  -0.00149692  1
  Ag  Ag11  1  0.51147646  0.82067322  0.66803590  1
  Ag  Ag12  1  0.16407105  0.65821652  0.50245281  1
  Ag  Ag13  1  -0.00417462  0.83043857  0.15975336  1
  Ag  Ag14  1  0.00118996  0.17568761  0.16070786  1
  Ag  Ag15  1  0.83773508  0.48977868  0.66775893  1
  Ag  Ag16  1  0.31986781  0.65947332  -0.00114729  1
  Ag  Ag17  1  0.50770400  0.33760225  0.83049736  1
  Ag  Ag18  1  0.67796432  0.33503386  0.66726566  1
  Ag  Ag19  1  0.16352897  0.50066041  0.66791109  1
  Ag  Ag20  1  0.84071718  0.67433856  0.83013716  1
  Ag  Ag21  1  0.67170658  0.00301928  0.33804781  1
  Ag  Ag22  1  0.32377475  0.49944620  0.16454603  1
  Ag  Ag23  1  -0.00920606  0.00375598  0.67661863  1
  Ag  Ag24  1  0.68065481  0.32945300  -0.00621897  1
  Ag  Ag25  1  0.00409698  0.66218484  0.32564382  1
  Ag  Ag26  1  0.16038947  0.66462281  0.83842497  1
  Ag  Ag27  1  0.33430778  -0.00390926  0.33217274  1
  Ag  Ag28  1  0.00329185  0.49970415  0.16780096  1
  Ag  Ag29  1  0.83851129  0.33400965  0.16422887  1
  Ag  Ag30  1  0.49869434  0.66260407  0.82725688  1
  Ag  Ag31  1  0.32367884  0.66568273  0.33140264  1
  Ag  Ag32  1  -0.00525801  0.83369245  0.83984958  1
  Ag  Ag33  1  0.32361747  0.34086817  -0.00190923  1
  Ag  Ag34  1  0.83728500  -0.00525539  0.82787015  1
  Ag  Ag35  1  0.83210509  0.83426630  0.67313354  1
  Ag  Ag36  1  0.16341621  0.50026034  -0.00149688  1
  Ag  Ag37  1  0.33325803  0.34112809  0.67204898  1
  Ag  Ag38  1  -0.00890517  -0.00205858  0.33009900  1
  Ag  Ag39  1  0.83561518  0.83465374  0.32769848  1
  Ag  Ag40  1  -0.00480215  -0.00240250  -0.00393460  1
  Ag  Ag41  1  0.67705529  0.32905933  0.33758799  1
  Ag  Ag42  1  0.83576089  0.33314236  0.82675748  1
  Ag  Ag43  1  0.49918811  0.50026166  0.33926426  1
  Ag  Ag44  1  -0.00204923  0.33037183  0.00198835  1
  Ag  Ag45  1  0.16025847  0.17857446  0.00108285  1
  Ag  Ag46  1  -0.00360256  0.16697722  0.84109880  1
  Ag  Ag47  1  0.83419917  0.17623456  0.66823728  1
  Ag  Ag48  1  0.67492221  0.00005952  0.66361989  1
  Ag  Ag49  1  -0.00509472  0.33741796  0.32982377  1
  Ag  Ag50  1  0.66656642  0.66503900  0.66913943  1
  Ag  Ag51  1  0.16196829  0.66269546  0.16087074  1
  Ag  Ag52  1  0.83791919  0.83534977  -0.00400594  1
  Ag  Ag53  1  0.66901136  0.16797386  0.50244987  1
  Sb  Sb54  1  0.83224119  0.00438218  0.50679838  1
  Sb  Sb55  1  0.84068618  0.49915881  -0.00569080  1
  Sb  Sb56  1  0.84153772  0.66664844  0.16240590  1
  Sb  Sb57  1  0.49382061  0.49872231  -0.00372134  1
  Sb  Sb58  1  0.67045784  0.50202210  0.16790274  1
  Sb  Sb59  1  0.67602460  0.83298705  0.83309932  1
  Sb  Sb60  1  0.33406057  0.83174059  0.49947797  1
  Sb  Sb61  1  0.32684416  0.50018536  0.49980908  1
  Sb  Sb62  1  0.33661236  -0.00023659  0.66321765  1
  Sb  Sb63  1  0.50517137  0.83112257  0.33665790  1
  Sb  Sb64  1  -0.00439765  0.17386497  0.50023567  1
  Sb  Sb65  1  0.32886310  0.82910562  0.83421629  1
  Sb  Sb66  1  0.66716998  0.49739826  0.83185837  1
  Sb  Sb67  1  0.15703788  0.17606610  0.67226051  1
  Sb  Sb68  1  0.15690228  0.82707115  0.00038158  1
  Sb  Sb69  1  0.50204161  -0.00065434  0.17077374  1
  Sb  Sb70  1  0.33206890  0.50120367  0.83335000  1
  Sb  Sb71  1  0.16041150  0.34026617  0.83308649  1
  Sb  Sb72  1  0.33674201  0.16904964  0.49652688  1
  Sb  Sb73  1  0.15909269  0.33929616  0.16653074  1
  Sb  Sb74  1  0.83514406  0.16615092  0.33663260  1
  Sb  Sb75  1  0.16601584  0.50149593  0.33264103  1
  Sb  Sb76  1  0.66999559  0.66667506  0.33844733  1
  Sb  Sb77  1  -0.00311328  0.82839736  0.50055769  1
  Sb  Sb78  1  0.50085934  0.17081282  0.33304300  1
  Sb  Sb79  1  0.32900145  0.00096778  0.00574021  1
  Sb  Sb80  1  0.83500772  0.49901872  0.33678449  1
  Sb  Sb81  1  0.83618857  0.00043678  0.16344599  1
  Sb  Sb82  1  0.49744619  0.16839800  -0.00180058  1
  Sb  Sb83  1  -0.00103159  0.66283251  0.67021364  1
  Sb  Sb84  1  0.51015679  -0.00081871  0.82698401  1
  Sb  Sb85  1  0.67168466  0.16514314  0.16800970  1
  Sb  Sb86  1  0.67197973  0.49406353  0.50419548  1
  Sb  Sb87  1  0.32896164  0.82823271  0.16722330  1
  Sb  Sb88  1  0.16386309  0.16827695  0.32845550  1
  Sb  Sb89  1  -0.00045391  0.49997468  0.83358723  1
  Sb  Sb90  1  0.66860863  0.83835271  0.50139251  1
  Sb  Sb91  1  0.16455706  0.00206893  0.49979335  1
  Sb  Sb92  1  0.16103380  -0.00217678  0.16624363  1
  Sb  Sb93  1  0.67529854  0.16884364  0.82960439  1
  Sb  Sb94  1  0.50826647  0.83128855  -0.00641602  1
  Sb  Sb95  1  0.50684709  0.17205513  0.66696487  1
  Sb  Sb96  1  0.84115045  0.16497382  -0.00610255  1
  Sb  Sb97  1  0.15787629  0.82979151  0.33254637  1
  Sb  Sb98  1  0.15645890  -0.00377404  0.83365273  1
  Sb  Sb99  1  0.16200621  0.82478200  0.66797250  1
  Sb  Sb100  1  0.67163311  0.66545169  -0.00565373  1
  Sb  Sb101  1  0.50468211  0.33248419  0.50559521  1
  Sb  Sb102  1  0.33090227  0.33805482  0.33103120  1
  Sb  Sb103  1  0.49438884  0.66492609  0.16333060  1
  Sb  Sb104  1  0.83849306  0.66158379  0.50719269  1
  Sb  Sb105  1  0.32501754  0.17009506  0.83727481  1
  Sb  Sb106  1  0.50332673  0.33550190  0.16237990  1
  Sb  Sb107  1  0.49553239  0.66819788  0.50623060  1
  Te  Te108  1  0.16404331  0.16590541  0.16174276  1
  Te  Te109  1  0.16821524  0.17312933  0.50147582  1
  Te  Te110  1  0.15743282  0.16517296  0.84017945  1
  Te  Te111  1  0.16538172  0.50326206  0.16483238  1
  Te  Te112  1  0.16253989  0.49923608  0.50279246  1
  Te  Te113  1  0.16655011  0.50658575  0.83295778  1
  Te  Te114  1  0.15923313  0.82449366  0.16694938  1
  Te  Te115  1  0.16621395  0.82643127  0.50025788  1
  Te  Te116  1  0.15778466  0.82595188  0.83331400  1
  Te  Te117  1  0.49153395  0.16715803  0.16617672  1
  Te  Te118  1  0.50590049  0.16067611  0.49976395  1
  Te  Te119  1  0.49740960  0.17233723  0.83252831  1
  Te  Te120  1  0.49808325  0.50059252  0.16935031  1
  Te  Te121  1  0.49994758  0.50040719  0.50202568  1
  Te  Te122  1  0.49935409  0.49963967  0.82683491  1
  Te  Te123  1  0.50425544  0.83254720  0.16624518  1
  Te  Te124  1  0.50125106  0.83902567  0.50683133  1
  Te  Te125  1  0.49889878  0.83055655  0.82656044  1
  Te  Te126  1  0.83894394  0.17328856  0.16772134  1
  Te  Te127  1  0.82919305  0.17295348  0.50587766  1
  Te  Te128  1  0.83895525  0.16876852  0.82802343  1
  Te  Te129  1  0.83821553  0.49565349  0.16617097  1
  Te  Te130  1  0.83988022  0.49440806  0.50514977  1
  Te  Te131  1  0.83271431  0.49812502  0.82693000  1
  Te  Te132  1  0.83637504  0.83271613  0.16618304  1
  Te  Te133  1  0.83247497  0.83120488  0.49930151  1
  Te  Te134  1  0.83650844  0.83404134  0.83469330  1
  Te  Te135  1  0.16122874  0.00362551  -0.00022973  1
  Te  Te136  1  0.17030470  -0.00088227  0.33421280  1
  Te  Te137  1  0.16481439  -0.00009347  0.66551668  1
  Te  Te138  1  0.16450689  0.33784566  -0.00013281  1
  Te  Te139  1  0.16148872  0.33379818  0.34118820  1
  Te  Te140  1  0.17110496  0.33861818  0.66651811  1
  Te  Te141  1  0.16390843  0.66475777  -0.00046915  1
  Te  Te142  1  0.16488517  0.66648588  0.33464311  1
  Te  Te143  1  0.16789438  0.66181450  0.66577334  1
  Te  Te144  1  0.50529872  -0.00069280  -0.00207996  1
  Te  Te145  1  0.50435390  -0.00073578  0.33730760  1
  Te  Te146  1  0.50309333  0.00048614  0.66273989  1
  Te  Te147  1  0.49871903  0.33387190  -0.00666447  1
  Te  Te148  1  0.50080119  0.33856949  0.33376773  1
  Te  Te149  1  0.49510417  0.33758340  0.66957175  1
  Te  Te150  1  0.50055260  0.66602382  -0.00841010  1
  Te  Te151  1  0.49988294  0.66269606  0.33379604  1
  Te  Te152  1  0.49832033  0.66403054  0.66763565  1
  Te  Te153  1  0.83493313  -0.00115750  -0.00224459  1
  Te  Te154  1  0.83188991  -0.00171997  0.33469923  1
  Te  Te155  1  0.83416042  -0.00570013  0.66690487  1
  Te  Te156  1  0.83710977  0.33329449  -0.00032803  1
  Te  Te157  1  0.83503526  0.33369036  0.32910434  1
  Te  Te158  1  0.83345746  0.33361208  0.66935797  1
  Te  Te159  1  0.83690659  0.66859500  -0.00730679  1
  Te  Te160  1  0.83756235  0.67029916  0.33459165  1
  Te  Te161  1  0.83146165  0.67281594  0.67084070  1
  Te  Te162  1  0.00115323  0.16871106  0.00113101  1
  Te  Te163  1  0.00041081  0.16537035  0.32741112  1
  Te  Te164  1  -0.00456482  0.16580181  0.66648128  1
  Te  Te165  1  0.00303866  0.50054515  0.00294598  1
  Te  Te166  1  -0.00084117  0.49888680  0.33174030  1
  Te  Te167  1  0.00021222  0.49781609  0.66565846  1
  Te  Te168  1  -0.00322126  0.83529813  0.00045417  1
  Te  Te169  1  -0.00531947  0.83524200  0.33345271  1
  Te  Te170  1  -0.00387256  0.83664870  0.66778874  1
  Te  Te171  1  0.32697744  0.16795832  0.00541469  1
  Te  Te172  1  0.33279852  0.16433184  0.32672173  1
  Te  Te173  1  0.33168740  0.16947642  0.66673107  1
  Te  Te174  1  0.32962157  0.50110272  0.00400977  1
  Te  Te175  1  0.33678832  0.50379760  0.32911597  1
  Te  Te176  1  0.33205972  0.50114967  0.66504940  1
  Te  Te177  1  0.33561916  0.82945129  0.00179823  1
  Te  Te178  1  0.33603297  0.83141902  0.33170836  1
  Te  Te179  1  0.33503878  0.82944810  0.66682270  1
  Te  Te180  1  0.66540553  0.16843374  0.00176103  1
  Te  Te181  1  0.66720934  0.16688291  0.33591619  1
  Te  Te182  1  0.67142162  0.16646379  0.66406574  1
  Te  Te183  1  0.66589737  0.49107094  0.00259592  1
  Te  Te184  1  0.66279395  0.49630257  0.33499261  1
  Te  Te185  1  0.66669644  0.49641999  0.66604632  1
  Te  Te186  1  0.67343233  0.83430390  0.00460017  1
  Te  Te187  1  0.67140190  0.83585005  0.33036155  1
  Te  Te188  1  0.66833089  0.83608327  0.66755181  1
  Te  Te189  1  -0.00073190  -0.00430742  0.16922230  1
  Te  Te190  1  0.00128659  0.00140981  0.49245559  1
  Te  Te191  1  -0.00359205  -0.00093591  0.83427861  1
  Te  Te192  1  -0.00010139  0.33483330  0.16643702  1
  Te  Te193  1  -0.00263954  0.33450236  0.50267019  1
  Te  Te194  1  -0.00191087  0.33181217  0.83299615  1
  Te  Te195  1  0.00069132  0.66548234  0.16569086  1
  Te  Te196  1  0.00437438  0.66104847  0.49632485  1
  Te  Te197  1  -0.00076568  0.66731692  0.83571502  1
  Te  Te198  1  0.33330142  -0.00075678  0.17120090  1
  Te  Te199  1  0.33514362  0.00086876  0.49349045  1
  Te  Te200  1  0.33446854  -0.00025914  0.83484927  1
  Te  Te201  1  0.33384909  0.33652551  0.16316698  1
  Te  Te202  1  0.33351395  0.33239392  0.50319308  1
  Te  Te203  1  0.33302923  0.33267149  0.83578398  1
  Te  Te204  1  0.32928822  0.66309084  0.16603054  1
  Te  Te205  1  0.32765629  0.66638437  0.49574084  1
  Te  Te206  1  0.33323568  0.66733155  0.83299387  1
  Te  Te207  1  0.66734568  -0.00166698  0.16685823  1
  Te  Te208  1  0.66710045  0.00423558  0.50057343  1
  Te  Te209  1  0.67375030  0.00163085  0.83586940  1
  Te  Te210  1  0.67111910  0.33298826  0.16994586  1
  Te  Te211  1  0.66946233  0.32931149  0.50010511  1
  Te  Te212  1  0.66856895  0.33176301  0.83295243  1
  Te  Te213  1  0.66694167  0.67170121  0.16646548  1
  Te  Te214  1  0.66608265  0.66597457  0.50803121  1
  Te  Te215  1  0.66415332  0.66632278  0.82816734  1
