# generated using pymatgen
data_AgSbTe2
_symmetry_space_group_name_H-M   'P 1'
_cell_length_a   18.33794930
_cell_length_b   18.33786567
_cell_length_c   18.33493685
_cell_angle_alpha   89.99560792
_cell_angle_beta   90.00210918
_cell_angle_gamma   89.99800939
_symmetry_Int_Tables_number   1
_chemical_formula_structural   AgSbTe2
_chemical_formula_sum   'Ag54 Sb54 Te108'
_cell_volume   6165.65146872
_cell_formula_units_Z   54
loop_
 _symmetry_equiv_pos_site_id
 _symmetry_equiv_pos_as_xyz
  1  'x, y, z'
loop_
 _atom_site_type_symbol
 _atom_site_label
 _atom_site_symmetry_multiplicity
 _atom_site_fract_x
 _atom_site_fract_y
 _atom_site_fract_z
 _atom_site_occupancy
  Ag  Ag0  1  0.83706176  0.32940926  0.82828338  1
  Ag  Ag1  1  0.17148394  0.48643129  0.00239210  1
  Ag  Ag2  1  0.66906085  0.16972174  0.83549947  1
  Ag  Ag3  1  0.83842877  0.00131106  0.17985338  1
  Ag  Ag4  1  0.49455778  0.51016284  0.32935888  1
  Ag  Ag5  1  0.16341210  0.00025937  0.48657712  1
  Ag  Ag6  1  0.49820789  0.16974413  0.00746124  1
  Ag  Ag7  1  0.84193619  -0.00433572  0.49384641  1
  Ag  Ag8  1  0.17105948  0.00054469  0.17395480  1
  Ag  Ag9  1  0.49469227  0.67486363  0.17160206  1
  Ag  Ag10  1  0.17146305  0.15853521  0.32674807  1
  Ag  Ag11  1  0.01173368  0.00225585  0.33553627  1
  Ag  Ag12  1  -0.00536126  0.66901139  0.66527875  1
  Ag  Ag13  1  0.83611369  0.48952658  0.66593193  1
  Ag  Ag14  1  0.83758471  0.15665281  0.33257640  1
  Ag  Ag15  1  0.49095802  -0.00459762  0.17371289  1
  Ag  Ag16  1  0.32950204  0.32323160  0.32650370  1
  Ag  Ag17  1  0.32805872  0.00119171  0.65552158  1
  Ag  Ag18  1  0.16782313  0.16769514  0.00837021  1
  Ag  Ag19  1  0.49744092  -0.00279234  0.48838281  1
  Ag  Ag20  1  0.17413099  0.68117057  0.16813474  1
  Ag  Ag21  1  0.66481304  0.83373660  0.83103108  1
  Ag  Ag22  1  0.83130310  0.67666487  0.50142382  1
  Ag  Ag23  1  0.50083915  0.83630652  0.33167158  1
  Ag  Ag24  1  0.50328420  0.83536787  0.65652883  1
  Ag  Ag25  1  0.17621338  0.84612804  0.32926433  1
  Ag  Ag26  1  0.83003024  0.84129358  0.33840348  1
  Ag  Ag27  1  0.00786912  0.32228627  0.33758742  1
  Ag  Ag28  1  0.00381261  0.00177015  0.01091946  1
  Ag  Ag29  1  0.33938088  0.67705207  0.33016056  1
  Ag  Ag30  1  0.16644358  0.84431689  0.01131183  1
  Ag  Ag31  1  0.15873239  0.16392990  0.66765660  1
  Ag  Ag32  1  0.49440410  0.49361576  0.00609762  1
  Ag  Ag33  1  0.00021298  0.49605324  0.83104282  1
  Ag  Ag34  1  0.33011828  0.33131993  0.00787626  1
  Ag  Ag35  1  0.83725576  0.16904127  0.66717497  1
  Ag  Ag36  1  0.50183398  0.66836331  0.83818495  1
  Ag  Ag37  1  0.65831419  0.67367413  0.33575959  1
  Ag  Ag38  1  0.33412036  0.83960704  0.17063044  1
  Ag  Ag39  1  -0.00811964  0.83735433  0.49811203  1
  Ag  Ag40  1  0.49160035  0.15252045  0.32647328  1
  Ag  Ag41  1  -0.00448405  0.32847033  0.66640793  1
  Ag  Ag42  1  0.65660771  0.83496301  0.17803028  1
  Ag  Ag43  1  0.65998411  0.32855013  -0.00393790  1
  Ag  Ag44  1  0.67034120  0.83327458  0.49379769  1
  Ag  Ag45  1  0.83301546  0.16594564  -0.00009173  1
  Ag  Ag46  1  0.33353757  0.50004819  0.49479386  1
  Ag  Ag47  1  0.17025100  0.32192672  0.16357487  1
  Ag  Ag48  1  0.33194925  0.16133583  0.16954493  1
  Ag  Ag49  1  0.67616146  0.33284577  0.67219981  1
  Ag  Ag50  1  0.00240778  0.00211721  0.65609212  1
  Ag  Ag51  1  0.67054965  0.67074862  0.66259440  1
  Ag  Ag52  1  0.16192313  0.33083000  0.84253480  1
  Ag  Ag53  1  0.32552100  -0.00078301  0.33355323  1
  Sb  Sb54  1  0.82870811  0.66236301  0.82539071  1
  Sb  Sb55  1  0.33279865  0.16488072  0.49087310  1
  Sb  Sb56  1  0.50086215  -0.00260039  0.83587922  1
  Sb  Sb57  1  0.33376895  0.66253185  0.00829911  1
  Sb  Sb58  1  0.49985004  0.32904515  0.49686688  1
  Sb  Sb59  1  0.16954990  0.66297394  0.83725849  1
  Sb  Sb60  1  -0.00331965  0.17071366  0.83183102  1
  Sb  Sb61  1  0.00497831  0.32729689  -0.00189818  1
  Sb  Sb62  1  0.16549081  0.00616217  0.83611136  1
  Sb  Sb63  1  0.33545483  0.67203011  0.65932272  1
  Sb  Sb64  1  0.16971570  0.84118882  0.66313136  1
  Sb  Sb65  1  0.66899401  -0.00234852  0.66504146  1
  Sb  Sb66  1  0.66829019  0.16016705  0.50170335  1
  Sb  Sb67  1  0.66336952  0.50561183  0.16620864  1
  Sb  Sb68  1  0.00118108  0.67258375  0.33713653  1
  Sb  Sb69  1  0.66595929  -0.00723547  0.33278918  1
  Sb  Sb70  1  0.33020074  0.32691494  0.66525970  1
  Sb  Sb71  1  0.66911666  0.00446287  0.00142038  1
  Sb  Sb72  1  0.16438497  0.67420846  0.49389380  1
  Sb  Sb73  1  0.49543636  0.33094328  0.16639238  1
  Sb  Sb74  1  0.00812084  0.16358381  0.16841524  1
  Sb  Sb75  1  0.83860901  0.32305857  0.16362216  1
  Sb  Sb76  1  0.33567656  0.83469750  0.83915531  1
  Sb  Sb77  1  0.00570267  0.83712653  0.17438085  1
  Sb  Sb78  1  0.50456565  0.67408759  0.49327865  1
  Sb  Sb79  1  0.33547364  0.16643452  0.83998388  1
  Sb  Sb80  1  0.50196679  0.16104561  0.66604823  1
  Sb  Sb81  1  0.82841607  0.83677697  0.65982790  1
  Sb  Sb82  1  0.17246857  0.49749302  0.32858303  1
  Sb  Sb83  1  0.66219148  0.16071561  0.16474603  1
  Sb  Sb84  1  0.66393481  0.66477199  -0.00105532  1
  Sb  Sb85  1  0.83553219  0.32788520  0.50481156  1
  Sb  Sb86  1  0.49818826  0.83615962  0.00686713  1
  Sb  Sb87  1  0.33149109  0.49850798  0.83230006  1
  Sb  Sb88  1  0.83454484  0.00564374  0.83030085  1
  Sb  Sb89  1  0.50384641  0.50564102  0.66530105  1
  Sb  Sb90  1  0.83058693  0.50053808  0.33898969  1
  Sb  Sb91  1  0.00011192  0.15816555  0.49938913  1
  Sb  Sb92  1  0.83379655  0.49200794  -0.00482291  1
  Sb  Sb93  1  0.66357707  0.50616649  0.50087467  1
  Sb  Sb94  1  0.83137566  0.67627057  0.17356897  1
  Sb  Sb95  1  -0.00375795  0.83138112  0.82739809  1
  Sb  Sb96  1  0.16522819  0.32664594  0.49628596  1
  Sb  Sb97  1  0.32869170  0.00452136  0.00881668  1
  Sb  Sb98  1  0.00307202  0.67078192  -0.00327304  1
  Sb  Sb99  1  0.50175007  0.33597773  0.83654505  1
  Sb  Sb100  1  0.00218121  0.50482181  0.50315240  1
  Sb  Sb101  1  0.33328376  0.49882699  0.17191040  1
  Sb  Sb102  1  0.66533611  0.33498331  0.33238173  1
  Sb  Sb103  1  0.66906696  0.49726207  0.83178126  1
  Sb  Sb104  1  0.33598363  0.83503041  0.49038514  1
  Sb  Sb105  1  0.00356464  0.49846886  0.16298538  1
  Sb  Sb106  1  0.16068923  0.49360417  0.67031054  1
  Sb  Sb107  1  0.83664851  0.84224418  0.00663463  1
  Te  Te108  1  0.16990369  0.16346236  0.16790129  1
  Te  Te109  1  0.16769873  0.15971844  0.50329876  1
  Te  Te110  1  0.16789757  0.17238286  0.83201551  1
  Te  Te111  1  0.16666838  0.49755066  0.16074555  1
  Te  Te112  1  0.17072604  0.50205990  0.50089903  1
  Te  Te113  1  0.16377544  0.49501458  0.83828787  1
  Te  Te114  1  0.16688827  0.83765262  0.16894359  1
  Te  Te115  1  0.16549444  0.83968091  0.49519089  1
  Te  Te116  1  0.16655973  0.83087401  0.83836568  1
  Te  Te117  1  0.49644059  0.16517603  0.16757668  1
  Te  Te118  1  0.50021844  0.15880218  0.49448021  1
  Te  Te119  1  0.50656479  0.16699129  0.83772320  1
  Te  Te120  1  0.49959982  0.50417570  0.16617979  1
  Te  Te121  1  0.49624885  0.49902823  0.49610971  1
  Te  Te122  1  0.49950775  0.50582194  0.83627717  1
  Te  Te123  1  0.49746789  0.83440351  0.16791568  1
  Te  Te124  1  0.50133835  0.83752722  0.49829708  1
  Te  Te125  1  0.50309595  0.82980225  0.83827790  1
  Te  Te126  1  0.83089011  0.16029852  0.16718998  1
  Te  Te127  1  0.83183515  0.16026202  0.49759072  1
  Te  Te128  1  0.82945872  0.17043698  0.83233808  1
  Te  Te129  1  0.83366527  0.50048620  0.16650849  1
  Te  Te130  1  0.83351601  0.50361439  0.50615041  1
  Te  Te131  1  0.83806326  0.49475075  0.82788115  1
  Te  Te132  1  0.82932808  0.83985707  0.17244333  1
  Te  Te133  1  0.83083679  0.83604683  0.49877576  1
  Te  Te134  1  0.82740902  0.83159949  0.83697991  1
  Te  Te135  1  0.16460073  0.00414863  0.00193861  1
  Te  Te136  1  0.16718760  0.00114237  0.33102384  1
  Te  Te137  1  0.16424550  0.00380385  0.66963358  1
  Te  Te138  1  0.16613185  0.32896889  0.00207495  1
  Te  Te139  1  0.16746225  0.33036398  0.33110070  1
  Te  Te140  1  0.16266497  0.32660493  0.66618967  1
  Te  Te141  1  0.16696258  0.66761100  0.00524974  1
  Te  Te142  1  0.16939219  0.66648024  0.32760648  1
  Te  Te143  1  0.16410264  0.66724087  0.66684126  1
  Te  Te144  1  0.49753758  0.00664769  0.00428361  1
  Te  Te145  1  0.50309318  -0.00256697  0.33114992  1
  Te  Te146  1  0.49766668  -0.00435023  0.66810517  1
  Te  Te147  1  0.49823870  0.33207007  0.00055471  1
  Te  Te148  1  0.49558955  0.33508045  0.33246834  1
  Te  Te149  1  0.50198439  0.33362272  0.66671059  1
  Te  Te150  1  0.49993001  0.66407443  0.00296732  1
  Te  Te151  1  0.49880991  0.66931397  0.33215032  1
  Te  Te152  1  0.50264401  0.67159706  0.66631243  1
  Te  Te153  1  0.84011950  0.00670659  -0.00137005  1
  Te  Te154  1  0.82751564  0.00011234  0.33547314  1
  Te  Te155  1  0.83817345  0.00517412  0.66282917  1
  Te  Te156  1  0.83395978  0.32684144  -0.00446854  1
  Te  Te157  1  0.83594345  0.33116779  0.33329010  1
  Te  Te158  1  0.83487114  0.33014127  0.66718723  1
  Te  Te159  1  0.83401546  0.66476569  0.00201867  1
  Te  Te160  1  0.83169168  0.66819777  0.33848553  1
  Te  Te161  1  0.83328559  0.67019224  0.66311368  1
  Te  Te162  1  0.00078269  0.16135992  -0.00136815  1
  Te  Te163  1  -0.00198930  0.16475298  0.33371533  1
  Te  Te164  1  -0.00148265  0.16686108  0.66645698  1
  Te  Te165  1  0.00272467  0.50068763  -0.00553101  1
  Te  Te166  1  -0.00078999  0.49737682  0.33406853  1
  Te  Te167  1  -0.00319025  0.49831817  0.66902882  1
  Te  Te168  1  0.00510224  0.83913921  -0.00308484  1
  Te  Te169  1  -0.00564528  0.83643156  0.33824294  1
  Te  Te170  1  0.00149008  0.83539819  0.66252725  1
  Te  Te171  1  0.33273890  0.17019264  0.00441570  1
  Te  Te172  1  0.33241308  0.16392733  0.33029532  1
  Te  Te173  1  0.33272831  0.16188248  0.66757235  1
  Te  Te174  1  0.33344287  0.49443846  -0.00103765  1
  Te  Te175  1  0.33680716  0.49849839  0.33570987  1
  Te  Te176  1  0.33355856  0.49991307  0.66118045  1
  Te  Te177  1  0.32677892  0.83326319  0.00672706  1
  Te  Te178  1  0.33409191  0.83637641  0.33039509  1
  Te  Te179  1  0.33903449  0.83808148  0.66866960  1
  Te  Te180  1  0.66698983  0.16953233  -0.00178599  1
  Te  Te181  1  0.66771212  0.17399893  0.33327112  1
  Te  Te182  1  0.66903732  0.16944460  0.66995639  1
  Te  Te183  1  0.66262652  0.49272214  -0.00081423  1
  Te  Te184  1  0.66025434  0.50601397  0.33354073  1
  Te  Te185  1  0.67221567  0.50146147  0.66693717  1
  Te  Te186  1  0.66783603  0.83334149  -0.00583817  1
  Te  Te187  1  0.66541640  0.82990761  0.33385267  1
  Te  Te188  1  0.66329397  0.83125028  0.66983199  1
  Te  Te189  1  -0.00221685  -0.00131462  0.17020621  1
  Te  Te190  1  0.00124418  -0.00342843  0.49627781  1
  Te  Te191  1  -0.00017061  -0.00203466  0.82765537  1
  Te  Te192  1  0.00650677  0.33290194  0.17359005  1
  Te  Te193  1  0.00034750  0.33670132  0.50023467  1
  Te  Te194  1  0.00029990  0.33573078  0.83190497  1
  Te  Te195  1  0.00512905  0.66688160  0.16652417  1
  Te  Te196  1  -0.00366044  0.67222253  0.50488315  1
  Te  Te197  1  0.00052078  0.66191585  0.82592448  1
  Te  Te198  1  0.33186772  0.00067558  0.16970301  1
  Te  Te199  1  0.33410173  -0.00058161  0.49626667  1
  Te  Te200  1  0.33315939  -0.00041905  0.82184978  1
  Te  Te201  1  0.33023302  0.33150450  0.16703792  1
  Te  Te202  1  0.33286698  0.33779649  0.49586584  1
  Te  Te203  1  0.32747764  0.33313806  0.83491145  1
  Te  Te204  1  0.33364881  0.66821151  0.17186123  1
  Te  Te205  1  0.33250142  0.66334465  0.49292249  1
  Te  Te206  1  0.34042192  0.66663844  0.83167462  1
  Te  Te207  1  0.66695017  -0.00631837  0.16383064  1
  Te  Te208  1  0.66243434  -0.00689933  0.50297295  1
  Te  Te209  1  0.66701873  -0.00082842  0.83335088  1
  Te  Te210  1  0.66927661  0.33435846  0.16043275  1
  Te  Te211  1  0.66706761  0.33402527  0.50702661  1
  Te  Te212  1  0.66807978  0.33118627  0.83339552  1
  Te  Te213  1  0.66334644  0.67304439  0.16932757  1
  Te  Te214  1  0.66950313  0.67202268  0.50111492  1
  Te  Te215  1  0.66286679  0.66843178  0.83033236  1
