# generated using pymatgen
data_AgSbTe2
_symmetry_space_group_name_H-M   'P 1'
_cell_length_a   18.31302794
_cell_length_b   18.31405452
_cell_length_c   18.31362400
_cell_angle_alpha   89.99965988
_cell_angle_beta   90.00099906
_cell_angle_gamma   89.99930876
_symmetry_Int_Tables_number   1
_chemical_formula_structural   AgSbTe2
_chemical_formula_sum   'Ag54 Sb54 Te108'
_cell_volume   6142.12928897
_cell_formula_units_Z   54
loop_
 _symmetry_equiv_pos_site_id
 _symmetry_equiv_pos_as_xyz
  1  'x, y, z'
loop_
 _atom_site_type_symbol
 _atom_site_label
 _atom_site_symmetry_multiplicity
 _atom_site_fract_x
 _atom_site_fract_y
 _atom_site_fract_z
 _atom_site_occupancy
  Ag  Ag0  1  0.17383419  0.33703483  0.83324853  1
  Ag  Ag1  1  0.17263359  0.83840836  0.67150941  1
  Ag  Ag2  1  -0.00524765  -0.00124775  0.66547675  1
  Ag  Ag3  1  0.83119191  0.33062820  0.82644821  1
  Ag  Ag4  1  0.16376192  0.49935958  -0.00517069  1
  Ag  Ag5  1  0.17834360  0.16485277  0.66673907  1
  Ag  Ag6  1  0.33493858  0.33109888  0.00098445  1
  Ag  Ag7  1  0.33736791  0.66581219  0.66469487  1
  Ag  Ag8  1  0.83214138  0.00206120  0.82494411  1
  Ag  Ag9  1  0.83155147  0.33162485  0.50828098  1
  Ag  Ag10  1  0.66565126  0.00422752  0.66814566  1
  Ag  Ag11  1  0.66652834  -0.00716463  -0.00674773  1
  Ag  Ag12  1  0.33637207  0.32900080  0.66638555  1
  Ag  Ag13  1  -0.00048166  -0.00610626  -0.00123372  1
  Ag  Ag14  1  0.33666007  0.33216845  0.33122319  1
  Ag  Ag15  1  0.83883552  0.51105546  -0.00286416  1
  Ag  Ag16  1  0.00037467  0.49938250  0.83109145  1
  Ag  Ag17  1  0.82780870  0.15891104  0.34278130  1
  Ag  Ag18  1  0.66156743  0.32722979  0.66727666  1
  Ag  Ag19  1  0.66670345  0.83393591  0.83353276  1
  Ag  Ag20  1  0.66799111  0.50337971  0.50294778  1
  Ag  Ag21  1  0.66581521  0.66911078  0.33326016  1
  Ag  Ag22  1  0.50210549  0.66478969  0.83044886  1
  Ag  Ag23  1  0.49691319  0.33486431  0.83035498  1
  Ag  Ag24  1  0.50480023  0.67198433  0.50244838  1
  Ag  Ag25  1  0.82554400  0.66723631  0.16085118  1
  Ag  Ag26  1  0.67075720  0.67145123  0.00248896  1
  Ag  Ag27  1  0.83207237  0.00046315  0.50667771  1
  Ag  Ag28  1  0.16854300  0.49446089  0.67100581  1
  Ag  Ag29  1  0.33345954  0.49472923  0.16676924  1
  Ag  Ag30  1  0.33426661  0.49503692  0.50309787  1
  Ag  Ag31  1  0.83032152  0.16276114  0.66131605  1
  Ag  Ag32  1  -0.00458973  0.83326202  0.50275819  1
  Ag  Ag33  1  0.49762105  0.16338631  -0.00119002  1
  Ag  Ag34  1  0.82771151  0.66714566  0.49794762  1
  Ag  Ag35  1  0.49411605  0.33105775  0.16270631  1
  Ag  Ag36  1  0.50467208  0.66917877  0.16695394  1
  Ag  Ag37  1  0.50587887  0.83782580  0.34051558  1
  Ag  Ag38  1  0.33849468  0.00504906  0.66767589  1
  Ag  Ag39  1  0.82805433  0.83644589  0.33589100  1
  Ag  Ag40  1  0.49670075  0.16135928  0.66452697  1
  Ag  Ag41  1  0.33720912  0.00476443  -0.00134885  1
  Ag  Ag42  1  0.50166346  0.16069808  0.33645397  1
  Ag  Ag43  1  -0.00975508  0.67142097  -0.00098476  1
  Ag  Ag44  1  0.17727016  0.33172359  0.15861767  1
  Ag  Ag45  1  0.83540245  0.82951009  0.00142750  1
  Ag  Ag46  1  -0.00665546  -0.00107233  0.34071762  1
  Ag  Ag47  1  -0.00447229  0.50560363  0.50582917  1
  Ag  Ag48  1  0.33781122  0.17166381  0.50496638  1
  Ag  Ag49  1  0.49693321  0.00203271  0.16804233  1
  Ag  Ag50  1  0.49644703  0.84146408  0.66217898  1
  Ag  Ag51  1  0.16077949  0.83573432  -0.00593092  1
  Ag  Ag52  1  0.50304783  -0.00216974  0.50671840  1
  Ag  Ag53  1  0.17230903  0.00335916  0.15953902  1
  Sb  Sb54  1  0.00176150  0.32907239  0.33589571  1
  Sb  Sb55  1  0.49784469  0.49791005  0.00046383  1
  Sb  Sb56  1  -0.00084242  0.16827159  0.83161571  1
  Sb  Sb57  1  0.33594543  0.00457349  0.33460512  1
  Sb  Sb58  1  0.83310563  0.50264779  0.33510914  1
  Sb  Sb59  1  0.16609857  -0.00022478  0.50352970  1
  Sb  Sb60  1  0.49991671  0.33081759  0.50295548  1
  Sb  Sb61  1  0.66241388  0.16541885  0.16684723  1
  Sb  Sb62  1  -0.00404944  0.83198311  0.83207803  1
  Sb  Sb63  1  0.66575360  0.16161805  0.83010206  1
  Sb  Sb64  1  0.33629346  0.66607652  -0.00299057  1
  Sb  Sb65  1  0.16892251  0.66602910  0.16164222  1
  Sb  Sb66  1  0.34263219  0.66238867  0.33753639  1
  Sb  Sb67  1  0.83761648  0.49527300  0.66731505  1
  Sb  Sb68  1  0.66120963  0.33394454  -0.00757756  1
  Sb  Sb69  1  -0.00097055  0.16407385  0.50255142  1
  Sb  Sb70  1  0.82825880  0.16141741  -0.00258815  1
  Sb  Sb71  1  0.17018331  0.66302852  0.83253327  1
  Sb  Sb72  1  0.50524878  0.00148923  0.82950653  1
  Sb  Sb73  1  0.17333408  0.16650375  -0.00518796  1
  Sb  Sb74  1  0.49961081  0.49991117  0.33452082  1
  Sb  Sb75  1  0.66624799  0.83248852  0.16166059  1
  Sb  Sb76  1  0.16885836  0.49851225  0.33374900  1
  Sb  Sb77  1  0.66203681  0.50304791  0.16805699  1
  Sb  Sb78  1  0.83030448  -0.00478587  0.16663780  1
  Sb  Sb79  1  0.66240425  0.33576347  0.33990234  1
  Sb  Sb80  1  0.66103239  0.66828348  0.66623180  1
  Sb  Sb81  1  0.33813094  0.83371969  0.83141877  1
  Sb  Sb82  1  0.66720724  -0.00512969  0.33680363  1
  Sb  Sb83  1  0.00203730  0.32945132  0.66757060  1
  Sb  Sb84  1  -0.00027436  0.83449643  0.16592267  1
  Sb  Sb85  1  0.00440514  0.50143277  0.16437812  1
  Sb  Sb86  1  0.16299405  0.00326089  0.83359658  1
  Sb  Sb87  1  0.00260487  0.66976961  0.66840210  1
  Sb  Sb88  1  0.00499791  0.33361329  -0.00223234  1
  Sb  Sb89  1  0.16815747  0.66594155  0.50228679  1
  Sb  Sb90  1  0.33562807  0.83256428  0.16568125  1
  Sb  Sb91  1  0.00095597  0.16381491  0.16686818  1
  Sb  Sb92  1  0.32854832  0.49627013  0.83091452  1
  Sb  Sb93  1  0.83117074  0.83983129  0.66502953  1
  Sb  Sb94  1  0.66932585  0.82972717  0.50525903  1
  Sb  Sb95  1  0.50235006  0.83721640  -0.00206415  1
  Sb  Sb96  1  0.83005551  0.33764957  0.16509097  1
  Sb  Sb97  1  0.33458354  0.83365527  0.50330486  1
  Sb  Sb98  1  0.66409012  0.16814194  0.50344106  1
  Sb  Sb99  1  0.33554666  0.16810664  0.82563216  1
  Sb  Sb100  1  0.16762052  0.33462307  0.50470180  1
  Sb  Sb101  1  0.82904111  0.66845623  0.83380669  1
  Sb  Sb102  1  -0.00884465  0.67257980  0.33204420  1
  Sb  Sb103  1  0.17038016  0.16628285  0.33746451  1
  Sb  Sb104  1  0.67073555  0.50269155  0.82985799  1
  Sb  Sb105  1  0.16480669  0.83742529  0.33421814  1
  Sb  Sb106  1  0.33626847  0.17336192  0.17009604  1
  Sb  Sb107  1  0.49437516  0.49856372  0.66547821  1
  Te  Te108  1  0.16777364  0.16551037  0.16688158  1
  Te  Te109  1  0.17141678  0.16748127  0.50711306  1
  Te  Te110  1  0.16511241  0.17566567  0.82545554  1
  Te  Te111  1  0.17187017  0.49708263  0.16297450  1
  Te  Te112  1  0.16903889  0.49988608  0.50447095  1
  Te  Te113  1  0.16253742  0.49729240  0.83393464  1
  Te  Te114  1  0.16776202  0.83844227  0.16188271  1
  Te  Te115  1  0.16001451  0.83293478  0.50416893  1
  Te  Te116  1  0.16572329  0.83208708  0.83297324  1
  Te  Te117  1  0.49850857  0.16391633  0.16823214  1
  Te  Te118  1  0.49831517  0.16424894  0.50203329  1
  Te  Te119  1  0.50066359  0.17351973  0.83156291  1
  Te  Te120  1  0.49459934  0.49923396  0.16748092  1
  Te  Te121  1  0.49777270  0.50407836  0.49959850  1
  Te  Te122  1  0.50145566  0.49865088  0.83353009  1
  Te  Te123  1  0.49984226  0.83342693  0.17067346  1
  Te  Te124  1  0.50045247  0.83478570  0.50128530  1
  Te  Te125  1  0.50410297  0.83001919  0.82903766  1
  Te  Te126  1  0.83249579  0.16940328  0.17408626  1
  Te  Te127  1  0.83332846  0.16425322  0.50036991  1
  Te  Te128  1  0.83310815  0.16809732  0.82925799  1
  Te  Te129  1  0.83367321  0.50505927  0.16070983  1
  Te  Te130  1  0.83461813  0.50111711  0.49985884  1
  Te  Te131  1  0.83798826  0.49722162  0.83702806  1
  Te  Te132  1  0.83366118  0.82668327  0.16775531  1
  Te  Te133  1  0.83477728  0.83621503  0.49889937  1
  Te  Te134  1  0.82963064  0.83728329  0.83758603  1
  Te  Te135  1  0.16783623  -0.00012567  -0.00013239  1
  Te  Te136  1  0.16250496  0.00066578  0.32620538  1
  Te  Te137  1  0.17026259  0.00012738  0.66820315  1
  Te  Te138  1  0.17109864  0.33412078  -0.00237231  1
  Te  Te139  1  0.17264493  0.33129151  0.32732167  1
  Te  Te140  1  0.16778501  0.33306622  0.67045073  1
  Te  Te141  1  0.16600712  0.66721573  -0.00057700  1
  Te  Te142  1  0.16651397  0.66863937  0.33136626  1
  Te  Te143  1  0.17198503  0.67002933  0.66731683  1
  Te  Te144  1  0.49819869  0.00167175  -0.00311998  1
  Te  Te145  1  0.50133590  -0.00000428  0.33291344  1
  Te  Te146  1  0.49982891  0.00079099  0.66783065  1
  Te  Te147  1  0.49675102  0.33076043  -0.00068562  1
  Te  Te148  1  0.49683005  0.32830585  0.33185839  1
  Te  Te149  1  0.49868538  0.33157687  0.66825536  1
  Te  Te150  1  0.50356584  0.66806851  0.00261667  1
  Te  Te151  1  0.50468769  0.66933221  0.33353099  1
  Te  Te152  1  0.49730581  0.66679269  0.66432674  1
  Te  Te153  1  0.83129649  -0.00187473  0.00076461  1
  Te  Te154  1  0.83314322  -0.00190207  0.33358770  1
  Te  Te155  1  0.83159094  0.00095011  0.66582256  1
  Te  Te156  1  0.83200189  0.33202217  -0.00175540  1
  Te  Te157  1  0.83231047  0.32893528  0.33493541  1
  Te  Te158  1  0.83522891  0.32948671  0.66654870  1
  Te  Te159  1  0.83179969  0.66845703  -0.00313908  1
  Te  Te160  1  0.82826508  0.66996094  0.33713273  1
  Te  Te161  1  0.83268712  0.66782807  0.66004320  1
  Te  Te162  1  -0.00081928  0.15751006  -0.00083836  1
  Te  Te163  1  -0.00333207  0.15994852  0.33500330  1
  Te  Te164  1  -0.00508408  0.15882312  0.66631485  1
  Te  Te165  1  0.00112637  0.50001852  -0.00034463  1
  Te  Te166  1  0.00126030  0.50053625  0.34111282  1
  Te  Te167  1  0.00597175  0.50123265  0.66640927  1
  Te  Te168  1  -0.00107769  0.83311224  -0.00146397  1
  Te  Te169  1  -0.00358934  0.83899728  0.33850812  1
  Te  Te170  1  0.00383163  0.83736168  0.66449833  1
  Te  Te171  1  0.33813193  0.16504143  0.00052957  1
  Te  Te172  1  0.33758111  0.17160879  0.34248312  1
  Te  Te173  1  0.33572276  0.16610201  0.66365714  1
  Te  Te174  1  0.32937469  0.49766124  0.00130218  1
  Te  Te175  1  0.33273946  0.49327920  0.33715471  1
  Te  Te176  1  0.32838560  0.49678233  0.66494213  1
  Te  Te177  1  0.32728462  0.83663971  -0.00111566  1
  Te  Te178  1  0.33917048  0.83252737  0.33485970  1
  Te  Te179  1  0.33406597  0.83590863  0.66635324  1
  Te  Te180  1  0.65923656  0.16240213  -0.00026057  1
  Te  Te181  1  0.66508874  0.16655334  0.33412002  1
  Te  Te182  1  0.66683832  0.16652481  0.66594433  1
  Te  Te183  1  0.67182264  0.50346473  -0.00029976  1
  Te  Te184  1  0.66696656  0.50635415  0.33983644  1
  Te  Te185  1  0.66811728  0.49528353  0.66206754  1
  Te  Te186  1  0.66855695  0.83308620  -0.00416322  1
  Te  Te187  1  0.66612315  0.82870130  0.33359249  1
  Te  Te188  1  0.66080677  0.83790817  0.67182981  1
  Te  Te189  1  0.00180436  -0.00060680  0.16129632  1
  Te  Te190  1  -0.00089594  -0.00167347  0.50187041  1
  Te  Te191  1  -0.00599565  -0.00011664  0.83237282  1
  Te  Te192  1  0.00569316  0.33329090  0.16725975  1
  Te  Te193  1  -0.00582416  0.33873215  0.49953779  1
  Te  Te194  1  -0.00468075  0.33879132  0.83422593  1
  Te  Te195  1  -0.00419185  0.66658510  0.16090886  1
  Te  Te196  1  -0.00337729  0.66748392  0.49980119  1
  Te  Te197  1  -0.00031695  0.66115454  0.83841168  1
  Te  Te198  1  0.33600095  -0.00047562  0.16515349  1
  Te  Te199  1  0.33666525  0.00166815  0.50262398  1
  Te  Te200  1  0.33216745  0.00036804  0.83377608  1
  Te  Te201  1  0.33546519  0.33493148  0.16385661  1
  Te  Te202  1  0.33294888  0.33429821  0.50537561  1
  Te  Te203  1  0.33506087  0.33348010  0.83302632  1
  Te  Te204  1  0.33939643  0.65934819  0.16776407  1
  Te  Te205  1  0.33762356  0.66343291  0.50475029  1
  Te  Te206  1  0.34223541  0.66564536  0.82719885  1
  Te  Te207  1  0.65949410  -0.00024505  0.16014835  1
  Te  Te208  1  0.66547039  -0.00102184  0.50437063  1
  Te  Te209  1  0.67077649  -0.00377026  0.83248076  1
  Te  Te210  1  0.65830858  0.33510372  0.16626952  1
  Te  Te211  1  0.67117549  0.34027470  0.50507478  1
  Te  Te212  1  0.66779279  0.33500625  0.82670883  1
  Te  Te213  1  0.66538288  0.66596352  0.16470842  1
  Te  Te214  1  0.66577418  0.66418634  0.50017114  1
  Te  Te215  1  0.66150407  0.66997425  0.83663472  1
