# generated using pymatgen
data_AgSbTe2
_symmetry_space_group_name_H-M   'P 1'
_cell_length_a   18.35799939
_cell_length_b   18.34969632
_cell_length_c   18.36015877
_cell_angle_alpha   90.00352279
_cell_angle_beta   89.99965745
_cell_angle_gamma   90.00127195
_symmetry_Int_Tables_number   1
_chemical_formula_structural   AgSbTe2
_chemical_formula_sum   'Ag54 Sb54 Te108'
_cell_volume   6184.87125564
_cell_formula_units_Z   54
loop_
 _symmetry_equiv_pos_site_id
 _symmetry_equiv_pos_as_xyz
  1  'x, y, z'
loop_
 _atom_site_type_symbol
 _atom_site_label
 _atom_site_symmetry_multiplicity
 _atom_site_fract_x
 _atom_site_fract_y
 _atom_site_fract_z
 _atom_site_occupancy
  Ag  Ag0  1  0.50458322  0.84285145  -0.00162629  1
  Ag  Ag1  1  0.17340845  0.32980831  0.83411132  1
  Ag  Ag2  1  0.16854645  0.65635684  0.16654996  1
  Ag  Ag3  1  0.84566583  0.00056793  0.48565776  1
  Ag  Ag4  1  0.15977701  0.16576235  0.32618701  1
  Ag  Ag5  1  0.83731282  0.00036181  0.84702868  1
  Ag  Ag6  1  0.01445421  0.49597297  0.82960125  1
  Ag  Ag7  1  0.50124205  0.65407892  0.83137990  1
  Ag  Ag8  1  0.16385042  0.16711746  0.00546395  1
  Ag  Ag9  1  0.00814523  0.16599019  0.17669441  1
  Ag  Ag10  1  0.00867769  0.32466829  0.34071598  1
  Ag  Ag11  1  0.66027343  0.32891400  -0.00016059  1
  Ag  Ag12  1  0.49106438  0.33217096  0.83656826  1
  Ag  Ag13  1  0.33094005  0.49429163  0.50230824  1
  Ag  Ag14  1  0.50002126  0.66723659  0.50617400  1
  Ag  Ag15  1  0.33198266  0.84302014  0.16515264  1
  Ag  Ag16  1  0.32797223  0.17301548  0.16689494  1
  Ag  Ag17  1  0.00893717  0.49480962  0.50458364  1
  Ag  Ag18  1  0.66287953  0.84485108  0.83755922  1
  Ag  Ag19  1  0.16880551  0.48631308  -0.00603066  1
  Ag  Ag20  1  0.66429807  0.49457740  0.50126005  1
  Ag  Ag21  1  0.82714040  0.84385154  0.00306219  1
  Ag  Ag22  1  0.66217731  0.33256616  0.67731753  1
  Ag  Ag23  1  -0.00762005  0.01125403  0.34313367  1
  Ag  Ag24  1  0.66563693  0.32801022  0.32910588  1
  Ag  Ag25  1  0.16271051  0.00973247  0.83531036  1
  Ag  Ag26  1  0.33316707  0.48944352  0.16291073  1
  Ag  Ag27  1  0.50018860  0.00120448  0.49984142  1
  Ag  Ag28  1  0.49668421  0.00924683  0.15842770  1
  Ag  Ag29  1  0.65812366  0.49229718  0.15972410  1
  Ag  Ag30  1  0.33226575  0.32906046  0.00214889  1
  Ag  Ag31  1  0.16084683  0.84801033  0.32975102  1
  Ag  Ag32  1  -0.00684733  0.00430898  0.00111489  1
  Ag  Ag33  1  0.16656857  0.48966127  0.67527423  1
  Ag  Ag34  1  0.17620548  0.33193479  0.15706198  1
  Ag  Ag35  1  0.33219513  0.49316808  0.83764045  1
  Ag  Ag36  1  0.00205093  0.01043425  0.65526609  1
  Ag  Ag37  1  0.32538951  0.33177487  0.31845574  1
  Ag  Ag38  1  0.67379313  0.00530406  0.32937150  1
  Ag  Ag39  1  0.48935066  0.16948654  0.66672327  1
  Ag  Ag40  1  0.84522049  0.16553114  0.32708510  1
  Ag  Ag41  1  0.49170849  0.32886690  0.15935142  1
  Ag  Ag42  1  -0.00027590  0.84695188  0.49671122  1
  Ag  Ag43  1  0.00267830  0.16197561  0.49026273  1
  Ag  Ag44  1  0.66653143  0.00478105  -0.00065074  1
  Ag  Ag45  1  0.16666456  0.17076911  0.66895292  1
  Ag  Ag46  1  0.84238268  0.16544877  0.00506459  1
  Ag  Ag47  1  0.15823178  0.00284474  0.49910749  1
  Ag  Ag48  1  0.32737187  0.33247475  0.67426492  1
  Ag  Ag49  1  0.66310239  0.49370822  0.83363488  1
  Ag  Ag50  1  0.33649584  0.00624461  0.00125713  1
  Ag  Ag51  1  0.00989456  0.32876198  0.66166275  1
  Ag  Ag52  1  0.50047699  0.00371986  0.83984545  1
  Ag  Ag53  1  0.83980639  0.84398245  0.32923217  1
  Sb  Sb54  1  0.66806553  0.00464572  0.66978422  1
  Sb  Sb55  1  0.17246827  0.66052416  0.83730688  1
  Sb  Sb56  1  0.00630289  0.32803905  -0.00083464  1
  Sb  Sb57  1  0.83434235  0.49407221  -0.00133451  1
  Sb  Sb58  1  0.83172332  0.67089728  0.49813947  1
  Sb  Sb59  1  0.66392385  0.65911443  0.66768292  1
  Sb  Sb60  1  0.67082469  0.16859926  0.49847672  1
  Sb  Sb61  1  0.83759622  0.49697570  0.66779529  1
  Sb  Sb62  1  0.66370330  0.16926975  0.16590729  1
  Sb  Sb63  1  0.33310295  0.66227182  0.00110581  1
  Sb  Sb64  1  0.50013782  0.49687496  0.33426039  1
  Sb  Sb65  1  0.49648005  0.49842001  -0.00185210  1
  Sb  Sb66  1  0.83793255  0.16528704  0.66674353  1
  Sb  Sb67  1  0.66873745  0.83480195  0.50271475  1
  Sb  Sb68  1  0.33823572  0.83286157  0.83924607  1
  Sb  Sb69  1  -0.00350543  0.83664072  0.83034702  1
  Sb  Sb70  1  0.16748653  0.49172846  0.33302243  1
  Sb  Sb71  1  0.17163626  0.00943164  0.16558395  1
  Sb  Sb72  1  0.49613695  0.16428163  -0.00274348  1
  Sb  Sb73  1  0.16530561  0.84114395  0.66325374  1
  Sb  Sb74  1  0.00455902  0.84362385  0.17044271  1
  Sb  Sb75  1  0.33042406  0.83352164  0.49457885  1
  Sb  Sb76  1  0.49990336  0.84117103  0.67200480  1
  Sb  Sb77  1  0.82896857  0.00296854  0.16657104  1
  Sb  Sb78  1  0.66400478  0.66741767  -0.00117067  1
  Sb  Sb79  1  0.82779758  0.67133803  0.83528076  1
  Sb  Sb80  1  0.66547729  0.66639223  0.33346365  1
  Sb  Sb81  1  0.83247686  0.32999731  0.16677424  1
  Sb  Sb82  1  0.00287286  0.66390865  0.66692143  1
  Sb  Sb83  1  0.66494335  0.16732685  0.83552871  1
  Sb  Sb84  1  0.49935562  0.83788551  0.32908972  1
  Sb  Sb85  1  0.33144499  0.66044647  0.33176721  1
  Sb  Sb86  1  0.16826056  0.84229754  0.00467191  1
  Sb  Sb87  1  0.33077565  0.00526913  0.32973348  1
  Sb  Sb88  1  0.83561188  0.32848459  0.49928129  1
  Sb  Sb89  1  0.83737829  0.66705507  0.16642307  1
  Sb  Sb90  1  0.83462026  0.32725157  0.83421774  1
  Sb  Sb91  1  0.66317039  0.83403095  0.16338110  1
  Sb  Sb92  1  0.33488282  0.65754610  0.66651472  1
  Sb  Sb93  1  0.49505921  0.66408636  0.16414259  1
  Sb  Sb94  1  0.00296908  0.66838613  0.33351342  1
  Sb  Sb95  1  0.83349668  0.84035317  0.66693166  1
  Sb  Sb96  1  0.50059468  0.33138251  0.50130668  1
  Sb  Sb97  1  0.49557063  0.49050588  0.66852044  1
  Sb  Sb98  1  0.00397460  0.16652357  0.83155650  1
  Sb  Sb99  1  0.33166597  0.17327327  0.84026940  1
  Sb  Sb100  1  0.83238405  0.49512723  0.33405562  1
  Sb  Sb101  1  0.32720891  0.17015252  0.49596398  1
  Sb  Sb102  1  0.16553687  0.32730770  0.50379761  1
  Sb  Sb103  1  0.33066673  0.00744554  0.67182087  1
  Sb  Sb104  1  0.00310889  0.67071173  -0.00017493  1
  Sb  Sb105  1  0.49803431  0.16821404  0.33574486  1
  Sb  Sb106  1  0.00510124  0.49125105  0.16678922  1
  Sb  Sb107  1  0.16913697  0.66828313  0.49640865  1
  Te  Te108  1  0.16767472  0.16971706  0.16595577  1
  Te  Te109  1  0.16318200  0.16123695  0.50168215  1
  Te  Te110  1  0.16770962  0.16772734  0.82999545  1
  Te  Te111  1  0.17016679  0.49266199  0.16733007  1
  Te  Te112  1  0.16876219  0.50331557  0.50017480  1
  Te  Te113  1  0.17161848  0.49869843  0.83517965  1
  Te  Te114  1  0.16958235  0.83313661  0.16958956  1
  Te  Te115  1  0.16290638  0.83702988  0.49508828  1
  Te  Te116  1  0.16715690  0.83108377  0.83308415  1
  Te  Te117  1  0.49525416  0.16854253  0.16775122  1
  Te  Te118  1  0.50074817  0.16279708  0.50478029  1
  Te  Te119  1  0.49911009  0.16887786  0.82737174  1
  Te  Te120  1  0.49803218  0.49650465  0.16569251  1
  Te  Te121  1  0.50043725  0.50168375  0.50187471  1
  Te  Te122  1  0.50003178  0.49519837  0.83301102  1
  Te  Te123  1  0.49559335  0.83123516  0.16137545  1
  Te  Te124  1  0.49924291  0.83281701  0.50118703  1
  Te  Te125  1  0.50266170  0.84388019  0.83773451  1
  Te  Te126  1  0.83780884  0.16679738  0.16619017  1
  Te  Te127  1  0.83940478  0.16022367  0.49811657  1
  Te  Te128  1  0.83329433  0.15904816  0.83750432  1
  Te  Te129  1  0.82738158  0.50119046  0.16584797  1
  Te  Te130  1  0.82801042  0.50240948  0.50026140  1
  Te  Te131  1  0.82401713  0.50282218  0.83460955  1
  Te  Te132  1  0.83376005  0.83227535  0.16620450  1
  Te  Te133  1  0.83628515  0.83823163  0.49650027  1
  Te  Te134  1  0.82853990  0.83840369  0.83778145  1
  Te  Te135  1  0.17171207  0.00520275  -0.00354484  1
  Te  Te136  1  0.16630450  0.00437677  0.33325617  1
  Te  Te137  1  0.16295811  0.00387040  0.66950520  1
  Te  Te138  1  0.16675634  0.32992834  -0.00399358  1
  Te  Te139  1  0.16675463  0.32824701  0.33596085  1
  Te  Te140  1  0.16645328  0.33337387  0.66654465  1
  Te  Te141  1  0.16709336  0.66445021  0.00566908  1
  Te  Te142  1  0.16753241  0.67145981  0.32828660  1
  Te  Te143  1  0.16792463  0.66293497  0.66667038  1
  Te  Te144  1  0.50072086  0.00337511  0.00015244  1
  Te  Te145  1  0.50191553  0.00054712  0.33726366  1
  Te  Te146  1  0.49968667  0.00848553  0.66627335  1
  Te  Te147  1  0.49923206  0.33354612  -0.00107119  1
  Te  Te148  1  0.50513060  0.33330691  0.33010043  1
  Te  Te149  1  0.50303201  0.32832274  0.66830383  1
  Te  Te150  1  0.49910183  0.67532585  -0.00546660  1
  Te  Te151  1  0.49942058  0.66836723  0.33892473  1
  Te  Te152  1  0.50019852  0.66987643  0.66864001  1
  Te  Te153  1  0.82847717  0.00263062  0.00295942  1
  Te  Te154  1  0.83290573  0.00176777  0.33021015  1
  Te  Te155  1  0.83954179  0.00036812  0.66658195  1
  Te  Te156  1  0.82511684  0.32752431  -0.00024287  1
  Te  Te157  1  0.83016732  0.32715475  0.33338902  1
  Te  Te158  1  0.82692092  0.33290270  0.66670830  1
  Te  Te159  1  0.83443841  0.67570122  0.00110712  1
  Te  Te160  1  0.83382339  0.67675830  0.33252147  1
  Te  Te161  1  0.83296614  0.66885429  0.66654011  1
  Te  Te162  1  0.00159127  0.16418734  -0.00285970  1
  Te  Te163  1  0.00075693  0.16785404  0.33359312  1
  Te  Te164  1  0.00328359  0.16860797  0.66602599  1
  Te  Te165  1  0.00354569  0.50089151  -0.00294880  1
  Te  Te166  1  -0.00122434  0.49715293  0.33653679  1
  Te  Te167  1  0.00343323  0.49712370  0.66813257  1
  Te  Te168  1  -0.00297697  0.84029395  -0.00075958  1
  Te  Te169  1  0.00111618  0.83453076  0.33575511  1
  Te  Te170  1  0.00022958  0.83476486  0.65970595  1
  Te  Te171  1  0.33159839  0.16654668  0.00536450  1
  Te  Te172  1  0.33115147  0.17341463  0.32933486  1
  Te  Te173  1  0.32980584  0.17228611  0.66334285  1
  Te  Te174  1  0.33107190  0.49587766  0.00043229  1
  Te  Te175  1  0.33409721  0.49182646  0.33338193  1
  Te  Te176  1  0.32916305  0.49368176  0.66542374  1
  Te  Te177  1  0.33431511  0.83716699  0.00459736  1
  Te  Te178  1  0.33037549  0.83277955  0.32725437  1
  Te  Te179  1  0.33285789  0.83185503  0.66447074  1
  Te  Te180  1  0.66887996  0.16585932  0.00193026  1
  Te  Te181  1  0.66653632  0.16484530  0.33227112  1
  Te  Te182  1  0.66814835  0.17354007  0.66629284  1
  Te  Te183  1  0.66757835  0.49556237  0.00032981  1
  Te  Te184  1  0.66835996  0.49898588  0.33797185  1
  Te  Te185  1  0.66628017  0.49236742  0.66559248  1
  Te  Te186  1  0.66613545  0.83332270  -0.00167034  1
  Te  Te187  1  0.66891758  0.83834658  0.33357062  1
  Te  Te188  1  0.66607521  0.83172821  0.67509411  1
  Te  Te189  1  0.00211250  0.00555243  0.16036278  1
  Te  Te190  1  0.00202765  0.00150306  0.49829965  1
  Te  Te191  1  0.00193495  -0.00249177  0.84125145  1
  Te  Te192  1  0.00138684  0.32737608  0.16913610  1
  Te  Te193  1  -0.00082154  0.33527842  0.50055026  1
  Te  Te194  1  -0.00024545  0.33895659  0.83076378  1
  Te  Te195  1  0.00781313  0.66260518  0.16531432  1
  Te  Te196  1  -0.00017326  0.65554068  0.50080540  1
  Te  Te197  1  -0.00121892  0.65950579  0.83342349  1
  Te  Te198  1  0.33770428  -0.00012323  0.16536037  1
  Te  Te199  1  0.33724792  -0.00074167  0.50203001  1
  Te  Te200  1  0.33422178  -0.00171774  0.83809046  1
  Te  Te201  1  0.33443241  0.33355309  0.16361752  1
  Te  Te202  1  0.33530517  0.33678458  0.50462804  1
  Te  Te203  1  0.33361486  0.33438751  0.83409536  1
  Te  Te204  1  0.32885663  0.66181516  0.16688811  1
  Te  Te205  1  0.33910984  0.66220943  0.49926206  1
  Te  Te206  1  0.34065743  0.66118660  0.83336016  1
  Te  Te207  1  0.65731609  -0.00167919  0.16651573  1
  Te  Te208  1  0.66155995  -0.00087056  0.50067886  1
  Te  Te209  1  0.66446365  0.00028565  0.83450047  1
  Te  Te210  1  0.66646939  0.33374872  0.16576781  1
  Te  Te211  1  0.66802965  0.33583634  0.49230071  1
  Te  Te212  1  0.66880736  0.33404329  0.83660450  1
  Te  Te213  1  0.66625847  0.65597992  0.16762945  1
  Te  Te214  1  0.66133837  0.66378137  0.50039417  1
  Te  Te215  1  0.66080031  0.65972350  0.83285237  1
