# generated using pymatgen
data_AgSbTe2
_symmetry_space_group_name_H-M   'P 1'
_cell_length_a   18.33307965
_cell_length_b   18.33247415
_cell_length_c   18.33852930
_cell_angle_alpha   89.99981774
_cell_angle_beta   90.00012501
_cell_angle_gamma   90.00051489
_symmetry_Int_Tables_number   1
_chemical_formula_structural   AgSbTe2
_chemical_formula_sum   'Ag54 Sb54 Te108'
_cell_volume   6163.40930832
_cell_formula_units_Z   54
loop_
 _symmetry_equiv_pos_site_id
 _symmetry_equiv_pos_as_xyz
  1  'x, y, z'
loop_
 _atom_site_type_symbol
 _atom_site_label
 _atom_site_symmetry_multiplicity
 _atom_site_fract_x
 _atom_site_fract_y
 _atom_site_fract_z
 _atom_site_occupancy
  Ag  Ag0  1  0.50267555  0.49940484  0.00094279  1
  Ag  Ag1  1  0.50317978  0.49877836  0.66587634  1
  Ag  Ag2  1  0.67014606  0.49824518  0.16601691  1
  Ag  Ag3  1  0.33575995  0.33697027  0.66370126  1
  Ag  Ag4  1  -0.00296446  0.49498261  0.17512150  1
  Ag  Ag5  1  0.00747141  0.16294880  0.83121139  1
  Ag  Ag6  1  0.17004503  0.65741205  0.49619115  1
  Ag  Ag7  1  0.83181123  0.01530610  0.16824445  1
  Ag  Ag8  1  -0.00563695  0.17301949  0.49902404  1
  Ag  Ag9  1  0.51482137  0.17170661  0.33349767  1
  Ag  Ag10  1  0.49870147  0.65937785  0.49538388  1
  Ag  Ag11  1  0.33483462  0.49546571  0.82567986  1
  Ag  Ag12  1  0.83599469  0.49585226  0.33607140  1
  Ag  Ag13  1  0.67013271  0.66192625  0.32899339  1
  Ag  Ag14  1  0.51187288  0.33709411  0.16802589  1
  Ag  Ag15  1  0.83006046  0.33046769  0.49472551  1
  Ag  Ag16  1  0.50866564  0.65457074  0.17104745  1
  Ag  Ag17  1  0.16514899  0.16917800  0.67774686  1
  Ag  Ag18  1  -0.00577754  0.84368858  0.83050346  1
  Ag  Ag19  1  0.33121607  0.00500470  -0.00536502  1
  Ag  Ag20  1  0.82630216  0.49829455  0.65671089  1
  Ag  Ag21  1  -0.01001251  0.17692746  0.16822282  1
  Ag  Ag22  1  0.66559426  0.33712843  0.66653190  1
  Ag  Ag23  1  -0.00369867  0.00479523  0.66996655  1
  Ag  Ag24  1  0.67154827  0.82743476  0.83594431  1
  Ag  Ag25  1  0.67801162  0.18069387  0.17181682  1
  Ag  Ag26  1  0.33332698  0.65327107  0.66583119  1
  Ag  Ag27  1  0.67315844  0.49591848  0.50118606  1
  Ag  Ag28  1  0.84010895  0.00175534  0.83128428  1
  Ag  Ag29  1  0.67850432  0.17760727  0.49230309  1
  Ag  Ag30  1  0.17104194  0.49387774  0.00827807  1
  Ag  Ag31  1  0.83444469  0.01214003  0.49891588  1
  Ag  Ag32  1  0.66993570  0.81980776  0.16354183  1
  Ag  Ag33  1  0.66465734  0.49939152  0.83621394  1
  Ag  Ag34  1  0.16455244  0.33698643  0.16244591  1
  Ag  Ag35  1  0.33061749  0.17617665  0.50330853  1
  Ag  Ag36  1  -0.00862459  0.66005977  0.33339581  1
  Ag  Ag37  1  0.33296540  0.33506672  0.33876276  1
  Ag  Ag38  1  0.15910005  0.01295125  0.83427318  1
  Ag  Ag39  1  0.32223053  0.17209317  0.82954290  1
  Ag  Ag40  1  0.83304287  0.83259602  0.66588254  1
  Ag  Ag41  1  0.66697277  0.33696725  0.00856834  1
  Ag  Ag42  1  0.15825745  0.49952880  0.32658983  1
  Ag  Ag43  1  0.83191677  0.17314773  0.32610465  1
  Ag  Ag44  1  0.33004676  0.83613870  0.83240287  1
  Ag  Ag45  1  0.33478209  0.49455095  0.50548957  1
  Ag  Ag46  1  0.82874903  0.32996429  0.17387017  1
  Ag  Ag47  1  0.83181221  0.83144241  0.33503171  1
  Ag  Ag48  1  0.16944341  0.32615813  0.83738903  1
  Ag  Ag49  1  0.16855537  0.65394877  0.16998470  1
  Ag  Ag50  1  0.66590651  0.65397996  0.00958522  1
  Ag  Ag51  1  -0.00515102  0.49542123  0.49271343  1
  Ag  Ag52  1  0.83871456  0.16787532  0.01297898  1
  Ag  Ag53  1  0.16111104  0.17530450  -0.00954608  1
  Sb  Sb54  1  0.66921174  0.17080474  0.83370520  1
  Sb  Sb55  1  0.50513249  0.00209649  0.50011172  1
  Sb  Sb56  1  -0.00169234  0.33116125  0.00305984  1
  Sb  Sb57  1  0.32711314  0.00569017  0.67205628  1
  Sb  Sb58  1  0.49465176  0.17520057  0.66172500  1
  Sb  Sb59  1  0.33304756  0.49786529  0.16881257  1
  Sb  Sb60  1  0.50082997  0.66160621  0.83374523  1
  Sb  Sb61  1  0.33526405  0.65948071  0.33837520  1
  Sb  Sb62  1  0.16123036  0.00325132  0.50499518  1
  Sb  Sb63  1  0.82919079  0.49275929  0.00405606  1
  Sb  Sb64  1  0.50251379  0.82603190  -0.00027213  1
  Sb  Sb65  1  0.50691188  0.00434522  0.16561375  1
  Sb  Sb66  1  0.16887974  0.49477777  0.66595255  1
  Sb  Sb67  1  0.66548761  0.00373090  0.00079576  1
  Sb  Sb68  1  0.83311559  0.65794444  0.49734190  1
  Sb  Sb69  1  0.50019873  0.17399269  0.00432745  1
  Sb  Sb70  1  0.49933076  0.00017351  0.83358937  1
  Sb  Sb71  1  0.50244173  0.33785206  0.49443917  1
  Sb  Sb72  1  0.33280061  0.82928685  0.50552186  1
  Sb  Sb73  1  0.16290513  0.83689848  0.66949794  1
  Sb  Sb74  1  0.33255299  0.33318916  -0.00199689  1
  Sb  Sb75  1  0.66785094  0.33780027  0.33254153  1
  Sb  Sb76  1  0.67546026  0.00566145  0.66701400  1
  Sb  Sb77  1  0.15982686  0.82132711  0.33235823  1
  Sb  Sb78  1  0.67154795  0.00057267  0.33248269  1
  Sb  Sb79  1  0.67193999  0.82859985  0.50088110  1
  Sb  Sb80  1  0.83515639  0.32947047  0.83304371  1
  Sb  Sb81  1  0.50329833  0.49515178  0.33278244  1
  Sb  Sb82  1  0.16709514  0.83279875  -0.00144307  1
  Sb  Sb83  1  0.16860980  0.66310525  0.83383164  1
  Sb  Sb84  1  0.00006486  0.49634659  0.83293513  1
  Sb  Sb85  1  0.83827714  0.16914606  0.66307999  1
  Sb  Sb86  1  0.50483866  0.82361530  0.66777533  1
  Sb  Sb87  1  0.83113672  0.83995886  -0.00008905  1
  Sb  Sb88  1  -0.00403990  -0.00114326  0.33800340  1
  Sb  Sb89  1  -0.00000707  0.33982470  0.33243072  1
  Sb  Sb90  1  0.16034034  0.17475220  0.33182552  1
  Sb  Sb91  1  0.50714473  0.83311194  0.33205507  1
  Sb  Sb92  1  -0.00365516  0.66348096  0.00537501  1
  Sb  Sb93  1  0.15879539  0.00750633  0.15989408  1
  Sb  Sb94  1  0.33650489  0.66385835  -0.00327252  1
  Sb  Sb95  1  0.82981602  0.66007566  0.16990390  1
  Sb  Sb96  1  0.00337059  0.66651137  0.66170528  1
  Sb  Sb97  1  0.16736894  0.33766513  0.49915122  1
  Sb  Sb98  1  -0.00470461  0.83139352  0.50355689  1
  Sb  Sb99  1  0.33847343  0.83106080  0.16306820  1
  Sb  Sb100  1  0.00057319  0.00415436  -0.00656140  1
  Sb  Sb101  1  0.00053316  0.33010908  0.66489827  1
  Sb  Sb102  1  0.33200826  0.17046425  0.16569585  1
  Sb  Sb103  1  0.33094579  0.00978223  0.33056293  1
  Sb  Sb104  1  -0.00776308  0.83154740  0.16426455  1
  Sb  Sb105  1  0.66425813  0.65731586  0.66438532  1
  Sb  Sb106  1  0.83211208  0.67027206  0.83214768  1
  Sb  Sb107  1  0.49684557  0.33604919  0.83636640  1
  Te  Te108  1  0.16179198  0.17161998  0.16279232  1
  Te  Te109  1  0.16661772  0.16744568  0.49919264  1
  Te  Te110  1  0.16669767  0.16806228  0.83468429  1
  Te  Te111  1  0.17054019  0.49776474  0.16661821  1
  Te  Te112  1  0.16627627  0.50000058  0.50033836  1
  Te  Te113  1  0.16734911  0.49643306  0.83575346  1
  Te  Te114  1  0.16570508  0.83315220  0.16619667  1
  Te  Te115  1  0.16489562  0.82794571  0.49994660  1
  Te  Te116  1  0.17004546  0.83348931  0.83368639  1
  Te  Te117  1  0.50173373  0.17157755  0.17184457  1
  Te  Te118  1  0.49562967  0.16636281  0.49474650  1
  Te  Te119  1  0.49613666  0.16696021  0.83360029  1
  Te  Te120  1  0.49921793  0.49792220  0.16686807  1
  Te  Te121  1  0.49776937  0.50109775  0.49962566  1
  Te  Te122  1  0.50198092  0.49974182  0.83238215  1
  Te  Te123  1  0.50910235  0.83238163  0.16717494  1
  Te  Te124  1  0.50177544  0.82623295  0.49956809  1
  Te  Te125  1  0.50305187  0.83183362  0.83262945  1
  Te  Te126  1  0.83372930  0.17065039  0.16930917  1
  Te  Te127  1  0.83430865  0.16978447  0.50293369  1
  Te  Te128  1  0.83495587  0.16223326  0.83055338  1
  Te  Te129  1  0.83437917  0.49409621  0.16876702  1
  Te  Te130  1  0.83306221  0.49704334  0.49771582  1
  Te  Te131  1  0.83123599  0.49944525  0.83278683  1
  Te  Te132  1  0.82898302  0.83266299  0.16892616  1
  Te  Te133  1  0.83336347  0.84043743  0.49964708  1
  Te  Te134  1  0.83227768  0.83685222  0.83301716  1
  Te  Te135  1  0.17072862  0.00158741  -0.00506451  1
  Te  Te136  1  0.16470858  -0.00382228  0.33191644  1
  Te  Te137  1  0.15987000  0.00445027  0.67227256  1
  Te  Te138  1  0.16693756  0.33350788  0.00024123  1
  Te  Te139  1  0.17223329  0.33959003  0.32997557  1
  Te  Te140  1  0.17102388  0.32878407  0.66835322  1
  Te  Te141  1  0.16622989  0.66235650  0.00528961  1
  Te  Te142  1  0.16828234  0.65973057  0.33298432  1
  Te  Te143  1  0.17167820  0.66781618  0.66322192  1
  Te  Te144  1  0.49272607  0.00034474  0.00076487  1
  Te  Te145  1  0.49951770  0.00889016  0.33307867  1
  Te  Te146  1  0.50172184  -0.00137112  0.66570566  1
  Te  Te147  1  0.50456350  0.33923418  0.00601299  1
  Te  Te148  1  0.49269876  0.32937754  0.32765790  1
  Te  Te149  1  0.49964769  0.34026078  0.66738854  1
  Te  Te150  1  0.50446006  0.65957477  0.00614775  1
  Te  Te151  1  0.50309895  0.66738394  0.33132299  1
  Te  Te152  1  0.49518819  0.65872266  0.66160308  1
  Te  Te153  1  0.83195882  0.00720790  -0.00051578  1
  Te  Te154  1  0.83447837  0.00141854  0.33414149  1
  Te  Te155  1  0.83680615  -0.00155174  0.66854699  1
  Te  Te156  1  0.82793068  0.32654693  0.00029228  1
  Te  Te157  1  0.83402876  0.33437496  0.33423154  1
  Te  Te158  1  0.83031514  0.33858548  0.66554081  1
  Te  Te159  1  0.82601059  0.66695672  0.00040847  1
  Te  Te160  1  0.83145301  0.66445544  0.33439523  1
  Te  Te161  1  0.83448074  0.66791123  0.66438308  1
  Te  Te162  1  0.00041641  0.16644474  0.00167814  1
  Te  Te163  1  -0.00590174  0.16505691  0.33456359  1
  Te  Te164  1  0.00371468  0.16549805  0.66526789  1
  Te  Te165  1  0.00576545  0.49986899  0.00267446  1
  Te  Te166  1  -0.00111743  0.50216262  0.33260192  1
  Te  Te167  1  -0.00553909  0.49977765  0.66336521  1
  Te  Te168  1  -0.00047472  0.83236410  -0.00877660  1
  Te  Te169  1  -0.00747657  0.82507290  0.33323296  1
  Te  Te170  1  -0.00505925  0.83539967  0.67115763  1
  Te  Te171  1  0.33165729  0.16622658  -0.00347163  1
  Te  Te172  1  0.32785774  0.17270069  0.33782013  1
  Te  Te173  1  0.32971332  0.17107935  0.66602890  1
  Te  Te174  1  0.33421810  0.50023260  -0.00673702  1
  Te  Te175  1  0.33235809  0.49639618  0.33963476  1
  Te  Te176  1  0.33075316  0.49699185  0.66636572  1
  Te  Te177  1  0.33489419  0.83569180  -0.00673921  1
  Te  Te178  1  0.33391837  0.83626179  0.33392410  1
  Te  Te179  1  0.33532756  0.83519879  0.67268352  1
  Te  Te180  1  0.66756941  0.17196648  0.00370219  1
  Te  Te181  1  0.67089429  0.16605456  0.33307654  1
  Te  Te182  1  0.66323145  0.17356539  0.66353508  1
  Te  Te183  1  0.66751482  0.49740363  0.00059571  1
  Te  Te184  1  0.66781105  0.50220410  0.33249611  1
  Te  Te185  1  0.66645361  0.49822788  0.66481846  1
  Te  Te186  1  0.66624016  0.83302874  -0.00142676  1
  Te  Te187  1  0.67232928  0.82836061  0.33144865  1
  Te  Te188  1  0.67215268  0.83279015  0.67076826  1
  Te  Te189  1  -0.00760714  0.00091462  0.16679843  1
  Te  Te190  1  -0.00442521  0.00346822  0.50582422  1
  Te  Te191  1  -0.00008587  0.00234539  0.83171383  1
  Te  Te192  1  0.00105668  0.33505852  0.16677424  1
  Te  Te193  1  -0.00369640  0.33410442  0.49958011  1
  Te  Te194  1  0.00637909  0.32703773  0.83286062  1
  Te  Te195  1  0.00432404  0.66377860  0.17113094  1
  Te  Te196  1  0.00405369  0.66185402  0.49538213  1
  Te  Te197  1  0.00105275  0.67004752  0.83308647  1
  Te  Te198  1  0.33235595  -0.00080322  0.16113791  1
  Te  Te199  1  0.33317722  0.00334587  0.50025921  1
  Te  Te200  1  0.33306786  0.00041833  0.83487733  1
  Te  Te201  1  0.32721195  0.33265181  0.16765955  1
  Te  Te202  1  0.33384500  0.33431743  0.50201670  1
  Te  Te203  1  0.33124817  0.33417896  0.83209297  1
  Te  Te204  1  0.33196799  0.66825071  0.16668905  1
  Te  Te205  1  0.33340214  0.66487041  0.50416139  1
  Te  Te206  1  0.33410461  0.66480277  0.82852761  1
  Te  Te207  1  0.67255513  -0.00061955  0.16567767  1
  Te  Te208  1  0.67270700  0.00477350  0.50041884  1
  Te  Te209  1  0.66898740  -0.00290805  0.83419748  1
  Te  Te210  1  0.66814054  0.33665824  0.16882608  1
  Te  Te211  1  0.66771415  0.33517936  0.50079965  1
  Te  Te212  1  0.66669742  0.33800825  0.82874714  1
  Te  Te213  1  0.66667279  0.66163752  0.16759199  1
  Te  Te214  1  0.66379120  0.66084152  0.49650485  1
  Te  Te215  1  0.66546435  0.66391962  0.83450811  1
