# generated using pymatgen
data_AgSbTe2
_symmetry_space_group_name_H-M   'P 1'
_cell_length_a   18.34349519
_cell_length_b   18.34168388
_cell_length_c   18.34770981
_cell_angle_alpha   89.99887142
_cell_angle_beta   90.00238063
_cell_angle_gamma   90.00018648
_symmetry_Int_Tables_number   1
_chemical_formula_structural   AgSbTe2
_chemical_formula_sum   'Ag54 Sb54 Te108'
_cell_volume   6173.09778269
_cell_formula_units_Z   54
loop_
 _symmetry_equiv_pos_site_id
 _symmetry_equiv_pos_as_xyz
  1  'x, y, z'
loop_
 _atom_site_type_symbol
 _atom_site_label
 _atom_site_symmetry_multiplicity
 _atom_site_fract_x
 _atom_site_fract_y
 _atom_site_fract_z
 _atom_site_occupancy
  Ag  Ag0  1  0.49975424  0.83507488  -0.00133825  1
  Ag  Ag1  1  0.83168525  0.67576770  0.17215501  1
  Ag  Ag2  1  0.33866747  0.33037808  0.00711912  1
  Ag  Ag3  1  0.83630546  0.83903712  0.33645943  1
  Ag  Ag4  1  0.65673253  0.32357205  0.00357380  1
  Ag  Ag5  1  0.00357226  0.49641509  0.16761568  1
  Ag  Ag6  1  0.00179473  0.83549405  0.83135011  1
  Ag  Ag7  1  0.17970241  0.16218556  0.33124482  1
  Ag  Ag8  1  0.49993771  0.16975036  0.65079657  1
  Ag  Ag9  1  0.82589948  0.67889755  0.49073056  1
  Ag  Ag10  1  0.33982365  0.66678573  0.33363869  1
  Ag  Ag11  1  0.65575221  0.16402802  0.48409253  1
  Ag  Ag12  1  0.33361289  0.48717835  0.17155691  1
  Ag  Ag13  1  0.49621796  0.32330646  0.50032715  1
  Ag  Ag14  1  0.49952598  0.48614560  -0.00190756  1
  Ag  Ag15  1  0.49867910  0.49051365  0.66858522  1
  Ag  Ag16  1  0.18017806  0.32991750  0.48756850  1
  Ag  Ag17  1  0.33844480  0.16907540  0.17379551  1
  Ag  Ag18  1  0.66345456  0.00070625  0.33278824  1
  Ag  Ag19  1  0.50420610  0.01182911  0.49286944  1
  Ag  Ag20  1  0.66793843  0.83931198  0.83707042  1
  Ag  Ag21  1  0.81896694  0.32877462  0.83663559  1
  Ag  Ag22  1  0.33893775  0.01137126  0.33318787  1
  Ag  Ag23  1  0.17212363  0.32896347  0.16812993  1
  Ag  Ag24  1  -0.00060971  0.15971596  0.16791541  1
  Ag  Ag25  1  -0.00015411  -0.00509398  0.65725940  1
  Ag  Ag26  1  0.17732145  0.32834775  0.83702187  1
  Ag  Ag27  1  0.49453829  0.16430372  0.33452033  1
  Ag  Ag28  1  0.83143006  -0.00132626  0.17259977  1
  Ag  Ag29  1  0.17548086  0.67865709  0.83527519  1
  Ag  Ag30  1  0.81934468  0.16777488  0.00331687  1
  Ag  Ag31  1  0.34057716  0.17067357  0.83752682  1
  Ag  Ag32  1  0.84038524  0.83548107  0.65584304  1
  Ag  Ag33  1  0.49838206  0.32348054  0.83901660  1
  Ag  Ag34  1  0.83062298  -0.00301715  0.49020392  1
  Ag  Ag35  1  0.66252624  0.66676713  0.00318762  1
  Ag  Ag36  1  0.50428915  0.00574691  0.17321298  1
  Ag  Ag37  1  0.33825834  0.48609355  0.49120634  1
  Ag  Ag38  1  0.50149652  0.17002752  0.00365634  1
  Ag  Ag39  1  0.65712429  0.16524664  0.84187954  1
  Ag  Ag40  1  0.16073638  0.84100721  0.33245107  1
  Ag  Ag41  1  0.16625191  -0.00380076  0.83189794  1
  Ag  Ag42  1  0.66234140  0.67144147  0.33124726  1
  Ag  Ag43  1  -0.00415267  0.83616248  0.49756919  1
  Ag  Ag44  1  0.16854158  0.83346221  -0.00480372  1
  Ag  Ag45  1  0.33814745  0.32300891  0.33068544  1
  Ag  Ag46  1  -0.00425243  -0.00246211  0.33342735  1
  Ag  Ag47  1  0.34528246  0.17028021  0.48545733  1
  Ag  Ag48  1  0.50162747  0.66496271  0.49441620  1
  Ag  Ag49  1  0.65702511  0.31741531  0.32757569  1
  Ag  Ag50  1  0.15978601  0.83614217  0.67437280  1
  Ag  Ag51  1  0.65582493  0.16609312  0.16837996  1
  Ag  Ag52  1  -0.00127453  0.83853427  0.17494078  1
  Ag  Ag53  1  0.49910872  0.66445611  0.83551528  1
  Sb  Sb54  1  0.66255017  0.49519119  0.16683221  1
  Sb  Sb55  1  0.17300979  0.50222719  0.66658982  1
  Sb  Sb56  1  0.00108382  -0.00119584  0.00456411  1
  Sb  Sb57  1  0.83522173  0.00116973  0.83458242  1
  Sb  Sb58  1  0.50106950  0.83916278  0.33132974  1
  Sb  Sb59  1  0.82801729  0.16109450  0.67077679  1
  Sb  Sb60  1  0.17062642  0.49696667  0.33162207  1
  Sb  Sb61  1  0.00113973  0.32393588  0.66681637  1
  Sb  Sb62  1  0.49702340  0.49177090  0.33155233  1
  Sb  Sb63  1  0.82660381  0.49640116  0.00212018  1
  Sb  Sb64  1  0.33513451  0.00628522  0.00513242  1
  Sb  Sb65  1  0.50050264  0.83668279  0.66947633  1
  Sb  Sb66  1  0.66209738  0.49657153  0.83586400  1
  Sb  Sb67  1  0.50410940  0.67148731  0.16693735  1
  Sb  Sb68  1  0.82819179  0.66813359  0.83508051  1
  Sb  Sb69  1  0.17002449  0.66814621  0.50055561  1
  Sb  Sb70  1  0.67057145  0.83747226  0.49940318  1
  Sb  Sb71  1  0.66445009  0.66981627  0.66503811  1
  Sb  Sb72  1  -0.00105116  0.67698332  0.33181030  1
  Sb  Sb73  1  0.17112564  0.16532350  0.00402375  1
  Sb  Sb74  1  0.33203285  0.83785017  0.83477135  1
  Sb  Sb75  1  0.66210132  0.32966901  0.66989247  1
  Sb  Sb76  1  0.83304858  0.50634351  0.33188086  1
  Sb  Sb77  1  0.16408933  0.66639643  0.16442641  1
  Sb  Sb78  1  0.66928196  0.00052903  0.66163787  1
  Sb  Sb79  1  0.16603180  0.00397531  0.16846533  1
  Sb  Sb80  1  0.33153300  0.83805620  0.49683660  1
  Sb  Sb81  1  0.49314500  0.32542779  0.16448025  1
  Sb  Sb82  1  0.66481220  0.00425795  0.00560941  1
  Sb  Sb83  1  0.17190055  0.16363939  0.66471077  1
  Sb  Sb84  1  0.00261177  0.50348771  0.83734165  1
  Sb  Sb85  1  -0.00440785  0.66969394  0.00188844  1
  Sb  Sb86  1  0.32945413  0.83716882  0.16847028  1
  Sb  Sb87  1  0.82654054  0.32765217  0.50061737  1
  Sb  Sb88  1  0.49742091  0.00507511  0.83314672  1
  Sb  Sb89  1  0.83533407  0.32812831  0.16471206  1
  Sb  Sb90  1  0.33504224  0.33166407  0.66144596  1
  Sb  Sb91  1  0.83276631  0.83777978  0.00302235  1
  Sb  Sb92  1  0.33144223  0.00310381  0.66162283  1
  Sb  Sb93  1  0.00176735  0.33225013  0.00065714  1
  Sb  Sb94  1  0.33734636  0.49382560  0.83468294  1
  Sb  Sb95  1  0.67015638  0.83827205  0.16522615  1
  Sb  Sb96  1  0.00025854  0.67589920  0.66683673  1
  Sb  Sb97  1  0.65809527  0.49539542  0.49743167  1
  Sb  Sb98  1  0.00482306  0.50575996  0.49455993  1
  Sb  Sb99  1  -0.00004547  0.15964363  0.49326367  1
  Sb  Sb100  1  0.00161189  0.16234663  0.83853994  1
  Sb  Sb101  1  0.16730165  0.00240244  0.49793205  1
  Sb  Sb102  1  0.33588922  0.66723425  0.66315920  1
  Sb  Sb103  1  0.00254424  0.32485079  0.33126525  1
  Sb  Sb104  1  0.17311556  0.50143737  0.00116888  1
  Sb  Sb105  1  0.82727746  0.15868182  0.32722968  1
  Sb  Sb106  1  0.34021941  0.66223376  0.00386116  1
  Sb  Sb107  1  0.82828510  0.50479431  0.66580118  1
  Te  Te108  1  0.16687945  0.16810787  0.16899438  1
  Te  Te109  1  0.16804083  0.17061019  0.49723200  1
  Te  Te110  1  0.16674593  0.16846393  0.83337752  1
  Te  Te111  1  0.16781922  0.49670244  0.16546784  1
  Te  Te112  1  0.17307452  0.49424188  0.50117254  1
  Te  Te113  1  0.16795518  0.49550633  0.83276844  1
  Te  Te114  1  0.16142734  0.83411851  0.16813117  1
  Te  Te115  1  0.16202190  0.83325792  0.49591091  1
  Te  Te116  1  0.16821732  0.83545523  0.83402093  1
  Te  Te117  1  0.49881611  0.16456383  0.16611560  1
  Te  Te118  1  0.50047885  0.16775311  0.49529302  1
  Te  Te119  1  0.50067827  0.16575036  0.84521703  1
  Te  Te120  1  0.49542427  0.50366676  0.16150380  1
  Te  Te121  1  0.49598750  0.50712969  0.49869528  1
  Te  Te122  1  0.49931976  0.50410347  0.83336362  1
  Te  Te123  1  0.50002213  0.84170030  0.16246161  1
  Te  Te124  1  0.50069127  0.82526196  0.50243345  1
  Te  Te125  1  0.50193484  0.83441376  0.83449856  1
  Te  Te126  1  0.83825406  0.16380735  0.16318074  1
  Te  Te127  1  0.83089939  0.16069736  0.50280844  1
  Te  Te128  1  0.83318071  0.16967767  0.83840541  1
  Te  Te129  1  0.83765252  0.50255403  0.16598496  1
  Te  Te130  1  0.83450204  0.50351135  0.50116848  1
  Te  Te131  1  0.83448026  0.49270947  0.83275545  1
  Te  Te132  1  0.83669727  0.83602780  0.16763715  1
  Te  Te133  1  0.83267903  0.83625034  0.49839587  1
  Te  Te134  1  0.83394195  0.83285894  0.83517816  1
  Te  Te135  1  0.16832015  -0.00553722  -0.00545473  1
  Te  Te136  1  0.16854417  0.00077727  0.33333216  1
  Te  Te137  1  0.16316148  -0.00323407  0.66861920  1
  Te  Te138  1  0.17151158  0.33382424  0.00047844  1
  Te  Te139  1  0.16909795  0.33033023  0.33083838  1
  Te  Te140  1  0.16563277  0.33324005  0.67413990  1
  Te  Te141  1  0.16825877  0.67043313  -0.00434752  1
  Te  Te142  1  0.17033320  0.67049643  0.33336668  1
  Te  Te143  1  0.16768170  0.67102191  0.67287963  1
  Te  Te144  1  0.49907989  -0.00430426  0.00191848  1
  Te  Te145  1  0.50042556  0.00007598  0.33367093  1
  Te  Te146  1  0.49984976  0.00521859  0.65938449  1
  Te  Te147  1  0.50006517  0.33087203  0.00079133  1
  Te  Te148  1  0.49963697  0.33026116  0.33723711  1
  Te  Te149  1  0.50058507  0.33142586  0.66633769  1
  Te  Te150  1  0.50316457  0.67627856  -0.00106138  1
  Te  Te151  1  0.50099293  0.67001868  0.33304638  1
  Te  Te152  1  0.50008797  0.66764452  0.67324921  1
  Te  Te153  1  0.83338735  0.00615968  0.00597634  1
  Te  Te154  1  0.83308027  -0.00098309  0.33272727  1
  Te  Te155  1  0.83804246  -0.00554160  0.66724108  1
  Te  Te156  1  0.83110786  0.32938242  -0.00334338  1
  Te  Te157  1  0.82802405  0.33530691  0.33504370  1
  Te  Te158  1  0.83275780  0.33420306  0.67279981  1
  Te  Te159  1  0.82494143  0.66557838  0.00325942  1
  Te  Te160  1  0.83305667  0.67196100  0.33225195  1
  Te  Te161  1  0.83254304  0.67307133  0.66357382  1
  Te  Te162  1  -0.00047274  0.16658681  0.00745464  1
  Te  Te163  1  0.00106344  0.15976563  0.32823706  1
  Te  Te164  1  -0.00083009  0.15627590  0.66636304  1
  Te  Te165  1  -0.00031024  0.50097697  0.00720777  1
  Te  Te166  1  0.00127819  0.49866631  0.32683943  1
  Te  Te167  1  -0.00072377  0.49952842  0.66552449  1
  Te  Te168  1  0.00346768  0.83327587  -0.00447031  1
  Te  Te169  1  -0.00102084  0.83767442  0.33448790  1
  Te  Te170  1  0.00046514  0.83750087  0.66769281  1
  Te  Te171  1  0.33572937  0.17099080  -0.00170574  1
  Te  Te172  1  0.33459109  0.16740071  0.33065256  1
  Te  Te173  1  0.33950380  0.16621001  0.67687922  1
  Te  Te174  1  0.33976121  0.49477339  0.00532588  1
  Te  Te175  1  0.33395517  0.50453027  0.33177987  1
  Te  Te176  1  0.34036825  0.50065869  0.65783458  1
  Te  Te177  1  0.33193898  0.83292722  0.00097415  1
  Te  Te178  1  0.32871359  0.82854760  0.33309677  1
  Te  Te179  1  0.32478727  0.83492063  0.66598358  1
  Te  Te180  1  0.66324227  0.16675282  0.00222191  1
  Te  Te181  1  0.66598686  0.16175322  0.32851112  1
  Te  Te182  1  0.66067855  0.16565995  0.67471600  1
  Te  Te183  1  0.65925082  0.50225297  0.00128956  1
  Te  Te184  1  0.66553578  0.51155219  0.33199034  1
  Te  Te185  1  0.65807449  0.50048404  0.66571626  1
  Te  Te186  1  0.66580119  0.83163204  -0.00226471  1
  Te  Te187  1  0.67077985  0.83281505  0.33232199  1
  Te  Te188  1  0.66948957  0.83468268  0.67702018  1
  Te  Te189  1  0.00008869  -0.00134883  0.17005371  1
  Te  Te190  1  -0.00061675  -0.00397938  0.49690216  1
  Te  Te191  1  0.00306643  -0.00458935  0.83441144  1
  Te  Te192  1  0.00588293  0.33413561  0.16684033  1
  Te  Te193  1  0.00085936  0.33475797  0.50039025  1
  Te  Te194  1  0.00595801  0.33391269  0.83304185  1
  Te  Te195  1  -0.00449865  0.67106503  0.16611141  1
  Te  Te196  1  -0.00291706  0.67197433  0.49948052  1
  Te  Te197  1  0.00171838  0.67142547  0.83431364  1
  Te  Te198  1  0.33572113  0.00499582  0.17221536  1
  Te  Te199  1  0.33773442  0.00604265  0.49438915  1
  Te  Te200  1  0.32868020  0.00594759  0.83313869  1
  Te  Te201  1  0.33214109  0.33069607  0.16953286  1
  Te  Te202  1  0.33600170  0.33000815  0.49797965  1
  Te  Te203  1  0.33768876  0.33188530  0.83408826  1
  Te  Te204  1  0.33228594  0.66578359  0.17210624  1
  Te  Te205  1  0.33638647  0.66804855  0.49613412  1
  Te  Te206  1  0.33474576  0.66553625  0.83480288  1
  Te  Te207  1  0.66807484  0.00391453  0.17103611  1
  Te  Te208  1  0.66643885  0.00259499  0.49585454  1
  Te  Te209  1  0.66647987  0.00156998  0.83316875  1
  Te  Te210  1  0.66996757  0.32918008  0.16717858  1
  Te  Te211  1  0.66183240  0.32754146  0.49464241  1
  Te  Te212  1  0.66081989  0.33062816  0.83717687  1
  Te  Te213  1  0.67055540  0.66616384  0.16736383  1
  Te  Te214  1  0.66680792  0.66626300  0.49746209  1
  Te  Te215  1  0.66354931  0.66755379  0.83685318  1
