# generated using pymatgen
data_AgSbTe2
_symmetry_space_group_name_H-M   'P 1'
_cell_length_a   18.35139889
_cell_length_b   18.35469462
_cell_length_c   18.35403737
_cell_angle_alpha   89.99846886
_cell_angle_beta   90.00194331
_cell_angle_gamma   90.00053266
_symmetry_Int_Tables_number   1
_chemical_formula_structural   AgSbTe2
_chemical_formula_sum   'Ag54 Sb54 Te108'
_cell_volume   6182.26973543
_cell_formula_units_Z   54
loop_
 _symmetry_equiv_pos_site_id
 _symmetry_equiv_pos_as_xyz
  1  'x, y, z'
loop_
 _atom_site_type_symbol
 _atom_site_label
 _atom_site_symmetry_multiplicity
 _atom_site_fract_x
 _atom_site_fract_y
 _atom_site_fract_z
 _atom_site_occupancy
  Ag  Ag0  1  0.00738342  0.16778842  0.50435633  1
  Ag  Ag1  1  0.33578618  -0.00230110  -0.00258397  1
  Ag  Ag2  1  0.17829048  0.00130007  0.50901876  1
  Ag  Ag3  1  0.01064196  0.32154084  0.66428754  1
  Ag  Ag4  1  0.33263230  0.84311253  0.15946876  1
  Ag  Ag5  1  0.66240460  0.67826398  -0.00140402  1
  Ag  Ag6  1  0.64913299  0.50100816  0.49758786  1
  Ag  Ag7  1  0.65735220  0.00425905  0.67368332  1
  Ag  Ag8  1  0.49452915  0.83677902  -0.00848016  1
  Ag  Ag9  1  0.33372807  0.15559523  0.83033980  1
  Ag  Ag10  1  0.49434571  0.32486634  0.49830911  1
  Ag  Ag11  1  0.49651697  0.00210922  0.16607597  1
  Ag  Ag12  1  0.33588892  0.84444995  0.50201238  1
  Ag  Ag13  1  0.49319351  0.68104706  0.82664385  1
  Ag  Ag14  1  0.33563211  0.83551842  0.83507626  1
  Ag  Ag15  1  -0.00406390  0.00513243  0.66933280  1
  Ag  Ag16  1  0.33597936  0.32134342  0.33653428  1
  Ag  Ag17  1  0.33606521  0.00334389  0.33709977  1
  Ag  Ag18  1  0.83190000  0.16125293  0.34071928  1
  Ag  Ag19  1  0.65363894  0.50065074  0.17002496  1
  Ag  Ag20  1  0.33163413  0.33487946  0.66127088  1
  Ag  Ag21  1  0.49352036  0.16300816  0.66290339  1
  Ag  Ag22  1  0.33354480  0.32645349  0.00433744  1
  Ag  Ag23  1  0.83305726  0.84226740  0.33173734  1
  Ag  Ag24  1  0.49739199  0.84467608  0.67609443  1
  Ag  Ag25  1  0.33115143  0.50504220  0.82741954  1
  Ag  Ag26  1  0.83918008  0.16417711  0.66434283  1
  Ag  Ag27  1  0.33269861  0.49767216  0.50430265  1
  Ag  Ag28  1  0.18113084  0.16291369  0.33680367  1
  Ag  Ag29  1  0.33393659  0.49571183  0.16710434  1
  Ag  Ag30  1  0.17340492  0.50795153  -0.00709979  1
  Ag  Ag31  1  0.82003765  -0.00106198  0.17157490  1
  Ag  Ag32  1  0.33574903  0.67042498  0.34209719  1
  Ag  Ag33  1  0.65173269  0.84062812  0.83675794  1
  Ag  Ag34  1  0.17736976  0.67855603  0.83410183  1
  Ag  Ag35  1  0.18071625  -0.00283391  0.82879381  1
  Ag  Ag36  1  0.33579098  0.66190121  0.66525273  1
  Ag  Ag37  1  0.49782989  0.00157716  0.50483271  1
  Ag  Ag38  1  0.17708781  0.83202548  -0.00475301  1
  Ag  Ag39  1  0.49819126  -0.00276601  0.83090832  1
  Ag  Ag40  1  0.00536774  0.15692876  0.82234923  1
  Ag  Ag41  1  0.65193027  0.15703251  0.82846503  1
  Ag  Ag42  1  0.65278562  0.00064648  0.33352383  1
  Ag  Ag43  1  0.65481849  -0.00287367  -0.00963896  1
  Ag  Ag44  1  0.00779812  0.50139787  0.17073209  1
  Ag  Ag45  1  0.49291031  0.32258159  0.17161093  1
  Ag  Ag46  1  0.49601412  0.16256741  0.34175413  1
  Ag  Ag47  1  0.17291785  0.50062233  0.66798764  1
  Ag  Ag48  1  0.49333474  0.66957646  0.50480783  1
  Ag  Ag49  1  0.33630419  0.16196570  0.17929437  1
  Ag  Ag50  1  0.00701294  0.83728679  0.16155611  1
  Ag  Ag51  1  0.01186624  0.49409005  0.50142395  1
  Ag  Ag52  1  0.01056664  0.83972786  0.83365639  1
  Ag  Ag53  1  0.33388811  0.16229109  0.49468826  1
  Sb  Sb54  1  0.49332550  0.32673784  0.83256061  1
  Sb  Sb55  1  0.33682474  0.67078067  -0.00576115  1
  Sb  Sb56  1  0.83043328  0.33046906  0.50059614  1
  Sb  Sb57  1  0.65916178  0.32786437  0.33427318  1
  Sb  Sb58  1  0.33709314  0.00113205  0.66640389  1
  Sb  Sb59  1  0.49692064  0.84309095  0.33323267  1
  Sb  Sb60  1  0.82739171  0.00039122  0.83623479  1
  Sb  Sb61  1  0.66180452  0.83578565  0.16357054  1
  Sb  Sb62  1  0.82784793  0.32899782  0.16817246  1
  Sb  Sb63  1  0.17649689  0.66894255  0.50509373  1
  Sb  Sb64  1  0.17277417  0.16286990  0.00094370  1
  Sb  Sb65  1  0.17273436  0.32795374  0.83030493  1
  Sb  Sb66  1  0.00390245  0.16452776  0.16942633  1
  Sb  Sb67  1  0.01250671  0.50024041  0.83096719  1
  Sb  Sb68  1  0.00580936  0.33227139  0.33844122  1
  Sb  Sb69  1  0.65750936  0.83396509  0.50212538  1
  Sb  Sb70  1  0.83222272  0.49797974  0.33344291  1
  Sb  Sb71  1  0.17809072  0.83328311  0.67377649  1
  Sb  Sb72  1  0.00501386  -0.00083510  -0.00462398  1
  Sb  Sb73  1  0.00968940  0.33442537  -0.00341492  1
  Sb  Sb74  1  0.82701776  0.66631629  0.49938469  1
  Sb  Sb75  1  0.83230058  0.67185012  0.16744006  1
  Sb  Sb76  1  0.49500984  0.67065155  0.16679273  1
  Sb  Sb77  1  0.49304890  0.49803271  0.66393367  1
  Sb  Sb78  1  0.49530100  0.15676472  -0.00220544  1
  Sb  Sb79  1  0.83202332  0.83683127  0.00257965  1
  Sb  Sb80  1  0.49632203  0.49492680  0.33484589  1
  Sb  Sb81  1  0.83009966  0.66961014  0.83289178  1
  Sb  Sb82  1  0.83555318  0.50033422  0.00222635  1
  Sb  Sb83  1  0.83275549  0.16251560  -0.00232744  1
  Sb  Sb84  1  0.00592584  0.66683718  0.33410964  1
  Sb  Sb85  1  0.65828115  0.16367221  0.16576233  1
  Sb  Sb86  1  0.17147343  0.16404125  0.66299869  1
  Sb  Sb87  1  0.17379239  0.49655871  0.33562938  1
  Sb  Sb88  1  0.83932130  0.49264594  0.66543999  1
  Sb  Sb89  1  0.00760524  0.83824831  0.50158918  1
  Sb  Sb90  1  0.65428600  0.32899930  0.00101099  1
  Sb  Sb91  1  0.83493188  0.32973161  0.83151271  1
  Sb  Sb92  1  0.17633776  0.32788189  0.50219018  1
  Sb  Sb93  1  0.00759981  0.66873462  0.66719705  1
  Sb  Sb94  1  0.17132502  0.66662046  0.16184876  1
  Sb  Sb95  1  0.82906100  0.00215093  0.49593642  1
  Sb  Sb96  1  0.17539944  -0.00089641  0.16555884  1
  Sb  Sb97  1  0.65896406  0.67038017  0.33092566  1
  Sb  Sb98  1  0.66120771  0.32783991  0.66531341  1
  Sb  Sb99  1  0.65892030  0.16569313  0.50262262  1
  Sb  Sb100  1  0.17607496  0.33447033  0.16597754  1
  Sb  Sb101  1  0.65733833  0.67107569  0.66938124  1
  Sb  Sb102  1  0.00444562  0.00054733  0.33572411  1
  Sb  Sb103  1  0.65645627  0.50275405  0.83327767  1
  Sb  Sb104  1  0.49292531  0.50560074  0.00109689  1
  Sb  Sb105  1  0.82830374  0.84087259  0.66405219  1
  Sb  Sb106  1  -0.00134088  0.66801266  0.00014353  1
  Sb  Sb107  1  0.17075882  0.83855677  0.32906660  1
  Te  Te108  1  0.17299736  0.16720905  0.17108756  1
  Te  Te109  1  0.16909171  0.16255493  0.49739878  1
  Te  Te110  1  0.16892464  0.15885728  0.83514868  1
  Te  Te111  1  0.16720290  0.50059092  0.16771208  1
  Te  Te112  1  0.16987041  0.50260390  0.50226059  1
  Te  Te113  1  0.17162384  0.49806224  0.83349783  1
  Te  Te114  1  0.16802276  0.83250043  0.16033466  1
  Te  Te115  1  0.17413908  0.83939090  0.49946002  1
  Te  Te116  1  0.16879880  0.83606124  0.83424157  1
  Te  Te117  1  0.49553457  0.16544996  0.16598785  1
  Te  Te118  1  0.49905653  0.16550518  0.50120660  1
  Te  Te119  1  0.49632581  0.16258344  0.82975459  1
  Te  Te120  1  0.49771162  0.50238153  0.16738867  1
  Te  Te121  1  0.49414088  0.50134691  0.49965412  1
  Te  Te122  1  0.49401128  0.50080263  0.83364050  1
  Te  Te123  1  0.49395473  0.83802613  0.16394939  1
  Te  Te124  1  0.49464996  0.83497236  0.49981292  1
  Te  Te125  1  0.49753747  0.83584189  0.83330783  1
  Te  Te126  1  0.83399799  0.16046307  0.16777418  1
  Te  Te127  1  0.83684908  0.16658386  0.50190312  1
  Te  Te128  1  0.84267816  0.16728412  0.82890114  1
  Te  Te129  1  0.83867629  0.49895326  0.16727270  1
  Te  Te130  1  0.83892348  0.49905905  0.49969120  1
  Te  Te131  1  0.83234850  0.49968080  0.83340612  1
  Te  Te132  1  0.83476460  0.83789311  0.17017814  1
  Te  Te133  1  0.83485011  0.83282189  0.49389920  1
  Te  Te134  1  0.84170607  0.83250094  0.83151448  1
  Te  Te135  1  0.17178688  -0.00531639  -0.00708559  1
  Te  Te136  1  0.17231710  0.00463117  0.33626815  1
  Te  Te137  1  0.15730431  -0.00159505  0.66794311  1
  Te  Te138  1  0.17469830  0.34073872  -0.00186631  1
  Te  Te139  1  0.17333723  0.32598247  0.33376114  1
  Te  Te140  1  0.16713710  0.34114070  0.66647663  1
  Te  Te141  1  0.16251892  0.66884503  -0.00647919  1
  Te  Te142  1  0.17503585  0.66699189  0.33358128  1
  Te  Te143  1  0.17255310  0.66253291  0.67309577  1
  Te  Te144  1  0.49732840  -0.00176605  -0.00153057  1
  Te  Te145  1  0.49666218  0.00174782  0.33233159  1
  Te  Te146  1  0.50001851  0.00138078  0.66700357  1
  Te  Te147  1  0.49136469  0.33544394  0.00374871  1
  Te  Te148  1  0.49540433  0.32781810  0.33327533  1
  Te  Te149  1  0.49463007  0.32764972  0.66338954  1
  Te  Te150  1  0.50456341  0.67234078  -0.00110014  1
  Te  Te151  1  0.49529543  0.66774641  0.33865705  1
  Te  Te152  1  0.49587920  0.66571098  0.66666803  1
  Te  Te153  1  0.82677708  0.00029489  0.01062851  1
  Te  Te154  1  0.83980409  0.00032308  0.33073680  1
  Te  Te155  1  0.83398967  0.00573100  0.66448809  1
  Te  Te156  1  0.83339765  0.33254049  0.00079902  1
  Te  Te157  1  0.83211069  0.32663149  0.33216518  1
  Te  Te158  1  0.83756272  0.32491502  0.66635599  1
  Te  Te159  1  0.82367966  0.66630328  0.00000515  1
  Te  Te160  1  0.83273184  0.66972501  0.33370604  1
  Te  Te161  1  0.83169239  0.66599501  0.66540342  1
  Te  Te162  1  0.00175477  0.16831672  -0.00380462  1
  Te  Te163  1  -0.00695261  0.16818894  0.33657875  1
  Te  Te164  1  0.00691570  0.16553762  0.66509333  1
  Te  Te165  1  0.00633416  0.49999531  0.00427465  1
  Te  Te166  1  0.00072895  0.49937572  0.33295789  1
  Te  Te167  1  0.00516988  0.50183736  0.66167107  1
  Te  Te168  1  -0.00053905  0.83396603  0.00085145  1
  Te  Te169  1  -0.00178203  0.83191741  0.33006325  1
  Te  Te170  1  -0.00268732  0.83681377  0.66990588  1
  Te  Te171  1  0.33187988  0.16573642  -0.00999187  1
  Te  Te172  1  0.33853944  0.16430906  0.33563233  1
  Te  Te173  1  0.33429538  0.17207840  0.66936659  1
  Te  Te174  1  0.33035860  0.50527700  0.00550347  1
  Te  Te175  1  0.33373669  0.50216226  0.33063358  1
  Te  Te176  1  0.33343181  0.49787391  0.66640549  1
  Te  Te177  1  0.33443461  0.83364554  -0.00016601  1
  Te  Te178  1  0.33257352  0.83695225  0.33452005  1
  Te  Te179  1  0.33838212  0.82901429  0.66513916  1
  Te  Te180  1  0.66704389  0.16209694  -0.00659266  1
  Te  Te181  1  0.66946429  0.16030365  0.33308250  1
  Te  Te182  1  0.66486814  0.16432332  0.66846863  1
  Te  Te183  1  0.66774208  0.49767577  0.00174686  1
  Te  Te184  1  0.66756632  0.50142400  0.33297318  1
  Te  Te185  1  0.67049441  0.49906429  0.66317983  1
  Te  Te186  1  0.66591016  0.83661201  -0.00217625  1
  Te  Te187  1  0.67202661  0.83818382  0.33298896  1
  Te  Te188  1  0.66171085  0.83883709  0.67077064  1
  Te  Te189  1  0.00381949  -0.00324296  0.16444574  1
  Te  Te190  1  -0.00072058  0.00273966  0.50412305  1
  Te  Te191  1  -0.00772014  -0.00030807  0.83287444  1
  Te  Te192  1  -0.00176463  0.33644987  0.16632197  1
  Te  Te193  1  -0.00152036  0.33326250  0.50338375  1
  Te  Te194  1  0.00184885  0.33160266  0.82739350  1
  Te  Te195  1  -0.00013957  0.66589378  0.16817548  1
  Te  Te196  1  0.00003804  0.66351367  0.49949100  1
  Te  Te197  1  0.00051301  0.67010327  0.83311936  1
  Te  Te198  1  0.33470962  0.00188907  0.16515450  1
  Te  Te199  1  0.33551928  0.00228240  0.50172234  1
  Te  Te200  1  0.33637537  -0.00304285  0.83077094  1
  Te  Te201  1  0.33599797  0.33241886  0.16785065  1
  Te  Te202  1  0.33473740  0.33438482  0.49867607  1
  Te  Te203  1  0.33454436  0.33984667  0.83263967  1
  Te  Te204  1  0.33260108  0.66276840  0.17288651  1
  Te  Te205  1  0.33438511  0.65933274  0.50294861  1
  Te  Te206  1  0.33396300  0.66701273  0.83407995  1
  Te  Te207  1  0.66137680  -0.00016536  0.17242510  1
  Te  Te208  1  0.66102035  -0.00052057  0.49701368  1
  Te  Te209  1  0.66689269  0.00011763  0.83238014  1
  Te  Te210  1  0.65976401  0.33961375  0.16650871  1
  Te  Te211  1  0.65913275  0.34128353  0.49946716  1
  Te  Te212  1  0.66581541  0.32944210  0.83403924  1
  Te  Te213  1  0.66585769  0.66189748  0.16333788  1
  Te  Te214  1  0.65889952  0.66245014  0.50017493  1
  Te  Te215  1  0.66265341  0.66914855  0.83791810  1
