# generated using pymatgen
data_AgSbTe2
_symmetry_space_group_name_H-M   'P 1'
_cell_length_a   18.33289518
_cell_length_b   18.33075599
_cell_length_c   18.33160646
_cell_angle_alpha   89.99777036
_cell_angle_beta   89.99871017
_cell_angle_gamma   89.99804538
_symmetry_Int_Tables_number   1
_chemical_formula_structural   AgSbTe2
_chemical_formula_sum   'Ag54 Sb54 Te108'
_cell_volume   6160.44318012
_cell_formula_units_Z   54
loop_
 _symmetry_equiv_pos_site_id
 _symmetry_equiv_pos_as_xyz
  1  'x, y, z'
loop_
 _atom_site_type_symbol
 _atom_site_label
 _atom_site_symmetry_multiplicity
 _atom_site_fract_x
 _atom_site_fract_y
 _atom_site_fract_z
 _atom_site_occupancy
  Ag  Ag0  1  0.83648628  0.33679613  0.82762857  1
  Ag  Ag1  1  0.17101476  -0.00076759  0.17552460  1
  Ag  Ag2  1  0.83397824  -0.00652323  0.50276891  1
  Ag  Ag3  1  0.65581489  0.66363460  -0.01308898  1
  Ag  Ag4  1  0.49311975  0.50986041  0.66879821  1
  Ag  Ag5  1  0.00189359  0.33947982  0.33818656  1
  Ag  Ag6  1  0.49869914  0.33122514  0.17587455  1
  Ag  Ag7  1  0.00142904  0.49807875  0.82262309  1
  Ag  Ag8  1  0.16743586  0.83796325  0.34140089  1
  Ag  Ag9  1  0.49342214  0.50161790  -0.01432957  1
  Ag  Ag10  1  0.49449397  -0.00602527  0.82556337  1
  Ag  Ag11  1  0.33337902  0.33366023  0.33703507  1
  Ag  Ag12  1  0.49740486  0.66398475  0.82396300  1
  Ag  Ag13  1  0.16909851  0.16129161  0.33399175  1
  Ag  Ag14  1  0.00022770  0.33868490  -0.00437674  1
  Ag  Ag15  1  0.16320387  -0.00110922  0.50166263  1
  Ag  Ag16  1  0.17015916  0.50038725  -0.01204094  1
  Ag  Ag17  1  0.49720089  0.16910976  0.33759768  1
  Ag  Ag18  1  0.00035976  0.34190526  0.66244854  1
  Ag  Ag19  1  0.65894561  0.50276251  0.82893810  1
  Ag  Ag20  1  0.34198782  0.66759245  0.66831881  1
  Ag  Ag21  1  0.83131348  0.67370251  0.50163953  1
  Ag  Ag22  1  0.65629526  0.16579030  0.17230797  1
  Ag  Ag23  1  0.84030195  0.49892719  0.33601463  1
  Ag  Ag24  1  0.50215844  0.66284153  0.51104558  1
  Ag  Ag25  1  0.34159554  -0.01128118  0.67128320  1
  Ag  Ag26  1  0.49889454  0.16860851  0.66227046  1
  Ag  Ag27  1  0.67032473  0.83411671  0.50468352  1
  Ag  Ag28  1  0.49667894  0.82481259  0.66677093  1
  Ag  Ag29  1  0.33628430  0.16407648  0.17070503  1
  Ag  Ag30  1  0.33243647  0.83673408  0.16508505  1
  Ag  Ag31  1  0.00082182  0.66088337  0.66145838  1
  Ag  Ag32  1  -0.00087251  0.17238463  0.49826378  1
  Ag  Ag33  1  0.16935886  0.50532626  0.66989787  1
  Ag  Ag34  1  0.00069449  0.65959629  0.34317889  1
  Ag  Ag35  1  0.33773409  0.66667983  -0.01402848  1
  Ag  Ag36  1  0.33085148  0.66567302  0.33847013  1
  Ag  Ag37  1  0.83686446  0.83390231  0.34356018  1
  Ag  Ag38  1  0.83413064  0.16589981  0.33595384  1
  Ag  Ag39  1  0.34115337  0.33873991  0.66410726  1
  Ag  Ag40  1  0.65818635  0.33927154  0.66715587  1
  Ag  Ag41  1  0.65765565  -0.00730019  0.66378106  1
  Ag  Ag42  1  0.83042266  0.00002108  0.82162058  1
  Ag  Ag43  1  0.17896855  -0.00290799  0.82362808  1
  Ag  Ag44  1  -0.00176509  0.49777586  0.50402924  1
  Ag  Ag45  1  0.33762049  0.50661068  0.82844339  1
  Ag  Ag46  1  0.82303973  0.83340526  0.66155603  1
  Ag  Ag47  1  0.17254040  0.83142165  0.66277611  1
  Ag  Ag48  1  0.00149066  0.49847726  0.17665577  1
  Ag  Ag49  1  0.66944273  0.00324550  0.34540835  1
  Ag  Ag50  1  0.33257604  -0.00803923  -0.01222462  1
  Ag  Ag51  1  0.33447657  0.82939842  0.82736595  1
  Ag  Ag52  1  0.65526028  0.66753194  0.66735155  1
  Ag  Ag53  1  0.49951191  0.33647616  0.50587363  1
  Sb  Sb54  1  0.83502221  0.50458398  0.66319881  1
  Sb  Sb55  1  0.50158060  0.33863691  0.82613387  1
  Sb  Sb56  1  -0.00084438  0.00107094  0.33686096  1
  Sb  Sb57  1  0.83337193  0.66668124  0.17545732  1
  Sb  Sb58  1  0.50136802  0.49665796  0.33929118  1
  Sb  Sb59  1  0.49679966  0.83658653  0.34053602  1
  Sb  Sb60  1  0.49367043  0.00460826  0.16508634  1
  Sb  Sb61  1  0.82972857  0.16280118  0.66108462  1
  Sb  Sb62  1  0.16649051  0.33032690  0.50024124  1
  Sb  Sb63  1  0.33261186  0.16737295  0.49725218  1
  Sb  Sb64  1  0.83329007  0.16633107  0.00323704  1
  Sb  Sb65  1  0.66499606  0.16936573  0.83183938  1
  Sb  Sb66  1  0.16847683  0.66921926  0.16891050  1
  Sb  Sb67  1  0.00103227  -0.00199040  0.66456938  1
  Sb  Sb68  1  0.33385692  0.16534323  0.83262221  1
  Sb  Sb69  1  0.66792514  0.33832325  -0.00596447  1
  Sb  Sb70  1  0.66570434  0.32870106  0.33914447  1
  Sb  Sb71  1  0.49756450  0.66167778  0.16649806  1
  Sb  Sb72  1  0.00479942  0.82770606  0.82898934  1
  Sb  Sb73  1  0.17494234  0.66607933  0.82843714  1
  Sb  Sb74  1  0.49863538  0.17139142  -0.00077891  1
  Sb  Sb75  1  0.49633517  0.82624116  -0.00707200  1
  Sb  Sb76  1  0.00326448  0.17180497  0.17535220  1
  Sb  Sb77  1  0.66771423  0.49684314  0.16296645  1
  Sb  Sb78  1  0.83539517  0.50150702  -0.00094828  1
  Sb  Sb79  1  0.16344029  0.50113801  0.33761534  1
  Sb  Sb80  1  0.66081889  0.82994978  0.82362635  1
  Sb  Sb81  1  0.65939534  -0.00454562  -0.00561374  1
  Sb  Sb82  1  0.33382553  0.00083337  0.33698459  1
  Sb  Sb83  1  0.66954333  0.50396582  0.50615208  1
  Sb  Sb84  1  0.66602006  0.67062571  0.34085515  1
  Sb  Sb85  1  0.00468516  0.65746215  -0.00349672  1
  Sb  Sb86  1  0.66116407  0.83702672  0.17371992  1
  Sb  Sb87  1  0.17082693  0.16445107  0.66170476  1
  Sb  Sb88  1  0.33001098  0.50058598  0.16345915  1
  Sb  Sb89  1  0.32934220  0.50075792  0.50788049  1
  Sb  Sb90  1  0.66815929  0.16214326  0.49839986  1
  Sb  Sb91  1  0.00606667  0.82893869  0.17224779  1
  Sb  Sb92  1  -0.00550020  0.82942413  0.50127530  1
  Sb  Sb93  1  -0.00076505  0.17189468  0.82498853  1
  Sb  Sb94  1  0.83090939  0.83171250  -0.00657456  1
  Sb  Sb95  1  0.83099458  0.33307150  0.16686616  1
  Sb  Sb96  1  0.16530879  0.67152402  0.50266641  1
  Sb  Sb97  1  0.50054332  0.00003274  0.50616675  1
  Sb  Sb98  1  0.82832691  0.66542107  0.82355877  1
  Sb  Sb99  1  0.83659932  0.00049180  0.17332067  1
  Sb  Sb100  1  0.33568914  0.83322593  0.50526655  1
  Sb  Sb101  1  0.33138422  0.33697785  -0.00176083  1
  Sb  Sb102  1  0.16967883  0.33160160  0.16931967  1
  Sb  Sb103  1  0.00805191  0.00613062  -0.00404119  1
  Sb  Sb104  1  0.17007070  0.83035415  -0.00249000  1
  Sb  Sb105  1  0.16869911  0.16864076  0.00456746  1
  Sb  Sb106  1  0.83268866  0.33370403  0.50389444  1
  Sb  Sb107  1  0.16418163  0.33371912  0.83038617  1
  Te  Te108  1  0.17061286  0.16229573  0.17214140  1
  Te  Te109  1  0.16272092  0.16199439  0.49452485  1
  Te  Te110  1  0.16530508  0.15711698  0.83495901  1
  Te  Te111  1  0.16187416  0.50012923  0.16595181  1
  Te  Te112  1  0.15926295  0.49999461  0.50733453  1
  Te  Te113  1  0.16648044  0.49949412  0.82983685  1
  Te  Te114  1  0.17231208  0.83785129  0.16800603  1
  Te  Te115  1  0.16610739  0.83826304  0.50080203  1
  Te  Te116  1  0.17154708  0.83820995  0.83015330  1
  Te  Te117  1  0.49722634  0.17046169  0.16594265  1
  Te  Te118  1  0.50061518  0.17019553  0.49898902  1
  Te  Te119  1  0.50033073  0.16121753  0.82992399  1
  Te  Te120  1  0.50044071  0.49294216  0.16924034  1
  Te  Te121  1  0.50091203  0.50025977  0.50611245  1
  Te  Te122  1  0.49905597  0.50083323  0.82925799  1
  Te  Te123  1  0.49261311  0.83438298  0.16801009  1
  Te  Te124  1  0.50555928  0.82943875  0.50563999  1
  Te  Te125  1  0.49558436  0.83242062  0.82763637  1
  Te  Te126  1  0.83217007  0.16610569  0.17471066  1
  Te  Te127  1  0.83635610  0.16330950  0.49468113  1
  Te  Te128  1  0.83295726  0.16396070  0.83430871  1
  Te  Te129  1  0.83785951  0.49928951  0.17239094  1
  Te  Te130  1  0.83677378  0.50195162  0.49487534  1
  Te  Te131  1  0.83535992  0.49806038  0.83386531  1
  Te  Te132  1  0.83204429  0.83437335  0.17242330  1
  Te  Te133  1  0.83267555  0.83409308  0.50082094  1
  Te  Te134  1  0.83483013  0.83744243  0.82615237  1
  Te  Te135  1  0.17305024  0.00015044  -0.00183979  1
  Te  Te136  1  0.16645557  -0.00084378  0.33609400  1
  Te  Te137  1  0.16714027  -0.00059019  0.66514553  1
  Te  Te138  1  0.16208103  0.33916727  0.00051969  1
  Te  Te139  1  0.16906484  0.32976605  0.33430081  1
  Te  Te140  1  0.16610032  0.33504783  0.66558531  1
  Te  Te141  1  0.17366746  0.66076890  -0.00030795  1
  Te  Te142  1  0.16849152  0.67063541  0.33595095  1
  Te  Te143  1  0.16345074  0.66684343  0.66618682  1
  Te  Te144  1  0.49334804  -0.00019599  -0.00636972  1
  Te  Te145  1  0.50529936  0.00565626  0.33442054  1
  Te  Te146  1  0.49959055  0.00312620  0.66594628  1
  Te  Te147  1  0.50058120  0.33988299  -0.00043867  1
  Te  Te148  1  0.49845953  0.33031536  0.33650881  1
  Te  Te149  1  0.49993138  0.33017412  0.66627835  1
  Te  Te150  1  0.49697628  0.66114896  0.00024577  1
  Te  Te151  1  0.49618453  0.66651481  0.33554892  1
  Te  Te152  1  0.49930259  0.66551835  0.66721345  1
  Te  Te153  1  0.83314199  -0.00099100  -0.00303334  1
  Te  Te154  1  0.83160399  -0.00092316  0.33658917  1
  Te  Te155  1  0.83435645  -0.00294848  0.66347358  1
  Te  Te156  1  0.83783007  0.33339308  -0.00538486  1
  Te  Te157  1  0.83508026  0.33253092  0.33488793  1
  Te  Te158  1  0.83557222  0.33077831  0.66878687  1
  Te  Te159  1  0.83049735  0.66788892  0.00044914  1
  Te  Te160  1  0.83385675  0.66938092  0.33970238  1
  Te  Te161  1  0.83809446  0.67226566  0.66180247  1
  Te  Te162  1  0.00021186  0.17725874  0.00072311  1
  Te  Te163  1  0.00133705  0.16873157  0.33694543  1
  Te  Te164  1  0.00125888  0.17330001  0.65960147  1
  Te  Te165  1  0.00276701  0.49646473  -0.00372847  1
  Te  Te166  1  0.00162354  0.50003737  0.33590146  1
  Te  Te167  1  -0.00307466  0.49944464  0.66503872  1
  Te  Te168  1  -0.00004919  0.83179974  0.00159207  1
  Te  Te169  1  0.00182979  0.82691894  0.33344669  1
  Te  Te170  1  0.01025818  0.82753941  0.66733117  1
  Te  Te171  1  0.33311995  0.16553647  0.00750329  1
  Te  Te172  1  0.33486343  0.16791254  0.33178884  1
  Te  Te173  1  0.33706471  0.17499999  0.66571615  1
  Te  Te174  1  0.33278086  0.50236090  -0.00310882  1
  Te  Te175  1  0.33181384  0.49849576  0.33270304  1
  Te  Te176  1  0.33242527  0.50113476  0.66802347  1
  Te  Te177  1  0.33310110  0.83153462  -0.00113228  1
  Te  Te178  1  0.33058828  0.83210666  0.33425658  1
  Te  Te179  1  0.33394052  0.83074924  0.66722249  1
  Te  Te180  1  0.66674535  0.16613122  0.00857912  1
  Te  Te181  1  0.66517062  0.16406448  0.33214725  1
  Te  Te182  1  0.66215356  0.16561191  0.66626365  1
  Te  Te183  1  0.66420803  0.50473342  -0.00474988  1
  Te  Te184  1  0.67343844  0.50030057  0.33221810  1
  Te  Te185  1  0.66856044  0.50107254  0.66957459  1
  Te  Te186  1  0.66475922  0.82545288  0.00324999  1
  Te  Te187  1  0.66871599  0.83900971  0.33853671  1
  Te  Te188  1  0.66468981  0.83310135  0.66482462  1
  Te  Te189  1  0.00896563  0.00040676  0.16382041  1
  Te  Te190  1  -0.00142645  0.00546323  0.49983393  1
  Te  Te191  1  -0.00691324  0.00035282  0.83356215  1
  Te  Te192  1  -0.00092605  0.33757270  0.17361362  1
  Te  Te193  1  -0.00089098  0.33420823  0.49860469  1
  Te  Te194  1  -0.00224361  0.33675924  0.82912230  1
  Te  Te195  1  0.00033922  0.66009911  0.16871476  1
  Te  Te196  1  -0.00120460  0.66385369  0.50026901  1
  Te  Te197  1  -0.00154506  0.65970931  0.82970056  1
  Te  Te198  1  0.33035930  -0.00045295  0.17086614  1
  Te  Te199  1  0.32886725  0.00046340  0.50892793  1
  Te  Te200  1  0.33503140  0.00245870  0.83067590  1
  Te  Te201  1  0.33718234  0.33167669  0.16822093  1
  Te  Te202  1  0.33711958  0.33446259  0.49875086  1
  Te  Te203  1  0.33249791  0.33647202  0.82921379  1
  Te  Te204  1  0.33349888  0.67006583  0.17440128  1
  Te  Te205  1  0.33695415  0.66647003  0.50045770  1
  Te  Te206  1  0.33601702  0.66673790  0.82983681  1
  Te  Te207  1  0.66675998  0.00403579  0.16421137  1
  Te  Te208  1  0.66757354  -0.00312022  0.50307644  1
  Te  Te209  1  0.66882882  0.00019778  0.82933763  1
  Te  Te210  1  0.66219257  0.32854077  0.16559271  1
  Te  Te211  1  0.66246140  0.33343417  0.50709750  1
  Te  Te212  1  0.67263798  0.33696434  0.82793363  1
  Te  Te213  1  0.66604456  0.66694449  0.16416463  1
  Te  Te214  1  0.66628996  0.67011075  0.50509292  1
  Te  Te215  1  0.66233658  0.66421743  0.82901074  1
