# generated using pymatgen
data_AgSbTe2
_symmetry_space_group_name_H-M   'P 1'
_cell_length_a   18.33453463
_cell_length_b   18.33037979
_cell_length_c   18.33744984
_cell_angle_alpha   89.99809232
_cell_angle_beta   90.00277795
_cell_angle_gamma   89.99767650
_symmetry_Int_Tables_number   1
_chemical_formula_structural   AgSbTe2
_chemical_formula_sum   'Ag54 Sb54 Te108'
_cell_volume   6162.83147676
_cell_formula_units_Z   54
loop_
 _symmetry_equiv_pos_site_id
 _symmetry_equiv_pos_as_xyz
  1  'x, y, z'
loop_
 _atom_site_type_symbol
 _atom_site_label
 _atom_site_symmetry_multiplicity
 _atom_site_fract_x
 _atom_site_fract_y
 _atom_site_fract_z
 _atom_site_occupancy
  Ag  Ag0  1  0.16858016  -0.00041731  0.16730718  1
  Ag  Ag1  1  0.49050232  0.82839021  0.66426786  1
  Ag  Ag2  1  0.49209753  -0.00497135  0.50028799  1
  Ag  Ag3  1  0.33015494  0.33498015  -0.00733660  1
  Ag  Ag4  1  0.00615044  0.83752732  0.50301632  1
  Ag  Ag5  1  0.83839610  0.66229033  0.50291200  1
  Ag  Ag6  1  0.17554317  0.49334348  0.66524857  1
  Ag  Ag7  1  0.33325872  0.50210193  0.51398013  1
  Ag  Ag8  1  0.00923643  0.84231496  0.16433977  1
  Ag  Ag9  1  0.66793150  0.50355956  0.51298684  1
  Ag  Ag10  1  0.16590166  0.83949424  -0.00394700  1
  Ag  Ag11  1  0.83433545  0.49926150  0.34536477  1
  Ag  Ag12  1  0.32836849  0.00575551  0.66908955  1
  Ag  Ag13  1  0.84908210  -0.00202037  0.16516122  1
  Ag  Ag14  1  0.48766548  0.16500246  0.66400718  1
  Ag  Ag15  1  -0.00065362  0.32739582  0.34073766  1
  Ag  Ag16  1  0.32859346  0.33443488  0.67408347  1
  Ag  Ag17  1  0.50009205  0.66346169  0.82573669  1
  Ag  Ag18  1  0.33630970  0.49751450  0.15563210  1
  Ag  Ag19  1  0.32807742  0.16016000  0.15819239  1
  Ag  Ag20  1  0.66258146  0.49874577  0.15166577  1
  Ag  Ag21  1  0.33374896  0.65556254  -0.00070387  1
  Ag  Ag22  1  0.65774416  0.50198553  0.83160079  1
  Ag  Ag23  1  0.33092574  0.00255051  0.00203138  1
  Ag  Ag24  1  0.66474878  0.34014683  -0.00272042  1
  Ag  Ag25  1  0.48754669  -0.00037028  0.17079550  1
  Ag  Ag26  1  0.00884349  0.16140413  0.17063884  1
  Ag  Ag27  1  0.84468243  0.82962810  -0.00104132  1
  Ag  Ag28  1  0.33078002  0.17443203  0.83357263  1
  Ag  Ag29  1  0.32973094  0.84500799  0.16055449  1
  Ag  Ag30  1  0.17036518  0.16179512  -0.00394170  1
  Ag  Ag31  1  0.01091771  0.00126718  0.65926718  1
  Ag  Ag32  1  -0.00121518  0.50047662  0.50436027  1
  Ag  Ag33  1  0.00333032  0.16394512  0.49967086  1
  Ag  Ag34  1  0.82503824  0.49934874  -0.00407208  1
  Ag  Ag35  1  0.16716425  0.66939191  0.50553689  1
  Ag  Ag36  1  0.00136359  0.83512742  0.83326534  1
  Ag  Ag37  1  0.49706399  0.15962042  0.33961435  1
  Ag  Ag38  1  0.49591707  0.50434239  0.67137065  1
  Ag  Ag39  1  0.66782367  0.82385703  0.83239593  1
  Ag  Ag40  1  0.49737591  0.49979831  -0.00899670  1
  Ag  Ag41  1  0.49813477  0.83935510  0.34275821  1
  Ag  Ag42  1  0.83170395  0.50040323  0.66565365  1
  Ag  Ag43  1  0.16988946  0.16329924  0.67052728  1
  Ag  Ag44  1  0.00387335  0.33441939  -0.00702642  1
  Ag  Ag45  1  0.00909435  0.33330435  0.66897327  1
  Ag  Ag46  1  0.16696353  0.33329303  0.83111288  1
  Ag  Ag47  1  0.49811181  0.66633288  0.50755984  1
  Ag  Ag48  1  0.84094041  0.33771136  0.83540262  1
  Ag  Ag49  1  0.00143697  0.00340557  0.33434789  1
  Ag  Ag50  1  0.33762882  0.49512968  0.83105477  1
  Ag  Ag51  1  0.16743903  0.83814691  0.66755992  1
  Ag  Ag52  1  0.16713352  -0.00344094  0.50937577  1
  Ag  Ag53  1  0.66052383  0.66221038  0.66711898  1
  Sb  Sb54  1  0.50293501  0.50014497  0.33644674  1
  Sb  Sb55  1  0.67129698  0.33740080  0.32910353  1
  Sb  Sb56  1  0.00769832  0.00087111  0.00234163  1
  Sb  Sb57  1  0.83281581  0.83039951  0.33010483  1
  Sb  Sb58  1  0.83525441  0.17025955  0.33296161  1
  Sb  Sb59  1  0.49817791  0.66855617  0.16712335  1
  Sb  Sb60  1  0.66411027  0.82974393  0.16037725  1
  Sb  Sb61  1  0.16938170  0.67140049  0.16823235  1
  Sb  Sb62  1  0.66628212  0.17172259  0.50274457  1
  Sb  Sb63  1  0.66118084  -0.00533697  0.66642102  1
  Sb  Sb64  1  0.66695042  0.00018905  0.33311286  1
  Sb  Sb65  1  0.84235782  0.16863450  0.00042782  1
  Sb  Sb66  1  0.00412450  0.66565670  -0.00114457  1
  Sb  Sb67  1  0.32898821  0.16810253  0.50451606  1
  Sb  Sb68  1  0.16907316  0.83653675  0.33503658  1
  Sb  Sb69  1  0.17154311  0.66388056  0.82858428  1
  Sb  Sb70  1  0.83792261  0.34241546  0.50671230  1
  Sb  Sb71  1  0.82843434  0.66117229  0.82940299  1
  Sb  Sb72  1  0.33097568  0.83175508  0.83531489  1
  Sb  Sb73  1  0.16793336  0.16481782  0.33456703  1
  Sb  Sb74  1  0.33781903  0.66346043  0.67066800  1
  Sb  Sb75  1  0.49670920  -0.00520168  0.83068637  1
  Sb  Sb76  1  0.16673378  0.32708970  0.15765946  1
  Sb  Sb77  1  0.17104405  0.49830907  -0.00569896  1
  Sb  Sb78  1  0.32817877  0.33258723  0.33310846  1
  Sb  Sb79  1  0.16777770  0.00233720  0.83115649  1
  Sb  Sb80  1  0.00085840  0.49923436  0.82768129  1
  Sb  Sb81  1  0.16404395  0.33235579  0.50929515  1
  Sb  Sb82  1  0.49450485  0.82932041  -0.00349517  1
  Sb  Sb83  1  0.65674413  0.17406167  0.83295205  1
  Sb  Sb84  1  0.66163632  0.66080016  -0.00609836  1
  Sb  Sb85  1  -0.00005684  0.66856759  0.33708839  1
  Sb  Sb86  1  0.83680019  0.00076879  0.83641588  1
  Sb  Sb87  1  0.66412087  0.17018971  0.16428915  1
  Sb  Sb88  1  0.16335446  0.49894946  0.34250904  1
  Sb  Sb89  1  0.66495046  0.34188073  0.67312403  1
  Sb  Sb90  1  0.83639912  0.33197165  0.16062691  1
  Sb  Sb91  1  0.00112397  0.49689919  0.16966297  1
  Sb  Sb92  1  0.66574227  0.66468521  0.34035240  1
  Sb  Sb93  1  0.33194100  0.83021323  0.50103133  1
  Sb  Sb94  1  0.33153060  0.00066075  0.33333814  1
  Sb  Sb95  1  0.84106363  0.17280664  0.66738620  1
  Sb  Sb96  1  0.00760289  0.16618533  0.83216980  1
  Sb  Sb97  1  0.33495834  0.66663522  0.33145912  1
  Sb  Sb98  1  0.66211529  0.00226119  0.00067270  1
  Sb  Sb99  1  0.49811873  0.33603368  0.50335514  1
  Sb  Sb100  1  0.00024006  0.66502413  0.66461877  1
  Sb  Sb101  1  0.84054557  -0.00611566  0.49695759  1
  Sb  Sb102  1  0.48975375  0.17087221  -0.00273491  1
  Sb  Sb103  1  0.83371423  0.66764622  0.16766669  1
  Sb  Sb104  1  0.49356509  0.34115815  0.83324205  1
  Sb  Sb105  1  0.66568821  0.82731925  0.50615362  1
  Sb  Sb106  1  0.49717041  0.33061756  0.16584997  1
  Sb  Sb107  1  0.83755795  0.82906191  0.67069274  1
  Te  Te108  1  0.16802150  0.16218684  0.16718000  1
  Te  Te109  1  0.16265606  0.16054828  0.50326059  1
  Te  Te110  1  0.17097538  0.17066430  0.83220323  1
  Te  Te111  1  0.17042388  0.50214784  0.16888504  1
  Te  Te112  1  0.16643764  0.50080476  0.50564494  1
  Te  Te113  1  0.16965797  0.49662538  0.82655630  1
  Te  Te114  1  0.16846881  0.83558287  0.16705786  1
  Te  Te115  1  0.16619764  0.83561752  0.50137721  1
  Te  Te116  1  0.16377200  0.83144934  0.83189910  1
  Te  Te117  1  0.49661648  0.16163654  0.16542847  1
  Te  Te118  1  0.49975515  0.16331250  0.50250582  1
  Te  Te119  1  0.49220076  0.16402385  0.82627667  1
  Te  Te120  1  0.49992726  0.50039767  0.16822649  1
  Te  Te121  1  0.49795701  0.50328872  0.50059059  1
  Te  Te122  1  0.49855053  0.50272213  0.83261041  1
  Te  Te123  1  0.49710625  0.83691217  0.16492095  1
  Te  Te124  1  0.49933294  0.83349510  0.50346681  1
  Te  Te125  1  0.50181667  0.82742465  0.82878472  1
  Te  Te126  1  0.83511018  0.15949127  0.16754346  1
  Te  Te127  1  0.83929553  0.16462014  0.49943446  1
  Te  Te128  1  0.82943182  0.17277369  0.83407305  1
  Te  Te129  1  0.83339835  0.50081645  0.15738030  1
  Te  Te130  1  0.83508332  0.50279725  0.50420199  1
  Te  Te131  1  0.83554254  0.49795815  0.83470355  1
  Te  Te132  1  0.83262247  0.83530363  0.16177137  1
  Te  Te133  1  0.83592705  0.82563937  0.49927202  1
  Te  Te134  1  0.83450047  0.83270030  0.83838564  1
  Te  Te135  1  0.17093615  -0.00026564  0.00129175  1
  Te  Te136  1  0.16034565  0.00042983  0.33162755  1
  Te  Te137  1  0.16746169  -0.00063147  0.66709680  1
  Te  Te138  1  0.16753361  0.33212261  -0.00620777  1
  Te  Te139  1  0.15809585  0.33244349  0.33113992  1
  Te  Te140  1  0.16825809  0.33423385  0.66943532  1
  Te  Te141  1  0.17246748  0.67274895  -0.00048607  1
  Te  Te142  1  0.16736134  0.66740995  0.34511579  1
  Te  Te143  1  0.16762191  0.67218328  0.66358968  1
  Te  Te144  1  0.49401440  0.00052012  0.00394892  1
  Te  Te145  1  0.50075905  -0.00031867  0.33496138  1
  Te  Te146  1  0.49758585  -0.00232540  0.66334954  1
  Te  Te147  1  0.49700704  0.33876366  0.00006053  1
  Te  Te148  1  0.50019766  0.32679300  0.33439071  1
  Te  Te149  1  0.49521223  0.33249353  0.66646270  1
  Te  Te150  1  0.49482066  0.66122739  -0.00053961  1
  Te  Te151  1  0.50003260  0.67203431  0.34013078  1
  Te  Te152  1  0.49865294  0.66594081  0.66575688  1
  Te  Te153  1  0.83140735  -0.00204930  0.00419083  1
  Te  Te154  1  0.83800445  -0.00049902  0.32780142  1
  Te  Te155  1  0.83559224  0.00194567  0.66651388  1
  Te  Te156  1  0.83954101  0.33488615  -0.00360928  1
  Te  Te157  1  0.83942586  0.33774955  0.33160012  1
  Te  Te158  1  0.83495956  0.33902410  0.67290650  1
  Te  Te159  1  0.83401764  0.66653934  -0.00050548  1
  Te  Te160  1  0.83287814  0.66010565  0.33887017  1
  Te  Te161  1  0.82849777  0.66123014  0.66280512  1
  Te  Te162  1  0.00803935  0.16984415  0.00135227  1
  Te  Te163  1  -0.00015272  0.16579511  0.33327116  1
  Te  Te164  1  0.00456461  0.16872571  0.66508206  1
  Te  Te165  1  0.00015705  0.49704831  0.00044940  1
  Te  Te166  1  -0.00463364  0.49747459  0.33690969  1
  Te  Te167  1  -0.00053351  0.49776144  0.66406462  1
  Te  Te168  1  0.00335348  0.83322696  0.00132941  1
  Te  Te169  1  -0.00164540  0.83864420  0.33402367  1
  Te  Te170  1  0.00166885  0.83354144  0.66306030  1
  Te  Te171  1  0.32993707  0.16809951  -0.00073363  1
  Te  Te172  1  0.33803574  0.16865055  0.32789765  1
  Te  Te173  1  0.33049943  0.16618823  0.66461191  1
  Te  Te174  1  0.33250380  0.49683878  -0.00359514  1
  Te  Te175  1  0.33289900  0.49844747  0.32856619  1
  Te  Te176  1  0.33462939  0.50011531  0.67011267  1
  Te  Te177  1  0.32957940  0.84116950  0.00068238  1
  Te  Te178  1  0.33949033  0.83309609  0.32477305  1
  Te  Te179  1  0.33141776  0.83842593  0.66749969  1
  Te  Te180  1  0.66734040  0.17532503  -0.00103585  1
  Te  Te181  1  0.65892606  0.16896529  0.33358158  1
  Te  Te182  1  0.66197348  0.16785380  0.66676688  1
  Te  Te183  1  0.66572845  0.49925333  -0.00488561  1
  Te  Te184  1  0.67285094  0.49907933  0.33414054  1
  Te  Te185  1  0.66406786  0.50097299  0.66982344  1
  Te  Te186  1  0.66724647  0.83278901  -0.00611243  1
  Te  Te187  1  0.65984672  0.83280084  0.33201183  1
  Te  Te188  1  0.66733367  0.82817623  0.67254106  1
  Te  Te189  1  0.00513110  0.00016498  0.16342872  1
  Te  Te190  1  0.00143398  -0.00132853  0.49988579  1
  Te  Te191  1  -0.00053909  -0.00422670  0.82570483  1
  Te  Te192  1  0.00106367  0.32825897  0.16377987  1
  Te  Te193  1  -0.00017176  0.33310093  0.50273753  1
  Te  Te194  1  0.00303077  0.33247097  0.83157884  1
  Te  Te195  1  0.00115746  0.67612852  0.16788610  1
  Te  Te196  1  0.00143781  0.66457132  0.50005933  1
  Te  Te197  1  0.00006134  0.67593837  0.83299296  1
  Te  Te198  1  0.33068671  0.00162487  0.16956410  1
  Te  Te199  1  0.33214493  -0.00032741  0.50256171  1
  Te  Te200  1  0.33417624  0.00321469  0.83335394  1
  Te  Te201  1  0.33191608  0.33681326  0.16469210  1
  Te  Te202  1  0.33121498  0.34058698  0.50162708  1
  Te  Te203  1  0.33232650  0.33370777  0.83254969  1
  Te  Te204  1  0.33333670  0.66015790  0.16090722  1
  Te  Te205  1  0.33287567  0.66274406  0.49896774  1
  Te  Te206  1  0.33811695  0.66292882  0.83958902  1
  Te  Te207  1  0.66222680  0.00029573  0.16651550  1
  Te  Te208  1  0.66268807  0.00053086  0.49975404  1
  Te  Te209  1  0.66749581  -0.00347588  0.83413093  1
  Te  Te210  1  0.66760601  0.33934819  0.15976012  1
  Te  Te211  1  0.66860847  0.34111409  0.49931729  1
  Te  Te212  1  0.67106990  0.33883412  0.83854637  1
  Te  Te213  1  0.66630953  0.65824761  0.16699186  1
  Te  Te214  1  0.66266090  0.66270260  0.50573265  1
  Te  Te215  1  0.66287476  0.66370471  0.82927554  1
