# generated using pymatgen
data_AgSbTe2
_symmetry_space_group_name_H-M   'P 1'
_cell_length_a   18.34200151
_cell_length_b   18.34555913
_cell_length_c   18.35195280
_cell_angle_alpha   89.99717506
_cell_angle_beta   89.99671987
_cell_angle_gamma   89.99615818
_symmetry_Int_Tables_number   1
_chemical_formula_structural   AgSbTe2
_chemical_formula_sum   'Ag54 Sb54 Te108'
_cell_volume   6175.32699185
_cell_formula_units_Z   54
loop_
 _symmetry_equiv_pos_site_id
 _symmetry_equiv_pos_as_xyz
  1  'x, y, z'
loop_
 _atom_site_type_symbol
 _atom_site_label
 _atom_site_symmetry_multiplicity
 _atom_site_fract_x
 _atom_site_fract_y
 _atom_site_fract_z
 _atom_site_occupancy
  Ag  Ag0  1  0.33642612  0.84309256  0.15992513  1
  Ag  Ag1  1  0.33037426  -0.00185034  -0.02008749  1
  Ag  Ag2  1  0.16284236  0.34135646  0.83141130  1
  Ag  Ag3  1  0.66900417  0.34039200  0.66949708  1
  Ag  Ag4  1  0.49417832  0.50517398  0.66855948  1
  Ag  Ag5  1  0.50079085  0.66230871  0.16063927  1
  Ag  Ag6  1  0.33976256  0.16065477  0.17062038  1
  Ag  Ag7  1  0.66356592  0.66099553  0.67513121  1
  Ag  Ag8  1  0.49850026  0.16694531  0.33009115  1
  Ag  Ag9  1  0.16078245  0.50167336  -0.01545395  1
  Ag  Ag10  1  -0.00374957  0.65793618  -0.00729436  1
  Ag  Ag11  1  0.33968777  0.84276897  0.83047032  1
  Ag  Ag12  1  0.00304322  0.65532581  0.33187568  1
  Ag  Ag13  1  0.00623596  0.17200456  0.83327766  1
  Ag  Ag14  1  0.00689414  0.00181463  0.33231714  1
  Ag  Ag15  1  0.33126966  0.15373231  0.83215899  1
  Ag  Ag16  1  0.33471683  0.00152479  0.35205760  1
  Ag  Ag17  1  0.66317246  0.49681011  0.16042925  1
  Ag  Ag18  1  0.16487676  0.50383390  0.66768096  1
  Ag  Ag19  1  0.50456914  0.67489188  0.83439601  1
  Ag  Ag20  1  0.50294296  0.33823076  0.17081645  1
  Ag  Ag21  1  0.49737849  0.83235483  -0.01454892  1
  Ag  Ag22  1  0.49548213  0.82868458  0.67372091  1
  Ag  Ag23  1  0.48888443  -0.00263337  0.50310442  1
  Ag  Ag24  1  0.65291954  0.00497614  0.33341372  1
  Ag  Ag25  1  0.49694613  0.49637036  0.33538750  1
  Ag  Ag26  1  0.00613845  0.50063451  0.50568873  1
  Ag  Ag27  1  0.17566657  -0.00031148  0.82962649  1
  Ag  Ag28  1  0.16256294  0.49888031  0.33825054  1
  Ag  Ag29  1  0.33704940  0.84349503  0.51272044  1
  Ag  Ag30  1  0.65549894  0.83482771  0.51179088  1
  Ag  Ag31  1  0.65932984  0.17661020  0.16888988  1
  Ag  Ag32  1  -0.00132390  0.34000177  0.33640104  1
  Ag  Ag33  1  0.17690996  -0.00108945  0.50752602  1
  Ag  Ag34  1  0.66390741  0.50387837  0.83432639  1
  Ag  Ag35  1  -0.00275461  0.65674926  0.67647314  1
  Ag  Ag36  1  0.48816323  -0.01316012  0.82839683  1
  Ag  Ag37  1  0.83437260  0.17019837  0.67412246  1
  Ag  Ag38  1  -0.00155266  0.33833529  0.67536017  1
  Ag  Ag39  1  0.84305989  0.33423755  0.83199954  1
  Ag  Ag40  1  0.83407249  0.17086354  -0.00548614  1
  Ag  Ag41  1  0.33349186  -0.00387497  0.66575431  1
  Ag  Ag42  1  0.65310733  0.82239301  0.82944448  1
  Ag  Ag43  1  0.17694298  0.83042227  0.67017272  1
  Ag  Ag44  1  -0.00047007  0.50091502  0.16217772  1
  Ag  Ag45  1  0.66608583  0.66344896  -0.00796686  1
  Ag  Ag46  1  0.00576116  -0.00337040  -0.00854077  1
  Ag  Ag47  1  0.32734254  0.50152037  0.82927497  1
  Ag  Ag48  1  0.84228123  0.49779492  -0.00430667  1
  Ag  Ag49  1  0.00749126  0.49878694  0.83150851  1
  Ag  Ag50  1  0.00453874  0.82965287  0.83204312  1
  Ag  Ag51  1  0.32916745  0.50042644  0.50968980  1
  Ag  Ag52  1  0.33468584  0.15419211  0.50171749  1
  Ag  Ag53  1  0.66440914  0.33247355  0.33237323  1
  Sb  Sb54  1  0.82951411  0.66398763  0.16439786  1
  Sb  Sb55  1  0.82994616  0.33518555  0.16153206  1
  Sb  Sb56  1  0.83411398  0.33434531  0.50650330  1
  Sb  Sb57  1  0.00531199  0.16904839  0.50376753  1
  Sb  Sb58  1  0.66458681  0.16796542  0.83600585  1
  Sb  Sb59  1  0.16635612  0.33383732  0.50471939  1
  Sb  Sb60  1  0.49804973  0.83473393  0.33626293  1
  Sb  Sb61  1  0.65738684  0.83041452  0.16361006  1
  Sb  Sb62  1  0.49643937  -0.00013978  0.16883510  1
  Sb  Sb63  1  0.50046619  0.16042958  0.00362358  1
  Sb  Sb64  1  0.66091948  0.16293794  0.49670011  1
  Sb  Sb65  1  0.83366715  0.83424483  0.33431563  1
  Sb  Sb66  1  0.17046338  0.66405490  0.16516738  1
  Sb  Sb67  1  0.16416771  0.16781687  -0.00447943  1
  Sb  Sb68  1  0.83334664  0.00237078  0.16518486  1
  Sb  Sb69  1  0.16876534  0.83236458  0.33988957  1
  Sb  Sb70  1  0.16587032  0.16742744  0.66993025  1
  Sb  Sb71  1  0.33574434  0.67104213  -0.00377840  1
  Sb  Sb72  1  -0.00071377  0.33803712  -0.00479432  1
  Sb  Sb73  1  0.49910873  0.67060730  0.50393644  1
  Sb  Sb74  1  0.83393986  0.00107366  0.50051983  1
  Sb  Sb75  1  0.83081499  0.83174386  -0.00415393  1
  Sb  Sb76  1  0.65954541  -0.00103955  0.66477451  1
  Sb  Sb77  1  0.66634715  0.66437264  0.33347860  1
  Sb  Sb78  1  0.00434689  0.82991380  0.50594210  1
  Sb  Sb79  1  0.17089252  0.83041508  -0.00888811  1
  Sb  Sb80  1  0.33259841  0.33442366  0.66826356  1
  Sb  Sb81  1  0.17107527  0.00005735  0.16489413  1
  Sb  Sb82  1  0.00792929  0.82822758  0.16209837  1
  Sb  Sb83  1  0.66534724  0.50259847  0.50325571  1
  Sb  Sb84  1  0.00704629  0.00050675  0.67051067  1
  Sb  Sb85  1  0.00026907  0.17140440  0.16240322  1
  Sb  Sb86  1  0.33525690  0.33045564  0.33337735  1
  Sb  Sb87  1  0.83528445  0.00684939  0.83423458  1
  Sb  Sb88  1  0.16683915  0.66637361  0.83187402  1
  Sb  Sb89  1  0.33397486  0.32872647  -0.00181603  1
  Sb  Sb90  1  0.33642775  0.49925454  0.16467484  1
  Sb  Sb91  1  0.83035627  0.83704546  0.67038996  1
  Sb  Sb92  1  0.83454331  0.66490966  0.50242440  1
  Sb  Sb93  1  0.33248178  0.66848219  0.33285450  1
  Sb  Sb94  1  0.33552064  0.66934102  0.66978139  1
  Sb  Sb95  1  0.49851230  0.33560884  0.83508652  1
  Sb  Sb96  1  0.83622091  0.49540767  0.67516714  1
  Sb  Sb97  1  0.66347088  -0.00335553  0.00179113  1
  Sb  Sb98  1  0.83621875  0.49806646  0.32856958  1
  Sb  Sb99  1  0.82932262  0.16830213  0.33204183  1
  Sb  Sb100  1  0.16863331  0.33677019  0.16401775  1
  Sb  Sb101  1  0.83070687  0.65963855  0.83371844  1
  Sb  Sb102  1  0.16716001  0.66668880  0.50357695  1
  Sb  Sb103  1  0.17186732  0.16901890  0.33405811  1
  Sb  Sb104  1  0.50107727  0.16758241  0.66444941  1
  Sb  Sb105  1  0.66710735  0.33973627  -0.00080825  1
  Sb  Sb106  1  0.49970092  0.33166885  0.49728472  1
  Sb  Sb107  1  0.49857280  0.50603192  -0.00323320  1
  Te  Te108  1  0.17502687  0.16866587  0.16491396  1
  Te  Te109  1  0.17429355  0.16130187  0.50153008  1
  Te  Te110  1  0.16775310  0.16404851  0.83324923  1
  Te  Te111  1  0.16374894  0.49920272  0.17640026  1
  Te  Te112  1  0.16562584  0.49971792  0.50062176  1
  Te  Te113  1  0.16527441  0.50318032  0.82793469  1
  Te  Te114  1  0.17727741  0.83223470  0.16625719  1
  Te  Te115  1  0.17213200  0.83767114  0.50738371  1
  Te  Te116  1  0.16395122  0.83373537  0.82868667  1
  Te  Te117  1  0.50014191  0.16565221  0.16986848  1
  Te  Te118  1  0.49442245  0.16230222  0.49602864  1
  Te  Te119  1  0.49389872  0.16722122  0.83395145  1
  Te  Te120  1  0.50104632  0.49999729  0.16568704  1
  Te  Te121  1  0.49888917  0.50044556  0.50104322  1
  Te  Te122  1  0.50463593  0.49908563  0.83080947  1
  Te  Te123  1  0.49435576  0.82788258  0.16860324  1
  Te  Te124  1  0.49710992  0.83595693  0.50228262  1
  Te  Te125  1  0.49832041  0.83158435  0.82967569  1
  Te  Te126  1  0.82909237  0.16840552  0.16060997  1
  Te  Te127  1  0.83420459  0.16690419  0.50520058  1
  Te  Te128  1  0.83178705  0.17223978  0.83504704  1
  Te  Te129  1  0.83171304  0.49949395  0.15819395  1
  Te  Te130  1  0.84318756  0.49949150  0.49831505  1
  Te  Te131  1  0.82819120  0.49425369  0.83830189  1
  Te  Te132  1  0.83373129  0.83362172  0.16548528  1
  Te  Te133  1  0.82623922  0.83335493  0.50175777  1
  Te  Te134  1  0.84590435  0.83645417  0.83395834  1
  Te  Te135  1  0.16739503  -0.00115008  -0.00531164  1
  Te  Te136  1  0.17033874  0.00057042  0.33543961  1
  Te  Te137  1  0.17017262  -0.00080971  0.66879210  1
  Te  Te138  1  0.16681440  0.34084610  -0.00566944  1
  Te  Te139  1  0.16224966  0.33724634  0.33351919  1
  Te  Te140  1  0.16255490  0.33930670  0.67104283  1
  Te  Te141  1  0.15771798  0.66148818  0.00044428  1
  Te  Te142  1  0.16277924  0.66169071  0.33337089  1
  Te  Te143  1  0.15746414  0.66555154  0.66649572  1
  Te  Te144  1  0.49623923  -0.00593564  -0.00392586  1
  Te  Te145  1  0.49501577  0.00079571  0.33537787  1
  Te  Te146  1  0.49708351  0.00037302  0.66627145  1
  Te  Te147  1  0.50058985  0.33213838  0.00871564  1
  Te  Te148  1  0.50225396  0.33431091  0.33115656  1
  Te  Te149  1  0.50598838  0.33887182  0.66606773  1
  Te  Te150  1  0.50212283  0.67047375  -0.00214501  1
  Te  Te151  1  0.50043436  0.65926353  0.33112110  1
  Te  Te152  1  0.50303949  0.66615490  0.66926024  1
  Te  Te153  1  0.83705957  0.00359749  0.00055449  1
  Te  Te154  1  0.83937792  0.00129576  0.33297005  1
  Te  Te155  1  0.83258678  0.00903079  0.66631337  1
  Te  Te156  1  0.83283021  0.33383372  -0.00595894  1
  Te  Te157  1  0.83139824  0.33203514  0.33358378  1
  Te  Te158  1  0.83319952  0.32984134  0.67133604  1
  Te  Te159  1  0.83346135  0.66245776  -0.00016867  1
  Te  Te160  1  0.84213439  0.66699857  0.33255606  1
  Te  Te161  1  0.83559932  0.66910087  0.66673137  1
  Te  Te162  1  -0.00311198  0.16160088  -0.00226996  1
  Te  Te163  1  -0.00038386  0.16391957  0.33251078  1
  Te  Te164  1  -0.00207948  0.17212280  0.67120213  1
  Te  Te165  1  0.00041909  0.49982461  -0.00101308  1
  Te  Te166  1  -0.00180094  0.49763255  0.33082888  1
  Te  Te167  1  -0.00146977  0.49837024  0.66971522  1
  Te  Te168  1  0.00033722  0.83585665  -0.00257574  1
  Te  Te169  1  0.00112058  0.84006920  0.33329474  1
  Te  Te170  1  -0.00094534  0.83182723  0.67000054  1
  Te  Te171  1  0.33269281  0.16031615  -0.00561138  1
  Te  Te172  1  0.33689516  0.16396589  0.33495026  1
  Te  Te173  1  0.33415152  0.16734471  0.66790597  1
  Te  Te174  1  0.32709480  0.50012400  -0.00337162  1
  Te  Te175  1  0.33566945  0.49984293  0.33081061  1
  Te  Te176  1  0.33334594  0.50098507  0.66806438  1
  Te  Te177  1  0.33590572  0.83710561  -0.00531047  1
  Te  Te178  1  0.33236428  0.83723611  0.33608981  1
  Te  Te179  1  0.33425479  0.82955689  0.66964739  1
  Te  Te180  1  0.67003946  0.16596990  0.00557200  1
  Te  Te181  1  0.66306887  0.16708799  0.33027500  1
  Te  Te182  1  0.66944455  0.17117511  0.66603393  1
  Te  Te183  1  0.66376686  0.50410743  -0.00006001  1
  Te  Te184  1  0.66453812  0.49762417  0.33446952  1
  Te  Te185  1  0.66843840  0.50115909  0.66627728  1
  Te  Te186  1  0.66311140  0.82803512  -0.00519920  1
  Te  Te187  1  0.66722554  0.83702141  0.33349584  1
  Te  Te188  1  0.66444209  0.83290118  0.67000826  1
  Te  Te189  1  0.00214227  0.00028372  0.16845013  1
  Te  Te190  1  0.00254596  -0.00052620  0.49735784  1
  Te  Te191  1  0.00158426  0.00514369  0.83368996  1
  Te  Te192  1  0.00032316  0.33778299  0.17407020  1
  Te  Te193  1  0.00079199  0.33691849  0.49764223  1
  Te  Te194  1  0.00215389  0.33305763  0.83331135  1
  Te  Te195  1  0.00039268  0.66230122  0.16824577  1
  Te  Te196  1  0.00070373  0.66265393  0.49496677  1
  Te  Te197  1  -0.00127811  0.66340169  0.83425543  1
  Te  Te198  1  0.33347324  0.00107657  0.16791271  1
  Te  Te199  1  0.33323785  -0.00155245  0.50707236  1
  Te  Te200  1  0.33212368  -0.00170468  0.82466521  1
  Te  Te201  1  0.33869017  0.32664375  0.16607920  1
  Te  Te202  1  0.33249251  0.34277598  0.50037951  1
  Te  Te203  1  0.32836749  0.34302415  0.83297224  1
  Te  Te204  1  0.34036121  0.66974204  0.16486864  1
  Te  Te205  1  0.33342905  0.65791738  0.49855301  1
  Te  Te206  1  0.34147810  0.65895924  0.83435952  1
  Te  Te207  1  0.66544397  0.00003855  0.17252207  1
  Te  Te208  1  0.66548670  -0.00399854  0.49459203  1
  Te  Te209  1  0.66367293  -0.00197963  0.83437294  1
  Te  Te210  1  0.66455330  0.33590650  0.16787161  1
  Te  Te211  1  0.66741969  0.33302231  0.49824907  1
  Te  Te212  1  0.66565679  0.33675790  0.83003903  1
  Te  Te213  1  0.66199630  0.66167369  0.16594493  1
  Te  Te214  1  0.66723387  0.67328316  0.50292810  1
  Te  Te215  1  0.66677942  0.66581695  0.83218005  1
