# generated using pymatgen
data_AgSbTe2
_symmetry_space_group_name_H-M   'P 1'
_cell_length_a   18.33244450
_cell_length_b   18.33757508
_cell_length_c   18.33385868
_cell_angle_alpha   89.99777639
_cell_angle_beta   90.00380547
_cell_angle_gamma   89.99693156
_symmetry_Int_Tables_number   1
_chemical_formula_structural   AgSbTe2
_chemical_formula_sum   'Ag54 Sb54 Te108'
_cell_volume   6163.34049764
_cell_formula_units_Z   54
loop_
 _symmetry_equiv_pos_site_id
 _symmetry_equiv_pos_as_xyz
  1  'x, y, z'
loop_
 _atom_site_type_symbol
 _atom_site_label
 _atom_site_symmetry_multiplicity
 _atom_site_fract_x
 _atom_site_fract_y
 _atom_site_fract_z
 _atom_site_occupancy
  Ag  Ag0  1  0.66724411  -0.00908316  0.32654250  1
  Ag  Ag1  1  0.67141314  -0.00308779  0.00773194  1
  Ag  Ag2  1  0.83586556  0.67049632  0.17387185  1
  Ag  Ag3  1  0.16203888  0.33895800  0.16818898  1
  Ag  Ag4  1  0.34315456  0.16688661  0.83681219  1
  Ag  Ag5  1  0.50334822  0.50448751  0.67371210  1
  Ag  Ag6  1  0.33356525  0.66827901  0.66334589  1
  Ag  Ag7  1  0.50575441  0.83613864  0.00751679  1
  Ag  Ag8  1  0.15950038  0.50500564  0.32689519  1
  Ag  Ag9  1  0.50285851  0.83117442  0.66879318  1
  Ag  Ag10  1  0.33531423  0.33703381  0.66436363  1
  Ag  Ag11  1  0.83471835  0.33804724  0.49635602  1
  Ag  Ag12  1  0.49950330  0.16856583  0.67702405  1
  Ag  Ag13  1  0.83184360  0.51007276  0.66147876  1
  Ag  Ag14  1  0.83649676  0.50385196  0.33237772  1
  Ag  Ag15  1  0.83589870  0.66913428  0.49756820  1
  Ag  Ag16  1  0.66907027  0.83599111  0.49137233  1
  Ag  Ag17  1  -0.00700815  -0.00516050  0.00427455  1
  Ag  Ag18  1  -0.00401943  0.83401606  0.16502702  1
  Ag  Ag19  1  0.66912663  0.51131100  0.16753345  1
  Ag  Ag20  1  0.33301611  0.83715161  0.16811054  1
  Ag  Ag21  1  -0.00055554  0.34203025  0.32502421  1
  Ag  Ag22  1  -0.00638029  0.67080237  0.66153961  1
  Ag  Ag23  1  0.82964920  -0.01220859  0.16630127  1
  Ag  Ag24  1  0.66885033  0.83506738  0.17054562  1
  Ag  Ag25  1  0.66892958  0.15675449  0.50197634  1
  Ag  Ag26  1  0.32896690  0.66822944  0.33354296  1
  Ag  Ag27  1  -0.00482117  -0.01269100  0.67005450  1
  Ag  Ag28  1  0.49808581  0.32851580  0.83161577  1
  Ag  Ag29  1  0.16237041  0.66941206  0.17095077  1
  Ag  Ag30  1  0.33933662  -0.00919608  0.32582697  1
  Ag  Ag31  1  -0.00095690  0.33575365  0.66528382  1
  Ag  Ag32  1  0.49973983  0.50219045  -0.00353523  1
  Ag  Ag33  1  0.83259289  0.83541764  0.00921743  1
  Ag  Ag34  1  0.66200241  0.16412544  0.83135860  1
  Ag  Ag35  1  0.15912593  0.66892106  0.48788581  1
  Ag  Ag36  1  0.82916238  0.67264027  0.82438593  1
  Ag  Ag37  1  0.83253596  -0.00787267  0.83520463  1
  Ag  Ag38  1  0.50413130  0.66561324  0.83014714  1
  Ag  Ag39  1  0.00024604  0.33114449  0.01092239  1
  Ag  Ag40  1  0.83385615  0.82830092  0.66824749  1
  Ag  Ag41  1  0.33371096  0.15643260  0.16616016  1
  Ag  Ag42  1  0.50044871  0.16269139  -0.00427469  1
  Ag  Ag43  1  0.17235501  -0.01475655  0.16687898  1
  Ag  Ag44  1  0.16380305  0.83160909  0.01066066  1
  Ag  Ag45  1  0.32938225  0.33642283  0.33144833  1
  Ag  Ag46  1  0.16752130  0.50573127  0.00847988  1
  Ag  Ag47  1  0.15655844  0.82783444  0.66948913  1
  Ag  Ag48  1  0.50075453  -0.00584968  0.16577285  1
  Ag  Ag49  1  0.50379958  0.83280858  0.32320951  1
  Ag  Ag50  1  0.84110595  0.33727506  0.17165472  1
  Ag  Ag51  1  -0.00413839  0.66410403  0.33337560  1
  Ag  Ag52  1  0.83014469  -0.01199309  0.49773529  1
  Ag  Ag53  1  0.67631408  0.67225754  0.33034402  1
  Sb  Sb54  1  0.49849464  0.33037953  0.16339009  1
  Sb  Sb55  1  0.66926760  0.66915097  0.66180823  1
  Sb  Sb56  1  0.33161408  -0.00389217  0.66188666  1
  Sb  Sb57  1  0.66842880  0.33407420  0.33226795  1
  Sb  Sb58  1  0.17019601  0.16315248  0.00358754  1
  Sb  Sb59  1  -0.00416797  0.83277648  0.83687129  1
  Sb  Sb60  1  -0.00144518  0.50086857  0.83362284  1
  Sb  Sb61  1  0.82836092  0.15665759  0.00156325  1
  Sb  Sb62  1  0.33444374  0.50178074  0.49964222  1
  Sb  Sb63  1  0.67048603  0.50392593  0.49561399  1
  Sb  Sb64  1  0.16481034  0.50648371  0.66466893  1
  Sb  Sb65  1  0.50569386  0.00110764  0.83901008  1
  Sb  Sb66  1  0.66349586  0.15934949  0.16648439  1
  Sb  Sb67  1  0.83222738  0.16971997  0.33274470  1
  Sb  Sb68  1  0.16027587  -0.01037219  0.49440138  1
  Sb  Sb69  1  0.33098876  0.33235651  0.00239641  1
  Sb  Sb70  1  0.50711376  -0.00205910  0.49547229  1
  Sb  Sb71  1  0.66986387  0.32866055  0.00223451  1
  Sb  Sb72  1  0.67082812  -0.00162177  0.66596814  1
  Sb  Sb73  1  0.33433303  0.66870671  0.00165771  1
  Sb  Sb74  1  -0.00108877  0.66915106  0.00267237  1
  Sb  Sb75  1  0.33747050  0.83153083  0.49511685  1
  Sb  Sb76  1  0.66810241  0.83695621  0.83658846  1
  Sb  Sb77  1  0.82620692  0.82564478  0.33047818  1
  Sb  Sb78  1  0.33741220  0.83651546  0.83646488  1
  Sb  Sb79  1  0.16224105  -0.00217830  0.84021967  1
  Sb  Sb80  1  -0.00731282  0.83054155  0.49746431  1
  Sb  Sb81  1  0.16104778  0.34053973  0.49475282  1
  Sb  Sb82  1  0.33626221  0.49865138  0.83227041  1
  Sb  Sb83  1  0.82933929  0.16425707  0.66564491  1
  Sb  Sb84  1  0.50375504  0.66852551  0.50376908  1
  Sb  Sb85  1  0.83027056  0.33388548  0.83259867  1
  Sb  Sb86  1  -0.00300538  0.50525901  0.16804633  1
  Sb  Sb87  1  -0.00262424  0.50248598  0.49789112  1
  Sb  Sb88  1  0.33361860  0.50338485  0.16782163  1
  Sb  Sb89  1  -0.00579058  0.16672944  0.50084626  1
  Sb  Sb90  1  0.34020978  0.16649568  0.49848032  1
  Sb  Sb91  1  0.00283048  0.16366593  0.16624159  1
  Sb  Sb92  1  0.83273867  0.50509428  0.00337991  1
  Sb  Sb93  1  0.17116455  0.82525274  0.32825551  1
  Sb  Sb94  1  -0.00295090  0.16558984  0.83365786  1
  Sb  Sb95  1  0.50431971  0.33206476  0.50440871  1
  Sb  Sb96  1  0.33609181  -0.00030728  0.00677254  1
  Sb  Sb97  1  0.16625270  0.66797924  0.83527338  1
  Sb  Sb98  1  0.17082675  0.33395120  0.83637168  1
  Sb  Sb99  1  0.66706534  0.67292973  0.00613252  1
  Sb  Sb100  1  0.66508767  0.49905519  0.83806665  1
  Sb  Sb101  1  0.50148160  0.50668910  0.33054298  1
  Sb  Sb102  1  0.50022750  0.16134086  0.33023117  1
  Sb  Sb103  1  0.17100220  0.16376102  0.66741767  1
  Sb  Sb104  1  0.16844504  0.17175693  0.33132777  1
  Sb  Sb105  1  0.50064863  0.67371700  0.16445326  1
  Sb  Sb106  1  -0.00458892  -0.00551201  0.32886710  1
  Sb  Sb107  1  0.66625913  0.33271733  0.66624501  1
  Te  Te108  1  0.17333662  0.17364095  0.16628522  1
  Te  Te109  1  0.16746790  0.16441572  0.50022026  1
  Te  Te110  1  0.17580921  0.16620178  0.83455574  1
  Te  Te111  1  0.16773476  0.50013352  0.16697630  1
  Te  Te112  1  0.16749784  0.50875685  0.49346008  1
  Te  Te113  1  0.16743820  0.50045360  0.84537353  1
  Te  Te114  1  0.16811254  0.82996078  0.16701793  1
  Te  Te115  1  0.16667744  0.82711201  0.50885931  1
  Te  Te116  1  0.16868232  0.83358922  0.83010904  1
  Te  Te117  1  0.49563711  0.16232434  0.16225079  1
  Te  Te118  1  0.50752187  0.16584628  0.50545189  1
  Te  Te119  1  0.50103862  0.16373361  0.83450415  1
  Te  Te120  1  0.50565400  0.49978182  0.16242666  1
  Te  Te121  1  0.50302361  0.49922282  0.50996824  1
  Te  Te122  1  0.50095352  0.50224048  0.83445581  1
  Te  Te123  1  0.50117290  0.83457493  0.16531415  1
  Te  Te124  1  0.50662059  0.83369818  0.50619999  1
  Te  Te125  1  0.50155767  0.83009417  0.83144259  1
  Te  Te126  1  0.83354395  0.17626456  0.16575292  1
  Te  Te127  1  0.82760160  0.17083433  0.50006285  1
  Te  Te128  1  0.82760022  0.16389050  0.83369756  1
  Te  Te129  1  0.83047768  0.50039652  0.16765832  1
  Te  Te130  1  0.83205015  0.50134059  0.50069668  1
  Te  Te131  1  0.83105718  0.50472600  0.82982222  1
  Te  Te132  1  0.83230708  0.83120130  0.16736547  1
  Te  Te133  1  0.83013801  0.83078899  0.50310482  1
  Te  Te134  1  0.83243376  0.83326609  0.82936249  1
  Te  Te135  1  0.16017226  -0.00496524  0.00650551  1
  Te  Te136  1  0.16477764  0.00168134  0.32644375  1
  Te  Te137  1  0.16032003  -0.00577823  0.66567655  1
  Te  Te138  1  0.16318892  0.33401251  0.00393682  1
  Te  Te139  1  0.16621813  0.33977481  0.33157327  1
  Te  Te140  1  0.16872215  0.33595568  0.66503202  1
  Te  Te141  1  0.16635920  0.66857012  0.00343850  1
  Te  Te142  1  0.16777685  0.66459653  0.33157953  1
  Te  Te143  1  0.16774454  0.66801906  0.66949832  1
  Te  Te144  1  0.50191442  -0.00308924  0.00329694  1
  Te  Te145  1  0.50028521  -0.00436016  0.32914676  1
  Te  Te146  1  0.49813566  -0.00409093  0.66671593  1
  Te  Te147  1  0.50001229  0.33522386  -0.00463363  1
  Te  Te148  1  0.49424676  0.33550364  0.33459137  1
  Te  Te149  1  0.49722257  0.33361835  0.66945122  1
  Te  Te150  1  0.50041576  0.66681102  -0.00569282  1
  Te  Te151  1  0.49269437  0.67070923  0.33515211  1
  Te  Te152  1  0.50092801  0.66639303  0.66811100  1
  Te  Te153  1  0.83327965  -0.00391249  0.00342397  1
  Te  Te154  1  0.83160396  0.00236463  0.33191083  1
  Te  Te155  1  0.83623440  -0.00105489  0.66628087  1
  Te  Te156  1  0.83830928  0.33545089  0.00146882  1
  Te  Te157  1  0.83381275  0.33844640  0.33311733  1
  Te  Te158  1  0.83552343  0.33490893  0.66644103  1
  Te  Te159  1  0.83378556  0.67280651  -0.00026819  1
  Te  Te160  1  0.83535303  0.66410407  0.33340928  1
  Te  Te161  1  0.83223644  0.66723641  0.66527047  1
  Te  Te162  1  0.00040862  0.16925077  -0.00162491  1
  Te  Te163  1  0.00046259  0.17873190  0.33426964  1
  Te  Te164  1  0.00217100  0.17258086  0.66774851  1
  Te  Te165  1  0.00358587  0.49482559  0.00036427  1
  Te  Te166  1  -0.00155727  0.50169217  0.33277679  1
  Te  Te167  1  -0.00298536  0.50033194  0.66667241  1
  Te  Te168  1  -0.00018431  0.83492228  0.00305978  1
  Te  Te169  1  0.00343643  0.82751142  0.32705239  1
  Te  Te170  1  -0.00297967  0.83078860  0.66632448  1
  Te  Te171  1  0.33896330  0.16632505  0.00085383  1
  Te  Te172  1  0.33503495  0.17108645  0.32976283  1
  Te  Te173  1  0.33859245  0.16742563  0.66644899  1
  Te  Te174  1  0.33526183  0.50035237  -0.00003421  1
  Te  Te175  1  0.33297324  0.50200666  0.33337178  1
  Te  Te176  1  0.33475264  0.50027925  0.66636743  1
  Te  Te177  1  0.33174143  0.83389385  0.00467661  1
  Te  Te178  1  0.33814643  0.83194498  0.33015890  1
  Te  Te179  1  0.33873541  0.83008247  0.66628344  1
  Te  Te180  1  0.66083183  0.16137411  -0.00204677  1
  Te  Te181  1  0.66472256  0.16190326  0.33907410  1
  Te  Te182  1  0.66051843  0.16523134  0.66678470  1
  Te  Te183  1  0.66301352  0.49911030  0.00607580  1
  Te  Te184  1  0.67008477  0.50420054  0.32822287  1
  Te  Te185  1  0.66733671  0.50072873  0.66705885  1
  Te  Te186  1  0.66685775  0.83762935  0.00295525  1
  Te  Te187  1  0.66429037  0.83312650  0.33182010  1
  Te  Te188  1  0.66813769  0.83388104  0.66449942  1
  Te  Te189  1  -0.00471004  -0.00291246  0.16488171  1
  Te  Te190  1  -0.00813767  0.00010915  0.50251261  1
  Te  Te191  1  -0.00572462  0.00099836  0.83222985  1
  Te  Te192  1  0.00140727  0.33039738  0.16813858  1
  Te  Te193  1  -0.00505520  0.33243901  0.50439462  1
  Te  Te194  1  0.00041754  0.33278622  0.82672444  1
  Te  Te195  1  -0.00131535  0.67145865  0.16753408  1
  Te  Te196  1  -0.00151756  0.66776201  0.49972009  1
  Te  Te197  1  -0.00511227  0.66644275  0.82551639  1
  Te  Te198  1  0.33236893  -0.00145915  0.16873313  1
  Te  Te199  1  0.33041010  0.00009429  0.48824367  1
  Te  Te200  1  0.33156897  0.00617160  0.83178896  1
  Te  Te201  1  0.33095088  0.33430152  0.17003479  1
  Te  Te202  1  0.33183162  0.33278285  0.50007125  1
  Te  Te203  1  0.33774124  0.32944502  0.82896915  1
  Te  Te204  1  0.33057951  0.67110857  0.16928627  1
  Te  Te205  1  0.33087147  0.66733189  0.50143901  1
  Te  Te206  1  0.33749706  0.66817270  0.82631524  1
  Te  Te207  1  0.66821097  -0.00155560  0.16764019  1
  Te  Te208  1  0.67225618  -0.00254536  0.49868345  1
  Te  Te209  1  0.67239830  0.00377265  0.83663583  1
  Te  Te210  1  0.67009608  0.33187487  0.16805665  1
  Te  Te211  1  0.67380324  0.33118849  0.49840821  1
  Te  Te212  1  0.66019730  0.32701660  0.83428270  1
  Te  Te213  1  0.66749634  0.67053766  0.17063964  1
  Te  Te214  1  0.67185082  0.67109125  0.49162065  1
  Te  Te215  1  0.66718865  0.66642995  0.83485745  1
