# generated using pymatgen
data_AgSbTe2
_symmetry_space_group_name_H-M   'P 1'
_cell_length_a   18.34003779
_cell_length_b   18.35161461
_cell_length_c   18.34422988
_cell_angle_alpha   89.99787992
_cell_angle_beta   89.99742011
_cell_angle_gamma   89.99994712
_symmetry_Int_Tables_number   1
_chemical_formula_structural   AgSbTe2
_chemical_formula_sum   'Ag54 Sb54 Te108'
_cell_volume   6174.10469726
_cell_formula_units_Z   54
loop_
 _symmetry_equiv_pos_site_id
 _symmetry_equiv_pos_as_xyz
  1  'x, y, z'
loop_
 _atom_site_type_symbol
 _atom_site_label
 _atom_site_symmetry_multiplicity
 _atom_site_fract_x
 _atom_site_fract_y
 _atom_site_fract_z
 _atom_site_occupancy
  Ag  Ag0  1  -0.00593959  0.33660503  0.67604244  1
  Ag  Ag1  1  0.50316292  0.65748625  0.16042725  1
  Ag  Ag2  1  0.50160519  0.82936419  0.67172560  1
  Ag  Ag3  1  0.67041079  0.66401710  0.66758629  1
  Ag  Ag4  1  0.83331820  0.18030862  0.66757044  1
  Ag  Ag5  1  0.82940763  0.50416148  0.32641819  1
  Ag  Ag6  1  0.50400176  0.82561056  0.33522405  1
  Ag  Ag7  1  0.33566631  0.83444019  0.49999031  1
  Ag  Ag8  1  0.16687873  0.81964896  -0.00576117  1
  Ag  Ag9  1  0.49845805  0.34659256  0.15872787  1
  Ag  Ag10  1  0.83778894  0.49683536  -0.00009718  1
  Ag  Ag11  1  0.83212279  0.17471274  0.00094731  1
  Ag  Ag12  1  0.16544328  0.66744772  0.15514700  1
  Ag  Ag13  1  0.32257172  0.49154614  0.83845436  1
  Ag  Ag14  1  0.50365364  0.50217941  0.32111636  1
  Ag  Ag15  1  0.00950329  0.49500443  0.83672618  1
  Ag  Ag16  1  0.00097926  0.18010344  0.83483727  1
  Ag  Ag17  1  0.66791582  0.17589245  0.16520737  1
  Ag  Ag18  1  0.00244200  0.65720716  -0.00346712  1
  Ag  Ag19  1  0.67436662  0.34086415  0.66784688  1
  Ag  Ag20  1  0.33248010  0.17965961  0.83619054  1
  Ag  Ag21  1  0.82900528  0.83243076  0.33846031  1
  Ag  Ag22  1  0.49231708  0.34241725  0.84018945  1
  Ag  Ag23  1  0.33885756  0.33322601  0.33113803  1
  Ag  Ag24  1  0.34447016  0.49825842  0.15536278  1
  Ag  Ag25  1  0.33855319  0.33598956  -0.00677919  1
  Ag  Ag26  1  0.66447930  0.82981588  0.82954842  1
  Ag  Ag27  1  0.65643280  0.49925103  0.16638946  1
  Ag  Ag28  1  0.83428645  0.49725517  0.66919482  1
  Ag  Ag29  1  0.18064019  0.34586387  0.83409464  1
  Ag  Ag30  1  0.16854075  0.65597444  0.83741781  1
  Ag  Ag31  1  0.33698476  0.33529936  0.68138992  1
  Ag  Ag32  1  0.00185832  0.33882695  -0.00769925  1
  Ag  Ag33  1  0.16717305  -0.00506909  0.16497450  1
  Ag  Ag34  1  0.49746194  0.18100277  -0.00272178  1
  Ag  Ag35  1  0.48962331  0.49698920  0.00635779  1
  Ag  Ag36  1  0.83518330  -0.00314570  0.17153991  1
  Ag  Ag37  1  0.50092857  0.33532944  0.50398970  1
  Ag  Ag38  1  0.16703341  0.50253957  -0.00555342  1
  Ag  Ag39  1  -0.01306931  -0.00053116  0.33093389  1
  Ag  Ag40  1  0.83027587  0.33661540  0.50483861  1
  Ag  Ag41  1  0.33351555  0.00141055  0.32663767  1
  Ag  Ag42  1  0.83449707  -0.00329818  0.49220653  1
  Ag  Ag43  1  0.83289518  0.16033390  0.33020240  1
  Ag  Ag44  1  0.16550044  0.82742373  0.67662863  1
  Ag  Ag45  1  0.00111017  0.82990915  0.83324170  1
  Ag  Ag46  1  0.16320038  0.50208687  0.68003083  1
  Ag  Ag47  1  0.82539955  0.66252519  0.17045634  1
  Ag  Ag48  1  0.49682406  -0.00053565  0.83527474  1
  Ag  Ag49  1  0.66916180  0.66453070  0.32965134  1
  Ag  Ag50  1  0.83148208  0.66496748  0.49718311  1
  Ag  Ag51  1  0.83068771  0.82940119  0.66419683  1
  Ag  Ag52  1  0.49660937  0.66216837  0.83968273  1
  Ag  Ag53  1  0.33306651  0.00629203  0.00134193  1
  Sb  Sb54  1  0.66353560  0.33976843  0.33488451  1
  Sb  Sb55  1  0.67003411  0.66402774  -0.00001450  1
  Sb  Sb56  1  0.50011605  -0.00245262  0.16401323  1
  Sb  Sb57  1  -0.00740342  0.16624850  0.16064756  1
  Sb  Sb58  1  0.16797564  0.50065326  0.32604406  1
  Sb  Sb59  1  0.33643043  0.16555900  0.50352033  1
  Sb  Sb60  1  0.66613594  0.16705027  0.83605694  1
  Sb  Sb61  1  0.33555679  0.50127040  0.50145027  1
  Sb  Sb62  1  0.49392257  0.82757668  -0.00265734  1
  Sb  Sb63  1  0.82715265  0.33701126  0.16841523  1
  Sb  Sb64  1  -0.00581752  0.49937417  0.50797801  1
  Sb  Sb65  1  0.66617760  0.83110466  0.50394339  1
  Sb  Sb66  1  0.16580679  0.83198182  0.33090696  1
  Sb  Sb67  1  0.66763004  0.82922546  0.16428778  1
  Sb  Sb68  1  0.16296619  0.16587031  0.32975662  1
  Sb  Sb69  1  0.83153421  -0.00010785  0.83510628  1
  Sb  Sb70  1  0.16827273  0.33620226  0.50911747  1
  Sb  Sb71  1  0.66414336  0.33548014  -0.00451085  1
  Sb  Sb72  1  0.16822434  0.17131257  -0.00140885  1
  Sb  Sb73  1  -0.00042117  0.83301695  0.16174895  1
  Sb  Sb74  1  -0.00897915  0.67064330  0.32493082  1
  Sb  Sb75  1  0.32811298  0.65986772  -0.00035760  1
  Sb  Sb76  1  0.66746174  -0.00536074  0.33124336  1
  Sb  Sb77  1  0.16374080  -0.00393648  0.49515615  1
  Sb  Sb78  1  0.66757931  0.50021644  0.49607043  1
  Sb  Sb79  1  -0.00505172  0.66238244  0.67528630  1
  Sb  Sb80  1  -0.00133212  0.50104628  0.15790969  1
  Sb  Sb81  1  -0.00223379  0.33139923  0.33253258  1
  Sb  Sb82  1  0.50487246  0.17045466  0.67577519  1
  Sb  Sb83  1  0.50287152  -0.00036141  0.50153207  1
  Sb  Sb84  1  0.00337910  0.00221149  0.00238631  1
  Sb  Sb85  1  0.33366409  0.82923665  0.16724608  1
  Sb  Sb86  1  0.33833249  0.17073937  0.16076119  1
  Sb  Sb87  1  0.50411039  0.16938645  0.32608870  1
  Sb  Sb88  1  0.66296163  0.00120307  0.00093371  1
  Sb  Sb89  1  0.16142105  0.66702810  0.50465988  1
  Sb  Sb90  1  0.33259022  0.83062942  0.83221758  1
  Sb  Sb91  1  0.50242858  0.50016315  0.67096477  1
  Sb  Sb92  1  0.16242862  0.16994096  0.67184482  1
  Sb  Sb93  1  0.66950097  0.16994665  0.49582137  1
  Sb  Sb94  1  0.17471236  0.33826123  0.15735585  1
  Sb  Sb95  1  0.34014070  0.66528140  0.33121096  1
  Sb  Sb96  1  0.83485397  0.66612162  0.83438097  1
  Sb  Sb97  1  0.33681794  0.66311947  0.66855455  1
  Sb  Sb98  1  0.33314882  0.00236290  0.67008299  1
  Sb  Sb99  1  -0.00209054  0.00142664  0.66602614  1
  Sb  Sb100  1  -0.00219252  0.83267555  0.50448092  1
  Sb  Sb101  1  0.83393982  0.33461429  0.83015318  1
  Sb  Sb102  1  0.17023095  -0.00260643  0.83906759  1
  Sb  Sb103  1  -0.00597108  0.16706402  0.50561167  1
  Sb  Sb104  1  0.50526901  0.66346713  0.49921771  1
  Sb  Sb105  1  0.83849724  0.83172913  -0.00011388  1
  Sb  Sb106  1  0.66538771  0.50214193  0.83665192  1
  Sb  Sb107  1  0.66841516  -0.00164137  0.66788020  1
  Te  Te108  1  0.16672203  0.15927644  0.16633688  1
  Te  Te109  1  0.16632087  0.16593235  0.50091048  1
  Te  Te110  1  0.16597580  0.16661874  0.83307806  1
  Te  Te111  1  0.16937731  0.50542725  0.16086504  1
  Te  Te112  1  0.16615496  0.50196735  0.50518925  1
  Te  Te113  1  0.16512946  0.50018797  0.83519622  1
  Te  Te114  1  0.16672812  0.83096630  0.16269730  1
  Te  Te115  1  0.17078049  0.83165331  0.50516857  1
  Te  Te116  1  0.16609839  0.83303913  0.83407510  1
  Te  Te117  1  0.50595276  0.16406097  0.15850031  1
  Te  Te118  1  0.50160298  0.17233327  0.49997502  1
  Te  Te119  1  0.49838613  0.16395047  0.83810397  1
  Te  Te120  1  0.50003173  0.50176274  0.16548690  1
  Te  Te121  1  0.49931488  0.49503788  0.49357775  1
  Te  Te122  1  0.50065351  0.50189401  0.83494215  1
  Te  Te123  1  0.50157612  0.82835421  0.17178028  1
  Te  Te124  1  0.49805351  0.83401011  0.49741084  1
  Te  Te125  1  0.49914729  0.82684978  0.83250727  1
  Te  Te126  1  0.82930173  0.16973587  0.16631513  1
  Te  Te127  1  0.83266182  0.16928511  0.50190659  1
  Te  Te128  1  0.83507291  0.16443680  0.83419514  1
  Te  Te129  1  0.83407386  0.50214548  0.16688798  1
  Te  Te130  1  0.83270694  0.49959578  0.50465066  1
  Te  Te131  1  0.83313200  0.50138079  0.83459057  1
  Te  Te132  1  0.83314799  0.83123489  0.16970718  1
  Te  Te133  1  0.83243873  0.83238239  0.49947670  1
  Te  Te134  1  0.83495484  0.83381530  0.83108541  1
  Te  Te135  1  0.17125727  0.00360866  0.00581980  1
  Te  Te136  1  0.17256745  -0.00117112  0.32746927  1
  Te  Te137  1  0.16625406  -0.00811331  0.66457541  1
  Te  Te138  1  0.16704764  0.33725358  -0.00483934  1
  Te  Te139  1  0.17000078  0.33366828  0.33366683  1
  Te  Te140  1  0.16677976  0.33616679  0.67270461  1
  Te  Te141  1  0.16610520  0.66385693  -0.00204934  1
  Te  Te142  1  0.16475122  0.66616150  0.33008500  1
  Te  Te143  1  0.16607797  0.66644662  0.67120947  1
  Te  Te144  1  0.49497966  -0.00432733  -0.00325952  1
  Te  Te145  1  0.49568859  -0.00200737  0.33401860  1
  Te  Te146  1  0.50006016  -0.00541069  0.67055877  1
  Te  Te147  1  0.50037386  0.33671294  -0.00044652  1
  Te  Te148  1  0.49947758  0.33423955  0.33242605  1
  Te  Te149  1  0.49602305  0.33350792  0.66411318  1
  Te  Te150  1  0.50183696  0.66179193  0.00030704  1
  Te  Te151  1  0.50499333  0.66534395  0.33439974  1
  Te  Te152  1  0.50469588  0.66902793  0.66579789  1
  Te  Te153  1  0.83404491  0.00113317  0.00601972  1
  Te  Te154  1  0.82994989  -0.00085630  0.33199037  1
  Te  Te155  1  0.83437814  -0.00994326  0.66507801  1
  Te  Te156  1  0.83411770  0.33374308  0.00148498  1
  Te  Te157  1  0.83308106  0.33736298  0.33855959  1
  Te  Te158  1  0.83351440  0.33638771  0.66666464  1
  Te  Te159  1  0.83850672  0.66488598  0.00467474  1
  Te  Te160  1  0.83064227  0.66592142  0.33137931  1
  Te  Te161  1  0.83089750  0.66903752  0.66763848  1
  Te  Te162  1  -0.00429018  0.16970112  -0.00559435  1
  Te  Te163  1  -0.00684171  0.16262436  0.33236724  1
  Te  Te164  1  -0.00559303  0.17030406  0.67367311  1
  Te  Te165  1  -0.00131854  0.49852279  -0.00344027  1
  Te  Te166  1  -0.00499633  0.49948362  0.33407099  1
  Te  Te167  1  -0.00202925  0.49709721  0.67340687  1
  Te  Te168  1  0.00612079  0.83427041  -0.00535037  1
  Te  Te169  1  -0.00421009  0.83806234  0.33410289  1
  Te  Te170  1  -0.00002469  0.83321378  0.67053321  1
  Te  Te171  1  0.33600388  0.17021811  -0.00353208  1
  Te  Te172  1  0.33402634  0.16600843  0.33349591  1
  Te  Te173  1  0.33352505  0.17192747  0.67206709  1
  Te  Te174  1  0.33227476  0.49847580  -0.00190151  1
  Te  Te175  1  0.33546609  0.49734924  0.33346091  1
  Te  Te176  1  0.33216282  0.49551025  0.66900897  1
  Te  Te177  1  0.32701047  0.84133696  -0.00002571  1
  Te  Te178  1  0.33421001  0.83560501  0.33533586  1
  Te  Te179  1  0.33599634  0.83358080  0.66471857  1
  Te  Te180  1  0.67021227  0.16782017  0.00351292  1
  Te  Te181  1  0.67298224  0.16724229  0.32653468  1
  Te  Te182  1  0.67317105  0.16970002  0.66728802  1
  Te  Te183  1  0.67679892  0.49994946  0.00570633  1
  Te  Te184  1  0.66796497  0.50395131  0.32878426  1
  Te  Te185  1  0.67017991  0.50150001  0.66805256  1
  Te  Te186  1  0.66630713  0.83273997  -0.00829753  1
  Te  Te187  1  0.66726335  0.82799048  0.33269092  1
  Te  Te188  1  0.66584012  0.83169860  0.66963522  1
  Te  Te189  1  -0.00168595  -0.00030281  0.17083785  1
  Te  Te190  1  -0.00501300  -0.00004473  0.49243851  1
  Te  Te191  1  0.00094206  -0.00598643  0.83370329  1
  Te  Te192  1  0.00487838  0.33259114  0.16205121  1
  Te  Te193  1  -0.00368094  0.33266589  0.50321808  1
  Te  Te194  1  -0.00616564  0.33532386  0.83489446  1
  Te  Te195  1  0.00426886  0.66721599  0.15859643  1
  Te  Te196  1  -0.00818860  0.66678900  0.49804586  1
  Te  Te197  1  0.00236874  0.66849114  0.83747052  1
  Te  Te198  1  0.33288669  0.00062490  0.16580012  1
  Te  Te199  1  0.33367595  -0.00229886  0.49702701  1
  Te  Te200  1  0.33728529  0.00102844  0.83670412  1
  Te  Te201  1  0.33801165  0.33643273  0.16936072  1
  Te  Te202  1  0.33521935  0.33323803  0.49234307  1
  Te  Te203  1  0.33546022  0.33493638  0.83711104  1
  Te  Te204  1  0.33766787  0.66113106  0.16690161  1
  Te  Te205  1  0.33180809  0.67335330  0.49983821  1
  Te  Te206  1  0.33396483  0.66141742  0.83298113  1
  Te  Te207  1  0.67298259  0.00059736  0.16618008  1
  Te  Te208  1  0.67498708  0.00181455  0.49936931  1
  Te  Te209  1  0.65938373  -0.00570777  0.83408760  1
  Te  Te210  1  0.66047774  0.33649625  0.16724538  1
  Te  Te211  1  0.66734341  0.33428415  0.50672295  1
  Te  Te212  1  0.65519857  0.33265988  0.82699220  1
  Te  Te213  1  0.66593316  0.66405451  0.16766493  1
  Te  Te214  1  0.67258910  0.66615002  0.50353106  1
  Te  Te215  1  0.66337290  0.66912709  0.83040337  1
