# generated using pymatgen
data_AgSbTe2
_symmetry_space_group_name_H-M   'P 1'
_cell_length_a   18.35005951
_cell_length_b   18.34167176
_cell_length_c   18.34584856
_cell_angle_alpha   90.00404564
_cell_angle_beta   90.00291323
_cell_angle_gamma   89.99811551
_symmetry_Int_Tables_number   1
_chemical_formula_structural   AgSbTe2
_chemical_formula_sum   'Ag54 Sb54 Te108'
_cell_volume   6174.67631778
_cell_formula_units_Z   54
loop_
 _symmetry_equiv_pos_site_id
 _symmetry_equiv_pos_as_xyz
  1  'x, y, z'
loop_
 _atom_site_type_symbol
 _atom_site_label
 _atom_site_symmetry_multiplicity
 _atom_site_fract_x
 _atom_site_fract_y
 _atom_site_fract_z
 _atom_site_occupancy
  Ag  Ag0  1  0.33322222  0.51481051  0.49690663  1
  Ag  Ag1  1  0.83342708  0.66750972  0.48719143  1
  Ag  Ag2  1  -0.00463711  0.83695018  0.83443493  1
  Ag  Ag3  1  0.32862961  0.16595756  0.82730426  1
  Ag  Ag4  1  0.66285543  0.32401887  0.00214610  1
  Ag  Ag5  1  0.17201399  -0.00087370  0.49339715  1
  Ag  Ag6  1  0.33376822  0.16322316  0.50183609  1
  Ag  Ag7  1  0.48673790  0.16433615  0.65729548  1
  Ag  Ag8  1  0.32925408  0.00733336  0.65453003  1
  Ag  Ag9  1  0.33255515  0.49774926  0.83165940  1
  Ag  Ag10  1  0.48725334  0.66694894  0.48943189  1
  Ag  Ag11  1  0.00429793  0.66807074  0.65665885  1
  Ag  Ag12  1  0.83044899  0.83321718  0.32872234  1
  Ag  Ag13  1  0.83481787  0.33133611  0.83748366  1
  Ag  Ag14  1  0.50162024  0.83214870  0.32947508  1
  Ag  Ag15  1  0.17060223  0.84054008  0.33463391  1
  Ag  Ag16  1  0.17629305  0.67263073  0.49847032  1
  Ag  Ag17  1  0.00662699  0.16366973  0.83350916  1
  Ag  Ag18  1  0.67577006  0.83264016  0.84624470  1
  Ag  Ag19  1  0.50411815  0.15885345  0.33323475  1
  Ag  Ag20  1  0.17187635  0.50225765  0.66520563  1
  Ag  Ag21  1  0.33823254  0.50371444  0.17105102  1
  Ag  Ag22  1  -0.01384864  0.67398756  0.33724716  1
  Ag  Ag23  1  -0.00181862  0.32911326  0.00044098  1
  Ag  Ag24  1  0.66620719  0.15492669  0.17070660  1
  Ag  Ag25  1  0.32246319  -0.00461132  0.33744954  1
  Ag  Ag26  1  0.50684700  0.66811140  0.17282691  1
  Ag  Ag27  1  0.16720554  0.00353114  0.83171714  1
  Ag  Ag28  1  0.33186416  0.82990549  0.49472694  1
  Ag  Ag29  1  0.16934275  0.16222402  0.66735711  1
  Ag  Ag30  1  0.00922132  -0.00219075  0.33256356  1
  Ag  Ag31  1  0.83410549  0.67040899  0.83221135  1
  Ag  Ag32  1  0.66655512  -0.00060493  0.01067933  1
  Ag  Ag33  1  0.66840743  0.83630961  0.16787683  1
  Ag  Ag34  1  -0.00233091  0.31997113  0.32925955  1
  Ag  Ag35  1  0.65920086  0.16454829  0.48630235  1
  Ag  Ag36  1  0.50627097  0.83396732  0.00750648  1
  Ag  Ag37  1  0.66886779  -0.00280641  0.32854284  1
  Ag  Ag38  1  0.67230930  0.67821008  0.32963706  1
  Ag  Ag39  1  0.32867972  0.66838997  0.65486989  1
  Ag  Ag40  1  0.16445818  0.00179572  0.18045350  1
  Ag  Ag41  1  0.33667378  0.67789143  0.34197910  1
  Ag  Ag42  1  0.82623079  -0.00461715  0.17138557  1
  Ag  Ag43  1  0.83032106  0.15970169  0.33490826  1
  Ag  Ag44  1  0.16839053  0.15479898  0.33498525  1
  Ag  Ag45  1  0.33902403  0.32917917  -0.00032450  1
  Ag  Ag46  1  0.83450954  0.16604888  0.66418386  1
  Ag  Ag47  1  0.49916353  0.16686184  0.00311954  1
  Ag  Ag48  1  0.83281748  0.51711539  0.33249102  1
  Ag  Ag49  1  0.82448023  0.67325115  0.17599987  1
  Ag  Ag50  1  0.82404760  0.83306685  0.01060487  1
  Ag  Ag51  1  0.66321429  0.51190252  0.16736202  1
  Ag  Ag52  1  0.49841831  0.50171351  0.00398226  1
  Ag  Ag53  1  0.17380275  0.16490473  -0.00484935  1
  Sb  Sb54  1  0.49730794  0.83646484  0.66282355  1
  Sb  Sb55  1  0.16514366  0.50222079  0.33673072  1
  Sb  Sb56  1  0.66648045  0.16199008  0.83794742  1
  Sb  Sb57  1  0.49845847  0.33303602  0.49760535  1
  Sb  Sb58  1  0.50127384  0.50666389  0.32809745  1
  Sb  Sb59  1  0.33038616  0.32999501  0.32968933  1
  Sb  Sb60  1  0.16774336  0.67217539  0.17708813  1
  Sb  Sb61  1  0.50120397  0.33098441  0.83775784  1
  Sb  Sb62  1  0.00296220  0.16495918  0.49952996  1
  Sb  Sb63  1  0.16755517  0.83992498  0.00612351  1
  Sb  Sb64  1  0.00687293  0.50435114  0.49869404  1
  Sb  Sb65  1  0.83454495  0.83640954  0.66408081  1
  Sb  Sb66  1  -0.00260565  0.66526181  0.00233884  1
  Sb  Sb67  1  0.00364397  0.49941433  0.83367966  1
  Sb  Sb68  1  0.50128296  0.33725957  0.16550500  1
  Sb  Sb69  1  -0.00313901  0.16487379  0.16709718  1
  Sb  Sb70  1  0.33697062  0.00455484  0.00460517  1
  Sb  Sb71  1  0.82762238  0.50305398  0.00556140  1
  Sb  Sb72  1  0.66419425  0.50408932  0.84264349  1
  Sb  Sb73  1  0.66291710  0.00230578  0.66434260  1
  Sb  Sb74  1  0.16733002  0.32824346  0.16641670  1
  Sb  Sb75  1  0.49153560  -0.00158892  0.49367772  1
  Sb  Sb76  1  0.83688982  -0.00280166  0.49081245  1
  Sb  Sb77  1  0.66662046  0.66808647  0.65961418  1
  Sb  Sb78  1  0.66242255  0.83769489  0.49253619  1
  Sb  Sb79  1  0.83259936  0.33394319  0.49896812  1
  Sb  Sb80  1  0.17419429  0.49262603  -0.00405398  1
  Sb  Sb81  1  0.33797662  0.16681179  0.16928275  1
  Sb  Sb82  1  0.33237344  0.33012880  0.67183147  1
  Sb  Sb83  1  0.67089085  0.32855682  0.32634334  1
  Sb  Sb84  1  0.83211787  0.16328704  0.00179272  1
  Sb  Sb85  1  0.16804283  0.33054710  0.49881115  1
  Sb  Sb86  1  0.66245733  0.49971752  0.49155968  1
  Sb  Sb87  1  0.49266555  0.49740423  0.66945921  1
  Sb  Sb88  1  0.66819634  0.33042405  0.67388299  1
  Sb  Sb89  1  0.66690641  0.67343536  0.00998829  1
  Sb  Sb90  1  0.50266960  0.66871851  0.83387444  1
  Sb  Sb91  1  -0.00214977  0.00316127  0.00381581  1
  Sb  Sb92  1  0.83118244  0.33223255  0.16505671  1
  Sb  Sb93  1  0.34040884  0.83152256  0.17453388  1
  Sb  Sb94  1  0.83711803  0.50069378  0.66355005  1
  Sb  Sb95  1  0.83611938  -0.00068967  0.83720318  1
  Sb  Sb96  1  -0.00075433  0.50139421  0.16927922  1
  Sb  Sb97  1  0.16736275  0.83625320  0.65959222  1
  Sb  Sb98  1  0.49640026  0.00128063  0.83456601  1
  Sb  Sb99  1  0.50254634  -0.00364407  0.16936281  1
  Sb  Sb100  1  0.00526088  -0.00198503  0.66403179  1
  Sb  Sb101  1  0.33259080  0.83559572  0.82972524  1
  Sb  Sb102  1  -0.00846394  0.83465504  0.16722815  1
  Sb  Sb103  1  0.33500107  0.66382395  0.00166142  1
  Sb  Sb104  1  0.16449775  0.67140733  0.82514808  1
  Sb  Sb105  1  0.00076915  0.33348753  0.66688786  1
  Sb  Sb106  1  0.00430191  0.83124379  0.49676980  1
  Sb  Sb107  1  0.16448113  0.32474841  0.83417171  1
  Te  Te108  1  0.16682142  0.16216892  0.16940445  1
  Te  Te109  1  0.16891819  0.16471112  0.49959610  1
  Te  Te110  1  0.16747462  0.16480456  0.83297053  1
  Te  Te111  1  0.17279789  0.50208936  0.16540315  1
  Te  Te112  1  0.17343733  0.50193511  0.50447200  1
  Te  Te113  1  0.17218103  0.50212872  0.82770203  1
  Te  Te114  1  0.16631097  0.84025991  0.17301968  1
  Te  Te115  1  0.16964738  0.83376416  0.49465986  1
  Te  Te116  1  0.16422047  0.83896307  0.83631841  1
  Te  Te117  1  0.50472914  0.16717664  0.16575191  1
  Te  Te118  1  0.49890229  0.16617891  0.49868354  1
  Te  Te119  1  0.49587493  0.16672382  0.83917694  1
  Te  Te120  1  0.50052835  0.50445491  0.16423277  1
  Te  Te121  1  0.49414784  0.50403141  0.50048634  1
  Te  Te122  1  0.49413196  0.50042146  0.83904728  1
  Te  Te123  1  0.50475782  0.82928923  0.16810192  1
  Te  Te124  1  0.49642537  0.82700959  0.49591637  1
  Te  Te125  1  0.50168845  0.83337100  0.83754208  1
  Te  Te126  1  0.82860482  0.16265284  0.16936339  1
  Te  Te127  1  0.83380486  0.16605015  0.50038858  1
  Te  Te128  1  0.83414990  0.16753063  0.83298058  1
  Te  Te129  1  0.83002849  0.50431935  0.17128848  1
  Te  Te130  1  0.83160052  0.50298859  0.49459531  1
  Te  Te131  1  0.83351730  0.50062456  0.83340258  1
  Te  Te132  1  0.83047975  0.83383191  0.16765495  1
  Te  Te133  1  0.83190293  0.82950590  0.49628594  1
  Te  Te134  1  0.83482019  0.83332751  0.83000952  1
  Te  Te135  1  0.16662606  0.00526731  -0.00605821  1
  Te  Te136  1  0.16613088  -0.00065655  0.33681966  1
  Te  Te137  1  0.16969903  0.00232817  0.66876795  1
  Te  Te138  1  0.16367034  0.32570590  0.00026240  1
  Te  Te139  1  0.15886979  0.33209245  0.33204660  1
  Te  Te140  1  0.16480978  0.33365995  0.66642388  1
  Te  Te141  1  0.16513542  0.66781246  0.00159543  1
  Te  Te142  1  0.17611330  0.66779130  0.33877267  1
  Te  Te143  1  0.16754505  0.66850124  0.66098182  1
  Te  Te144  1  0.50455505  -0.00001650  0.00125620  1
  Te  Te145  1  0.50836780  -0.00117005  0.33268924  1
  Te  Te146  1  0.49304109  0.00527989  0.66642604  1
  Te  Te147  1  0.50032718  0.32979642  0.00073087  1
  Te  Te148  1  0.49979886  0.32128953  0.33290829  1
  Te  Te149  1  0.50110471  0.32324058  0.66775140  1
  Te  Te150  1  0.50046664  0.66702945  0.00237499  1
  Te  Te151  1  0.49651781  0.66638387  0.33214190  1
  Te  Te152  1  0.49591424  0.66699740  0.66330336  1
  Te  Te153  1  0.83017256  -0.00521860  0.00520073  1
  Te  Te154  1  0.82847579  -0.00005411  0.33170680  1
  Te  Te155  1  0.83416273  0.00536377  0.66414083  1
  Te  Te156  1  0.83484429  0.33454742  -0.00187556  1
  Te  Te157  1  0.83786982  0.32071126  0.33252631  1
  Te  Te158  1  0.83554442  0.32992063  0.67155326  1
  Te  Te159  1  0.83374583  0.67156001  -0.00625069  1
  Te  Te160  1  0.83080768  0.67248110  0.33092183  1
  Te  Te161  1  0.83623734  0.66644728  0.67144425  1
  Te  Te162  1  0.00047487  0.16966202  -0.00331089  1
  Te  Te163  1  0.00218091  0.16180502  0.33369716  1
  Te  Te164  1  0.00201207  0.16645359  0.66973562  1
  Te  Te165  1  0.00143791  0.49172451  0.00090095  1
  Te  Te166  1  -0.00492109  0.50752271  0.33278160  1
  Te  Te167  1  0.00640768  0.50613843  0.66645419  1
  Te  Te168  1  -0.00086098  0.83396152  -0.00569776  1
  Te  Te169  1  -0.00317960  0.83407353  0.33285937  1
  Te  Te170  1  0.00063758  0.82813714  0.67340734  1
  Te  Te171  1  0.33437149  0.16831884  0.00219851  1
  Te  Te172  1  0.33099088  0.16580067  0.33409517  1
  Te  Te173  1  0.33032925  0.16701582  0.66799253  1
  Te  Te174  1  0.33696091  0.49663691  -0.00243368  1
  Te  Te175  1  0.33378933  0.49668943  0.33468105  1
  Te  Te176  1  0.33196662  0.49901860  0.66664852  1
  Te  Te177  1  0.33971839  0.83388024  0.00020302  1
  Te  Te178  1  0.33663231  0.83635340  0.33478617  1
  Te  Te179  1  0.33389909  0.83255256  0.66142495  1
  Te  Te180  1  0.66472227  0.16307944  0.00167177  1
  Te  Te181  1  0.66646466  0.16739398  0.33013666  1
  Te  Te182  1  0.67227987  0.16591091  0.66891836  1
  Te  Te183  1  0.66121864  0.49627526  0.00619526  1
  Te  Te184  1  0.67025007  0.49604621  0.32789250  1
  Te  Te185  1  0.66546407  0.49844140  0.66661917  1
  Te  Te186  1  0.66609101  0.83436054  0.00335144  1
  Te  Te187  1  0.66519238  0.83498222  0.33279474  1
  Te  Te188  1  0.66558911  0.83489596  0.67220084  1
  Te  Te189  1  0.00105991  0.00003055  0.17148088  1
  Te  Te190  1  0.00799548  -0.00190589  0.49517370  1
  Te  Te191  1  0.00306101  0.00211782  0.83237642  1
  Te  Te192  1  -0.00058876  0.33340897  0.16703389  1
  Te  Te193  1  -0.00052530  0.33538176  0.49143425  1
  Te  Te194  1  -0.00430551  0.33012668  0.83451694  1
  Te  Te195  1  -0.00319237  0.66704329  0.17303549  1
  Te  Te196  1  -0.00645802  0.66763740  0.49816143  1
  Te  Te197  1  -0.00301387  0.66765854  0.83445405  1
  Te  Te198  1  0.32694897  -0.00088205  0.17374796  1
  Te  Te199  1  0.33142531  0.00325785  0.49812255  1
  Te  Te200  1  0.32944784  0.00415113  0.83420094  1
  Te  Te201  1  0.33325351  0.34170085  0.16017221  1
  Te  Te202  1  0.33336197  0.32427328  0.49936817  1
  Te  Te203  1  0.33287233  0.33191599  0.83906405  1
  Te  Te204  1  0.33503252  0.66339418  0.16925311  1
  Te  Te205  1  0.33164855  0.66965413  0.49931387  1
  Te  Te206  1  0.33324684  0.66530366  0.83054765  1
  Te  Te207  1  0.66666952  -0.00260319  0.16720621  1
  Te  Te208  1  0.66757770  0.00561767  0.49630303  1
  Te  Te209  1  0.66752321  -0.00631448  0.83369441  1
  Te  Te210  1  0.66712390  0.33300009  0.15929632  1
  Te  Te211  1  0.66645764  0.32543950  0.50271806  1
  Te  Te212  1  0.67264655  0.33483928  0.84148537  1
  Te  Te213  1  0.66674170  0.66902824  0.17047706  1
  Te  Te214  1  0.67212277  0.66668415  0.49261979  1
  Te  Te215  1  0.67102174  0.67105108  0.82917216  1
