# generated using pymatgen
data_AgSbTe2
_symmetry_space_group_name_H-M   'P 1'
_cell_length_a   18.32195965
_cell_length_b   18.32377948
_cell_length_c   18.32387650
_cell_angle_alpha   89.99954778
_cell_angle_beta   90.00166590
_cell_angle_gamma   90.00062160
_symmetry_Int_Tables_number   1
_chemical_formula_structural   AgSbTe2
_chemical_formula_sum   'Ag54 Sb54 Te108'
_cell_volume   6151.83012861
_cell_formula_units_Z   54
loop_
 _symmetry_equiv_pos_site_id
 _symmetry_equiv_pos_as_xyz
  1  'x, y, z'
loop_
 _atom_site_type_symbol
 _atom_site_label
 _atom_site_symmetry_multiplicity
 _atom_site_fract_x
 _atom_site_fract_y
 _atom_site_fract_z
 _atom_site_occupancy
  Ag  Ag0  1  0.50457773  0.67054199  0.16626734  1
  Ag  Ag1  1  0.16787006  0.66889611  0.82962499  1
  Ag  Ag2  1  0.83269123  -0.00290741  0.49222013  1
  Ag  Ag3  1  -0.00606689  0.67096966  0.66993940  1
  Ag  Ag4  1  0.34428587  0.83088546  0.83133062  1
  Ag  Ag5  1  0.82983225  0.16358412  0.33401887  1
  Ag  Ag6  1  0.50418399  0.16540129  0.00550446  1
  Ag  Ag7  1  0.82291263  0.67056395  0.83219125  1
  Ag  Ag8  1  0.34156405  0.50407693  0.16863370  1
  Ag  Ag9  1  0.16792416  0.51112779  0.66955383  1
  Ag  Ag10  1  0.50270367  0.83548560  0.33124540  1
  Ag  Ag11  1  0.50485547  -0.00208899  0.16918068  1
  Ag  Ag12  1  0.49835601  0.83307718  0.67845324  1
  Ag  Ag13  1  0.00103378  0.33147498  0.00556291  1
  Ag  Ag14  1  0.83212536  0.16608428  0.65304445  1
  Ag  Ag15  1  0.16930754  0.50073680  -0.00292401  1
  Ag  Ag16  1  0.33621944  0.34045683  0.00066682  1
  Ag  Ag17  1  0.83300327  0.83544932  0.33652615  1
  Ag  Ag18  1  0.33586388  -0.00487752  0.66035420  1
  Ag  Ag19  1  0.50241957  0.32964318  0.16390213  1
  Ag  Ag20  1  0.82696270  -0.00306572  0.17588094  1
  Ag  Ag21  1  0.83008343  0.67386989  0.49268669  1
  Ag  Ag22  1  -0.00529508  0.83331803  0.17773951  1
  Ag  Ag23  1  0.33621810  0.66282877  0.00327408  1
  Ag  Ag24  1  0.51308199  0.16042881  0.32409443  1
  Ag  Ag25  1  0.49947143  -0.01242742  0.83951398  1
  Ag  Ag26  1  -0.01142440  0.32517901  0.33147528  1
  Ag  Ag27  1  0.83040204  0.50357724  0.33323330  1
  Ag  Ag28  1  0.15957925  0.33488383  0.49727187  1
  Ag  Ag29  1  0.66992910  0.66660827  0.33322243  1
  Ag  Ag30  1  0.66565191  0.51013565  0.83811988  1
  Ag  Ag31  1  0.82719156  0.16740791  0.00512928  1
  Ag  Ag32  1  -0.00111289  0.83087943  0.83146864  1
  Ag  Ag33  1  0.34117429  0.67149010  0.32896005  1
  Ag  Ag34  1  0.67153233  0.83155355  0.49737646  1
  Ag  Ag35  1  -0.00829930  -0.00114665  0.33268736  1
  Ag  Ag36  1  -0.00789771  0.83227023  0.49369484  1
  Ag  Ag37  1  0.67139308  0.16319805  0.49082914  1
  Ag  Ag38  1  -0.00332928  0.16227456  0.83525194  1
  Ag  Ag39  1  0.66498488  0.17018747  0.17402264  1
  Ag  Ag40  1  0.82477849  0.67190260  0.17674167  1
  Ag  Ag41  1  0.83538854  0.32913435  0.49228255  1
  Ag  Ag42  1  0.16163424  0.83470980  0.33821329  1
  Ag  Ag43  1  0.67110482  0.66873040  0.67177038  1
  Ag  Ag44  1  0.50420681  0.67584115  0.83893152  1
  Ag  Ag45  1  0.16255938  0.16219959  0.33509543  1
  Ag  Ag46  1  0.66247570  0.50130386  0.16848083  1
  Ag  Ag47  1  0.50127898  0.33285684  0.84343134  1
  Ag  Ag48  1  0.49975846  0.83303667  -0.00845630  1
  Ag  Ag49  1  0.67130388  0.32747146  0.33255345  1
  Ag  Ag50  1  0.33088447  0.50179377  0.49280375  1
  Ag  Ag51  1  0.33449242  -0.00693473  0.33488115  1
  Ag  Ag52  1  0.16720175  0.82839441  0.66510572  1
  Ag  Ag53  1  0.65609539  0.82556047  0.82607438  1
  Sb  Sb54  1  -0.00195232  0.00227922  0.00438135  1
  Sb  Sb55  1  -0.00331895  0.50341409  0.83356995  1
  Sb  Sb56  1  0.82982504  -0.00447740  0.83287378  1
  Sb  Sb57  1  0.66702555  0.83111339  0.17206392  1
  Sb  Sb58  1  0.33612745  0.33502334  0.32961250  1
  Sb  Sb59  1  0.66677226  0.33800900  0.66221702  1
  Sb  Sb60  1  0.66438062  -0.00826518  0.66511145  1
  Sb  Sb61  1  -0.00084385  0.33584431  0.66455490  1
  Sb  Sb62  1  0.82992340  0.33453515  0.83206883  1
  Sb  Sb63  1  0.34324507  0.16936801  0.16847308  1
  Sb  Sb64  1  0.17099255  0.33453337  0.17133574  1
  Sb  Sb65  1  0.17006973  -0.00875244  0.83074237  1
  Sb  Sb66  1  0.16837358  0.66731855  0.16543375  1
  Sb  Sb67  1  0.33428756  0.83022666  0.49985194  1
  Sb  Sb68  1  0.33263876  0.16147970  0.83482241  1
  Sb  Sb69  1  -0.00892859  0.16339373  0.49892825  1
  Sb  Sb70  1  0.16272933  0.66645225  0.50356309  1
  Sb  Sb71  1  0.33442085  0.67204279  0.66668080  1
  Sb  Sb72  1  0.00085434  0.50426014  0.49795723  1
  Sb  Sb73  1  0.00359169  0.66498027  -0.00320454  1
  Sb  Sb74  1  0.82873937  0.83468407  0.00338799  1
  Sb  Sb75  1  0.49522157  0.50163093  0.00223023  1
  Sb  Sb76  1  -0.00894648  0.16287483  0.16844746  1
  Sb  Sb77  1  0.66892678  0.16571645  0.83328766  1
  Sb  Sb78  1  0.16202122  0.00127916  0.49656001  1
  Sb  Sb79  1  0.33619809  0.82909382  0.16731280  1
  Sb  Sb80  1  0.16728921  0.17350614  0.00532574  1
  Sb  Sb81  1  0.82787187  0.33201265  0.17350243  1
  Sb  Sb82  1  0.50549872  0.15942254  0.66836033  1
  Sb  Sb83  1  0.49699965  0.50744582  0.66981620  1
  Sb  Sb84  1  -0.00502618  0.67269029  0.33615611  1
  Sb  Sb85  1  0.17086109  0.82770393  -0.00139075  1
  Sb  Sb86  1  0.16475150  0.50260580  0.33392391  1
  Sb  Sb87  1  0.33711284  0.50792230  0.83597194  1
  Sb  Sb88  1  0.33815175  -0.00274466  0.00339999  1
  Sb  Sb89  1  0.83624163  0.49764817  0.00493995  1
  Sb  Sb90  1  0.66995210  0.00023350  0.33270474  1
  Sb  Sb91  1  0.33376741  0.33192241  0.66972696  1
  Sb  Sb92  1  0.50550561  -0.00195731  0.49383993  1
  Sb  Sb93  1  0.66391547  0.33275207  0.00626445  1
  Sb  Sb94  1  0.66580798  0.50353915  0.49567614  1
  Sb  Sb95  1  0.00065164  -0.00693922  0.66305043  1
  Sb  Sb96  1  0.66125619  0.66691001  0.00093414  1
  Sb  Sb97  1  0.83557367  0.50305412  0.66176467  1
  Sb  Sb98  1  0.66450924  -0.00042934  0.00196188  1
  Sb  Sb99  1  0.50450817  0.50235911  0.32988160  1
  Sb  Sb100  1  0.50318831  0.33274195  0.49396222  1
  Sb  Sb101  1  0.16877664  0.33762191  0.83096745  1
  Sb  Sb102  1  -0.00301151  0.50317447  0.16912069  1
  Sb  Sb103  1  0.50497013  0.66939840  0.49770870  1
  Sb  Sb104  1  0.33725030  0.16891897  0.49639212  1
  Sb  Sb105  1  0.83276263  0.83229114  0.65943721  1
  Sb  Sb106  1  0.16132635  0.16385516  0.66189724  1
  Sb  Sb107  1  0.16773021  -0.00122480  0.17076010  1
  Te  Te108  1  0.16654308  0.16656935  0.17460961  1
  Te  Te109  1  0.16654112  0.17198141  0.49571666  1
  Te  Te110  1  0.16036528  0.16685924  0.83293855  1
  Te  Te111  1  0.17013945  0.50076695  0.16252264  1
  Te  Te112  1  0.16961598  0.49739775  0.50201985  1
  Te  Te113  1  0.16638719  0.50441410  0.83167430  1
  Te  Te114  1  0.15949728  0.83368133  0.16978065  1
  Te  Te115  1  0.16369313  0.83358828  0.49957589  1
  Te  Te116  1  0.16119083  0.82829414  0.83172367  1
  Te  Te117  1  0.50381935  0.16609183  0.16620981  1
  Te  Te118  1  0.50814933  0.16629022  0.49731946  1
  Te  Te119  1  0.50020297  0.17101258  0.83724751  1
  Te  Te120  1  0.50086203  0.50493198  0.16681612  1
  Te  Te121  1  0.49169725  0.49922779  0.50096662  1
  Te  Te122  1  0.50477689  0.49682277  0.83357199  1
  Te  Te123  1  0.50097831  0.83155816  0.17171716  1
  Te  Te124  1  0.50557360  0.83417544  0.49118114  1
  Te  Te125  1  0.50031603  0.83219730  0.83482870  1
  Te  Te126  1  0.82808857  0.16502905  0.16844843  1
  Te  Te127  1  0.83165535  0.16670937  0.49591751  1
  Te  Te128  1  0.83603361  0.16606197  0.84090915  1
  Te  Te129  1  0.82922844  0.50588640  0.17152459  1
  Te  Te130  1  0.83270765  0.49889311  0.49472048  1
  Te  Te131  1  0.82750604  0.50379561  0.83307133  1
  Te  Te132  1  0.83316342  0.83374679  0.16768147  1
  Te  Te133  1  0.83257920  0.83363235  0.49945255  1
  Te  Te134  1  0.83709564  0.83084605  0.83495725  1
  Te  Te135  1  0.16879329  0.00222641  0.00081337  1
  Te  Te136  1  0.16869433  -0.00337168  0.33323449  1
  Te  Te137  1  0.17261578  -0.00578760  0.66462532  1
  Te  Te138  1  0.16779593  0.33810033  -0.00063100  1
  Te  Te139  1  0.16772683  0.33338797  0.33818299  1
  Te  Te140  1  0.16655301  0.33425677  0.65988064  1
  Te  Te141  1  0.17188978  0.66215514  -0.00464009  1
  Te  Te142  1  0.16837068  0.67187712  0.33434999  1
  Te  Te143  1  0.16747112  0.66960129  0.66889882  1
  Te  Te144  1  0.49879938  0.00032739  0.00192670  1
  Te  Te145  1  0.49769652  0.00039084  0.33036808  1
  Te  Te146  1  0.49635536  -0.00554125  0.66850974  1
  Te  Te147  1  0.49919140  0.33289110  0.00334183  1
  Te  Te148  1  0.50456958  0.32883886  0.32797553  1
  Te  Te149  1  0.49971702  0.33188637  0.66970399  1
  Te  Te150  1  0.49569165  0.66834152  0.00183295  1
  Te  Te151  1  0.50094269  0.66791992  0.33102467  1
  Te  Te152  1  0.50462139  0.67324242  0.66963286  1
  Te  Te153  1  0.83358977  0.00720014  0.00413432  1
  Te  Te154  1  0.83419572  -0.00266025  0.33246809  1
  Te  Te155  1  0.83313700  0.00692909  0.66493417  1
  Te  Te156  1  0.83795525  0.32940953  0.00047137  1
  Te  Te157  1  0.83180391  0.32993618  0.33299778  1
  Te  Te158  1  0.83401549  0.33017699  0.66086978  1
  Te  Te159  1  0.83577226  0.66573707  -0.00348750  1
  Te  Te160  1  0.83440992  0.67042195  0.33321408  1
  Te  Te161  1  0.83235335  0.66649460  0.67079963  1
  Te  Te162  1  0.00052155  0.17080128  -0.00147264  1
  Te  Te163  1  -0.00066811  0.16502039  0.33382422  1
  Te  Te164  1  -0.00482092  0.16557156  0.67186069  1
  Te  Te165  1  0.00586380  0.49271564  0.00123272  1
  Te  Te166  1  -0.00564617  0.49190811  0.33280263  1
  Te  Te167  1  0.00628549  0.50669063  0.66636811  1
  Te  Te168  1  0.00130217  0.83410260  -0.00536423  1
  Te  Te169  1  -0.00180547  0.83393848  0.33431807  1
  Te  Te170  1  0.00145892  0.83065635  0.66896593  1
  Te  Te171  1  0.33728866  0.17137345  0.00061155  1
  Te  Te172  1  0.32806523  0.16394302  0.33404563  1
  Te  Te173  1  0.33326146  0.15830133  0.66529732  1
  Te  Te174  1  0.32978470  0.50146315  0.00196594  1
  Te  Te175  1  0.33305837  0.50359162  0.33047315  1
  Te  Te176  1  0.32820858  0.49983616  0.66473171  1
  Te  Te177  1  0.33790754  0.82920046  -0.00271887  1
  Te  Te178  1  0.33469064  0.83187200  0.33362048  1
  Te  Te179  1  0.33298129  0.83574367  0.66658981  1
  Te  Te180  1  0.66536873  0.16722155  0.00214454  1
  Te  Te181  1  0.66855135  0.16528186  0.33393215  1
  Te  Te182  1  0.67252063  0.16852573  0.66395827  1
  Te  Te183  1  0.66993157  0.49845926  0.00199170  1
  Te  Te184  1  0.67014834  0.50504848  0.33098829  1
  Te  Te185  1  0.66644670  0.50722391  0.66892306  1
  Te  Te186  1  0.66050761  0.83362137  -0.00842135  1
  Te  Te187  1  0.66803188  0.82892955  0.33443682  1
  Te  Te188  1  0.66573712  0.82798926  0.66515445  1
  Te  Te189  1  -0.00371494  -0.00501805  0.17157682  1
  Te  Te190  1  -0.00524764  -0.00545038  0.49546420  1
  Te  Te191  1  -0.00017717  -0.00026261  0.83331487  1
  Te  Te192  1  0.00128025  0.33381847  0.16799363  1
  Te  Te193  1  -0.00219427  0.33306212  0.49643332  1
  Te  Te194  1  -0.00051785  0.33046486  0.83424692  1
  Te  Te195  1  -0.00406577  0.67164947  0.16527345  1
  Te  Te196  1  -0.00603568  0.67140342  0.50508687  1
  Te  Te197  1  0.00225018  0.66826031  0.83113734  1
  Te  Te198  1  0.33988509  -0.00083895  0.17333524  1
  Te  Te199  1  0.33345866  -0.00040155  0.49698715  1
  Te  Te200  1  0.33774323  -0.00580725  0.83356529  1
  Te  Te201  1  0.33828921  0.33958433  0.16190800  1
  Te  Te202  1  0.33311114  0.33821553  0.50026478  1
  Te  Te203  1  0.33763253  0.33341504  0.83815312  1
  Te  Te204  1  0.33479661  0.66407201  0.16743940  1
  Te  Te205  1  0.33366978  0.66274085  0.49474530  1
  Te  Te206  1  0.33606558  0.67092287  0.83374558  1
  Te  Te207  1  0.66609614  0.00410333  0.16643151  1
  Te  Te208  1  0.67315037  -0.00158263  0.50141227  1
  Te  Te209  1  0.66023219  -0.00390224  0.83203863  1
  Te  Te210  1  0.66234197  0.33554837  0.17184283  1
  Te  Te211  1  0.67088877  0.33322920  0.49463777  1
  Te  Te212  1  0.66174079  0.33492413  0.83187953  1
  Te  Te213  1  0.66610299  0.66570353  0.16853486  1
  Te  Te214  1  0.67074207  0.66854268  0.49574047  1
  Te  Te215  1  0.66466769  0.66719657  0.83655606  1
