# generated using pymatgen
data_AgSbTe2
_symmetry_space_group_name_H-M   'P 1'
_cell_length_a   18.34508984
_cell_length_b   18.33983536
_cell_length_c   18.34809943
_cell_angle_alpha   90.00377085
_cell_angle_beta   90.00320519
_cell_angle_gamma   89.99916899
_symmetry_Int_Tables_number   1
_chemical_formula_structural   AgSbTe2
_chemical_formula_sum   'Ag54 Sb54 Te108'
_cell_volume   6173.14330331
_cell_formula_units_Z   54
loop_
 _symmetry_equiv_pos_site_id
 _symmetry_equiv_pos_as_xyz
  1  'x, y, z'
loop_
 _atom_site_type_symbol
 _atom_site_label
 _atom_site_symmetry_multiplicity
 _atom_site_fract_x
 _atom_site_fract_y
 _atom_site_fract_z
 _atom_site_occupancy
  Ag  Ag0  1  0.84405047  0.32476484  0.16741923  1
  Ag  Ag1  1  0.16248353  0.00691843  0.83558223  1
  Ag  Ag2  1  0.49195135  0.49567619  0.32226399  1
  Ag  Ag3  1  0.83456759  0.00128757  0.83774427  1
  Ag  Ag4  1  0.00204181  0.84827870  0.50301407  1
  Ag  Ag5  1  0.16971401  0.16755258  -0.00373426  1
  Ag  Ag6  1  0.33342888  0.84149045  0.15582131  1
  Ag  Ag7  1  0.31993900  0.33589464  0.32101044  1
  Ag  Ag8  1  0.65783360  0.49528677  0.16389121  1
  Ag  Ag9  1  0.83613364  0.67232382  0.83242835  1
  Ag  Ag10  1  0.83916163  0.16582735  0.32124265  1
  Ag  Ag11  1  0.33689790  0.83816800  0.83729871  1
  Ag  Ag12  1  0.32984268  0.16543592  0.83849586  1
  Ag  Ag13  1  0.00610265  0.00210053  0.66667805  1
  Ag  Ag14  1  0.00461749  0.00417356  -0.00124931  1
  Ag  Ag15  1  0.32533956  0.48965611  0.84079627  1
  Ag  Ag16  1  0.16117446  0.00158173  0.51072367  1
  Ag  Ag17  1  0.65904506  0.84550225  0.83375703  1
  Ag  Ag18  1  0.83714621  0.16430345  0.00231127  1
  Ag  Ag19  1  0.67286989  0.00000464  0.68307448  1
  Ag  Ag20  1  0.16531767  0.32890087  0.15949355  1
  Ag  Ag21  1  0.66216291  0.00628969  -0.00097177  1
  Ag  Ag22  1  0.84063799  0.33097137  0.49387132  1
  Ag  Ag23  1  0.48818968  0.33183040  0.83865237  1
  Ag  Ag24  1  0.00043053  0.49162963  0.50748480  1
  Ag  Ag25  1  0.49945495  0.00116580  0.15755496  1
  Ag  Ag26  1  0.83985258  0.49750007  0.67002396  1
  Ag  Ag27  1  0.83831468  0.00687928  0.15648948  1
  Ag  Ag28  1  0.00259625  0.33026986  0.33871493  1
  Ag  Ag29  1  0.33527970  0.01172207  -0.00028376  1
  Ag  Ag30  1  0.49585568  0.84782777  -0.00509736  1
  Ag  Ag31  1  -0.00227387  0.16498687  0.16818108  1
  Ag  Ag32  1  0.33330905  0.32909365  -0.00059974  1
  Ag  Ag33  1  0.00069799  0.33318330  0.66206545  1
  Ag  Ag34  1  0.16927216  0.32598540  0.84122247  1
  Ag  Ag35  1  -0.00052006  0.01135251  0.33374161  1
  Ag  Ag36  1  0.66414210  0.16271208  0.83834977  1
  Ag  Ag37  1  0.67480664  0.00257932  0.32688340  1
  Ag  Ag38  1  0.33350057  0.49672324  0.15640101  1
  Ag  Ag39  1  0.00026156  0.66022692  0.33964681  1
  Ag  Ag40  1  0.32159961  0.66889463  0.67026840  1
  Ag  Ag41  1  0.16137631  0.00929057  0.15828465  1
  Ag  Ag42  1  0.00505823  0.49818400  0.82950486  1
  Ag  Ag43  1  0.49682560  0.00097399  0.49760891  1
  Ag  Ag44  1  0.65614642  0.32356950  -0.00065609  1
  Ag  Ag45  1  0.49243084  0.83788534  0.67790084  1
  Ag  Ag46  1  0.16556016  0.49227822  0.32634309  1
  Ag  Ag47  1  0.49888404  0.16535738  -0.00232202  1
  Ag  Ag48  1  0.49035089  0.48926690  0.00233589  1
  Ag  Ag49  1  0.00226639  0.66155667  0.66363336  1
  Ag  Ag50  1  0.00056412  0.16597273  0.49330094  1
  Ag  Ag51  1  0.17388517  0.48777640  0.00104044  1
  Ag  Ag52  1  0.16313083  0.16146441  0.67719257  1
  Ag  Ag53  1  0.16694616  0.84171057  0.66897666  1
  Sb  Sb54  1  0.00357769  0.83603409  0.82850134  1
  Sb  Sb55  1  0.32797623  0.66006317  0.33592631  1
  Sb  Sb56  1  0.15995796  0.49705964  0.66940125  1
  Sb  Sb57  1  0.50127953  0.50330664  0.67140474  1
  Sb  Sb58  1  0.67117773  0.49663976  0.49569619  1
  Sb  Sb59  1  0.32946108  -0.00382581  0.67869824  1
  Sb  Sb60  1  0.83625192  0.84281787  0.33248893  1
  Sb  Sb61  1  0.66695344  0.49634076  0.83820869  1
  Sb  Sb62  1  0.16492571  0.66657971  0.83196861  1
  Sb  Sb63  1  0.32624575  0.49744865  0.50196024  1
  Sb  Sb64  1  0.00408485  0.49177348  0.16498327  1
  Sb  Sb65  1  0.00575530  0.32575830  -0.00031907  1
  Sb  Sb66  1  0.83955109  0.66037675  0.50496889  1
  Sb  Sb67  1  0.33268214  0.66366510  -0.00573264  1
  Sb  Sb68  1  0.15969091  0.32777520  0.49940133  1
  Sb  Sb69  1  0.67234025  0.32732258  0.67516177  1
  Sb  Sb70  1  0.66146567  0.83937090  0.15945729  1
  Sb  Sb71  1  0.49543938  0.15943106  0.67352338  1
  Sb  Sb72  1  0.67112051  0.32853991  0.32362350  1
  Sb  Sb73  1  0.16243663  0.67052146  0.50213210  1
  Sb  Sb74  1  0.83890211  0.49293023  0.33473209  1
  Sb  Sb75  1  0.83484979  0.49094427  -0.00262599  1
  Sb  Sb76  1  0.50375095  0.32823002  0.50280042  1
  Sb  Sb77  1  0.67210736  0.66963785  0.33131113  1
  Sb  Sb78  1  0.00112001  0.67076002  -0.00289204  1
  Sb  Sb79  1  0.49640705  0.32997904  0.15830676  1
  Sb  Sb80  1  0.00466872  0.16708020  0.83489339  1
  Sb  Sb81  1  0.49857064  0.67200621  0.50130241  1
  Sb  Sb82  1  0.00632531  0.84453973  0.17093973  1
  Sb  Sb83  1  0.16622316  0.66414475  0.16710920  1
  Sb  Sb84  1  0.84184535  0.16744992  0.67146679  1
  Sb  Sb85  1  0.32892903  0.83713074  0.50406004  1
  Sb  Sb86  1  0.50021717  0.00396669  0.83780688  1
  Sb  Sb87  1  0.83677167  0.66462835  0.16219629  1
  Sb  Sb88  1  0.83892854  0.32770376  0.83758457  1
  Sb  Sb89  1  0.32952861  0.00715811  0.32462507  1
  Sb  Sb90  1  0.50027785  0.66670334  0.83413689  1
  Sb  Sb91  1  0.67051015  0.84117585  0.50737705  1
  Sb  Sb92  1  0.16051267  0.16934590  0.32862810  1
  Sb  Sb93  1  0.84040191  0.00585937  0.50165296  1
  Sb  Sb94  1  0.67295372  0.16313457  0.50519915  1
  Sb  Sb95  1  0.49779851  0.66625728  0.16600573  1
  Sb  Sb96  1  0.32555377  0.16424687  0.50526229  1
  Sb  Sb97  1  0.32683005  0.16905116  0.15918595  1
  Sb  Sb98  1  0.66620072  0.66849729  -0.00170045  1
  Sb  Sb99  1  0.67416522  0.16823799  0.15667400  1
  Sb  Sb100  1  0.50398987  0.16897141  0.32530978  1
  Sb  Sb101  1  0.67143945  0.67256717  0.66996832  1
  Sb  Sb102  1  0.16561334  0.83502521  0.33487015  1
  Sb  Sb103  1  0.49812634  0.83461641  0.33014134  1
  Sb  Sb104  1  0.83900024  0.83335185  0.66880196  1
  Sb  Sb105  1  0.32598653  0.33661888  0.67369969  1
  Sb  Sb106  1  0.17330625  0.84252689  -0.00483948  1
  Sb  Sb107  1  0.82904385  0.84518466  -0.00300472  1
  Te  Te108  1  0.16169595  0.16821787  0.16296744  1
  Te  Te109  1  0.16109548  0.16082221  0.50374874  1
  Te  Te110  1  0.16755663  0.16641318  0.83635782  1
  Te  Te111  1  0.17057988  0.49751129  0.16582141  1
  Te  Te112  1  0.16047971  0.49949333  0.49676248  1
  Te  Te113  1  0.16667468  0.50042564  0.83370705  1
  Te  Te114  1  0.17402315  0.83517239  0.16556940  1
  Te  Te115  1  0.16221295  0.83988036  0.50374493  1
  Te  Te116  1  0.17142926  0.83570252  0.82973857  1
  Te  Te117  1  0.49918866  0.16076332  0.16129895  1
  Te  Te118  1  0.49979564  0.16090593  0.49976283  1
  Te  Te119  1  0.49647317  0.17076199  0.83689440  1
  Te  Te120  1  0.49607184  0.49860902  0.16382648  1
  Te  Te121  1  0.50097053  0.49928296  0.49946367  1
  Te  Te122  1  0.49800914  0.49652210  0.83783019  1
  Te  Te123  1  0.49413327  0.83662960  0.16223587  1
  Te  Te124  1  0.50120281  0.83962355  0.50010410  1
  Te  Te125  1  0.49880829  0.83103193  0.83463776  1
  Te  Te126  1  0.83519978  0.16432233  0.16418057  1
  Te  Te127  1  0.83953541  0.17217281  0.50247861  1
  Te  Te128  1  0.82915167  0.16223435  0.83779394  1
  Te  Te129  1  0.83272128  0.49651119  0.16621078  1
  Te  Te130  1  0.83859766  0.49347632  0.50368843  1
  Te  Te131  1  0.83607124  0.49720604  0.83105376  1
  Te  Te132  1  0.83147600  0.83758354  0.16511177  1
  Te  Te133  1  0.84154482  0.83095138  0.50042128  1
  Te  Te134  1  0.83113342  0.83704304  0.83273405  1
  Te  Te135  1  0.16750828  0.00217095  -0.00134717  1
  Te  Te136  1  0.16139992  0.00111374  0.32789339  1
  Te  Te137  1  0.16771167  0.00048300  0.66938312  1
  Te  Te138  1  0.16782149  0.33086948  -0.00001513  1
  Te  Te139  1  0.16419184  0.33460107  0.33399827  1
  Te  Te140  1  0.16114935  0.32974971  0.66885347  1
  Te  Te141  1  0.16469048  0.65669231  0.00031373  1
  Te  Te142  1  0.16005714  0.66042546  0.33468195  1
  Te  Te143  1  0.16169534  0.67075113  0.66636475  1
  Te  Te144  1  0.49772754  0.00381452  0.00045202  1
  Te  Te145  1  0.49895170  0.00086191  0.33130533  1
  Te  Te146  1  0.49781781  -0.00353579  0.66273574  1
  Te  Te147  1  0.49712412  0.33136993  -0.00244764  1
  Te  Te148  1  0.50283463  0.33698605  0.33500904  1
  Te  Te149  1  0.50123434  0.33323492  0.67244935  1
  Te  Te150  1  0.50072034  0.66233778  0.00008908  1
  Te  Te151  1  0.50140966  0.65785913  0.33442481  1
  Te  Te152  1  0.50170400  0.67486172  0.66623614  1
  Te  Te153  1  0.83366478  0.00408586  -0.00185842  1
  Te  Te154  1  0.83765637  0.00622249  0.33509915  1
  Te  Te155  1  0.83223975  0.00012732  0.67047314  1
  Te  Te156  1  0.83319351  0.32648159  0.00548691  1
  Te  Te157  1  0.83611964  0.32780683  0.32928400  1
  Te  Te158  1  0.83842279  0.33532150  0.66809269  1
  Te  Te159  1  0.83466298  0.66661778  -0.00666786  1
  Te  Te160  1  0.83931365  0.66708064  0.33193015  1
  Te  Te161  1  0.83924276  0.66255679  0.67162600  1
  Te  Te162  1  -0.00008289  0.16249990  0.00185927  1
  Te  Te163  1  -0.00064083  0.16873490  0.33257800  1
  Te  Te164  1  0.00349910  0.16488936  0.66750852  1
  Te  Te165  1  0.00278426  0.50150717  -0.00412129  1
  Te  Te166  1  0.00233952  0.49494804  0.33150349  1
  Te  Te167  1  -0.00001448  0.49926215  0.66773970  1
  Te  Te168  1  0.00142056  0.84011818  0.00101286  1
  Te  Te169  1  0.00106448  0.83260840  0.33979126  1
  Te  Te170  1  0.00391808  0.83803068  0.66416137  1
  Te  Te171  1  0.33161428  0.16926345  -0.00156021  1
  Te  Te172  1  0.33467121  0.17536108  0.33562120  1
  Te  Te173  1  0.32679342  0.16828146  0.67348317  1
  Te  Te174  1  0.33332578  0.50095261  -0.00326923  1
  Te  Te175  1  0.33138469  0.49630065  0.33548390  1
  Te  Te176  1  0.33326430  0.50592268  0.67104692  1
  Te  Te177  1  0.33683837  0.82903949  -0.00132531  1
  Te  Te178  1  0.33326597  0.82968347  0.32987976  1
  Te  Te179  1  0.33248096  0.83079464  0.66867996  1
  Te  Te180  1  0.66411142  0.16580087  -0.00231181  1
  Te  Te181  1  0.67208367  0.16152579  0.33593837  1
  Te  Te182  1  0.66564049  0.15899983  0.67330489  1
  Te  Te183  1  0.66580447  0.49943809  0.00326869  1
  Te  Te184  1  0.66581282  0.50074701  0.32791202  1
  Te  Te185  1  0.67219340  0.49926776  0.66629125  1
  Te  Te186  1  0.65971505  0.83721785  -0.00545463  1
  Te  Te187  1  0.66705080  0.83901900  0.33279121  1
  Te  Te188  1  0.66451156  0.84003303  0.67262253  1
  Te  Te189  1  -0.00015943  0.00337553  0.16693827  1
  Te  Te190  1  0.00132625  0.00473556  0.50185173  1
  Te  Te191  1  0.00106158  -0.00033767  0.83168712  1
  Te  Te192  1  0.00317958  0.32894407  0.16662277  1
  Te  Te193  1  -0.00146102  0.33162012  0.50045287  1
  Te  Te194  1  0.00440739  0.33713967  0.83097111  1
  Te  Te195  1  -0.00076061  0.67082467  0.17229261  1
  Te  Te196  1  -0.00039153  0.65910393  0.50152623  1
  Te  Te197  1  -0.00323834  0.66546062  0.82948519  1
  Te  Te198  1  0.33131859  0.00106561  0.16163403  1
  Te  Te199  1  0.33244039  0.00050530  0.49381525  1
  Te  Te200  1  0.32930434  -0.00010098  0.83998164  1
  Te  Te201  1  0.33086149  0.33569211  0.16427096  1
  Te  Te202  1  0.33556900  0.33246442  0.49802686  1
  Te  Te203  1  0.32946255  0.33281779  0.83520812  1
  Te  Te204  1  0.33262261  0.66116801  0.17028564  1
  Te  Te205  1  0.33253883  0.66732286  0.50855875  1
  Te  Te206  1  0.33317364  0.67360555  0.82778911  1
  Te  Te207  1  0.66694922  0.00024395  0.16492922  1
  Te  Te208  1  0.66307041  0.00031971  0.49135204  1
  Te  Te209  1  0.66418655  0.00195364  0.83867537  1
  Te  Te210  1  0.66659702  0.33661784  0.16019338  1
  Te  Te211  1  0.67418391  0.33171661  0.50192246  1
  Te  Te212  1  0.66750471  0.32835672  0.83989499  1
  Te  Te213  1  0.66814820  0.65961855  0.16666933  1
  Te  Te214  1  0.66826301  0.66807863  0.49948547  1
  Te  Te215  1  0.67500840  0.66832147  0.83280622  1
