# generated using pymatgen
data_AgSbTe2
_symmetry_space_group_name_H-M   'P 1'
_cell_length_a   18.34359245
_cell_length_b   18.35068412
_cell_length_c   18.34534977
_cell_angle_alpha   90.00230657
_cell_angle_beta   90.00394031
_cell_angle_gamma   90.00067669
_symmetry_Int_Tables_number   1
_chemical_formula_structural   AgSbTe2
_chemical_formula_sum   'Ag54 Sb54 Te108'
_cell_volume   6175.36521654
_cell_formula_units_Z   54
loop_
 _symmetry_equiv_pos_site_id
 _symmetry_equiv_pos_as_xyz
  1  'x, y, z'
loop_
 _atom_site_type_symbol
 _atom_site_label
 _atom_site_symmetry_multiplicity
 _atom_site_fract_x
 _atom_site_fract_y
 _atom_site_fract_z
 _atom_site_occupancy
  Ag  Ag0  1  0.16978256  0.00911789  0.49991729  1
  Ag  Ag1  1  0.16547431  0.66587004  0.83445983  1
  Ag  Ag2  1  0.32842223  0.17024954  0.48648280  1
  Ag  Ag3  1  0.17245761  0.48867646  0.33540015  1
  Ag  Ag4  1  0.18201307  0.16409725  -0.00192739  1
  Ag  Ag5  1  0.34021498  0.48852485  0.15925436  1
  Ag  Ag6  1  0.34288793  0.65608528  -0.00056413  1
  Ag  Ag7  1  0.00316294  0.49743569  0.83133746  1
  Ag  Ag8  1  0.66036593  0.00079242  0.67723532  1
  Ag  Ag9  1  0.65542061  0.32606075  -0.00455844  1
  Ag  Ag10  1  0.50490470  0.84366120  0.66901002  1
  Ag  Ag11  1  0.65671562  0.00612479  -0.00480562  1
  Ag  Ag12  1  0.17075074  0.32023473  0.49932430  1
  Ag  Ag13  1  0.49873824  0.48659827  0.00181248  1
  Ag  Ag14  1  0.33864893  0.17075511  0.17450007  1
  Ag  Ag15  1  0.33330777  0.49984986  0.84014963  1
  Ag  Ag16  1  -0.00432293  0.83748196  0.83247468  1
  Ag  Ag17  1  0.00583601  0.00305736  -0.00326648  1
  Ag  Ag18  1  0.81931947  0.33273223  0.15526670  1
  Ag  Ag19  1  0.33368701  0.32493512  0.32686885  1
  Ag  Ag20  1  0.50254908  0.00823062  0.83244850  1
  Ag  Ag21  1  0.33493216  0.01125376  0.33644105  1
  Ag  Ag22  1  -0.01226020  0.66726496  0.67005200  1
  Ag  Ag23  1  0.00800163  0.00379106  0.33293811  1
  Ag  Ag24  1  0.00026950  0.16663571  0.83233400  1
  Ag  Ag25  1  0.66054482  0.66488118  -0.00462043  1
  Ag  Ag26  1  0.66386630  0.84141427  0.15337263  1
  Ag  Ag27  1  0.17840219  0.16493753  0.65798293  1
  Ag  Ag28  1  0.65793201  0.00340262  0.33154958  1
  Ag  Ag29  1  0.50332479  0.32648478  0.84327387  1
  Ag  Ag30  1  0.83031008  0.50257404  0.66780206  1
  Ag  Ag31  1  0.49074489  0.16649903  0.32500738  1
  Ag  Ag32  1  0.82632977  0.66025589  0.50900790  1
  Ag  Ag33  1  0.65781760  0.16560561  0.83564749  1
  Ag  Ag34  1  0.17991316  0.16848509  0.34797426  1
  Ag  Ag35  1  0.83350657  0.33343158  0.50595525  1
  Ag  Ag36  1  0.50162015  0.66467584  0.50179914  1
  Ag  Ag37  1  0.50212125  0.65793482  0.15754582  1
  Ag  Ag38  1  0.82209219  0.82684151  0.66900969  1
  Ag  Ag39  1  0.49835294  0.17268886  -0.00106526  1
  Ag  Ag40  1  0.34040999  0.00536584  0.66964776  1
  Ag  Ag41  1  0.66878123  0.66917025  0.67327939  1
  Ag  Ag42  1  0.66774711  0.32615842  0.67884775  1
  Ag  Ag43  1  0.49728874  0.16356530  0.67397944  1
  Ag  Ag44  1  0.65579397  0.17010372  0.15415093  1
  Ag  Ag45  1  0.34382063  0.32827057  0.00410679  1
  Ag  Ag46  1  0.16886676  0.84516455  -0.00311708  1
  Ag  Ag47  1  0.33316573  0.48960321  0.49811188  1
  Ag  Ag48  1  0.66718002  0.84054952  0.83294209  1
  Ag  Ag49  1  0.50075845  0.33186208  0.15586212  1
  Ag  Ag50  1  0.33785861  0.01146007  -0.00192952  1
  Ag  Ag51  1  0.82101813  0.33262378  0.83123482  1
  Ag  Ag52  1  0.01506345  0.16685361  0.50743903  1
  Ag  Ag53  1  0.65664895  0.48998969  0.16170697  1
  Sb  Sb54  1  0.33777747  0.66879708  0.67019434  1
  Sb  Sb55  1  -0.00601243  0.33351162  0.66784774  1
  Sb  Sb56  1  0.49957690  0.83665891  -0.00373215  1
  Sb  Sb57  1  0.17595491  0.49488859  0.00001408  1
  Sb  Sb58  1  0.82924988  0.16852828  0.66875541  1
  Sb  Sb59  1  0.82697835  0.00452753  0.83238485  1
  Sb  Sb60  1  0.33372410  0.83864796  0.50107161  1
  Sb  Sb61  1  0.83651465  0.49673607  0.33734081  1
  Sb  Sb62  1  0.49759803  0.33354978  0.50080523  1
  Sb  Sb63  1  0.50000694  0.66563530  0.83534213  1
  Sb  Sb64  1  -0.00658167  0.83544122  0.15866698  1
  Sb  Sb65  1  0.83243544  0.16797226  0.33424301  1
  Sb  Sb66  1  0.66626874  0.83402827  0.50872044  1
  Sb  Sb67  1  0.17489461  0.66470638  0.15875160  1
  Sb  Sb68  1  0.33515906  0.66273677  0.32904680  1
  Sb  Sb69  1  0.82605446  0.49805026  -0.00557870  1
  Sb  Sb70  1  0.16983606  0.00290285  0.16604554  1
  Sb  Sb71  1  0.66088526  0.32744397  0.32895995  1
  Sb  Sb72  1  0.00145067  0.16675675  0.16464613  1
  Sb  Sb73  1  0.00273486  0.49517971  0.50456011  1
  Sb  Sb74  1  0.83400077  0.66213399  0.82795450  1
  Sb  Sb75  1  0.17450622  0.33134534  0.17015846  1
  Sb  Sb76  1  -0.00070845  0.83856136  0.50759233  1
  Sb  Sb77  1  0.00196577  0.49829956  0.16051036  1
  Sb  Sb78  1  0.33792366  0.17034680  0.83711774  1
  Sb  Sb79  1  0.33610123  0.83153111  0.83616156  1
  Sb  Sb80  1  0.82225860  0.66068429  0.16980236  1
  Sb  Sb81  1  0.66256688  0.49945714  0.49782571  1
  Sb  Sb82  1  -0.00026198  -0.00007223  0.67058157  1
  Sb  Sb83  1  0.49445908  0.49317913  0.32571082  1
  Sb  Sb84  1  0.00619035  0.32714402  0.33487936  1
  Sb  Sb85  1  0.16792602  0.84161354  0.32799464  1
  Sb  Sb86  1  0.00135170  0.67085014  0.34091415  1
  Sb  Sb87  1  0.50316755  0.49700002  0.67122053  1
  Sb  Sb88  1  0.16532685  0.49418980  0.66528287  1
  Sb  Sb89  1  0.16885371  0.66513981  0.50623326  1
  Sb  Sb90  1  0.17072177  0.33160929  0.82990780  1
  Sb  Sb91  1  0.16907510  0.83808784  0.67229482  1
  Sb  Sb92  1  0.66425458  0.49639859  0.83656914  1
  Sb  Sb93  1  0.50175257  0.84107978  0.33532442  1
  Sb  Sb94  1  0.83066614  0.83473107  0.33804993  1
  Sb  Sb95  1  0.82764317  0.00605286  0.16595757  1
  Sb  Sb96  1  0.17156893  0.00140989  0.83335503  1
  Sb  Sb97  1  0.00083378  0.66974982  -0.00880677  1
  Sb  Sb98  1  0.50077542  0.00676002  0.16054910  1
  Sb  Sb99  1  0.66290125  0.67067801  0.33244916  1
  Sb  Sb100  1  0.00072367  0.32736742  -0.00263846  1
  Sb  Sb101  1  0.49560726  0.00167474  0.50683833  1
  Sb  Sb102  1  0.33936871  0.32749210  0.66804434  1
  Sb  Sb103  1  0.34097787  0.83666210  0.16273972  1
  Sb  Sb104  1  0.66178495  0.16741345  0.50305184  1
  Sb  Sb105  1  0.83563157  0.00370633  0.50299718  1
  Sb  Sb106  1  0.83066141  0.83383447  -0.00757323  1
  Sb  Sb107  1  0.82560716  0.16719361  -0.00184459  1
  Te  Te108  1  0.16914736  0.16739286  0.15798649  1
  Te  Te109  1  0.16980502  0.16524445  0.50260999  1
  Te  Te110  1  0.16048416  0.16632070  0.83856006  1
  Te  Te111  1  0.17122030  0.49960811  0.17306519  1
  Te  Te112  1  0.17116677  0.49873025  0.49718997  1
  Te  Te113  1  0.16740898  0.50093083  0.83242096  1
  Te  Te114  1  0.16399478  0.83158103  0.15780660  1
  Te  Te115  1  0.16569715  0.83790083  0.49883739  1
  Te  Te116  1  0.16417985  0.83088532  0.83729321  1
  Te  Te117  1  0.49907838  0.16701487  0.16427473  1
  Te  Te118  1  0.49412973  0.16727155  0.50274287  1
  Te  Te119  1  0.50097449  0.16712076  0.83388499  1
  Te  Te120  1  0.49759990  0.49801566  0.16504275  1
  Te  Te121  1  0.49457010  0.50217342  0.49903990  1
  Te  Te122  1  0.49586978  0.49760186  0.83826953  1
  Te  Te123  1  0.50678774  0.82623458  0.16809954  1
  Te  Te124  1  0.49941477  0.82692237  0.50591886  1
  Te  Te125  1  0.50531434  0.83393958  0.82863812  1
  Te  Te126  1  0.82942913  0.17423672  0.16733094  1
  Te  Te127  1  0.83504962  0.17194836  0.50115731  1
  Te  Te128  1  0.83867364  0.17260255  0.83272460  1
  Te  Te129  1  0.83294047  0.49347979  0.16799876  1
  Te  Te130  1  0.83457282  0.49842188  0.50435692  1
  Te  Te131  1  0.83670973  0.49464592  0.82827451  1
  Te  Te132  1  0.82442261  0.83083525  0.16707817  1
  Te  Te133  1  0.83436572  0.82964499  0.50742690  1
  Te  Te134  1  0.83212036  0.83325469  0.82764977  1
  Te  Te135  1  0.16925790  0.00313966  -0.00035386  1
  Te  Te136  1  0.16885667  0.00518553  0.33351277  1
  Te  Te137  1  0.16827935  0.00483609  0.66449082  1
  Te  Te138  1  0.16919611  0.32761893  0.00029582  1
  Te  Te139  1  0.17141207  0.32858937  0.33619841  1
  Te  Te140  1  0.16595985  0.32596147  0.66166972  1
  Te  Te141  1  0.16811687  0.66329413  -0.00547102  1
  Te  Te142  1  0.16637038  0.66931683  0.33320856  1
  Te  Te143  1  0.16806027  0.66705867  0.67246768  1
  Te  Te144  1  0.49889497  0.00129135  -0.00470903  1
  Te  Te145  1  0.49785865  0.00540155  0.33512845  1
  Te  Te146  1  0.50127080  0.00241960  0.66804909  1
  Te  Te147  1  0.50073990  0.33227925  0.00096217  1
  Te  Te148  1  0.49403530  0.32680345  0.33320265  1
  Te  Te149  1  0.50709235  0.32971940  0.66842295  1
  Te  Te150  1  0.50129474  0.67093684  -0.00014402  1
  Te  Te151  1  0.49945729  0.66927405  0.33970590  1
  Te  Te152  1  0.50403649  0.66462864  0.66525501  1
  Te  Te153  1  0.83889729  -0.00132643  0.00009666  1
  Te  Te154  1  0.83528242  -0.00009573  0.33436002  1
  Te  Te155  1  0.82684037  -0.00614914  0.66561107  1
  Te  Te156  1  0.83058427  0.33421461  -0.00354677  1
  Te  Te157  1  0.83456824  0.33395893  0.34304992  1
  Te  Te158  1  0.82831183  0.33500874  0.66854839  1
  Te  Te159  1  0.82630057  0.66614648  0.00177752  1
  Te  Te160  1  0.83369124  0.66604593  0.34486952  1
  Te  Te161  1  0.83005025  0.66546083  0.66648442  1
  Te  Te162  1  -0.00206831  0.16241651  -0.00252965  1
  Te  Te163  1  0.00322449  0.16187107  0.33220231  1
  Te  Te164  1  -0.00090904  0.16608170  0.66782204  1
  Te  Te165  1  0.00090715  0.50024762  -0.00729297  1
  Te  Te166  1  0.00891672  0.50145660  0.33281280  1
  Te  Te167  1  -0.00250653  0.50421790  0.67133176  1
  Te  Te168  1  0.00297081  0.83737484  -0.00662330  1
  Te  Te169  1  -0.00077694  0.84170833  0.33282695  1
  Te  Te170  1  0.00162388  0.83085180  0.67381788  1
  Te  Te171  1  0.33784985  0.16838230  -0.00332328  1
  Te  Te172  1  0.33422349  0.16617490  0.33021466  1
  Te  Te173  1  0.33510955  0.16381332  0.67122771  1
  Te  Te174  1  0.33639091  0.49890604  0.00109715  1
  Te  Te175  1  0.33046839  0.49904059  0.33600723  1
  Te  Te176  1  0.33379470  0.49967009  0.66410253  1
  Te  Te177  1  0.32883526  0.83539298  0.00085837  1
  Te  Te178  1  0.33311669  0.84318188  0.33171644  1
  Te  Te179  1  0.33856578  0.84011557  0.66794578  1
  Te  Te180  1  0.66378588  0.16643416  -0.00337987  1
  Te  Te181  1  0.66466100  0.16193007  0.33485830  1
  Te  Te182  1  0.66317053  0.16591399  0.66971488  1
  Te  Te183  1  0.66241746  0.50229584  0.00292012  1
  Te  Te184  1  0.66678552  0.50111810  0.32524737  1
  Te  Te185  1  0.66982987  0.50371103  0.66563306  1
  Te  Te186  1  0.66655047  0.83706626  -0.00488811  1
  Te  Te187  1  0.66679732  0.84153603  0.32893785  1
  Te  Te188  1  0.66461905  0.83373374  0.67008670  1
  Te  Te189  1  -0.00228498  -0.00051934  0.16568170  1
  Te  Te190  1  0.00361263  0.00569136  0.49922534  1
  Te  Te191  1  -0.00020502  0.00075105  0.83538743  1
  Te  Te192  1  -0.01114712  0.33429454  0.16660277  1
  Te  Te193  1  0.00185624  0.32767756  0.50081746  1
  Te  Te194  1  0.00100200  0.33288712  0.83312364  1
  Te  Te195  1  -0.00264226  0.66705789  0.16774420  1
  Te  Te196  1  -0.00089021  0.66660838  0.50819384  1
  Te  Te197  1  0.00134387  0.66710402  0.82984633  1
  Te  Te198  1  0.33480754  0.00402648  0.16182307  1
  Te  Te199  1  0.33082680  0.00425766  0.50127117  1
  Te  Te200  1  0.33836365  -0.00231982  0.83483428  1
  Te  Te201  1  0.33535330  0.33154571  0.16662724  1
  Te  Te202  1  0.33202769  0.33088236  0.50189699  1
  Te  Te203  1  0.33725988  0.34057192  0.83578231  1
  Te  Te204  1  0.34028708  0.66663307  0.16132845  1
  Te  Te205  1  0.33603993  0.66641814  0.49996056  1
  Te  Te206  1  0.33090448  0.66301708  0.83813641  1
  Te  Te207  1  0.66617570  0.00312611  0.16321923  1
  Te  Te208  1  0.66715124  0.00077105  0.49335211  1
  Te  Te209  1  0.66564727  0.00284192  0.83457648  1
  Te  Te210  1  0.66229942  0.32997985  0.16765626  1
  Te  Te211  1  0.67111461  0.33514486  0.50014395  1
  Te  Te212  1  0.66394028  0.33428158  0.83516814  1
  Te  Te213  1  0.66204473  0.66398532  0.16487477  1
  Te  Te214  1  0.66631708  0.66654836  0.50239737  1
  Te  Te215  1  0.66734613  0.66673938  0.83378022  1
