# generated using pymatgen
data_AgSbTe2
_symmetry_space_group_name_H-M   'P 1'
_cell_length_a   18.31683831
_cell_length_b   18.31019492
_cell_length_c   18.31382678
_cell_angle_alpha   89.99790064
_cell_angle_beta   89.99851979
_cell_angle_gamma   90.00057163
_symmetry_Int_Tables_number   1
_chemical_formula_structural   AgSbTe2
_chemical_formula_sum   'Ag54 Sb54 Te108'
_cell_volume   6142.18058665
_cell_formula_units_Z   54
loop_
 _symmetry_equiv_pos_site_id
 _symmetry_equiv_pos_as_xyz
  1  'x, y, z'
loop_
 _atom_site_type_symbol
 _atom_site_label
 _atom_site_symmetry_multiplicity
 _atom_site_fract_x
 _atom_site_fract_y
 _atom_site_fract_z
 _atom_site_occupancy
  Ag  Ag0  1  0.49914966  0.00064819  0.83220789  1
  Ag  Ag1  1  0.83614868  0.66979335  0.16046760  1
  Ag  Ag2  1  0.67025937  0.50335752  0.50323923  1
  Ag  Ag3  1  0.49881270  0.66762357  0.84102521  1
  Ag  Ag4  1  0.83655771  0.16029826  0.67087908  1
  Ag  Ag5  1  0.83716063  0.83099121  0.33250760  1
  Ag  Ag6  1  0.49730415  0.34038556  0.16151055  1
  Ag  Ag7  1  0.83888851  0.67163119  0.50035341  1
  Ag  Ag8  1  0.16234850  0.83794971  0.66180144  1
  Ag  Ag9  1  0.83205074  0.50590953  0.66522243  1
  Ag  Ag10  1  0.66614518  0.33325671  0.66878902  1
  Ag  Ag11  1  0.16648974  -0.00251090  0.50231822  1
  Ag  Ag12  1  0.66115454  0.50895163  0.16527358  1
  Ag  Ag13  1  0.83778796  0.83205769  0.66291477  1
  Ag  Ag14  1  -0.00278659  0.66858254  0.66163399  1
  Ag  Ag15  1  0.50808783  0.50116818  0.66682474  1
  Ag  Ag16  1  0.66559715  0.00154255  0.66999168  1
  Ag  Ag17  1  -0.00142992  0.66954546  0.33122013  1
  Ag  Ag18  1  0.83558982  0.82972054  0.00337256  1
  Ag  Ag19  1  0.33448080  0.83488465  0.83884114  1
  Ag  Ag20  1  0.33213068  0.82706770  0.16166584  1
  Ag  Ag21  1  0.33071981  0.50819649  0.16744369  1
  Ag  Ag22  1  0.16559696  0.66473541  0.16411625  1
  Ag  Ag23  1  0.32971572  0.50863913  0.49611659  1
  Ag  Ag24  1  -0.00863560  -0.00733601  -0.00078460  1
  Ag  Ag25  1  0.33328505  -0.00267260  0.34164104  1
  Ag  Ag26  1  -0.00328860  0.83154445  0.50147682  1
  Ag  Ag27  1  0.50502757  0.16162437  -0.00182123  1
  Ag  Ag28  1  0.83727160  0.51309245  -0.00131904  1
  Ag  Ag29  1  0.49607374  -0.00078385  0.50753284  1
  Ag  Ag30  1  -0.00210182  0.51366900  0.50542983  1
  Ag  Ag31  1  0.33674758  -0.00393796  0.66116335  1
  Ag  Ag32  1  0.32638047  0.83555720  0.50076425  1
  Ag  Ag33  1  0.66842469  0.16323372  0.83297938  1
  Ag  Ag34  1  0.67186082  0.67059598  0.00421822  1
  Ag  Ag35  1  -0.00292202  0.82798769  0.16688301  1
  Ag  Ag36  1  0.83829535  -0.00941104  0.50529657  1
  Ag  Ag37  1  0.33541878  0.67207194  0.00568921  1
  Ag  Ag38  1  0.16766256  0.16657888  0.33783635  1
  Ag  Ag39  1  0.49918646  0.66295449  0.16099736  1
  Ag  Ag40  1  0.16714528  0.49914505  0.32751932  1
  Ag  Ag41  1  0.50211049  0.33115261  0.83669295  1
  Ag  Ag42  1  0.83072999  0.15821811  -0.00636914  1
  Ag  Ag43  1  0.17165515  0.34657677  0.16683008  1
  Ag  Ag44  1  -0.00621153  0.67027032  0.00325632  1
  Ag  Ag45  1  -0.00139144  0.50325083  0.83172771  1
  Ag  Ag46  1  0.49539718  0.16311700  0.32967307  1
  Ag  Ag47  1  0.66832427  -0.00323734  -0.00487338  1
  Ag  Ag48  1  0.67405403  0.82619061  0.16176660  1
  Ag  Ag49  1  -0.00599885  0.16647766  0.82864136  1
  Ag  Ag50  1  0.15747171  0.15916155  0.66081743  1
  Ag  Ag51  1  0.33594020  -0.00868220  -0.00146380  1
  Ag  Ag52  1  0.00046118  0.15647477  0.50667002  1
  Ag  Ag53  1  0.16289374  0.50548477  0.00932244  1
  Sb  Sb54  1  0.83171735  0.34386847  0.16279124  1
  Sb  Sb55  1  0.33608358  0.15940764  0.83352429  1
  Sb  Sb56  1  0.50306899  0.66915478  0.49917715  1
  Sb  Sb57  1  0.83355985  0.33675822  0.50213240  1
  Sb  Sb58  1  0.83209471  0.66598002  0.83563013  1
  Sb  Sb59  1  0.67316228  0.83086464  0.49786633  1
  Sb  Sb60  1  0.83267449  -0.00956814  0.16484366  1
  Sb  Sb61  1  0.00347068  0.50962737  0.16529902  1
  Sb  Sb62  1  0.00023469  0.33772813  0.00010910  1
  Sb  Sb63  1  0.66378611  0.83693427  0.83838935  1
  Sb  Sb64  1  0.16280868  0.50219982  0.66413652  1
  Sb  Sb65  1  0.66467305  0.33342055  -0.00409354  1
  Sb  Sb66  1  0.49515354  0.49791001  0.33320737  1
  Sb  Sb67  1  0.50230776  0.83534708  0.00124056  1
  Sb  Sb68  1  0.50045226  0.33067453  0.50047964  1
  Sb  Sb69  1  -0.00469672  0.33439999  0.66702404  1
  Sb  Sb70  1  0.16508117  0.16648683  0.00024475  1
  Sb  Sb71  1  0.16851688  -0.00437980  0.17021044  1
  Sb  Sb72  1  0.50346200  0.16481301  0.66974411  1
  Sb  Sb73  1  0.67056766  0.16590707  0.50658383  1
  Sb  Sb74  1  0.66271451  -0.00106183  0.33404133  1
  Sb  Sb75  1  0.33260147  0.33026706  0.33246660  1
  Sb  Sb76  1  0.16669177  0.33036918  0.49754060  1
  Sb  Sb77  1  0.66440729  0.33509603  0.33523327  1
  Sb  Sb78  1  0.33442025  0.16428938  0.16629385  1
  Sb  Sb79  1  0.17059518  0.33295054  0.83657239  1
  Sb  Sb80  1  0.83568738  0.15696697  0.33626264  1
  Sb  Sb81  1  0.00015123  0.16008339  0.16587700  1
  Sb  Sb82  1  0.67142715  0.66874789  0.67153954  1
  Sb  Sb83  1  0.15989079  0.67038033  0.49598912  1
  Sb  Sb84  1  0.33780325  0.32991807  0.66595417  1
  Sb  Sb85  1  0.00245430  0.83271880  0.83219852  1
  Sb  Sb86  1  -0.00151261  -0.00277780  0.66816041  1
  Sb  Sb87  1  0.82857257  0.00122829  0.83041668  1
  Sb  Sb88  1  0.50159747  0.50289312  -0.00058998  1
  Sb  Sb89  1  0.83849204  0.50869306  0.33452214  1
  Sb  Sb90  1  0.82865009  0.33213416  0.83209182  1
  Sb  Sb91  1  0.16456771  0.83016823  -0.00014146  1
  Sb  Sb92  1  0.66569293  0.16555937  0.15949722  1
  Sb  Sb93  1  0.50037178  0.83632429  0.33152074  1
  Sb  Sb94  1  0.33532850  0.33686791  0.00221086  1
  Sb  Sb95  1  0.16792431  0.66713402  0.83908290  1
  Sb  Sb96  1  0.32931309  0.67311542  0.66873799  1
  Sb  Sb97  1  0.32946932  0.15928547  0.49996255  1
  Sb  Sb98  1  0.67254905  0.66739865  0.32475924  1
  Sb  Sb99  1  0.66915401  0.49854484  0.83344247  1
  Sb  Sb100  1  0.00185836  0.33989239  0.33296316  1
  Sb  Sb101  1  0.17101531  -0.00094544  0.82812520  1
  Sb  Sb102  1  0.50091182  0.83252408  0.66698644  1
  Sb  Sb103  1  0.32731736  0.67118058  0.32700761  1
  Sb  Sb104  1  0.49862976  -0.00241857  0.16292846  1
  Sb  Sb105  1  0.16343294  0.83259292  0.33658063  1
  Sb  Sb106  1  0.33230711  0.50658320  0.83531619  1
  Sb  Sb107  1  0.00395130  -0.00623479  0.33512405  1
  Te  Te108  1  0.16657180  0.16827128  0.17125416  1
  Te  Te109  1  0.16351988  0.16397690  0.49989355  1
  Te  Te110  1  0.16217292  0.16798747  0.83026799  1
  Te  Te111  1  0.16680507  0.50308698  0.16687236  1
  Te  Te112  1  0.16482816  0.49940536  0.49767504  1
  Te  Te113  1  0.16088585  0.49845097  0.83576739  1
  Te  Te114  1  0.16635524  0.82768111  0.16849328  1
  Te  Te115  1  0.16540324  0.83623315  0.50159757  1
  Te  Te116  1  0.17415301  0.83304833  0.82354610  1
  Te  Te117  1  0.50048332  0.16959320  0.16476718  1
  Te  Te118  1  0.50068007  0.16172025  0.49740682  1
  Te  Te119  1  0.50233439  0.16395520  0.83512432  1
  Te  Te120  1  0.49978440  0.50170968  0.16650757  1
  Te  Te121  1  0.50092800  0.50044394  0.50254499  1
  Te  Te122  1  0.49958228  0.50095149  0.83005188  1
  Te  Te123  1  0.49608793  0.82727079  0.16784394  1
  Te  Te124  1  0.49746207  0.83802360  0.49896067  1
  Te  Te125  1  0.49476305  0.83393045  0.83267867  1
  Te  Te126  1  0.83322260  0.16809834  0.16337976  1
  Te  Te127  1  0.83850947  0.16468234  0.50297780  1
  Te  Te128  1  0.83355534  0.16705834  0.83309099  1
  Te  Te129  1  0.82994100  0.50739289  0.16536209  1
  Te  Te130  1  0.83602980  0.50347976  0.50130738  1
  Te  Te131  1  0.83803137  0.49869643  0.83332553  1
  Te  Te132  1  0.83542278  0.83024465  0.16352461  1
  Te  Te133  1  0.83437249  0.83183723  0.50314927  1
  Te  Te134  1  0.83350981  0.83339903  0.83149026  1
  Te  Te135  1  0.17148372  -0.00006698  0.00075597  1
  Te  Te136  1  0.17097465  0.00367462  0.33768747  1
  Te  Te137  1  0.16679432  -0.00045882  0.66255602  1
  Te  Te138  1  0.16815059  0.33879495  0.00604577  1
  Te  Te139  1  0.16722631  0.33285277  0.32723756  1
  Te  Te140  1  0.16810650  0.32579163  0.66755471  1
  Te  Te141  1  0.16699015  0.66459431  0.00362350  1
  Te  Te142  1  0.16092883  0.66326969  0.32776256  1
  Te  Te143  1  0.16011111  0.67096277  0.66794682  1
  Te  Te144  1  0.50034081  0.00188579  -0.00209521  1
  Te  Te145  1  0.49554706  0.00427130  0.33378215  1
  Te  Te146  1  0.50048929  -0.00014844  0.66790018  1
  Te  Te147  1  0.49953401  0.32766850  0.00054798  1
  Te  Te148  1  0.49915742  0.32539616  0.32773986  1
  Te  Te149  1  0.50461028  0.33730649  0.66847279  1
  Te  Te150  1  0.49859676  0.66685698  0.00105598  1
  Te  Te151  1  0.50069558  0.66607007  0.32847490  1
  Te  Te152  1  0.50000405  0.66107915  0.66777359  1
  Te  Te153  1  0.83186376  -0.00079122  -0.00071237  1
  Te  Te154  1  0.83263479  -0.00763783  0.34049883  1
  Te  Te155  1  0.83207913  0.00069269  0.66473774  1
  Te  Te156  1  0.83280800  0.32927419  -0.00041244  1
  Te  Te157  1  0.83333369  0.32909496  0.33150773  1
  Te  Te158  1  0.82616196  0.33480423  0.66701718  1
  Te  Te159  1  0.83283569  0.66909283  -0.00045082  1
  Te  Te160  1  0.83853618  0.67206229  0.33524142  1
  Te  Te161  1  0.83655714  0.66533441  0.66805475  1
  Te  Te162  1  -0.00258988  0.16411850  -0.00194845  1
  Te  Te163  1  0.00409378  0.16565346  0.33675038  1
  Te  Te164  1  -0.00245472  0.16758121  0.66665522  1
  Te  Te165  1  -0.00261020  0.50321974  -0.00163527  1
  Te  Te166  1  0.00506325  0.50626540  0.33940608  1
  Te  Te167  1  -0.00286810  0.50145574  0.66616632  1
  Te  Te168  1  -0.00164544  0.83271180  -0.00137256  1
  Te  Te169  1  -0.00241117  0.82968023  0.33463853  1
  Te  Te170  1  -0.00166835  0.83106605  0.66604080  1
  Te  Te171  1  0.33556639  0.16098257  -0.00009210  1
  Te  Te172  1  0.33207316  0.16091690  0.33332736  1
  Te  Te173  1  0.32895261  0.16052045  0.66680895  1
  Te  Te174  1  0.33084547  0.50516623  0.00331225  1
  Te  Te175  1  0.32872381  0.50061045  0.33256904  1
  Te  Te176  1  0.33299617  0.50017312  0.66502102  1
  Te  Te177  1  0.33073950  0.83172596  0.00167418  1
  Te  Te178  1  0.33256502  0.83846681  0.33603558  1
  Te  Te179  1  0.33346440  0.83688614  0.66134849  1
  Te  Te180  1  0.66764100  0.16453663  -0.00446563  1
  Te  Te181  1  0.66344188  0.16663517  0.33307572  1
  Te  Te182  1  0.67043196  0.16240057  0.67036077  1
  Te  Te183  1  0.67103445  0.50282146  0.00251011  1
  Te  Te184  1  0.66696278  0.49955011  0.33445455  1
  Te  Te185  1  0.66943056  0.50258169  0.66628058  1
  Te  Te186  1  0.67079551  0.83411010  0.00230801  1
  Te  Te187  1  0.67351132  0.83452404  0.32582373  1
  Te  Te188  1  0.67333522  0.83828720  0.66664442  1
  Te  Te189  1  0.00063461  -0.00864339  0.16053310  1
  Te  Te190  1  0.00036623  -0.00343102  0.50067070  1
  Te  Te191  1  0.00256964  0.00361342  0.84011600  1
  Te  Te192  1  0.00431442  0.33186122  0.16731484  1
  Te  Te193  1  0.00026469  0.33146040  0.49946139  1
  Te  Te194  1  0.00201972  0.33179225  0.83364948  1
  Te  Te195  1  -0.00214814  0.66894633  0.16403090  1
  Te  Te196  1  -0.00105468  0.67056736  0.50198695  1
  Te  Te197  1  0.00036404  0.66376535  0.83757488  1
  Te  Te198  1  0.33375112  -0.00585277  0.16263575  1
  Te  Te199  1  0.33312371  -0.00179238  0.50164721  1
  Te  Te200  1  0.33762386  -0.00498637  0.83502572  1
  Te  Te201  1  0.33472275  0.33893876  0.16721066  1
  Te  Te202  1  0.33420323  0.34658232  0.49981271  1
  Te  Te203  1  0.34228740  0.33354293  0.83387610  1
  Te  Te204  1  0.33364346  0.66688074  0.16666750  1
  Te  Te205  1  0.33381910  0.66835501  0.49884178  1
  Te  Te206  1  0.33816930  0.67241674  0.83764594  1
  Te  Te207  1  0.66564864  -0.00455226  0.16128055  1
  Te  Te208  1  0.66493935  -0.00057521  0.50291561  1
  Te  Te209  1  0.66142660  0.00256492  0.83416238  1
  Te  Te210  1  0.66186159  0.33871528  0.16670776  1
  Te  Te211  1  0.66604871  0.33982430  0.50663713  1
  Te  Te212  1  0.66045174  0.32814139  0.82863309  1
  Te  Te213  1  0.66767360  0.66629443  0.16356183  1
  Te  Te214  1  0.67150030  0.66245735  0.50034110  1
  Te  Te215  1  0.65856137  0.66730975  0.84104934  1
