# generated using pymatgen
data_AgSbTe2
_symmetry_space_group_name_H-M   'P 1'
_cell_length_a   18.31840128
_cell_length_b   18.32144127
_cell_length_c   18.32570875
_cell_angle_alpha   89.99983881
_cell_angle_beta   89.99899887
_cell_angle_gamma   89.99578998
_symmetry_Int_Tables_number   1
_chemical_formula_structural   AgSbTe2
_chemical_formula_sum   'Ag54 Sb54 Te108'
_cell_volume   6150.46543225
_cell_formula_units_Z   54
loop_
 _symmetry_equiv_pos_site_id
 _symmetry_equiv_pos_as_xyz
  1  'x, y, z'
loop_
 _atom_site_type_symbol
 _atom_site_label
 _atom_site_symmetry_multiplicity
 _atom_site_fract_x
 _atom_site_fract_y
 _atom_site_fract_z
 _atom_site_occupancy
  Ag  Ag0  1  0.16598012  0.50641989  0.33122746  1
  Ag  Ag1  1  0.83916227  0.49160785  0.00225991  1
  Ag  Ag2  1  0.49819176  0.33339997  0.50070548  1
  Ag  Ag3  1  0.82948118  0.83693129  -0.00059562  1
  Ag  Ag4  1  0.32454098  0.16744101  0.16692796  1
  Ag  Ag5  1  -0.00015927  0.33363181  0.00788926  1
  Ag  Ag6  1  0.67264957  0.83515632  0.16951179  1
  Ag  Ag7  1  0.33512939  -0.00074171  0.65932499  1
  Ag  Ag8  1  0.16112742  0.49419562  0.00707974  1
  Ag  Ag9  1  0.66796069  0.16519246  0.83621837  1
  Ag  Ag10  1  0.66798990  0.67675063  0.33403546  1
  Ag  Ag11  1  0.49065047  0.66816522  0.49876833  1
  Ag  Ag12  1  0.50104126  0.83135015  0.33290936  1
  Ag  Ag13  1  0.16816262  0.16848085  0.65957662  1
  Ag  Ag14  1  0.16687024  -0.00261625  0.49669850  1
  Ag  Ag15  1  0.32990653  0.83094287  0.49465849  1
  Ag  Ag16  1  0.83805850  0.67406823  0.16781254  1
  Ag  Ag17  1  0.50646367  0.16582654  -0.00481220  1
  Ag  Ag18  1  0.16521230  0.33327761  0.84349270  1
  Ag  Ag19  1  0.49621549  0.16560079  0.67097117  1
  Ag  Ag20  1  0.50047369  0.32818140  0.83442132  1
  Ag  Ag21  1  0.83120376  -0.00592235  0.83982132  1
  Ag  Ag22  1  0.83154280  -0.00616154  0.16289689  1
  Ag  Ag23  1  0.50585095  0.83705639  0.00020997  1
  Ag  Ag24  1  0.00155323  0.49107412  0.16656823  1
  Ag  Ag25  1  0.83022861  0.83354501  0.33063214  1
  Ag  Ag26  1  0.15561025  0.33754468  0.16444212  1
  Ag  Ag27  1  0.83397554  0.83505331  0.66938743  1
  Ag  Ag28  1  0.83518874  -0.00796127  0.49738954  1
  Ag  Ag29  1  0.83042164  0.67737353  0.83784773  1
  Ag  Ag30  1  0.66935162  -0.00447555  0.33193396  1
  Ag  Ag31  1  -0.01008700  0.83139555  0.83423448  1
  Ag  Ag32  1  0.17138013  0.82812352  0.33483097  1
  Ag  Ag33  1  0.67214890  0.33037359  0.33184424  1
  Ag  Ag34  1  0.16647266  0.49779070  0.66081060  1
  Ag  Ag35  1  0.67160680  0.00018466  -0.00077843  1
  Ag  Ag36  1  0.83611771  0.67387244  0.49326971  1
  Ag  Ag37  1  0.83496597  0.32944681  0.84292246  1
  Ag  Ag38  1  0.16417388  0.16775404  0.33518245  1
  Ag  Ag39  1  -0.00061418  0.66782977  0.66517292  1
  Ag  Ag40  1  0.00263486  0.16678861  0.49465056  1
  Ag  Ag41  1  0.32753984  0.67391492  0.33656981  1
  Ag  Ag42  1  0.00208874  0.17649330  0.17018322  1
  Ag  Ag43  1  0.32400270  0.33246380  -0.00004825  1
  Ag  Ag44  1  0.50460691  0.67140173  0.82933487  1
  Ag  Ag45  1  0.84337145  0.33164440  0.16003268  1
  Ag  Ag46  1  0.32885327  0.51005656  0.49806650  1
  Ag  Ag47  1  0.66837895  0.00070118  0.66816740  1
  Ag  Ag48  1  0.17136602  0.66969234  0.49487009  1
  Ag  Ag49  1  0.15991996  0.65942299  0.17703186  1
  Ag  Ag50  1  0.33248656  0.83371633  0.82978327  1
  Ag  Ag51  1  0.82964850  0.16680283  0.00049383  1
  Ag  Ag52  1  0.33161488  -0.00785500  0.33856373  1
  Ag  Ag53  1  0.00052107  0.32996417  0.32125202  1
  Sb  Sb54  1  0.67587294  0.50323726  0.16766218  1
  Sb  Sb55  1  0.83392443  0.15993454  0.67114495  1
  Sb  Sb56  1  -0.00125827  0.00343484  0.33461710  1
  Sb  Sb57  1  0.66894668  0.83810405  0.83842232  1
  Sb  Sb58  1  0.00040707  0.50209716  0.83873703  1
  Sb  Sb59  1  0.49442066  0.50539931  0.33451001  1
  Sb  Sb60  1  0.16326789  0.00353637  0.82794447  1
  Sb  Sb61  1  0.50628657  -0.00062902  0.16696581  1
  Sb  Sb62  1  0.16592557  0.82797422  0.00470762  1
  Sb  Sb63  1  0.83867545  0.50428031  0.32851967  1
  Sb  Sb64  1  0.33055837  0.67205380  0.66073744  1
  Sb  Sb65  1  0.50164000  0.67008988  0.17008654  1
  Sb  Sb66  1  0.83727346  0.16139432  0.32748011  1
  Sb  Sb67  1  0.32882924  0.16338832  0.49646760  1
  Sb  Sb68  1  0.83126363  0.33321502  0.49641764  1
  Sb  Sb69  1  0.66967194  0.67366924  0.00386949  1
  Sb  Sb70  1  0.33166697  0.32763120  0.66984320  1
  Sb  Sb71  1  0.00554111  0.49822527  0.49463310  1
  Sb  Sb72  1  0.00045269  0.83472176  0.50100131  1
  Sb  Sb73  1  0.50305274  0.83663812  0.66582212  1
  Sb  Sb74  1  0.67162053  0.16263910  0.16350270  1
  Sb  Sb75  1  -0.00773705  0.00587078  0.00096652  1
  Sb  Sb76  1  -0.00215844  -0.00313407  0.66534237  1
  Sb  Sb77  1  0.00171187  0.66533155  0.33514050  1
  Sb  Sb78  1  0.66981200  0.16394614  0.50173575  1
  Sb  Sb79  1  0.32981995  0.33235207  0.33022585  1
  Sb  Sb80  1  0.50071073  0.33066711  0.16543731  1
  Sb  Sb81  1  -0.00616442  0.83342304  0.16378553  1
  Sb  Sb82  1  0.17044864  0.33363287  0.49612170  1
  Sb  Sb83  1  0.66611774  0.32662125  0.66541650  1
  Sb  Sb84  1  0.50041746  0.49850360  -0.00175064  1
  Sb  Sb85  1  -0.00385454  0.16626606  0.83480184  1
  Sb  Sb86  1  0.33320692  0.66365983  0.00418387  1
  Sb  Sb87  1  0.33810153  0.00283674  0.00166274  1
  Sb  Sb88  1  0.16523476  0.17233514  0.00278902  1
  Sb  Sb89  1  0.66713423  0.83402878  0.49138969  1
  Sb  Sb90  1  0.33459545  0.83726175  0.17163862  1
  Sb  Sb91  1  0.32311640  0.49654319  0.17102771  1
  Sb  Sb92  1  0.67142402  0.67487910  0.66281561  1
  Sb  Sb93  1  0.49823177  -0.00214335  0.49926532  1
  Sb  Sb94  1  -0.00408829  0.66186434  -0.00080922  1
  Sb  Sb95  1  0.33072767  0.50266531  0.82972992  1
  Sb  Sb96  1  0.67165050  0.32779670  0.00381402  1
  Sb  Sb97  1  0.33625295  0.16408238  0.83635947  1
  Sb  Sb98  1  0.00129129  0.33587199  0.66817453  1
  Sb  Sb99  1  0.83978821  0.50781209  0.67188681  1
  Sb  Sb100  1  0.16128207  0.00210077  0.17381563  1
  Sb  Sb101  1  0.50577668  0.00052501  0.83311470  1
  Sb  Sb102  1  0.16418484  0.83415665  0.66213281  1
  Sb  Sb103  1  0.66437348  0.50164782  0.49717470  1
  Sb  Sb104  1  0.16532049  0.66386133  0.83178808  1
  Sb  Sb105  1  0.66889275  0.49582594  0.83417354  1
  Sb  Sb106  1  0.49375605  0.49656527  0.66427865  1
  Sb  Sb107  1  0.49680931  0.16307901  0.33271582  1
  Te  Te108  1  0.16405454  0.16775523  0.16860731  1
  Te  Te109  1  0.16469914  0.16650091  0.49866530  1
  Te  Te110  1  0.16630095  0.17185035  0.82973436  1
  Te  Te111  1  0.16336093  0.49938303  0.16836583  1
  Te  Te112  1  0.16887460  0.50129557  0.49790550  1
  Te  Te113  1  0.16660047  0.49484826  0.83447972  1
  Te  Te114  1  0.16544318  0.82995538  0.17227538  1
  Te  Te115  1  0.16730735  0.83333912  0.49657317  1
  Te  Te116  1  0.17016481  0.83349620  0.83434885  1
  Te  Te117  1  0.49610102  0.16569286  0.16223817  1
  Te  Te118  1  0.50048389  0.17012925  0.50278816  1
  Te  Te119  1  0.50194068  0.16710863  0.83390900  1
  Te  Te120  1  0.50040132  0.50096447  0.16524610  1
  Te  Te121  1  0.49368235  0.50179880  0.50023660  1
  Te  Te122  1  0.49991019  0.49963557  0.83222892  1
  Te  Te123  1  0.50489613  0.83293995  0.16541776  1
  Te  Te124  1  0.49439535  0.82946564  0.49745068  1
  Te  Te125  1  0.49928416  0.83128068  0.83441796  1
  Te  Te126  1  0.83590288  0.16932857  0.16296293  1
  Te  Te127  1  0.83890851  0.16447611  0.50162046  1
  Te  Te128  1  0.83125583  0.16774958  0.83644385  1
  Te  Te129  1  0.83958572  0.49910914  0.16264734  1
  Te  Te130  1  0.83425400  0.50683760  0.50179650  1
  Te  Te131  1  0.83420356  0.49753553  0.83948702  1
  Te  Te132  1  0.83303906  0.83314366  0.16775243  1
  Te  Te133  1  0.83485649  0.83277286  0.49688540  1
  Te  Te134  1  0.83071649  0.83458546  0.83596647  1
  Te  Te135  1  0.16743345  -0.00123611  -0.00105641  1
  Te  Te136  1  0.16830638  0.00156152  0.33709060  1
  Te  Te137  1  0.16976868  0.00330379  0.66118141  1
  Te  Te138  1  0.16576468  0.33337396  0.00234236  1
  Te  Te139  1  0.16592046  0.32850853  0.32914961  1
  Te  Te140  1  0.16669885  0.33188306  0.66871689  1
  Te  Te141  1  0.16641583  0.65923472  0.00322298  1
  Te  Te142  1  0.16545336  0.66750102  0.33453953  1
  Te  Te143  1  0.16319166  0.66498144  0.66315100  1
  Te  Te144  1  0.50590885  -0.00119307  0.00004894  1
  Te  Te145  1  0.50072402  -0.00596037  0.33371233  1
  Te  Te146  1  0.50081580  0.00474333  0.66623870  1
  Te  Te147  1  0.50230365  0.33035203  -0.00384282  1
  Te  Te148  1  0.50158955  0.33283657  0.33624548  1
  Te  Te149  1  0.49965626  0.32804709  0.66958658  1
  Te  Te150  1  0.50082852  0.66922865  -0.00429305  1
  Te  Te151  1  0.50214055  0.67074444  0.33657872  1
  Te  Te152  1  0.50194023  0.66589897  0.66675691  1
  Te  Te153  1  0.83131809  -0.00118168  0.00035813  1
  Te  Te154  1  0.83156946  -0.00294809  0.33643588  1
  Te  Te155  1  0.83105047  -0.00370774  0.66335071  1
  Te  Te156  1  0.83268440  0.33139710  0.00052619  1
  Te  Te157  1  0.83345823  0.33403198  0.33213450  1
  Te  Te158  1  0.83257738  0.33552950  0.67063692  1
  Te  Te159  1  0.83260271  0.67301705  -0.00071167  1
  Te  Te160  1  0.83399082  0.66912622  0.33252340  1
  Te  Te161  1  0.83652092  0.67220492  0.66972329  1
  Te  Te162  1  -0.00481823  0.17269878  0.00264179  1
  Te  Te163  1  0.00279882  0.16990393  0.33269931  1
  Te  Te164  1  0.00550964  0.16726090  0.66461966  1
  Te  Te165  1  -0.00017115  0.49583043  0.00390841  1
  Te  Te166  1  0.00559151  0.49270893  0.32833347  1
  Te  Te167  1  0.00734393  0.50482680  0.66580897  1
  Te  Te168  1  -0.00244739  0.83300565  -0.00545413  1
  Te  Te169  1  -0.00129204  0.83393454  0.33238946  1
  Te  Te170  1  -0.00399251  0.82966561  0.67066188  1
  Te  Te171  1  0.33684106  0.17001158  0.00354393  1
  Te  Te172  1  0.32988997  0.16297656  0.32901791  1
  Te  Te173  1  0.33214932  0.16049010  0.66702344  1
  Te  Te174  1  0.33061483  0.49436406  -0.00068675  1
  Te  Te175  1  0.32717605  0.50340076  0.33762867  1
  Te  Te176  1  0.32604212  0.50062968  0.66068787  1
  Te  Te177  1  0.33629952  0.83344480  -0.00082227  1
  Te  Te178  1  0.33302295  0.83390740  0.33336164  1
  Te  Te179  1  0.33432375  0.83901012  0.66649052  1
  Te  Te180  1  0.66723322  0.16193139  -0.00213570  1
  Te  Te181  1  0.66581843  0.16443513  0.33263843  1
  Te  Te182  1  0.66395857  0.16050066  0.67097478  1
  Te  Te183  1  0.67421950  0.50158786  0.00085803  1
  Te  Te184  1  0.66612467  0.49763713  0.33299974  1
  Te  Te185  1  0.66708304  0.50001709  0.66571516  1
  Te  Te186  1  0.66648684  0.83830199  0.00496761  1
  Te  Te187  1  0.66762419  0.83410161  0.33115124  1
  Te  Te188  1  0.67200194  0.84137338  0.66640351  1
  Te  Te189  1  -0.00801548  0.00580868  0.16668292  1
  Te  Te190  1  0.00098335  0.00450597  0.50104753  1
  Te  Te191  1  -0.00579947  -0.00573218  0.83336501  1
  Te  Te192  1  -0.00041991  0.33376959  0.16513166  1
  Te  Te193  1  -0.00083234  0.32825686  0.49837517  1
  Te  Te194  1  -0.00120789  0.33396328  0.83620144  1
  Te  Te195  1  -0.00087673  0.66538744  0.16669165  1
  Te  Te196  1  -0.00161735  0.66587533  0.50327258  1
  Te  Te197  1  -0.00345624  0.66985014  0.82982004  1
  Te  Te198  1  0.33088151  0.00536200  0.17080000  1
  Te  Te199  1  0.33138057  -0.00265044  0.49883420  1
  Te  Te200  1  0.33235733  -0.00590265  0.83297952  1
  Te  Te201  1  0.33302251  0.32957528  0.16229197  1
  Te  Te202  1  0.33872702  0.33408163  0.50010100  1
  Te  Te203  1  0.33380356  0.33389901  0.83759666  1
  Te  Te204  1  0.33023038  0.66616270  0.17297911  1
  Te  Te205  1  0.33150930  0.66988840  0.49832643  1
  Te  Te206  1  0.33595594  0.67179832  0.83375286  1
  Te  Te207  1  0.67198020  -0.00292643  0.16986962  1
  Te  Te208  1  0.67103844  -0.00006379  0.49757473  1
  Te  Te209  1  0.67149946  0.00373378  0.83388820  1
  Te  Te210  1  0.66914751  0.33414473  0.17271612  1
  Te  Te211  1  0.66167847  0.33324465  0.49447232  1
  Te  Te212  1  0.66597728  0.32833498  0.83313211  1
  Te  Te213  1  0.67134244  0.67071730  0.17300698  1
  Te  Te214  1  0.66929405  0.66725539  0.49498568  1
  Te  Te215  1  0.66726543  0.66530657  0.83178998  1
