# generated using pymatgen
data_AgSbTe2
_symmetry_space_group_name_H-M   'P 1'
_cell_length_a   18.33553558
_cell_length_b   18.33208903
_cell_length_c   18.34109447
_cell_angle_alpha   89.99918789
_cell_angle_beta   89.99757986
_cell_angle_gamma   90.00226156
_symmetry_Int_Tables_number   1
_chemical_formula_structural   AgSbTe2
_chemical_formula_sum   'Ag54 Sb54 Te108'
_cell_volume   6164.96769122
_cell_formula_units_Z   54
loop_
 _symmetry_equiv_pos_site_id
 _symmetry_equiv_pos_as_xyz
  1  'x, y, z'
loop_
 _atom_site_type_symbol
 _atom_site_label
 _atom_site_symmetry_multiplicity
 _atom_site_fract_x
 _atom_site_fract_y
 _atom_site_fract_z
 _atom_site_occupancy
  Ag  Ag0  1  0.82991402  0.50387574  0.00066556  1
  Ag  Ag1  1  0.17260877  0.50737627  0.00206669  1
  Ag  Ag2  1  0.32746120  0.66491267  0.00882669  1
  Ag  Ag3  1  0.66741751  0.01253864  0.66945441  1
  Ag  Ag4  1  -0.00101330  0.83078366  0.49507264  1
  Ag  Ag5  1  0.32786574  0.50542505  0.16685138  1
  Ag  Ag6  1  0.51187441  0.16526738  0.66983218  1
  Ag  Ag7  1  0.67087669  0.16982826  0.16456560  1
  Ag  Ag8  1  0.16841842  0.66473857  0.84748923  1
  Ag  Ag9  1  -0.00481297  0.33547742  0.66442237  1
  Ag  Ag10  1  0.83505337  0.66817047  0.49043392  1
  Ag  Ag11  1  0.16541059  0.49841629  0.67171843  1
  Ag  Ag12  1  0.66513605  0.34004999  -0.00972174  1
  Ag  Ag13  1  0.49397950  0.82239676  -0.00011469  1
  Ag  Ag14  1  0.82429679  0.17201485  0.66347972  1
  Ag  Ag15  1  0.16717839  0.34358244  0.16925097  1
  Ag  Ag16  1  0.66750012  0.16808396  0.51436625  1
  Ag  Ag17  1  0.33677388  0.50604749  0.84301739  1
  Ag  Ag18  1  0.50403122  0.33385507  0.83299994  1
  Ag  Ag19  1  0.00378069  0.83235213  0.83746185  1
  Ag  Ag20  1  0.48896038  0.66572893  0.16304933  1
  Ag  Ag21  1  0.33040478  0.34240002  0.33193178  1
  Ag  Ag22  1  0.83403473  0.82465701  0.33484711  1
  Ag  Ag23  1  0.49858445  0.83624201  0.67571679  1
  Ag  Ag24  1  0.66133071  0.65889989  0.00083542  1
  Ag  Ag25  1  0.82712649  0.00266145  0.82751520  1
  Ag  Ag26  1  -0.00766019  0.16713352  0.83500456  1
  Ag  Ag27  1  0.67005524  0.32561782  0.67265177  1
  Ag  Ag28  1  0.33041886  0.81965867  0.16474979  1
  Ag  Ag29  1  -0.00107139  0.17311459  0.16557798  1
  Ag  Ag30  1  0.33188551  0.50110407  0.48735205  1
  Ag  Ag31  1  0.83666589  0.66337785  0.16716754  1
  Ag  Ag32  1  0.49011046  0.50367813  0.32353371  1
  Ag  Ag33  1  0.33294989  0.82780168  0.49412058  1
  Ag  Ag34  1  0.01211093  0.66554736  0.00478717  1
  Ag  Ag35  1  0.17435955  0.66099037  0.15943384  1
  Ag  Ag36  1  0.49340315  0.82580955  0.32928821  1
  Ag  Ag37  1  0.16895421  0.33707376  0.49265133  1
  Ag  Ag38  1  0.49824931  0.50440415  0.00313596  1
  Ag  Ag39  1  0.00484495  0.81919471  0.16368775  1
  Ag  Ag40  1  0.50508921  0.00129342  0.83094902  1
  Ag  Ag41  1  0.00805302  0.50331958  0.16429886  1
  Ag  Ag42  1  0.33242703  0.17333423  0.17188214  1
  Ag  Ag43  1  0.83219419  -0.00028092  0.50389281  1
  Ag  Ag44  1  0.66309437  0.49298084  0.83764764  1
  Ag  Ag45  1  0.83525208  0.49482683  0.66741348  1
  Ag  Ag46  1  0.33712145  0.17308659  0.49570335  1
  Ag  Ag47  1  0.33669454  0.65932122  0.32183204  1
  Ag  Ag48  1  0.00289857  0.33537326  0.33149145  1
  Ag  Ag49  1  0.17307349  0.82016472  0.00051801  1
  Ag  Ag50  1  0.33440412  0.82364578  0.84450077  1
  Ag  Ag51  1  0.83114417  0.50352041  0.32994931  1
  Ag  Ag52  1  0.83195940  0.16894083  0.33644595  1
  Ag  Ag53  1  0.67007890  0.17378424  0.82662391  1
  Sb  Sb54  1  -0.00361556  0.16693372  0.49957522  1
  Sb  Sb55  1  0.66695549  0.83560501  0.50064229  1
  Sb  Sb56  1  0.83695290  0.33338709  0.50113313  1
  Sb  Sb57  1  0.16522437  0.66213921  0.49659042  1
  Sb  Sb58  1  0.66817025  0.00149710  0.33826973  1
  Sb  Sb59  1  -0.00306143  0.34006640  0.00103932  1
  Sb  Sb60  1  0.33659903  0.16850246  0.83326156  1
  Sb  Sb61  1  -0.00181178  -0.00713796  -0.00100496  1
  Sb  Sb62  1  0.00271419  0.50184992  0.49503241  1
  Sb  Sb63  1  0.50019990  0.49959901  0.67097822  1
  Sb  Sb64  1  0.16642305  0.17288544  0.00202880  1
  Sb  Sb65  1  0.33701344  0.34371942  0.00586886  1
  Sb  Sb66  1  0.83245046  0.17240117  -0.00075900  1
  Sb  Sb67  1  0.50012498  0.17040472  -0.00265923  1
  Sb  Sb68  1  0.66499636  0.83324981  0.16539091  1
  Sb  Sb69  1  -0.00368005  0.00106223  0.33351839  1
  Sb  Sb70  1  0.17046015  0.82520195  0.67083002  1
  Sb  Sb71  1  0.66671919  0.33438505  0.33347880  1
  Sb  Sb72  1  0.16705709  0.82958408  0.32817947  1
  Sb  Sb73  1  0.34070830  -0.00098643  0.66741863  1
  Sb  Sb74  1  0.66607145  0.00216942  -0.00599395  1
  Sb  Sb75  1  -0.00070138  0.66316678  0.67013948  1
  Sb  Sb76  1  0.66736169  0.66348486  0.67250874  1
  Sb  Sb77  1  0.16658019  -0.00324154  0.16529825  1
  Sb  Sb78  1  0.33415462  0.33573130  0.66237257  1
  Sb  Sb79  1  0.49610094  0.33873470  0.16393713  1
  Sb  Sb80  1  0.16422383  0.17571431  0.66705376  1
  Sb  Sb81  1  0.83821882  0.33910049  0.16848346  1
  Sb  Sb82  1  0.50260651  0.16888768  0.33558163  1
  Sb  Sb83  1  0.66535043  0.49576959  0.50558449  1
  Sb  Sb84  1  0.49429066  0.66578568  0.84267341  1
  Sb  Sb85  1  0.83338596  -0.00173646  0.16646807  1
  Sb  Sb86  1  0.50163214  0.66747011  0.49378651  1
  Sb  Sb87  1  0.16345172  0.17173435  0.33220797  1
  Sb  Sb88  1  0.33525888  -0.01095515  -0.00005434  1
  Sb  Sb89  1  0.82857351  0.33164870  0.83130257  1
  Sb  Sb90  1  0.83147959  0.83422351  0.66380914  1
  Sb  Sb91  1  0.66408775  0.83290814  0.83451514  1
  Sb  Sb92  1  0.50442285  -0.00117599  0.50512026  1
  Sb  Sb93  1  0.83405502  0.82527814  0.00408077  1
  Sb  Sb94  1  0.33459009  0.66539652  0.66747567  1
  Sb  Sb95  1  0.16694158  -0.00626006  0.83334469  1
  Sb  Sb96  1  -0.00841073  0.00520353  0.66783285  1
  Sb  Sb97  1  0.83696440  0.66845218  0.83695097  1
  Sb  Sb98  1  0.16385281  0.00220806  0.50186611  1
  Sb  Sb99  1  -0.00012277  0.66206228  0.32485613  1
  Sb  Sb100  1  0.33594220  -0.00175422  0.33352867  1
  Sb  Sb101  1  0.66517285  0.66448427  0.32668284  1
  Sb  Sb102  1  0.17065593  0.34041332  0.83533753  1
  Sb  Sb103  1  0.49955430  -0.00502430  0.16079614  1
  Sb  Sb104  1  0.16877366  0.49949514  0.32754686  1
  Sb  Sb105  1  -0.00029262  0.50034437  0.83754648  1
  Sb  Sb106  1  0.66586609  0.49758789  0.15829428  1
  Sb  Sb107  1  0.49540038  0.33309687  0.50384201  1
  Te  Te108  1  0.16498729  0.16721799  0.16569385  1
  Te  Te109  1  0.17199319  0.17099602  0.50061775  1
  Te  Te110  1  0.16275267  0.16603924  0.83449283  1
  Te  Te111  1  0.16714830  0.50100654  0.16550694  1
  Te  Te112  1  0.17033996  0.49726058  0.50352602  1
  Te  Te113  1  0.16754329  0.50358037  0.83602137  1
  Te  Te114  1  0.16598029  0.83174825  0.16271940  1
  Te  Te115  1  0.16703819  0.83301997  0.50128664  1
  Te  Te116  1  0.16757740  0.82849425  0.83602112  1
  Te  Te117  1  0.49746491  0.16529319  0.16680349  1
  Te  Te118  1  0.49939463  0.16562194  0.50374863  1
  Te  Te119  1  0.50113597  0.16664771  0.83078385  1
  Te  Te120  1  0.50050945  0.50388998  0.16574678  1
  Te  Te121  1  0.49436130  0.50120299  0.49874454  1
  Te  Te122  1  0.49872198  0.49932244  0.83464575  1
  Te  Te123  1  0.49776012  0.83017525  0.16685401  1
  Te  Te124  1  0.49586358  0.83332460  0.49271927  1
  Te  Te125  1  0.49728225  0.83256777  0.83457097  1
  Te  Te126  1  0.83539004  0.16635275  0.16725707  1
  Te  Te127  1  0.83219469  0.16635140  0.50085793  1
  Te  Te128  1  0.83217123  0.16449204  0.83341645  1
  Te  Te129  1  0.83159036  0.50212744  0.16774143  1
  Te  Te130  1  0.83353450  0.50279398  0.50034440  1
  Te  Te131  1  0.83176342  0.50108108  0.83280547  1
  Te  Te132  1  0.83655922  0.83218421  0.17175645  1
  Te  Te133  1  0.83427217  0.83270747  0.49754619  1
  Te  Te134  1  0.83718105  0.83737508  0.83296090  1
  Te  Te135  1  0.16661762  -0.00795744  -0.00133444  1
  Te  Te136  1  0.16589898  0.00080820  0.33454882  1
  Te  Te137  1  0.16557407  0.00050014  0.66715700  1
  Te  Te138  1  0.16612091  0.34096311  0.00584997  1
  Te  Te139  1  0.16613964  0.33397074  0.33192658  1
  Te  Te140  1  0.16241063  0.34005824  0.66754883  1
  Te  Te141  1  0.16757378  0.66411220  0.00338351  1
  Te  Te142  1  0.17491849  0.66634562  0.32830991  1
  Te  Te143  1  0.16587389  0.65734530  0.66639506  1
  Te  Te144  1  0.50097030  -0.00558665  -0.00757340  1
  Te  Te145  1  0.50203403  -0.00841536  0.33207776  1
  Te  Te146  1  0.50584616  0.00005979  0.67049932  1
  Te  Te147  1  0.50415937  0.33810879  -0.00435674  1
  Te  Te148  1  0.49475230  0.33839739  0.33337240  1
  Te  Te149  1  0.50388059  0.33084701  0.67079762  1
  Te  Te150  1  0.49979565  0.66532339  0.00277611  1
  Te  Te151  1  0.49918599  0.66498138  0.32756480  1
  Te  Te152  1  0.50250750  0.67369259  0.66431295  1
  Te  Te153  1  0.83177761  -0.00086830  -0.00741909  1
  Te  Te154  1  0.83247655  0.00407519  0.33750253  1
  Te  Te155  1  0.82811891  0.00128704  0.66590768  1
  Te  Te156  1  0.82739489  0.34196926  0.00107630  1
  Te  Te157  1  0.83594277  0.33220990  0.33455272  1
  Te  Te158  1  0.83383182  0.33292337  0.66598574  1
  Te  Te159  1  0.82896467  0.66264537  0.00311001  1
  Te  Te160  1  0.83344544  0.66546528  0.33144806  1
  Te  Te161  1  0.83322507  0.66204045  0.66467014  1
  Te  Te162  1  0.00013707  0.16662486  -0.00058509  1
  Te  Te163  1  -0.00560765  0.17085851  0.33158619  1
  Te  Te164  1  -0.00373515  0.17238994  0.66849013  1
  Te  Te165  1  -0.00374158  0.50439315  0.00324053  1
  Te  Te166  1  -0.00627138  0.49568485  0.32816887  1
  Te  Te167  1  -0.00305507  0.49609663  0.66635397  1
  Te  Te168  1  -0.00032363  0.82759448  0.00206423  1
  Te  Te169  1  -0.00281592  0.83264215  0.33110952  1
  Te  Te170  1  0.00103062  0.83306873  0.67091054  1
  Te  Te171  1  0.33257113  0.16634887  0.00437690  1
  Te  Te172  1  0.33495884  0.16747965  0.33557155  1
  Te  Te173  1  0.33392792  0.16711140  0.66258251  1
  Te  Te174  1  0.33469273  0.50346103  0.00267024  1
  Te  Te175  1  0.33271303  0.49959309  0.33052199  1
  Te  Te176  1  0.33115798  0.49937953  0.66940997  1
  Te  Te177  1  0.33360391  0.82770359  0.00324192  1
  Te  Te178  1  0.33366743  0.83265401  0.32975507  1
  Te  Te179  1  0.33797560  0.83286638  0.66241658  1
  Te  Te180  1  0.66580241  0.17098949  0.00077797  1
  Te  Te181  1  0.67053412  0.16811127  0.32745571  1
  Te  Te182  1  0.66816585  0.16832532  0.67031498  1
  Te  Te183  1  0.66518862  0.49884104  -0.00230254  1
  Te  Te184  1  0.67139380  0.49867049  0.33691684  1
  Te  Te185  1  0.66982535  0.49573035  0.67264988  1
  Te  Te186  1  0.66137430  0.83032413  0.00050161  1
  Te  Te187  1  0.67085165  0.83342255  0.33309409  1
  Te  Te188  1  0.66002464  0.83317793  0.66679855  1
  Te  Te189  1  -0.00062687  0.00914662  0.16596013  1
  Te  Te190  1  -0.00499280  -0.00756597  0.50094088  1
  Te  Te191  1  -0.00217079  0.00142629  0.83289671  1
  Te  Te192  1  0.00388017  0.33364802  0.16762780  1
  Te  Te193  1  0.00664962  0.33324445  0.49837850  1
  Te  Te194  1  0.00253789  0.32943700  0.83129955  1
  Te  Te195  1  -0.00237451  0.66356960  0.16558558  1
  Te  Te196  1  -0.00301614  0.67136685  0.49872703  1
  Te  Te197  1  0.00506077  0.66966601  0.83842391  1
  Te  Te198  1  0.33319865  0.01158978  0.16625490  1
  Te  Te199  1  0.33252681  -0.00285177  0.50032636  1
  Te  Te200  1  0.33841479  -0.00400032  0.83297590  1
  Te  Te201  1  0.33027370  0.33319548  0.17035577  1
  Te  Te202  1  0.32949759  0.33558140  0.49617955  1
  Te  Te203  1  0.33925068  0.33744808  0.83386145  1
  Te  Te204  1  0.33389575  0.66538458  0.16576691  1
  Te  Te205  1  0.33333625  0.66665078  0.49792617  1
  Te  Te206  1  0.32935701  0.66599128  0.83316800  1
  Te  Te207  1  0.66710622  0.00870573  0.16522469  1
  Te  Te208  1  0.67157191  0.00523928  0.50534642  1
  Te  Te209  1  0.66608215  0.00022089  0.82977119  1
  Te  Te210  1  0.66557700  0.32851153  0.16626857  1
  Te  Te211  1  0.66617829  0.32710756  0.50367115  1
  Te  Te212  1  0.66512432  0.33253629  0.83260956  1
  Te  Te213  1  0.67550624  0.66741414  0.16068220  1
  Te  Te214  1  0.67464121  0.66570981  0.50084663  1
  Te  Te215  1  0.66847118  0.66155314  0.83963747  1
