# generated using pymatgen
data_AgSbTe2
_symmetry_space_group_name_H-M   'P 1'
_cell_length_a   18.32366087
_cell_length_b   18.32339045
_cell_length_c   18.32465374
_cell_angle_alpha   89.99981746
_cell_angle_beta   89.99822441
_cell_angle_gamma   90.00265692
_symmetry_Int_Tables_number   1
_chemical_formula_structural   AgSbTe2
_chemical_formula_sum   'Ag54 Sb54 Te108'
_cell_volume   6152.53166885
_cell_formula_units_Z   54
loop_
 _symmetry_equiv_pos_site_id
 _symmetry_equiv_pos_as_xyz
  1  'x, y, z'
loop_
 _atom_site_type_symbol
 _atom_site_label
 _atom_site_symmetry_multiplicity
 _atom_site_fract_x
 _atom_site_fract_y
 _atom_site_fract_z
 _atom_site_occupancy
  Ag  Ag0  1  0.32692152  0.83626904  0.49052010  1
  Ag  Ag1  1  0.16017120  0.32870600  0.50091418  1
  Ag  Ag2  1  0.83012492  0.68030436  0.49927285  1
  Ag  Ag3  1  0.66760199  -0.00858701  0.33460698  1
  Ag  Ag4  1  0.00149424  0.84091688  0.49888798  1
  Ag  Ag5  1  0.83130342  0.49921090  0.33511161  1
  Ag  Ag6  1  0.66044845  0.66959387  0.00151847  1
  Ag  Ag7  1  -0.00142213  0.16140040  0.49968755  1
  Ag  Ag8  1  0.17061609  0.00132876  0.83039967  1
  Ag  Ag9  1  0.17054389  0.50038859  0.33790188  1
  Ag  Ag10  1  0.33947219  0.67672842  0.33576439  1
  Ag  Ag11  1  0.84368545  -0.00420034  0.49629123  1
  Ag  Ag12  1  0.00132432  0.33256430  0.65779858  1
  Ag  Ag13  1  0.83609249  -0.00110686  0.17547432  1
  Ag  Ag14  1  0.16582858  0.32570387  0.82762475  1
  Ag  Ag15  1  0.50299525  0.67583961  0.84151832  1
  Ag  Ag16  1  0.49581817  -0.00378727  0.83819078  1
  Ag  Ag17  1  0.00490063  0.00002086  0.00266068  1
  Ag  Ag18  1  0.50195854  0.66475276  0.16610549  1
  Ag  Ag19  1  0.49421023  0.16576846  -0.00113987  1
  Ag  Ag20  1  0.16707130  0.83575658  0.66035371  1
  Ag  Ag21  1  0.49685424  0.33997232  0.16049728  1
  Ag  Ag22  1  0.83219035  0.16397955  -0.00641065  1
  Ag  Ag23  1  0.66266599  0.67128393  0.66492878  1
  Ag  Ag24  1  0.49989076  0.50127349  0.00648498  1
  Ag  Ag25  1  0.65825274  0.67351137  0.33367673  1
  Ag  Ag26  1  0.16792886  0.50110987  0.65870463  1
  Ag  Ag27  1  0.00310316  0.83903498  0.17620931  1
  Ag  Ag28  1  0.33368956  0.83907258  0.17742966  1
  Ag  Ag29  1  0.33091176  -0.01136511  0.33131198  1
  Ag  Ag30  1  0.33835112  0.32218006  0.00614679  1
  Ag  Ag31  1  0.00689616  0.32949651  0.34068151  1
  Ag  Ag32  1  0.33021186  0.33575729  0.33004109  1
  Ag  Ag33  1  0.33216915  0.00343360  0.00176484  1
  Ag  Ag34  1  0.66812589  0.16123609  0.83574722  1
  Ag  Ag35  1  0.83855910  0.83729078  0.66208128  1
  Ag  Ag36  1  0.17642891  0.83502699  0.34125748  1
  Ag  Ag37  1  0.33441851  0.15917829  0.16253837  1
  Ag  Ag38  1  0.49938581  0.83215658  0.00270709  1
  Ag  Ag39  1  0.66102457  0.50369319  0.17018739  1
  Ag  Ag40  1  0.84277837  0.32964078  0.50294288  1
  Ag  Ag41  1  0.83483513  0.32881113  0.82742782  1
  Ag  Ag42  1  0.33686603  0.67799701  0.65931090  1
  Ag  Ag43  1  0.16180627  -0.00396168  0.50004479  1
  Ag  Ag44  1  0.66999455  0.83252789  0.50025397  1
  Ag  Ag45  1  0.49922461  0.50985373  0.32604700  1
  Ag  Ag46  1  0.66526117  0.83531934  0.82809998  1
  Ag  Ag47  1  0.00135937  -0.00255518  0.33807386  1
  Ag  Ag48  1  0.17537520  0.16200113  -0.00340786  1
  Ag  Ag49  1  0.48881902  0.82879928  0.32828866  1
  Ag  Ag50  1  0.83502908  0.16232147  0.66829934  1
  Ag  Ag51  1  0.49813209  0.33144359  0.84113712  1
  Ag  Ag52  1  -0.00243805  0.83745714  0.82587747  1
  Ag  Ag53  1  0.32965100  -0.00491218  0.66698173  1
  Sb  Sb54  1  0.82658533  0.67297326  0.17391981  1
  Sb  Sb55  1  0.66931438  0.50730696  0.49416727  1
  Sb  Sb56  1  0.33106586  0.50702088  0.49608584  1
  Sb  Sb57  1  0.49694680  0.33357869  0.49756621  1
  Sb  Sb58  1  -0.00499387  0.50365747  0.17070672  1
  Sb  Sb59  1  0.66466317  -0.00676242  0.66435153  1
  Sb  Sb60  1  0.83699532  0.50068405  0.66047560  1
  Sb  Sb61  1  0.83314623  0.83395840  0.34126745  1
  Sb  Sb62  1  0.17304704  0.67125704  0.82991843  1
  Sb  Sb63  1  0.66269073  0.16726077  0.16258669  1
  Sb  Sb64  1  0.83391773  0.16588026  0.33559051  1
  Sb  Sb65  1  0.32697094  0.16019894  0.49417457  1
  Sb  Sb66  1  0.16307731  0.16318712  0.66922785  1
  Sb  Sb67  1  -0.00578987  0.67811333  0.00009065  1
  Sb  Sb68  1  0.67503551  0.15982680  0.50445815  1
  Sb  Sb69  1  0.33425427  0.49927184  0.83279995  1
  Sb  Sb70  1  0.16371920  0.67289421  0.49975685  1
  Sb  Sb71  1  0.00019909  0.66850172  0.66456093  1
  Sb  Sb72  1  0.66408528  -0.00266023  0.00132205  1
  Sb  Sb73  1  0.00083287  0.50158013  0.83330317  1
  Sb  Sb74  1  0.50289965  0.67024104  0.49531128  1
  Sb  Sb75  1  0.49706304  0.16406839  0.32652638  1
  Sb  Sb76  1  0.00488488  0.32448895  0.00040892  1
  Sb  Sb77  1  0.00338781  -0.00036803  0.66324330  1
  Sb  Sb78  1  0.00035453  0.67127366  0.33498208  1
  Sb  Sb79  1  0.66455453  0.83141516  0.16990124  1
  Sb  Sb80  1  0.66525191  0.33474683  0.33446543  1
  Sb  Sb81  1  0.17432108  0.49172727  0.00146809  1
  Sb  Sb82  1  0.82631756  0.49420850  0.00406984  1
  Sb  Sb83  1  0.49562742  0.50314154  0.66811567  1
  Sb  Sb84  1  0.49740867  -0.00269941  0.50061360  1
  Sb  Sb85  1  0.17488933  0.66870886  0.16941630  1
  Sb  Sb86  1  0.33690937  0.83720198  0.83228749  1
  Sb  Sb87  1  0.17176578  0.83960763  -0.00093922  1
  Sb  Sb88  1  0.66398791  0.50273994  0.83704116  1
  Sb  Sb89  1  0.00147849  0.49816231  0.49850702  1
  Sb  Sb90  1  0.32691170  0.33018852  0.66606394  1
  Sb  Sb91  1  0.00282046  0.16035006  0.16914695  1
  Sb  Sb92  1  0.34083159  0.50054844  0.17033533  1
  Sb  Sb93  1  0.16703572  0.16321808  0.33190265  1
  Sb  Sb94  1  0.34156876  0.67124843  0.00324656  1
  Sb  Sb95  1  0.83023893  0.32850483  0.16790134  1
  Sb  Sb96  1  0.65735994  0.33384370  -0.00189072  1
  Sb  Sb97  1  0.16648361  -0.00072913  0.16954824  1
  Sb  Sb98  1  0.33726631  0.16503594  0.83895716  1
  Sb  Sb99  1  0.49792618  0.83218209  0.66753184  1
  Sb  Sb100  1  -0.00313347  0.16250035  0.82962945  1
  Sb  Sb101  1  0.82887125  0.83857284  -0.00421230  1
  Sb  Sb102  1  0.83423336  0.00253134  0.83044678  1
  Sb  Sb103  1  0.50446701  0.16539084  0.67656654  1
  Sb  Sb104  1  0.67217036  0.33662517  0.66837459  1
  Sb  Sb105  1  0.17356386  0.33198865  0.17091417  1
  Sb  Sb106  1  0.82628138  0.66607779  0.82858883  1
  Sb  Sb107  1  0.49864079  -0.00298402  0.16317572  1
  Te  Te108  1  0.17240744  0.16676557  0.15761501  1
  Te  Te109  1  0.16025923  0.16465839  0.50091077  1
  Te  Te110  1  0.16419531  0.16500036  0.83605452  1
  Te  Te111  1  0.16486598  0.50071232  0.17326192  1
  Te  Te112  1  0.16702786  0.49622829  0.49870243  1
  Te  Te113  1  0.16600118  0.49701367  0.83167944  1
  Te  Te114  1  0.16694386  0.83265149  0.16927198  1
  Te  Te115  1  0.16637707  0.83419165  0.50035553  1
  Te  Te116  1  0.16371412  0.83702310  0.83070110  1
  Te  Te117  1  0.49600122  0.17028650  0.15953952  1
  Te  Te118  1  0.50266102  0.16726338  0.50236866  1
  Te  Te119  1  0.50545688  0.16721356  0.83945891  1
  Te  Te120  1  0.50093608  0.50108624  0.16749250  1
  Te  Te121  1  0.50037166  0.49845471  0.49240269  1
  Te  Te122  1  0.50073371  0.49379809  0.83631977  1
  Te  Te123  1  0.49890808  0.83158976  0.16710938  1
  Te  Te124  1  0.50232551  0.83438214  0.49415218  1
  Te  Te125  1  0.50308288  0.83480457  0.83399209  1
  Te  Te126  1  0.83212841  0.16050206  0.16170746  1
  Te  Te127  1  0.83791001  0.16782055  0.50333585  1
  Te  Te128  1  0.83101401  0.16841658  0.83134258  1
  Te  Te129  1  0.82685412  0.49979918  0.17269131  1
  Te  Te130  1  0.83502129  0.49243398  0.49451922  1
  Te  Te131  1  0.83283589  0.49166773  0.83370620  1
  Te  Te132  1  0.83759962  0.83960193  0.16381078  1
  Te  Te133  1  0.83221236  0.83618639  0.50283533  1
  Te  Te134  1  0.83127365  0.83264747  0.82721842  1
  Te  Te135  1  0.16818485  0.00131449  -0.00273950  1
  Te  Te136  1  0.16782912  -0.00267970  0.33648438  1
  Te  Te137  1  0.16914113  -0.00311653  0.66744174  1
  Te  Te138  1  0.17262931  0.32821112  -0.00399044  1
  Te  Te139  1  0.16658745  0.33080820  0.33624460  1
  Te  Te140  1  0.16386425  0.33173662  0.66704208  1
  Te  Te141  1  0.16618055  0.66327342  -0.00096996  1
  Te  Te142  1  0.17138510  0.66630248  0.33408212  1
  Te  Te143  1  0.17200550  0.66753834  0.66640287  1
  Te  Te144  1  0.49824984  -0.00026859  -0.00188192  1
  Te  Te145  1  0.49609149  -0.00374325  0.33195443  1
  Te  Te146  1  0.49352629  0.00001591  0.67378182  1
  Te  Te147  1  0.49735338  0.33271469  -0.00020563  1
  Te  Te148  1  0.49614494  0.33304677  0.33121393  1
  Te  Te149  1  0.49892096  0.33451608  0.67198974  1
  Te  Te150  1  0.50155632  0.66815869  0.00070407  1
  Te  Te151  1  0.49952209  0.66798383  0.33362169  1
  Te  Te152  1  0.49765463  0.66547412  0.67027750  1
  Te  Te153  1  0.83456694  0.00373659  -0.00083564  1
  Te  Te154  1  0.83625598  0.00051070  0.33570913  1
  Te  Te155  1  0.83232118  -0.00116934  0.66136003  1
  Te  Te156  1  0.83495751  0.32702498  -0.00227963  1
  Te  Te157  1  0.83418923  0.33567747  0.33482760  1
  Te  Te158  1  0.83743694  0.33474683  0.66594717  1
  Te  Te159  1  0.82479970  0.66484881  0.00026011  1
  Te  Te160  1  0.83162897  0.66073992  0.33737837  1
  Te  Te161  1  0.82995303  0.66913539  0.66134666  1
  Te  Te162  1  -0.00334122  0.15973625  0.00076204  1
  Te  Te163  1  0.00023128  0.16502614  0.33713947  1
  Te  Te164  1  -0.00513976  0.17205881  0.66282157  1
  Te  Te165  1  0.00011487  0.50111533  0.00230491  1
  Te  Te166  1  0.00340785  0.49914275  0.33200774  1
  Te  Te167  1  0.00766810  0.49603588  0.66804742  1
  Te  Te168  1  0.00026345  0.84104157  -0.00132500  1
  Te  Te169  1  -0.00007114  0.83620635  0.33521264  1
  Te  Te170  1  0.00063765  0.83251058  0.66507590  1
  Te  Te171  1  0.33432344  0.16482871  0.00110838  1
  Te  Te172  1  0.33295930  0.17240529  0.32650091  1
  Te  Te173  1  0.33532407  0.15887482  0.66381229  1
  Te  Te174  1  0.33959447  0.49728165  0.00122179  1
  Te  Te175  1  0.33195758  0.49580543  0.33391672  1
  Te  Te176  1  0.32684888  0.50201531  0.66409164  1
  Te  Te177  1  0.33869060  0.83871515  0.00200941  1
  Te  Te178  1  0.33237168  0.83234200  0.33421821  1
  Te  Te179  1  0.33132720  0.83485322  0.66671131  1
  Te  Te180  1  0.66834505  0.16590314  -0.00417503  1
  Te  Te181  1  0.66524297  0.15875593  0.33393184  1
  Te  Te182  1  0.67400998  0.16692287  0.67320247  1
  Te  Te183  1  0.66084368  0.50508412  0.00505029  1
  Te  Te184  1  0.66391191  0.50126451  0.33056855  1
  Te  Te185  1  0.66651688  0.50983021  0.66502486  1
  Te  Te186  1  0.66140782  0.83026060  -0.00259242  1
  Te  Te187  1  0.66798527  0.83309101  0.33541318  1
  Te  Te188  1  0.66535157  0.82967688  0.66620109  1
  Te  Te189  1  -0.00161035  -0.00239019  0.16908909  1
  Te  Te190  1  0.00167836  0.00031099  0.50045699  1
  Te  Te191  1  0.00220497  -0.00356433  0.83509185  1
  Te  Te192  1  -0.00072038  0.33373522  0.17377923  1
  Te  Te193  1  0.00138471  0.33570175  0.49773338  1
  Te  Te194  1  0.00184076  0.33326298  0.83371524  1
  Te  Te195  1  -0.00123238  0.67669057  0.16562679  1
  Te  Te196  1  -0.00783693  0.67554027  0.50023047  1
  Te  Te197  1  -0.00113158  0.67537695  0.83352645  1
  Te  Te198  1  0.33346768  -0.00042914  0.16783191  1
  Te  Te199  1  0.33040916  -0.00344722  0.49600628  1
  Te  Te200  1  0.33191127  0.00057199  0.83542885  1
  Te  Te201  1  0.33695034  0.33341012  0.16672917  1
  Te  Te202  1  0.32809043  0.32989115  0.49655839  1
  Te  Te203  1  0.33189316  0.33175911  0.83380981  1
  Te  Te204  1  0.34083131  0.67343867  0.17092431  1
  Te  Te205  1  0.33240126  0.67355173  0.49994409  1
  Te  Te206  1  0.34133108  0.66739194  0.83166649  1
  Te  Te207  1  0.67144526  0.00046182  0.17309597  1
  Te  Te208  1  0.66724726  -0.00567881  0.49625047  1
  Te  Te209  1  0.66365456  -0.00259589  0.83244687  1
  Te  Te210  1  0.66094036  0.33742077  0.16712691  1
  Te  Te211  1  0.67106867  0.33155139  0.50129716  1
  Te  Te212  1  0.66725565  0.33151584  0.83227316  1
  Te  Te213  1  0.66263922  0.66498009  0.17016199  1
  Te  Te214  1  0.66929198  0.67136685  0.49748435  1
  Te  Te215  1  0.66243952  0.66952737  0.83292642  1
