# generated using pymatgen
data_AgSbTe2
_symmetry_space_group_name_H-M   'P 1'
_cell_length_a   18.37114360
_cell_length_b   18.37357803
_cell_length_c   18.35761148
_cell_angle_alpha   89.99491765
_cell_angle_beta   89.99445737
_cell_angle_gamma   89.99958686
_symmetry_Int_Tables_number   1
_chemical_formula_structural   AgSbTe2
_chemical_formula_sum   'Ag54 Sb54 Te108'
_cell_volume   6196.49495390
_cell_formula_units_Z   54
loop_
 _symmetry_equiv_pos_site_id
 _symmetry_equiv_pos_as_xyz
  1  'x, y, z'
loop_
 _atom_site_type_symbol
 _atom_site_label
 _atom_site_symmetry_multiplicity
 _atom_site_fract_x
 _atom_site_fract_y
 _atom_site_fract_z
 _atom_site_occupancy
  Ag  Ag0  1  0.66463072  -0.00495735  -0.00331530  1
  Ag  Ag1  1  0.50692727  -0.00924996  0.82984696  1
  Ag  Ag2  1  0.16328562  0.83934061  0.66616704  1
  Ag  Ag3  1  0.15286865  0.32402867  0.50397454  1
  Ag  Ag4  1  0.66660924  -0.00195556  0.32928202  1
  Ag  Ag5  1  0.83000734  0.32304081  0.16925582  1
  Ag  Ag6  1  0.66769124  0.32737427  0.00507995  1
  Ag  Ag7  1  0.50527634  0.83582966  -0.01076320  1
  Ag  Ag8  1  0.83284397  0.84131093  0.67081677  1
  Ag  Ag9  1  0.00115059  0.84426576  0.50691695  1
  Ag  Ag10  1  0.68662590  -0.00353152  0.68419437  1
  Ag  Ag11  1  0.82717802  0.66873194  0.16575488  1
  Ag  Ag12  1  0.66336990  0.67511365  -0.00420334  1
  Ag  Ag13  1  0.50033574  0.83765591  0.67636417  1
  Ag  Ag14  1  -0.00436836  0.32837317  0.66443667  1
  Ag  Ag15  1  -0.00361565  0.16301539  0.50803234  1
  Ag  Ag16  1  0.31373532  -0.00568176  0.67199731  1
  Ag  Ag17  1  0.15428164  0.00208238  0.50853803  1
  Ag  Ag18  1  -0.01472724  0.16658849  0.17118230  1
  Ag  Ag19  1  0.51340899  0.32551743  0.16666831  1
  Ag  Ag20  1  0.33140491  0.67889235  0.67265664  1
  Ag  Ag21  1  0.66923566  0.14746624  0.83596280  1
  Ag  Ag22  1  0.67075779  0.50704441  0.83587615  1
  Ag  Ag23  1  0.34127921  0.67951551  -0.00439427  1
  Ag  Ag24  1  0.83720761  0.15284871  0.65930111  1
  Ag  Ag25  1  0.66876663  0.15952420  0.16337623  1
  Ag  Ag26  1  0.34467053  0.83542266  0.83383874  1
  Ag  Ag27  1  0.82253217  0.83577679  -0.01007012  1
  Ag  Ag28  1  0.67082538  0.67980404  0.67559174  1
  Ag  Ag29  1  0.82536551  0.00452881  0.16447293  1
  Ag  Ag30  1  0.81917003  -0.00119966  0.81956218  1
  Ag  Ag31  1  0.65811550  0.83367412  0.83313209  1
  Ag  Ag32  1  0.33789852  0.50390639  0.16529751  1
  Ag  Ag33  1  0.15426992  0.50316038  0.66674262  1
  Ag  Ag34  1  -0.00726814  0.67113921  0.66751505  1
  Ag  Ag35  1  0.16885881  0.83564555  0.34645832  1
  Ag  Ag36  1  -0.00007786  -0.00262609  0.66520397  1
  Ag  Ag37  1  0.50601985  0.68055231  0.83392567  1
  Ag  Ag38  1  -0.00917916  0.50048093  0.82053792  1
  Ag  Ag39  1  -0.01571699  0.49608414  0.16340904  1
  Ag  Ag40  1  0.66788606  0.67315266  0.31784187  1
  Ag  Ag41  1  0.16833467  -0.00160049  0.81975330  1
  Ag  Ag42  1  0.50815872  0.00110417  0.16210613  1
  Ag  Ag43  1  0.33440477  0.83330522  0.15441784  1
  Ag  Ag44  1  0.83585752  0.32090720  0.50270227  1
  Ag  Ag45  1  0.15503356  0.15073539  0.66416292  1
  Ag  Ag46  1  0.34673220  -0.00579031  -0.00891171  1
  Ag  Ag47  1  0.83117684  0.16306873  0.33176402  1
  Ag  Ag48  1  0.33408205  0.33139920  0.33183795  1
  Ag  Ag49  1  0.83623516  0.50154396  0.66873108  1
  Ag  Ag50  1  0.50834912  -0.00039254  0.51533426  1
  Ag  Ag51  1  0.83305423  0.00302976  0.51126686  1
  Ag  Ag52  1  0.51361228  0.16190093  0.32970697  1
  Ag  Ag53  1  0.66764146  0.49412000  0.16121510  1
  Sb  Sb54  1  0.16479364  0.32939078  0.82388208  1
  Sb  Sb55  1  0.32715574  0.16356413  0.50167870  1
  Sb  Sb56  1  -0.00599237  0.66839125  0.33687472  1
  Sb  Sb57  1  -0.00822915  0.33332649  -0.00132773  1
  Sb  Sb58  1  0.67655781  0.16196413  0.49845909  1
  Sb  Sb59  1  0.82886271  0.50500260  -0.00214070  1
  Sb  Sb60  1  0.33786999  0.16380364  0.16763359  1
  Sb  Sb61  1  0.83062654  0.32971546  0.83303806  1
  Sb  Sb62  1  0.16544684  0.67170209  0.50500129  1
  Sb  Sb63  1  0.66670490  0.32737860  0.32579031  1
  Sb  Sb64  1  -0.00163469  0.49732503  0.50382367  1
  Sb  Sb65  1  0.50483900  0.32238479  0.49593462  1
  Sb  Sb66  1  0.16280297  0.33340772  0.17337546  1
  Sb  Sb67  1  0.67175261  0.83979097  0.51054350  1
  Sb  Sb68  1  0.00016451  0.33164556  0.33829539  1
  Sb  Sb69  1  0.34159427  0.15446033  0.83031209  1
  Sb  Sb70  1  0.50344906  0.50858778  0.66872069  1
  Sb  Sb71  1  0.34210782  0.33350946  0.00661699  1
  Sb  Sb72  1  0.33126386  0.49958189  0.49862779  1
  Sb  Sb73  1  0.66902549  0.50092035  0.50095980  1
  Sb  Sb74  1  0.50450688  0.15478526  0.00354194  1
  Sb  Sb75  1  0.16591174  0.16397890  -0.00685861  1
  Sb  Sb76  1  0.50234222  0.67803115  0.50745979  1
  Sb  Sb77  1  0.34024247  0.66753070  0.33110987  1
  Sb  Sb78  1  -0.00584945  -0.00112340  -0.00464567  1
  Sb  Sb79  1  -0.00661585  0.00082884  0.34084625  1
  Sb  Sb80  1  0.17083826  0.83543375  -0.00639949  1
  Sb  Sb81  1  0.66388609  0.83939367  0.15843629  1
  Sb  Sb82  1  0.16640081  0.50275340  0.33677934  1
  Sb  Sb83  1  0.50299219  0.49401923  0.32925862  1
  Sb  Sb84  1  0.16444628  0.66752336  0.16658779  1
  Sb  Sb85  1  0.50458371  0.50801285  0.00063808  1
  Sb  Sb86  1  0.16201739  0.16193912  0.33933310  1
  Sb  Sb87  1  0.50366603  0.32914482  0.83826143  1
  Sb  Sb88  1  -0.00406850  0.66733208  -0.00565496  1
  Sb  Sb89  1  0.67261490  0.32895169  0.67201168  1
  Sb  Sb90  1  0.17011430  0.67260387  0.82905027  1
  Sb  Sb91  1  0.49913423  0.83961530  0.33201880  1
  Sb  Sb92  1  0.83239831  0.67119836  0.50250222  1
  Sb  Sb93  1  -0.00282863  0.83175402  0.82610056  1
  Sb  Sb94  1  0.50509828  0.67033544  0.16200444  1
  Sb  Sb95  1  0.82603676  0.67296181  0.83303316  1
  Sb  Sb96  1  0.16664337  -0.00036351  0.16916342  1
  Sb  Sb97  1  -0.00079030  0.83611649  0.17128128  1
  Sb  Sb98  1  0.33538648  0.50855606  0.83630637  1
  Sb  Sb99  1  0.32931681  0.83768618  0.50934319  1
  Sb  Sb100  1  0.33832039  0.00112701  0.33496556  1
  Sb  Sb101  1  0.82904607  0.15962053  0.00135910  1
  Sb  Sb102  1  0.83172751  0.83996387  0.33619945  1
  Sb  Sb103  1  0.50646411  0.15507497  0.66240950  1
  Sb  Sb104  1  0.16642151  0.49975940  -0.00444594  1
  Sb  Sb105  1  0.32717106  0.33194194  0.66359359  1
  Sb  Sb106  1  0.83177285  0.49543729  0.33226418  1
  Sb  Sb107  1  -0.00579514  0.16596372  0.82803536  1
  Te  Te108  1  0.16464413  0.16725504  0.16716815  1
  Te  Te109  1  0.16066529  0.16453712  0.50410412  1
  Te  Te110  1  0.16604337  0.16183333  0.82591935  1
  Te  Te111  1  0.17319532  0.50008298  0.16702518  1
  Te  Te112  1  0.16622112  0.49490410  0.50461593  1
  Te  Te113  1  0.16689255  0.49838293  0.82818344  1
  Te  Te114  1  0.17067885  0.83305414  0.16551894  1
  Te  Te115  1  0.16356741  0.83729163  0.50591410  1
  Te  Te116  1  0.16575206  0.83815634  0.82670563  1
  Te  Te117  1  0.50285748  0.16584730  0.16861297  1
  Te  Te118  1  0.49995486  0.15893992  0.49208924  1
  Te  Te119  1  0.50906018  0.16238969  0.83165617  1
  Te  Te120  1  0.50266811  0.49760135  0.16659264  1
  Te  Te121  1  0.50040632  0.49800865  0.49895783  1
  Te  Te122  1  0.50416672  0.50032115  0.83328999  1
  Te  Te123  1  0.49397139  0.83692278  0.16514054  1
  Te  Te124  1  0.50017482  0.84204034  0.50171486  1
  Te  Te125  1  0.49942122  0.83568709  0.83281899  1
  Te  Te126  1  0.82845016  0.16616210  0.16427081  1
  Te  Te127  1  0.83678474  0.16375241  0.50009206  1
  Te  Te128  1  0.82902073  0.16197171  0.83136799  1
  Te  Te129  1  0.82735684  0.50428552  0.16644004  1
  Te  Te130  1  0.83321441  0.49890901  0.50323657  1
  Te  Te131  1  0.83282240  0.49969205  0.83171965  1
  Te  Te132  1  0.83569499  0.83074900  0.16984815  1
  Te  Te133  1  0.83908166  0.83842147  0.50427483  1
  Te  Te134  1  0.83381123  0.83826174  0.83171791  1
  Te  Te135  1  0.16657789  0.00079246  -0.00090298  1
  Te  Te136  1  0.16813190  -0.00471460  0.33782852  1
  Te  Te137  1  0.15938305  -0.00422771  0.66368123  1
  Te  Te138  1  0.16812623  0.33226516  -0.00085803  1
  Te  Te139  1  0.17019464  0.33376860  0.34189182  1
  Te  Te140  1  0.16270024  0.34076406  0.66108877  1
  Te  Te141  1  0.17438560  0.66678106  -0.00172395  1
  Te  Te142  1  0.16840027  0.67267949  0.33565559  1
  Te  Te143  1  0.16855295  0.66410139  0.66635961  1
  Te  Te144  1  0.50312176  -0.00430521  0.00023318  1
  Te  Te145  1  0.50256028  0.00345847  0.32206317  1
  Te  Te146  1  0.50623208  -0.00106295  0.67008547  1
  Te  Te147  1  0.50669390  0.33338931  0.00638287  1
  Te  Te148  1  0.49789663  0.32627403  0.32830632  1
  Te  Te149  1  0.49826654  0.33039423  0.66574498  1
  Te  Te150  1  0.50066733  0.67306740  -0.00349089  1
  Te  Te151  1  0.50708426  0.66707812  0.33650432  1
  Te  Te152  1  0.50308835  0.67328377  0.67141623  1
  Te  Te153  1  0.83071919  -0.00548428  0.00639883  1
  Te  Te154  1  0.82978595  0.00334245  0.32355025  1
  Te  Te155  1  0.84032392  -0.00199669  0.66609051  1
  Te  Te156  1  0.82776138  0.33467601  0.00621654  1
  Te  Te157  1  0.83344983  0.32819842  0.33350656  1
  Te  Te158  1  0.83550166  0.33882009  0.66619209  1
  Te  Te159  1  0.83017493  0.67333104  0.00332340  1
  Te  Te160  1  0.82787756  0.66733788  0.33130331  1
  Te  Te161  1  0.83170521  0.66413368  0.66703757  1
  Te  Te162  1  0.00013495  0.16774752  0.00727322  1
  Te  Te163  1  -0.00491781  0.16698990  0.33128187  1
  Te  Te164  1  -0.00319467  0.16894075  0.66786189  1
  Te  Te165  1  0.00042701  0.50002957  0.00566509  1
  Te  Te166  1  0.00055272  0.50120529  0.32225106  1
  Te  Te167  1  -0.00239009  0.50262160  0.66461630  1
  Te  Te168  1  -0.00328290  0.83129957  0.00144408  1
  Te  Te169  1  0.00708913  0.83302925  0.34001946  1
  Te  Te170  1  -0.00157927  0.83111565  0.66675248  1
  Te  Te171  1  0.33307193  0.15986835  -0.00136019  1
  Te  Te172  1  0.33038146  0.17034864  0.33312502  1
  Te  Te173  1  0.32811528  0.16273310  0.66691680  1
  Te  Te174  1  0.33373151  0.50216936  0.00518246  1
  Te  Te175  1  0.33389825  0.49875323  0.32702689  1
  Te  Te176  1  0.33476852  0.50179646  0.66728240  1
  Te  Te177  1  0.33185694  0.83568630  -0.00426368  1
  Te  Te178  1  0.33028002  0.83231266  0.33206828  1
  Te  Te179  1  0.33432904  0.83609352  0.66899341  1
  Te  Te180  1  0.66628801  0.16741507  -0.00004513  1
  Te  Te181  1  0.67131524  0.16329882  0.33013177  1
  Te  Te182  1  0.67343350  0.16188419  0.67025328  1
  Te  Te183  1  0.66686005  0.50559696  0.00141456  1
  Te  Te184  1  0.66716707  0.50728447  0.32896477  1
  Te  Te185  1  0.67052043  0.49759131  0.66887233  1
  Te  Te186  1  0.66571729  0.83498543  -0.00251033  1
  Te  Te187  1  0.66648879  0.83339138  0.33655435  1
  Te  Te188  1  0.66906416  0.83740215  0.67006088  1
  Te  Te189  1  -0.00140852  0.00410121  0.16603981  1
  Te  Te190  1  -0.00449513  0.00327413  0.50119380  1
  Te  Te191  1  0.00521391  0.00117575  0.82990615  1
  Te  Te192  1  -0.00473584  0.33345258  0.16719008  1
  Te  Te193  1  -0.00466978  0.33155449  0.50376389  1
  Te  Te194  1  -0.00152818  0.33953213  0.82977209  1
  Te  Te195  1  -0.00350714  0.66342616  0.16651982  1
  Te  Te196  1  -0.00071783  0.66851735  0.50540193  1
  Te  Te197  1  0.00090098  0.65993088  0.82875333  1
  Te  Te198  1  0.33380072  -0.00351105  0.16558873  1
  Te  Te199  1  0.33795282  0.00021019  0.50499054  1
  Te  Te200  1  0.33304676  -0.00327357  0.83149675  1
  Te  Te201  1  0.33184312  0.33544222  0.16978319  1
  Te  Te202  1  0.33639477  0.33307485  0.49435069  1
  Te  Te203  1  0.33435029  0.33273728  0.83587299  1
  Te  Te204  1  0.33456881  0.66811895  0.16462999  1
  Te  Te205  1  0.33437288  0.66606496  0.50688523  1
  Te  Te206  1  0.33689930  0.67117142  0.83263425  1
  Te  Te207  1  0.66584914  -0.00053534  0.16655736  1
  Te  Te208  1  0.66887431  0.00076501  0.49010601  1
  Te  Te209  1  0.66607623  -0.00731203  0.83799324  1
  Te  Te210  1  0.66984558  0.33435074  0.16607146  1
  Te  Te211  1  0.67394783  0.33319377  0.49902151  1
  Te  Te212  1  0.66593048  0.34577397  0.84031503  1
  Te  Te213  1  0.66728440  0.67074646  0.16103299  1
  Te  Te214  1  0.66650121  0.66777191  0.50835741  1
  Te  Te215  1  0.66641598  0.66828957  0.83451593  1
