# generated using pymatgen
data_AgSbTe2
_symmetry_space_group_name_H-M   'P 1'
_cell_length_a   18.33852570
_cell_length_b   18.33239422
_cell_length_c   18.33419985
_cell_angle_alpha   90.00262543
_cell_angle_beta   89.99697779
_cell_angle_gamma   89.99780110
_symmetry_Int_Tables_number   1
_chemical_formula_structural   AgSbTe2
_chemical_formula_sum   'Ag54 Sb54 Te108'
_cell_volume   6163.75780447
_cell_formula_units_Z   54
loop_
 _symmetry_equiv_pos_site_id
 _symmetry_equiv_pos_as_xyz
  1  'x, y, z'
loop_
 _atom_site_type_symbol
 _atom_site_label
 _atom_site_symmetry_multiplicity
 _atom_site_fract_x
 _atom_site_fract_y
 _atom_site_fract_z
 _atom_site_occupancy
  Ag  Ag0  1  -0.00203731  0.82883184  0.83201919  1
  Ag  Ag1  1  0.16529349  -0.00161091  0.49528983  1
  Ag  Ag2  1  0.33565932  0.33217454  0.33348240  1
  Ag  Ag3  1  0.82731078  0.82988312  -0.00219722  1
  Ag  Ag4  1  0.67111549  0.50425923  0.84249111  1
  Ag  Ag5  1  0.34277249  0.16338647  0.16709556  1
  Ag  Ag6  1  -0.00988384  0.16013992  0.83572184  1
  Ag  Ag7  1  0.66947023  0.66774064  0.67230194  1
  Ag  Ag8  1  0.50451524  0.00104351  0.50036690  1
  Ag  Ag9  1  0.33921709  0.50764039  0.83311924  1
  Ag  Ag10  1  0.51195599  0.16441243  0.00899663  1
  Ag  Ag11  1  0.16120078  0.50309394  0.66567671  1
  Ag  Ag12  1  0.66645828  0.50783433  0.15836189  1
  Ag  Ag13  1  0.16561960  0.16323680  0.00784878  1
  Ag  Ag14  1  -0.00241433  0.66879797  -0.00476150  1
  Ag  Ag15  1  0.83216013  0.33034031  0.49820452  1
  Ag  Ag16  1  0.16971438  0.83821113  0.33239797  1
  Ag  Ag17  1  0.65899338  0.16616872  0.16109166  1
  Ag  Ag18  1  0.33222244  0.49868997  0.50490849  1
  Ag  Ag19  1  0.49795338  0.16537203  0.32589179  1
  Ag  Ag20  1  0.66025967  0.66770067  -0.00069110  1
  Ag  Ag21  1  0.66452336  0.16454295  0.49794676  1
  Ag  Ag22  1  -0.00876466  0.51114328  0.83638282  1
  Ag  Ag23  1  -0.00007690  0.83480145  0.50940975  1
  Ag  Ag24  1  0.49696961  0.83515085  0.32336617  1
  Ag  Ag25  1  0.82575338  0.50649654  -0.00414999  1
  Ag  Ag26  1  0.83633598  0.50799207  0.67755769  1
  Ag  Ag27  1  0.83559815  0.83013207  0.67551170  1
  Ag  Ag28  1  0.33709587  0.82798670  0.84199187  1
  Ag  Ag29  1  0.16580939  0.66910379  0.50087253  1
  Ag  Ag30  1  -0.00804730  0.50813870  0.15636531  1
  Ag  Ag31  1  0.50313829  0.67316583  0.15756144  1
  Ag  Ag32  1  0.50087845  0.66875341  0.84454713  1
  Ag  Ag33  1  0.66245525  0.66965073  0.31725773  1
  Ag  Ag34  1  0.66786370  -0.00321036  0.00007251  1
  Ag  Ag35  1  0.67012847  0.16836618  0.84595730  1
  Ag  Ag36  1  0.83367773  -0.00267895  0.83272749  1
  Ag  Ag37  1  0.51018291  0.82481500  0.00415140  1
  Ag  Ag38  1  0.16467104  -0.00134892  0.17041067  1
  Ag  Ag39  1  -0.00500872  0.66937417  0.67690104  1
  Ag  Ag40  1  0.34690043  0.66830150  -0.00132037  1
  Ag  Ag41  1  0.82704296  0.16458765  -0.00108667  1
  Ag  Ag42  1  0.51237552  0.51378319  0.00154302  1
  Ag  Ag43  1  0.82491260  0.33464315  0.16612300  1
  Ag  Ag44  1  0.66046311  0.82690796  0.16121114  1
  Ag  Ag45  1  0.49898032  0.32770150  0.49229127  1
  Ag  Ag46  1  0.83186913  0.00129967  0.50765165  1
  Ag  Ag47  1  0.50427655  0.32624056  0.16918704  1
  Ag  Ag48  1  -0.00120918  0.82906472  0.16084925  1
  Ag  Ag49  1  0.17315219  0.15917789  0.32881494  1
  Ag  Ag50  1  0.16930006  0.33248939  0.49775800  1
  Ag  Ag51  1  0.34292037  0.83522230  0.16191058  1
  Ag  Ag52  1  -0.00311185  -0.01211686  0.66669721  1
  Ag  Ag53  1  0.50662822  0.83063559  0.67122276  1
  Sb  Sb54  1  0.16072122  0.82891387  0.66151221  1
  Sb  Sb55  1  0.16651507  0.33516692  0.82994015  1
  Sb  Sb56  1  -0.00125784  0.33686512  0.00085426  1
  Sb  Sb57  1  0.00226030  -0.00208106  0.33762615  1
  Sb  Sb58  1  0.83172920  0.83415019  0.33033644  1
  Sb  Sb59  1  0.50257810  0.50571820  0.67232281  1
  Sb  Sb60  1  0.33331941  0.66783511  0.67157327  1
  Sb  Sb61  1  0.66861164  0.82993249  0.84022545  1
  Sb  Sb62  1  0.16917187  0.67244056  0.16980528  1
  Sb  Sb63  1  0.16477957  0.49897195  -0.00364054  1
  Sb  Sb64  1  0.83162176  0.49934408  0.32917998  1
  Sb  Sb65  1  0.16880560  0.32884156  0.17111431  1
  Sb  Sb66  1  -0.00264527  0.66915728  0.33158182  1
  Sb  Sb67  1  0.16780362  0.50126882  0.33703958  1
  Sb  Sb68  1  0.50255770  0.16131262  0.66546886  1
  Sb  Sb69  1  0.32945002  -0.00369479  0.66640377  1
  Sb  Sb70  1  0.50695435  -0.00651946  0.83292237  1
  Sb  Sb71  1  0.83224068  0.16487619  0.67114898  1
  Sb  Sb72  1  0.00261714  0.50456856  0.50453760  1
  Sb  Sb73  1  0.83647329  0.66841769  0.50466266  1
  Sb  Sb74  1  -0.00081862  0.16515478  0.16004498  1
  Sb  Sb75  1  0.15932653  -0.00128134  0.83319745  1
  Sb  Sb76  1  -0.00588063  -0.00541812  -0.00470754  1
  Sb  Sb77  1  0.66439178  0.49829711  0.49946488  1
  Sb  Sb78  1  0.83033359  0.16629095  0.33051613  1
  Sb  Sb79  1  0.66670816  0.33566179  0.00398358  1
  Sb  Sb80  1  0.49972238  -0.00097070  0.16782296  1
  Sb  Sb81  1  0.33681641  0.17022364  0.49242245  1
  Sb  Sb82  1  0.50149524  0.33813261  0.83841335  1
  Sb  Sb83  1  0.33729397  0.16529509  0.84483211  1
  Sb  Sb84  1  0.33389157  0.00235082  0.33161973  1
  Sb  Sb85  1  0.00438632  0.33276411  0.33319115  1
  Sb  Sb86  1  0.33555699  0.33774466  0.00485309  1
  Sb  Sb87  1  0.33743974  0.66556884  0.32909121  1
  Sb  Sb88  1  0.82810646  0.67138674  0.83569383  1
  Sb  Sb89  1  0.66881158  0.83585605  0.49735357  1
  Sb  Sb90  1  0.33083102  0.83052409  0.49782080  1
  Sb  Sb91  1  0.67238665  -0.00621704  0.67111966  1
  Sb  Sb92  1  0.50007732  0.49881804  0.32678241  1
  Sb  Sb93  1  0.49758549  0.66738940  0.49920766  1
  Sb  Sb94  1  0.83523853  0.00135592  0.16300738  1
  Sb  Sb95  1  0.83253270  0.33289219  0.83671459  1
  Sb  Sb96  1  -0.00230441  0.16116480  0.50396983  1
  Sb  Sb97  1  0.16754041  0.66678237  0.83106919  1
  Sb  Sb98  1  0.66767115  0.33823819  0.66413907  1
  Sb  Sb99  1  0.66128981  0.33410440  0.33054514  1
  Sb  Sb100  1  0.33966806  -0.00633118  0.00247162  1
  Sb  Sb101  1  0.16605192  0.83669142  0.00472900  1
  Sb  Sb102  1  0.82652309  0.66364583  0.16230493  1
  Sb  Sb103  1  0.33723937  0.50112204  0.16338349  1
  Sb  Sb104  1  0.16360366  0.16872672  0.66404007  1
  Sb  Sb105  1  0.66437058  -0.00202417  0.32900813  1
  Sb  Sb106  1  -0.00200112  0.33797528  0.66638028  1
  Sb  Sb107  1  0.33415495  0.33609000  0.66011205  1
  Te  Te108  1  0.16477922  0.16371443  0.16872675  1
  Te  Te109  1  0.16695953  0.16597219  0.49603640  1
  Te  Te110  1  0.16800895  0.16721998  0.83641216  1
  Te  Te111  1  0.16361176  0.49877884  0.16692410  1
  Te  Te112  1  0.16750326  0.49864956  0.50258181  1
  Te  Te113  1  0.16401039  0.49905999  0.82777638  1
  Te  Te114  1  0.16303994  0.83643720  0.17121740  1
  Te  Te115  1  0.16507945  0.83568142  0.49646651  1
  Te  Te116  1  0.16567793  0.83424054  0.83184919  1
  Te  Te117  1  0.50046917  0.16298516  0.16906610  1
  Te  Te118  1  0.50159772  0.16569644  0.49964904  1
  Te  Te119  1  0.50435078  0.16693121  0.83449883  1
  Te  Te120  1  0.50186261  0.49977051  0.16102727  1
  Te  Te121  1  0.49578224  0.49685161  0.50069326  1
  Te  Te122  1  0.50178072  0.50290224  0.83835539  1
  Te  Te123  1  0.50069491  0.83634165  0.16446247  1
  Te  Te124  1  0.49921003  0.83566979  0.49950567  1
  Te  Te125  1  0.50053828  0.83029619  0.83654915  1
  Te  Te126  1  0.83073092  0.16972829  0.16277028  1
  Te  Te127  1  0.83049239  0.16682439  0.49916422  1
  Te  Te128  1  0.83123900  0.16687458  0.83713912  1
  Te  Te129  1  0.83105412  0.49646825  0.16298261  1
  Te  Te130  1  0.83406864  0.49582347  0.50068734  1
  Te  Te131  1  0.83221030  0.49735691  0.83547693  1
  Te  Te132  1  0.83615825  0.83478354  0.16223321  1
  Te  Te133  1  0.83756890  0.83682862  0.49928644  1
  Te  Te134  1  0.83476453  0.83622141  0.83504543  1
  Te  Te135  1  0.16700937  0.00451176  0.00160712  1
  Te  Te136  1  0.16718785  -0.00075085  0.33411789  1
  Te  Te137  1  0.15972803  0.00038367  0.66141866  1
  Te  Te138  1  0.16734054  0.32439039  0.00091425  1
  Te  Te139  1  0.17175041  0.33112481  0.33835081  1
  Te  Te140  1  0.16633265  0.33887251  0.65803602  1
  Te  Te141  1  0.15709366  0.66710497  0.00135982  1
  Te  Te142  1  0.16722829  0.67192318  0.33911686  1
  Te  Te143  1  0.16354774  0.66254869  0.66167896  1
  Te  Te144  1  0.50631949  0.00463214  -0.00067996  1
  Te  Te145  1  0.50021929  -0.00066240  0.33999991  1
  Te  Te146  1  0.50022210  -0.00794105  0.66190086  1
  Te  Te147  1  0.49758773  0.32341519  0.00560140  1
  Te  Te148  1  0.49670182  0.33167369  0.33170608  1
  Te  Te149  1  0.50036525  0.33356873  0.65833793  1
  Te  Te150  1  0.50203279  0.66887933  0.00105673  1
  Te  Te151  1  0.50341395  0.67109480  0.33104811  1
  Te  Te152  1  0.50316081  0.67117617  0.66773027  1
  Te  Te153  1  0.82845081  -0.00045988  -0.00163443  1
  Te  Te154  1  0.83278605  0.00035239  0.34506885  1
  Te  Te155  1  0.83687470  -0.00249785  0.66796191  1
  Te  Te156  1  0.83530188  0.33384519  0.00499243  1
  Te  Te157  1  0.83412625  0.33189705  0.33481871  1
  Te  Te158  1  0.83295302  0.33750562  0.65957553  1
  Te  Te159  1  0.83770999  0.66648151  0.00032901  1
  Te  Te160  1  0.82334084  0.66755553  0.33503732  1
  Te  Te161  1  0.83447485  0.66817971  0.66828689  1
  Te  Te162  1  -0.00153832  0.16482956  -0.00490236  1
  Te  Te163  1  0.00662654  0.16595913  0.33279541  1
  Te  Te164  1  -0.00022812  0.16554557  0.67536917  1
  Te  Te165  1  -0.00002186  0.50290751  -0.00319450  1
  Te  Te166  1  0.00001757  0.50116044  0.32387306  1
  Te  Te167  1  -0.00278049  0.50467982  0.66959918  1
  Te  Te168  1  -0.00053889  0.83152206  -0.00202481  1
  Te  Te169  1  0.00246498  0.83253980  0.32715634  1
  Te  Te170  1  -0.00170456  0.82960477  0.66779475  1
  Te  Te171  1  0.33058987  0.16597547  0.00615086  1
  Te  Te172  1  0.33509464  0.16955999  0.32813076  1
  Te  Te173  1  0.33259768  0.16625388  0.67304491  1
  Te  Te174  1  0.33200054  0.50535215  -0.00538893  1
  Te  Te175  1  0.33291315  0.49605560  0.33772139  1
  Te  Te176  1  0.33189071  0.50145679  0.66874085  1
  Te  Te177  1  0.33217361  0.82926346  0.00150806  1
  Te  Te178  1  0.33571641  0.83169928  0.32900474  1
  Te  Te179  1  0.33902069  0.83283609  0.67022807  1
  Te  Te180  1  0.66884692  0.17156778  0.00223457  1
  Te  Te181  1  0.66270583  0.16582997  0.33448512  1
  Te  Te182  1  0.66704746  0.16572592  0.65953897  1
  Te  Te183  1  0.66811502  0.49961926  0.00050800  1
  Te  Te184  1  0.66562430  0.50831630  0.32886002  1
  Te  Te185  1  0.67127847  0.50555618  0.66811624  1
  Te  Te186  1  0.66803129  0.83078088  0.00131355  1
  Te  Te187  1  0.66326785  0.83062350  0.32678933  1
  Te  Te188  1  0.67036336  0.82917178  0.66623747  1
  Te  Te189  1  0.00297274  -0.00458455  0.16602194  1
  Te  Te190  1  0.00013096  -0.00354744  0.50379135  1
  Te  Te191  1  -0.00529450  -0.00157681  0.82941145  1
  Te  Te192  1  -0.00350144  0.33787617  0.16768246  1
  Te  Te193  1  -0.00132541  0.33327284  0.49915763  1
  Te  Te194  1  0.00060035  0.33101894  0.83326548  1
  Te  Te195  1  0.00098574  0.66715213  0.16559785  1
  Te  Te196  1  0.00408605  0.67238048  0.49877863  1
  Te  Te197  1  0.00208747  0.66747388  0.83313639  1
  Te  Te198  1  0.32555055  -0.00193742  0.16553434  1
  Te  Te199  1  0.33026532  0.00046470  0.50139661  1
  Te  Te200  1  0.33340962  -0.00699997  0.83390936  1
  Te  Te201  1  0.33710969  0.33141012  0.17148219  1
  Te  Te202  1  0.33414750  0.33610817  0.49533080  1
  Te  Te203  1  0.33430438  0.34034052  0.83272059  1
  Te  Te204  1  0.33799247  0.66973161  0.16162713  1
  Te  Te205  1  0.32829288  0.66151168  0.49958636  1
  Te  Te206  1  0.33480142  0.66770371  0.83693729  1
  Te  Te207  1  0.66851230  0.00241031  0.16173817  1
  Te  Te208  1  0.66674092  0.00236738  0.50078214  1
  Te  Te209  1  0.67237425  0.00626623  0.83743797  1
  Te  Te210  1  0.66494135  0.33019752  0.16955373  1
  Te  Te211  1  0.66574140  0.33018421  0.49739698  1
  Te  Te212  1  0.66609976  0.33051247  0.83019658  1
  Te  Te213  1  0.66367653  0.66723125  0.16020380  1
  Te  Te214  1  0.66670742  0.66656710  0.50906872  1
  Te  Te215  1  0.66292230  0.66400638  0.83571799  1
