# generated using pymatgen
data_AgSbTe2
_symmetry_space_group_name_H-M   'P 1'
_cell_length_a   18.32938605
_cell_length_b   18.33881917
_cell_length_c   18.33140763
_cell_angle_alpha   89.99821069
_cell_angle_beta   89.99758803
_cell_angle_gamma   89.99979421
_symmetry_Int_Tables_number   1
_chemical_formula_structural   AgSbTe2
_chemical_formula_sum   'Ag54 Sb54 Te108'
_cell_volume   6161.90645198
_cell_formula_units_Z   54
loop_
 _symmetry_equiv_pos_site_id
 _symmetry_equiv_pos_as_xyz
  1  'x, y, z'
loop_
 _atom_site_type_symbol
 _atom_site_label
 _atom_site_symmetry_multiplicity
 _atom_site_fract_x
 _atom_site_fract_y
 _atom_site_fract_z
 _atom_site_occupancy
  Ag  Ag0  1  -0.00821084  0.34145218  0.67329989  1
  Ag  Ag1  1  0.33235427  0.16638206  0.50010709  1
  Ag  Ag2  1  0.33714178  0.17533969  0.17017822  1
  Ag  Ag3  1  0.50588818  0.82811123  0.00194400  1
  Ag  Ag4  1  0.16491402  0.66234187  0.83350677  1
  Ag  Ag5  1  0.83381946  0.50215186  0.33479891  1
  Ag  Ag6  1  0.33408551  0.83438453  0.50013375  1
  Ag  Ag7  1  -0.00339466  0.66188437  0.00484085  1
  Ag  Ag8  1  0.33549792  0.82305911  0.16863978  1
  Ag  Ag9  1  0.49496088  0.65904944  0.15831289  1
  Ag  Ag10  1  0.16818700  0.00284746  0.83045042  1
  Ag  Ag11  1  0.66123680  0.49675535  0.83326362  1
  Ag  Ag12  1  0.34270081  0.50177809  0.16952908  1
  Ag  Ag13  1  0.83193568  0.33610978  0.50804063  1
  Ag  Ag14  1  0.33016421  0.66243777  0.66834685  1
  Ag  Ag15  1  0.49875347  -0.00111429  0.15742536  1
  Ag  Ag16  1  -0.00237110  0.50029049  0.50394404  1
  Ag  Ag17  1  0.83217516  0.82220663  0.33150902  1
  Ag  Ag18  1  -0.00287740  0.66154393  0.32161335  1
  Ag  Ag19  1  -0.00101933  0.18007136  0.83282182  1
  Ag  Ag20  1  0.66752711  0.34104657  0.33067798  1
  Ag  Ag21  1  0.50377510  0.17132950  -0.00468156  1
  Ag  Ag22  1  0.15814168  0.33609717  0.83145994  1
  Ag  Ag23  1  0.66024203  0.17784424  0.83322625  1
  Ag  Ag24  1  0.82751548  0.82902455  0.00519234  1
  Ag  Ag25  1  0.66980934  0.83202010  0.50083668  1
  Ag  Ag26  1  0.50843164  0.33595394  0.83596660  1
  Ag  Ag27  1  0.66234805  0.66356061  0.00216414  1
  Ag  Ag28  1  0.16721661  0.17500087  0.33354620  1
  Ag  Ag29  1  0.00288164  0.50331740  0.16703305  1
  Ag  Ag30  1  0.00225825  0.66029326  0.67118905  1
  Ag  Ag31  1  0.67033589  0.65735599  0.32561570  1
  Ag  Ag32  1  0.16503800  0.82882853  0.66760425  1
  Ag  Ag33  1  0.82422736  0.33588225  0.16966729  1
  Ag  Ag34  1  -0.00270987  0.49806737  0.83139556  1
  Ag  Ag35  1  0.00132172  0.82155800  0.16429346  1
  Ag  Ag36  1  0.15395864  0.49971376  0.32824419  1
  Ag  Ag37  1  0.50777533  0.49981181  0.32391929  1
  Ag  Ag38  1  -0.00757298  0.34321741  -0.00797774  1
  Ag  Ag39  1  0.50427370  0.49653448  0.67736791  1
  Ag  Ag40  1  0.66840332  0.33633544  0.67464662  1
  Ag  Ag41  1  0.83675833  0.82763826  0.66507718  1
  Ag  Ag42  1  0.16819930  -0.00079959  0.50539959  1
  Ag  Ag43  1  0.83984734  0.49836427  0.66436297  1
  Ag  Ag44  1  0.83023332  0.18183670  0.66977758  1
  Ag  Ag45  1  0.34388270  0.33740290  0.66923212  1
  Ag  Ag46  1  0.50294983  0.17913381  0.67843106  1
  Ag  Ag47  1  0.50020115  0.00891794  0.83914492  1
  Ag  Ag48  1  0.66450866  0.33814822  -0.00669831  1
  Ag  Ag49  1  0.49884370  0.65381437  0.83830455  1
  Ag  Ag50  1  0.16465157  0.66482680  0.16290127  1
  Ag  Ag51  1  0.50329104  0.34089116  0.15526807  1
  Ag  Ag52  1  0.66040744  -0.00549541  -0.00226318  1
  Ag  Ag53  1  0.50487835  0.49995234  -0.00112306  1
  Sb  Sb54  1  0.66526817  0.00333448  0.67289289  1
  Sb  Sb55  1  0.17049176  0.34065607  0.16252648  1
  Sb  Sb56  1  0.33453785  0.83131522  0.83417555  1
  Sb  Sb57  1  0.00162323  -0.00625067  0.33216061  1
  Sb  Sb58  1  0.50447095  0.82540779  0.32643405  1
  Sb  Sb59  1  0.83658453  0.00184811  0.50122563  1
  Sb  Sb60  1  0.00506007  0.17279551  0.16194269  1
  Sb  Sb61  1  0.49904773  0.82914673  0.67181208  1
  Sb  Sb62  1  0.83531881  0.66082495  0.16744804  1
  Sb  Sb63  1  0.50089110  0.66588931  0.50073625  1
  Sb  Sb64  1  0.66537678  -0.00064923  0.32801761  1
  Sb  Sb65  1  0.16364550  0.33228758  0.50423139  1
  Sb  Sb66  1  0.16384805  0.82851098  0.33530680  1
  Sb  Sb67  1  0.32971663  0.49968981  0.49910927  1
  Sb  Sb68  1  0.50379206  0.33458674  0.50608939  1
  Sb  Sb69  1  0.17313865  -0.00497658  0.16449375  1
  Sb  Sb70  1  0.00347496  0.17394391  0.50605955  1
  Sb  Sb71  1  0.00117448  0.00003010  0.66876065  1
  Sb  Sb72  1  -0.00378913  0.34263427  0.33260899  1
  Sb  Sb73  1  0.33824266  0.66559859  -0.00093906  1
  Sb  Sb74  1  0.67070540  0.50127530  0.50100876  1
  Sb  Sb75  1  0.33267755  0.66455460  0.33250643  1
  Sb  Sb76  1  0.82759005  0.16929658  -0.00558232  1
  Sb  Sb77  1  0.66637531  0.82934605  0.16581880  1
  Sb  Sb78  1  -0.00467566  -0.00253272  -0.00252429  1
  Sb  Sb79  1  0.82856694  0.00143357  0.16440697  1
  Sb  Sb80  1  0.16561534  0.50128301  0.00155485  1
  Sb  Sb81  1  0.83322938  0.66117121  0.49898200  1
  Sb  Sb82  1  0.33331047  0.00031561  0.66684315  1
  Sb  Sb83  1  0.83772295  0.17450823  0.33851861  1
  Sb  Sb84  1  0.49791096  0.17411859  0.32983738  1
  Sb  Sb85  1  0.33585066  0.49933518  0.83508413  1
  Sb  Sb86  1  0.33995779  0.33501314  -0.00384602  1
  Sb  Sb87  1  0.66531027  0.49999524  0.16279537  1
  Sb  Sb88  1  0.65936710  0.17162494  0.15949243  1
  Sb  Sb89  1  0.16756208  0.83040634  -0.00290954  1
  Sb  Sb90  1  0.17232541  0.16884143  0.00064259  1
  Sb  Sb91  1  0.49663270  -0.00033093  0.50236566  1
  Sb  Sb92  1  0.83126152  0.00094528  0.83313302  1
  Sb  Sb93  1  0.00087407  0.82723779  0.83596823  1
  Sb  Sb94  1  0.33762498  0.33498049  0.33590703  1
  Sb  Sb95  1  -0.00082127  0.82669464  0.49874478  1
  Sb  Sb96  1  0.16872437  0.16693846  0.66669945  1
  Sb  Sb97  1  0.66524125  0.82908890  0.83293458  1
  Sb  Sb98  1  0.66198235  0.16702500  0.50615416  1
  Sb  Sb99  1  0.34251050  -0.00000252  0.00015438  1
  Sb  Sb100  1  0.66745629  0.66085582  0.66981991  1
  Sb  Sb101  1  0.83438943  0.66469201  0.83427445  1
  Sb  Sb102  1  0.33335328  0.00064580  0.33335967  1
  Sb  Sb103  1  0.33796514  0.16972804  0.83184133  1
  Sb  Sb104  1  0.16561368  0.66841683  0.50137020  1
  Sb  Sb105  1  0.16300300  0.50245477  0.66687204  1
  Sb  Sb106  1  0.83212460  0.50065486  0.00054795  1
  Sb  Sb107  1  0.83197328  0.33607240  0.83115362  1
  Te  Te108  1  0.17387873  0.16507657  0.17026774  1
  Te  Te109  1  0.17050269  0.16403027  0.49718330  1
  Te  Te110  1  0.16487275  0.16896177  0.83392829  1
  Te  Te111  1  0.16409285  0.50475484  0.16812494  1
  Te  Te112  1  0.16144743  0.49988307  0.49042493  1
  Te  Te113  1  0.16481012  0.50090663  0.83441683  1
  Te  Te114  1  0.16743120  0.82808986  0.16679178  1
  Te  Te115  1  0.16850799  0.83702536  0.50283760  1
  Te  Te116  1  0.16771600  0.82977589  0.82883107  1
  Te  Te117  1  0.49526607  0.16772193  0.16547097  1
  Te  Te118  1  0.49317366  0.16486073  0.50104251  1
  Te  Te119  1  0.50002467  0.17003483  0.83451885  1
  Te  Te120  1  0.50246822  0.49990623  0.16534014  1
  Te  Te121  1  0.49914840  0.50049912  0.49809013  1
  Te  Te122  1  0.49838889  0.49701468  0.83472724  1
  Te  Te123  1  0.49926235  0.83278985  0.16312294  1
  Te  Te124  1  0.49523740  0.83440258  0.49927663  1
  Te  Te125  1  0.49977806  0.83547255  0.83955356  1
  Te  Te126  1  0.83504504  0.17279193  0.16804155  1
  Te  Te127  1  0.83355280  0.17074242  0.50762832  1
  Te  Te128  1  0.83431288  0.16365506  0.82747333  1
  Te  Te129  1  0.83942398  0.49528947  0.16945982  1
  Te  Te130  1  0.83676256  0.49583111  0.50148354  1
  Te  Te131  1  0.83448065  0.50247502  0.82820357  1
  Te  Te132  1  0.83625243  0.83471436  0.16721669  1
  Te  Te133  1  0.83284586  0.83560555  0.49932419  1
  Te  Te134  1  0.83334183  0.83341046  0.83024261  1
  Te  Te135  1  0.16520562  -0.00028740  -0.00762133  1
  Te  Te136  1  0.16584710  0.00151922  0.33515001  1
  Te  Te137  1  0.16751728  -0.00436613  0.66905863  1
  Te  Te138  1  0.16044682  0.33357046  -0.00644118  1
  Te  Te139  1  0.16711664  0.33568243  0.33248237  1
  Te  Te140  1  0.16274986  0.33351023  0.67093766  1
  Te  Te141  1  0.16068513  0.66693242  -0.00156129  1
  Te  Te142  1  0.16230760  0.66224388  0.32958206  1
  Te  Te143  1  0.16644714  0.66756989  0.66852420  1
  Te  Te144  1  0.50353363  0.00112273  -0.00231452  1
  Te  Te145  1  0.50147785  0.00021745  0.32789504  1
  Te  Te146  1  0.50001849  0.00190165  0.67277890  1
  Te  Te147  1  0.50166972  0.33489390  -0.00284287  1
  Te  Te148  1  0.50508492  0.33902521  0.33247354  1
  Te  Te149  1  0.50280051  0.33553863  0.66798982  1
  Te  Te150  1  0.49955053  0.66482094  -0.00103371  1
  Te  Te151  1  0.50338963  0.66082479  0.33018829  1
  Te  Te152  1  0.49836198  0.66231178  0.67173476  1
  Te  Te153  1  0.82475496  -0.00692915  0.00041383  1
  Te  Te154  1  0.83323385  -0.00397956  0.33323953  1
  Te  Te155  1  0.83322745  -0.01154131  0.66560094  1
  Te  Te156  1  0.83103278  0.33343088  0.00845319  1
  Te  Te157  1  0.83026169  0.33679551  0.33064952  1
  Te  Te158  1  0.83229259  0.33782526  0.66766362  1
  Te  Te159  1  0.83090964  0.66957288  0.00070013  1
  Te  Te160  1  0.83328377  0.66434235  0.33327275  1
  Te  Te161  1  0.83604275  0.66628272  0.66695291  1
  Te  Te162  1  -0.00137169  0.16778580  -0.00558530  1
  Te  Te163  1  0.00607238  0.16580216  0.33291958  1
  Te  Te164  1  -0.00282625  0.16887315  0.67166235  1
  Te  Te165  1  -0.00132421  0.50167444  -0.00213686  1
  Te  Te166  1  -0.00367406  0.50220235  0.33003798  1
  Te  Te167  1  0.00168666  0.50005880  0.66917939  1
  Te  Te168  1  -0.00371632  0.82947947  0.00380492  1
  Te  Te169  1  -0.00474226  0.82615409  0.33037903  1
  Te  Te170  1  0.00092572  0.82983265  0.66659215  1
  Te  Te171  1  0.34034160  0.16763711  0.00810061  1
  Te  Te172  1  0.32949064  0.16789182  0.33400324  1
  Te  Te173  1  0.33697599  0.17034530  0.66420569  1
  Te  Te174  1  0.34060560  0.49947015  0.00856467  1
  Te  Te175  1  0.33758593  0.50003150  0.33078676  1
  Te  Te176  1  0.33538417  0.49968888  0.66509080  1
  Te  Te177  1  0.33869554  0.83286901  0.00771304  1
  Te  Te178  1  0.33315553  0.83222536  0.33341857  1
  Te  Te179  1  0.33132705  0.82911626  0.66391291  1
  Te  Te180  1  0.66358923  0.17403609  -0.00610631  1
  Te  Te181  1  0.66848341  0.17088990  0.33548896  1
  Te  Te182  1  0.66588959  0.16983169  0.67065834  1
  Te  Te183  1  0.66674697  0.50028196  -0.00399766  1
  Te  Te184  1  0.66994183  0.50006119  0.33592272  1
  Te  Te185  1  0.66520816  0.49740439  0.66761090  1
  Te  Te186  1  0.66670872  0.82831002  -0.00044152  1
  Te  Te187  1  0.67187058  0.83197299  0.33626848  1
  Te  Te188  1  0.66850424  0.83207231  0.66283699  1
  Te  Te189  1  0.00139815  -0.00234110  0.16498555  1
  Te  Te190  1  0.00795142  0.00088912  0.50018494  1
  Te  Te191  1  0.00551969  0.00237612  0.83409508  1
  Te  Te192  1  0.00207083  0.33694053  0.16221390  1
  Te  Te193  1  -0.00418408  0.33904526  0.50441546  1
  Te  Te194  1  -0.00333141  0.33669915  0.83394667  1
  Te  Te195  1  -0.00093420  0.66467369  0.16447310  1
  Te  Te196  1  0.00011137  0.66038249  0.50659625  1
  Te  Te197  1  0.00235763  0.66295371  0.83264925  1
  Te  Te198  1  0.33862349  -0.00285665  0.16666900  1
  Te  Te199  1  0.32910307  -0.00107593  0.50026512  1
  Te  Te200  1  0.33128632  0.00045554  0.83307157  1
  Te  Te201  1  0.33823487  0.33631715  0.16677061  1
  Te  Te202  1  0.33233686  0.33055303  0.50707495  1
  Te  Te203  1  0.32854372  0.33385400  0.82814470  1
  Te  Te204  1  0.33327433  0.66433836  0.16721113  1
  Te  Te205  1  0.33347913  0.67084930  0.50559084  1
  Te  Te206  1  0.33158145  0.66557112  0.82911693  1
  Te  Te207  1  0.66023697  0.00175952  0.15966334  1
  Te  Te208  1  0.66625734  -0.00581856  0.49941075  1
  Te  Te209  1  0.66214351  0.00066717  0.83873710  1
  Te  Te210  1  0.66369186  0.33366266  0.16843101  1
  Te  Te211  1  0.67145103  0.33246762  0.49727801  1
  Te  Te212  1  0.66700889  0.33569207  0.83292893  1
  Te  Te213  1  0.66073209  0.66613317  0.16605165  1
  Te  Te214  1  0.66615587  0.67255586  0.49386817  1
  Te  Te215  1  0.66107106  0.66148740  0.83738509  1
