# generated using pymatgen
data_AgSbTe2
_symmetry_space_group_name_H-M   'P 1'
_cell_length_a   18.36355986
_cell_length_b   18.35394213
_cell_length_c   18.35054323
_cell_angle_alpha   89.99590822
_cell_angle_beta   90.00277473
_cell_angle_gamma   90.00135290
_symmetry_Int_Tables_number   1
_chemical_formula_structural   AgSbTe2
_chemical_formula_sum   'Ag54 Sb54 Te108'
_cell_volume   6184.93523704
_cell_formula_units_Z   54
loop_
 _symmetry_equiv_pos_site_id
 _symmetry_equiv_pos_as_xyz
  1  'x, y, z'
loop_
 _atom_site_type_symbol
 _atom_site_label
 _atom_site_symmetry_multiplicity
 _atom_site_fract_x
 _atom_site_fract_y
 _atom_site_fract_z
 _atom_site_occupancy
  Ag  Ag0  1  0.50541648  0.49633053  -0.00570736  1
  Ag  Ag1  1  0.66157611  0.66909160  -0.00461967  1
  Ag  Ag2  1  0.50078538  0.84028255  -0.00283515  1
  Ag  Ag3  1  0.82094243  0.00404462  0.16527783  1
  Ag  Ag4  1  0.66486162  0.49586069  0.15039880  1
  Ag  Ag5  1  0.65476987  0.15989291  0.50144501  1
  Ag  Ag6  1  0.33328408  0.31778862  0.33667182  1
  Ag  Ag7  1  0.49727591  0.16193767  0.33627175  1
  Ag  Ag8  1  -0.00070122  0.49408345  0.83367300  1
  Ag  Ag9  1  0.65918417  0.17857717  0.84343588  1
  Ag  Ag10  1  0.66098402  0.83011834  0.84138751  1
  Ag  Ag11  1  0.50127783  -0.00168287  0.49238466  1
  Ag  Ag12  1  0.66333009  0.66649327  0.34697277  1
  Ag  Ag13  1  0.65821365  0.16646538  0.15422052  1
  Ag  Ag14  1  0.33766880  0.00654106  0.32804122  1
  Ag  Ag15  1  0.34038802  0.16092024  0.48584712  1
  Ag  Ag16  1  0.34127009  0.33154984  0.66881807  1
  Ag  Ag17  1  0.66240207  0.83448825  0.50334908  1
  Ag  Ag18  1  0.34230156  0.16585163  0.83653412  1
  Ag  Ag19  1  0.65791673  0.33870171  0.67883470  1
  Ag  Ag20  1  0.16777559  0.49504423  0.33605874  1
  Ag  Ag21  1  0.81733770  0.84106320  -0.00242348  1
  Ag  Ag22  1  0.50205116  0.00460019  0.16535258  1
  Ag  Ag23  1  0.17293796  0.66644496  0.50580634  1
  Ag  Ag24  1  0.16883117  0.65971320  0.83177229  1
  Ag  Ag25  1  0.81788622  0.67306167  0.50233911  1
  Ag  Ag26  1  0.34420707  0.67760765  -0.00369919  1
  Ag  Ag27  1  0.50112579  0.17196258  0.67157295  1
  Ag  Ag28  1  0.50003006  0.32894504  0.83273315  1
  Ag  Ag29  1  0.50009081  0.84405117  0.33791381  1
  Ag  Ag30  1  0.34045994  0.16534772  0.17227607  1
  Ag  Ag31  1  0.81604493  0.16096955  0.00089587  1
  Ag  Ag32  1  0.34574904  0.83781488  0.50322219  1
  Ag  Ag33  1  0.00016481  0.16530955  0.16031225  1
  Ag  Ag34  1  0.66412941  0.31980360  -0.00491056  1
  Ag  Ag35  1  0.17310829  0.33493725  0.83612078  1
  Ag  Ag36  1  0.00618964  0.83345786  0.83858248  1
  Ag  Ag37  1  0.00125840  0.17333082  0.84070386  1
  Ag  Ag38  1  0.81760035  0.50133337  0.66859706  1
  Ag  Ag39  1  0.18129459  0.83104096  -0.00381129  1
  Ag  Ag40  1  -0.00451494  0.32790491  -0.00441653  1
  Ag  Ag41  1  0.66345304  0.66101247  0.66985179  1
  Ag  Ag42  1  0.66365856  0.49423992  0.83448850  1
  Ag  Ag43  1  0.16933101  0.32863953  0.15592044  1
  Ag  Ag44  1  0.00381948  0.00241615  0.33151894  1
  Ag  Ag45  1  0.18475709  0.17056030  0.33032090  1
  Ag  Ag46  1  0.66131693  0.00635131  0.00026487  1
  Ag  Ag47  1  0.81913814  -0.00185648  0.49376724  1
  Ag  Ag48  1  0.34292095  0.00044396  0.00247142  1
  Ag  Ag49  1  0.50168998  0.67403353  0.50090368  1
  Ag  Ag50  1  0.17129542  0.49971197  0.67189334  1
  Ag  Ag51  1  0.33722085  0.83669965  0.84065065  1
  Ag  Ag52  1  0.50207497  0.16076858  -0.00017193  1
  Ag  Ag53  1  0.50077264  0.49238871  0.67387425  1
  Sb  Sb54  1  0.65850688  -0.00269358  0.33112292  1
  Sb  Sb55  1  0.82611509  0.16296183  0.32818609  1
  Sb  Sb56  1  0.33697529  0.49811624  0.83350312  1
  Sb  Sb57  1  0.50106247  0.00671692  0.83803888  1
  Sb  Sb58  1  0.17238202  0.50083527  -0.00305306  1
  Sb  Sb59  1  0.00151565  0.16446538  0.49751111  1
  Sb  Sb60  1  0.82486946  0.83734681  0.33090569  1
  Sb  Sb61  1  0.66320427  0.00186532  0.66800489  1
  Sb  Sb62  1  0.49965830  0.66408977  0.83301942  1
  Sb  Sb63  1  0.82506555  0.49940971  -0.00524726  1
  Sb  Sb64  1  0.82748097  0.33321138  0.83489851  1
  Sb  Sb65  1  -0.00231572  0.67082765  0.33562326  1
  Sb  Sb66  1  0.82988991  0.66665287  0.83093542  1
  Sb  Sb67  1  0.82778075  0.33029490  0.50197146  1
  Sb  Sb68  1  0.83450026  0.50202216  0.33826861  1
  Sb  Sb69  1  -0.00054039  0.84126212  0.15992359  1
  Sb  Sb70  1  0.49777625  0.49888376  0.33313311  1
  Sb  Sb71  1  0.16960139  0.33636453  0.50201857  1
  Sb  Sb72  1  0.66339479  0.83840995  0.16183175  1
  Sb  Sb73  1  0.83087348  0.00010852  0.83685859  1
  Sb  Sb74  1  0.66370924  0.50349900  0.50693103  1
  Sb  Sb75  1  -0.00364283  0.66522106  0.66972887  1
  Sb  Sb76  1  0.17425729  0.83484838  0.33005981  1
  Sb  Sb77  1  0.82685838  0.67194651  0.16762854  1
  Sb  Sb78  1  0.16777332  0.00195294  0.83543976  1
  Sb  Sb79  1  0.33841912  0.67017349  0.33230919  1
  Sb  Sb80  1  0.33609321  0.84164617  0.16249908  1
  Sb  Sb81  1  0.49908930  0.32757386  0.50820470  1
  Sb  Sb82  1  0.17103666  0.00748698  0.16549214  1
  Sb  Sb83  1  0.33794320  0.32811832  -0.00328328  1
  Sb  Sb84  1  0.33878936  0.49249986  0.16447014  1
  Sb  Sb85  1  0.33794390  0.00595143  0.66737309  1
  Sb  Sb86  1  0.49703364  0.32435876  0.16004812  1
  Sb  Sb87  1  0.16943371  0.82636502  0.67330920  1
  Sb  Sb88  1  0.82386742  0.17109011  0.67290509  1
  Sb  Sb89  1  0.50118286  0.83396444  0.66786322  1
  Sb  Sb90  1  -0.00277413  0.83428524  0.50367067  1
  Sb  Sb91  1  0.00127914  0.50036648  0.50685867  1
  Sb  Sb92  1  0.17329105  0.16462139  0.00301100  1
  Sb  Sb93  1  0.33830872  0.66281579  0.66981827  1
  Sb  Sb94  1  0.16900977  0.66028609  0.16387304  1
  Sb  Sb95  1  -0.00363350  0.49195190  0.15955710  1
  Sb  Sb96  1  0.00058668  0.33374460  0.67616833  1
  Sb  Sb97  1  0.83302269  0.32581805  0.16369918  1
  Sb  Sb98  1  0.65829569  0.33380401  0.33027824  1
  Sb  Sb99  1  0.17456371  0.17383709  0.66593182  1
  Sb  Sb100  1  0.17396964  -0.00400807  0.49678569  1
  Sb  Sb101  1  0.50209687  0.67070202  0.16544488  1
  Sb  Sb102  1  -0.00374753  0.00220745  0.66541880  1
  Sb  Sb103  1  -0.00263000  0.66570648  -0.00265801  1
  Sb  Sb104  1  0.33450746  0.50015148  0.50053179  1
  Sb  Sb105  1  0.82870685  0.83029285  0.67066675  1
  Sb  Sb106  1  -0.00223780  0.00529465  0.00273366  1
  Sb  Sb107  1  0.01096044  0.32586255  0.32518462  1
  Te  Te108  1  0.16553017  0.17067148  0.16982298  1
  Te  Te109  1  0.17081455  0.16615150  0.49489264  1
  Te  Te110  1  0.16150636  0.17004887  0.83320767  1
  Te  Te111  1  0.16576948  0.49227472  0.16895883  1
  Te  Te112  1  0.16760354  0.50475331  0.49936254  1
  Te  Te113  1  0.16837413  0.49905322  0.83381700  1
  Te  Te114  1  0.16671638  0.82999560  0.16005135  1
  Te  Te115  1  0.16593574  0.82750417  0.50022263  1
  Te  Te116  1  0.17079279  0.83338287  0.83631308  1
  Te  Te117  1  0.50014263  0.16472895  0.16278539  1
  Te  Te118  1  0.49739080  0.16866147  0.49765310  1
  Te  Te119  1  0.50252657  0.16731089  0.83465045  1
  Te  Te120  1  0.50579429  0.50008061  0.16405026  1
  Te  Te121  1  0.49845419  0.50669334  0.50179754  1
  Te  Te122  1  0.50254649  0.49748677  0.83344017  1
  Te  Te123  1  0.49944004  0.83960141  0.17062237  1
  Te  Te124  1  0.50266512  0.83360317  0.50398031  1
  Te  Te125  1  0.49869728  0.83310186  0.83416834  1
  Te  Te126  1  0.83389717  0.16212033  0.16182776  1
  Te  Te127  1  0.83223049  0.16158970  0.50118342  1
  Te  Te128  1  0.83766878  0.16597950  0.83959499  1
  Te  Te129  1  0.82694962  0.50076370  0.16792923  1
  Te  Te130  1  0.83568264  0.50553576  0.50639080  1
  Te  Te131  1  0.83466296  0.50099700  0.82814375  1
  Te  Te132  1  0.83308747  0.84173597  0.16028895  1
  Te  Te133  1  0.82960183  0.83379564  0.50034851  1
  Te  Te134  1  0.82897468  0.83344308  0.83817996  1
  Te  Te135  1  0.17055483  -0.00810718  0.00025160  1
  Te  Te136  1  0.17095648  0.00376622  0.33185036  1
  Te  Te137  1  0.16520131  0.00057436  0.66538704  1
  Te  Te138  1  0.16903946  0.33402035  -0.00376529  1
  Te  Te139  1  0.17294353  0.33133484  0.33534198  1
  Te  Te140  1  0.16818641  0.33901588  0.67184490  1
  Te  Te141  1  0.16571074  0.66914483  -0.00401284  1
  Te  Te142  1  0.16650972  0.66450818  0.33308584  1
  Te  Te143  1  0.16803751  0.66079359  0.66918391  1
  Te  Te144  1  0.50145608  0.00040332  -0.00090524  1
  Te  Te145  1  0.49836836  0.00107553  0.33171673  1
  Te  Te146  1  0.50036582  0.00924144  0.65381360  1
  Te  Te147  1  0.50309740  0.33587168  -0.00445847  1
  Te  Te148  1  0.49294743  0.33158259  0.33133931  1
  Te  Te149  1  0.50092889  0.33264614  0.66998264  1
  Te  Te150  1  0.50143540  0.66872706  -0.00007424  1
  Te  Te151  1  0.50380005  0.66663375  0.33578623  1
  Te  Te152  1  0.50310741  0.66418863  0.66358221  1
  Te  Te153  1  0.83182531  0.00137885  0.00287460  1
  Te  Te154  1  0.83677413  -0.00065077  0.33204106  1
  Te  Te155  1  0.83163309  0.00076487  0.65490996  1
  Te  Te156  1  0.83135420  0.32857928  0.00078379  1
  Te  Te157  1  0.83562579  0.33446936  0.33332878  1
  Te  Te158  1  0.82913607  0.34051023  0.66644740  1
  Te  Te159  1  0.82879548  0.67147925  -0.00023228  1
  Te  Te160  1  0.82843368  0.66916771  0.34021819  1
  Te  Te161  1  0.82911387  0.66291947  0.66201412  1
  Te  Te162  1  0.00807841  0.16875768  -0.00050376  1
  Te  Te163  1  -0.00413688  0.16224800  0.32943111  1
  Te  Te164  1  -0.00081008  0.16742978  0.67200013  1
  Te  Te165  1  -0.00206199  0.49425120  -0.00592543  1
  Te  Te166  1  0.00503262  0.49895839  0.33258135  1
  Te  Te167  1  0.01042631  0.49954572  0.67420216  1
  Te  Te168  1  -0.00084741  0.83405672  -0.00380002  1
  Te  Te169  1  0.00213465  0.83913572  0.33224641  1
  Te  Te170  1  -0.00065538  0.83421646  0.67714075  1
  Te  Te171  1  0.33719955  0.16367296  -0.00415635  1
  Te  Te172  1  0.34000188  0.16225851  0.32987909  1
  Te  Te173  1  0.33707281  0.17200755  0.67868303  1
  Te  Te174  1  0.34097336  0.50492003  0.00082253  1
  Te  Te175  1  0.32859496  0.50049112  0.33202030  1
  Te  Te176  1  0.33560085  0.49461710  0.66657354  1
  Te  Te177  1  0.33962314  0.83705875  0.00009277  1
  Te  Te178  1  0.33901171  0.83712407  0.33830416  1
  Te  Te179  1  0.33370330  0.83427126  0.66395783  1
  Te  Te180  1  0.66106723  0.16398030  -0.00133273  1
  Te  Te181  1  0.66087667  0.16724899  0.33973160  1
  Te  Te182  1  0.66284350  0.16920995  0.66607103  1
  Te  Te183  1  0.66594163  0.50599937  -0.00570337  1
  Te  Te184  1  0.66701265  0.50348199  0.33340810  1
  Te  Te185  1  0.66084920  0.49938622  0.66879877  1
  Te  Te186  1  0.66101125  0.83308772  0.00127201  1
  Te  Te187  1  0.66054797  0.82862965  0.33703400  1
  Te  Te188  1  0.66609526  0.82878634  0.66569102  1
  Te  Te189  1  0.00170683  0.00603501  0.17026501  1
  Te  Te190  1  0.00010520  -0.00072620  0.49434961  1
  Te  Te191  1  -0.00084672  -0.00308085  0.83301908  1
  Te  Te192  1  0.00503435  0.32674448  0.15887693  1
  Te  Te193  1  -0.00187499  0.33253850  0.49989475  1
  Te  Te194  1  0.00210740  0.33406052  0.83747743  1
  Te  Te195  1  -0.00270262  0.66466034  0.16779019  1
  Te  Te196  1  0.00829255  0.66803534  0.50124486  1
  Te  Te197  1  0.00593263  0.66910660  0.83399529  1
  Te  Te198  1  0.33687087  0.00534480  0.16564652  1
  Te  Te199  1  0.33722660  0.00014516  0.50055643  1
  Te  Te200  1  0.33406540  -0.00132915  0.83617039  1
  Te  Te201  1  0.32939388  0.32739353  0.16799340  1
  Te  Te202  1  0.33308357  0.32724049  0.50112190  1
  Te  Te203  1  0.33463428  0.33193831  0.83243489  1
  Te  Te204  1  0.33367365  0.66524426  0.15866559  1
  Te  Te205  1  0.33397498  0.67098937  0.50005685  1
  Te  Te206  1  0.32995579  0.67083254  0.83611632  1
  Te  Te207  1  0.66332826  0.00452350  0.16519045  1
  Te  Te208  1  0.66203777  -0.00194704  0.49993249  1
  Te  Te209  1  0.66754095  -0.00775605  0.83670680  1
  Te  Te210  1  0.66652985  0.33066011  0.16264261  1
  Te  Te211  1  0.66632877  0.32597333  0.49911062  1
  Te  Te212  1  0.66498009  0.33412260  0.83508160  1
  Te  Te213  1  0.66702038  0.66243860  0.15849775  1
  Te  Te214  1  0.66209144  0.66556699  0.50398200  1
  Te  Te215  1  0.66601211  0.66923046  0.83207816  1
