# generated using pymatgen
data_AgSbTe2
_symmetry_space_group_name_H-M   'P 1'
_cell_length_a   18.33840663
_cell_length_b   18.34066506
_cell_length_c   18.33987897
_cell_angle_alpha   90.00008591
_cell_angle_beta   90.00129586
_cell_angle_gamma   90.00442159
_symmetry_Int_Tables_number   1
_chemical_formula_structural   AgSbTe2
_chemical_formula_sum   'Ag54 Sb54 Te108'
_cell_volume   6168.40871599
_cell_formula_units_Z   54
loop_
 _symmetry_equiv_pos_site_id
 _symmetry_equiv_pos_as_xyz
  1  'x, y, z'
loop_
 _atom_site_type_symbol
 _atom_site_label
 _atom_site_symmetry_multiplicity
 _atom_site_fract_x
 _atom_site_fract_y
 _atom_site_fract_z
 _atom_site_occupancy
  Ag  Ag0  1  0.49957955  0.82669793  0.00371709  1
  Ag  Ag1  1  -0.00319154  0.00144300  0.65914497  1
  Ag  Ag2  1  0.34043464  0.83578428  0.16869700  1
  Ag  Ag3  1  0.66124110  0.66294812  -0.00516749  1
  Ag  Ag4  1  0.34063651  0.00342552  0.33252212  1
  Ag  Ag5  1  0.83253541  0.84180829  0.66310668  1
  Ag  Ag6  1  0.83054101  0.65638241  0.16466823  1
  Ag  Ag7  1  -0.00312139  0.83473792  0.84023459  1
  Ag  Ag8  1  0.50001360  0.33131780  0.49829809  1
  Ag  Ag9  1  -0.00128519  0.83563364  0.16619227  1
  Ag  Ag10  1  0.17230644  0.50072295  -0.00409431  1
  Ag  Ag11  1  0.50501087  0.17199840  0.66285164  1
  Ag  Ag12  1  0.50434070  0.33361423  0.82957389  1
  Ag  Ag13  1  0.82897014  0.00667459  0.49803523  1
  Ag  Ag14  1  0.66316087  0.17827931  0.82595541  1
  Ag  Ag15  1  0.66423296  0.16961585  0.50124544  1
  Ag  Ag16  1  0.66759688  0.33273909  0.32399169  1
  Ag  Ag17  1  0.00005341  0.00736710  0.33669981  1
  Ag  Ag18  1  0.34414928  0.16979602  0.49398349  1
  Ag  Ag19  1  0.34408243  0.16443390  0.17459449  1
  Ag  Ag20  1  0.49957155  0.00772112  0.83373793  1
  Ag  Ag21  1  0.16824157  0.66395700  0.83523998  1
  Ag  Ag22  1  0.33678592  0.67026011  0.32713412  1
  Ag  Ag23  1  0.83547550  0.16906367  0.33801734  1
  Ag  Ag24  1  0.34425684  0.66492686  0.00472297  1
  Ag  Ag25  1  0.16823928  0.33239314  0.17663370  1
  Ag  Ag26  1  0.16440094  0.17013194  0.33515360  1
  Ag  Ag27  1  0.50182073  0.49078143  0.67218815  1
  Ag  Ag28  1  0.50306829  0.83267377  0.32652140  1
  Ag  Ag29  1  0.66640353  0.49717765  0.83981854  1
  Ag  Ag30  1  0.82251169  0.66027881  0.83714274  1
  Ag  Ag31  1  0.50259633  0.50007265  -0.00269077  1
  Ag  Ag32  1  0.17142261  0.00047600  0.83258242  1
  Ag  Ag33  1  0.49806581  0.01033783  0.17272305  1
  Ag  Ag34  1  0.82386300  0.33968809  0.83682519  1
  Ag  Ag35  1  0.17408789  0.49778138  0.67514724  1
  Ag  Ag36  1  0.33881672  0.49015748  0.49654549  1
  Ag  Ag37  1  -0.01113195  0.32535659  0.33354848  1
  Ag  Ag38  1  0.66573323  0.49722433  0.15877511  1
  Ag  Ag39  1  0.66597530  0.33347454  0.67411742  1
  Ag  Ag40  1  0.50569209  0.65941338  0.83758866  1
  Ag  Ag41  1  0.66564215  0.65320501  0.67565818  1
  Ag  Ag42  1  0.82385735  0.48717599  0.32740262  1
  Ag  Ag43  1  0.82151278  0.50075404  0.00746315  1
  Ag  Ag44  1  0.50392748  0.49886737  0.33055190  1
  Ag  Ag45  1  0.82913679  0.83566576  0.33258717  1
  Ag  Ag46  1  0.50201420  0.17125368  0.00410576  1
  Ag  Ag47  1  0.82405426  0.16524854  0.65598451  1
  Ag  Ag48  1  -0.01076922  0.16648418  0.49648506  1
  Ag  Ag49  1  0.82321636  0.33694353  0.17227826  1
  Ag  Ag50  1  0.66231771  0.17754110  0.16967045  1
  Ag  Ag51  1  0.50217438  0.00967759  0.49556184  1
  Ag  Ag52  1  0.17674776  0.33011026  0.49310757  1
  Ag  Ag53  1  0.50614632  0.32760859  0.16867590  1
  Sb  Sb54  1  -0.00699011  0.49936828  0.16698924  1
  Sb  Sb55  1  0.66255105  -0.00316193  -0.00080206  1
  Sb  Sb56  1  0.66792806  0.82847708  0.83175519  1
  Sb  Sb57  1  -0.00650324  0.16322885  0.82781239  1
  Sb  Sb58  1  0.50289273  0.17053823  0.33422391  1
  Sb  Sb59  1  -0.00198434  0.84121859  0.49770233  1
  Sb  Sb60  1  0.82824120  0.49688741  0.66506854  1
  Sb  Sb61  1  0.33853691  0.33027234  0.33437679  1
  Sb  Sb62  1  0.66465824  0.00904056  0.33299165  1
  Sb  Sb63  1  0.33468908  0.83128368  0.83745479  1
  Sb  Sb64  1  0.33823894  0.66368317  0.66876989  1
  Sb  Sb65  1  0.17620599  0.17076161  0.00398140  1
  Sb  Sb66  1  0.17032370  0.65700600  0.50341523  1
  Sb  Sb67  1  0.00225813  0.49051311  0.49727611  1
  Sb  Sb68  1  0.82947130  -0.00045399  0.82756409  1
  Sb  Sb69  1  0.34343190  0.16520144  0.83364825  1
  Sb  Sb70  1  0.33678803  0.83633011  0.49160482  1
  Sb  Sb71  1  0.34334541  0.33373741  0.66340519  1
  Sb  Sb72  1  -0.00189202  0.66541871  -0.00065557  1
  Sb  Sb73  1  0.82885636  0.82683041  0.00177768  1
  Sb  Sb74  1  0.17067107  0.82953610  0.00023105  1
  Sb  Sb75  1  0.16664426  0.83802744  0.33158709  1
  Sb  Sb76  1  0.16101530  0.83212194  0.67044016  1
  Sb  Sb77  1  0.34240539  0.50094144  0.83241771  1
  Sb  Sb78  1  0.50395198  0.66452671  0.16130642  1
  Sb  Sb79  1  -0.00288686  0.16585963  0.17319008  1
  Sb  Sb80  1  0.83086190  0.67022759  0.49914225  1
  Sb  Sb81  1  0.33927523  -0.00272761  0.00511160  1
  Sb  Sb82  1  0.00097341  -0.00023373  0.00168100  1
  Sb  Sb83  1  0.50050246  0.66218689  0.50184457  1
  Sb  Sb84  1  0.33890967  0.33769567  0.00284025  1
  Sb  Sb85  1  -0.00048713  0.66811690  0.33197203  1
  Sb  Sb86  1  0.33302420  0.00178410  0.66192992  1
  Sb  Sb87  1  0.82773724  0.00382435  0.17260424  1
  Sb  Sb88  1  -0.00479181  0.50196439  0.83339588  1
  Sb  Sb89  1  0.66586080  0.83954732  0.49991392  1
  Sb  Sb90  1  0.17057954  0.49342582  0.33125973  1
  Sb  Sb91  1  0.16567545  0.33596703  0.83156222  1
  Sb  Sb92  1  0.82375477  0.17354925  0.00194589  1
  Sb  Sb93  1  0.66735563  0.00756903  0.66701607  1
  Sb  Sb94  1  0.66093057  0.49201936  0.50035498  1
  Sb  Sb95  1  -0.00641196  0.32986907  0.66202069  1
  Sb  Sb96  1  0.66242590  0.33988484  0.00046076  1
  Sb  Sb97  1  0.34150280  0.49784611  0.16869925  1
  Sb  Sb98  1  0.16759983  0.00750876  0.49998713  1
  Sb  Sb99  1  0.16865773  0.17070942  0.66272729  1
  Sb  Sb100  1  0.50593737  0.83511668  0.66756243  1
  Sb  Sb101  1  -0.00533986  0.66930153  0.66966751  1
  Sb  Sb102  1  0.17060592  0.00360449  0.16600116  1
  Sb  Sb103  1  -0.00069911  0.33309671  0.00587356  1
  Sb  Sb104  1  0.82569068  0.32715374  0.49603507  1
  Sb  Sb105  1  0.66507748  0.65938323  0.33320625  1
  Sb  Sb106  1  0.16550712  0.66107566  0.16429812  1
  Sb  Sb107  1  0.66452269  0.83221941  0.16896314  1
  Te  Te108  1  0.16682156  0.17149946  0.16842296  1
  Te  Te109  1  0.17052567  0.17117070  0.49825640  1
  Te  Te110  1  0.16820901  0.16429910  0.83410016  1
  Te  Te111  1  0.16565365  0.49405372  0.16248739  1
  Te  Te112  1  0.17167518  0.49141582  0.50036703  1
  Te  Te113  1  0.16553727  0.50130890  0.83318473  1
  Te  Te114  1  0.16469698  0.83247396  0.16621512  1
  Te  Te115  1  0.16736787  0.83057430  0.50032472  1
  Te  Te116  1  0.16351642  0.83375575  0.83456141  1
  Te  Te117  1  0.50112030  0.16758932  0.16903707  1
  Te  Te118  1  0.50229642  0.16815756  0.49931156  1
  Te  Te119  1  0.50198555  0.16822810  0.83139349  1
  Te  Te120  1  0.50502572  0.49812356  0.16736643  1
  Te  Te121  1  0.49619153  0.49763488  0.49972081  1
  Te  Te122  1  0.50208871  0.49827010  0.83278981  1
  Te  Te123  1  0.49840404  0.83032673  0.16665657  1
  Te  Te124  1  0.49997784  0.83857424  0.49651011  1
  Te  Te125  1  0.49969787  0.83446736  0.83657747  1
  Te  Te126  1  0.82753267  0.17212627  0.16820350  1
  Te  Te127  1  0.83026008  0.16721838  0.49916685  1
  Te  Te128  1  0.82619939  0.16926662  0.83539956  1
  Te  Te129  1  0.83129476  0.49911579  0.16798494  1
  Te  Te130  1  0.83481190  0.50133379  0.49389495  1
  Te  Te131  1  0.82958395  0.49980878  0.83097990  1
  Te  Te132  1  0.83399570  0.83648702  0.17017750  1
  Te  Te133  1  0.83317408  0.83849568  0.49867656  1
  Te  Te134  1  0.83712495  0.83106522  0.83337948  1
  Te  Te135  1  0.16840850  0.00052935  -0.00769783  1
  Te  Te136  1  0.16332235  0.00687686  0.33207352  1
  Te  Te137  1  0.16245500  0.00025630  0.67174823  1
  Te  Te138  1  0.16717250  0.33927058  0.00048396  1
  Te  Te139  1  0.16805899  0.33026726  0.33433632  1
  Te  Te140  1  0.16271857  0.33945782  0.66520216  1
  Te  Te141  1  0.16596639  0.66181941  -0.00354861  1
  Te  Te142  1  0.17220062  0.66598422  0.33429799  1
  Te  Te143  1  0.16781711  0.66065532  0.67198671  1
  Te  Te144  1  0.49882787  0.00211858  -0.00200137  1
  Te  Te145  1  0.49965897  -0.00423351  0.33309193  1
  Te  Te146  1  0.49955390  0.00225458  0.66617862  1
  Te  Te147  1  0.49828843  0.33387311  0.00390303  1
  Te  Te148  1  0.50439729  0.33740815  0.33181267  1
  Te  Te149  1  0.50413869  0.33224169  0.66743874  1
  Te  Te150  1  0.50097595  0.66333363  -0.00138070  1
  Te  Te151  1  0.49721011  0.66728552  0.33567597  1
  Te  Te152  1  0.50472575  0.66805391  0.67162738  1
  Te  Te153  1  0.83391539  -0.00029511  0.00204752  1
  Te  Te154  1  0.83176494  -0.00146278  0.33713362  1
  Te  Te155  1  0.83507620  0.00237686  0.66338022  1
  Te  Te156  1  0.83675121  0.33979466  -0.00108111  1
  Te  Te157  1  0.83097888  0.33117904  0.33228930  1
  Te  Te158  1  0.82774041  0.32853547  0.66989102  1
  Te  Te159  1  0.83153826  0.66144648  -0.00015616  1
  Te  Te160  1  0.83342271  0.67276427  0.33015871  1
  Te  Te161  1  0.82727703  0.66607516  0.66935653  1
  Te  Te162  1  0.00228261  0.16599455  -0.00246546  1
  Te  Te163  1  -0.00198558  0.16612785  0.33316283  1
  Te  Te164  1  -0.00132629  0.16165504  0.66185615  1
  Te  Te165  1  0.00526179  0.49912348  -0.00037911  1
  Te  Te166  1  -0.00481364  0.49902059  0.33344047  1
  Te  Te167  1  0.00401962  0.49955896  0.66496586  1
  Te  Te168  1  0.00025805  0.83289972  0.00091636  1
  Te  Te169  1  -0.00231394  0.83528034  0.32976570  1
  Te  Te170  1  -0.00650710  0.83847644  0.66665951  1
  Te  Te171  1  0.34198190  0.16588284  0.00535809  1
  Te  Te172  1  0.33051579  0.16546173  0.33284956  1
  Te  Te173  1  0.33857491  0.16598167  0.66086779  1
  Te  Te174  1  0.33627097  0.50566642  0.00035728  1
  Te  Te175  1  0.33765779  0.50250422  0.33665170  1
  Te  Te176  1  0.33645173  0.50067529  0.66236994  1
  Te  Te177  1  0.33836852  0.82878355  0.00512207  1
  Te  Te178  1  0.33412781  0.83449715  0.32724202  1
  Te  Te179  1  0.33257452  0.83283261  0.66536774  1
  Te  Te180  1  0.66000220  0.16164498  0.00366032  1
  Te  Te181  1  0.67197574  0.17181452  0.33193424  1
  Te  Te182  1  0.66521682  0.16873497  0.66794718  1
  Te  Te183  1  0.66559069  0.50336394  -0.00101108  1
  Te  Te184  1  0.66501943  0.49535782  0.33409940  1
  Te  Te185  1  0.66262862  0.49498261  0.66636891  1
  Te  Te186  1  0.66023593  0.82579911  0.00095601  1
  Te  Te187  1  0.66668245  0.82882282  0.33432688  1
  Te  Te188  1  0.67460626  0.83081317  0.66576342  1
  Te  Te189  1  0.00001498  -0.00406917  0.17122504  1
  Te  Te190  1  0.00036797  0.00592501  0.49871254  1
  Te  Te191  1  -0.00147947  -0.00410153  0.83301849  1
  Te  Te192  1  0.00281787  0.33332766  0.17433086  1
  Te  Te193  1  0.00246636  0.32633187  0.49453482  1
  Te  Te194  1  -0.00549004  0.33243491  0.83226276  1
  Te  Te195  1  -0.00541742  0.67200782  0.16688233  1
  Te  Te196  1  0.00123415  0.66632571  0.50167097  1
  Te  Te197  1  0.00434611  0.67068030  0.83214580  1
  Te  Te198  1  0.33666851  0.00016573  0.17100393  1
  Te  Te199  1  0.33608056  0.00422969  0.49391327  1
  Te  Te200  1  0.33442359  -0.00103288  0.83152402  1
  Te  Te201  1  0.33199976  0.33005243  0.16670907  1
  Te  Te202  1  0.33738943  0.33234125  0.49959034  1
  Te  Te203  1  0.33943144  0.33240220  0.83358139  1
  Te  Te204  1  0.33143702  0.66702694  0.16679438  1
  Te  Te205  1  0.33388285  0.66674186  0.49556991  1
  Te  Te206  1  0.33159097  0.66693233  0.83749661  1
  Te  Te207  1  0.65786947  0.00291758  0.16594684  1
  Te  Te208  1  0.66550643  0.00657515  0.50011183  1
  Te  Te209  1  0.65977671  0.00278410  0.83361231  1
  Te  Te210  1  0.66624640  0.33580034  0.16407211  1
  Te  Te211  1  0.66036369  0.32896784  0.50089803  1
  Te  Te212  1  0.66554695  0.33492566  0.83662571  1
  Te  Te213  1  0.67260361  0.66244228  0.16601830  1
  Te  Te214  1  0.66660951  0.66723734  0.50645552  1
  Te  Te215  1  0.66597401  0.66597921  0.83287940  1
