# generated using pymatgen
data_AgSbTe2
_symmetry_space_group_name_H-M   'P 1'
_cell_length_a   18.33987891
_cell_length_b   18.33732178
_cell_length_c   18.34554119
_cell_angle_alpha   89.99826682
_cell_angle_beta   89.99898598
_cell_angle_gamma   89.99957123
_symmetry_Int_Tables_number   1
_chemical_formula_structural   AgSbTe2
_chemical_formula_sum   'Ag54 Sb54 Te108'
_cell_volume   6169.68366830
_cell_formula_units_Z   54
loop_
 _symmetry_equiv_pos_site_id
 _symmetry_equiv_pos_as_xyz
  1  'x, y, z'
loop_
 _atom_site_type_symbol
 _atom_site_label
 _atom_site_symmetry_multiplicity
 _atom_site_fract_x
 _atom_site_fract_y
 _atom_site_fract_z
 _atom_site_occupancy
  Ag  Ag0  1  0.00193936  0.82766076  0.15494316  1
  Ag  Ag1  1  0.67413540  0.16794615  0.83373899  1
  Ag  Ag2  1  -0.00717343  0.83615463  0.83821273  1
  Ag  Ag3  1  0.66981876  0.33945024  0.32933669  1
  Ag  Ag4  1  0.50045425  0.83048318  -0.00069606  1
  Ag  Ag5  1  0.66484031  0.50402113  0.49705448  1
  Ag  Ag6  1  -0.00049297  0.00080195  0.67461247  1
  Ag  Ag7  1  0.15479328  -0.00227438  0.83123450  1
  Ag  Ag8  1  0.83584523  -0.00301839  0.15693717  1
  Ag  Ag9  1  0.16141433  0.82987808  0.32164573  1
  Ag  Ag10  1  0.83213963  0.66512073  0.83716241  1
  Ag  Ag11  1  0.50737977  0.66539429  0.49942357  1
  Ag  Ag12  1  0.15092124  0.16269654  0.66803883  1
  Ag  Ag13  1  0.82930462  0.49499029  0.33895978  1
  Ag  Ag14  1  -0.00745688  0.67218392  0.67879490  1
  Ag  Ag15  1  0.67615553  0.82459205  0.83260045  1
  Ag  Ag16  1  -0.00785549  0.67403169  -0.00172180  1
  Ag  Ag17  1  0.83081316  0.17055218  -0.00763774  1
  Ag  Ag18  1  0.33280378  0.50063815  0.82782086  1
  Ag  Ag19  1  0.83955438  0.01403756  0.83675153  1
  Ag  Ag20  1  0.32099710  0.83060721  0.16556954  1
  Ag  Ag21  1  0.16142926  0.33722980  0.16602725  1
  Ag  Ag22  1  0.15547152  0.67183484  0.16681633  1
  Ag  Ag23  1  0.50250586  0.00750096  0.50070516  1
  Ag  Ag24  1  0.83342660  0.49694443  0.66765345  1
  Ag  Ag25  1  -0.00607435  0.16749979  0.51053322  1
  Ag  Ag26  1  0.15670478  0.83235452  0.00054344  1
  Ag  Ag27  1  0.34225431  0.49582544  0.50280782  1
  Ag  Ag28  1  0.50041671  0.33682155  0.16387224  1
  Ag  Ag29  1  0.67113145  0.66733308  0.67197191  1
  Ag  Ag30  1  0.51233422  0.33407668  0.84108623  1
  Ag  Ag31  1  0.83726075  0.66908814  0.15886145  1
  Ag  Ag32  1  -0.00911025  0.33081527  -0.00085101  1
  Ag  Ag33  1  0.83273279  0.32926830  0.83450728  1
  Ag  Ag34  1  0.50555448  0.16686749  0.66692647  1
  Ag  Ag35  1  0.83331542  0.33282908  0.49768439  1
  Ag  Ag36  1  -0.00402463  -0.00798125  -0.00894181  1
  Ag  Ag37  1  -0.00556078  0.50390017  0.83267704  1
  Ag  Ag38  1  0.50656916  0.66509187  0.16450584  1
  Ag  Ag39  1  -0.01026843  0.33737607  0.32647800  1
  Ag  Ag40  1  0.16040809  0.83588389  0.67540917  1
  Ag  Ag41  1  0.83326635  0.17198719  0.67603466  1
  Ag  Ag42  1  0.83063679  0.17471126  0.33279341  1
  Ag  Ag43  1  0.66939634  0.33499170  -0.00135387  1
  Ag  Ag44  1  -0.01313963  0.15053046  0.82868274  1
  Ag  Ag45  1  0.67104841  0.66370846  -0.00613527  1
  Ag  Ag46  1  0.51009006  0.17505116  0.33646122  1
  Ag  Ag47  1  0.50857052  0.16803755  -0.00795432  1
  Ag  Ag48  1  0.33945872  0.17223377  0.50103676  1
  Ag  Ag49  1  0.51137886  0.66229767  0.83586440  1
  Ag  Ag50  1  -0.00920722  0.66309584  0.32680341  1
  Ag  Ag51  1  0.67022628  0.66083839  0.33840705  1
  Ag  Ag52  1  0.50909776  0.49733771  0.33628093  1
  Ag  Ag53  1  0.66494294  0.82235234  0.50654809  1
  Sb  Sb54  1  0.50041311  0.82991940  0.33066598  1
  Sb  Sb55  1  0.15793038  0.33132634  0.83729345  1
  Sb  Sb56  1  0.15669844  0.67025621  0.83678170  1
  Sb  Sb57  1  0.66732538  0.00071861  0.33550957  1
  Sb  Sb58  1  0.67308706  -0.00050338  -0.00178532  1
  Sb  Sb59  1  0.33585459  0.50322089  0.16693249  1
  Sb  Sb60  1  0.67132521  0.50178222  0.82882863  1
  Sb  Sb61  1  0.33491931  0.66577713  0.66832556  1
  Sb  Sb62  1  -0.00439435  0.33020019  0.67113289  1
  Sb  Sb63  1  0.33705003  0.16514358  0.17008073  1
  Sb  Sb64  1  -0.00228290  0.50411325  0.16255537  1
  Sb  Sb65  1  0.50259373  0.50094520  0.00180993  1
  Sb  Sb66  1  0.83366369  0.83481417  -0.00324218  1
  Sb  Sb67  1  0.50561960  -0.00163774  0.16697059  1
  Sb  Sb68  1  0.33106352  0.82862580  0.83677329  1
  Sb  Sb69  1  0.16753041  0.66764136  0.49813273  1
  Sb  Sb70  1  -0.00359337  0.83435574  0.50359822  1
  Sb  Sb71  1  0.66849412  0.50186854  0.17305518  1
  Sb  Sb72  1  0.33691638  0.33419646  0.33415726  1
  Sb  Sb73  1  0.33553049  0.33263338  0.66657825  1
  Sb  Sb74  1  0.66969057  0.33535099  0.66816518  1
  Sb  Sb75  1  0.15982395  0.50007936  0.66722711  1
  Sb  Sb76  1  0.33631179  0.66785874  -0.00069770  1
  Sb  Sb77  1  -0.00470810  0.49725607  0.50256308  1
  Sb  Sb78  1  0.82744502  0.66203987  0.50220309  1
  Sb  Sb79  1  0.15987340  -0.00407565  0.16221257  1
  Sb  Sb80  1  0.67144233  -0.00164056  0.66791305  1
  Sb  Sb81  1  0.33566223  0.17087285  0.82959441  1
  Sb  Sb82  1  0.16818599  0.00046836  0.50339076  1
  Sb  Sb83  1  0.83540442  0.83194505  0.66988254  1
  Sb  Sb84  1  0.49927428  0.83428992  0.66881724  1
  Sb  Sb85  1  0.66864654  0.16796382  0.16234537  1
  Sb  Sb86  1  0.83113454  0.33644021  0.16561819  1
  Sb  Sb87  1  0.16349580  0.50390145  -0.00017116  1
  Sb  Sb88  1  0.83488727  0.82961776  0.33276153  1
  Sb  Sb89  1  0.33652779  0.33244467  -0.00159983  1
  Sb  Sb90  1  0.16347131  0.50264575  0.33303056  1
  Sb  Sb91  1  0.83161384  0.00682258  0.50359567  1
  Sb  Sb92  1  0.50563133  0.49924207  0.66523501  1
  Sb  Sb93  1  0.50602614  0.33422508  0.49921990  1
  Sb  Sb94  1  -0.00219635  -0.00040392  0.33284699  1
  Sb  Sb95  1  0.33691591  0.66528299  0.33186900  1
  Sb  Sb96  1  0.83419463  0.49868002  -0.00243934  1
  Sb  Sb97  1  0.16339025  0.16651990  0.33601284  1
  Sb  Sb98  1  0.15994746  0.33176888  0.49793072  1
  Sb  Sb99  1  0.15890823  0.16390611  -0.00418277  1
  Sb  Sb100  1  0.33746008  0.83292311  0.49691384  1
  Sb  Sb101  1  0.32939089  0.00257786  0.66714615  1
  Sb  Sb102  1  0.67036545  0.82689316  0.16269873  1
  Sb  Sb103  1  0.32979248  -0.00113877  -0.00031109  1
  Sb  Sb104  1  0.66924988  0.16894778  0.50364671  1
  Sb  Sb105  1  -0.00395357  0.16575010  0.16329298  1
  Sb  Sb106  1  0.33469017  -0.00054117  0.33432266  1
  Sb  Sb107  1  0.50357319  0.00154383  0.83139468  1
  Te  Te108  1  0.16860439  0.16912783  0.16584287  1
  Te  Te109  1  0.16571157  0.16668561  0.50568316  1
  Te  Te110  1  0.16780742  0.16390242  0.82833886  1
  Te  Te111  1  0.16867265  0.49890570  0.16712557  1
  Te  Te112  1  0.17558151  0.50001541  0.50118543  1
  Te  Te113  1  0.16844734  0.50022540  0.83183700  1
  Te  Te114  1  0.16277906  0.83313570  0.16353845  1
  Te  Te115  1  0.16832803  0.83352638  0.50046635  1
  Te  Te116  1  0.16574573  0.83480252  0.83551595  1
  Te  Te117  1  0.50064803  0.16742870  0.17046983  1
  Te  Te118  1  0.50158870  0.16700574  0.50063601  1
  Te  Te119  1  0.50074470  0.16905466  0.83356827  1
  Te  Te120  1  0.49770333  0.50151350  0.17102102  1
  Te  Te121  1  0.50156379  0.50210919  0.49922217  1
  Te  Te122  1  0.50062137  0.49929035  0.83266241  1
  Te  Te123  1  0.50280316  0.83173606  0.16202810  1
  Te  Te124  1  0.50379877  0.82891563  0.49971654  1
  Te  Te125  1  0.49926498  0.83272264  0.83741874  1
  Te  Te126  1  0.83372145  0.16490054  0.17209345  1
  Te  Te127  1  0.83585726  0.17156737  0.49501026  1
  Te  Te128  1  0.83286510  0.17030219  0.83548181  1
  Te  Te129  1  0.83436302  0.50940405  0.17456095  1
  Te  Te130  1  0.83221548  0.49315891  0.50088944  1
  Te  Te131  1  0.83629866  0.50574423  0.83118728  1
  Te  Te132  1  0.83969364  0.83126575  0.16780146  1
  Te  Te133  1  0.82529270  0.83812007  0.50070547  1
  Te  Te134  1  0.83420721  0.82435215  0.83141452  1
  Te  Te135  1  0.16132472  -0.00365361  -0.00516326  1
  Te  Te136  1  0.16673370  -0.00684127  0.33294254  1
  Te  Te137  1  0.16306202  0.00074340  0.66834877  1
  Te  Te138  1  0.16589477  0.33264047  0.00541937  1
  Te  Te139  1  0.16296461  0.33340780  0.32717853  1
  Te  Te140  1  0.16675650  0.32795369  0.66754668  1
  Te  Te141  1  0.16313917  0.67122858  0.00455599  1
  Te  Te142  1  0.16342655  0.66934852  0.32996837  1
  Te  Te143  1  0.16243043  0.66950433  0.66722653  1
  Te  Te144  1  0.50065140  0.00147719  0.00118256  1
  Te  Te145  1  0.50059245  0.00382163  0.33712971  1
  Te  Te146  1  0.50040362  0.00250684  0.66332597  1
  Te  Te147  1  0.50324246  0.33137483  0.00096779  1
  Te  Te148  1  0.50316330  0.33453217  0.33167468  1
  Te  Te149  1  0.50247670  0.32956678  0.67264265  1
  Te  Te150  1  0.50323523  0.66745494  -0.00024249  1
  Te  Te151  1  0.50446170  0.66564673  0.33149602  1
  Te  Te152  1  0.50375971  0.66700605  0.66879383  1
  Te  Te153  1  0.83628505  0.00375557  -0.00164975  1
  Te  Te154  1  0.83269650  0.00577979  0.33453186  1
  Te  Te155  1  0.83877276  0.00493655  0.67185883  1
  Te  Te156  1  0.83029182  0.33280750  -0.00108469  1
  Te  Te157  1  0.83141813  0.33528487  0.32698650  1
  Te  Te158  1  0.83370797  0.33383873  0.67123836  1
  Te  Te159  1  0.83197800  0.66468783  0.00091290  1
  Te  Te160  1  0.83140844  0.66404331  0.33638338  1
  Te  Te161  1  0.83259973  0.66595056  0.66680078  1
  Te  Te162  1  -0.00376465  0.17038244  -0.00381852  1
  Te  Te163  1  -0.00286054  0.16952486  0.33204087  1
  Te  Te164  1  -0.00472334  0.16843372  0.66874131  1
  Te  Te165  1  -0.00006348  0.49488463  -0.00587058  1
  Te  Te166  1  -0.00306707  0.49996216  0.33530022  1
  Te  Te167  1  -0.00505307  0.50507304  0.66943766  1
  Te  Te168  1  -0.00296581  0.83284507  -0.00233212  1
  Te  Te169  1  0.00134225  0.82927565  0.33615015  1
  Te  Te170  1  0.00192878  0.83152038  0.66645087  1
  Te  Te171  1  0.34169345  0.16559465  0.00170832  1
  Te  Te172  1  0.33375016  0.16646175  0.33991019  1
  Te  Te173  1  0.34330103  0.16702402  0.66101432  1
  Te  Te174  1  0.33158129  0.49981257  -0.00634942  1
  Te  Te175  1  0.33618174  0.49993399  0.33726671  1
  Te  Te176  1  0.33112497  0.49996118  0.66583059  1
  Te  Te177  1  0.33808320  0.83396516  0.00515406  1
  Te  Te178  1  0.32904274  0.83266297  0.32811329  1
  Te  Te179  1  0.32383191  0.83380576  0.66596951  1
  Te  Te180  1  0.66841647  0.16602859  -0.00345152  1
  Te  Te181  1  0.66728293  0.16904883  0.33373781  1
  Te  Te182  1  0.66882988  0.16645889  0.67221807  1
  Te  Te183  1  0.66706601  0.49994385  0.00076398  1
  Te  Te184  1  0.66704536  0.49932258  0.33486311  1
  Te  Te185  1  0.67202278  0.50423059  0.65936211  1
  Te  Te186  1  0.66318590  0.82933448  -0.00562004  1
  Te  Te187  1  0.66606224  0.82905833  0.33392296  1
  Te  Te188  1  0.66479342  0.82876067  0.67057879  1
  Te  Te189  1  -0.00546176  -0.00509845  0.16601981  1
  Te  Te190  1  0.00026246  0.00611884  0.50222742  1
  Te  Te191  1  -0.00066290  -0.00358071  0.83222206  1
  Te  Te192  1  0.00157266  0.33342488  0.16494590  1
  Te  Te193  1  -0.00507304  0.32965409  0.49585603  1
  Te  Te194  1  -0.00412309  0.33979036  0.83809739  1
  Te  Te195  1  -0.00142688  0.66653487  0.16607468  1
  Te  Te196  1  0.00165056  0.66620776  0.49612874  1
  Te  Te197  1  -0.00313993  0.66755382  0.83628723  1
  Te  Te198  1  0.33281401  -0.00781502  0.16720902  1
  Te  Te199  1  0.34062476  0.00335269  0.50048594  1
  Te  Te200  1  0.33057229  -0.00088746  0.83390087  1
  Te  Te201  1  0.33823000  0.33256938  0.16673172  1
  Te  Te202  1  0.33146269  0.33309484  0.49957506  1
  Te  Te203  1  0.33503612  0.33973372  0.83359407  1
  Te  Te204  1  0.33590354  0.67067192  0.16543913  1
  Te  Te205  1  0.33998654  0.66385981  0.50030658  1
  Te  Te206  1  0.34152860  0.66069373  0.83354557  1
  Te  Te207  1  0.67647792  -0.00212730  0.16791561  1
  Te  Te208  1  0.66136151  -0.00413653  0.50164711  1
  Te  Te209  1  0.67212718  -0.00077523  0.83222601  1
  Te  Te210  1  0.66095295  0.33298319  0.16396638  1
  Te  Te211  1  0.67264756  0.33717974  0.49692459  1
  Te  Te212  1  0.66972997  0.33313967  0.83517390  1
  Te  Te213  1  0.66601570  0.66695667  0.16296410  1
  Te  Te214  1  0.66674363  0.66512912  0.49810760  1
  Te  Te215  1  0.66842347  0.66520111  0.83281271  1
