# generated using pymatgen
data_AgSbTe2
_symmetry_space_group_name_H-M   'P 1'
_cell_length_a   18.31172602
_cell_length_b   18.31009247
_cell_length_c   18.31491032
_cell_angle_alpha   89.99998128
_cell_angle_beta   90.00105008
_cell_angle_gamma   90.00007121
_symmetry_Int_Tables_number   1
_chemical_formula_structural   AgSbTe2
_chemical_formula_sum   'Ag54 Sb54 Te108'
_cell_volume   6140.79523020
_cell_formula_units_Z   54
loop_
 _symmetry_equiv_pos_site_id
 _symmetry_equiv_pos_as_xyz
  1  'x, y, z'
loop_
 _atom_site_type_symbol
 _atom_site_label
 _atom_site_symmetry_multiplicity
 _atom_site_fract_x
 _atom_site_fract_y
 _atom_site_fract_z
 _atom_site_occupancy
  Ag  Ag0  1  0.33068541  0.83702042  0.16622876  1
  Ag  Ag1  1  0.32976530  0.15658850  0.82689625  1
  Ag  Ag2  1  0.00132384  0.66722198  0.66574003  1
  Ag  Ag3  1  -0.00575565  0.66776871  0.34283877  1
  Ag  Ag4  1  0.67347389  0.50172207  0.83596718  1
  Ag  Ag5  1  0.66854963  0.00005187  -0.00147431  1
  Ag  Ag6  1  0.66656869  -0.00051893  0.66676914  1
  Ag  Ag7  1  0.32922874  0.15985658  0.50235500  1
  Ag  Ag8  1  0.83575248  0.00291504  0.16995453  1
  Ag  Ag9  1  0.66692009  0.49301797  0.16757311  1
  Ag  Ag10  1  0.51014040  0.33490739  0.17573557  1
  Ag  Ag11  1  0.15663158  0.32822483  0.49598353  1
  Ag  Ag12  1  0.50417658  0.50220732  0.33117947  1
  Ag  Ag13  1  -0.00858291  0.32491554  0.33867425  1
  Ag  Ag14  1  0.83573279  0.32739912  0.49423173  1
  Ag  Ag15  1  0.00072156  0.16393028  0.82530278  1
  Ag  Ag16  1  0.33419137  0.67761434  -0.00562257  1
  Ag  Ag17  1  0.67047497  0.66936551  0.66062279  1
  Ag  Ag18  1  0.15809844  0.67061181  0.82284172  1
  Ag  Ag19  1  0.66818834  0.17084385  0.16877279  1
  Ag  Ag20  1  -0.00760805  0.51164517  0.83174193  1
  Ag  Ag21  1  0.49911209  0.16541815  -0.00043466  1
  Ag  Ag22  1  0.33739792  -0.00443796  -0.00105398  1
  Ag  Ag23  1  0.50834043  0.32978067  0.49373621  1
  Ag  Ag24  1  0.33459254  0.83883866  0.50351180  1
  Ag  Ag25  1  -0.00450648  0.33279786  0.65706313  1
  Ag  Ag26  1  0.16241609  0.32651489  0.17746207  1
  Ag  Ag27  1  0.00087920  0.17110839  0.49755188  1
  Ag  Ag28  1  0.67158562  0.33573746  0.33375116  1
  Ag  Ag29  1  0.50141738  0.66483707  0.17167957  1
  Ag  Ag30  1  0.33527721  -0.00445599  0.66536830  1
  Ag  Ag31  1  0.15823596  0.16703332  0.33551421  1
  Ag  Ag32  1  0.00075879  0.83083713  0.83350451  1
  Ag  Ag33  1  0.66578751  0.83138978  0.50049033  1
  Ag  Ag34  1  0.67180299  0.33177719  0.65754035  1
  Ag  Ag35  1  0.83281521  0.83333327  -0.00181920  1
  Ag  Ag36  1  0.83846418  0.67119677  0.82800446  1
  Ag  Ag37  1  0.83634608  0.66839393  0.50300140  1
  Ag  Ag38  1  0.67002093  0.66300565  0.33827994  1
  Ag  Ag39  1  0.32384946  0.67763758  0.66862224  1
  Ag  Ag40  1  0.49898391  0.83093799  0.33341653  1
  Ag  Ag41  1  0.15970584  0.66822843  0.50470272  1
  Ag  Ag42  1  0.32854798  -0.00119939  0.33458661  1
  Ag  Ag43  1  0.17079698  0.83101021  0.66634317  1
  Ag  Ag44  1  0.83842148  0.16863244  0.33487182  1
  Ag  Ag45  1  0.32742028  0.83749837  0.82776047  1
  Ag  Ag46  1  0.82999087  0.32624161  0.17558788  1
  Ag  Ag47  1  0.00194813  0.83570139  0.16714068  1
  Ag  Ag48  1  0.83523560  -0.00448637  0.83509914  1
  Ag  Ag49  1  0.16373262  0.00117008  0.17093817  1
  Ag  Ag50  1  0.49876476  0.16722279  0.66718684  1
  Ag  Ag51  1  0.83360477  0.00074984  0.49664384  1
  Ag  Ag52  1  0.83099187  0.50640426  -0.00148375  1
  Ag  Ag53  1  -0.00000975  0.00390925  0.33296819  1
  Sb  Sb54  1  0.66908375  0.83185861  0.82806271  1
  Sb  Sb55  1  0.50231158  0.66594865  0.49610697  1
  Sb  Sb56  1  0.66917648  0.16636712  0.49710580  1
  Sb  Sb57  1  0.33414087  0.50216345  0.49971638  1
  Sb  Sb58  1  0.16964022  0.16400283  0.00447942  1
  Sb  Sb59  1  0.50167876  0.33100218  0.83153265  1
  Sb  Sb60  1  0.50550796  0.49749233  0.00530216  1
  Sb  Sb61  1  0.83675037  0.83199819  0.66922910  1
  Sb  Sb62  1  0.16258990  0.33501930  0.82876810  1
  Sb  Sb63  1  0.66814190  0.32991076  0.00652247  1
  Sb  Sb64  1  0.16556400  0.00020061  0.49542590  1
  Sb  Sb65  1  0.83036652  0.66876118  0.16847639  1
  Sb  Sb66  1  0.33436959  0.32637387  0.33514384  1
  Sb  Sb67  1  0.83223238  0.83635981  0.33206607  1
  Sb  Sb68  1  0.49564038  0.83581756  0.66139827  1
  Sb  Sb69  1  -0.00157778  0.49705578  0.50299102  1
  Sb  Sb70  1  0.33476851  0.67526573  0.33643835  1
  Sb  Sb71  1  -0.00358935  0.16316050  0.17299639  1
  Sb  Sb72  1  0.50131232  0.66736562  0.83432463  1
  Sb  Sb73  1  0.16816090  0.66982427  0.16974981  1
  Sb  Sb74  1  0.82921752  0.49477334  0.32916931  1
  Sb  Sb75  1  0.49985652  0.83656836  0.00520152  1
  Sb  Sb76  1  -0.00026411  0.83379949  0.49980648  1
  Sb  Sb77  1  -0.00076103  -0.00122623  0.66364803  1
  Sb  Sb78  1  0.33603830  0.16041504  0.16917707  1
  Sb  Sb79  1  0.16898745  0.16279267  0.66120136  1
  Sb  Sb80  1  0.16722079  0.83367294  -0.00314069  1
  Sb  Sb81  1  -0.00254683  0.33122913  0.00293179  1
  Sb  Sb82  1  0.83010416  0.16240510  0.00484114  1
  Sb  Sb83  1  0.33261646  0.32872494  0.66299982  1
  Sb  Sb84  1  0.83416344  0.33304236  0.83109766  1
  Sb  Sb85  1  0.66528034  0.67024250  0.00072240  1
  Sb  Sb86  1  0.50053898  0.00032727  0.83302072  1
  Sb  Sb87  1  0.66693402  0.83511528  0.17143057  1
  Sb  Sb88  1  0.50111292  0.16655907  0.33437373  1
  Sb  Sb89  1  0.83267537  0.50222848  0.67152369  1
  Sb  Sb90  1  0.16214823  0.50156531  -0.00029711  1
  Sb  Sb91  1  0.00119700  0.66893226  -0.00506238  1
  Sb  Sb92  1  0.66865622  0.16775991  0.83471602  1
  Sb  Sb93  1  -0.00267502  -0.00136146  0.00405047  1
  Sb  Sb94  1  0.16858229  0.83743434  0.33680627  1
  Sb  Sb95  1  0.16428718  0.50630150  0.66650304  1
  Sb  Sb96  1  0.33280393  0.50469274  0.83282309  1
  Sb  Sb97  1  0.83127230  0.16613203  0.66187821  1
  Sb  Sb98  1  0.66950143  0.00050794  0.33458479  1
  Sb  Sb99  1  0.33895106  0.50447354  0.16740728  1
  Sb  Sb100  1  0.50059841  0.00384726  0.50063529  1
  Sb  Sb101  1  0.50353820  0.49623009  0.66180636  1
  Sb  Sb102  1  0.16507551  -0.00408566  0.83584460  1
  Sb  Sb103  1  0.16774879  0.49538774  0.33327532  1
  Sb  Sb104  1  0.50147939  0.00103771  0.16711401  1
  Sb  Sb105  1  0.66784948  0.50098961  0.49677634  1
  Sb  Sb106  1  -0.00618038  0.50228195  0.16525503  1
  Sb  Sb107  1  0.33542126  0.32937716  0.00227346  1
  Te  Te108  1  0.16611857  0.16626057  0.17179511  1
  Te  Te109  1  0.16552663  0.16713956  0.49630214  1
  Te  Te110  1  0.16735110  0.16673567  0.83305975  1
  Te  Te111  1  0.16623806  0.49408526  0.16590999  1
  Te  Te112  1  0.16781767  0.50050236  0.49914471  1
  Te  Te113  1  0.16138319  0.50617124  0.83435710  1
  Te  Te114  1  0.16593804  0.83703980  0.16688585  1
  Te  Te115  1  0.16968473  0.83032294  0.50375736  1
  Te  Te116  1  0.16682178  0.83000971  0.83113548  1
  Te  Te117  1  0.50329677  0.17068371  0.16480962  1
  Te  Te118  1  0.49678804  0.17091450  0.50264618  1
  Te  Te119  1  0.49605942  0.16714096  0.83267555  1
  Te  Te120  1  0.50518997  0.49805006  0.17020769  1
  Te  Te121  1  0.49952844  0.49029145  0.49337528  1
  Te  Te122  1  0.50703718  0.49900061  0.83489070  1
  Te  Te123  1  0.49758168  0.83003641  0.17133673  1
  Te  Te124  1  0.49932480  0.83384594  0.49485384  1
  Te  Te125  1  0.49099825  0.83274535  0.83474006  1
  Te  Te126  1  0.83116443  0.16513758  0.17003431  1
  Te  Te127  1  0.83628733  0.16621920  0.49658021  1
  Te  Te128  1  0.83785355  0.16276110  0.83355652  1
  Te  Te129  1  0.82801966  0.49943980  0.16042944  1
  Te  Te130  1  0.83329629  0.50516260  0.49855328  1
  Te  Te131  1  0.83346516  0.49968087  0.83776416  1
  Te  Te132  1  0.83559104  0.83713859  0.16266310  1
  Te  Te133  1  0.83062307  0.83325542  0.50026461  1
  Te  Te134  1  0.83411423  0.83368481  0.83572886  1
  Te  Te135  1  0.17366211  -0.00031209  0.00898895  1
  Te  Te136  1  0.16471908  0.00319003  0.33002945  1
  Te  Te137  1  0.17161277  -0.00603430  0.66695358  1
  Te  Te138  1  0.16666733  0.33315280  0.00677952  1
  Te  Te139  1  0.16678789  0.33015628  0.33536814  1
  Te  Te140  1  0.16193608  0.33384033  0.65987325  1
  Te  Te141  1  0.17392775  0.66617536  -0.00131703  1
  Te  Te142  1  0.16244775  0.66516285  0.33950218  1
  Te  Te143  1  0.16427627  0.66854099  0.66497813  1
  Te  Te144  1  0.50096631  0.00412821  -0.00033356  1
  Te  Te145  1  0.49622242  -0.00527512  0.33392203  1
  Te  Te146  1  0.50149303  0.00544276  0.66667215  1
  Te  Te147  1  0.50035690  0.32693659  0.00517356  1
  Te  Te148  1  0.50113938  0.33260986  0.33338984  1
  Te  Te149  1  0.50244541  0.32877238  0.66279706  1
  Te  Te150  1  0.49550656  0.66605405  0.00604775  1
  Te  Te151  1  0.50204983  0.66752732  0.33148050  1
  Te  Te152  1  0.50818755  0.66518101  0.66525489  1
  Te  Te153  1  0.83149868  -0.00230157  0.00083865  1
  Te  Te154  1  0.83527760  0.00278529  0.33337865  1
  Te  Te155  1  0.83013680  -0.00057785  0.66520915  1
  Te  Te156  1  0.83305472  0.33483614  0.00540570  1
  Te  Te157  1  0.83242421  0.33267319  0.33392761  1
  Te  Te158  1  0.83368486  0.33322939  0.66167064  1
  Te  Te159  1  0.83277835  0.66979764  -0.00288983  1
  Te  Te160  1  0.83262955  0.66692024  0.33641405  1
  Te  Te161  1  0.83186424  0.66776362  0.66569776  1
  Te  Te162  1  0.00098262  0.16596400  -0.01116412  1
  Te  Te163  1  -0.00105426  0.16634799  0.33425456  1
  Te  Te164  1  0.00064273  0.16792867  0.66389740  1
  Te  Te165  1  -0.00714829  0.49970280  -0.00606511  1
  Te  Te166  1  0.00035729  0.50483960  0.33132391  1
  Te  Te167  1  -0.00060159  0.50145385  0.67321525  1
  Te  Te168  1  -0.00432888  0.83362037  0.00037973  1
  Te  Te169  1  0.00067088  0.83367224  0.33070732  1
  Te  Te170  1  0.00586680  0.82989857  0.66992679  1
  Te  Te171  1  0.33704133  0.16159003  -0.00290065  1
  Te  Te172  1  0.33113083  0.15924502  0.33790672  1
  Te  Te173  1  0.33547510  0.16363337  0.66545319  1
  Te  Te174  1  0.33431960  0.50544447  -0.00106574  1
  Te  Te175  1  0.34153520  0.50132710  0.33289571  1
  Te  Te176  1  0.33544027  0.50958244  0.66831286  1
  Te  Te177  1  0.33383802  0.83537938  0.00203286  1
  Te  Te178  1  0.33483864  0.83852048  0.33403715  1
  Te  Te179  1  0.33423397  0.83454843  0.66561271  1
  Te  Te180  1  0.66270350  0.16144836  0.00248974  1
  Te  Te181  1  0.67018421  0.16975485  0.32964883  1
  Te  Te182  1  0.66279207  0.16561307  0.66651415  1
  Te  Te183  1  0.67116201  0.50075910  0.00067167  1
  Te  Te184  1  0.66421854  0.50010101  0.32969078  1
  Te  Te185  1  0.66618784  0.50036361  0.67100118  1
  Te  Te186  1  0.67003014  0.83936288  -0.00155889  1
  Te  Te187  1  0.66361327  0.83028968  0.33865285  1
  Te  Te188  1  0.66379277  0.83458187  0.66161257  1
  Te  Te189  1  -0.00190021  -0.00224284  0.17006711  1
  Te  Te190  1  -0.00445739  0.00271875  0.49559459  1
  Te  Te191  1  -0.00343178  -0.00307734  0.83285360  1
  Te  Te192  1  -0.00206657  0.33375894  0.17194180  1
  Te  Te193  1  -0.00241911  0.33305061  0.49876330  1
  Te  Te194  1  0.00092253  0.32842204  0.82961918  1
  Te  Te195  1  0.00061416  0.67200692  0.16953834  1
  Te  Te196  1  -0.00163555  0.66629833  0.50213498  1
  Te  Te197  1  -0.00138497  0.67014285  0.83244904  1
  Te  Te198  1  0.33412392  -0.00350318  0.16713378  1
  Te  Te199  1  0.33264824  -0.00018159  0.50173418  1
  Te  Te200  1  0.33223394  -0.00108152  0.83226061  1
  Te  Te201  1  0.33129089  0.33382812  0.16666484  1
  Te  Te202  1  0.33082758  0.33006613  0.50093429  1
  Te  Te203  1  0.33188189  0.32934485  0.83293228  1
  Te  Te204  1  0.33581796  0.67218079  0.16590362  1
  Te  Te205  1  0.33252978  0.67027503  0.50503575  1
  Te  Te206  1  0.33360756  0.66921030  0.83075839  1
  Te  Te207  1  0.67132141  0.00253158  0.16511689  1
  Te  Te208  1  0.67111069  -0.00249027  0.50329163  1
  Te  Te209  1  0.67237604  0.00011505  0.83073892  1
  Te  Te210  1  0.66862299  0.33247434  0.16842694  1
  Te  Te211  1  0.67006183  0.33371855  0.49822418  1
  Te  Te212  1  0.66757627  0.33715597  0.82696554  1
  Te  Te213  1  0.66255812  0.66609528  0.17019079  1
  Te  Te214  1  0.66859395  0.66777378  0.49897136  1
  Te  Te215  1  0.67069396  0.66440765  0.83152060  1
