# generated using pymatgen
data_AgSbTe2
_symmetry_space_group_name_H-M   'P 1'
_cell_length_a   18.31473456
_cell_length_b   18.31368103
_cell_length_c   18.31237909
_cell_angle_alpha   89.99683113
_cell_angle_beta   90.00158518
_cell_angle_gamma   89.99871673
_symmetry_Int_Tables_number   1
_chemical_formula_structural   AgSbTe2
_chemical_formula_sum   'Ag54 Sb54 Te108'
_cell_volume   6142.15884417
_cell_formula_units_Z   54
loop_
 _symmetry_equiv_pos_site_id
 _symmetry_equiv_pos_as_xyz
  1  'x, y, z'
loop_
 _atom_site_type_symbol
 _atom_site_label
 _atom_site_symmetry_multiplicity
 _atom_site_fract_x
 _atom_site_fract_y
 _atom_site_fract_z
 _atom_site_occupancy
  Ag  Ag0  1  0.33339380  0.32879562  -0.00076123  1
  Ag  Ag1  1  0.33253393  0.00469010  0.00466917  1
  Ag  Ag2  1  0.66070504  0.67012047  0.33078145  1
  Ag  Ag3  1  0.49996477  0.00319910  0.17186242  1
  Ag  Ag4  1  0.82780651  0.00517208  0.49117005  1
  Ag  Ag5  1  0.67138658  0.16084819  0.49725618  1
  Ag  Ag6  1  0.16543008  0.51017220  0.66855258  1
  Ag  Ag7  1  0.83497423  0.16626440  0.65926291  1
  Ag  Ag8  1  0.50349900  0.33325143  0.83844631  1
  Ag  Ag9  1  0.49803733  0.66771786  0.16678663  1
  Ag  Ag10  1  0.16947569  0.16200702  0.00307078  1
  Ag  Ag11  1  -0.00093609  0.17091421  0.16881616  1
  Ag  Ag12  1  0.16949145  0.82915462  0.67920467  1
  Ag  Ag13  1  0.49137940  0.83264623  0.66721284  1
  Ag  Ag14  1  0.83131321  0.84510826  0.33073566  1
  Ag  Ag15  1  0.66559225  0.00062016  0.33589697  1
  Ag  Ag16  1  0.50186288  0.16177834  0.32948555  1
  Ag  Ag17  1  0.50117389  0.49906285  0.32964146  1
  Ag  Ag18  1  -0.00767560  0.16898281  0.49105706  1
  Ag  Ag19  1  0.83008034  0.00599337  0.17324439  1
  Ag  Ag20  1  0.83172907  0.33043162  0.84056119  1
  Ag  Ag21  1  -0.00045303  0.33416720  0.00405354  1
  Ag  Ag22  1  0.83369289  0.50033622  -0.00032502  1
  Ag  Ag23  1  0.16855684  0.67547045  0.83338446  1
  Ag  Ag24  1  0.66183573  0.49599590  0.83785553  1
  Ag  Ag25  1  0.49425130  0.17140232  0.00630048  1
  Ag  Ag26  1  0.33535524  0.50537107  0.83755543  1
  Ag  Ag27  1  -0.00285339  0.16697210  0.83861333  1
  Ag  Ag28  1  0.00839907  0.66624584  0.67743640  1
  Ag  Ag29  1  0.83912546  0.82974711  0.00079342  1
  Ag  Ag30  1  -0.00477218  0.49361333  0.49728411  1
  Ag  Ag31  1  0.16537226  0.83655603  -0.00821704  1
  Ag  Ag32  1  0.66697449  0.84293036  0.49742019  1
  Ag  Ag33  1  0.33299314  0.16476757  0.16408192  1
  Ag  Ag34  1  0.32233222  0.82637817  0.83570323  1
  Ag  Ag35  1  0.33258535  0.66738380  -0.00298625  1
  Ag  Ag36  1  0.66701555  0.49905960  0.49914153  1
  Ag  Ag37  1  0.00181451  0.66394145  -0.00330682  1
  Ag  Ag38  1  0.34141853  0.00077545  0.32815486  1
  Ag  Ag39  1  0.16692188  0.00160407  0.50108514  1
  Ag  Ag40  1  0.50163650  0.49801416  -0.00001308  1
  Ag  Ag41  1  0.83948229  0.32714865  0.16188447  1
  Ag  Ag42  1  0.50209056  0.32811714  0.49808333  1
  Ag  Ag43  1  0.67151383  0.17195992  0.83378932  1
  Ag  Ag44  1  0.66310437  0.66446552  0.00131176  1
  Ag  Ag45  1  -0.00261665  0.49048233  0.16226442  1
  Ag  Ag46  1  0.16808278  -0.01106758  0.83424693  1
  Ag  Ag47  1  0.50626648  0.00548163  0.48984966  1
  Ag  Ag48  1  0.01001983  0.83371562  0.83639341  1
  Ag  Ag49  1  -0.00214132  0.32871990  0.32630627  1
  Ag  Ag50  1  0.15932877  0.16284503  0.32820752  1
  Ag  Ag51  1  0.32797258  0.66869161  0.67856586  1
  Ag  Ag52  1  0.83470502  0.16294983  0.33502708  1
  Ag  Ag53  1  0.34004624  0.67168564  0.32889965  1
  Sb  Sb54  1  0.49726646  0.50371642  0.66895670  1
  Sb  Sb55  1  0.83076444  0.32705331  0.49843779  1
  Sb  Sb56  1  0.33268909  -0.00431099  0.66862053  1
  Sb  Sb57  1  0.66819060  0.33051985  0.33477071  1
  Sb  Sb58  1  0.49308695  0.66154355  0.83899504  1
  Sb  Sb59  1  0.33771866  0.83439131  0.50371847  1
  Sb  Sb60  1  0.66799036  0.33692845  -0.00283801  1
  Sb  Sb61  1  0.33610592  0.16390038  0.49250153  1
  Sb  Sb62  1  0.16417321  0.83977669  0.33317844  1
  Sb  Sb63  1  -0.00415843  0.00736124  0.33347088  1
  Sb  Sb64  1  0.83648101  0.00490318  0.83591135  1
  Sb  Sb65  1  0.16113436  0.16323461  0.66861235  1
  Sb  Sb66  1  0.33083214  0.16684716  0.84210901  1
  Sb  Sb67  1  0.66642020  0.83273237  0.83188603  1
  Sb  Sb68  1  0.66797613  0.50144622  0.16441087  1
  Sb  Sb69  1  0.50438425  0.83690759  0.33658117  1
  Sb  Sb70  1  0.83592286  0.83747724  0.66760179  1
  Sb  Sb71  1  0.33511775  0.50046736  0.50276256  1
  Sb  Sb72  1  -0.00040912  0.33544228  0.66818563  1
  Sb  Sb73  1  0.49612717  0.00462691  0.83622219  1
  Sb  Sb74  1  0.16610597  0.67182078  0.50712216  1
  Sb  Sb75  1  -0.00245037  0.83606339  0.16016177  1
  Sb  Sb76  1  0.00482143  0.00278537  -0.00030116  1
  Sb  Sb77  1  0.66769527  0.16550216  0.16842436  1
  Sb  Sb78  1  0.66635051  0.00047011  0.65881120  1
  Sb  Sb79  1  0.17061942  0.66709279  0.15911068  1
  Sb  Sb80  1  0.00088966  0.49929791  0.83597005  1
  Sb  Sb81  1  0.83679289  0.49598598  0.67049529  1
  Sb  Sb82  1  -0.00067890  0.66181061  0.32948686  1
  Sb  Sb83  1  0.83129249  0.66677101  0.16346653  1
  Sb  Sb84  1  0.50332101  0.16331978  0.66464029  1
  Sb  Sb85  1  0.16846103  0.32794324  0.49942490  1
  Sb  Sb86  1  0.15941954  0.33082295  0.16448146  1
  Sb  Sb87  1  0.50160328  0.66722724  0.49476507  1
  Sb  Sb88  1  0.33184493  0.49722085  0.16060022  1
  Sb  Sb89  1  0.33430596  0.83792266  0.16163433  1
  Sb  Sb90  1  0.82903241  0.49717467  0.32972888  1
  Sb  Sb91  1  -0.00344916  0.83593312  0.50318547  1
  Sb  Sb92  1  0.83234097  0.66921904  0.49869248  1
  Sb  Sb93  1  0.66438971  0.66677899  0.66808709  1
  Sb  Sb94  1  0.33426183  0.33793626  0.67450408  1
  Sb  Sb95  1  0.00075874  -0.00231852  0.66669313  1
  Sb  Sb96  1  0.33248904  0.32953805  0.32677440  1
  Sb  Sb97  1  0.66315256  -0.00312114  0.00449642  1
  Sb  Sb98  1  0.16961978  0.49845024  0.33749491  1
  Sb  Sb99  1  0.49694071  0.83108469  -0.00406323  1
  Sb  Sb100  1  0.16695036  0.50094130  -0.00451556  1
  Sb  Sb101  1  0.83766641  0.66314608  0.83685063  1
  Sb  Sb102  1  0.66743607  0.83264488  0.17235587  1
  Sb  Sb103  1  0.50322396  0.33116222  0.16428162  1
  Sb  Sb104  1  0.16556367  0.33322650  0.83611926  1
  Sb  Sb105  1  0.16844265  0.00434196  0.16560217  1
  Sb  Sb106  1  0.83468636  0.16846554  0.00338514  1
  Sb  Sb107  1  0.66720912  0.33217348  0.66756146  1
  Te  Te108  1  0.16512148  0.16621461  0.16613345  1
  Te  Te109  1  0.16376474  0.16170388  0.49941043  1
  Te  Te110  1  0.16192433  0.16454728  0.83668364  1
  Te  Te111  1  0.15818453  0.50040992  0.16982473  1
  Te  Te112  1  0.16296575  0.49889053  0.50434237  1
  Te  Te113  1  0.17034126  0.50158346  0.82900692  1
  Te  Te114  1  0.16557140  0.83553959  0.15873404  1
  Te  Te115  1  0.16527190  0.84137633  0.50184138  1
  Te  Te116  1  0.16639319  0.83240173  0.83541349  1
  Te  Te117  1  0.50078353  0.16552457  0.16648107  1
  Te  Te118  1  0.50298808  0.16617121  0.49840381  1
  Te  Te119  1  0.50222359  0.17104423  0.83291473  1
  Te  Te120  1  0.49961105  0.50055822  0.16585487  1
  Te  Te121  1  0.50258750  0.49703776  0.49820329  1
  Te  Te122  1  0.50116937  0.49628928  0.83570064  1
  Te  Te123  1  0.49999674  0.83427444  0.16525959  1
  Te  Te124  1  0.50515590  0.83745839  0.50375700  1
  Te  Te125  1  0.49961200  0.83544099  0.82717008  1
  Te  Te126  1  0.83456719  0.16599770  0.17006021  1
  Te  Te127  1  0.83258938  0.16651716  0.49717910  1
  Te  Te128  1  0.83395803  0.16877174  0.83617776  1
  Te  Te129  1  0.83798609  0.49847928  0.16200254  1
  Te  Te130  1  0.83291394  0.49749876  0.50025575  1
  Te  Te131  1  0.82889709  0.49555784  0.83808092  1
  Te  Te132  1  0.83376842  0.83752307  0.16519075  1
  Te  Te133  1  0.82929853  0.83948347  0.49857911  1
  Te  Te134  1  0.83589033  0.83529257  0.83791116  1
  Te  Te135  1  0.17119232  0.00164627  -0.00057241  1
  Te  Te136  1  0.17259851  0.00353317  0.33524299  1
  Te  Te137  1  0.16739980  -0.00515342  0.66769690  1
  Te  Te138  1  0.16661108  0.32825905  -0.00080283  1
  Te  Te139  1  0.16205459  0.32610944  0.33459202  1
  Te  Te140  1  0.16783649  0.34008670  0.66709782  1
  Te  Te141  1  0.16803765  0.66809676  -0.00468270  1
  Te  Te142  1  0.17150040  0.66897130  0.33300388  1
  Te  Te143  1  0.16765524  0.66872770  0.66833120  1
  Te  Te144  1  0.49539697  0.00261812  0.00390588  1
  Te  Te145  1  0.50043396  0.00030827  0.33291957  1
  Te  Te146  1  0.49860233  -0.00540441  0.66309794  1
  Te  Te147  1  0.49985413  0.33440307  -0.00053097  1
  Te  Te148  1  0.49955546  0.33308879  0.33362516  1
  Te  Te149  1  0.49892123  0.33404959  0.66616482  1
  Te  Te150  1  0.49921829  0.66410917  0.00367379  1
  Te  Te151  1  0.50064506  0.66773384  0.32950037  1
  Te  Te152  1  0.49481862  0.67198909  0.66561419  1
  Te  Te153  1  0.83186794  -0.00520461  0.00434234  1
  Te  Te154  1  0.83219817  0.00149922  0.33319098  1
  Te  Te155  1  0.83375936  0.00640205  0.66298798  1
  Te  Te156  1  0.83549588  0.33517862  -0.00031184  1
  Te  Te157  1  0.83785351  0.32950011  0.33057612  1
  Te  Te158  1  0.83438995  0.32690297  0.67626904  1
  Te  Te159  1  0.83465189  0.66557860  0.00098219  1
  Te  Te160  1  0.82866067  0.66844961  0.33177623  1
  Te  Te161  1  0.83946027  0.66676667  0.66758633  1
  Te  Te162  1  0.00096711  0.16915507  -0.00044192  1
  Te  Te163  1  -0.00033244  0.16813898  0.33239596  1
  Te  Te164  1  -0.00417108  0.16732430  0.66990357  1
  Te  Te165  1  -0.00022663  0.49898900  0.00121368  1
  Te  Te166  1  0.00016601  0.49462668  0.33584520  1
  Te  Te167  1  0.00252087  0.50424141  0.66333670  1
  Te  Te168  1  -0.00001399  0.83205230  -0.00334891  1
  Te  Te169  1  -0.00619388  0.83096432  0.33283386  1
  Te  Te170  1  0.00322686  0.82716960  0.67127751  1
  Te  Te171  1  0.33400022  0.16589033  0.00216050  1
  Te  Te172  1  0.33746968  0.16479526  0.32705732  1
  Te  Te173  1  0.33211178  0.16808398  0.66746091  1
  Te  Te174  1  0.33463340  0.50344655  -0.00216060  1
  Te  Te175  1  0.33868237  0.50104988  0.33247699  1
  Te  Te176  1  0.32955306  0.50592836  0.67125943  1
  Te  Te177  1  0.33187895  0.82987324  -0.00343703  1
  Te  Te178  1  0.33139136  0.83303823  0.33281355  1
  Te  Te179  1  0.33099795  0.82962271  0.67004562  1
  Te  Te180  1  0.66065212  0.16451936  -0.00540027  1
  Te  Te181  1  0.66397740  0.16410921  0.33567922  1
  Te  Te182  1  0.67193849  0.16593713  0.66690942  1
  Te  Te183  1  0.66467200  0.50375088  -0.00177189  1
  Te  Te184  1  0.66184377  0.50248667  0.33517329  1
  Te  Te185  1  0.66709461  0.50238204  0.66471395  1
  Te  Te186  1  0.66995491  0.82717906  -0.00138966  1
  Te  Te187  1  0.67046270  0.83226045  0.33802665  1
  Te  Te188  1  0.66662847  0.83151971  0.66032894  1
  Te  Te189  1  -0.00595404  0.00639770  0.16613924  1
  Te  Te190  1  0.00103599  0.00460644  0.50042451  1
  Te  Te191  1  0.00443231  0.00103756  0.83318695  1
  Te  Te192  1  -0.00255175  0.33167321  0.16509954  1
  Te  Te193  1  0.00004183  0.33116764  0.49947269  1
  Te  Te194  1  -0.00279064  0.33022354  0.83759673  1
  Te  Te195  1  0.00066297  0.66379346  0.16005011  1
  Te  Te196  1  -0.00015249  0.66249124  0.49923921  1
  Te  Te197  1  0.00351773  0.66672001  0.83670636  1
  Te  Te198  1  0.33580343  0.00352879  0.16652656  1
  Te  Te199  1  0.33309421  -0.00027678  0.49647312  1
  Te  Te200  1  0.32944645  -0.00304384  0.83782595  1
  Te  Te201  1  0.33467662  0.32757303  0.15824595  1
  Te  Te202  1  0.34088557  0.33274271  0.49994278  1
  Te  Te203  1  0.33756356  0.33782451  0.84065389  1
  Te  Te204  1  0.33746814  0.66525161  0.16587163  1
  Te  Te205  1  0.33321394  0.66659465  0.49280659  1
  Te  Te206  1  0.33235258  0.66660086  0.83541943  1
  Te  Te207  1  0.66486967  -0.00079960  0.17274240  1
  Te  Te208  1  0.66689892  0.00227068  0.49628335  1
  Te  Te209  1  0.66642940  0.00491395  0.83339934  1
  Te  Te210  1  0.67917223  0.33378885  0.16662162  1
  Te  Te211  1  0.66206053  0.33567592  0.50056954  1
  Te  Te212  1  0.66520024  0.33347345  0.83305703  1
  Te  Te213  1  0.66131242  0.66623218  0.16624610  1
  Te  Te214  1  0.66692259  0.66143857  0.49727791  1
  Te  Te215  1  0.66609821  0.66307348  0.83788815  1
