# generated using pymatgen
data_AgSbTe2
_symmetry_space_group_name_H-M   'P 1'
_cell_length_a   18.34133048
_cell_length_b   18.34345569
_cell_length_c   18.33941675
_cell_angle_alpha   90.00014415
_cell_angle_beta   89.99870650
_cell_angle_gamma   90.00120023
_symmetry_Int_Tables_number   1
_chemical_formula_structural   AgSbTe2
_chemical_formula_sum   'Ag54 Sb54 Te108'
_cell_volume   6170.17540829
_cell_formula_units_Z   54
loop_
 _symmetry_equiv_pos_site_id
 _symmetry_equiv_pos_as_xyz
  1  'x, y, z'
loop_
 _atom_site_type_symbol
 _atom_site_label
 _atom_site_symmetry_multiplicity
 _atom_site_fract_x
 _atom_site_fract_y
 _atom_site_fract_z
 _atom_site_occupancy
  Ag  Ag0  1  0.33902912  0.50173444  0.49400501  1
  Ag  Ag1  1  0.83018848  0.33554929  0.15880321  1
  Ag  Ag2  1  0.33281357  0.16820382  0.83082192  1
  Ag  Ag3  1  0.33618149  0.66435544  0.67653137  1
  Ag  Ag4  1  0.49848096  0.83757009  0.67020544  1
  Ag  Ag5  1  0.17727518  0.83029292  0.33006949  1
  Ag  Ag6  1  0.16790068  0.33749950  0.84015956  1
  Ag  Ag7  1  0.17907766  0.49965947  -0.00115654  1
  Ag  Ag8  1  0.17756689  0.49790762  0.32778690  1
  Ag  Ag9  1  0.82409047  0.65371797  0.16388730  1
  Ag  Ag10  1  0.65983562  -0.00265253  0.34140389  1
  Ag  Ag11  1  0.65452018  0.82738004  0.82987277  1
  Ag  Ag12  1  0.49936525  0.84021791  0.33273232  1
  Ag  Ag13  1  0.82240960  0.17771103  -0.00245551  1
  Ag  Ag14  1  0.49965142  0.33927859  0.16477978  1
  Ag  Ag15  1  0.17197447  0.33629588  0.16164004  1
  Ag  Ag16  1  0.33785313  0.66413174  -0.00431664  1
  Ag  Ag17  1  0.82196355  0.84230627  0.33147687  1
  Ag  Ag18  1  0.33229176  0.34212142  0.32940238  1
  Ag  Ag19  1  0.65721552  0.01110578  0.66241997  1
  Ag  Ag20  1  0.34036613  -0.00108164  0.66677123  1
  Ag  Ag21  1  0.17729520  0.82202228  -0.00239090  1
  Ag  Ag22  1  0.17412954  0.66388634  0.83549527  1
  Ag  Ag23  1  0.50061375  0.16028689  0.66980382  1
  Ag  Ag24  1  0.82929908  0.16556654  0.33168663  1
  Ag  Ag25  1  0.66077399  0.83739741  0.50158486  1
  Ag  Ag26  1  0.17283526  0.66615851  0.50443112  1
  Ag  Ag27  1  0.18185479  0.16801709  0.66989104  1
  Ag  Ag28  1  0.34104947  0.00065166  0.33844151  1
  Ag  Ag29  1  0.49691123  0.50093159  0.32573213  1
  Ag  Ag30  1  0.33841286  0.50370961  0.83625828  1
  Ag  Ag31  1  0.49985180  0.49940516  0.66830518  1
  Ag  Ag32  1  0.50181301  -0.00359051  0.49793747  1
  Ag  Ag33  1  0.66410784  0.16296269  0.50543266  1
  Ag  Ag34  1  0.83083741  0.33407486  0.84307437  1
  Ag  Ag35  1  0.67223474  0.33942306  -0.00612693  1
  Ag  Ag36  1  0.49834074  0.82462867  -0.00361611  1
  Ag  Ag37  1  0.81827259  0.49283914  -0.00237380  1
  Ag  Ag38  1  0.65462708  0.65545410  -0.00183438  1
  Ag  Ag39  1  0.49858667  0.50266669  0.00147672  1
  Ag  Ag40  1  0.65812939  0.49941740  0.50939126  1
  Ag  Ag41  1  0.49827740  -0.00548830  0.17219550  1
  Ag  Ag42  1  0.82033886  0.17304356  0.66789227  1
  Ag  Ag43  1  0.50152335  0.66086762  0.16392021  1
  Ag  Ag44  1  0.17324864  0.00027370  0.83395396  1
  Ag  Ag45  1  -0.01326544  0.33464020  0.00625922  1
  Ag  Ag46  1  0.65784977  0.50068764  0.83359525  1
  Ag  Ag47  1  0.66601999  0.33415095  0.67134859  1
  Ag  Ag48  1  -0.00251767  0.00202563  0.33279619  1
  Ag  Ag49  1  0.33611455  0.49895275  0.16728051  1
  Ag  Ag50  1  0.50216650  0.17452894  -0.00363455  1
  Ag  Ag51  1  0.81883348  0.49158411  0.67850363  1
  Ag  Ag52  1  0.00388985  0.33186040  0.32591132  1
  Ag  Ag53  1  0.33647405  0.82509899  0.83409268  1
  Sb  Sb54  1  0.33686512  0.82817488  0.16350886  1
  Sb  Sb55  1  0.16944039  0.33543507  0.50082629  1
  Sb  Sb56  1  0.49692740  -0.00189772  0.82981919  1
  Sb  Sb57  1  0.00271981  0.66165125  0.00103664  1
  Sb  Sb58  1  0.33737507  -0.00458189  -0.00449686  1
  Sb  Sb59  1  0.66206796  0.17027655  0.82858092  1
  Sb  Sb60  1  0.00231536  0.49827768  0.49849395  1
  Sb  Sb61  1  0.66425859  0.33225483  0.33188018  1
  Sb  Sb62  1  0.83212137  0.66586156  0.49827681  1
  Sb  Sb63  1  0.33856810  0.16953836  0.50315037  1
  Sb  Sb64  1  0.66157959  0.83318046  0.16727239  1
  Sb  Sb65  1  0.33785895  0.34220151  0.00176020  1
  Sb  Sb66  1  0.34054045  0.33412566  0.66740466  1
  Sb  Sb67  1  0.82691739  0.83056527  0.00248998  1
  Sb  Sb68  1  0.17079325  0.66174466  0.16390489  1
  Sb  Sb69  1  0.82977719  0.33325237  0.49916601  1
  Sb  Sb70  1  0.17403180  0.00277588  0.16630305  1
  Sb  Sb71  1  -0.00502837  0.33360249  0.66834696  1
  Sb  Sb72  1  0.00506498  0.49676410  0.16570693  1
  Sb  Sb73  1  0.82811849  0.49715644  0.32877450  1
  Sb  Sb74  1  0.50273816  0.16526294  0.33378874  1
  Sb  Sb75  1  0.33754519  0.17130107  0.16327161  1
  Sb  Sb76  1  0.66418251  0.66820793  0.33055848  1
  Sb  Sb77  1  0.17237679  0.17345015  -0.00500082  1
  Sb  Sb78  1  0.65933491  0.49883271  0.16176139  1
  Sb  Sb79  1  0.49483702  0.66637995  0.83894439  1
  Sb  Sb80  1  0.16629972  0.16885371  0.33652108  1
  Sb  Sb81  1  0.65838119  0.66236367  0.67194078  1
  Sb  Sb82  1  0.50019841  0.33607892  0.83860168  1
  Sb  Sb83  1  0.17586772  0.83457595  0.66868525  1
  Sb  Sb84  1  0.33835073  0.82799499  0.50239182  1
  Sb  Sb85  1  0.33468872  0.66385239  0.33217945  1
  Sb  Sb86  1  0.00136509  0.66513663  0.33190820  1
  Sb  Sb87  1  0.82016776  0.83453415  0.66421291  1
  Sb  Sb88  1  -0.00562359  0.16636378  0.49899086  1
  Sb  Sb89  1  -0.00269133  0.83504568  0.49646111  1
  Sb  Sb90  1  0.00595948  0.66438679  0.66695571  1
  Sb  Sb91  1  0.17442858  0.49721054  0.66964569  1
  Sb  Sb92  1  0.50159474  0.33450298  0.49762554  1
  Sb  Sb93  1  0.00340899  0.00536488  0.00373440  1
  Sb  Sb94  1  0.83259901  0.00508359  0.83164124  1
  Sb  Sb95  1  0.17507494  -0.00301156  0.50150621  1
  Sb  Sb96  1  0.82667652  0.00405475  0.16993192  1
  Sb  Sb97  1  0.00653304  0.83402745  0.83422265  1
  Sb  Sb98  1  0.66175343  0.00144345  -0.00307707  1
  Sb  Sb99  1  0.00174839  0.49711629  0.83560070  1
  Sb  Sb100  1  0.82309645  0.00098591  0.49792881  1
  Sb  Sb101  1  0.00026022  0.83333251  0.16766180  1
  Sb  Sb102  1  0.83315786  0.66087576  0.83566388  1
  Sb  Sb103  1  0.00433247  0.16934742  0.83381610  1
  Sb  Sb104  1  0.49762040  0.66615844  0.49703139  1
  Sb  Sb105  1  -0.00173497  0.17017696  0.16721259  1
  Sb  Sb106  1  0.00255608  0.00120688  0.66254312  1
  Sb  Sb107  1  0.66513138  0.16833170  0.16795988  1
  Te  Te108  1  0.16747343  0.17504690  0.16566554  1
  Te  Te109  1  0.16613636  0.16488758  0.50928185  1
  Te  Te110  1  0.17067085  0.16830172  0.83124309  1
  Te  Te111  1  0.17124704  0.49636094  0.16689205  1
  Te  Te112  1  0.16986087  0.50458120  0.50161257  1
  Te  Te113  1  0.16804402  0.49778267  0.83459599  1
  Te  Te114  1  0.16834434  0.83423341  0.16825762  1
  Te  Te115  1  0.16629088  0.82831189  0.49754783  1
  Te  Te116  1  0.17180559  0.83336855  0.83620254  1
  Te  Te117  1  0.50054544  0.17221671  0.16168680  1
  Te  Te118  1  0.50432144  0.16540549  0.50466743  1
  Te  Te119  1  0.49502044  0.16628769  0.83356559  1
  Te  Te120  1  0.49887157  0.49981428  0.16677886  1
  Te  Te121  1  0.49858012  0.50056222  0.50128890  1
  Te  Te122  1  0.49974677  0.50033531  0.83400726  1
  Te  Te123  1  0.49865102  0.83461840  0.16852128  1
  Te  Te124  1  0.50241955  0.83258640  0.49572143  1
  Te  Te125  1  0.49768585  0.83366078  0.83492918  1
  Te  Te126  1  0.83275031  0.17097195  0.16691026  1
  Te  Te127  1  0.82630964  0.16657546  0.50089788  1
  Te  Te128  1  0.83319827  0.17115409  0.83349238  1
  Te  Te129  1  0.83269213  0.49664619  0.16275661  1
  Te  Te130  1  0.83073880  0.50216073  0.49875289  1
  Te  Te131  1  0.83506503  0.49678298  0.83622121  1
  Te  Te132  1  0.83314027  0.83698047  0.17170279  1
  Te  Te133  1  0.82676003  0.83179153  0.49345001  1
  Te  Te134  1  0.83503318  0.83328390  0.83361540  1
  Te  Te135  1  0.16811665  -0.00026603  -0.00363700  1
  Te  Te136  1  0.17112496  -0.00133223  0.33264458  1
  Te  Te137  1  0.16846897  0.00358377  0.66966729  1
  Te  Te138  1  0.17076465  0.33753107  0.00037818  1
  Te  Te139  1  0.16992537  0.33427674  0.33372754  1
  Te  Te140  1  0.16338832  0.32807018  0.66906351  1
  Te  Te141  1  0.16783103  0.66407127  -0.00163641  1
  Te  Te142  1  0.16721302  0.66724830  0.33109975  1
  Te  Te143  1  0.17375920  0.66586047  0.66778640  1
  Te  Te144  1  0.50119861  -0.00169108  0.00681001  1
  Te  Te145  1  0.49994339  0.00234420  0.33523720  1
  Te  Te146  1  0.49960217  -0.00099260  0.66652318  1
  Te  Te147  1  0.50363817  0.33480095  0.00324075  1
  Te  Te148  1  0.49653387  0.33469431  0.32770530  1
  Te  Te149  1  0.50607882  0.33626681  0.66611416  1
  Te  Te150  1  0.49897063  0.66641311  0.00206027  1
  Te  Te151  1  0.50074139  0.66428601  0.32641713  1
  Te  Te152  1  0.49362258  0.66507087  0.66333735  1
  Te  Te153  1  0.83395482  0.00170152  -0.00005477  1
  Te  Te154  1  0.83274887  0.00133426  0.33289132  1
  Te  Te155  1  0.83314008  0.00228324  0.66637721  1
  Te  Te156  1  0.83104983  0.33371607  -0.00023105  1
  Te  Te157  1  0.83354769  0.32941810  0.33093006  1
  Te  Te158  1  0.82994794  0.33424284  0.66568032  1
  Te  Te159  1  0.83485451  0.66449489  0.00378636  1
  Te  Te160  1  0.83339912  0.66717473  0.32824184  1
  Te  Te161  1  0.83639510  0.66477950  0.66745727  1
  Te  Te162  1  -0.00530657  0.17292789  0.00054077  1
  Te  Te163  1  -0.00323120  0.16763825  0.33389353  1
  Te  Te164  1  -0.00824563  0.16619553  0.66592538  1
  Te  Te165  1  0.00190439  0.49403521  0.00029854  1
  Te  Te166  1  0.00473408  0.49581885  0.33324742  1
  Te  Te167  1  -0.01146070  0.49961797  0.66534205  1
  Te  Te168  1  0.00417064  0.83600180  0.00006605  1
  Te  Te169  1  0.00141618  0.83532432  0.33366887  1
  Te  Te170  1  -0.00418117  0.83333452  0.66522920  1
  Te  Te171  1  0.34060064  0.16302801  -0.00647757  1
  Te  Te172  1  0.33313822  0.16350195  0.33374568  1
  Te  Te173  1  0.33863266  0.16729865  0.66900328  1
  Te  Te174  1  0.33726812  0.50259780  -0.00250040  1
  Te  Te175  1  0.33524713  0.50237609  0.33297890  1
  Te  Te176  1  0.33837357  0.49976647  0.67187949  1
  Te  Te177  1  0.33458081  0.83013486  -0.00247480  1
  Te  Te178  1  0.33569672  0.83416283  0.33340070  1
  Te  Te179  1  0.33854572  0.83558743  0.66901316  1
  Te  Te180  1  0.66323227  0.16831430  -0.00143865  1
  Te  Te181  1  0.66975201  0.16446839  0.33814750  1
  Te  Te182  1  0.66323086  0.16804415  0.66750283  1
  Te  Te183  1  0.66160941  0.49951675  -0.00151289  1
  Te  Te184  1  0.65806870  0.49936459  0.34029316  1
  Te  Te185  1  0.66280647  0.50084569  0.67025289  1
  Te  Te186  1  0.66048077  0.83471675  -0.00446640  1
  Te  Te187  1  0.66255227  0.83378869  0.33413177  1
  Te  Te188  1  0.65896709  0.82971327  0.66773064  1
  Te  Te189  1  0.00347014  0.00118705  0.17407404  1
  Te  Te190  1  0.00324534  0.00030316  0.49134292  1
  Te  Te191  1  0.00788383  0.00102991  0.83415276  1
  Te  Te192  1  -0.00123343  0.33393878  0.16667194  1
  Te  Te193  1  0.00120462  0.33269558  0.48972465  1
  Te  Te194  1  0.00201128  0.33289095  0.83668625  1
  Te  Te195  1  -0.01204265  0.66600233  0.16643343  1
  Te  Te196  1  0.01019245  0.66650485  0.50014194  1
  Te  Te197  1  0.01103161  0.66708695  0.83303318  1
  Te  Te198  1  0.33914714  0.00176338  0.17315161  1
  Te  Te199  1  0.34029523  0.00074975  0.50261162  1
  Te  Te200  1  0.33064879  -0.00050278  0.82955112  1
  Te  Te201  1  0.33438697  0.33650431  0.17014749  1
  Te  Te202  1  0.33429002  0.33964319  0.49333904  1
  Te  Te203  1  0.32989256  0.33429160  0.83229354  1
  Te  Te204  1  0.33819117  0.66054751  0.15951925  1
  Te  Te205  1  0.33104673  0.66098270  0.50269309  1
  Te  Te206  1  0.33143237  0.66657638  0.83358319  1
  Te  Te207  1  0.65895461  0.00064458  0.17387665  1
  Te  Te208  1  0.66293042  -0.00153612  0.50219680  1
  Te  Te209  1  0.66868551  -0.00763455  0.82526611  1
  Te  Te210  1  0.66624941  0.33286398  0.16311456  1
  Te  Te211  1  0.66701363  0.33664862  0.50540991  1
  Te  Te212  1  0.66785268  0.33581045  0.83301464  1
  Te  Te213  1  0.66590091  0.66760193  0.16094265  1
  Te  Te214  1  0.66830825  0.66415998  0.50197779  1
  Te  Te215  1  0.67155412  0.66640459  0.83916251  1
