# generated using pymatgen
data_AgSbTe2
_symmetry_space_group_name_H-M   'P 1'
_cell_length_a   18.31949627
_cell_length_b   18.32448914
_cell_length_c   18.32505840
_cell_angle_alpha   90.00191215
_cell_angle_beta   90.00368005
_cell_angle_gamma   89.99687667
_symmetry_Int_Tables_number   1
_chemical_formula_structural   AgSbTe2
_chemical_formula_sum   'Ag54 Sb54 Te108'
_cell_volume   6151.63797649
_cell_formula_units_Z   54
loop_
 _symmetry_equiv_pos_site_id
 _symmetry_equiv_pos_as_xyz
  1  'x, y, z'
loop_
 _atom_site_type_symbol
 _atom_site_label
 _atom_site_symmetry_multiplicity
 _atom_site_fract_x
 _atom_site_fract_y
 _atom_site_fract_z
 _atom_site_occupancy
  Ag  Ag0  1  0.48857636  0.33264240  0.83067609  1
  Ag  Ag1  1  0.83658688  0.66534139  0.83832121  1
  Ag  Ag2  1  0.00157330  0.83156404  0.82642481  1
  Ag  Ag3  1  0.33619666  0.33601703  0.00295729  1
  Ag  Ag4  1  0.83536959  0.17576710  0.00383271  1
  Ag  Ag5  1  0.83341365  0.33605871  0.16664562  1
  Ag  Ag6  1  0.33303546  0.00370016  0.66484275  1
  Ag  Ag7  1  0.32789149  0.82932562  0.50300269  1
  Ag  Ag8  1  0.34127980  0.17645660  0.16720939  1
  Ag  Ag9  1  0.83671697  0.50252719  0.66680030  1
  Ag  Ag10  1  0.84363805  0.82874601  0.66868322  1
  Ag  Ag11  1  0.32705409  0.83480805  0.82046990  1
  Ag  Ag12  1  0.65782400  0.16797340  0.17246891  1
  Ag  Ag13  1  0.83539172  0.82292577  -0.00363784  1
  Ag  Ag14  1  0.33667629  0.49903929  0.49207238  1
  Ag  Ag15  1  0.33068717  0.33073025  0.66876830  1
  Ag  Ag16  1  0.48734492  0.49100718  0.33088161  1
  Ag  Ag17  1  0.00251694  -0.00179067  0.33538434  1
  Ag  Ag18  1  0.33431080  0.34035732  0.33215746  1
  Ag  Ag19  1  -0.00205293  0.83594311  0.18027261  1
  Ag  Ag20  1  0.17293544  0.16591279  0.66612427  1
  Ag  Ag21  1  0.16600358  0.82857952  0.34326992  1
  Ag  Ag22  1  0.49598786  0.17355500  0.33314021  1
  Ag  Ag23  1  0.33251121  0.67009029  0.65892812  1
  Ag  Ag24  1  0.48949201  0.16984261  0.66081375  1
  Ag  Ag25  1  0.16855209  0.49591978  0.00483853  1
  Ag  Ag26  1  0.00556058  0.17313131  0.82652235  1
  Ag  Ag27  1  0.17019434  0.33301027  0.82974112  1
  Ag  Ag28  1  -0.00134230  0.16603911  0.49699729  1
  Ag  Ag29  1  0.16829090  0.83815853  0.66053631  1
  Ag  Ag30  1  0.00585865  0.33473910  0.33520389  1
  Ag  Ag31  1  0.83667264  0.49926180  0.32962029  1
  Ag  Ag32  1  0.00452193  0.32956883  0.66602410  1
  Ag  Ag33  1  0.66554449  0.83595388  0.50049821  1
  Ag  Ag34  1  0.33641025  0.49376566  0.17911217  1
  Ag  Ag35  1  0.17501140  0.50141159  0.33206794  1
  Ag  Ag36  1  0.16746665  -0.00172455  0.50160872  1
  Ag  Ag37  1  0.48994379  0.83338178  0.33568031  1
  Ag  Ag38  1  0.00932108  0.83900309  0.49708554  1
  Ag  Ag39  1  0.83411474  0.65817031  0.16216789  1
  Ag  Ag40  1  0.67314086  0.66482353  0.00144692  1
  Ag  Ag41  1  0.83405218  0.50191036  0.00324954  1
  Ag  Ag42  1  0.00470321  0.66517930  0.33323619  1
  Ag  Ag43  1  0.32942953  0.17436039  0.82550471  1
  Ag  Ag44  1  0.49630503  0.33223114  0.49294020  1
  Ag  Ag45  1  -0.00059952  0.16839189  0.17374937  1
  Ag  Ag46  1  0.32952638  0.65387427  0.33705527  1
  Ag  Ag47  1  0.49387494  0.49557877  0.00770878  1
  Ag  Ag48  1  0.49126249  0.33196423  0.17236298  1
  Ag  Ag49  1  0.66081198  0.49697933  0.49835470  1
  Ag  Ag50  1  0.49811609  0.01497132  0.17092753  1
  Ag  Ag51  1  0.66441576  0.16661723  0.49831274  1
  Ag  Ag52  1  0.66104084  0.00018289  0.66199713  1
  Ag  Ag53  1  -0.00167574  0.49781077  0.83275273  1
  Sb  Sb54  1  0.83615469  -0.00379558  0.83165181  1
  Sb  Sb55  1  0.49397255  0.83970598  0.65997247  1
  Sb  Sb56  1  0.16130241  0.66552591  0.17053993  1
  Sb  Sb57  1  0.50279763  0.66052902  0.16942572  1
  Sb  Sb58  1  0.66701912  -0.00123403  -0.00149330  1
  Sb  Sb59  1  0.83655722  0.16810225  0.66981502  1
  Sb  Sb60  1  -0.00035366  0.00040767  0.00454560  1
  Sb  Sb61  1  0.49725179  0.66166266  0.49865497  1
  Sb  Sb62  1  0.33444939  0.00714980  -0.00332564  1
  Sb  Sb63  1  0.66642932  0.16822526  0.83234588  1
  Sb  Sb64  1  0.16979429  0.33359513  0.16601613  1
  Sb  Sb65  1  0.66723504  0.66512231  0.33091051  1
  Sb  Sb66  1  -0.00597956  0.66611379  0.00353502  1
  Sb  Sb67  1  0.16664361  0.00444584  0.82653772  1
  Sb  Sb68  1  0.83788441  0.33717517  0.83687624  1
  Sb  Sb69  1  0.50020497  0.49239163  0.66334531  1
  Sb  Sb70  1  -0.00048340  0.49741984  0.16750419  1
  Sb  Sb71  1  0.00354659  0.00196274  0.66147406  1
  Sb  Sb72  1  0.33651213  0.65923754  0.00157033  1
  Sb  Sb73  1  0.66320872  0.33725200  0.00230310  1
  Sb  Sb74  1  0.66521562  0.66927579  0.66747337  1
  Sb  Sb75  1  0.67133179  0.83695719  0.17202778  1
  Sb  Sb76  1  0.32980054  0.83249785  0.17179535  1
  Sb  Sb77  1  0.00290588  0.49786825  0.49853227  1
  Sb  Sb78  1  0.16253674  0.66238573  0.83218444  1
  Sb  Sb79  1  0.50258058  0.82712853  0.00510999  1
  Sb  Sb80  1  0.33424826  0.16918935  0.50232268  1
  Sb  Sb81  1  0.84034121  0.82718556  0.33533983  1
  Sb  Sb82  1  0.00288731  0.66722129  0.66275098  1
  Sb  Sb83  1  0.50163873  0.17415014  0.00351214  1
  Sb  Sb84  1  0.00360565  0.33424525  0.00021062  1
  Sb  Sb85  1  0.66826171  0.00147723  0.33722326  1
  Sb  Sb86  1  0.32889649  0.49484282  0.83155114  1
  Sb  Sb87  1  0.83199854  0.33501726  0.49538568  1
  Sb  Sb88  1  0.49980705  0.66191374  0.83331502  1
  Sb  Sb89  1  0.16957168  0.00108713  0.17457383  1
  Sb  Sb90  1  0.83724990  -0.00079492  0.50075747  1
  Sb  Sb91  1  0.66578351  0.49442457  0.17027868  1
  Sb  Sb92  1  0.66015576  0.33391710  0.33289425  1
  Sb  Sb93  1  0.83441656  0.17416701  0.32787978  1
  Sb  Sb94  1  0.33123359  0.00165218  0.33860186  1
  Sb  Sb95  1  0.66822152  0.83218417  0.82843637  1
  Sb  Sb96  1  0.49616750  0.00462104  0.49679440  1
  Sb  Sb97  1  0.66605560  0.33041122  0.66425915  1
  Sb  Sb98  1  0.49700128  0.00465640  0.83388332  1
  Sb  Sb99  1  0.16750569  0.16931134  0.33771181  1
  Sb  Sb100  1  0.16182405  0.82582180  -0.00268518  1
  Sb  Sb101  1  0.83408872  0.66604974  0.49928848  1
  Sb  Sb102  1  0.83254942  0.00331652  0.16750648  1
  Sb  Sb103  1  0.16845606  0.67148291  0.49876925  1
  Sb  Sb104  1  0.17094296  0.32910618  0.50333052  1
  Sb  Sb105  1  0.67158371  0.49948083  0.83146344  1
  Sb  Sb106  1  0.16463796  0.17294450  -0.00472994  1
  Sb  Sb107  1  0.16517107  0.49775837  0.66374842  1
  Te  Te108  1  0.16113380  0.16563975  0.16507066  1
  Te  Te109  1  0.16097324  0.16213429  0.50475996  1
  Te  Te110  1  0.16659661  0.17016044  0.82904745  1
  Te  Te111  1  0.16962743  0.50000664  0.16820828  1
  Te  Te112  1  0.17201865  0.49894800  0.49468141  1
  Te  Te113  1  0.15916743  0.49529994  0.83162786  1
  Te  Te114  1  0.15873988  0.83357964  0.16675880  1
  Te  Te115  1  0.16777505  0.83488183  0.50029899  1
  Te  Te116  1  0.16629533  0.83328274  0.83174071  1
  Te  Te117  1  0.49892812  0.17150802  0.16662182  1
  Te  Te118  1  0.50106432  0.16931289  0.49868331  1
  Te  Te119  1  0.49700778  0.17126664  0.83343035  1
  Te  Te120  1  0.49970931  0.49483358  0.16935135  1
  Te  Te121  1  0.49921024  0.49542187  0.49685760  1
  Te  Te122  1  0.50198297  0.49439836  0.83501657  1
  Te  Te123  1  0.50079613  0.83177608  0.17334716  1
  Te  Te124  1  0.49964557  0.83517748  0.49502307  1
  Te  Te125  1  0.49421010  0.83282731  0.83497219  1
  Te  Te126  1  0.83853117  0.16957888  0.16352035  1
  Te  Te127  1  0.83316051  0.16696953  0.49992417  1
  Te  Te128  1  0.83732666  0.16751220  0.83938611  1
  Te  Te129  1  0.83290003  0.49806004  0.16596573  1
  Te  Te130  1  0.83149217  0.49973536  0.50209073  1
  Te  Te131  1  0.83758426  0.50232840  0.83347021  1
  Te  Te132  1  0.83764417  0.83379115  0.16463967  1
  Te  Te133  1  0.83029853  0.83260514  0.50438664  1
  Te  Te134  1  0.83495891  0.83014504  0.83173961  1
  Te  Te135  1  0.16786558  -0.00194473  0.00065235  1
  Te  Te136  1  0.16215424  -0.00350679  0.33973517  1
  Te  Te137  1  0.17003237  -0.00057244  0.66241360  1
  Te  Te138  1  0.17276275  0.33840847  -0.00583759  1
  Te  Te139  1  0.16693155  0.33678715  0.33419869  1
  Te  Te140  1  0.16460657  0.33164451  0.66896095  1
  Te  Te141  1  0.16704762  0.65563808  0.00069124  1
  Te  Te142  1  0.16758866  0.66634514  0.33310114  1
  Te  Te143  1  0.17311480  0.67291541  0.66752144  1
  Te  Te144  1  0.50115137  -0.00268339  0.00780416  1
  Te  Te145  1  0.50068228  0.00052814  0.32974432  1
  Te  Te146  1  0.49690231  0.00785463  0.66661380  1
  Te  Te147  1  0.49686494  0.33790426  0.00420123  1
  Te  Te148  1  0.49704153  0.33332486  0.33278011  1
  Te  Te149  1  0.49912213  0.32823261  0.66635807  1
  Te  Te150  1  0.50736908  0.65794946  0.00052101  1
  Te  Te151  1  0.49551414  0.66766047  0.33323307  1
  Te  Te152  1  0.49226023  0.66577633  0.66852533  1
  Te  Te153  1  0.83188347  -0.00298055  -0.00045202  1
  Te  Te154  1  0.84158339  0.00021914  0.33336190  1
  Te  Te155  1  0.82966603  -0.00661099  0.66661295  1
  Te  Te156  1  0.83323480  0.33625854  0.00359723  1
  Te  Te157  1  0.83946038  0.33855288  0.32915796  1
  Te  Te158  1  0.83835920  0.33781145  0.66796155  1
  Te  Te159  1  0.83379859  0.66504342  0.00050694  1
  Te  Te160  1  0.83581250  0.66097347  0.32930949  1
  Te  Te161  1  0.83315086  0.66676686  0.67025595  1
  Te  Te162  1  -0.00325506  0.16678694  0.00011673  1
  Te  Te163  1  0.00111696  0.17244281  0.33572053  1
  Te  Te164  1  0.00031637  0.16814239  0.66683275  1
  Te  Te165  1  -0.00101906  0.50005769  -0.00237599  1
  Te  Te166  1  -0.00250013  0.49821043  0.33387589  1
  Te  Te167  1  -0.00225073  0.49833342  0.66667025  1
  Te  Te168  1  -0.00429753  0.83320387  -0.00693497  1
  Te  Te169  1  0.00165732  0.83096318  0.33651493  1
  Te  Te170  1  0.00156019  0.83467013  0.66529634  1
  Te  Te171  1  0.33284395  0.17311773  0.00044527  1
  Te  Te172  1  0.33498837  0.16884584  0.33119607  1
  Te  Te173  1  0.33253988  0.16978148  0.66518764  1
  Te  Te174  1  0.33419456  0.49609238  -0.00197780  1
  Te  Te175  1  0.33208339  0.49835032  0.33448080  1
  Te  Te176  1  0.33276706  0.49647214  0.66356671  1
  Te  Te177  1  0.33254762  0.83168306  -0.00053710  1
  Te  Te178  1  0.33034665  0.83624401  0.33532124  1
  Te  Te179  1  0.33280859  0.83377510  0.66446563  1
  Te  Te180  1  0.67351321  0.16559941  0.00310939  1
  Te  Te181  1  0.66378680  0.16666056  0.33501330  1
  Te  Te182  1  0.66856618  0.16286443  0.66364830  1
  Te  Te183  1  0.67264281  0.50363498  0.00022042  1
  Te  Te184  1  0.67361584  0.50049481  0.33873009  1
  Te  Te185  1  0.67192094  0.50122006  0.65962100  1
  Te  Te186  1  0.67159651  0.82995376  0.00042599  1
  Te  Te187  1  0.66455520  0.83343615  0.34000094  1
  Te  Te188  1  0.66396975  0.83587229  0.66095169  1
  Te  Te189  1  0.00087223  0.00090272  0.17256053  1
  Te  Te190  1  0.00295859  0.00066369  0.49688712  1
  Te  Te191  1  0.00103370  -0.00041283  0.83420787  1
  Te  Te192  1  -0.00099362  0.33023455  0.16884014  1
  Te  Te193  1  -0.00004714  0.33036578  0.50079188  1
  Te  Te194  1  0.00231647  0.33277898  0.83266242  1
  Te  Te195  1  -0.00533577  0.66963538  0.17232715  1
  Te  Te196  1  -0.00079768  0.67236197  0.49398217  1
  Te  Te197  1  -0.00394124  0.66749685  0.83074117  1
  Te  Te198  1  0.33705224  0.00409502  0.16575005  1
  Te  Te199  1  0.32989297  -0.00409041  0.50513551  1
  Te  Te200  1  0.33353355  0.00006565  0.82889850  1
  Te  Te201  1  0.33187791  0.33364989  0.16827995  1
  Te  Te202  1  0.33561702  0.33502294  0.49893723  1
  Te  Te203  1  0.33169226  0.33337057  0.82903297  1
  Te  Te204  1  0.33367910  0.66149027  0.17106924  1
  Te  Te205  1  0.33424996  0.66786232  0.49833831  1
  Te  Te206  1  0.33217543  0.67089400  0.83282338  1
  Te  Te207  1  0.66122609  0.00630901  0.16728717  1
  Te  Te208  1  0.66572850  0.00231594  0.50324334  1
  Te  Te209  1  0.66476937  -0.00030764  0.82440038  1
  Te  Te210  1  0.67203947  0.32651699  0.16694817  1
  Te  Te211  1  0.66171920  0.33090411  0.49965187  1
  Te  Te212  1  0.65685867  0.33297249  0.83320076  1
  Te  Te213  1  0.67374267  0.66781806  0.16296403  1
  Te  Te214  1  0.66601939  0.66779314  0.50021860  1
  Te  Te215  1  0.67239891  0.66716845  0.83756780  1
