# generated using pymatgen
data_AgSbTe2
_symmetry_space_group_name_H-M   'P 1'
_cell_length_a   18.33685579
_cell_length_b   18.33773327
_cell_length_c   18.33526030
_cell_angle_alpha   89.99909837
_cell_angle_beta   89.99886546
_cell_angle_gamma   89.99584305
_symmetry_Int_Tables_number   1
_chemical_formula_structural   AgSbTe2
_chemical_formula_sum   'Ag54 Sb54 Te108'
_cell_volume   6165.34805878
_cell_formula_units_Z   54
loop_
 _symmetry_equiv_pos_site_id
 _symmetry_equiv_pos_as_xyz
  1  'x, y, z'
loop_
 _atom_site_type_symbol
 _atom_site_label
 _atom_site_symmetry_multiplicity
 _atom_site_fract_x
 _atom_site_fract_y
 _atom_site_fract_z
 _atom_site_occupancy
  Ag  Ag0  1  0.50071224  0.67313886  0.84036965  1
  Ag  Ag1  1  0.83679350  0.83401568  0.66390315  1
  Ag  Ag2  1  0.16413878  0.66316014  0.49285417  1
  Ag  Ag3  1  0.32809717  -0.00244494  0.00461696  1
  Ag  Ag4  1  0.32729579  0.66735248  0.00826660  1
  Ag  Ag5  1  0.48780630  0.66748208  0.16427037  1
  Ag  Ag6  1  0.00838533  0.66542941  0.33167084  1
  Ag  Ag7  1  0.00672944  0.33461784  0.33544170  1
  Ag  Ag8  1  0.50953271  0.00604900  0.49799619  1
  Ag  Ag9  1  0.66529855  0.49708652  0.50438505  1
  Ag  Ag10  1  0.16468229  0.00142705  0.83355625  1
  Ag  Ag11  1  0.83679865  0.00157233  0.17018505  1
  Ag  Ag12  1  0.49855572  -0.00343194  0.83518434  1
  Ag  Ag13  1  0.66231835  0.15804986  0.49555548  1
  Ag  Ag14  1  0.48932216  0.32673679  0.17100218  1
  Ag  Ag15  1  -0.00068532  -0.00685670  0.66358721  1
  Ag  Ag16  1  0.65790760  0.16365403  0.17134975  1
  Ag  Ag17  1  0.01081942  0.16293216  0.16593688  1
  Ag  Ag18  1  0.00628286  0.83902657  0.16589341  1
  Ag  Ag19  1  0.66841466  0.83540493  0.82528481  1
  Ag  Ag20  1  0.66775819  0.33280090  0.66278995  1
  Ag  Ag21  1  0.32948916  0.16777946  0.16733366  1
  Ag  Ag22  1  0.00485011  0.33063626  0.66190763  1
  Ag  Ag23  1  0.32695128  0.82155837  0.16512976  1
  Ag  Ag24  1  0.33112200  0.50890191  0.16731309  1
  Ag  Ag25  1  0.83165766  0.50311857  0.66172332  1
  Ag  Ag26  1  0.17485198  0.66294033  0.17101502  1
  Ag  Ag27  1  0.16884667  0.49514712  0.00369980  1
  Ag  Ag28  1  0.00675977  -0.00173261  0.00253609  1
  Ag  Ag29  1  0.66282853  0.00283388  0.34549075  1
  Ag  Ag30  1  0.16525285  0.33511300  0.49973163  1
  Ag  Ag31  1  0.49786237  0.00653533  0.16749010  1
  Ag  Ag32  1  0.16580533  0.32822994  0.84288837  1
  Ag  Ag33  1  0.67221427  -0.00654789  0.65788455  1
  Ag  Ag34  1  0.49917631  0.33071181  0.49639613  1
  Ag  Ag35  1  0.00215955  0.83648683  0.50421928  1
  Ag  Ag36  1  0.00980528  0.67016526  0.00772814  1
  Ag  Ag37  1  0.16965220  0.32811707  0.16366788  1
  Ag  Ag38  1  0.32224257  0.33427473  0.65929474  1
  Ag  Ag39  1  0.15943228  0.83695844  0.66295653  1
  Ag  Ag40  1  0.48834476  0.50066700  0.00419254  1
  Ag  Ag41  1  0.16533592  0.17207106  0.00882230  1
  Ag  Ag42  1  0.32565391  0.66604422  0.31930432  1
  Ag  Ag43  1  0.16571153  -0.00245675  0.50477478  1
  Ag  Ag44  1  0.16884842  0.16857481  0.32804534  1
  Ag  Ag45  1  0.67257298  0.84588211  0.50784000  1
  Ag  Ag46  1  0.66598880  0.67825872  0.66262833  1
  Ag  Ag47  1  0.01126532  0.33195123  0.00234334  1
  Ag  Ag48  1  0.49692209  0.16571440  0.32972622  1
  Ag  Ag49  1  0.82275942  -0.00332469  0.49966357  1
  Ag  Ag50  1  0.32785274  0.49722232  0.49610630  1
  Ag  Ag51  1  0.00096833  0.83604126  0.82379928  1
  Ag  Ag52  1  0.00501209  0.50135027  0.50155226  1
  Ag  Ag53  1  0.66493851  0.33246944  -0.00090231  1
  Sb  Sb54  1  0.83742349  0.32804462  0.16624632  1
  Sb  Sb55  1  0.66468274  0.67178845  0.33928297  1
  Sb  Sb56  1  0.66295881  0.16308311  0.83170479  1
  Sb  Sb57  1  0.83906177  0.16565935  0.00364404  1
  Sb  Sb58  1  0.83555204  0.83631941  0.33966303  1
  Sb  Sb59  1  0.83992021  0.33373482  0.83032258  1
  Sb  Sb60  1  0.49610708  0.66526197  0.49720321  1
  Sb  Sb61  1  0.00265302  0.50359141  0.83031631  1
  Sb  Sb62  1  0.16539035  0.83492475  0.33536375  1
  Sb  Sb63  1  0.16838101  0.00215927  0.16494679  1
  Sb  Sb64  1  0.00350134  0.16172781  0.83862633  1
  Sb  Sb65  1  0.50300587  0.49822242  0.66736584  1
  Sb  Sb66  1  0.49968829  0.83918867  0.33222164  1
  Sb  Sb67  1  0.49959344  0.83122934  0.00073608  1
  Sb  Sb68  1  0.33076848  0.83476024  0.83750896  1
  Sb  Sb69  1  0.16496783  0.83454490  -0.00064831  1
  Sb  Sb70  1  0.33101599  0.16676040  0.84016321  1
  Sb  Sb71  1  0.00608287  0.49906922  0.16976967  1
  Sb  Sb72  1  0.16948060  0.66930240  0.83606143  1
  Sb  Sb73  1  0.33028313  0.83081071  0.49638183  1
  Sb  Sb74  1  -0.00037671  0.00022097  0.33394938  1
  Sb  Sb75  1  0.66518902  0.00407172  -0.00045059  1
  Sb  Sb76  1  0.49577384  0.33192898  0.83391306  1
  Sb  Sb77  1  0.83343053  0.32981032  0.50185428  1
  Sb  Sb78  1  0.83528377  0.49941097  0.33890195  1
  Sb  Sb79  1  0.49452702  0.16948977  0.00848868  1
  Sb  Sb80  1  0.49799547  0.49425375  0.33067288  1
  Sb  Sb81  1  0.33548973  0.16998818  0.49382634  1
  Sb  Sb82  1  0.32782184  0.33652957  0.33389891  1
  Sb  Sb83  1  0.83063898  0.66933709  0.83093195  1
  Sb  Sb84  1  0.33068391  0.33546975  0.00364313  1
  Sb  Sb85  1  0.83953234  0.67357077  0.16646185  1
  Sb  Sb86  1  0.65772334  0.49432714  0.16959979  1
  Sb  Sb87  1  0.16732759  0.49718037  0.33078589  1
  Sb  Sb88  1  0.50105584  0.16651392  0.65997195  1
  Sb  Sb89  1  -0.00069673  0.16440567  0.49491248  1
  Sb  Sb90  1  0.33628125  0.66341992  0.66735453  1
  Sb  Sb91  1  0.33232417  0.00373949  0.66890879  1
  Sb  Sb92  1  0.83612005  -0.00279270  0.83083210  1
  Sb  Sb93  1  0.66146125  0.66188909  -0.00263812  1
  Sb  Sb94  1  0.33559334  -0.00157004  0.32781512  1
  Sb  Sb95  1  0.66448389  0.50231043  0.82753161  1
  Sb  Sb96  1  0.83355691  0.16471705  0.33326885  1
  Sb  Sb97  1  -0.00175838  0.67062941  0.66506092  1
  Sb  Sb98  1  0.83787858  0.83498127  -0.00371239  1
  Sb  Sb99  1  0.83802559  0.49908688  -0.00221139  1
  Sb  Sb100  1  0.16546533  0.16611631  0.66307595  1
  Sb  Sb101  1  0.66645885  0.83944138  0.16730763  1
  Sb  Sb102  1  0.83435399  0.16247614  0.66368881  1
  Sb  Sb103  1  0.50123517  0.83454166  0.66727600  1
  Sb  Sb104  1  0.83949944  0.67132704  0.50170789  1
  Sb  Sb105  1  0.33231109  0.49947612  0.83627833  1
  Sb  Sb106  1  0.66712399  0.32659354  0.33610923  1
  Sb  Sb107  1  0.16343525  0.49966028  0.66518087  1
  Te  Te108  1  0.16725740  0.16579689  0.16745785  1
  Te  Te109  1  0.16749605  0.17224562  0.49550169  1
  Te  Te110  1  0.16650858  0.16580716  0.83826840  1
  Te  Te111  1  0.16987462  0.50113209  0.16379761  1
  Te  Te112  1  0.16567305  0.49766288  0.50084480  1
  Te  Te113  1  0.16706589  0.49548296  0.83965319  1
  Te  Te114  1  0.16628746  0.82932652  0.16760988  1
  Te  Te115  1  0.16500656  0.83397954  0.50190966  1
  Te  Te116  1  0.16286183  0.83702603  0.82761481  1
  Te  Te117  1  0.49946176  0.16806582  0.16853707  1
  Te  Te118  1  0.50152106  0.16813591  0.49466748  1
  Te  Te119  1  0.49814258  0.15844195  0.83448062  1
  Te  Te120  1  0.49454867  0.49685298  0.16422453  1
  Te  Te121  1  0.49750589  0.49621552  0.49918910  1
  Te  Te122  1  0.49921068  0.50156132  0.84255332  1
  Te  Te123  1  0.49863719  0.83403701  0.16640507  1
  Te  Te124  1  0.50093336  0.83696532  0.49912657  1
  Te  Te125  1  0.50143475  0.83563803  0.83402648  1
  Te  Te126  1  0.83075543  0.16037490  0.16734077  1
  Te  Te127  1  0.82515407  0.15770073  0.49927519  1
  Te  Te128  1  0.83209564  0.16564802  0.83399844  1
  Te  Te129  1  0.83030494  0.50104472  0.16771500  1
  Te  Te130  1  0.83597248  0.50032344  0.50365615  1
  Te  Te131  1  0.83328678  0.50113570  0.82294423  1
  Te  Te132  1  0.83614939  0.84131797  0.16680733  1
  Te  Te133  1  0.83518757  0.83710893  0.50478101  1
  Te  Te134  1  0.83493001  0.83383268  0.82535252  1
  Te  Te135  1  0.16617909  0.00078562  -0.00091229  1
  Te  Te136  1  0.16779315  0.00600121  0.33966417  1
  Te  Te137  1  0.16525624  0.00042559  0.66787984  1
  Te  Te138  1  0.16908353  0.33318204  0.00218350  1
  Te  Te139  1  0.16435426  0.33087188  0.33360694  1
  Te  Te140  1  0.16385861  0.33303794  0.66034411  1
  Te  Te141  1  0.16741807  0.66620587  -0.00021852  1
  Te  Te142  1  0.16618918  0.66791707  0.33379864  1
  Te  Te143  1  0.16728748  0.67024118  0.66639423  1
  Te  Te144  1  0.49718224  0.00032221  0.00072164  1
  Te  Te145  1  0.50176768  0.00472376  0.33370412  1
  Te  Te146  1  0.50092229  0.00088464  0.66492119  1
  Te  Te147  1  0.50023309  0.33681122  0.00097168  1
  Te  Te148  1  0.50113435  0.32777911  0.33360922  1
  Te  Te149  1  0.50639780  0.33285205  0.66493659  1
  Te  Te150  1  0.49929373  0.66311413  0.00331370  1
  Te  Te151  1  0.49795715  0.66637756  0.32728744  1
  Te  Te152  1  0.50498077  0.66597601  0.66954132  1
  Te  Te153  1  0.84056432  0.00021819  0.00475462  1
  Te  Te154  1  0.82743726  0.00030177  0.33340919  1
  Te  Te155  1  0.83566581  -0.00337936  0.66442149  1
  Te  Te156  1  0.83017216  0.33401040  -0.00194680  1
  Te  Te157  1  0.84727124  0.33269512  0.33353224  1
  Te  Te158  1  0.83278678  0.33546440  0.66715690  1
  Te  Te159  1  0.84225894  0.66542238  -0.00065887  1
  Te  Te160  1  0.84111002  0.66701735  0.33295182  1
  Te  Te161  1  0.82592752  0.66780138  0.66581831  1
  Te  Te162  1  0.00440293  0.16761069  0.00465715  1
  Te  Te163  1  0.00359815  0.16934601  0.32750573  1
  Te  Te164  1  -0.00037322  0.16958695  0.66717569  1
  Te  Te165  1  0.00333657  0.49732871  -0.00108853  1
  Te  Te166  1  0.00021346  0.50098757  0.34037442  1
  Te  Te167  1  -0.00349878  0.49901643  0.66263379  1
  Te  Te168  1  -0.00001227  0.83577542  0.00568639  1
  Te  Te169  1  -0.00017279  0.82927142  0.33240077  1
  Te  Te170  1  -0.00057188  0.83285439  0.66435572  1
  Te  Te171  1  0.32764057  0.16286043  0.00618123  1
  Te  Te172  1  0.33357444  0.16658313  0.32751783  1
  Te  Te173  1  0.33344992  0.17497320  0.66689332  1
  Te  Te174  1  0.33026293  0.50172494  0.00268966  1
  Te  Te175  1  0.33357627  0.50652088  0.33370688  1
  Te  Te176  1  0.33361765  0.49538224  0.66148545  1
  Te  Te177  1  0.33351627  0.83354659  0.00506003  1
  Te  Te178  1  0.33322570  0.82636295  0.32641011  1
  Te  Te179  1  0.32568492  0.83364326  0.66655980  1
  Te  Te180  1  0.66675306  0.17217988  0.00208628  1
  Te  Te181  1  0.66522857  0.16352836  0.33230147  1
  Te  Te182  1  0.66770562  0.16771965  0.66335926  1
  Te  Te183  1  0.66922880  0.49353243  -0.00004784  1
  Te  Te184  1  0.66753846  0.50075325  0.34241426  1
  Te  Te185  1  0.66867584  0.49440314  0.66299358  1
  Te  Te186  1  0.66981653  0.83198097  -0.00695714  1
  Te  Te187  1  0.66761984  0.83984927  0.33980482  1
  Te  Te188  1  0.66446179  0.83499177  0.66574122  1
  Te  Te189  1  0.00196229  0.00010701  0.16728478  1
  Te  Te190  1  0.00605775  -0.00105062  0.50117107  1
  Te  Te191  1  0.00270197  -0.00381495  0.83088037  1
  Te  Te192  1  0.00286293  0.33297631  0.16300752  1
  Te  Te193  1  0.00022219  0.33128840  0.50175434  1
  Te  Te194  1  0.00623213  0.33357073  0.83496500  1
  Te  Te195  1  0.00276725  0.66702897  0.16720154  1
  Te  Te196  1  0.00456436  0.66798903  0.49975507  1
  Te  Te197  1  0.00093428  0.67383602  0.83837484  1
  Te  Te198  1  0.33590925  0.00441624  0.16473120  1
  Te  Te199  1  0.32802413  0.00025767  0.50006305  1
  Te  Te200  1  0.33198958  -0.00018060  0.83766200  1
  Te  Te201  1  0.33087950  0.33025062  0.16774139  1
  Te  Te202  1  0.33538689  0.33563747  0.49936082  1
  Te  Te203  1  0.32718910  0.33300390  0.82405292  1
  Te  Te204  1  0.33248331  0.66511118  0.16351001  1
  Te  Te205  1  0.32802207  0.66212916  0.50146568  1
  Te  Te206  1  0.34029386  0.66739043  0.83667031  1
  Te  Te207  1  0.66121092  0.00245569  0.16388061  1
  Te  Te208  1  0.66507973  0.00112841  0.50236971  1
  Te  Te209  1  0.66466640  -0.00373738  0.83147185  1
  Te  Te210  1  0.66806635  0.32814824  0.16698076  1
  Te  Te211  1  0.66625487  0.33550518  0.50019441  1
  Te  Te212  1  0.66574254  0.33216834  0.83228893  1
  Te  Te213  1  0.66617961  0.66801673  0.16832192  1
  Te  Te214  1  0.66505212  0.66146476  0.50201063  1
  Te  Te215  1  0.66115149  0.67103595  0.83052284  1
