# generated using pymatgen
data_AgSbTe2
_symmetry_space_group_name_H-M   'P 1'
_cell_length_a   18.34159720
_cell_length_b   18.35122381
_cell_length_c   18.34051925
_cell_angle_alpha   90.00028467
_cell_angle_beta   90.00051865
_cell_angle_gamma   89.99862461
_symmetry_Int_Tables_number   1
_chemical_formula_structural   AgSbTe2
_chemical_formula_sum   'Ag54 Sb54 Te108'
_cell_volume   6173.24922442
_cell_formula_units_Z   54
loop_
 _symmetry_equiv_pos_site_id
 _symmetry_equiv_pos_as_xyz
  1  'x, y, z'
loop_
 _atom_site_type_symbol
 _atom_site_label
 _atom_site_symmetry_multiplicity
 _atom_site_fract_x
 _atom_site_fract_y
 _atom_site_fract_z
 _atom_site_occupancy
  Ag  Ag0  1  0.50857683  0.50365803  0.33550968  1
  Ag  Ag1  1  0.34263333  0.16811432  0.83012077  1
  Ag  Ag2  1  0.67062740  0.83652425  0.16539424  1
  Ag  Ag3  1  0.16133501  0.16394295  0.66653394  1
  Ag  Ag4  1  0.16907849  0.16957509  -0.00214116  1
  Ag  Ag5  1  0.84000679  0.32385962  0.50252541  1
  Ag  Ag6  1  0.00137178  0.32319532  0.65675456  1
  Ag  Ag7  1  -0.00006516  0.32862564  0.33853586  1
  Ag  Ag8  1  0.15996534  0.32866388  0.49847423  1
  Ag  Ag9  1  0.84096108  0.00535313  0.50695025  1
  Ag  Ag10  1  0.82832101  -0.00031357  0.82013013  1
  Ag  Ag11  1  0.49848867  0.67079772  0.50082846  1
  Ag  Ag12  1  0.66875885  0.00133322  -0.00619741  1
  Ag  Ag13  1  0.16662568  0.32868782  0.16335882  1
  Ag  Ag14  1  0.50073072  0.16396580  0.67013596  1
  Ag  Ag15  1  -0.00702515  0.00561011  0.65864305  1
  Ag  Ag16  1  0.66931337  0.84154648  0.82370922  1
  Ag  Ag17  1  0.82801962  0.84712201  0.66806013  1
  Ag  Ag18  1  0.16531503  0.84792594  0.65738737  1
  Ag  Ag19  1  0.50954615  0.84172713  0.66077970  1
  Ag  Ag20  1  0.66563079  0.15962526  0.16170422  1
  Ag  Ag21  1  0.67816439  -0.00275653  0.67222925  1
  Ag  Ag22  1  0.82825550  0.49694274  0.66171817  1
  Ag  Ag23  1  0.32928713  0.83491117  0.50242649  1
  Ag  Ag24  1  0.49897146  0.32763487  0.83093207  1
  Ag  Ag25  1  0.49827059  0.32571932  0.16465536  1
  Ag  Ag26  1  0.16681807  0.83454001  0.33831741  1
  Ag  Ag27  1  0.50157899  0.82908365  0.33987445  1
  Ag  Ag28  1  0.16639220  0.00525367  0.17272030  1
  Ag  Ag29  1  0.83550934  0.16043244  0.66277271  1
  Ag  Ag30  1  0.66698250  0.67755969  0.66232001  1
  Ag  Ag31  1  0.83140401  0.83303057  0.00106409  1
  Ag  Ag32  1  0.16128612  0.00024511  0.50426973  1
  Ag  Ag33  1  0.32496313  0.32926264  -0.00402993  1
  Ag  Ag34  1  0.50078494  0.16943141  -0.01108625  1
  Ag  Ag35  1  0.83516015  0.16970797  0.34323672  1
  Ag  Ag36  1  0.50592543  0.49641457  0.66064898  1
  Ag  Ag37  1  -0.00376266  0.65689770  0.00437749  1
  Ag  Ag38  1  0.83156950  0.66720856  0.16653649  1
  Ag  Ag39  1  0.15725556  0.48572870  0.00922393  1
  Ag  Ag40  1  0.33060174  0.32429063  0.66968209  1
  Ag  Ag41  1  0.83244080  0.49619400  0.33307222  1
  Ag  Ag42  1  -0.00889086  0.83643546  0.16686797  1
  Ag  Ag43  1  0.33287065  0.00664296  0.66564362  1
  Ag  Ag44  1  -0.00165015  0.16587394  0.50241520  1
  Ag  Ag45  1  0.83662009  0.50340573  0.00655044  1
  Ag  Ag46  1  0.16755425  0.68227746  0.49864717  1
  Ag  Ag47  1  0.00013284  0.00482787  0.33976584  1
  Ag  Ag48  1  0.50662633  0.00523531  0.16856645  1
  Ag  Ag49  1  0.00656343  0.33389927  0.00343278  1
  Ag  Ag50  1  0.66943032  0.50029579  0.16859941  1
  Ag  Ag51  1  0.16102490  0.49758531  0.33185832  1
  Ag  Ag52  1  0.66661097  0.66655402  0.33525593  1
  Ag  Ag53  1  0.66408556  0.16126006  0.83227608  1
  Sb  Sb54  1  0.49956455  -0.00294134  0.50079876  1
  Sb  Sb55  1  0.32635773  0.65960306  -0.00004113  1
  Sb  Sb56  1  0.83302428  0.16667824  -0.00277065  1
  Sb  Sb57  1  0.33730842  0.66706518  0.33483876  1
  Sb  Sb58  1  0.66800515  0.32777828  0.00172602  1
  Sb  Sb59  1  0.33173502  0.50171314  0.50121610  1
  Sb  Sb60  1  0.32617472  0.16266472  0.50903146  1
  Sb  Sb61  1  0.50792960  0.84162207  0.00003773  1
  Sb  Sb62  1  0.15949155  0.66601009  0.17200220  1
  Sb  Sb63  1  -0.00323837  0.00392743  0.00049606  1
  Sb  Sb64  1  0.67077773  -0.00355686  0.33484235  1
  Sb  Sb65  1  -0.00573835  0.66977272  0.66707866  1
  Sb  Sb66  1  0.67289874  0.16439296  0.50389061  1
  Sb  Sb67  1  0.50956942  0.66787756  0.17279045  1
  Sb  Sb68  1  -0.00049196  0.49236235  0.49869765  1
  Sb  Sb69  1  0.00467704  0.84085625  0.49630376  1
  Sb  Sb70  1  0.50287901  0.49200515  0.00299754  1
  Sb  Sb71  1  0.34098363  0.84412581  0.82316730  1
  Sb  Sb72  1  0.16085467  0.83711903  0.00341075  1
  Sb  Sb73  1  0.82983874  0.32851469  0.82807661  1
  Sb  Sb74  1  0.49728318  0.33584251  0.50078540  1
  Sb  Sb75  1  0.32686608  0.33269592  0.33591474  1
  Sb  Sb76  1  -0.00403900  0.50040706  0.16680832  1
  Sb  Sb77  1  -0.00251914  0.16691680  0.82669858  1
  Sb  Sb78  1  0.67050459  0.67147995  0.00116500  1
  Sb  Sb79  1  0.67206328  0.33751366  0.33043238  1
  Sb  Sb80  1  -0.00289546  0.66703044  0.33153182  1
  Sb  Sb81  1  -0.00252263  0.16518312  0.17003372  1
  Sb  Sb82  1  0.50320132  0.66333962  0.82557052  1
  Sb  Sb83  1  0.50858644  0.16713281  0.33430711  1
  Sb  Sb84  1  0.32761901  -0.00001266  0.33849225  1
  Sb  Sb85  1  -0.00610910  0.83619045  0.83550118  1
  Sb  Sb86  1  -0.00102986  0.49740058  0.83519771  1
  Sb  Sb87  1  0.66415889  0.83302262  0.50130475  1
  Sb  Sb88  1  0.16509564  0.49290944  0.66309720  1
  Sb  Sb89  1  0.33497892  0.49093736  0.83193124  1
  Sb  Sb90  1  0.66781149  0.49873731  0.83562098  1
  Sb  Sb91  1  0.16128621  0.00186359  0.82709631  1
  Sb  Sb92  1  0.83147743  0.67148664  0.83587068  1
  Sb  Sb93  1  0.33690966  0.00599351  -0.00451402  1
  Sb  Sb94  1  0.16507660  0.66796459  0.82652115  1
  Sb  Sb95  1  0.33579446  0.83718526  0.17033898  1
  Sb  Sb96  1  0.66782320  0.32947171  0.66677970  1
  Sb  Sb97  1  0.83240103  -0.00280084  0.16925294  1
  Sb  Sb98  1  0.83326122  0.83362368  0.33531622  1
  Sb  Sb99  1  0.33720853  0.16727857  0.16131482  1
  Sb  Sb100  1  0.16021493  0.16606076  0.33627870  1
  Sb  Sb101  1  0.33687742  0.49639123  0.16746943  1
  Sb  Sb102  1  0.33835249  0.66824378  0.66362212  1
  Sb  Sb103  1  0.83437488  0.66784024  0.49856944  1
  Sb  Sb104  1  0.66679271  0.50079094  0.49709044  1
  Sb  Sb105  1  0.50838733  0.00690896  0.83093272  1
  Sb  Sb106  1  0.83581787  0.33582080  0.16954194  1
  Sb  Sb107  1  0.17008308  0.33079972  0.83436621  1
  Te  Te108  1  0.16696440  0.16746518  0.16616521  1
  Te  Te109  1  0.16144556  0.16657722  0.50309738  1
  Te  Te110  1  0.16728021  0.16550255  0.83207890  1
  Te  Te111  1  0.16709716  0.49806241  0.16817919  1
  Te  Te112  1  0.16644565  0.48975826  0.49477553  1
  Te  Te113  1  0.16744334  0.50237664  0.84228972  1
  Te  Te114  1  0.16769884  0.83487609  0.17063360  1
  Te  Te115  1  0.16664777  0.83846749  0.49978126  1
  Te  Te116  1  0.16874374  0.83341131  0.82779852  1
  Te  Te117  1  0.50357676  0.16611821  0.16951092  1
  Te  Te118  1  0.49994014  0.16702348  0.50562745  1
  Te  Te119  1  0.50305856  0.16775907  0.83110849  1
  Te  Te120  1  0.50483430  0.49967522  0.17096732  1
  Te  Te121  1  0.49874278  0.50429363  0.49821710  1
  Te  Te122  1  0.50166095  0.49163094  0.82958826  1
  Te  Te123  1  0.50390286  0.83605344  0.16824725  1
  Te  Te124  1  0.49672614  0.83213535  0.50066756  1
  Te  Te125  1  0.50769381  0.83235984  0.82874272  1
  Te  Te126  1  0.82770860  0.16754327  0.16597249  1
  Te  Te127  1  0.83549855  0.16588129  0.50215988  1
  Te  Te128  1  0.82755451  0.16199286  0.82928638  1
  Te  Te129  1  0.83039111  0.50150815  0.16785070  1
  Te  Te130  1  0.83321205  0.50058185  0.49761804  1
  Te  Te131  1  0.83188825  0.49972787  0.83371883  1
  Te  Te132  1  0.83181388  0.83165609  0.16822187  1
  Te  Te133  1  0.83461064  0.83504640  0.50557046  1
  Te  Te134  1  0.82870433  0.83724015  0.83137682  1
  Te  Te135  1  0.16707089  0.00421937  0.00217933  1
  Te  Te136  1  0.16265347  -0.00096816  0.33351974  1
  Te  Te137  1  0.16553023  0.00394038  0.66653246  1
  Te  Te138  1  0.16739790  0.33027167  -0.00139156  1
  Te  Te139  1  0.16323586  0.33342317  0.33334820  1
  Te  Te140  1  0.16344881  0.33218389  0.66724066  1
  Te  Te141  1  0.15963235  0.66748701  0.00040319  1
  Te  Te142  1  0.16603566  0.66622422  0.33802689  1
  Te  Te143  1  0.16515936  0.66270101  0.65962450  1
  Te  Te144  1  0.50379329  0.00709005  0.00672695  1
  Te  Te145  1  0.49929836  -0.00300157  0.33061756  1
  Te  Te146  1  0.49477184  -0.00001708  0.66534701  1
  Te  Te147  1  0.50077214  0.32895313  0.00464766  1
  Te  Te148  1  0.49827874  0.33774788  0.33122544  1
  Te  Te149  1  0.49923982  0.33222833  0.66451068  1
  Te  Te150  1  0.49715546  0.66356870  -0.00151494  1
  Te  Te151  1  0.50362507  0.66654895  0.33792786  1
  Te  Te152  1  0.50437551  0.66514493  0.66167038  1
  Te  Te153  1  0.82970647  -0.00249220  0.00184103  1
  Te  Te154  1  0.83891593  0.00151018  0.33699437  1
  Te  Te155  1  0.83420375  0.00201306  0.66402952  1
  Te  Te156  1  0.83833815  0.33667858  -0.00066979  1
  Te  Te157  1  0.83816776  0.33521380  0.33498865  1
  Te  Te158  1  0.83591604  0.33634761  0.66450074  1
  Te  Te159  1  0.83506449  0.66712547  0.00282393  1
  Te  Te160  1  0.82941594  0.66335797  0.33193975  1
  Te  Te161  1  0.82911315  0.65753920  0.66584092  1
  Te  Te162  1  0.00405424  0.17190560  0.00001148  1
  Te  Te163  1  -0.00463991  0.16659442  0.33598781  1
  Te  Te164  1  -0.00086143  0.16628537  0.66545996  1
  Te  Te165  1  -0.00168955  0.49702329  0.00091808  1
  Te  Te166  1  -0.00042385  0.49718084  0.33248448  1
  Te  Te167  1  -0.00486502  0.49904965  0.66820366  1
  Te  Te168  1  -0.00581134  0.83609631  0.00402226  1
  Te  Te169  1  0.00183779  0.83418564  0.32784435  1
  Te  Te170  1  0.00072771  0.83457770  0.66830859  1
  Te  Te171  1  0.33421949  0.17014427  -0.00429204  1
  Te  Te172  1  0.33708327  0.16690022  0.33475913  1
  Te  Te173  1  0.33449183  0.16720046  0.66877885  1
  Te  Te174  1  0.32964440  0.49180251  -0.00037531  1
  Te  Te175  1  0.33080180  0.49980070  0.33374343  1
  Te  Te176  1  0.33858255  0.49634956  0.66724699  1
  Te  Te177  1  0.33320997  0.83123789  -0.00462063  1
  Te  Te178  1  0.33336017  0.83330187  0.33820879  1
  Te  Te179  1  0.32971804  0.83466386  0.66311980  1
  Te  Te180  1  0.66575963  0.16257289  0.00054592  1
  Te  Te181  1  0.67479217  0.16620156  0.32790489  1
  Te  Te182  1  0.66706265  0.16319802  0.66851171  1
  Te  Te183  1  0.67186277  0.50253659  0.00446835  1
  Te  Te184  1  0.66777223  0.50338856  0.33012956  1
  Te  Te185  1  0.66563773  0.49871470  0.66776821  1
  Te  Te186  1  0.67122783  0.83776306  0.00492180  1
  Te  Te187  1  0.66500182  0.82923327  0.33016249  1
  Te  Te188  1  0.66777679  0.83565287  0.66461897  1
  Te  Te189  1  0.00445023  -0.00229082  0.16758305  1
  Te  Te190  1  0.00137931  0.00221436  0.49941591  1
  Te  Te191  1  -0.00896697  0.00027311  0.82967625  1
  Te  Te192  1  0.00501777  0.33244850  0.16662980  1
  Te  Te193  1  -0.00016816  0.32942493  0.49956435  1
  Te  Te194  1  -0.00161988  0.33239541  0.83606890  1
  Te  Te195  1  -0.00636565  0.67259070  0.16423818  1
  Te  Te196  1  0.00645357  0.66584306  0.50001719  1
  Te  Te197  1  -0.00032824  0.66797020  0.84385199  1
  Te  Te198  1  0.32798601  0.00032682  0.16579211  1
  Te  Te199  1  0.32828777  -0.00350029  0.50530476  1
  Te  Te200  1  0.33228581  0.00777230  0.82754112  1
  Te  Te201  1  0.33144532  0.33242680  0.16385982  1
  Te  Te202  1  0.32788599  0.33249543  0.50589368  1
  Te  Te203  1  0.33812339  0.32737888  0.83164213  1
  Te  Te204  1  0.33402020  0.66763147  0.16536184  1
  Te  Te205  1  0.33167748  0.67253018  0.49989141  1
  Te  Te206  1  0.33392492  0.66738452  0.83353326  1
  Te  Te207  1  0.66612918  -0.00124605  0.16938980  1
  Te  Te208  1  0.67077527  0.00015717  0.50535467  1
  Te  Te209  1  0.66817773  0.00016182  0.83350643  1
  Te  Te210  1  0.66242375  0.33530898  0.16624172  1
  Te  Te211  1  0.67504100  0.33242800  0.49829345  1
  Te  Te212  1  0.66014849  0.32848969  0.83438232  1
  Te  Te213  1  0.67196373  0.66769242  0.16808409  1
  Te  Te214  1  0.66471848  0.66653641  0.50042039  1
  Te  Te215  1  0.66635147  0.67102362  0.82656670  1
