# generated using pymatgen
data_AgSbTe2
_symmetry_space_group_name_H-M   'P 1'
_cell_length_a   18.35698362
_cell_length_b   18.36461824
_cell_length_c   18.35441602
_cell_angle_alpha   90.00160630
_cell_angle_beta   90.00466155
_cell_angle_gamma   90.00015290
_symmetry_Int_Tables_number   1
_chemical_formula_structural   AgSbTe2
_chemical_formula_sum   'Ag54 Sb54 Te108'
_cell_volume   6187.62228124
_cell_formula_units_Z   54
loop_
 _symmetry_equiv_pos_site_id
 _symmetry_equiv_pos_as_xyz
  1  'x, y, z'
loop_
 _atom_site_type_symbol
 _atom_site_label
 _atom_site_symmetry_multiplicity
 _atom_site_fract_x
 _atom_site_fract_y
 _atom_site_fract_z
 _atom_site_occupancy
  Ag  Ag0  1  0.83116032  0.84462165  0.65710586  1
  Ag  Ag1  1  0.82730022  0.67043115  0.49661431  1
  Ag  Ag2  1  0.66966138  0.32488013  0.66225549  1
  Ag  Ag3  1  0.66401873  0.15582178  0.50005290  1
  Ag  Ag4  1  0.67617701  0.50123994  0.83688349  1
  Ag  Ag5  1  0.51221723  0.66457766  0.17755470  1
  Ag  Ag6  1  0.66815546  0.51028427  0.16338575  1
  Ag  Ag7  1  0.82901127  0.82727483  0.34012684  1
  Ag  Ag8  1  0.34659774  0.16758518  0.50105803  1
  Ag  Ag9  1  0.51293757  0.84020694  0.65629955  1
  Ag  Ag10  1  0.82877733  0.15467928  0.66358116  1
  Ag  Ag11  1  0.33432414  0.49891020  0.82776226  1
  Ag  Ag12  1  0.82407861  0.50234569  -0.00139158  1
  Ag  Ag13  1  0.82040540  0.67100370  0.18416994  1
  Ag  Ag14  1  0.50810121  0.33071297  0.49828755  1
  Ag  Ag15  1  0.33641056  0.49874205  0.50043955  1
  Ag  Ag16  1  0.16773208  0.16425111  -0.00385921  1
  Ag  Ag17  1  0.50643752  0.49866380  0.00128784  1
  Ag  Ag18  1  0.51048015  0.16293386  0.65732973  1
  Ag  Ag19  1  -0.01020172  0.00040704  0.66290756  1
  Ag  Ag20  1  0.67648249  0.67828579  0.32584827  1
  Ag  Ag21  1  0.15713422  0.83937546  0.66346111  1
  Ag  Ag22  1  0.34758109  0.83537204  0.49956768  1
  Ag  Ag23  1  0.16406564  0.33502899  0.83135291  1
  Ag  Ag24  1  0.16493336  0.16449765  0.34254830  1
  Ag  Ag25  1  0.16259662  0.66482407  0.83275376  1
  Ag  Ag26  1  0.16526105  0.83486950  -0.00784736  1
  Ag  Ag27  1  0.00189028  0.16557719  0.82799372  1
  Ag  Ag28  1  0.66099714  0.84334581  0.49264535  1
  Ag  Ag29  1  -0.01218893  0.67436121  0.33598295  1
  Ag  Ag30  1  0.83657990  -0.00111312  0.81584380  1
  Ag  Ag31  1  -0.00489538  0.50051197  0.82687285  1
  Ag  Ag32  1  -0.01428967  0.49936987  0.50109856  1
  Ag  Ag33  1  -0.01196170  -0.00614062  0.34166386  1
  Ag  Ag34  1  -0.00045449  0.33225641  0.33695257  1
  Ag  Ag35  1  0.33421615  0.33300704  0.33924719  1
  Ag  Ag36  1  0.67154265  -0.01043792  0.34576625  1
  Ag  Ag37  1  0.00042869  0.83407743  0.82735120  1
  Ag  Ag38  1  0.66674556  0.16464802  0.17991053  1
  Ag  Ag39  1  0.66731631  0.66292310  0.01279324  1
  Ag  Ag40  1  0.50974422  0.67939210  0.49550068  1
  Ag  Ag41  1  0.51860491  0.83016320  0.34784949  1
  Ag  Ag42  1  0.83192503  0.49962317  0.65939398  1
  Ag  Ag43  1  0.50172947  0.17029629  -0.00120515  1
  Ag  Ag44  1  0.66862062  0.81946506  0.18209359  1
  Ag  Ag45  1  0.50436941  0.33484338  0.17575834  1
  Ag  Ag46  1  0.15992558  0.16285558  0.66478448  1
  Ag  Ag47  1  0.82791061  -0.00949236  0.18305940  1
  Ag  Ag48  1  0.16125112  0.83649850  0.34216107  1
  Ag  Ag49  1  0.82689871  0.33502607  0.50186374  1
  Ag  Ag50  1  0.51242200  -0.00990071  0.50130622  1
  Ag  Ag51  1  0.82482630  -0.00915868  0.50205989  1
  Ag  Ag52  1  0.67847166  0.00431501  0.65561923  1
  Ag  Ag53  1  0.83320590  0.51400499  0.34272521  1
  Sb  Sb54  1  0.16008175  0.00038482  0.83006187  1
  Sb  Sb55  1  0.33503734  0.00021623  0.66332719  1
  Sb  Sb56  1  0.32699110  0.17182723  0.82709202  1
  Sb  Sb57  1  0.33616169  0.00136584  0.33820803  1
  Sb  Sb58  1  0.34341753  0.49921957  0.16968071  1
  Sb  Sb59  1  0.49860224  0.33412215  0.83052470  1
  Sb  Sb60  1  0.16523974  0.66935373  0.50216277  1
  Sb  Sb61  1  0.49897672  0.83191654  0.00153844  1
  Sb  Sb62  1  0.49941528  0.16431068  0.34025078  1
  Sb  Sb63  1  0.83585015  0.66665816  0.82956818  1
  Sb  Sb64  1  0.33518118  0.33373208  0.00209290  1
  Sb  Sb65  1  0.50602301  0.49941645  0.66552206  1
  Sb  Sb66  1  0.67259720  0.82954950  0.82827742  1
  Sb  Sb67  1  0.50795213  0.50351292  0.33352141  1
  Sb  Sb68  1  -0.00765943  0.83370126  0.16917101  1
  Sb  Sb69  1  0.83483774  0.16176238  0.34215506  1
  Sb  Sb70  1  -0.01118315  0.50112587  0.17094489  1
  Sb  Sb71  1  -0.00618169  0.16583033  0.16726112  1
  Sb  Sb72  1  0.49977368  0.66554591  0.82958017  1
  Sb  Sb73  1  -0.00307793  -0.00032189  -0.00374901  1
  Sb  Sb74  1  0.66792501  -0.00299933  0.00111877  1
  Sb  Sb75  1  0.51063316  -0.00024929  0.17445979  1
  Sb  Sb76  1  0.16192134  0.49907699  0.66735816  1
  Sb  Sb77  1  -0.00480188  0.16880480  0.50293541  1
  Sb  Sb78  1  -0.00232862  0.67094138  0.66202986  1
  Sb  Sb79  1  0.33756906  0.33216197  0.65996026  1
  Sb  Sb80  1  0.51055737  0.00163695  0.82442171  1
  Sb  Sb81  1  0.15779222  -0.00038091  0.16997425  1
  Sb  Sb82  1  0.66877221  0.66966831  0.65979116  1
  Sb  Sb83  1  0.83079614  0.16981797  -0.00509348  1
  Sb  Sb84  1  0.16439319  0.66921395  0.16575566  1
  Sb  Sb85  1  0.33956477  0.16736523  0.17246225  1
  Sb  Sb86  1  0.83439108  0.82928774  0.00068675  1
  Sb  Sb87  1  0.16557904  0.33116274  0.50325208  1
  Sb  Sb88  1  0.16707674  0.50069296  -0.00594712  1
  Sb  Sb89  1  0.33766468  0.66599326  -0.00085789  1
  Sb  Sb90  1  0.16275062  -0.00044931  0.50019029  1
  Sb  Sb91  1  0.67100968  0.17097749  0.82576504  1
  Sb  Sb92  1  -0.00489651  0.32951363  0.66338916  1
  Sb  Sb93  1  0.33341357  0.66695097  0.66417704  1
  Sb  Sb94  1  0.33271243  0.00072936  -0.00123629  1
  Sb  Sb95  1  0.66610908  0.33908242  -0.00194406  1
  Sb  Sb96  1  0.15966901  0.50051482  0.33507250  1
  Sb  Sb97  1  0.66776393  0.50245854  0.49853318  1
  Sb  Sb98  1  -0.00753045  0.83111745  0.50123935  1
  Sb  Sb99  1  0.33938557  0.83192966  0.17629865  1
  Sb  Sb100  1  0.82576104  0.33559457  0.17521029  1
  Sb  Sb101  1  0.66765697  0.33225693  0.33899165  1
  Sb  Sb102  1  -0.00545434  0.66578575  0.00156417  1
  Sb  Sb103  1  -0.00010306  0.33415783  0.00064268  1
  Sb  Sb104  1  0.32548882  0.82816062  0.82477692  1
  Sb  Sb105  1  0.83620991  0.33444520  0.82599840  1
  Sb  Sb106  1  0.17034414  0.33169266  0.16689781  1
  Sb  Sb107  1  0.33592404  0.66400478  0.33688700  1
  Te  Te108  1  0.16733351  0.16659432  0.16160695  1
  Te  Te109  1  0.16474078  0.16573320  0.50193426  1
  Te  Te110  1  0.16383026  0.16679707  0.83131203  1
  Te  Te111  1  0.16762518  0.50083206  0.16399743  1
  Te  Te112  1  0.17600848  0.50120340  0.50097689  1
  Te  Te113  1  0.16275799  0.50007754  0.83231741  1
  Te  Te114  1  0.16759741  0.83316090  0.16609123  1
  Te  Te115  1  0.16437999  0.83349702  0.50288235  1
  Te  Te116  1  0.16232117  0.83303202  0.82906855  1
  Te  Te117  1  0.50364078  0.16823632  0.16538195  1
  Te  Te118  1  0.50255464  0.17316030  0.50081115  1
  Te  Te119  1  0.49699018  0.16729013  0.83353190  1
  Te  Te120  1  0.50579060  0.49981554  0.16561235  1
  Te  Te121  1  0.49664419  0.49071921  0.50055445  1
  Te  Te122  1  0.49572383  0.50052792  0.83572278  1
  Te  Te123  1  0.50593028  0.83018622  0.16757037  1
  Te  Te124  1  0.50184491  0.83418445  0.50146702  1
  Te  Te125  1  0.49677098  0.83362165  0.82856392  1
  Te  Te126  1  0.82787662  0.16772218  0.16215018  1
  Te  Te127  1  0.83060275  0.17236012  0.50539681  1
  Te  Te128  1  0.83893622  0.16479370  0.82798983  1
  Te  Te129  1  0.82789102  0.50226086  0.16305549  1
  Te  Te130  1  0.82974472  0.50000441  0.49899878  1
  Te  Te131  1  0.83587318  0.50010620  0.83583002  1
  Te  Te132  1  0.82819979  0.83166317  0.16603917  1
  Te  Te133  1  0.83293614  0.83141697  0.49994940  1
  Te  Te134  1  0.83945580  0.83574065  0.83266860  1
  Te  Te135  1  0.16520455  0.00100888  0.00139490  1
  Te  Te136  1  0.16415842  0.00115145  0.33338804  1
  Te  Te137  1  0.16316547  0.00070498  0.66597763  1
  Te  Te138  1  0.16737145  0.32830947  -0.00409560  1
  Te  Te139  1  0.16509030  0.33004091  0.33227424  1
  Te  Te140  1  0.16605373  0.32890051  0.67148497  1
  Te  Te141  1  0.16616219  0.67034967  -0.00310807  1
  Te  Te142  1  0.16385903  0.67100588  0.33260095  1
  Te  Te143  1  0.16519300  0.67145593  0.67161175  1
  Te  Te144  1  0.50011970  0.00479324  -0.00059084  1
  Te  Te145  1  0.50406124  -0.00667548  0.33908282  1
  Te  Te146  1  0.50187240  0.00166888  0.66209600  1
  Te  Te147  1  0.49987223  0.33276336  0.00036760  1
  Te  Te148  1  0.49876886  0.33332556  0.33493601  1
  Te  Te149  1  0.50464537  0.32904013  0.66328315  1
  Te  Te150  1  0.50511206  0.66412699  -0.00156340  1
  Te  Te151  1  0.50150462  0.66926876  0.33610718  1
  Te  Te152  1  0.50076789  0.67210361  0.65953907  1
  Te  Te153  1  0.83329307  0.00033923  0.00570911  1
  Te  Te154  1  0.83154451  0.00190945  0.33927913  1
  Te  Te155  1  0.83429941  -0.00021451  0.66049178  1
  Te  Te156  1  0.83404812  0.34038060  0.00150777  1
  Te  Te157  1  0.83708129  0.32931388  0.33953977  1
  Te  Te158  1  0.83034587  0.34060786  0.66229268  1
  Te  Te159  1  0.82856801  0.66261116  -0.00133737  1
  Te  Te160  1  0.83264876  0.66830634  0.33775530  1
  Te  Te161  1  0.83422490  0.65996148  0.66134839  1
  Te  Te162  1  0.00356071  0.16709915  -0.00499689  1
  Te  Te163  1  0.00452079  0.16693209  0.33286895  1
  Te  Te164  1  0.00067532  0.16431005  0.66816186  1
  Te  Te165  1  -0.00137572  0.50000525  -0.00488322  1
  Te  Te166  1  -0.00470354  0.49799961  0.33653996  1
  Te  Te167  1  -0.00300598  0.49914756  0.66587325  1
  Te  Te168  1  0.00561379  0.83281480  -0.00396047  1
  Te  Te169  1  -0.00007373  0.83516825  0.33385226  1
  Te  Te170  1  -0.00357699  0.83623806  0.66722189  1
  Te  Te171  1  0.33283903  0.16663677  -0.00037416  1
  Te  Te172  1  0.32829730  0.16960207  0.33911812  1
  Te  Te173  1  0.33160547  0.16649595  0.66046926  1
  Te  Te174  1  0.33885963  0.50022275  -0.00232725  1
  Te  Te175  1  0.33160603  0.49553135  0.33708557  1
  Te  Te176  1  0.33397048  0.49936296  0.66657961  1
  Te  Te177  1  0.32690565  0.83344205  0.00020057  1
  Te  Te178  1  0.32235225  0.83360912  0.33978425  1
  Te  Te179  1  0.33013676  0.83385756  0.65898816  1
  Te  Te180  1  0.66257230  0.16705677  -0.00634436  1
  Te  Te181  1  0.66591589  0.16534974  0.33883986  1
  Te  Te182  1  0.66837286  0.16527569  0.66494382  1
  Te  Te183  1  0.66429339  0.50028411  -0.00023203  1
  Te  Te184  1  0.67283022  0.49851842  0.32758919  1
  Te  Te185  1  0.66931594  0.50169869  0.67079442  1
  Te  Te186  1  0.66513046  0.82787031  -0.00229357  1
  Te  Te187  1  0.67335054  0.83460591  0.33589053  1
  Te  Te188  1  0.67105088  0.83606278  0.66498212  1
  Te  Te189  1  -0.00985710  0.00049691  0.17410175  1
  Te  Te190  1  -0.00315838  0.00194774  0.50038399  1
  Te  Te191  1  -0.00459751  -0.00003182  0.83024585  1
  Te  Te192  1  0.00060892  0.33357465  0.17354158  1
  Te  Te193  1  -0.00109975  0.33888191  0.49658006  1
  Te  Te194  1  0.00315818  0.33392295  0.83344922  1
  Te  Te195  1  -0.00447961  0.66659215  0.17320869  1
  Te  Te196  1  -0.00139149  0.65868121  0.49557875  1
  Te  Te197  1  0.00294942  0.66583980  0.83404434  1
  Te  Te198  1  0.33368863  -0.00059471  0.16732391  1
  Te  Te199  1  0.33704019  0.00150994  0.49977154  1
  Te  Te200  1  0.33528998  -0.00093526  0.83249003  1
  Te  Te201  1  0.34141487  0.33381190  0.17464074  1
  Te  Te202  1  0.33192482  0.33111037  0.49737452  1
  Te  Te203  1  0.32757019  0.33959817  0.83274875  1
  Te  Te204  1  0.34151895  0.66566197  0.16711143  1
  Te  Te205  1  0.33655154  0.66515237  0.49963730  1
  Te  Te206  1  0.32733058  0.65970582  0.83303978  1
  Te  Te207  1  0.67191028  0.00763514  0.16613167  1
  Te  Te208  1  0.66695373  0.00102779  0.50063831  1
  Te  Te209  1  0.67566969  -0.00117966  0.83083118  1
  Te  Te210  1  0.66198145  0.32400254  0.16644071  1
  Te  Te211  1  0.66797710  0.33701159  0.50292957  1
  Te  Te212  1  0.66680614  0.34000904  0.82641773  1
  Te  Te213  1  0.66689365  0.66541637  0.16778394  1
  Te  Te214  1  0.66700244  0.66722746  0.49529556  1
  Te  Te215  1  0.66684042  0.66093749  0.83245150  1
