# generated using pymatgen
data_AgSbTe2
_symmetry_space_group_name_H-M   'P 1'
_cell_length_a   18.33992582
_cell_length_b   18.33672423
_cell_length_c   18.33362759
_cell_angle_alpha   89.99893005
_cell_angle_beta   89.99771645
_cell_angle_gamma   89.99679149
_symmetry_Int_Tables_number   1
_chemical_formula_structural   AgSbTe2
_chemical_formula_sum   'Ag54 Sb54 Te108'
_cell_volume   6165.49191359
_cell_formula_units_Z   54
loop_
 _symmetry_equiv_pos_site_id
 _symmetry_equiv_pos_as_xyz
  1  'x, y, z'
loop_
 _atom_site_type_symbol
 _atom_site_label
 _atom_site_symmetry_multiplicity
 _atom_site_fract_x
 _atom_site_fract_y
 _atom_site_fract_z
 _atom_site_occupancy
  Ag  Ag0  1  0.00681092  0.34542134  -0.00079332  1
  Ag  Ag1  1  0.66133242  0.68147225  0.32220995  1
  Ag  Ag2  1  0.34027086  0.67721678  0.32403449  1
  Ag  Ag3  1  0.15832384  0.49321089  -0.00338014  1
  Ag  Ag4  1  0.16889484  0.83907454  0.32350431  1
  Ag  Ag5  1  -0.01107835  0.49794960  0.84063756  1
  Ag  Ag6  1  0.83299369  0.84158622  0.66980163  1
  Ag  Ag7  1  0.33322676  0.33190429  -0.00234468  1
  Ag  Ag8  1  0.16920573  0.33367160  0.15845205  1
  Ag  Ag9  1  0.00127412  0.50525854  0.15233769  1
  Ag  Ag10  1  0.50274015  0.67715922  0.16452129  1
  Ag  Ag11  1  0.49994946  0.33182185  0.15848833  1
  Ag  Ag12  1  0.50649365  0.84161878  0.32352139  1
  Ag  Ag13  1  0.66348792  0.16395932  0.50346892  1
  Ag  Ag14  1  0.66324938  0.83467653  0.16137348  1
  Ag  Ag15  1  0.82441304  -0.00196241  0.83403356  1
  Ag  Ag16  1  -0.00390075  0.65841775  -0.00021614  1
  Ag  Ag17  1  0.66203541  -0.00687047  -0.00779753  1
  Ag  Ag18  1  0.51205747  0.00501974  0.84092763  1
  Ag  Ag19  1  -0.00204425  -0.00346038  -0.00332800  1
  Ag  Ag20  1  0.67252456  0.49830752  0.83706759  1
  Ag  Ag21  1  0.33559456  0.67009019  0.00205979  1
  Ag  Ag22  1  0.34285968  -0.00050245  -0.00209705  1
  Ag  Ag23  1  -0.00340625  0.83291334  0.16289458  1
  Ag  Ag24  1  0.66321220  0.32661555  0.32374828  1
  Ag  Ag25  1  0.16496474  0.49624035  0.67925989  1
  Ag  Ag26  1  0.82884128  0.15826013  0.67595110  1
  Ag  Ag27  1  0.82971720  0.16757807  -0.00553561  1
  Ag  Ag28  1  0.66935306  0.84710352  0.84616011  1
  Ag  Ag29  1  0.66338585  0.33175428  -0.00186536  1
  Ag  Ag30  1  0.49851777  0.15637253  0.33288519  1
  Ag  Ag31  1  0.33440239  0.16303077  0.50024931  1
  Ag  Ag32  1  0.84299637  0.49768934  -0.00396114  1
  Ag  Ag33  1  0.16693329  0.83374274  0.00303618  1
  Ag  Ag34  1  0.17601924  0.15884049  0.33679378  1
  Ag  Ag35  1  0.50203903  -0.00711871  0.15995608  1
  Ag  Ag36  1  0.66933388  0.00124236  0.68015653  1
  Ag  Ag37  1  0.16876848  0.00309403  0.49799876  1
  Ag  Ag38  1  0.50068642  0.32605763  0.84120093  1
  Ag  Ag39  1  0.16746967  0.32518693  0.49752248  1
  Ag  Ag40  1  0.34104529  0.16494849  0.83328546  1
  Ag  Ag41  1  -0.01125862  -0.00144098  0.67528098  1
  Ag  Ag42  1  0.50610802  0.83959332  0.00513093  1
  Ag  Ag43  1  0.82243855  0.83461894  0.33531467  1
  Ag  Ag44  1  0.66469493  0.15914816  0.83555328  1
  Ag  Ag45  1  0.33533754  0.00216398  0.67153663  1
  Ag  Ag46  1  0.34038677  -0.00110360  0.33100309  1
  Ag  Ag47  1  0.66614794  0.67581385  0.00017897  1
  Ag  Ag48  1  0.50553921  0.49917582  0.67283284  1
  Ag  Ag49  1  0.82981561  0.66335229  0.83637686  1
  Ag  Ag50  1  0.65689993  -0.00148236  0.33025990  1
  Ag  Ag51  1  0.83377768  0.49981873  0.67949168  1
  Ag  Ag52  1  0.00035353  0.83632355  0.49197963  1
  Ag  Ag53  1  0.17183950  0.33501663  0.84146960  1
  Sb  Sb54  1  0.82678493  -0.00420811  0.15792422  1
  Sb  Sb55  1  0.66771086  0.66993605  0.67260715  1
  Sb  Sb56  1  0.66711855  0.49449035  0.50536595  1
  Sb  Sb57  1  -0.00161680  0.67210261  0.32378451  1
  Sb  Sb58  1  0.82681311  0.15895368  0.33321053  1
  Sb  Sb59  1  -0.00345436  0.17011447  0.83550043  1
  Sb  Sb60  1  0.16713666  0.67008592  0.49695643  1
  Sb  Sb61  1  0.33290991  0.32777316  0.67260706  1
  Sb  Sb62  1  0.66883944  0.50315291  0.15761709  1
  Sb  Sb63  1  0.16702179  0.00474889  0.83297468  1
  Sb  Sb64  1  0.16707835  0.50029792  0.32815976  1
  Sb  Sb65  1  0.83134269  0.83324008  -0.00307150  1
  Sb  Sb66  1  0.50633271  0.83510955  0.66980667  1
  Sb  Sb67  1  0.33381967  0.67076524  0.67166602  1
  Sb  Sb68  1  0.33442146  0.49500137  0.83553020  1
  Sb  Sb69  1  0.66967816  0.84081957  0.49621162  1
  Sb  Sb70  1  0.00181552  0.16387245  0.16329979  1
  Sb  Sb71  1  0.83007677  0.50592605  0.32862699  1
  Sb  Sb72  1  0.66653564  0.32820560  0.67277389  1
  Sb  Sb73  1  0.33578636  0.16603394  0.16353019  1
  Sb  Sb74  1  0.17022621  0.66725976  0.16343576  1
  Sb  Sb75  1  -0.00204804  0.66977454  0.67402503  1
  Sb  Sb76  1  0.16197881  0.66145405  0.83912035  1
  Sb  Sb77  1  0.00101113  0.33116639  0.67389574  1
  Sb  Sb78  1  0.00021727  -0.00312518  0.33135383  1
  Sb  Sb79  1  0.49776880  0.33016993  0.50061885  1
  Sb  Sb80  1  0.00229134  0.50310378  0.50638042  1
  Sb  Sb81  1  0.50623502  0.66817944  0.84178244  1
  Sb  Sb82  1  0.33125571  0.49346082  0.50114387  1
  Sb  Sb83  1  0.50109676  0.49919209  -0.00320683  1
  Sb  Sb84  1  0.33643654  0.32799783  0.32812768  1
  Sb  Sb85  1  0.49724816  0.00109787  0.49761497  1
  Sb  Sb86  1  0.83191165  0.66963328  0.50432013  1
  Sb  Sb87  1  0.33798956  0.83381642  0.16581871  1
  Sb  Sb88  1  0.32757924  0.84156864  0.49516442  1
  Sb  Sb89  1  0.16566244  0.16761254  0.00208652  1
  Sb  Sb90  1  0.50332606  0.16641814  0.66845887  1
  Sb  Sb91  1  0.34047587  0.84144711  0.83877393  1
  Sb  Sb92  1  -0.00046858  0.33348120  0.32504551  1
  Sb  Sb93  1  0.83621057  0.33104386  0.50067193  1
  Sb  Sb94  1  0.83465085  -0.00063811  0.50780055  1
  Sb  Sb95  1  0.17149407  0.00036648  0.16860160  1
  Sb  Sb96  1  0.50413574  0.16302548  0.00068191  1
  Sb  Sb97  1  0.82930872  0.33315922  0.83717808  1
  Sb  Sb98  1  0.66312116  0.16119013  0.16234253  1
  Sb  Sb99  1  0.00112980  0.16109243  0.50205497  1
  Sb  Sb100  1  0.83083387  0.33400688  0.16166336  1
  Sb  Sb101  1  0.50188398  0.50078999  0.33274625  1
  Sb  Sb102  1  0.16159576  0.83445581  0.66987411  1
  Sb  Sb103  1  0.16525803  0.16811525  0.66432038  1
  Sb  Sb104  1  0.82885841  0.67033696  0.15776985  1
  Sb  Sb105  1  0.33073708  0.49968126  0.16272330  1
  Sb  Sb106  1  -0.00632958  0.83215179  0.83928275  1
  Sb  Sb107  1  0.50054947  0.66771006  0.49211463  1
  Te  Te108  1  0.16753639  0.17208720  0.17477244  1
  Te  Te109  1  0.16750173  0.16446577  0.49774734  1
  Te  Te110  1  0.17050543  0.17334465  0.83256508  1
  Te  Te111  1  0.16163694  0.49609695  0.16186651  1
  Te  Te112  1  0.16552128  0.49639326  0.50005017  1
  Te  Te113  1  0.16878033  0.49593249  0.83679752  1
  Te  Te114  1  0.16156801  0.83385161  0.16464215  1
  Te  Te115  1  0.16091000  0.83768794  0.50151458  1
  Te  Te116  1  0.16675063  0.83256885  0.83941469  1
  Te  Te117  1  0.50003457  0.17350438  0.17502576  1
  Te  Te118  1  0.50023543  0.16725465  0.49573815  1
  Te  Te119  1  0.50172833  0.16577069  0.83297517  1
  Te  Te120  1  0.50056821  0.49114417  0.16714724  1
  Te  Te121  1  0.49932700  0.49895671  0.51117453  1
  Te  Te122  1  0.50150768  0.49872449  0.83091934  1
  Te  Te123  1  0.50221599  0.83472180  0.16614209  1
  Te  Te124  1  0.49895442  0.83239787  0.49467150  1
  Te  Te125  1  0.50822966  0.83782869  0.83768313  1
  Te  Te126  1  0.83340378  0.16528853  0.16042610  1
  Te  Te127  1  0.82773982  0.16665017  0.50258180  1
  Te  Te128  1  0.83073506  0.16584468  0.83362747  1
  Te  Te129  1  0.84063015  0.50154873  0.16081627  1
  Te  Te130  1  0.83534998  0.50039887  0.50575855  1
  Te  Te131  1  0.83237400  0.49624028  0.83638677  1
  Te  Te132  1  0.83363007  0.83278816  0.17452902  1
  Te  Te133  1  0.83948710  0.83314821  0.50056163  1
  Te  Te134  1  0.82886577  0.83579200  0.83047366  1
  Te  Te135  1  0.16553316  -0.00137834  0.00098674  1
  Te  Te136  1  0.16681573  -0.00055017  0.33436610  1
  Te  Te137  1  0.17176444  -0.00020745  0.66326443  1
  Te  Te138  1  0.16683984  0.33001906  0.00092120  1
  Te  Te139  1  0.16737071  0.33229812  0.33415670  1
  Te  Te140  1  0.16632990  0.33643070  0.66355635  1
  Te  Te141  1  0.16979954  0.67217662  0.00107488  1
  Te  Te142  1  0.17168609  0.67200046  0.33155920  1
  Te  Te143  1  0.16700630  0.65988848  0.66651422  1
  Te  Te144  1  0.50152576  0.00025277  0.00064664  1
  Te  Te145  1  0.49711451  -0.00029207  0.33476151  1
  Te  Te146  1  0.50099930  -0.00111515  0.67183517  1
  Te  Te147  1  0.49933107  0.33296276  -0.00157478  1
  Te  Te148  1  0.50349226  0.33296446  0.33304190  1
  Te  Te149  1  0.49866959  0.33807302  0.67076859  1
  Te  Te150  1  0.50099880  0.66690203  0.00460202  1
  Te  Te151  1  0.50075985  0.66688435  0.32683828  1
  Te  Te152  1  0.49851965  0.66233732  0.66656176  1
  Te  Te153  1  0.82957374  0.00024614  -0.00443591  1
  Te  Te154  1  0.83200488  -0.00538302  0.33303110  1
  Te  Te155  1  0.83123752  0.00038473  0.66958749  1
  Te  Te156  1  0.83088099  0.33300113  0.00039766  1
  Te  Te157  1  0.82652219  0.33279370  0.33231651  1
  Te  Te158  1  0.83477478  0.33745061  0.66567605  1
  Te  Te159  1  0.83029177  0.66558244  -0.00454245  1
  Te  Te160  1  0.82714626  0.67229723  0.33418108  1
  Te  Te161  1  0.83340337  0.66249544  0.67403625  1
  Te  Te162  1  -0.00639873  0.15647684  -0.00005010  1
  Te  Te163  1  0.00124825  0.16691862  0.33353349  1
  Te  Te164  1  -0.00752689  0.16018623  0.66709005  1
  Te  Te165  1  0.00190897  0.50150620  -0.00263378  1
  Te  Te166  1  -0.00221406  0.50268775  0.33089889  1
  Te  Te167  1  0.00038880  0.50053736  0.67301794  1
  Te  Te168  1  -0.00177340  0.83665518  0.00173594  1
  Te  Te169  1  0.00690078  0.83212703  0.33031636  1
  Te  Te170  1  -0.00469270  0.83765866  0.66849448  1
  Te  Te171  1  0.33292358  0.16557344  -0.00472063  1
  Te  Te172  1  0.33439522  0.16474830  0.33470202  1
  Te  Te173  1  0.33412943  0.16108554  0.66630970  1
  Te  Te174  1  0.32615421  0.49891170  0.00023431  1
  Te  Te175  1  0.33348346  0.50798528  0.33389589  1
  Te  Te176  1  0.32769518  0.50151576  0.66693357  1
  Te  Te177  1  0.33219492  0.83539639  0.00009668  1
  Te  Te178  1  0.32977056  0.83574895  0.33257553  1
  Te  Te179  1  0.33374496  0.84004992  0.66661243  1
  Te  Te180  1  0.66886918  0.16856120  -0.00331023  1
  Te  Te181  1  0.66530635  0.16530106  0.33086490  1
  Te  Te182  1  0.66824482  0.16241822  0.66874882  1
  Te  Te183  1  0.66751352  0.49590384  -0.00345157  1
  Te  Te184  1  0.66797227  0.49357206  0.33556940  1
  Te  Te185  1  0.66890834  0.50084313  0.67134779  1
  Te  Te186  1  0.66713118  0.83339673  0.00161815  1
  Te  Te187  1  0.66460908  0.83665771  0.33461984  1
  Te  Te188  1  0.67207547  0.83763091  0.66356802  1
  Te  Te189  1  -0.00017107  -0.00517632  0.16094603  1
  Te  Te190  1  0.00434818  -0.00381060  0.50140745  1
  Te  Te191  1  -0.00048016  0.00064836  0.83347592  1
  Te  Te192  1  0.00370560  0.33443276  0.15974982  1
  Te  Te193  1  0.00638858  0.33380593  0.49843899  1
  Te  Te194  1  0.00701322  0.33685709  0.83930901  1
  Te  Te195  1  0.00062736  0.66817277  0.15898265  1
  Te  Te196  1  0.00040147  0.67422580  0.49924927  1
  Te  Te197  1  -0.00523032  0.66181369  0.84054652  1
  Te  Te198  1  0.33976750  0.00072123  0.16436935  1
  Te  Te199  1  0.33050053  0.00507887  0.49608410  1
  Te  Te200  1  0.33318534  0.00536666  0.83637873  1
  Te  Te201  1  0.33347710  0.33328320  0.16059097  1
  Te  Te202  1  0.32829261  0.32559614  0.49907864  1
  Te  Te203  1  0.33576793  0.32871344  0.83732255  1
  Te  Te204  1  0.33972458  0.66551917  0.16418361  1
  Te  Te205  1  0.33292351  0.66596742  0.49762094  1
  Te  Te206  1  0.33467573  0.66912332  0.84063651  1
  Te  Te207  1  0.66183940  -0.00442453  0.16951141  1
  Te  Te208  1  0.66679817  0.00568027  0.49279210  1
  Te  Te209  1  0.66814227  0.00227245  0.83504872  1
  Te  Te210  1  0.66405140  0.33492141  0.16331543  1
  Te  Te211  1  0.66703714  0.32632098  0.49896761  1
  Te  Te212  1  0.66182218  0.33534828  0.83633724  1
  Te  Te213  1  0.66334331  0.66916281  0.16428490  1
  Te  Te214  1  0.66594881  0.66462266  0.49375029  1
  Te  Te215  1  0.67015825  0.66054643  0.83736962  1
