# generated using pymatgen
data_AgSbTe2
_symmetry_space_group_name_H-M   'P 1'
_cell_length_a   18.35772276
_cell_length_b   18.35911857
_cell_length_c   18.36153384
_cell_angle_alpha   89.99839435
_cell_angle_beta   89.99543280
_cell_angle_gamma   89.99729226
_symmetry_Int_Tables_number   1
_chemical_formula_structural   AgSbTe2
_chemical_formula_sum   'Ag54 Sb54 Te108'
_cell_volume   6188.41725827
_cell_formula_units_Z   54
loop_
 _symmetry_equiv_pos_site_id
 _symmetry_equiv_pos_as_xyz
  1  'x, y, z'
loop_
 _atom_site_type_symbol
 _atom_site_label
 _atom_site_symmetry_multiplicity
 _atom_site_fract_x
 _atom_site_fract_y
 _atom_site_fract_z
 _atom_site_occupancy
  Ag  Ag0  1  0.51248241  0.67571820  0.16568150  1
  Ag  Ag1  1  0.49877355  0.15679280  -0.00113252  1
  Ag  Ag2  1  0.66433975  0.66712010  0.32550852  1
  Ag  Ag3  1  0.17223739  -0.00873891  0.84135074  1
  Ag  Ag4  1  0.17016180  0.51146677  0.67930511  1
  Ag  Ag5  1  0.33560062  0.17273036  0.49733926  1
  Ag  Ag6  1  0.64665174  0.82406221  0.16526349  1
  Ag  Ag7  1  0.16772317  0.67059024  0.16159302  1
  Ag  Ag8  1  0.32293935  0.66757825  0.00820493  1
  Ag  Ag9  1  0.16533281  0.82989352  0.00576418  1
  Ag  Ag10  1  0.33245015  0.82932317  0.16719066  1
  Ag  Ag11  1  0.33316266  0.66645285  0.66714182  1
  Ag  Ag12  1  0.16863674  0.16312438  0.00117076  1
  Ag  Ag13  1  0.66201529  0.34198407  0.32148320  1
  Ag  Ag14  1  0.16841841  0.82815327  0.68094210  1
  Ag  Ag15  1  0.66547019  0.50157263  0.84590498  1
  Ag  Ag16  1  0.66627203  0.82855878  0.48198765  1
  Ag  Ag17  1  0.33439186  0.50067578  0.49365519  1
  Ag  Ag18  1  0.65834642  0.66743347  0.67007289  1
  Ag  Ag19  1  0.83371064  0.82198714  0.00467708  1
  Ag  Ag20  1  0.17155343  0.83111744  0.32255989  1
  Ag  Ag21  1  0.33441606  0.16550892  0.83652819  1
  Ag  Ag22  1  0.82596433  0.17120420  0.00085665  1
  Ag  Ag23  1  0.50267168  0.32789858  0.83658332  1
  Ag  Ag24  1  0.82962158  0.34219172  0.16360827  1
  Ag  Ag25  1  0.49784755  0.33171332  0.49052813  1
  Ag  Ag26  1  0.00721180  0.83364545  0.84515164  1
  Ag  Ag27  1  0.49830460  0.82466965  0.32054549  1
  Ag  Ag28  1  0.66733576  0.51252948  0.16380519  1
  Ag  Ag29  1  0.66712386  0.66574934  0.00871287  1
  Ag  Ag30  1  0.00211014  0.34145275  0.33026175  1
  Ag  Ag31  1  0.16517191  0.51410331  -0.00071165  1
  Ag  Ag32  1  0.01781960  0.82864251  0.16434687  1
  Ag  Ag33  1  0.82878491  0.67116835  0.16549158  1
  Ag  Ag34  1  0.50481775  0.83561076  0.00690419  1
  Ag  Ag35  1  0.01063218  0.16403807  0.83843952  1
  Ag  Ag36  1  0.00867755  0.67005585  0.00485979  1
  Ag  Ag37  1  0.82532591  0.33300394  0.84618754  1
  Ag  Ag38  1  0.82763862  0.66705453  0.48277388  1
  Ag  Ag39  1  0.65992317  -0.00970851  0.00186107  1
  Ag  Ag40  1  0.33673379  0.33496238  0.33369600  1
  Ag  Ag41  1  0.33259430  -0.01028471  0.33094190  1
  Ag  Ag42  1  0.82612115  0.82761713  0.31979919  1
  Ag  Ag43  1  0.17315323  -0.01472943  0.15971031  1
  Ag  Ag44  1  0.17054920  0.16019983  0.32196020  1
  Ag  Ag45  1  0.49478554  -0.01191553  0.16391541  1
  Ag  Ag46  1  0.16780600  0.67437358  0.84484855  1
  Ag  Ag47  1  0.82411463  0.50404567  0.00287314  1
  Ag  Ag48  1  -0.00399497  0.66801458  0.32464187  1
  Ag  Ag49  1  0.49240100  0.00546527  0.84430934  1
  Ag  Ag50  1  0.33569283  0.66906870  0.32630319  1
  Ag  Ag51  1  0.49873340  0.50663667  0.33177167  1
  Ag  Ag52  1  0.49857710  0.16760372  0.68262502  1
  Ag  Ag53  1  0.66868463  0.33812883  0.00461769  1
  Sb  Sb54  1  0.00126973  0.33380182  0.66752085  1
  Sb  Sb55  1  0.66366583  0.33884604  0.67071462  1
  Sb  Sb56  1  0.66211416  -0.00573938  0.67617174  1
  Sb  Sb57  1  -0.00326684  0.82931513  0.49423246  1
  Sb  Sb58  1  0.83322174  0.00273136  0.84023635  1
  Sb  Sb59  1  0.50383313  0.33448133  0.16575007  1
  Sb  Sb60  1  0.16235476  0.33735944  0.16629639  1
  Sb  Sb61  1  0.00311719  0.66829565  0.66848042  1
  Sb  Sb62  1  0.49645871  0.83305061  0.66891955  1
  Sb  Sb63  1  0.83544516  0.66488282  0.84349200  1
  Sb  Sb64  1  0.16741281  0.66774731  0.49560263  1
  Sb  Sb65  1  0.00561940  0.16881039  0.49938032  1
  Sb  Sb66  1  0.50182700  0.66430495  0.49010441  1
  Sb  Sb67  1  0.33359548  -0.00344926  0.66462563  1
  Sb  Sb68  1  0.82745807  0.16876713  0.67636503  1
  Sb  Sb69  1  0.33549291  -0.00581389  0.00443294  1
  Sb  Sb70  1  0.00194710  -0.00789232  0.00092394  1
  Sb  Sb71  1  0.17378592  0.33437247  0.49617320  1
  Sb  Sb72  1  0.33577582  0.82987057  0.49273768  1
  Sb  Sb73  1  0.17232600  0.50521434  0.32831767  1
  Sb  Sb74  1  0.33282059  0.16311514  0.16555369  1
  Sb  Sb75  1  0.49771486  0.00237550  0.49572304  1
  Sb  Sb76  1  -0.00728439  0.33482684  0.00473501  1
  Sb  Sb77  1  0.66205745  0.50617683  0.49510926  1
  Sb  Sb78  1  0.16932942  -0.00143289  0.49662665  1
  Sb  Sb79  1  0.33875228  0.50851892  0.16999761  1
  Sb  Sb80  1  0.83490684  0.50368127  0.67384776  1
  Sb  Sb81  1  0.00648141  -0.00638575  0.32844944  1
  Sb  Sb82  1  0.00487932  0.50225175  0.49775903  1
  Sb  Sb83  1  0.82692779  0.50896009  0.32683682  1
  Sb  Sb84  1  0.33543317  0.33525422  0.66388928  1
  Sb  Sb85  1  0.83816493  0.16656204  0.32712539  1
  Sb  Sb86  1  -0.00454400  0.50974073  0.16566152  1
  Sb  Sb87  1  0.49472318  0.16652758  0.32747165  1
  Sb  Sb88  1  0.66215209  0.16497829  0.49818233  1
  Sb  Sb89  1  0.66051583  -0.00668764  0.32537518  1
  Sb  Sb90  1  0.17321299  0.16404651  0.67161607  1
  Sb  Sb91  1  0.66037626  0.17100723  0.83842360  1
  Sb  Sb92  1  0.32964764  0.83408785  0.84092939  1
  Sb  Sb93  1  0.00269078  -0.00167802  0.67196231  1
  Sb  Sb94  1  0.49706153  0.49911955  0.66346355  1
  Sb  Sb95  1  0.16897797  0.33419194  0.83597328  1
  Sb  Sb96  1  0.50324086  0.50390206  0.00454150  1
  Sb  Sb97  1  0.33669512  0.33629633  0.00324908  1
  Sb  Sb98  1  0.33682387  0.50015144  0.83242792  1
  Sb  Sb99  1  0.83105091  -0.01067078  0.16183213  1
  Sb  Sb100  1  -0.00108225  0.50159388  0.83758114  1
  Sb  Sb101  1  0.82959342  -0.00713027  0.49539510  1
  Sb  Sb102  1  0.83584218  0.83013354  0.67055675  1
  Sb  Sb103  1  0.00033373  0.16315176  0.16008086  1
  Sb  Sb104  1  0.66861248  0.82777397  0.84407447  1
  Sb  Sb105  1  0.82640292  0.33860173  0.49196853  1
  Sb  Sb106  1  0.49766693  0.66809298  0.84154683  1
  Sb  Sb107  1  0.66721096  0.16367771  0.16255880  1
  Te  Te108  1  0.16612794  0.16944246  0.16518057  1
  Te  Te109  1  0.17338312  0.16687501  0.50196425  1
  Te  Te110  1  0.16993584  0.16657812  0.83430534  1
  Te  Te111  1  0.16615273  0.50449780  0.15938020  1
  Te  Te112  1  0.17319693  0.49957842  0.49949573  1
  Te  Te113  1  0.16744286  0.50199422  0.83689684  1
  Te  Te114  1  0.17330804  0.83085896  0.16709479  1
  Te  Te115  1  0.16590065  0.83534466  0.50082535  1
  Te  Te116  1  0.16783425  0.83283739  0.83755510  1
  Te  Te117  1  0.49982814  0.16415900  0.15807229  1
  Te  Te118  1  0.49581847  0.16977851  0.49436930  1
  Te  Te119  1  0.49917272  0.16598717  0.83912440  1
  Te  Te120  1  0.50646205  0.50132744  0.17151186  1
  Te  Te121  1  0.49588381  0.49527027  0.49685951  1
  Te  Te122  1  0.50524606  0.49833221  0.83124197  1
  Te  Te123  1  0.49203210  0.83084271  0.16582072  1
  Te  Te124  1  0.50601270  0.83381551  0.50159212  1
  Te  Te125  1  0.50019799  0.83894495  0.83716155  1
  Te  Te126  1  0.83503915  0.16596191  0.16124070  1
  Te  Te127  1  0.83463501  0.16789502  0.50224591  1
  Te  Te128  1  0.83442382  0.17087103  0.83825705  1
  Te  Te129  1  0.82967917  0.50182222  0.16321547  1
  Te  Te130  1  0.83496821  0.50468166  0.50218231  1
  Te  Te131  1  0.83045313  0.49500227  0.83882850  1
  Te  Te132  1  0.83504626  0.83287671  0.16429108  1
  Te  Te133  1  0.82825953  0.82807703  0.50124588  1
  Te  Te134  1  0.84124682  0.83374188  0.84104142  1
  Te  Te135  1  0.16768155  0.00235491  -0.00041156  1
  Te  Te136  1  0.17136881  -0.00049129  0.33163580  1
  Te  Te137  1  0.16759152  -0.00548771  0.67280585  1
  Te  Te138  1  0.16777119  0.32341088  0.00028614  1
  Te  Te139  1  0.16726281  0.33357165  0.33308990  1
  Te  Te140  1  0.16599033  0.33673529  0.66521027  1
  Te  Te141  1  0.16592439  0.66964015  -0.00038246  1
  Te  Te142  1  0.16979745  0.66941901  0.33116197  1
  Te  Te143  1  0.16741554  0.66766011  0.66199281  1
  Te  Te144  1  0.49691627  -0.00291663  0.00184282  1
  Te  Te145  1  0.49454930  -0.00226712  0.32836335  1
  Te  Te146  1  0.50051428  0.00513190  0.66829633  1
  Te  Te147  1  0.50359567  0.33593358  -0.00328077  1
  Te  Te148  1  0.50182128  0.33188699  0.33285247  1
  Te  Te149  1  0.50037769  0.32968507  0.67326336  1
  Te  Te150  1  0.50672676  0.67101204  0.00371680  1
  Te  Te151  1  0.49931945  0.66664497  0.33056276  1
  Te  Te152  1  0.49726440  0.66761390  0.67007092  1
  Te  Te153  1  0.82696765  0.00928149  -0.00025304  1
  Te  Te154  1  0.83251943  -0.00573052  0.33173051  1
  Te  Te155  1  0.83110102  0.00116661  0.66618206  1
  Te  Te156  1  0.83220896  0.33539351  0.00284231  1
  Te  Te157  1  0.82944506  0.33301546  0.32853437  1
  Te  Te158  1  0.83316732  0.33419167  0.66739853  1
  Te  Te159  1  0.82754342  0.66391924  0.00257132  1
  Te  Te160  1  0.83210124  0.66834452  0.32702989  1
  Te  Te161  1  0.83375104  0.66649527  0.66808346  1
  Te  Te162  1  0.00266982  0.16759881  -0.00408677  1
  Te  Te163  1  0.00783813  0.16623699  0.33440433  1
  Te  Te164  1  -0.00156949  0.16752620  0.67344877  1
  Te  Te165  1  0.00392536  0.50456628  -0.00037685  1
  Te  Te166  1  0.00181488  0.50120696  0.33343923  1
  Te  Te167  1  0.00946890  0.49967651  0.66614324  1
  Te  Te168  1  -0.00012379  0.83212962  0.00293228  1
  Te  Te169  1  0.00317092  0.82808074  0.32958410  1
  Te  Te170  1  0.00578090  0.83293319  0.66843461  1
  Te  Te171  1  0.33560461  0.16876136  -0.00372730  1
  Te  Te172  1  0.33008350  0.17385062  0.33286672  1
  Te  Te173  1  0.33878024  0.16612231  0.66517610  1
  Te  Te174  1  0.32881639  0.50515633  -0.00072808  1
  Te  Te175  1  0.33596509  0.50037337  0.33546557  1
  Te  Te176  1  0.32959143  0.50349730  0.66537791  1
  Te  Te177  1  0.33155002  0.82813772  0.00328440  1
  Te  Te178  1  0.33518743  0.83119789  0.33303792  1
  Te  Te179  1  0.32925477  0.82847240  0.66136318  1
  Te  Te180  1  0.66597870  0.17352421  -0.00136100  1
  Te  Te181  1  0.67026614  0.16816264  0.33383825  1
  Te  Te182  1  0.65842528  0.16477516  0.66608524  1
  Te  Te183  1  0.66512777  0.49961400  0.00335373  1
  Te  Te184  1  0.66206440  0.50043578  0.33043776  1
  Te  Te185  1  0.66751325  0.50770649  0.66448841  1
  Te  Te186  1  0.66669246  0.83063060  0.00394094  1
  Te  Te187  1  0.66503221  0.83252759  0.32629580  1
  Te  Te188  1  0.66692020  0.82678142  0.67163003  1
  Te  Te189  1  0.00842597  -0.00741717  0.16708911  1
  Te  Te190  1  -0.00188337  0.00096301  0.50153112  1
  Te  Te191  1  0.00411394  0.00041654  0.83423050  1
  Te  Te192  1  -0.00525439  0.33086070  0.17273360  1
  Te  Te193  1  -0.00446952  0.33346378  0.49182006  1
  Te  Te194  1  -0.00264356  0.32897516  0.83367449  1
  Te  Te195  1  0.00283323  0.66898279  0.16563381  1
  Te  Te196  1  -0.00889073  0.66619856  0.49512283  1
  Te  Te197  1  0.00613710  0.66978640  0.83675986  1
  Te  Te198  1  0.33267303  -0.00066235  0.16988407  1
  Te  Te199  1  0.33365026  0.00744488  0.49375957  1
  Te  Te200  1  0.33259562  0.00391769  0.83054736  1
  Te  Te201  1  0.33258234  0.33573625  0.17270839  1
  Te  Te202  1  0.33832240  0.33437500  0.49744879  1
  Te  Te203  1  0.33816134  0.32897290  0.83449496  1
  Te  Te204  1  0.32809922  0.66667580  0.16584180  1
  Te  Te205  1  0.33450313  0.66310593  0.49994021  1
  Te  Te206  1  0.32854450  0.66714503  0.83060862  1
  Te  Te207  1  0.66129728  -0.00409660  0.16011708  1
  Te  Te208  1  0.66659244  -0.00773523  0.50150377  1
  Te  Te209  1  0.66232088  -0.00089548  0.84143024  1
  Te  Te210  1  0.66969259  0.32925401  0.16516322  1
  Te  Te211  1  0.66032933  0.33283614  0.50052199  1
  Te  Te212  1  0.66662106  0.33774904  0.83433211  1
  Te  Te213  1  0.66823894  0.66895929  0.16934036  1
  Te  Te214  1  0.66775633  0.66967703  0.49694288  1
  Te  Te215  1  0.66657546  0.66153463  0.83045925  1
