# generated using pymatgen
data_HfZrTaTiMo
_symmetry_space_group_name_H-M   'P 1'
_cell_length_a   15.20460554
_cell_length_b   15.20655937
_cell_length_c   16.82547499
_cell_angle_alpha   90.01369174
_cell_angle_beta   89.97065160
_cell_angle_gamma   90.01933041
_symmetry_Int_Tables_number   1
_chemical_formula_structural   HfZrTaTiMo
_chemical_formula_sum   'Hf40 Zr40 Ta40 Ti40 Mo40'
_cell_volume   3890.21280195
_cell_formula_units_Z   40
loop_
 _symmetry_equiv_pos_site_id
 _symmetry_equiv_pos_as_xyz
  1  'x, y, z'
loop_
 _atom_site_type_symbol
 _atom_site_label
 _atom_site_symmetry_multiplicity
 _atom_site_fract_x
 _atom_site_fract_y
 _atom_site_fract_z
 _atom_site_occupancy
  Hf  Hf0  1  0.38067858  0.59547785  -0.01542772  1
  Hf  Hf1  1  0.11154180  0.29855682  0.39332804  1
  Hf  Hf2  1  0.30152260  0.10730187  0.86205534  1
  Hf  Hf3  1  0.49100563  0.69073075  0.62966966  1
  Hf  Hf4  1  0.79111784  0.58471319  -0.00609646  1
  Hf  Hf5  1  0.68929815  0.29047710  0.60637675  1
  Hf  Hf6  1  -0.01347398  0.38296722  0.73503192  1
  Hf  Hf7  1  0.81056031  0.19162145  0.26505090  1
  Hf  Hf8  1  0.39940347  0.57999333  0.49733214  1
  Hf  Hf9  1  0.00375385  0.19513677  0.00800593  1
  Hf  Hf10  1  0.68029865  0.48796669  0.37531518  1
  Hf  Hf11  1  0.30876969  0.10708876  0.63341230  1
  Hf  Hf12  1  0.79581055  0.59867173  0.24361067  1
  Hf  Hf13  1  -0.01432194  0.60611343  0.51431931  1
  Hf  Hf14  1  0.09130578  0.49986578  0.38083332  1
  Hf  Hf15  1  0.01449679  0.18044202  0.50679630  1
  Hf  Hf16  1  0.31135727  0.30513169  0.63926102  1
  Hf  Hf17  1  0.20039209  0.01854650  0.49712116  1
  Hf  Hf18  1  0.28923561  0.90680296  0.62450873  1
  Hf  Hf19  1  0.30640572  0.30898016  0.85507946  1
  Hf  Hf20  1  0.91460237  0.30701942  0.12872706  1
  Hf  Hf21  1  0.08742672  0.71755548  0.63957707  1
  Hf  Hf22  1  0.90557933  0.89318209  0.09885549  1
  Hf  Hf23  1  0.80634396  0.18898572  0.48203801  1
  Hf  Hf24  1  0.50287781  0.32257513  0.38565521  1
  Hf  Hf25  1  0.08544924  0.91883769  0.89151223  1
  Hf  Hf26  1  0.80364907  0.79053192  0.23971476  1
  Hf  Hf27  1  0.49629409  0.29160731  0.12569729  1
  Hf  Hf28  1  0.60247953  0.78827673  0.50299007  1
  Hf  Hf29  1  0.50146209  0.90668603  0.89103313  1
  Hf  Hf30  1  0.92523663  0.09170377  0.87702385  1
  Hf  Hf31  1  0.80340556  0.20799513  0.74061868  1
  Hf  Hf32  1  0.20355851  0.40410031  -0.01202634  1
  Hf  Hf33  1  0.19167877  0.80776242  0.24775401  1
  Hf  Hf34  1  0.08605873  0.49081261  0.12584904  1
  Hf  Hf35  1  0.70703137  0.89152473  0.37089025  1
  Hf  Hf36  1  0.20706471  0.01500336  0.00137026  1
  Hf  Hf37  1  0.70292041  0.89491659  0.62925408  1
  Hf  Hf38  1  0.38635953  0.79204451  0.76204143  1
  Hf  Hf39  1  0.30389044  0.50748329  0.64766224  1
  Zr  Zr40  1  0.17322121  0.60470730  -0.01560879  1
  Zr  Zr41  1  0.49345863  0.90135800  0.61570372  1
  Zr  Zr42  1  0.89748354  0.49979698  0.85717226  1
  Zr  Zr43  1  0.69881528  0.49564791  0.64007655  1
  Zr  Zr44  1  0.32530676  0.10507873  0.13023929  1
  Zr  Zr45  1  0.29022316  0.70390912  0.38303532  1
  Zr  Zr46  1  0.01705674  0.21574115  0.25524564  1
  Zr  Zr47  1  0.80859000  0.78658347  0.50485898  1
  Zr  Zr48  1  0.82254357  0.00098318  0.74367176  1
  Zr  Zr49  1  0.09897533  0.91821667  0.37359840  1
  Zr  Zr50  1  0.80870163  0.39700312  0.25693424  1
  Zr  Zr51  1  0.79887620  0.80239976  0.76669503  1
  Zr  Zr52  1  0.49829730  0.90912923  0.38039876  1
  Zr  Zr53  1  0.28972223  0.70755088  0.61871033  1
  Zr  Zr54  1  0.69237730  0.69511882  0.10938078  1
  Zr  Zr55  1  -0.01236108  0.60115655  0.24868867  1
  Zr  Zr56  1  0.01181625  0.00181344  0.23249971  1
  Zr  Zr57  1  0.18390423  0.38750859  0.25045993  1
  Zr  Zr58  1  0.29562145  0.50208206  0.12965215  1
  Zr  Zr59  1  0.69585080  0.48512880  0.86106988  1
  Zr  Zr60  1  0.49133785  0.91249156  0.11126028  1
  Zr  Zr61  1  0.48989593  0.49793302  0.11465146  1
  Zr  Zr62  1  0.09695497  0.28602011  0.85552146  1
  Zr  Zr63  1  0.58752926  0.59160232  0.24653470  1
  Zr  Zr64  1  0.60508987  0.39411720  0.00109523  1
  Zr  Zr65  1  0.59058088  0.36736541  0.74583489  1
  Zr  Zr66  1  0.61014872  0.00554181  0.49396807  1
  Zr  Zr67  1  -0.00581568  0.40423691  0.51858403  1
  Zr  Zr68  1  0.59395899  0.80076173  0.24313476  1
  Zr  Zr69  1  0.29734248  0.30044534  0.12887114  1
  Zr  Zr70  1  0.08084833  0.70747681  0.37900690  1
  Zr  Zr71  1  0.70459635  0.90690797  0.89767504  1
  Zr  Zr72  1  0.61794648  0.18166447  0.01635031  1
  Zr  Zr73  1  0.28919703  0.70517925  0.12156930  1
  Zr  Zr74  1  0.41709951  -0.00241600  0.75347182  1
  Zr  Zr75  1  0.29907138  0.49034341  0.37059234  1
  Zr  Zr76  1  0.80764176  -0.00581115  0.24067101  1
  Zr  Zr77  1  0.81991886  -0.00497558  0.49949799  1
  Zr  Zr78  1  0.71162181  0.10351009  0.87308231  1
  Zr  Zr79  1  0.51184972  0.10963611  0.61301435  1
  Ta  Ta80  1  0.78974655  0.59573759  0.50629523  1
  Ta  Ta81  1  0.69810145  0.48286490  0.12689063  1
  Ta  Ta82  1  0.69377921  0.69213983  0.64212597  1
  Ta  Ta83  1  0.19798225  0.80376074  -0.01058053  1
  Ta  Ta84  1  0.80530955  0.38489543  0.00190032  1
  Ta  Ta85  1  0.69324520  0.69634770  0.87771613  1
  Ta  Ta86  1  0.12144362  0.11593619  0.13389369  1
  Ta  Ta87  1  0.88931824  0.50962502  0.38384839  1
  Ta  Ta88  1  0.29919581  0.90546932  0.12391998  1
  Ta  Ta89  1  0.02608683  -0.01031824  0.73592500  1
  Ta  Ta90  1  0.29520937  0.50514238  0.85030573  1
  Ta  Ta91  1  0.39547642  0.61098726  0.25480434  1
  Ta  Ta92  1  0.69911402  0.90747864  0.10694377  1
  Ta  Ta93  1  0.91140156  0.88478653  0.37094524  1
  Ta  Ta94  1  0.18122988  0.82491708  0.76286472  1
  Ta  Ta95  1  0.20690985  0.40984339  0.51679988  1
  Ta  Ta96  1  0.19135357  0.60475810  0.24888012  1
  Ta  Ta97  1  0.48614344  0.48584110  0.87316978  1
  Ta  Ta98  1  0.00314002  0.40305987  -0.01367782  1
  Ta  Ta99  1  0.49799597  0.69701701  0.37941745  1
  Ta  Ta100  1  0.88774647  0.69208824  0.64810613  1
  Ta  Ta101  1  0.70123891  0.68842607  0.37549217  1
  Ta  Ta102  1  0.50497224  0.28941008  0.88703419  1
  Ta  Ta103  1  0.90369743  0.69361797  0.09721517  1
  Ta  Ta104  1  0.58565356  0.60143961  0.76057720  1
  Ta  Ta105  1  0.90048816  0.70192097  0.88843704  1
  Ta  Ta106  1  0.59102913  0.80299317  0.75807105  1
  Ta  Ta107  1  0.11197972  0.29344893  0.62910929  1
  Ta  Ta108  1  0.40666491  0.00862444  0.25800370  1
  Ta  Ta109  1  0.20220420  0.20793498  -0.00551095  1
  Ta  Ta110  1  0.10109980  0.50904067  0.64654584  1
  Ta  Ta111  1  0.89240598  0.29245140  0.87537227  1
  Ta  Ta112  1  0.42972987  0.20767923  0.75161478  1
  Ta  Ta113  1  0.80615507  0.03368396  0.02062798  1
  Ta  Ta114  1  0.39565304  0.80511311  0.25156920  1
  Ta  Ta115  1  -0.00669568  0.79817010  0.23664901  1
  Ta  Ta116  1  0.49360949  0.69778351  0.88071079  1
  Ta  Ta117  1  0.48320399  0.70225420  0.11404987  1
  Ta  Ta118  1  0.09710340  0.50021677  0.84691780  1
  Ta  Ta119  1  0.59793933  0.59087621  0.50330213  1
  Ti  Ti120  1  0.39367539  0.80668334  0.49385603  1
  Ti  Ti121  1  0.39954887  0.19587438  -0.00679632  1
  Ti  Ti122  1  0.10647578  0.89979333  0.11227641  1
  Ti  Ti123  1  0.00805336  -0.00798043  0.52103127  1
  Ti  Ti124  1  0.69181881  0.09425150  0.36367440  1
  Ti  Ti125  1  0.00249660  0.17793276  0.72892723  1
  Ti  Ti126  1  0.18966006  0.81038356  0.49715278  1
  Ti  Ti127  1  0.89700507  0.49936280  0.11584970  1
  Ti  Ti128  1  0.60001792  0.00752603  0.23943966  1
  Ti  Ti129  1  0.70939893  0.29001499  0.13681820  1
  Ti  Ti130  1  0.41540218  0.40504886  0.25321122  1
  Ti  Ti131  1  0.51203218  0.09900477  0.88083909  1
  Ti  Ti132  1  0.59811099  0.19867117  0.48024940  1
  Ti  Ti133  1  0.30876927  0.29475188  0.37523002  1
  Ti  Ti134  1  0.91090438  0.31175244  0.38484662  1
  Ti  Ti135  1  0.58850246  0.59456760  -0.00780963  1
  Ti  Ti136  1  0.59210946  0.20048109  0.25442137  1
  Ti  Ti137  1  0.93039221  0.08396205  0.37431064  1
  Ti  Ti138  1  0.08185708  0.70733542  0.86506760  1
  Ti  Ti139  1  0.59450630  0.79361852  0.00045913  1
  Ti  Ti140  1  0.89176392  0.28917633  0.61092552  1
  Ti  Ti141  1  0.79141210  0.40240452  0.49725860  1
  Ti  Ti142  1  0.70340071  0.29069718  0.87539382  1
  Ti  Ti143  1  0.08883793  0.70072504  0.11627943  1
  Ti  Ti144  1  0.49308868  0.30197475  0.59768330  1
  Ti  Ti145  1  0.61062862  0.00379244  0.74807950  1
  Ti  Ti146  1  0.20321786  0.62576618  0.75944229  1
  Ti  Ti147  1  0.91556890  0.88544078  0.63384192  1
  Ti  Ti148  1  0.69791463  0.29932656  0.37481236  1
  Ti  Ti149  1  -0.00345285  0.80329407  0.50417354  1
  Ti  Ti150  1  0.71145255  0.09913700  0.62234003  1
  Ti  Ti151  1  0.38787260  0.80296507  -0.00746962  1
  Ti  Ti152  1  0.22022682  0.20854210  0.50465308  1
  Ti  Ti153  1  0.49610742  0.48893771  0.63351498  1
  Ti  Ti154  1  0.88798733  0.50508485  0.64316289  1
  Ti  Ti155  1  0.90212021  0.89722021  0.90423081  1
  Ti  Ti156  1  0.29667652  0.90821760  0.87809484  1
  Ti  Ti157  1  0.30195802  0.10483438  0.36523236  1
  Ti  Ti158  1  0.29918778  0.90939542  0.37302758  1
  Ti  Ti159  1  0.18768706  0.60176652  0.50879127  1
  Mo  Mo160  1  0.39519731  0.39132700  -0.01363780  1
  Mo  Mo161  1  0.60168809  0.38933355  0.24074203  1
  Mo  Mo162  1  0.21070963  0.19297682  0.25870018  1
  Mo  Mo163  1  0.80866192  0.20999227  0.00520463  1
  Mo  Mo164  1  0.79046261  0.60291750  0.76211844  1
  Mo  Mo165  1  0.11524282  0.10711400  0.36812446  1
  Mo  Mo166  1  0.01164996  0.78875331  0.00008377  1
  Mo  Mo167  1  0.10464714  0.10278835  0.87281823  1
  Mo  Mo168  1  0.38848975  0.39506384  0.50323058  1
  Mo  Mo169  1  0.50473197  0.10321089  0.13284096  1
  Mo  Mo170  1  0.10625509  0.30255815  0.11592412  1
  Mo  Mo171  1  0.19618899  0.19423521  0.74300460  1
  Mo  Mo172  1  0.20505294  0.00199797  0.75603324  1
  Mo  Mo173  1  0.60379989  0.18316882  0.75020019  1
  Mo  Mo174  1  0.19411181  0.40337060  0.74167301  1
  Mo  Mo175  1  0.40081733  0.00796772  -0.00942104  1
  Mo  Mo176  1  0.88837004  0.70156245  0.37695899  1
  Mo  Mo177  1  -0.00368321  0.60552087  0.74773971  1
  Mo  Mo178  1  0.70241980  0.10383653  0.14672058  1
  Mo  Mo179  1  0.21423416  -0.00092409  0.24321660  1
  Mo  Mo180  1  0.80021106  0.38571456  0.74178567  1
  Mo  Mo181  1  0.41054148  0.40035111  0.75126650  1
  Mo  Mo182  1  0.49373514  0.51006611  0.37286957  1
  Mo  Mo183  1  0.39314648  0.01058399  0.48327957  1
  Mo  Mo184  1  0.00976151  0.00706659  0.02274748  1
  Mo  Mo185  1  -0.00301028  0.58790682  -0.00762024  1
  Mo  Mo186  1  0.40093211  0.60501587  0.76278332  1
  Mo  Mo187  1  0.90680877  0.10754934  0.13146368  1
  Mo  Mo188  1  0.28673480  0.71139074  0.87481800  1
  Mo  Mo189  1  0.10538047  0.89736524  0.62009354  1
  Mo  Mo190  1  0.60219171  0.00359696  0.01109884  1
  Mo  Mo191  1  0.49751204  0.11278394  0.37284084  1
  Mo  Mo192  1  -0.01029040  0.80996164  0.76318448  1
  Mo  Mo193  1  0.79457039  0.79614130  -0.00860138  1
  Mo  Mo194  1  0.90487267  0.09532700  0.62309166  1
  Mo  Mo195  1  0.59411743  0.40953933  0.50850383  1
  Mo  Mo196  1  0.11546845  0.09759197  0.62721112  1
  Mo  Mo197  1  0.39688352  0.19434412  0.48790104  1
  Mo  Mo198  1  0.40908129  0.20747823  0.26503986  1
  Mo  Mo199  1  -0.00797491  0.40612041  0.26246937  1
