# generated using pymatgen
data_HfZrTaTiMo
_symmetry_space_group_name_H-M   'P 1'
_cell_length_a   15.17941904
_cell_length_b   15.18815955
_cell_length_c   16.79896566
_cell_angle_alpha   89.98853073
_cell_angle_beta   90.05403481
_cell_angle_gamma   90.01462945
_symmetry_Int_Tables_number   1
_chemical_formula_structural   HfZrTaTiMo
_chemical_formula_sum   'Hf40 Zr40 Ta40 Ti40 Mo40'
_cell_volume   3872.95657153
_cell_formula_units_Z   40
loop_
 _symmetry_equiv_pos_site_id
 _symmetry_equiv_pos_as_xyz
  1  'x, y, z'
loop_
 _atom_site_type_symbol
 _atom_site_label
 _atom_site_symmetry_multiplicity
 _atom_site_fract_x
 _atom_site_fract_y
 _atom_site_fract_z
 _atom_site_occupancy
  Hf  Hf0  1  0.70022207  0.50399263  0.38910161  1
  Hf  Hf1  1  0.40707868  0.19910735  -0.01575088  1
  Hf  Hf2  1  0.48171113  0.49928385  0.12999018  1
  Hf  Hf3  1  0.29684978  0.07935937  0.62735225  1
  Hf  Hf4  1  0.09674815  0.28460034  0.62909162  1
  Hf  Hf5  1  0.39587667  0.19554958  0.48508143  1
  Hf  Hf6  1  0.79588223  0.61198130  0.25681573  1
  Hf  Hf7  1  0.90414301  0.49985079  0.61754289  1
  Hf  Hf8  1  -0.00447784  0.18358267  0.75892804  1
  Hf  Hf9  1  0.48880454  0.91357937  0.62813276  1
  Hf  Hf10  1  0.80485672  0.60636158  0.74225157  1
  Hf  Hf11  1  0.28679804  0.50489149  0.38495034  1
  Hf  Hf12  1  0.69832766  0.30039626  0.87591728  1
  Hf  Hf13  1  0.10030686  0.09949448  0.36525633  1
  Hf  Hf14  1  0.19559785  -0.01169086  0.23684338  1
  Hf  Hf15  1  0.90332965  0.93012321  0.87129820  1
  Hf  Hf16  1  -0.00834983  0.00290540  0.24412181  1
  Hf  Hf17  1  0.59726772  0.60852256  0.24973335  1
  Hf  Hf18  1  0.89680584  0.30806184  0.11921233  1
  Hf  Hf19  1  0.90984211  0.71286075  0.38327108  1
  Hf  Hf20  1  0.90767077  0.30367538  0.37551725  1
  Hf  Hf21  1  0.88832545  0.70467109  0.12831811  1
  Hf  Hf22  1  0.48931217  0.12235750  0.63509249  1
  Hf  Hf23  1  0.78140061  -0.00127865  0.24423181  1
  Hf  Hf24  1  -0.00300901  0.39873947  0.75772032  1
  Hf  Hf25  1  0.68964746  0.10392885  0.62556871  1
  Hf  Hf26  1  0.58712952  0.39943903  0.00130951  1
  Hf  Hf27  1  0.59558042  0.60218185  0.00055470  1
  Hf  Hf28  1  0.30305951  0.68561793  0.11733359  1
  Hf  Hf29  1  0.69476461  0.28518940  0.11624264  1
  Hf  Hf30  1  0.19908395  0.40603996  0.01694485  1
  Hf  Hf31  1  0.50133046  0.70358550  0.12560008  1
  Hf  Hf32  1  0.79230939  0.81870368  -0.00488363  1
  Hf  Hf33  1  0.09217987  0.07856022  0.88220406  1
  Hf  Hf34  1  0.88800860  0.90421273  0.37893807  1
  Hf  Hf35  1  0.40086872  0.79368100  -0.01831078  1
  Hf  Hf36  1  0.10632960  0.89858131  0.60258001  1
  Hf  Hf37  1  0.20410831  0.78143263  0.25213167  1
  Hf  Hf38  1  0.90679068  0.50999071  0.12243066  1
  Hf  Hf39  1  0.41140635  0.38603480  0.49608435  1
  Zr  Zr40  1  0.00478831  -0.00687578  0.01900417  1
  Zr  Zr41  1  0.20712081  0.37903309  0.50904049  1
  Zr  Zr42  1  0.10834119  0.29640876  0.87505069  1
  Zr  Zr43  1  0.18784327  0.39689902  0.22892695  1
  Zr  Zr44  1  0.40460132  0.59588904  0.74948309  1
  Zr  Zr45  1  0.29621998  0.89600938  0.37999218  1
  Zr  Zr46  1  0.11174256  0.70794139  0.63935009  1
  Zr  Zr47  1  0.00988944  0.60202302  0.25934758  1
  Zr  Zr48  1  0.50662330  0.90168850  0.12097895  1
  Zr  Zr49  1  0.80509972  0.20191265  0.50002300  1
  Zr  Zr50  1  0.80052898  0.61374140  -0.01385045  1
  Zr  Zr51  1  0.51111419  0.48536880  0.62694611  1
  Zr  Zr52  1  0.39489416  0.61051855  0.51079640  1
  Zr  Zr53  1  0.29642025  0.49067962  0.86691387  1
  Zr  Zr54  1  -0.00104976  0.01625311  0.49420102  1
  Zr  Zr55  1  0.80028950  0.41104908  -0.00913916  1
  Zr  Zr56  1  0.90393719  0.71795613  0.85901853  1
  Zr  Zr57  1  0.09553197  0.48760121  0.38528342  1
  Zr  Zr58  1  -0.00003085  0.79513209  0.00254410  1
  Zr  Zr59  1  0.51300700  0.09763878  0.11425726  1
  Zr  Zr60  1  0.80035889  0.20452938  0.75058357  1
  Zr  Zr61  1  0.40538837  0.00464305  0.25342818  1
  Zr  Zr62  1  0.59599321  0.22935450  0.47910182  1
  Zr  Zr63  1  0.79449120  0.20382537  0.25527061  1
  Zr  Zr64  1  0.70197449  0.71741182  0.39227151  1
  Zr  Zr65  1  0.19309127  0.80013892  0.00212895  1
  Zr  Zr66  1  0.60261081  0.39473239  0.25162823  1
  Zr  Zr67  1  0.01987362  0.61612775  0.49816868  1
  Zr  Zr68  1  0.50009148  0.50645575  0.38209997  1
  Zr  Zr69  1  0.18854221  -0.02347337  0.75222556  1
  Zr  Zr70  1  0.81214966  0.00494646  0.73364235  1
  Zr  Zr71  1  0.60264557  0.80088231  -0.01387077  1
  Zr  Zr72  1  0.38599740  0.38839757  0.25977489  1
  Zr  Zr73  1  0.67749952  0.31135644  0.63788235  1
  Zr  Zr74  1  0.60307688  -0.00958498  0.76362641  1
  Zr  Zr75  1  0.10546313  0.49786940  0.62438474  1
  Zr  Zr76  1  0.58686299  0.01450867  0.49540141  1
  Zr  Zr77  1  0.68622207  0.51037941  0.86280662  1
  Zr  Zr78  1  0.58903127  0.19114194  0.26641022  1
  Zr  Zr79  1  0.20529134  0.20036040  0.01129688  1
  Ta  Ta80  1  0.40100505  -0.00629464  -0.01531067  1
  Ta  Ta81  1  0.48571063  0.29020577  0.12718684  1
  Ta  Ta82  1  0.19659144  0.17932976  0.50169735  1
  Ta  Ta83  1  0.38830570  0.60457032  0.25715947  1
  Ta  Ta84  1  0.50885638  0.72193409  0.63266288  1
  Ta  Ta85  1  0.20451866  0.18590624  0.75149626  1
  Ta  Ta86  1  0.39299841  0.39605752  -0.00063959  1
  Ta  Ta87  1  0.39764682  0.00315076  0.77108702  1
  Ta  Ta88  1  0.29225807  0.10624114  0.36477005  1
  Ta  Ta89  1  0.30857531  0.89325058  0.12264212  1
  Ta  Ta90  1  0.80054853  0.40936659  0.25250415  1
  Ta  Ta91  1  0.00466918  0.80597993  0.24393057  1
  Ta  Ta92  1  0.71824868  0.09112937  0.88269685  1
  Ta  Ta93  1  -0.00102546  0.20450348  0.00605145  1
  Ta  Ta94  1  0.88529199  0.10829026  0.11690463  1
  Ta  Ta95  1  0.30542802  0.48756914  0.63186744  1
  Ta  Ta96  1  0.29181619  0.09421167  0.87829468  1
  Ta  Ta97  1  0.00111684  0.60195280  0.75388365  1
  Ta  Ta98  1  0.88826743  0.90144307  0.13096385  1
  Ta  Ta99  1  0.89455165  0.50084502  0.38769484  1
  Ta  Ta100  1  0.70212513  0.50898299  0.12548415  1
  Ta  Ta101  1  0.50779348  0.89343678  0.37590006  1
  Ta  Ta102  1  0.00617784  0.20892878  0.23744166  1
  Ta  Ta103  1  0.90641478  0.71725492  0.62608198  1
  Ta  Ta104  1  0.60339853  0.61328200  0.51795518  1
  Ta  Ta105  1  -0.00447859  0.40199559  0.24753717  1
  Ta  Ta106  1  0.62192288  0.80744347  0.24729702  1
  Ta  Ta107  1  0.20775022  0.38894695  0.74285339  1
  Ta  Ta108  1  0.20600598  0.77084469  0.49004495  1
  Ta  Ta109  1  0.57858906  0.20465756  0.77334696  1
  Ta  Ta110  1  0.00550950  0.40938694  -0.00579157  1
  Ta  Ta111  1  0.40009445  0.80809685  0.76308357  1
  Ta  Ta112  1  0.09195924  0.88371378  0.38496813  1
  Ta  Ta113  1  0.10023132  0.10438136  0.12813348  1
  Ta  Ta114  1  0.40965623  0.79557283  0.25534547  1
  Ta  Ta115  1  0.68814854  0.88432988  0.61311204  1
  Ta  Ta116  1  0.80376249  0.40740195  0.75644281  1
  Ta  Ta117  1  0.80436406  0.61080762  0.51319027  1
  Ta  Ta118  1  0.31611174  0.28211120  0.63873611  1
  Ta  Ta119  1  0.30000960  0.88188463  0.61990226  1
  Ti  Ti120  1  0.40647668  0.80049336  0.49757033  1
  Ti  Ti121  1  0.90063277  0.29932934  0.88478158  1
  Ti  Ti122  1  0.42059662  0.38024649  0.75865351  1
  Ti  Ti123  1  0.79484731  0.00161129  0.50986589  1
  Ti  Ti124  1  0.29356671  0.69416099  0.86944704  1
  Ti  Ti125  1  0.19285879  0.59701356  -0.00357040  1
  Ti  Ti126  1  0.30465055  0.69920750  0.63542403  1
  Ti  Ti127  1  0.89956653  0.10655441  0.37271658  1
  Ti  Ti128  1  0.89663169  0.30195459  0.62528882  1
  Ti  Ti129  1  0.70486101  0.50119939  0.62527836  1
  Ti  Ti130  1  0.21003903  0.20550550  0.23460513  1
  Ti  Ti131  1  0.79031885  0.39696164  0.50268896  1
  Ti  Ti132  1  0.70319138  0.09744294  0.38268868  1
  Ti  Ti133  1  0.20068897  0.59365299  0.75030436  1
  Ti  Ti134  1  0.59975454  -0.00260247  0.25723678  1
  Ti  Ti135  1  0.91073173  0.10985475  0.61628240  1
  Ti  Ti136  1  0.50497177  0.69048049  0.86254446  1
  Ti  Ti137  1  0.39588072  0.58780058  -0.01319758  1
  Ti  Ti138  1  0.01142953  0.82474150  0.74965828  1
  Ti  Ti139  1  0.20035358  0.58869708  0.24320037  1
  Ti  Ti140  1  0.09440047  0.68900025  0.12273913  1
  Ti  Ti141  1  0.28381845  0.89590549  0.87832831  1
  Ti  Ti142  1  0.30219493  0.29458421  0.86591093  1
  Ti  Ti143  1  -0.00283624  0.38657864  0.50301609  1
  Ti  Ti144  1  0.90546860  0.90274005  0.61470962  1
  Ti  Ti145  1  0.09911331  0.09216451  0.62430193  1
  Ti  Ti146  1  0.61108760  -0.00974426  -0.01642977  1
  Ti  Ti147  1  0.31331338  0.10171097  0.12480193  1
  Ti  Ti148  1  0.69694293  0.71490694  0.85575219  1
  Ti  Ti149  1  0.60354424  0.60622048  0.73562703  1
  Ti  Ti150  1  0.09987214  0.50282677  0.86926007  1
  Ti  Ti151  1  0.79064259  0.81255237  0.73814850  1
  Ti  Ti152  1  0.38956832  0.00093135  0.49008461  1
  Ti  Ti153  1  0.69765837  0.90189565  0.39182328  1
  Ti  Ti154  1  0.60337398  0.19056669  -0.01383626  1
  Ti  Ti155  1  0.00355156  0.59841388  -0.01545553  1
  Ti  Ti156  1  0.10808448  0.28963620  0.37302536  1
  Ti  Ti157  1  0.50321669  0.70632666  0.37859693  1
  Ti  Ti158  1  0.20519063  -0.00701795  0.01522832  1
  Ti  Ti159  1  0.10629874  0.70680139  0.86210565  1
  Mo  Mo160  1  0.11763583  0.69548793  0.37097557  1
  Mo  Mo161  1  0.20758595  -0.00629088  0.49312142  1
  Mo  Mo162  1  0.70928519  0.90000778  0.86478593  1
  Mo  Mo163  1  0.21426451  0.59381490  0.51398792  1
  Mo  Mo164  1  0.00900775  0.20885236  0.50000566  1
  Mo  Mo165  1  0.49765724  0.30689043  0.88189454  1
  Mo  Mo166  1  0.30068959  0.50653111  0.11936582  1
  Mo  Mo167  1  0.39244785  0.19803935  0.25429978  1
  Mo  Mo168  1  0.80289175  0.80832623  0.51457914  1
  Mo  Mo169  1  0.31332810  0.69509279  0.37291471  1
  Mo  Mo170  1  0.10268124  0.89375743  0.13408984  1
  Mo  Mo171  1  0.49673345  0.89531843  0.87263038  1
  Mo  Mo172  1  0.58960096  0.80321879  0.50224659  1
  Mo  Mo173  1  -0.00226628  0.00204455  0.73598732  1
  Mo  Mo174  1  0.28163394  0.28978282  0.37386028  1
  Mo  Mo175  1  0.80366918  0.80808844  0.24963835  1
  Mo  Mo176  1  0.90160346  0.11258523  0.89216787  1
  Mo  Mo177  1  0.59817618  0.79688287  0.75243917  1
  Mo  Mo178  1  0.49348753  0.08995036  0.37303649  1
  Mo  Mo179  1  0.60035708  0.40423716  0.75986245  1
  Mo  Mo180  1  0.79503210  0.00494915  0.00961680  1
  Mo  Mo181  1  0.09331759  0.51242918  0.11629749  1
  Mo  Mo182  1  0.21096677  0.78999334  0.75514286  1
  Mo  Mo183  1  0.39236106  0.19350010  0.76958691  1
  Mo  Mo184  1  0.70956179  0.31288223  0.37353622  1
  Mo  Mo185  1  0.69571299  0.09213967  0.11099546  1
  Mo  Mo186  1  0.90781644  0.50160455  0.87023779  1
  Mo  Mo187  1  0.49455322  0.50196813  0.87432264  1
  Mo  Mo188  1  0.09058491  0.30082941  0.12324296  1
  Mo  Mo189  1  0.80048960  0.19982125  -0.00462153  1
  Mo  Mo190  1  0.70396210  0.70039463  0.62566472  1
  Mo  Mo191  1  0.09543944  0.88881344  0.87383503  1
  Mo  Mo192  1  0.69573319  0.90219911  0.12477012  1
  Mo  Mo193  1  0.50553003  0.09511979  0.88407059  1
  Mo  Mo194  1  0.49290756  0.30126782  0.36529218  1
  Mo  Mo195  1  0.30907209  0.29490258  0.12066202  1
  Mo  Mo196  1  0.69862301  0.70163828  0.12665215  1
  Mo  Mo197  1  0.00137194  0.80305045  0.49980578  1
  Mo  Mo198  1  0.49558722  0.29605561  0.63181793  1
  Mo  Mo199  1  0.60594011  0.41038410  0.49818757  1
