# generated using pymatgen
data_HfZrTaTiMo
_symmetry_space_group_name_H-M   'P 1'
_cell_length_a   15.21732525
_cell_length_b   15.21448165
_cell_length_c   16.84897781
_cell_angle_alpha   90.01668513
_cell_angle_beta   90.00956761
_cell_angle_gamma   89.99742660
_symmetry_Int_Tables_number   1
_chemical_formula_structural   HfZrTaTiMo
_chemical_formula_sum   'Hf40 Zr40 Ta40 Ti40 Mo40'
_cell_volume   3900.93772922
_cell_formula_units_Z   40
loop_
 _symmetry_equiv_pos_site_id
 _symmetry_equiv_pos_as_xyz
  1  'x, y, z'
loop_
 _atom_site_type_symbol
 _atom_site_label
 _atom_site_symmetry_multiplicity
 _atom_site_fract_x
 _atom_site_fract_y
 _atom_site_fract_z
 _atom_site_occupancy
  Hf  Hf0  1  0.28858691  0.08964969  0.12582081  1
  Hf  Hf1  1  0.60495123  0.60614215  -0.00172288  1
  Hf  Hf2  1  0.39776738  0.80244487  0.48813997  1
  Hf  Hf3  1  0.60160113  0.80378202  0.49227630  1
  Hf  Hf4  1  0.61201491  0.59850124  0.74823857  1
  Hf  Hf5  1  0.58997596  0.19471843  0.76111724  1
  Hf  Hf6  1  0.90949833  0.71174801  0.62534423  1
  Hf  Hf7  1  0.80224008  0.40462258  -0.00474163  1
  Hf  Hf8  1  0.19279346  0.21387851  0.00484143  1
  Hf  Hf9  1  0.09094268  0.09106703  0.39642916  1
  Hf  Hf10  1  0.50804629  0.69589355  0.61740446  1
  Hf  Hf11  1  0.59671962  0.38400467  0.49055521  1
  Hf  Hf12  1  0.02155634  0.59859014  0.48824367  1
  Hf  Hf13  1  0.80225945  -0.00381902  0.75379954  1
  Hf  Hf14  1  0.38326003  -0.02038472  0.00813213  1
  Hf  Hf15  1  0.11391626  0.70614631  0.89099996  1
  Hf  Hf16  1  0.29103835  0.90165037  0.86771549  1
  Hf  Hf17  1  0.91105721  0.51071451  0.62696834  1
  Hf  Hf18  1  -0.00506888  0.00932505  0.24031503  1
  Hf  Hf19  1  0.31521516  0.70692084  0.87259182  1
  Hf  Hf20  1  0.11483747  0.69319018  0.11161796  1
  Hf  Hf21  1  0.30769246  0.30494071  0.87020830  1
  Hf  Hf22  1  0.31283733  0.50692932  0.13888876  1
  Hf  Hf23  1  0.22947897  0.80616486  0.01170805  1
  Hf  Hf24  1  0.59408396  0.38942263  0.75326354  1
  Hf  Hf25  1  0.40207086  0.61122907  0.00996366  1
  Hf  Hf26  1  0.68550359  0.50901650  0.13667516  1
  Hf  Hf27  1  0.39396002  0.19308733  0.25391918  1
  Hf  Hf28  1  0.08800758  0.09414990  0.89160035  1
  Hf  Hf29  1  0.00597708  0.80979972  0.76135366  1
  Hf  Hf30  1  0.17751941  0.19437676  0.24917193  1
  Hf  Hf31  1  0.79736894  0.19176990  0.24057467  1
  Hf  Hf32  1  -0.00342025  0.40831048  0.76028668  1
  Hf  Hf33  1  0.40133991  -0.00647297  0.50108822  1
  Hf  Hf34  1  0.71225801  0.70119628  0.37238288  1
  Hf  Hf35  1  0.08936852  0.09265721  0.10706513  1
  Hf  Hf36  1  0.39880556  0.59941456  0.48917542  1
  Hf  Hf37  1  0.51146746  0.70874224  0.87052208  1
  Hf  Hf38  1  0.08576809  0.89539220  0.60550066  1
  Hf  Hf39  1  0.49332026  0.49577201  0.87065581  1
  Zr  Zr40  1  0.69362787  0.08751898  0.89114753  1
  Zr  Zr41  1  0.48572116  0.09616369  0.88039650  1
  Zr  Zr42  1  0.38200936  0.40338221  0.49758467  1
  Zr  Zr43  1  0.40198303  0.59348317  0.73789621  1
  Zr  Zr44  1  0.28986095  0.30504311  0.13798193  1
  Zr  Zr45  1  0.29440098  0.10102950  0.38167606  1
  Zr  Zr46  1  0.59282541  0.40493004  -0.00583569  1
  Zr  Zr47  1  0.69171331  0.09329136  0.10555316  1
  Zr  Zr48  1  0.20201395  0.22105889  0.50107781  1
  Zr  Zr49  1  0.49464435  0.89532213  0.86647330  1
  Zr  Zr50  1  0.10275603  0.68719422  0.62605555  1
  Zr  Zr51  1  0.50785012  0.10657891  0.61800630  1
  Zr  Zr52  1  0.10209610  0.88674330  0.38501558  1
  Zr  Zr53  1  0.71301540  0.69180388  0.62088552  1
  Zr  Zr54  1  0.70581108  0.88392916  0.88163669  1
  Zr  Zr55  1  0.80743943  0.39218581  0.24636174  1
  Zr  Zr56  1  0.90039948  0.90648299  0.36710331  1
  Zr  Zr57  1  0.89769271  0.09288536  0.61441261  1
  Zr  Zr58  1  0.49228830  0.09457822  0.11970313  1
  Zr  Zr59  1  0.88378825  0.30603470  0.63261019  1
  Zr  Zr60  1  0.19439632  0.59972784  0.75064086  1
  Zr  Zr61  1  0.28732735  0.10291142  0.87412657  1
  Zr  Zr62  1  0.81291275  0.81001616  0.49683670  1
  Zr  Zr63  1  0.49687122  0.31468136  0.13381872  1
  Zr  Zr64  1  0.09754598  0.10147538  0.60526240  1
  Zr  Zr65  1  0.79970259  0.40279059  0.49201210  1
  Zr  Zr66  1  0.29503316  0.50140846  0.88068767  1
  Zr  Zr67  1  0.18601235  -0.00206575  0.74217204  1
  Zr  Zr68  1  0.80136789  0.60891937  0.00433350  1
  Zr  Zr69  1  0.91316741  0.49766298  0.12804411  1
  Zr  Zr70  1  0.01026715  0.59988157  0.24938821  1
  Zr  Zr71  1  0.08283417  0.30689977  0.37111349  1
  Zr  Zr72  1  0.51807963  0.69716779  0.14468487  1
  Zr  Zr73  1  0.91422268  0.49614853  0.36914488  1
  Zr  Zr74  1  0.00420914  0.39070597  -0.00452445  1
  Zr  Zr75  1  0.00172588  0.19672889  0.74901830  1
  Zr  Zr76  1  0.71181531  0.48884426  0.63227985  1
  Zr  Zr77  1  0.60463321  0.19288211  0.25044063  1
  Zr  Zr78  1  0.89764004  0.10638277  0.38604515  1
  Zr  Zr79  1  0.49357619  0.29406224  0.36902360  1
  Ta  Ta80  1  0.79042032  -0.00180098  0.23438338  1
  Ta  Ta81  1  0.79202563  0.20097340  0.75922935  1
  Ta  Ta82  1  0.28687737  0.69986346  0.36708152  1
  Ta  Ta83  1  0.59872063  -0.00716585  0.74439720  1
  Ta  Ta84  1  0.39399335  0.20377847  0.73717228  1
  Ta  Ta85  1  0.60984708  -0.00045071  0.50004071  1
  Ta  Ta86  1  0.80812499  0.80460843  0.23959657  1
  Ta  Ta87  1  0.39869053  0.80592248  0.73138106  1
  Ta  Ta88  1  0.00612447  0.59683413  -0.00503941  1
  Ta  Ta89  1  0.69975052  0.30085201  0.11444350  1
  Ta  Ta90  1  0.49818617  0.50202993  0.35880085  1
  Ta  Ta91  1  -0.01590937  0.21218735  0.23003682  1
  Ta  Ta92  1  0.19563023  0.39679627  0.74087673  1
  Ta  Ta93  1  0.70582569  0.90263352  0.62729024  1
  Ta  Ta94  1  0.50384973  0.49015671  0.61795432  1
  Ta  Ta95  1  0.69916679  0.29823438  0.87824754  1
  Ta  Ta96  1  0.60582506  0.39765882  0.25831960  1
  Ta  Ta97  1  0.12709732  0.49954290  0.37073814  1
  Ta  Ta98  1  0.90220270  0.71812253  0.88882645  1
  Ta  Ta99  1  0.60678608  0.58708160  0.48818900  1
  Ta  Ta100  1  0.30174187  0.70485712  0.61759222  1
  Ta  Ta101  1  0.10307422  0.49960864  0.88187242  1
  Ta  Ta102  1  -0.00775204  -0.00444636  0.75658341  1
  Ta  Ta103  1  0.10826458  0.29969374  0.87079844  1
  Ta  Ta104  1  0.89264116  0.29619513  0.37573751  1
  Ta  Ta105  1  0.80302721  0.61156472  0.24370135  1
  Ta  Ta106  1  0.91051170  0.71190499  0.11888070  1
  Ta  Ta107  1  0.59419726  -0.00965465  0.25004107  1
  Ta  Ta108  1  0.01520838  0.80282067  0.23990029  1
  Ta  Ta109  1  0.80272673  0.20243691  -0.00129195  1
  Ta  Ta110  1  0.29744009  0.09674324  0.61519368  1
  Ta  Ta111  1  0.50611917  0.09003180  0.38374849  1
  Ta  Ta112  1  0.40648920  0.20833617  0.50378787  1
  Ta  Ta113  1  0.20424199  0.60606388  0.24765763  1
  Ta  Ta114  1  0.40724833  0.80727117  0.26914567  1
  Ta  Ta115  1  0.28467649  0.32168133  0.35951955  1
  Ta  Ta116  1  0.58542549  -0.03483494  0.00978504  1
  Ta  Ta117  1  0.70131277  0.10120813  0.62691605  1
  Ta  Ta118  1  0.39297949  0.00030463  0.73275160  1
  Ta  Ta119  1  0.39715453  0.20758698  0.00384817  1
  Ti  Ti120  1  0.69914361  0.91018511  0.36886726  1
  Ti  Ti121  1  0.18011897  0.41497685  0.51055657  1
  Ti  Ti122  1  0.89199200  0.09128227  0.88610183  1
  Ti  Ti123  1  0.31617043  0.70874964  0.14377131  1
  Ti  Ti124  1  0.10107957  0.89519197  0.11594243  1
  Ti  Ti125  1  0.91686545  0.70919735  0.36871000  1
  Ti  Ti126  1  0.08935869  0.90136472  0.89789254  1
  Ti  Ti127  1  0.71549616  0.50001000  0.86363517  1
  Ti  Ti128  1  0.19785490  0.41097686  0.01059771  1
  Ti  Ti129  1  0.19880022  0.78512621  0.49943308  1
  Ti  Ti130  1  0.29633389  0.30223566  0.62623948  1
  Ti  Ti131  1  0.80918587  0.79789956  0.75184727  1
  Ti  Ti132  1  0.58904959  0.20838838  -0.00819213  1
  Ti  Ti133  1  0.40235847  -0.00377556  0.25949415  1
  Ti  Ti134  1  0.30515804  0.89479275  0.14561007  1
  Ti  Ti135  1  0.60796829  0.80192337  0.73921067  1
  Ti  Ti136  1  -0.00797401  0.22702574  0.51106995  1
  Ti  Ti137  1  0.89657299  0.29746547  0.86975268  1
  Ti  Ti138  1  0.39882814  0.39401989  0.73678711  1
  Ti  Ti139  1  0.77792481  0.20576841  0.49838768  1
  Ti  Ti140  1  0.80917837  0.60113794  0.49110649  1
  Ti  Ti141  1  0.80549947  0.81396832  0.01452837  1
  Ti  Ti142  1  0.60936316  0.80269895  0.25867659  1
  Ti  Ti143  1  0.70346045  0.50026505  0.36489881  1
  Ti  Ti144  1  0.19039846  -0.01149344  0.25037553  1
  Ti  Ti145  1  0.71029179  0.69728176  0.87016273  1
  Ti  Ti146  1  -0.02777295  -0.01786716  0.00819996  1
  Ti  Ti147  1  -0.01341213  0.20498459  0.00706692  1
  Ti  Ti148  1  0.69005962  0.88609529  0.12521323  1
  Ti  Ti149  1  0.20451332  0.80450274  0.73923915  1
  Ti  Ti150  1  -0.00655947  0.60725518  0.77053634  1
  Ti  Ti151  1  0.28840771  0.50679938  0.62190546  1
  Ti  Ti152  1  0.29384514  0.90105985  0.36996541  1
  Ti  Ti153  1  0.39880644  0.40009559  0.00412089  1
  Ti  Ti154  1  0.50334635  0.89954616  0.62497460  1
  Ti  Ti155  1  0.68216191  0.28823956  0.62902088  1
  Ti  Ti156  1  0.79562707  0.00102619  0.50231563  1
  Ti  Ti157  1  0.69931333  0.10137511  0.37681697  1
  Ti  Ti158  1  0.50675835  0.69714283  0.36770556  1
  Ti  Ti159  1  0.19744009  0.20301202  0.73971693  1
  Mo  Mo160  1  -0.00011562  0.79139057  0.49306020  1
  Mo  Mo161  1  0.49607986  0.89352448  0.14191863  1
  Mo  Mo162  1  0.30356796  0.50238746  0.36082814  1
  Mo  Mo163  1  0.89103833  0.29615209  0.11600201  1
  Mo  Mo164  1  0.20851332  -0.01213778  0.50258421  1
  Mo  Mo165  1  0.81853284  0.60352204  0.76624937  1
  Mo  Mo166  1  0.09789970  0.31245704  0.63047552  1
  Mo  Mo167  1  -0.01337768  -0.01352852  0.49984899  1
  Mo  Mo168  1  0.71239184  0.70611616  0.13517789  1
  Mo  Mo169  1  0.60457074  0.19259343  0.49545308  1
  Mo  Mo170  1  0.20756013  0.59639101  0.00508569  1
  Mo  Mo171  1  0.79462017  -0.00531137  0.01322727  1
  Mo  Mo172  1  0.21503411  0.59558295  0.49687709  1
  Mo  Mo173  1  0.08995471  0.30603369  0.12652545  1
  Mo  Mo174  1  0.40364765  0.60983388  0.26308296  1
  Mo  Mo175  1  0.60623651  0.79091305  0.00676678  1
  Mo  Mo176  1  0.20383448  0.80381253  0.24106666  1
  Mo  Mo177  1  0.09891430  0.49497089  0.62866466  1
  Mo  Mo178  1  0.50161807  0.50034801  0.14775398  1
  Mo  Mo179  1  0.79749191  0.39454934  0.76510887  1
  Mo  Mo180  1  0.18997050  -0.00617847  0.00470122  1
  Mo  Mo181  1  0.00006681  0.79819461  0.00544468  1
  Mo  Mo182  1  0.61136316  0.60132966  0.26864640  1
  Mo  Mo183  1  0.50690937  0.90224330  0.37089531  1
  Mo  Mo184  1  0.42743623  0.80463358  0.01291727  1
  Mo  Mo185  1  0.29512296  0.89655558  0.61745879  1
  Mo  Mo186  1  0.10673484  0.69939291  0.36910925  1
  Mo  Mo187  1  0.00345957  0.40049984  0.50299375  1
  Mo  Mo188  1  0.90114880  0.90479920  0.88204865  1
  Mo  Mo189  1  0.89173388  0.09776995  0.11326685  1
  Mo  Mo190  1  0.18633443  0.40900710  0.24038488  1
  Mo  Mo191  1  0.49320670  0.30271234  0.62088490  1
  Mo  Mo192  1  0.90106961  0.90067978  0.13387598  1
  Mo  Mo193  1  0.11195124  0.49837623  0.11945529  1
  Mo  Mo194  1  0.00960623  0.39325094  0.24096548  1
  Mo  Mo195  1  0.49049647  0.29843415  0.87881118  1
  Mo  Mo196  1  0.70563458  0.29324512  0.37230638  1
  Mo  Mo197  1  0.89529260  0.90149869  0.62865561  1
  Mo  Mo198  1  0.39766903  0.40403111  0.25696941  1
  Mo  Mo199  1  0.90190834  0.51120427  0.87567265  1
