# generated using pymatgen
data_HfZrTaTiMo
_symmetry_space_group_name_H-M   'P 1'
_cell_length_a   15.19773563
_cell_length_b   15.18239632
_cell_length_c   16.81176934
_cell_angle_alpha   89.98753860
_cell_angle_beta   89.90932608
_cell_angle_gamma   90.11004147
_symmetry_Int_Tables_number   1
_chemical_formula_structural   HfZrTaTiMo
_chemical_formula_sum   'Hf40 Zr40 Ta40 Ti40 Mo40'
_cell_volume   3879.10269134
_cell_formula_units_Z   40
loop_
 _symmetry_equiv_pos_site_id
 _symmetry_equiv_pos_as_xyz
  1  'x, y, z'
loop_
 _atom_site_type_symbol
 _atom_site_label
 _atom_site_symmetry_multiplicity
 _atom_site_fract_x
 _atom_site_fract_y
 _atom_site_fract_z
 _atom_site_occupancy
  Hf  Hf0  1  0.39098516  0.39186507  0.75534439  1
  Hf  Hf1  1  0.78605324  0.59738176  -0.00179101  1
  Hf  Hf2  1  0.89251107  0.69260496  0.87184399  1
  Hf  Hf3  1  0.81189076  0.40881069  -0.02100563  1
  Hf  Hf4  1  0.49563455  0.90684323  0.60030940  1
  Hf  Hf5  1  0.10187093  0.10211634  0.88277049  1
  Hf  Hf6  1  -0.00583200  0.39374146  0.26122043  1
  Hf  Hf7  1  0.79540804  0.19542094  0.24453552  1
  Hf  Hf8  1  0.59155085  -0.02037137  0.00303002  1
  Hf  Hf9  1  0.30076553  0.12560988  0.88050323  1
  Hf  Hf10  1  0.49631713  0.08609484  0.87359812  1
  Hf  Hf11  1  0.28942057  0.11402229  0.37547361  1
  Hf  Hf12  1  0.89315517  0.88558479  0.11947604  1
  Hf  Hf13  1  0.90438953  0.10027765  0.87990833  1
  Hf  Hf14  1  0.18852532  0.20475718  0.24285966  1
  Hf  Hf15  1  0.60104842  0.79543879  0.48809884  1
  Hf  Hf16  1  0.60251406  0.80159415  0.73140419  1
  Hf  Hf17  1  0.30479382  0.31971692  0.36048993  1
  Hf  Hf18  1  0.79494205  -0.00654378  0.74084495  1
  Hf  Hf19  1  0.51856528  0.89314564  0.14510022  1
  Hf  Hf20  1  -0.00506291  0.00877434  0.23555521  1
  Hf  Hf21  1  0.00202571  0.60428771  0.49812683  1
  Hf  Hf22  1  0.51077080  0.32540715  0.38562170  1
  Hf  Hf23  1  0.40436200  0.80533067  0.75511401  1
  Hf  Hf24  1  0.29028092  0.69072643  0.63159639  1
  Hf  Hf25  1  -0.01329833  0.40073271  0.50391219  1
  Hf  Hf26  1  -0.00374239  0.79878725  0.76418790  1
  Hf  Hf27  1  0.49804397  0.49330648  0.62835798  1
  Hf  Hf28  1  0.68919467  0.71310513  0.13211364  1
  Hf  Hf29  1  0.58945909  0.59218463  0.26215255  1
  Hf  Hf30  1  0.79329032  -0.01306336  0.24236064  1
  Hf  Hf31  1  0.08859527  0.68924993  0.13808660  1
  Hf  Hf32  1  0.00831753  0.20185221  0.73618751  1
  Hf  Hf33  1  0.29945991  0.70290587  0.13647480  1
  Hf  Hf34  1  0.40737713  0.40851410  -0.00333468  1
  Hf  Hf35  1  0.21422028  0.20974858  0.73567390  1
  Hf  Hf36  1  0.70663201  0.31590193  0.12084391  1
  Hf  Hf37  1  0.89340564  0.69825846  0.37679874  1
  Hf  Hf38  1  0.30454052  0.91727178  0.88014831  1
  Hf  Hf39  1  0.10439913  0.31257161  0.61943814  1
  Zr  Zr40  1  0.69195321  0.11111571  0.61794732  1
  Zr  Zr41  1  0.80484651  0.20433430  0.74477040  1
  Zr  Zr42  1  -0.00868035  0.18872144  0.51877307  1
  Zr  Zr43  1  0.66434912  0.10684130  0.13218282  1
  Zr  Zr44  1  0.51705808  0.30177854  0.12927169  1
  Zr  Zr45  1  -0.00413236  -0.00110878  0.74276592  1
  Zr  Zr46  1  0.19039015  -0.00980240  0.48650409  1
  Zr  Zr47  1  0.51352906  0.29898377  0.61044020  1
  Zr  Zr48  1  0.10962401  0.50127490  0.37521347  1
  Zr  Zr49  1  0.61301092  0.00250044  0.48250235  1
  Zr  Zr50  1  0.29863520  0.88836868  0.61507276  1
  Zr  Zr51  1  0.30688640  0.09928059  0.60036045  1
  Zr  Zr52  1  0.20251546  0.80158950  -0.00581775  1
  Zr  Zr53  1  0.42268408  0.19795745  0.24944713  1
  Zr  Zr54  1  0.69307857  0.10224022  0.86992200  1
  Zr  Zr55  1  0.10981692  0.89525156  0.13051077  1
  Zr  Zr56  1  0.09784987  0.65357870  0.87010787  1
  Zr  Zr57  1  0.80017112  0.21030770  -0.00337734  1
  Zr  Zr58  1  0.68849354  0.89408803  0.86871271  1
  Zr  Zr59  1  0.20739401  0.43014574  0.22478496  1
  Zr  Zr60  1  0.49833866  0.12301475  0.40415944  1
  Zr  Zr61  1  0.19377753  0.57540143  0.02380139  1
  Zr  Zr62  1  0.00083318  0.79544057  -0.01125529  1
  Zr  Zr63  1  0.30399088  0.68818917  0.88228829  1
  Zr  Zr64  1  0.69200953  0.69120473  0.86535753  1
  Zr  Zr65  1  0.79518790  0.00658995  0.01441227  1
  Zr  Zr66  1  0.40085464  0.00807259  0.73787696  1
  Zr  Zr67  1  0.10246905  0.29591894  0.38358770  1
  Zr  Zr68  1  0.42178081  0.80202680  0.00208777  1
  Zr  Zr69  1  0.20593696  0.38843767  0.01332614  1
  Zr  Zr70  1  0.61642911  0.80571968  0.28150535  1
  Zr  Zr71  1  0.10087502  0.88377218  0.62266439  1
  Zr  Zr72  1  0.49291717  0.69756228  0.61656880  1
  Zr  Zr73  1  0.49683119  0.29194235  0.87315779  1
  Zr  Zr74  1  0.19377153  0.79929752  0.77218732  1
  Zr  Zr75  1  0.80761838  0.59142192  0.73766912  1
  Zr  Zr76  1  0.59844637  0.01990747  0.28052733  1
  Zr  Zr77  1  0.10395315  0.70345194  0.35581125  1
  Zr  Zr78  1  0.19547076  0.00675976  0.74478051  1
  Zr  Zr79  1  0.39452473  0.20203322  0.01672249  1
  Ta  Ta80  1  0.39669995  0.00021529  0.01144612  1
  Ta  Ta81  1  0.19207215  0.41002756  0.74846160  1
  Ta  Ta82  1  0.88927596  0.69057628  0.13074163  1
  Ta  Ta83  1  0.87687866  0.48946992  0.38234638  1
  Ta  Ta84  1  0.80194927  0.79806694  0.73464372  1
  Ta  Ta85  1  0.00359614  0.80239915  0.49523628  1
  Ta  Ta86  1  0.00297628  0.20547103  0.00859231  1
  Ta  Ta87  1  0.70439290  0.69256210  0.61303242  1
  Ta  Ta88  1  0.39627105  0.59354478  0.75604973  1
  Ta  Ta89  1  0.40045985  -0.00340341  0.26804902  1
  Ta  Ta90  1  0.20181782  0.00742336  0.01124596  1
  Ta  Ta91  1  0.88862506  0.28463632  0.38188763  1
  Ta  Ta92  1  0.29735270  0.09514857  0.13848716  1
  Ta  Ta93  1  0.40795436  0.79525616  0.26408021  1
  Ta  Ta94  1  0.59645128  0.19951729  -0.00336785  1
  Ta  Ta95  1  0.88628547  0.49608472  0.12989450  1
  Ta  Ta96  1  0.78397860  0.80043284  0.00006966  1
  Ta  Ta97  1  0.89466091  0.09167459  0.37728616  1
  Ta  Ta98  1  0.38361776  0.78761392  0.47925941  1
  Ta  Ta99  1  0.40542852  0.19889552  0.73385591  1
  Ta  Ta100  1  0.80034311  0.40372586  0.74755700  1
  Ta  Ta101  1  -0.01487150  0.58359753  0.00513502  1
  Ta  Ta102  1  0.10450335  0.51202436  0.62387619  1
  Ta  Ta103  1  0.08454640  0.09769685  0.37406637  1
  Ta  Ta104  1  0.31390442  0.90502972  0.14061399  1
  Ta  Ta105  1  0.00594023  0.39896893  -0.00145432  1
  Ta  Ta106  1  0.48760774  0.68556272  0.38095242  1
  Ta  Ta107  1  0.90556863  0.30761326  0.12415823  1
  Ta  Ta108  1  0.59756472  0.58697802  0.49567601  1
  Ta  Ta109  1  0.50648977  0.70099812  0.86838585  1
  Ta  Ta110  1  -0.01510121  0.80108995  0.25061645  1
  Ta  Ta111  1  0.61017274  0.41010927  -0.01239644  1
  Ta  Ta112  1  0.20755655  0.60268304  0.49817048  1
  Ta  Ta113  1  0.79135914  0.59655440  0.25386347  1
  Ta  Ta114  1  0.19800214  0.00302507  0.25537061  1
  Ta  Ta115  1  0.59002745  0.00102130  0.73504899  1
  Ta  Ta116  1  0.91014756  0.69779798  0.62324492  1
  Ta  Ta117  1  -0.00963988  0.19702400  0.24327192  1
  Ta  Ta118  1  -0.00259495  -0.00466180  0.50649885  1
  Ta  Ta119  1  0.22265739  0.40813360  0.50629571  1
  Ti  Ti120  1  0.90803462  0.90004156  0.37751184  1
  Ti  Ti121  1  0.49914229  0.10572199  0.59797540  1
  Ti  Ti122  1  0.51025080  0.50425830  0.86463001  1
  Ti  Ti123  1  0.63923924  0.22676407  0.48741212  1
  Ti  Ti124  1  0.29089742  0.68953010  0.35385256  1
  Ti  Ti125  1  0.00280802  0.00703912  0.01403088  1
  Ti  Ti126  1  0.42231115  0.42467414  0.24072337  1
  Ti  Ti127  1  0.28920178  0.88694774  0.36047698  1
  Ti  Ti128  1  0.59578953  0.20421233  0.74445410  1
  Ti  Ti129  1  0.38992657  0.58913026  0.50097652  1
  Ti  Ti130  1  0.79785793  0.57591699  0.51422536  1
  Ti  Ti131  1  0.39314426  -0.01270060  0.47322951  1
  Ti  Ti132  1  0.09378430  0.30311880  0.12853273  1
  Ti  Ti133  1  0.61273917  0.40271902  0.25749808  1
  Ti  Ti134  1  0.81249703  0.01292997  0.50885711  1
  Ti  Ti135  1  0.31220722  0.30558813  0.14052049  1
  Ti  Ti136  1  0.31309630  0.50980825  0.36756233  1
  Ti  Ti137  1  0.70339600  0.89812195  0.61236661  1
  Ti  Ti138  1  0.28205398  0.49352427  0.87536174  1
  Ti  Ti139  1  0.92257866  0.31210297  0.86278349  1
  Ti  Ti140  1  0.19291480  0.20216949  0.50642478  1
  Ti  Ti141  1  0.69471170  0.30673157  0.86585125  1
  Ti  Ti142  1  0.69112382  0.50632854  0.12623474  1
  Ti  Ti143  1  0.11342058  0.30063899  0.87377314  1
  Ti  Ti144  1  0.60400663  0.59027731  0.74101191  1
  Ti  Ti145  1  0.59108314  0.60186533  -0.00250062  1
  Ti  Ti146  1  0.79841873  0.40113781  0.25401907  1
  Ti  Ti147  1  0.73093489  0.90179882  0.38801499  1
  Ti  Ti148  1  0.89546259  0.90357468  0.88390816  1
  Ti  Ti149  1  0.09329938  0.90004339  0.36307518  1
  Ti  Ti150  1  0.19377667  0.78740243  0.48930897  1
  Ti  Ti151  1  0.40638229  0.59704046  -0.00208794  1
  Ti  Ti152  1  0.37964887  0.23452658  0.50186901  1
  Ti  Ti153  1  0.80952183  0.79407741  0.50836401  1
  Ti  Ti154  1  0.09964529  0.69567187  0.63504355  1
  Ti  Ti155  1  0.49447920  0.68354289  0.13299862  1
  Ti  Ti156  1  0.89972490  0.89406555  0.61970588  1
  Ti  Ti157  1  0.19636544  0.19988951  0.01912047  1
  Ti  Ti158  1  0.70894711  0.68416565  0.38973981  1
  Ti  Ti159  1  -0.01255309  0.58854449  0.25486229  1
  Mo  Mo160  1  0.59755837  0.78474944  0.00154263  1
  Mo  Mo161  1  0.30557516  0.31135020  0.62190465  1
  Mo  Mo162  1  0.00445976  0.58967644  0.73742173  1
  Mo  Mo163  1  0.61664285  0.22112921  0.27637077  1
  Mo  Mo164  1  0.10406363  0.09602588  0.61784491  1
  Mo  Mo165  1  0.40279167  0.41736148  0.49885832  1
  Mo  Mo166  1  0.90520810  0.49791065  0.61875733  1
  Mo  Mo167  1  0.91280725  0.50095373  0.86844708  1
  Mo  Mo168  1  0.09952408  0.10616549  0.12050103  1
  Mo  Mo169  1  0.20139388  0.80857097  0.24894771  1
  Mo  Mo170  1  0.29103320  0.30219575  0.87487534  1
  Mo  Mo171  1  0.06189554  0.49113221  0.13072900  1
  Mo  Mo172  1  0.61608723  0.41403524  0.50039549  1
  Mo  Mo173  1  0.90026324  0.10811104  0.11762528  1
  Mo  Mo174  1  0.49079277  0.89358014  0.38183556  1
  Mo  Mo175  1  0.80843516  0.20554109  0.51071878  1
  Mo  Mo176  1  0.69543249  0.49553228  0.62533926  1
  Mo  Mo177  1  0.29781673  0.50212502  0.63003312  1
  Mo  Mo178  1  0.89900464  0.09104111  0.62629574  1
  Mo  Mo179  1  0.33882485  0.50914105  0.12253723  1
  Mo  Mo180  1  0.69884443  0.31195775  0.63409437  1
  Mo  Mo181  1  0.20553104  0.58881672  0.75041014  1
  Mo  Mo182  1  0.51920766  0.50282985  0.11700029  1
  Mo  Mo183  1  0.79148476  0.38733482  0.51296388  1
  Mo  Mo184  1  0.72352089  0.11538352  0.38591493  1
  Mo  Mo185  1  0.69602989  0.49635989  0.86608531  1
  Mo  Mo186  1  -0.00743373  0.40433701  0.73820854  1
  Mo  Mo187  1  0.48253341  0.08192876  0.12873358  1
  Mo  Mo188  1  0.69942577  0.89399648  0.12911090  1
  Mo  Mo189  1  0.50064237  0.89685566  0.87007640  1
  Mo  Mo190  1  0.71817535  0.31750563  0.37349505  1
  Mo  Mo191  1  0.08838190  0.92184961  0.89222431  1
  Mo  Mo192  1  0.60497649  0.40065390  0.75926882  1
  Mo  Mo193  1  0.39767697  0.59741381  0.24916437  1
  Mo  Mo194  1  0.09003850  0.47545399  0.87208221  1
  Mo  Mo195  1  0.49370915  0.50224613  0.38098037  1
  Mo  Mo196  1  0.19819199  0.60062937  0.23529303  1
  Mo  Mo197  1  0.80495193  0.79184715  0.25985243  1
  Mo  Mo198  1  0.70005232  0.49920172  0.37750014  1
  Mo  Mo199  1  0.89497801  0.30596531  0.63382938  1
