# generated using pymatgen
data_HfZrTaTiMo
_symmetry_space_group_name_H-M   'P 1'
_cell_length_a   15.20706338
_cell_length_b   15.20080961
_cell_length_c   16.83979439
_cell_angle_alpha   90.00986301
_cell_angle_beta   89.92434704
_cell_angle_gamma   89.98082985
_symmetry_Int_Tables_number   1
_chemical_formula_structural   HfZrTaTiMo
_chemical_formula_sum   'Hf40 Zr40 Ta40 Ti40 Mo40'
_cell_volume   3892.67773071
_cell_formula_units_Z   40
loop_
 _symmetry_equiv_pos_site_id
 _symmetry_equiv_pos_as_xyz
  1  'x, y, z'
loop_
 _atom_site_type_symbol
 _atom_site_label
 _atom_site_symmetry_multiplicity
 _atom_site_fract_x
 _atom_site_fract_y
 _atom_site_fract_z
 _atom_site_occupancy
  Hf  Hf0  1  0.20848254  0.60340437  0.73711377  1
  Hf  Hf1  1  0.30485170  0.29161677  0.87190553  1
  Hf  Hf2  1  0.80115917  0.80394178  0.26352323  1
  Hf  Hf3  1  0.19983640  0.80105747  0.25948662  1
  Hf  Hf4  1  -0.00879811  0.60431845  -0.01022312  1
  Hf  Hf5  1  0.59991022  0.59789243  0.73623971  1
  Hf  Hf6  1  -0.00069743  0.81821805  -0.00706370  1
  Hf  Hf7  1  0.70939413  0.50455683  0.87198557  1
  Hf  Hf8  1  -0.00018087  0.00322004  0.49277736  1
  Hf  Hf9  1  0.69738370  0.50409488  0.38502352  1
  Hf  Hf10  1  0.78807276  0.60899955  0.26379281  1
  Hf  Hf11  1  0.49357076  0.47115172  0.39867782  1
  Hf  Hf12  1  0.69381820  0.89948775  0.63735401  1
  Hf  Hf13  1  0.29243724  0.08410240  0.36233417  1
  Hf  Hf14  1  0.70383448  0.10021457  0.35527410  1
  Hf  Hf15  1  0.10905695  0.70744477  0.12208756  1
  Hf  Hf16  1  0.89305667  0.29600999  0.62667287  1
  Hf  Hf17  1  0.90560933  0.49976248  0.36920572  1
  Hf  Hf18  1  0.88598207  0.70564783  0.85323517  1
  Hf  Hf19  1  0.29566171  0.29418217  0.61205449  1
  Hf  Hf20  1  0.39803619  0.79260893  0.49633242  1
  Hf  Hf21  1  0.69909185  0.89409992  0.12871194  1
  Hf  Hf22  1  0.80116666  0.79185900  0.49797444  1
  Hf  Hf23  1  0.09904076  0.11823565  0.61752404  1
  Hf  Hf24  1  0.61415420  0.60331249  0.51711609  1
  Hf  Hf25  1  0.41291176  0.19035379  0.49966719  1
  Hf  Hf26  1  0.38693778  -0.01189144  0.49274948  1
  Hf  Hf27  1  0.69522541  0.69385635  0.12208304  1
  Hf  Hf28  1  0.29625463  0.08928098  0.61951656  1
  Hf  Hf29  1  0.09046126  0.91549996  0.62523177  1
  Hf  Hf30  1  0.09691027  0.70420592  0.86421792  1
  Hf  Hf31  1  0.29682229  0.49841525  0.86934920  1
  Hf  Hf32  1  0.80642863  0.58373898  0.73008273  1
  Hf  Hf33  1  0.91077292  0.29646513  0.88686523  1
  Hf  Hf34  1  0.90018270  0.70698052  0.12755296  1
  Hf  Hf35  1  0.31100984  0.70435693  0.86906514  1
  Hf  Hf36  1  0.90045935  0.51216286  0.13283079  1
  Hf  Hf37  1  0.10520059  0.30945501  0.38343935  1
  Hf  Hf38  1  0.60781042  0.21226690  0.49116548  1
  Hf  Hf39  1  0.69128660  0.10220391  0.86896991  1
  Zr  Zr40  1  0.60169098  0.78191183  0.26564369  1
  Zr  Zr41  1  0.79277645  0.79181605  -0.01233189  1
  Zr  Zr42  1  0.18522911  0.00887036  0.75727663  1
  Zr  Zr43  1  0.41827483  0.18852910  0.74142576  1
  Zr  Zr44  1  0.39404884  0.59615998  0.51556571  1
  Zr  Zr45  1  0.29852338  0.09770171  0.88130032  1
  Zr  Zr46  1  0.69795171  0.50411036  0.12695658  1
  Zr  Zr47  1  0.10251062  0.30525512  0.88039417  1
  Zr  Zr48  1  0.49111931  0.90551414  0.63184414  1
  Zr  Zr49  1  0.10335179  0.51026434  0.37956158  1
  Zr  Zr50  1  0.09531640  0.50274991  0.12432426  1
  Zr  Zr51  1  0.79440360  0.00472222  0.50747497  1
  Zr  Zr52  1  0.39109502  0.78102873  0.25954783  1
  Zr  Zr53  1  0.10303980  0.72131470  0.63813285  1
  Zr  Zr54  1  0.19777966  0.81068177  0.48766826  1
  Zr  Zr55  1  0.90231710  0.90772993  0.37072646  1
  Zr  Zr56  1  0.40486907  0.38447160  -0.00010191  1
  Zr  Zr57  1  0.81023619  0.19063085  0.01692467  1
  Zr  Zr58  1  0.81357121  -0.00978884  0.76055862  1
  Zr  Zr59  1  0.60209675  0.38866009  0.75468346  1
  Zr  Zr60  1  0.50793489  0.49611061  0.12581540  1
  Zr  Zr61  1  0.48867669  0.89959000  0.86426759  1
  Zr  Zr62  1  0.59172644  -0.00426783  0.00018528  1
  Zr  Zr63  1  0.49220331  0.89676462  0.13200199  1
  Zr  Zr64  1  0.09000472  0.10638281  0.89013394  1
  Zr  Zr65  1  0.69735087  0.12156613  0.64679547  1
  Zr  Zr66  1  0.40804885  0.60054284  -0.01002987  1
  Zr  Zr67  1  0.49325330  0.68788380  0.12815208  1
  Zr  Zr68  1  0.70732127  0.30206805  0.35829847  1
  Zr  Zr69  1  0.30222550  0.29203405  0.38690171  1
  Zr  Zr70  1  0.38390534  0.38750347  0.24910452  1
  Zr  Zr71  1  0.21338238  0.59397361  0.25182599  1
  Zr  Zr72  1  0.30387799  0.50891645  0.12191103  1
  Zr  Zr73  1  0.19905223  0.40044325  0.00320025  1
  Zr  Zr74  1  0.90165180  0.10876843  0.35233931  1
  Zr  Zr75  1  -0.01013823  0.20823020  0.49440349  1
  Zr  Zr76  1  0.80655934  0.40798335  0.00380353  1
  Zr  Zr77  1  0.80132128  -0.00831738  -0.00751798  1
  Zr  Zr78  1  0.39850162  0.39993718  0.74276399  1
  Zr  Zr79  1  0.59115853  0.01306054  0.50109996  1
  Ta  Ta80  1  0.69218644  0.90534375  0.37380251  1
  Ta  Ta81  1  0.50952286  0.68283838  0.38584473  1
  Ta  Ta82  1  0.80381013  0.38200250  0.75361028  1
  Ta  Ta83  1  0.07992750  0.51444205  0.62602275  1
  Ta  Ta84  1  0.59976291  0.80556435  0.49316961  1
  Ta  Ta85  1  0.10909082  0.92066109  0.36613731  1
  Ta  Ta86  1  0.60204504  0.39629685  -0.00857948  1
  Ta  Ta87  1  0.28945609  0.89847637  0.13017559  1
  Ta  Ta88  1  0.39858325  0.18326901  0.23343829  1
  Ta  Ta89  1  0.29559810  0.67997385  0.38324831  1
  Ta  Ta90  1  0.61157570  0.60262919  -0.01563029  1
  Ta  Ta91  1  0.50327944  0.48207388  0.61151069  1
  Ta  Ta92  1  0.00384286  0.80089978  0.25362304  1
  Ta  Ta93  1  0.01753528  0.21323473  0.23527938  1
  Ta  Ta94  1  0.49218425  0.90310982  0.36718986  1
  Ta  Ta95  1  0.20518446  0.81774857  0.76554566  1
  Ta  Ta96  1  0.70057997  0.09565187  0.13592399  1
  Ta  Ta97  1  0.09804636  0.31515880  0.61584793  1
  Ta  Ta98  1  0.59073923  0.00119862  0.24729280  1
  Ta  Ta99  1  -0.00153627  0.01692619  0.01928705  1
  Ta  Ta100  1  0.39700916  0.80152372  0.00000934  1
  Ta  Ta101  1  0.38034321  -0.00488078  0.00578650  1
  Ta  Ta102  1  0.79921236  0.19756777  0.49711908  1
  Ta  Ta103  1  0.59887869  0.20053934  0.01494215  1
  Ta  Ta104  1  0.90940218  0.49875276  0.86883735  1
  Ta  Ta105  1  0.59215959  0.79106766  -0.01254843  1
  Ta  Ta106  1  0.28612005  0.88900383  0.62701856  1
  Ta  Ta107  1  0.19047581  0.40254075  0.73939563  1
  Ta  Ta108  1  0.69641299  0.30525311  0.12915547  1
  Ta  Ta109  1  0.19043583  0.60703290  0.51405573  1
  Ta  Ta110  1  0.81934533  0.59127891  0.51499283  1
  Ta  Ta111  1  0.10601397  0.11177093  0.36431188  1
  Ta  Ta112  1  -0.00183472  0.20306426  0.74780055  1
  Ta  Ta113  1  0.20496332  0.81768346  -0.01269582  1
  Ta  Ta114  1  0.00738586  0.40229333  0.24793476  1
  Ta  Ta115  1  0.91551459  0.69621892  0.63707482  1
  Ta  Ta116  1  0.59287998  0.20249927  0.23696845  1
  Ta  Ta117  1  0.59205877  0.40140457  0.25504600  1
  Ta  Ta118  1  0.90094652  0.90938141  0.13583102  1
  Ta  Ta119  1  0.70614651  0.29047032  0.88227218  1
  Ti  Ti120  1  0.90248311  0.10315566  0.87572038  1
  Ti  Ti121  1  0.19678954  0.20988697  0.74683340  1
  Ti  Ti122  1  0.90292137  0.30280622  0.36482721  1
  Ti  Ti123  1  0.20890737  0.19352192  0.01830728  1
  Ti  Ti124  1  0.51883425  0.29144214  0.62395706  1
  Ti  Ti125  1  0.11474563  0.10430474  0.13204572  1
  Ti  Ti126  1  0.80418377  0.39906745  0.24242610  1
  Ti  Ti127  1  0.50444641  0.70778362  0.62526681  1
  Ti  Ti128  1  0.90689235  0.69346967  0.37743851  1
  Ti  Ti129  1  -0.00042680  0.79385331  0.49613166  1
  Ti  Ti130  1  0.57996699  0.01270401  0.74987539  1
  Ti  Ti131  1  -0.00891766  0.42063924  0.50561341  1
  Ti  Ti132  1  0.00563979  0.00659597  0.23973575  1
  Ti  Ti133  1  0.50944009  0.28903217  0.88083678  1
  Ti  Ti134  1  0.39639618  0.79133589  0.74080997  1
  Ti  Ti135  1  0.49949354  0.29811069  0.12502131  1
  Ti  Ti136  1  0.20253476  0.61242058  -0.00606244  1
  Ti  Ti137  1  0.89906086  0.89056585  0.62567920  1
  Ti  Ti138  1  0.81164789  0.20500826  0.22725068  1
  Ti  Ti139  1  0.09761630  0.50137458  0.86978015  1
  Ti  Ti140  1  -0.00198307  0.40580714  0.74520096  1
  Ti  Ti141  1  0.29034424  0.49048798  0.61466771  1
  Ti  Ti142  1  0.70863191  0.71059264  0.63263116  1
  Ti  Ti143  1  0.79941603  0.38834560  0.49773250  1
  Ti  Ti144  1  0.49492222  0.10483488  0.88486989  1
  Ti  Ti145  1  0.40273460  0.18673482  0.02240661  1
  Ti  Ti146  1  0.69397806  0.87901689  0.85308901  1
  Ti  Ti147  1  0.51111194  0.69908627  0.85981745  1
  Ti  Ti148  1  0.09366134  0.69947824  0.37427055  1
  Ti  Ti149  1  0.29107239  0.48457622  0.39712629  1
  Ti  Ti150  1  -0.00505101  0.83223887  0.76276361  1
  Ti  Ti151  1  0.41470534  0.58312620  0.27022050  1
  Ti  Ti152  1  0.91785382  0.30969781  0.11719300  1
  Ti  Ti153  1  0.40463138  0.59595870  0.73160227  1
  Ti  Ti154  1  0.50067961  0.49944427  0.87013516  1
  Ti  Ti155  1  0.49721251  0.10219080  0.36158351  1
  Ti  Ti156  1  0.90124673  0.09341105  0.63506762  1
  Ti  Ti157  1  0.70648434  0.47351272  0.61758281  1
  Ti  Ti158  1  0.38329366  -0.00803456  0.75021866  1
  Ti  Ti159  1  0.10148058  0.90618911  0.12788143  1
  Mo  Mo160  1  0.09647219  0.91216594  0.88234158  1
  Mo  Mo161  1  0.39846076  -0.00909897  0.25086446  1
  Mo  Mo162  1  0.00041922  0.61484452  0.25274677  1
  Mo  Mo163  1  0.01065124  0.20614750  0.02536531  1
  Mo  Mo164  1  0.18947634  0.38375526  0.24538010  1
  Mo  Mo165  1  0.19173283  -0.00215079  0.00985688  1
  Mo  Mo166  1  0.40381721  0.38639037  0.51225357  1
  Mo  Mo167  1  0.80951715  0.20248900  0.76169051  1
  Mo  Mo168  1  0.70499902  0.70076011  0.39477270  1
  Mo  Mo169  1  0.79890541  0.60629183  -0.01029961  1
  Mo  Mo170  1  0.69064426  0.69808981  0.85733897  1
  Mo  Mo171  1  0.00138340  0.40878054  -0.00266914  1
  Mo  Mo172  1  0.90080050  0.48919881  0.62276377  1
  Mo  Mo173  1  0.50105775  0.09637930  0.12301754  1
  Mo  Mo174  1  0.20800206  0.21115085  0.24114202  1
  Mo  Mo175  1  0.19174150  0.40802652  0.51373716  1
  Mo  Mo176  1  -0.00473812  0.01410438  0.74984388  1
  Mo  Mo177  1  0.50188128  0.28487774  0.36244925  1
  Mo  Mo178  1  0.70558116  0.30149449  0.62490944  1
  Mo  Mo179  1  0.30090570  0.08686433  0.13107392  1
  Mo  Mo180  1  0.90775086  0.10018113  0.14073819  1
  Mo  Mo181  1  0.19503786  0.00327933  0.24063848  1
  Mo  Mo182  1  0.30323250  0.70618888  0.63293455  1
  Mo  Mo183  1  -0.00307169  0.61711265  0.50206101  1
  Mo  Mo184  1  0.80308993  0.79614993  0.74194555  1
  Mo  Mo185  1  0.60352194  0.20294723  0.76125654  1
  Mo  Mo186  1  0.19312078  0.00499343  0.49525826  1
  Mo  Mo187  1  0.10504645  0.30326328  0.12173000  1
  Mo  Mo188  1  0.29661659  0.28842905  0.12537489  1
  Mo  Mo189  1  0.59143186  0.59067262  0.26813147  1
  Mo  Mo190  1  0.49785816  0.10038862  0.62557765  1
  Mo  Mo191  1  0.29330714  0.71317366  0.10738200  1
  Mo  Mo192  1  0.29968540  0.90103935  0.87567613  1
  Mo  Mo193  1  0.79494176  -0.00030851  0.24358814  1
  Mo  Mo194  1  0.60793010  0.39012967  0.50268135  1
  Mo  Mo195  1  0.00375422  0.59379465  0.75654056  1
  Mo  Mo196  1  0.59452948  0.79668595  0.74697531  1
  Mo  Mo197  1  0.29844051  0.89251598  0.36760681  1
  Mo  Mo198  1  0.91295595  0.91200559  0.87924305  1
  Mo  Mo199  1  0.19391690  0.19275584  0.49754266  1
