# generated using pymatgen
data_HfZrTaTiMo
_symmetry_space_group_name_H-M   'P 1'
_cell_length_a   15.21878274
_cell_length_b   15.22231381
_cell_length_c   16.86497878
_cell_angle_alpha   90.01103485
_cell_angle_beta   90.05715716
_cell_angle_gamma   89.95417042
_symmetry_Int_Tables_number   1
_chemical_formula_structural   HfZrTaTiMo
_chemical_formula_sum   'Hf40 Zr40 Ta40 Ti40 Mo40'
_cell_volume   3907.02350597
_cell_formula_units_Z   40
loop_
 _symmetry_equiv_pos_site_id
 _symmetry_equiv_pos_as_xyz
  1  'x, y, z'
loop_
 _atom_site_type_symbol
 _atom_site_label
 _atom_site_symmetry_multiplicity
 _atom_site_fract_x
 _atom_site_fract_y
 _atom_site_fract_z
 _atom_site_occupancy
  Hf  Hf0  1  0.79864197  0.80618479  0.76352341  1
  Hf  Hf1  1  0.89705327  0.49546939  0.85441390  1
  Hf  Hf2  1  0.91277311  0.69568052  0.87798076  1
  Hf  Hf3  1  0.20984384  0.60675961  0.48742473  1
  Hf  Hf4  1  0.68199868  0.68261120  0.12299334  1
  Hf  Hf5  1  0.89900525  0.30602835  0.12090696  1
  Hf  Hf6  1  0.72067025  0.48959399  0.13656453  1
  Hf  Hf7  1  0.40727263  0.59752859  0.49250959  1
  Hf  Hf8  1  0.08839188  0.89376860  0.62805463  1
  Hf  Hf9  1  0.10531200  0.30804336  0.86164263  1
  Hf  Hf10  1  0.69159549  0.09102821  0.10634465  1
  Hf  Hf11  1  0.39688511  0.41506356  0.01842868  1
  Hf  Hf12  1  -0.00787495  -0.00108189  0.50344766  1
  Hf  Hf13  1  0.60834960  0.19880022  0.76329325  1
  Hf  Hf14  1  0.80039494  0.80023104  0.23176087  1
  Hf  Hf15  1  0.68249689  0.88184731  0.88808545  1
  Hf  Hf16  1  0.49993078  0.88915283  0.37504159  1
  Hf  Hf17  1  0.20096173  0.41424845  0.25747683  1
  Hf  Hf18  1  0.89339192  0.10385893  0.12717323  1
  Hf  Hf19  1  0.88655136  0.10052383  0.37291360  1
  Hf  Hf20  1  -0.01067531  0.79844393  0.49023096  1
  Hf  Hf21  1  -0.00380367  0.00349077  -0.00641452  1
  Hf  Hf22  1  0.40096650  0.20943984  0.50244853  1
  Hf  Hf23  1  0.30284753  0.51181407  0.63090970  1
  Hf  Hf24  1  0.00631270  0.20304333  0.50627180  1
  Hf  Hf25  1  0.39790431  0.00478962  0.51381419  1
  Hf  Hf26  1  0.49922835  0.28220247  0.12093484  1
  Hf  Hf27  1  0.59401735  -0.01214504  0.24828142  1
  Hf  Hf28  1  0.59275982  0.39456341  0.24468970  1
  Hf  Hf29  1  0.19945646  -0.01211513  0.75650360  1
  Hf  Hf30  1  0.29841475  0.71658833  0.13399952  1
  Hf  Hf31  1  0.70904394  0.06963108  0.87411753  1
  Hf  Hf32  1  0.60251267  0.40991518  0.00929860  1
  Hf  Hf33  1  0.00034437  0.42285952  -0.01049373  1
  Hf  Hf34  1  -0.02614178  0.00624903  0.75381356  1
  Hf  Hf35  1  0.09814232  0.32544571  0.12682632  1
  Hf  Hf36  1  0.49565885  0.88291510  0.63701785  1
  Hf  Hf37  1  0.48003834  0.89811349  0.86125790  1
  Hf  Hf38  1  0.20380912  -0.00247839  -0.00368949  1
  Hf  Hf39  1  0.68247181  0.49465177  0.63306967  1
  Zr  Zr40  1  0.21069193  0.39073127  0.49263006  1
  Zr  Zr41  1  0.00504227  0.60803473  0.50195099  1
  Zr  Zr42  1  0.68885194  0.47504230  0.85786627  1
  Zr  Zr43  1  0.70418148  0.89640454  0.38018884  1
  Zr  Zr44  1  0.41127268  0.61640667  0.01172548  1
  Zr  Zr45  1  0.40010453  0.79271581  0.49962045  1
  Zr  Zr46  1  0.79806710  0.78565589  0.00385389  1
  Zr  Zr47  1  0.30431249  0.09326342  0.87246635  1
  Zr  Zr48  1  0.40250495  0.19910829  0.25818474  1
  Zr  Zr49  1  0.69630991  0.50034243  0.36780876  1
  Zr  Zr50  1  0.38948936  0.40249831  0.23526703  1
  Zr  Zr51  1  0.30563236  0.31530050  0.87226777  1
  Zr  Zr52  1  0.20292044  0.00833973  0.25280331  1
  Zr  Zr53  1  0.40946397  0.63146979  0.75189951  1
  Zr  Zr54  1  0.20362271  0.21758651  0.24953243  1
  Zr  Zr55  1  0.09459937  0.10393216  0.37240361  1
  Zr  Zr56  1  0.00398894  0.40119787  0.51158106  1
  Zr  Zr57  1  0.78426386  0.61169083  0.74704262  1
  Zr  Zr58  1  0.80647707  0.57784667  -0.00164312  1
  Zr  Zr59  1  0.60558856  0.20086075  -0.02548323  1
  Zr  Zr60  1  0.30750804  0.30222083  0.63835144  1
  Zr  Zr61  1  0.41264714  0.19420896  -0.01906484  1
  Zr  Zr62  1  0.09900524  0.89120295  0.13062907  1
  Zr  Zr63  1  0.41492152  0.60022905  0.23672991  1
  Zr  Zr64  1  0.29926676  0.90651745  0.36977288  1
  Zr  Zr65  1  0.70112085  0.28800066  0.37649266  1
  Zr  Zr66  1  0.00613026  0.21044315  -0.00766956  1
  Zr  Zr67  1  0.59080404  0.76898359  0.74851709  1
  Zr  Zr68  1  0.59964282  -0.00753662  0.51418256  1
  Zr  Zr69  1  0.30190867  0.52493185  0.87392654  1
  Zr  Zr70  1  0.81292703  0.17585005  0.75106563  1
  Zr  Zr71  1  0.89413636  0.50489353  0.63202343  1
  Zr  Zr72  1  0.30725731  0.11185783  0.11739439  1
  Zr  Zr73  1  0.79252865  -0.00048531  0.23980929  1
  Zr  Zr74  1  0.70988017  0.28393456  0.12656145  1
  Zr  Zr75  1  0.79436632  0.39278709  0.50636928  1
  Zr  Zr76  1  0.09484647  0.10542939  0.13053151  1
  Zr  Zr77  1  0.79696227  0.62401091  0.50271124  1
  Zr  Zr78  1  0.10158269  0.10632352  0.63696015  1
  Zr  Zr79  1  0.90248476  0.50551964  0.37453809  1
  Ta  Ta80  1  0.50718001  0.30465317  0.63016886  1
  Ta  Ta81  1  0.92465504  0.49984118  0.13728666  1
  Ta  Ta82  1  0.11139738  0.29998290  0.64167750  1
  Ta  Ta83  1  0.60136504  0.19589880  0.51063584  1
  Ta  Ta84  1  0.31130256  0.91213392  0.13735875  1
  Ta  Ta85  1  0.69459363  0.09704847  0.38355306  1
  Ta  Ta86  1  0.29987225  0.11150837  0.38629870  1
  Ta  Ta87  1  -0.01372121  0.21687090  0.25327867  1
  Ta  Ta88  1  0.89991748  0.29833231  0.85505485  1
  Ta  Ta89  1  0.90562152  0.28904292  0.63974199  1
  Ta  Ta90  1  0.70557123  0.70280880  0.36336514  1
  Ta  Ta91  1  0.19656041  0.00499200  0.50270100  1
  Ta  Ta92  1  0.61082464  0.77848597  0.50653892  1
  Ta  Ta93  1  0.58722372  0.39275264  0.49952797  1
  Ta  Ta94  1  0.81031404  0.18921418  -0.02052856  1
  Ta  Ta95  1  0.09924174  0.51597488  0.86211576  1
  Ta  Ta96  1  0.28733962  0.89997210  0.62344673  1
  Ta  Ta97  1  0.41194636  0.20793345  0.76116019  1
  Ta  Ta98  1  0.10991697  0.50590769  0.63097180  1
  Ta  Ta99  1  0.88723287  0.90810235  0.88773768  1
  Ta  Ta100  1  0.50247629  0.09499633  0.37948758  1
  Ta  Ta101  1  0.01012771  0.79166752  -0.00223973  1
  Ta  Ta102  1  0.89864720  0.72688908  0.63035680  1
  Ta  Ta103  1  0.01073735  0.60295458  0.25713308  1
  Ta  Ta104  1  0.00779222  0.61258003  0.74002851  1
  Ta  Ta105  1  0.20367945  0.21561721  0.00172199  1
  Ta  Ta106  1  0.81889476  0.38669085  0.25656820  1
  Ta  Ta107  1  0.20671477  0.60371574  0.26018728  1
  Ta  Ta108  1  0.11827874  0.70517599  0.86773238  1
  Ta  Ta109  1  0.71201787  0.87907951  0.62533761  1
  Ta  Ta110  1  0.49493351  0.08024301  0.12529954  1
  Ta  Ta111  1  0.50279960  0.10534684  0.64181069  1
  Ta  Ta112  1  0.00328918  0.40449634  0.74149407  1
  Ta  Ta113  1  0.90291276  0.29628469  0.38089622  1
  Ta  Ta114  1  0.11099659  0.70390936  0.62773582  1
  Ta  Ta115  1  0.67922354  0.89209890  0.10480906  1
  Ta  Ta116  1  0.20480009  0.41434557  0.75059241  1
  Ta  Ta117  1  0.19002757  0.60856833  0.00317776  1
  Ta  Ta118  1  0.60579145  0.18368747  0.25264222  1
  Ta  Ta119  1  0.19424681  0.80438838  0.49346676  1
  Ti  Ti120  1  0.09552924  0.90107068  0.37144615  1
  Ti  Ti121  1  0.49638186  0.49810403  0.62328299  1
  Ti  Ti122  1  0.00006890  0.80607931  0.75725247  1
  Ti  Ti123  1  0.67432831  0.67395768  0.88661428  1
  Ti  Ti124  1  0.80261524  -0.00782964  0.51041705  1
  Ti  Ti125  1  0.10022988  0.30183635  0.37536179  1
  Ti  Ti126  1  0.10243128  0.50096378  0.37893674  1
  Ti  Ti127  1  0.91145148  0.69056275  0.11957708  1
  Ti  Ti128  1  0.09387047  0.89672929  0.87481603  1
  Ti  Ti129  1  0.09810291  0.11077166  0.86401999  1
  Ti  Ti130  1  0.41754796  0.41904906  0.75615118  1
  Ti  Ti131  1  0.89484869  0.89431942  0.36986338  1
  Ti  Ti132  1  0.51392767  0.69219514  0.36900731  1
  Ti  Ti133  1  0.70229841  0.08461501  0.63480130  1
  Ti  Ti134  1  0.20071820  0.80157892  0.00236716  1
  Ti  Ti135  1  0.49942167  0.29490475  0.37622546  1
  Ti  Ti136  1  0.80008581  0.18799267  0.51453832  1
  Ti  Ti137  1  0.49711157  0.49557457  0.37027512  1
  Ti  Ti138  1  0.38755687  0.81722547  -0.00265675  1
  Ti  Ti139  1  -0.00506340  0.79432929  0.25230827  1
  Ti  Ti140  1  0.59173808  0.78749823  0.24256986  1
  Ti  Ti141  1  0.48900195  0.89122422  0.12683475  1
  Ti  Ti142  1  0.80304218  0.38377062  -0.00974439  1
  Ti  Ti143  1  0.19563610  0.79981858  0.25625784  1
  Ti  Ti144  1  0.19831432  0.41546123  0.00202976  1
  Ti  Ti145  1  0.30189007  0.71390435  0.62648889  1
  Ti  Ti146  1  0.51308868  0.32666595  0.87190075  1
  Ti  Ti147  1  0.09835071  0.69034718  0.12996663  1
  Ti  Ti148  1  0.57242141  0.78079070  -0.00049873  1
  Ti  Ti149  1  0.09926762  0.70549981  0.37091838  1
  Ti  Ti150  1  0.60158316  0.59238693  0.49569925  1
  Ti  Ti151  1  0.89648984  0.89782528  0.10995888  1
  Ti  Ti152  1  0.39793950  0.00476424  0.74013024  1
  Ti  Ti153  1  0.40137216  0.40390158  0.49172725  1
  Ti  Ti154  1  0.31315393  0.70544867  0.36247517  1
  Ti  Ti155  1  0.56991000  -0.00440852  -0.00738686  1
  Ti  Ti156  1  0.29601693  0.10860162  0.63226562  1
  Ti  Ti157  1  0.81162472  0.60477073  0.24901657  1
  Ti  Ti158  1  0.70063412  0.29279089  0.63004798  1
  Ti  Ti159  1  -0.00727124  -0.00792758  0.24832099  1
  Mo  Mo160  1  0.21042075  0.20263071  0.75509822  1
  Mo  Mo161  1  0.27333562  0.51155062  0.12015666  1
  Mo  Mo162  1  0.80075045  0.80576271  0.49636450  1
  Mo  Mo163  1  0.50082017  0.71522281  0.12788875  1
  Mo  Mo164  1  0.51259959  0.67906904  0.61086130  1
  Mo  Mo165  1  0.30276819  0.30315303  0.38177260  1
  Mo  Mo166  1  0.52917674  0.51659778  0.12974372  1
  Mo  Mo167  1  0.90807793  0.09338876  0.88122398  1
  Mo  Mo168  1  0.00803353  0.20135776  0.75191513  1
  Mo  Mo169  1  0.79443789  -0.00947050  0.00963393  1
  Mo  Mo170  1  0.29497571  0.30879480  0.10991557  1
  Mo  Mo171  1  0.60825414  0.59856616  0.25893600  1
  Mo  Mo172  1  0.20535486  0.19289290  0.50196223  1
  Mo  Mo173  1  0.71204008  0.29600928  0.87290685  1
  Mo  Mo174  1  0.40671783  0.00394549  0.25597976  1
  Mo  Mo175  1  0.28276765  0.89065079  0.87663351  1
  Mo  Mo176  1  0.10103566  0.51657991  0.12915459  1
  Mo  Mo177  1  0.89903094  0.70974195  0.35787509  1
  Mo  Mo178  1  0.00799297  0.60693262  -0.00329845  1
  Mo  Mo179  1  0.50167544  0.50947165  0.87566639  1
  Mo  Mo180  1  0.49107372  0.70335118  0.88242238  1
  Mo  Mo181  1  0.40309836  0.80604424  0.25344278  1
  Mo  Mo182  1  0.29931467  0.71977108  0.88268828  1
  Mo  Mo183  1  0.19332777  0.79613503  0.74765220  1
  Mo  Mo184  1  0.69857776  0.69258070  0.62341829  1
  Mo  Mo185  1  0.78961131  -0.01578602  0.74841069  1
  Mo  Mo186  1  0.50354036  0.08786481  0.85096466  1
  Mo  Mo187  1  0.37241027  0.81822645  0.75254780  1
  Mo  Mo188  1  0.59918891  0.59261057  0.00100908  1
  Mo  Mo189  1  0.39961941  -0.00794397  0.00019981  1
  Mo  Mo190  1  0.89572572  0.90143813  0.62729300  1
  Mo  Mo191  1  0.30689941  0.50773915  0.37419440  1
  Mo  Mo192  1  0.00479387  0.40299367  0.26161408  1
  Mo  Mo193  1  0.79620830  0.19801173  0.25360754  1
  Mo  Mo194  1  0.60456197  -0.01013772  0.73721127  1
  Mo  Mo195  1  0.59018524  0.38777085  0.74247424  1
  Mo  Mo196  1  0.20112140  0.60944491  0.74603145  1
  Mo  Mo197  1  0.58239453  0.58297291  0.75251751  1
  Mo  Mo198  1  0.89249970  0.09761559  0.61650174  1
  Mo  Mo199  1  0.79690357  0.38458027  0.73682728  1
