# generated using pymatgen
data_HfZrTaTiMo
_symmetry_space_group_name_H-M   'P 1'
_cell_length_a   15.18109024
_cell_length_b   15.17891493
_cell_length_c   16.81346503
_cell_angle_alpha   89.92608271
_cell_angle_beta   89.94479207
_cell_angle_gamma   89.97462327
_symmetry_Int_Tables_number   1
_chemical_formula_structural   HfZrTaTiMo
_chemical_formula_sum   'Hf40 Zr40 Ta40 Ti40 Mo40'
_cell_volume   3874.36299916
_cell_formula_units_Z   40
loop_
 _symmetry_equiv_pos_site_id
 _symmetry_equiv_pos_as_xyz
  1  'x, y, z'
loop_
 _atom_site_type_symbol
 _atom_site_label
 _atom_site_symmetry_multiplicity
 _atom_site_fract_x
 _atom_site_fract_y
 _atom_site_fract_z
 _atom_site_occupancy
  Hf  Hf0  1  0.78744495  0.22118409  0.00486439  1
  Hf  Hf1  1  -0.01825555  -0.00309993  0.76670734  1
  Hf  Hf2  1  0.68773530  0.50452061  0.36187860  1
  Hf  Hf3  1  0.00933565  0.39283321  0.24898829  1
  Hf  Hf4  1  0.88590353  0.50122787  0.62495065  1
  Hf  Hf5  1  0.38656865  0.81573393  0.00978942  1
  Hf  Hf6  1  0.10542439  0.30152725  0.63762643  1
  Hf  Hf7  1  0.30879231  0.30391051  0.11905982  1
  Hf  Hf8  1  0.68789901  0.10068470  0.12841149  1
  Hf  Hf9  1  0.58219074  0.00182459  0.74565978  1
  Hf  Hf10  1  0.60898988  0.40117579  0.49705494  1
  Hf  Hf11  1  0.50105687  0.68674443  0.37292323  1
  Hf  Hf12  1  -0.00982818  0.41228029  0.76980870  1
  Hf  Hf13  1  0.68584067  0.10908728  0.88018388  1
  Hf  Hf14  1  0.08670417  0.89014236  0.64399176  1
  Hf  Hf15  1  0.88822447  0.11899303  0.87614832  1
  Hf  Hf16  1  0.60336239  0.79465289  0.23945331  1
  Hf  Hf17  1  0.91948998  0.70987147  0.36515876  1
  Hf  Hf18  1  0.10744813  0.49956259  0.62697744  1
  Hf  Hf19  1  0.39314523  0.78942904  0.24940721  1
  Hf  Hf20  1  0.39333989  0.79648788  0.74352850  1
  Hf  Hf21  1  0.49678845  0.92145954  0.13593980  1
  Hf  Hf22  1  0.80862608  0.38511736  0.48289490  1
  Hf  Hf23  1  0.91095513  0.49969357  0.36991968  1
  Hf  Hf24  1  0.81205514  0.19124237  0.26590512  1
  Hf  Hf25  1  0.47550753  0.90331837  0.87495294  1
  Hf  Hf26  1  0.31038709  0.30873038  0.62590068  1
  Hf  Hf27  1  0.88425982  0.10273263  0.62888472  1
  Hf  Hf28  1  0.00789749  0.80472616  0.50416382  1
  Hf  Hf29  1  0.88122515  0.89285900  0.63437125  1
  Hf  Hf30  1  0.71747743  0.70420017  0.62672138  1
  Hf  Hf31  1  0.80017049  0.80669210  0.49346717  1
  Hf  Hf32  1  0.40541535  0.59383923  0.75319616  1
  Hf  Hf33  1  -0.00743584  0.39804774  -0.01698102  1
  Hf  Hf34  1  0.79989403  0.60392878  0.24575629  1
  Hf  Hf35  1  0.61102251  0.40208104  0.73494316  1
  Hf  Hf36  1  0.31773397  0.50006509  0.89454942  1
  Hf  Hf37  1  0.10481396  0.49909998  0.12045728  1
  Hf  Hf38  1  0.11045940  0.51772759  0.37858531  1
  Hf  Hf39  1  0.19106436  0.21108507  0.24851927  1
  Zr  Zr40  1  -0.00067565  0.60005482  -0.01583190  1
  Zr  Zr41  1  0.50069972  0.89689074  0.37179595  1
  Zr  Zr42  1  0.67654978  0.90190937  0.88790064  1
  Zr  Zr43  1  0.18394507  -0.00916626  0.49255505  1
  Zr  Zr44  1  0.89102842  0.90556726  0.11636463  1
  Zr  Zr45  1  0.90040275  0.10283151  0.11170954  1
  Zr  Zr46  1  0.10867772  0.30574686  0.38019785  1
  Zr  Zr47  1  0.30608195  0.09976142  0.14102410  1
  Zr  Zr48  1  0.09968937  0.09502905  0.63627050  1
  Zr  Zr49  1  0.52691159  0.48942836  0.14337482  1
  Zr  Zr50  1  0.80941990  0.60119135  0.76463104  1
  Zr  Zr51  1  0.29351599  0.10645534  0.37376074  1
  Zr  Zr52  1  0.40541799  0.19859279  0.49265859  1
  Zr  Zr53  1  0.31135194  0.70644027  0.88758910  1
  Zr  Zr54  1  -0.00443167  0.20261816  0.50191349  1
  Zr  Zr55  1  0.21108552  0.17988836  -0.00105519  1
  Zr  Zr56  1  0.58571523  0.78515014  0.01499297  1
  Zr  Zr57  1  0.28438258  0.89053013  0.62003559  1
  Zr  Zr58  1  0.29074420  0.69983689  0.11703449  1
  Zr  Zr59  1  0.49216814  0.49809565  0.61557830  1
  Zr  Zr60  1  0.10668995  0.28674880  0.86290099  1
  Zr  Zr61  1  0.00813365  0.61056607  0.51274999  1
  Zr  Zr62  1  -0.02138260  0.01505468  0.25817932  1
  Zr  Zr63  1  0.79997419  0.80852254  0.24569711  1
  Zr  Zr64  1  0.21505304  0.40816752  0.76508109  1
  Zr  Zr65  1  0.59565409  0.00284343  0.49170939  1
  Zr  Zr66  1  -0.00248762  0.81258340  -0.01748494  1
  Zr  Zr67  1  0.19384478  -0.02338459  -0.00435670  1
  Zr  Zr68  1  0.38951662  0.78936110  0.49684041  1
  Zr  Zr69  1  0.48655293  0.11152464  0.87455719  1
  Zr  Zr70  1  0.01086809  0.61211013  0.75245079  1
  Zr  Zr71  1  0.70258759  0.48657856  0.87485577  1
  Zr  Zr72  1  0.32793631  0.28157679  0.88042114  1
  Zr  Zr73  1  0.19880960  0.39591812  -0.00957806  1
  Zr  Zr74  1  0.51457529  0.29070524  0.61058841  1
  Zr  Zr75  1  0.08781500  0.90042108  0.13778141  1
  Zr  Zr76  1  0.90337085  0.30195624  0.12681740  1
  Zr  Zr77  1  0.60408809  0.60572425  0.74519666  1
  Zr  Zr78  1  0.28794571  0.90505196  0.14676269  1
  Zr  Zr79  1  0.79938099  0.60077073  0.49339691  1
  Ta  Ta80  1  0.11312691  0.71238919  0.87308339  1
  Ta  Ta81  1  0.39851231  0.59191339  0.24204698  1
  Ta  Ta82  1  0.38778776  0.01548806  0.00294913  1
  Ta  Ta83  1  0.69258557  0.10367684  0.62139714  1
  Ta  Ta84  1  0.90388760  0.30308101  0.63120158  1
  Ta  Ta85  1  0.00064199  0.00880550  -0.02215999  1
  Ta  Ta86  1  0.49550276  0.49745566  0.36918804  1
  Ta  Ta87  1  0.20435329  0.60206415  0.24277478  1
  Ta  Ta88  1  0.79055815  0.80178654  0.77412882  1
  Ta  Ta89  1  0.61237502  0.37806731  0.00756745  1
  Ta  Ta90  1  0.08468674  0.88647427  0.36178520  1
  Ta  Ta91  1  0.80085258  0.39552739  0.25749329  1
  Ta  Ta92  1  0.89899177  0.50648867  0.12722541  1
  Ta  Ta93  1  0.30964578  0.49962070  0.11487605  1
  Ta  Ta94  1  0.21191986  0.40512523  0.50000836  1
  Ta  Ta95  1  0.42403917  0.60355329  0.01419257  1
  Ta  Ta96  1  0.71968538  0.29358504  0.62115195  1
  Ta  Ta97  1  0.79286061  0.79145007  -0.01150451  1
  Ta  Ta98  1  0.41221544  0.19719953  0.73721363  1
  Ta  Ta99  1  0.59602214  0.80009820  0.74822232  1
  Ta  Ta100  1  0.50065222  0.30617977  0.37532687  1
  Ta  Ta101  1  0.00526278  0.40162459  0.50311271  1
  Ta  Ta102  1  0.09524990  0.70643874  0.12080215  1
  Ta  Ta103  1  0.39965961  0.39411079  0.24982439  1
  Ta  Ta104  1  0.59867195  0.18800960  0.27009256  1
  Ta  Ta105  1  0.59980500  0.60466224  0.50556505  1
  Ta  Ta106  1  0.68901874  0.90405321  0.63028019  1
  Ta  Ta107  1  0.61133869  0.58215166  0.00517135  1
  Ta  Ta108  1  0.18679036  0.00528710  0.26451499  1
  Ta  Ta109  1  0.28398256  0.88997716  0.36813533  1
  Ta  Ta110  1  0.11534789  0.08993924  0.85801606  1
  Ta  Ta111  1  -0.01761257  -0.00295115  0.49611432  1
  Ta  Ta112  1  0.80080964  0.60237471  -0.00462421  1
  Ta  Ta113  1  0.37866645  0.00899514  0.73737580  1
  Ta  Ta114  1  0.69741185  0.90515680  0.11255628  1
  Ta  Ta115  1  0.29795655  0.51057378  0.62164285  1
  Ta  Ta116  1  0.30492378  0.49768913  0.37438879  1
  Ta  Ta117  1  0.49492173  0.89831654  0.61947278  1
  Ta  Ta118  1  0.20351467  0.20152875  0.50806298  1
  Ta  Ta119  1  0.60690977  0.20090945  0.74229466  1
  Ti  Ti120  1  -0.01142969  0.20491686  0.75455772  1
  Ti  Ti121  1  0.51174560  0.69570249  0.87824260  1
  Ti  Ti122  1  0.27494695  0.90295158  0.86029514  1
  Ti  Ti123  1  0.90239257  0.70388546  0.11998008  1
  Ti  Ti124  1  0.79816794  0.41378020  0.00663726  1
  Ti  Ti125  1  0.41012018  0.01275760  0.26706919  1
  Ti  Ti126  1  0.50983581  0.49413801  0.88274348  1
  Ti  Ti127  1  0.69756846  0.68316303  0.12282282  1
  Ti  Ti128  1  0.71407767  0.29765553  0.86165429  1
  Ti  Ti129  1  0.39241088  0.59313614  0.49703115  1
  Ti  Ti130  1  0.00957584  0.60882003  0.24111992  1
  Ti  Ti131  1  0.49808257  0.70370508  0.61918087  1
  Ti  Ti132  1  0.78905416  0.00258211  0.49617029  1
  Ti  Ti133  1  0.12834861  0.70232090  0.62842184  1
  Ti  Ti134  1  0.08703271  0.10192318  0.37891198  1
  Ti  Ti135  1  0.49477611  0.09407904  0.61719507  1
  Ti  Ti136  1  0.60305388  0.79913999  0.50223627  1
  Ti  Ti137  1  0.40475163  0.20721707  0.25883605  1
  Ti  Ti138  1  0.79711823  -0.00137037  -0.01054384  1
  Ti  Ti139  1  0.09850467  0.29155269  0.11706584  1
  Ti  Ti140  1  0.88554657  0.91192101  0.37052355  1
  Ti  Ti141  1  0.61687539  0.19654252  0.47701129  1
  Ti  Ti142  1  0.21189094  0.40835380  0.24657375  1
  Ti  Ti143  1  0.39093990  -0.00127341  0.49451826  1
  Ti  Ti144  1  0.21194259  0.60554772  0.75986203  1
  Ti  Ti145  1  0.43070646  0.20238554  0.01746333  1
  Ti  Ti146  1  -0.01652564  0.79624490  0.76772369  1
  Ti  Ti147  1  0.00795104  0.20046521  -0.01216279  1
  Ti  Ti148  1  0.78020480  0.00288062  0.75747259  1
  Ti  Ti149  1  0.68918498  0.30546765  0.14603433  1
  Ti  Ti150  1  0.22783095  0.17889986  0.74295362  1
  Ti  Ti151  1  0.19957378  0.60363251  -0.00426767  1
  Ti  Ti152  1  0.58047835  0.01507430  0.00577060  1
  Ti  Ti153  1  0.28529220  0.69064115  0.37152026  1
  Ti  Ti154  1  0.52294796  0.30160154  0.87363729  1
  Ti  Ti155  1  0.69606810  0.70568010  0.37319721  1
  Ti  Ti156  1  0.41313010  0.39545933  0.75580632  1
  Ti  Ti157  1  0.80099689  0.19252385  0.47999820  1
  Ti  Ti158  1  0.09463397  0.09935421  0.12548728  1
  Ti  Ti159  1  0.42782874  0.39764010  0.00999574  1
  Mo  Mo160  1  0.90907999  0.29919540  0.37114540  1
  Mo  Mo161  1  0.89572509  0.70334364  0.87967848  1
  Mo  Mo162  1  0.71627848  0.49157091  0.13048528  1
  Mo  Mo163  1  0.11382384  0.51104889  0.87502404  1
  Mo  Mo164  1  0.60287453  0.38778476  0.26142722  1
  Mo  Mo165  1  0.21087262  0.60920510  0.50113930  1
  Mo  Mo166  1  0.19027470  0.79757999  -0.00261027  1
  Mo  Mo167  1  0.79689385  0.19813812  0.74488611  1
  Mo  Mo168  1  0.19358685  0.78717739  0.75027026  1
  Mo  Mo169  1  0.68828704  0.69670098  0.88317360  1
  Mo  Mo170  1  0.19401567  0.78984760  0.49126220  1
  Mo  Mo171  1  0.88274394  0.90918150  0.87792592  1
  Mo  Mo172  1  0.01113857  0.19843476  0.25139161  1
  Mo  Mo173  1  0.30531019  0.68765987  0.62541241  1
  Mo  Mo174  1  0.60848302  -0.00266332  0.25788740  1
  Mo  Mo175  1  0.49920540  0.10824629  0.13801637  1
  Mo  Mo176  1  0.49821807  0.10193356  0.37506239  1
  Mo  Mo177  1  0.30617364  0.08929171  0.87156124  1
  Mo  Mo178  1  0.88803912  0.30564690  0.87486752  1
  Mo  Mo179  1  0.60110575  0.60248135  0.24896813  1
  Mo  Mo180  1  0.70198587  0.49746723  0.61527820  1
  Mo  Mo181  1  0.39734312  0.40390171  0.49001098  1
  Mo  Mo182  1  0.91206282  0.71547001  0.63423972  1
  Mo  Mo183  1  0.30273086  0.10028564  0.61285394  1
  Mo  Mo184  1  0.80099415  0.39293110  0.74345456  1
  Mo  Mo185  1  0.70094970  0.29585867  0.36801129  1
  Mo  Mo186  1  0.70493782  0.08426545  0.37064993  1
  Mo  Mo187  1  0.60182948  0.20665958  0.00464109  1
  Mo  Mo188  1  -0.00562601  0.79543557  0.24361064  1
  Mo  Mo189  1  0.77993385  -0.00028640  0.25177803  1
  Mo  Mo190  1  0.09419958  0.90025204  0.85714545  1
  Mo  Mo191  1  0.49987474  0.69411912  0.13042389  1
  Mo  Mo192  1  0.10999594  0.70516101  0.36867424  1
  Mo  Mo193  1  0.90014330  0.09626797  0.38634957  1
  Mo  Mo194  1  0.50818584  0.28703420  0.14072883  1
  Mo  Mo195  1  0.89677971  0.49874063  0.87948673  1
  Mo  Mo196  1  0.19656189  -0.00533145  0.74608417  1
  Mo  Mo197  1  0.30326078  0.31213389  0.37486765  1
  Mo  Mo198  1  0.69994560  0.89096367  0.37758375  1
  Mo  Mo199  1  0.18987826  0.79181562  0.25565145  1
