# generated using pymatgen
data_HfZrTaTiMo
_symmetry_space_group_name_H-M   'P 1'
_cell_length_a   15.19245225
_cell_length_b   15.17554870
_cell_length_c   16.80578451
_cell_angle_alpha   90.01685185
_cell_angle_beta   90.04769522
_cell_angle_gamma   89.90848064
_symmetry_Int_Tables_number   1
_chemical_formula_structural   HfZrTaTiMo
_chemical_formula_sum   'Hf40 Zr40 Ta40 Ti40 Mo40'
_cell_volume   3874.63101298
_cell_formula_units_Z   40
loop_
 _symmetry_equiv_pos_site_id
 _symmetry_equiv_pos_as_xyz
  1  'x, y, z'
loop_
 _atom_site_type_symbol
 _atom_site_label
 _atom_site_symmetry_multiplicity
 _atom_site_fract_x
 _atom_site_fract_y
 _atom_site_fract_z
 _atom_site_occupancy
  Hf  Hf0  1  0.11309407  0.90543015  0.12561877  1
  Hf  Hf1  1  0.70980525  0.90480328  0.37742241  1
  Hf  Hf2  1  0.48012434  0.49526046  0.86177683  1
  Hf  Hf3  1  0.09856874  0.30353467  0.86989531  1
  Hf  Hf4  1  0.21070246  0.20997459  0.50186920  1
  Hf  Hf5  1  0.31242102  0.07225848  0.62639113  1
  Hf  Hf6  1  -0.02217020  0.41372556  0.49489656  1
  Hf  Hf7  1  0.21931300  0.81051251  0.48009914  1
  Hf  Hf8  1  0.32085683  0.90071572  0.12662072  1
  Hf  Hf9  1  0.10878136  0.09548578  0.62002621  1
  Hf  Hf10  1  0.77191140  0.39641713  0.49223597  1
  Hf  Hf11  1  0.90983572  0.88630232  0.86411464  1
  Hf  Hf12  1  0.38139424  0.40495204  0.50198221  1
  Hf  Hf13  1  0.61443412  0.77916603  0.25509965  1
  Hf  Hf14  1  0.09789109  0.50193141  0.11826346  1
  Hf  Hf15  1  0.12470161  0.89306730  0.63009930  1
  Hf  Hf16  1  0.21215189  0.00671033  -0.00666133  1
  Hf  Hf17  1  0.90262713  0.69569385  0.88216317  1
  Hf  Hf18  1  -0.00359133  0.20509834  0.74444645  1
  Hf  Hf19  1  0.42202568  0.00383626  0.25503677  1
  Hf  Hf20  1  0.70781810  0.88221795  0.11176866  1
  Hf  Hf21  1  0.79582159  0.60045573  0.75153712  1
  Hf  Hf22  1  0.78883738  -0.00730896  0.75015979  1
  Hf  Hf23  1  0.58821502  0.18908438  -0.00399917  1
  Hf  Hf24  1  0.08562590  0.30298807  0.37669769  1
  Hf  Hf25  1  0.19535842  0.39918625  0.25978815  1
  Hf  Hf26  1  0.09074862  0.50280514  0.88712693  1
  Hf  Hf27  1  0.51896241  0.08827389  0.61348435  1
  Hf  Hf28  1  0.20455124  0.59534260  0.25627489  1
  Hf  Hf29  1  0.09485063  0.09917470  0.38090435  1
  Hf  Hf30  1  0.40694447  -0.03345447  0.48305963  1
  Hf  Hf31  1  -0.00912759  0.41637695  0.74851860  1
  Hf  Hf32  1  0.88771944  0.30032202  0.13062870  1
  Hf  Hf33  1  0.56517726  0.38822008  -0.01182798  1
  Hf  Hf34  1  0.32503583  0.68134372  0.38008127  1
  Hf  Hf35  1  0.50342270  0.69870475  0.62195938  1
  Hf  Hf36  1  -0.00962188  0.39549421  0.00991355  1
  Hf  Hf37  1  0.21310146  0.80245631  0.26045994  1
  Hf  Hf38  1  0.81454565  -0.00049812  -0.00217897  1
  Hf  Hf39  1  0.31570507  0.10988951  0.37195017  1
  Zr  Zr40  1  0.19531591  0.59483827  0.49874197  1
  Zr  Zr41  1  0.67831239  0.52075180  0.37073926  1
  Zr  Zr42  1  0.50068821  0.71391245  0.88540089  1
  Zr  Zr43  1  -0.00036312  0.18930210  0.00568305  1
  Zr  Zr44  1  0.10764642  0.32129938  0.62723780  1
  Zr  Zr45  1  0.40672748  0.19630764  0.51167281  1
  Zr  Zr46  1  0.70133242  0.88907437  0.88956347  1
  Zr  Zr47  1  0.18213756  0.59674140  0.74483905  1
  Zr  Zr48  1  0.66877010  0.30303239  0.13275366  1
  Zr  Zr49  1  0.20827974  0.19215046  0.74808668  1
  Zr  Zr50  1  0.88780583  0.49857553  0.88365008  1
  Zr  Zr51  1  0.70252491  0.70662035  0.62740277  1
  Zr  Zr52  1  0.68333374  0.49423726  0.63464074  1
  Zr  Zr53  1  0.31260884  0.11584889  0.13104665  1
  Zr  Zr54  1  0.80484498  0.80948439  0.50752473  1
  Zr  Zr55  1  0.20779280  0.20410854  -0.00622440  1
  Zr  Zr56  1  -0.01217471  0.41000844  0.24319011  1
  Zr  Zr57  1  0.78954172  0.19131536  0.24655482  1
  Zr  Zr58  1  0.50904106  0.69932844  0.11554260  1
  Zr  Zr59  1  0.70869286  0.10974518  0.62217319  1
  Zr  Zr60  1  0.48960142  0.29872369  0.37825996  1
  Zr  Zr61  1  0.39582029  0.41403646  0.26139221  1
  Zr  Zr62  1  0.81214325  0.79653371  0.24864370  1
  Zr  Zr63  1  0.38662971  0.61588484  0.75533796  1
  Zr  Zr64  1  0.09752374  0.70170647  0.87914554  1
  Zr  Zr65  1  0.00937494  0.80399900  0.50023505  1
  Zr  Zr66  1  0.21946622  0.79527162  -0.00482171  1
  Zr  Zr67  1  0.80493340  0.20351848  0.48828944  1
  Zr  Zr68  1  0.87775716  0.30455381  0.62969821  1
  Zr  Zr69  1  0.57169145  0.18726675  0.24843185  1
  Zr  Zr70  1  0.00049781  0.00135251  0.24497760  1
  Zr  Zr71  1  0.90972873  0.09701958  0.87298558  1
  Zr  Zr72  1  0.31240116  0.31340998  0.86086647  1
  Zr  Zr73  1  0.01386051  -0.00344001  0.74424986  1
  Zr  Zr74  1  0.77031237  0.40309517  0.00361792  1
  Zr  Zr75  1  0.89548965  0.69522575  0.38008954  1
  Zr  Zr76  1  -0.00595906  0.19998834  0.50660789  1
  Zr  Zr77  1  0.10654672  0.70234683  0.12151169  1
  Zr  Zr78  1  0.30160145  0.71068993  0.61448369  1
  Zr  Zr79  1  0.60355708  0.80775872  0.75276128  1
  Ta  Ta80  1  0.61293196  0.21706007  0.49468517  1
  Ta  Ta81  1  -0.01472539  0.60805701  0.24185096  1
  Ta  Ta82  1  0.91046364  0.69506571  0.63140569  1
  Ta  Ta83  1  0.39449755  0.82288545  0.75449876  1
  Ta  Ta84  1  0.79382640  0.20062184  0.76352583  1
  Ta  Ta85  1  0.22904742  -0.01715701  0.76357533  1
  Ta  Ta86  1  0.00741730  0.79776860  0.24937212  1
  Ta  Ta87  1  0.09601246  0.69860568  0.37143654  1
  Ta  Ta88  1  0.33104428  0.09904560  0.87086201  1
  Ta  Ta89  1  0.10782985  0.90101811  0.87192246  1
  Ta  Ta90  1  -0.00030151  0.20137921  0.24590827  1
  Ta  Ta91  1  0.20541689  -0.00189273  0.48661461  1
  Ta  Ta92  1  0.69535029  0.08663245  0.11837718  1
  Ta  Ta93  1  0.71128053  0.67826955  0.11141924  1
  Ta  Ta94  1  0.58902566  0.38654356  0.76165334  1
  Ta  Ta95  1  0.21219650  0.59372429  -0.00055584  1
  Ta  Ta96  1  0.90240445  0.70137192  0.10918198  1
  Ta  Ta97  1  0.70188058  0.09838076  0.37672124  1
  Ta  Ta98  1  0.60263215  0.58326870  -0.00604241  1
  Ta  Ta99  1  0.60790715  0.19875001  0.76010743  1
  Ta  Ta100  1  0.59301913  0.80807156  0.49178627  1
  Ta  Ta101  1  0.10572571  0.29524569  0.12826678  1
  Ta  Ta102  1  0.51296820  0.30454780  0.62510147  1
  Ta  Ta103  1  0.31498168  0.69603694  0.13179568  1
  Ta  Ta104  1  0.50146202  0.91696214  0.89400296  1
  Ta  Ta105  1  0.79847148  0.59627191  0.50528045  1
  Ta  Ta106  1  0.77723692  0.42142038  0.24231775  1
  Ta  Ta107  1  0.19821869  0.20329769  0.25508487  1
  Ta  Ta108  1  0.61641874  -0.01030563  0.24585918  1
  Ta  Ta109  1  0.79146470  0.19959047  -0.00088760  1
  Ta  Ta110  1  0.70519380  0.69398894  0.88592813  1
  Ta  Ta111  1  0.89551458  0.09318390  0.36847277  1
  Ta  Ta112  1  0.42107665  0.19374347  0.74082947  1
  Ta  Ta113  1  0.90964507  0.89776439  0.12094491  1
  Ta  Ta114  1  0.41813528  0.79721532  0.26162567  1
  Ta  Ta115  1  0.39627298  0.59885713  -0.00525995  1
  Ta  Ta116  1  0.52085758  0.67972812  0.38134473  1
  Ta  Ta117  1  0.48807144  0.50147122  0.63983701  1
  Ta  Ta118  1  0.88525036  0.30535005  0.35818142  1
  Ta  Ta119  1  0.20984700  0.00526965  0.25843101  1
  Ti  Ti120  1  0.31875023  0.89672687  0.88815376  1
  Ti  Ti121  1  0.40470047  0.22388400  -0.00044949  1
  Ti  Ti122  1  0.89779564  0.09488827  0.12776087  1
  Ti  Ti123  1  0.52074774  0.08500632  0.39180687  1
  Ti  Ti124  1  0.28478498  0.49304983  0.63240171  1
  Ti  Ti125  1  0.09458980  0.70132221  0.62593942  1
  Ti  Ti126  1  0.08069227  0.51345203  0.61729568  1
  Ti  Ti127  1  0.90295475  0.88948645  0.64096130  1
  Ti  Ti128  1  0.11333964  0.09606578  0.86861354  1
  Ti  Ti129  1  -0.00204093  -0.00537408  0.50587678  1
  Ti  Ti130  1  0.08004757  0.51317270  0.37542708  1
  Ti  Ti131  1  0.89025254  0.29885846  0.87957144  1
  Ti  Ti132  1  0.30543607  0.50553260  0.12436071  1
  Ti  Ti133  1  0.69622449  0.09386225  0.88172622  1
  Ti  Ti134  1  0.49642295  0.49065378  0.12523260  1
  Ti  Ti135  1  0.88369155  0.50575102  0.36681774  1
  Ti  Ti136  1  0.80736094  0.00239661  0.50509178  1
  Ti  Ti137  1  0.90027564  0.09227623  0.63012817  1
  Ti  Ti138  1  0.01403865  -0.00128520  -0.00042582  1
  Ti  Ti139  1  0.30174588  0.31321504  0.12769705  1
  Ti  Ti140  1  0.00482393  0.80754852  0.00215955  1
  Ti  Ti141  1  0.10041602  0.90304568  0.37017722  1
  Ti  Ti142  1  0.68708188  0.30684247  0.35600257  1
  Ti  Ti143  1  0.10555460  0.10263101  0.12896305  1
  Ti  Ti144  1  0.78329884  0.38638069  0.75901577  1
  Ti  Ti145  1  0.20709293  0.39939332  0.00267932  1
  Ti  Ti146  1  0.88983346  0.50675146  0.62462861  1
  Ti  Ti147  1  0.21077759  0.79414277  0.76157335  1
  Ti  Ti148  1  0.19003988  0.40616924  0.48707262  1
  Ti  Ti149  1  0.57803638  0.41826592  0.49810649  1
  Ti  Ti150  1  0.68548175  0.49897433  0.86482992  1
  Ti  Ti151  1  0.41967926  0.02203152  0.00829360  1
  Ti  Ti152  1  0.51555562  0.90566317  0.11121423  1
  Ti  Ti153  1  0.87474150  0.51731747  0.11914451  1
  Ti  Ti154  1  0.30574083  0.30251836  0.63927986  1
  Ti  Ti155  1  0.68753915  0.91052316  0.61880288  1
  Ti  Ti156  1  0.28619305  0.50278687  0.86814388  1
  Ti  Ti157  1  0.49222690  0.89585652  0.62196927  1
  Ti  Ti158  1  0.90798123  0.90827200  0.37143610  1
  Ti  Ti159  1  0.58787471  0.00444162  0.75688263  1
  Mo  Mo160  1  0.41133775  0.58539974  0.50972772  1
  Mo  Mo161  1  -0.00839178  0.60113298  0.50036545  1
  Mo  Mo162  1  -0.00765616  0.60186620  0.74508709  1
  Mo  Mo163  1  0.68870541  0.30181136  0.62798921  1
  Mo  Mo164  1  0.58845711  0.40216218  0.25144411  1
  Mo  Mo165  1  0.70217781  0.70020885  0.38762550  1
  Mo  Mo166  1  0.59813252  0.59654475  0.76438643  1
  Mo  Mo167  1  0.69901088  0.29455963  0.87817890  1
  Mo  Mo168  1  0.67874328  0.50211711  0.12459865  1
  Mo  Mo169  1  0.30780601  0.90026259  0.35893407  1
  Mo  Mo170  1  0.30404456  0.69848314  0.87744486  1
  Mo  Mo171  1  0.28844565  0.49830716  0.38096649  1
  Mo  Mo172  1  0.41599049  -0.00487459  0.75237766  1
  Mo  Mo173  1  0.79379321  0.59438813  -0.00598942  1
  Mo  Mo174  1  0.48120764  0.51190555  0.38084022  1
  Mo  Mo175  1  0.40783571  0.60593847  0.24373818  1
  Mo  Mo176  1  0.48933724  0.29028496  0.86510581  1
  Mo  Mo177  1  0.37942294  0.41447962  0.00205043  1
  Mo  Mo178  1  0.80046965  -0.00153806  0.24286854  1
  Mo  Mo179  1  0.19314516  0.40431872  0.74549482  1
  Mo  Mo180  1  0.28685188  0.30001921  0.37780309  1
  Mo  Mo181  1  0.41339675  0.78870482  0.48744923  1
  Mo  Mo182  1  0.81161930  0.79456165  0.00405875  1
  Mo  Mo183  1  0.01263711  0.79162891  0.74418312  1
  Mo  Mo184  1  0.79420698  0.60568582  0.24429168  1
  Mo  Mo185  1  0.38504818  0.20897443  0.24913722  1
  Mo  Mo186  1  0.60681782  0.00007047  0.00460795  1
  Mo  Mo187  1  0.60389151  0.79155513  0.00024755  1
  Mo  Mo188  1  0.50449884  0.09981209  0.87391579  1
  Mo  Mo189  1  0.59636472  0.58501577  0.24021478  1
  Mo  Mo190  1  0.61316507  -0.00065863  0.49839240  1
  Mo  Mo191  1  0.50463318  0.09713125  0.12604732  1
  Mo  Mo192  1  0.30803495  0.89452159  0.62390141  1
  Mo  Mo193  1  0.51544283  0.89107272  0.36579444  1
  Mo  Mo194  1  0.47266589  0.29741959  0.12732557  1
  Mo  Mo195  1  0.00046709  0.59925520  0.01397967  1
  Mo  Mo196  1  0.40604953  0.80837413  0.00540531  1
  Mo  Mo197  1  0.59949446  0.59875335  0.50871568  1
  Mo  Mo198  1  0.39380381  0.39870462  0.73409470  1
  Mo  Mo199  1  0.80673720  0.80045709  0.74268658  1
