# generated using pymatgen
data_HfZrTaTiMo
_symmetry_space_group_name_H-M   'P 1'
_cell_length_a   15.20712853
_cell_length_b   15.21806635
_cell_length_c   16.86307118
_cell_angle_alpha   90.09101602
_cell_angle_beta   90.10117406
_cell_angle_gamma   89.98769990
_symmetry_Int_Tables_number   1
_chemical_formula_structural   HfZrTaTiMo
_chemical_formula_sum   'Hf40 Zr40 Ta40 Ti40 Mo40'
_cell_volume   3902.49295951
_cell_formula_units_Z   40
loop_
 _symmetry_equiv_pos_site_id
 _symmetry_equiv_pos_as_xyz
  1  'x, y, z'
loop_
 _atom_site_type_symbol
 _atom_site_label
 _atom_site_symmetry_multiplicity
 _atom_site_fract_x
 _atom_site_fract_y
 _atom_site_fract_z
 _atom_site_occupancy
  Hf  Hf0  1  0.30970951  0.29248412  0.12136320  1
  Hf  Hf1  1  0.50057888  0.89533568  0.35773478  1
  Hf  Hf2  1  0.30499890  0.30620468  0.62434432  1
  Hf  Hf3  1  -0.00263598  -0.01144931  0.51064790  1
  Hf  Hf4  1  0.29466056  0.31095742  0.38393448  1
  Hf  Hf5  1  0.09828121  0.89727293  0.12416331  1
  Hf  Hf6  1  0.20009811  0.19435913  0.50811989  1
  Hf  Hf7  1  0.70729297  0.09550510  0.12474098  1
  Hf  Hf8  1  0.69757621  0.90546901  0.63635299  1
  Hf  Hf9  1  0.50747336  0.29365811  0.39350786  1
  Hf  Hf10  1  0.80544044  0.40474534  0.50998839  1
  Hf  Hf11  1  0.19997270  0.40463470  0.76190441  1
  Hf  Hf12  1  0.00825268  0.59771331  0.25031884  1
  Hf  Hf13  1  0.21281188  0.18778606  -0.00013238  1
  Hf  Hf14  1  0.00276816  0.20510468  0.73470248  1
  Hf  Hf15  1  0.18575065  0.00979685  0.25726475  1
  Hf  Hf16  1  -0.00538302  0.18315238  0.24976086  1
  Hf  Hf17  1  0.70826672  0.69228396  0.85265380  1
  Hf  Hf18  1  0.00852224  0.79279087  -0.01156401  1
  Hf  Hf19  1  0.89261681  0.09846248  0.62392715  1
  Hf  Hf20  1  0.60550770  0.59432226  0.26618603  1
  Hf  Hf21  1  0.21725452  0.80505133  -0.00469602  1
  Hf  Hf22  1  0.91378989  0.50600996  0.38711361  1
  Hf  Hf23  1  0.81283296  0.01964089  0.25595765  1
  Hf  Hf24  1  0.88773766  0.50925230  0.86462726  1
  Hf  Hf25  1  0.59329821  0.40379231  0.25789049  1
  Hf  Hf26  1  0.10520684  0.10082731  0.86638814  1
  Hf  Hf27  1  0.81258361  0.81270221  0.51512312  1
  Hf  Hf28  1  0.80881684  0.61284434  0.49990077  1
  Hf  Hf29  1  0.19322924  0.39859921  -0.02045457  1
  Hf  Hf30  1  0.49614384  0.49134792  0.11729377  1
  Hf  Hf31  1  0.30120084  0.89523697  0.14563584  1
  Hf  Hf32  1  0.70604492  0.31032089  0.12919062  1
  Hf  Hf33  1  0.89980674  0.30509686  0.86976222  1
  Hf  Hf34  1  0.19364730  -0.00861213  0.49815572  1
  Hf  Hf35  1  0.40567770  0.58981632  0.25720887  1
  Hf  Hf36  1  0.79908153  0.00779713  0.75891348  1
  Hf  Hf37  1  0.70654853  0.69719894  0.63699949  1
  Hf  Hf38  1  0.90264960  0.29502292  0.37619189  1
  Hf  Hf39  1  0.60341149  0.20263612  0.24648512  1
  Zr  Zr40  1  0.80274575  0.61447545  0.25819374  1
  Zr  Zr41  1  0.49023635  0.48782373  0.60808383  1
  Zr  Zr42  1  0.08617950  0.49456746  0.62697833  1
  Zr  Zr43  1  0.90281722  0.90501837  0.37379456  1
  Zr  Zr44  1  0.89571967  0.70405033  0.12137102  1
  Zr  Zr45  1  0.68071392  0.10551223  0.62936060  1
  Zr  Zr46  1  0.28497497  0.69016506  0.35858247  1
  Zr  Zr47  1  0.80194988  0.80504666  -0.00940763  1
  Zr  Zr48  1  0.10168081  0.10006117  0.11755799  1
  Zr  Zr49  1  0.00444323  0.22120891  0.51898040  1
  Zr  Zr50  1  0.90517563  0.30015260  0.12518001  1
  Zr  Zr51  1  0.28698810  0.51644252  0.62189043  1
  Zr  Zr52  1  0.29283746  0.49397791  0.11268091  1
  Zr  Zr53  1  0.58894296  0.01335140  0.48921578  1
  Zr  Zr54  1  0.69926206  0.29707506  0.86722314  1
  Zr  Zr55  1  0.30032572  0.69614708  0.13392886  1
  Zr  Zr56  1  0.80222506  0.19867703  -0.00794839  1
  Zr  Zr57  1  0.29716289  0.88225344  0.62451472  1
  Zr  Zr58  1  0.59328886  0.38971521  0.74176994  1
  Zr  Zr59  1  0.30345811  0.28149961  0.86883091  1
  Zr  Zr60  1  0.49293957  0.70115529  0.62318069  1
  Zr  Zr61  1  0.39611067  -0.00770003  0.49457493  1
  Zr  Zr62  1  0.59867643  0.59980560  -0.00627648  1
  Zr  Zr63  1  -0.00467073  0.80150083  0.24499803  1
  Zr  Zr64  1  0.59181862  0.20100502  0.00928907  1
  Zr  Zr65  1  0.49238208  0.90091444  0.88793295  1
  Zr  Zr66  1  0.50274844  0.90168310  0.13141987  1
  Zr  Zr67  1  0.29667536  0.88933816  0.35689421  1
  Zr  Zr68  1  0.21041288  -0.00883548  0.74894373  1
  Zr  Zr69  1  0.18844440  0.77897345  0.49619522  1
  Zr  Zr70  1  0.12011721  0.69009686  0.64764872  1
  Zr  Zr71  1  0.18804571  0.60174060  -0.02058990  1
  Zr  Zr72  1  0.38466337  0.00536071  0.00954887  1
  Zr  Zr73  1  0.60490019  0.79522165  -0.00032939  1
  Zr  Zr74  1  0.02077646  0.39396046  0.25917626  1
  Zr  Zr75  1  0.79561595  0.60080331  0.00088993  1
  Zr  Zr76  1  0.60539131  0.59991937  0.49090210  1
  Zr  Zr77  1  0.40056470  0.20150971  0.25575314  1
  Zr  Zr78  1  0.71053268  0.89031142  0.13944160  1
  Zr  Zr79  1  0.38344445  0.60266077  0.75899782  1
  Ta  Ta80  1  0.40188599  0.40025885  0.75696630  1
  Ta  Ta81  1  0.49765839  0.70271185  0.37726435  1
  Ta  Ta82  1  0.79051769  0.00611840  0.49821059  1
  Ta  Ta83  1  0.89971305  0.49323705  0.12545686  1
  Ta  Ta84  1  0.82406729  0.79753027  0.74498182  1
  Ta  Ta85  1  0.69916696  0.90064488  0.86272729  1
  Ta  Ta86  1  0.80030928  0.40555927  0.73113439  1
  Ta  Ta87  1  0.40320251  0.79281394  0.49496317  1
  Ta  Ta88  1  0.59265555  0.80670628  0.75268512  1
  Ta  Ta89  1  0.49526055  0.49528807  0.87821232  1
  Ta  Ta90  1  0.70200459  0.11686948  0.37515107  1
  Ta  Ta91  1  0.60373466  0.40085318  -0.00234040  1
  Ta  Ta92  1  0.09031121  0.10359523  0.38074681  1
  Ta  Ta93  1  0.70274623  0.90647126  0.36736104  1
  Ta  Ta94  1  0.11058839  0.89120200  0.86414327  1
  Ta  Ta95  1  0.90290100  0.09605737  0.11355549  1
  Ta  Ta96  1  0.39170519  0.40123367  0.25559930  1
  Ta  Ta97  1  0.39524105  0.80777353  0.75414397  1
  Ta  Ta98  1  0.09398112  0.29440672  0.86651136  1
  Ta  Ta99  1  0.41831896  0.00165748  0.74774656  1
  Ta  Ta100  1  0.49600776  0.10527277  0.88006807  1
  Ta  Ta101  1  0.29695726  0.10391329  0.37504909  1
  Ta  Ta102  1  0.30843936  0.09775437  0.62936351  1
  Ta  Ta103  1  0.40677332  0.18649510  0.50007434  1
  Ta  Ta104  1  0.08466957  0.88191448  0.63855972  1
  Ta  Ta105  1  -0.00366700  -0.00720425  0.74950581  1
  Ta  Ta106  1  0.18361991  0.39463693  0.50380043  1
  Ta  Ta107  1  0.70316504  0.50732554  0.12880905  1
  Ta  Ta108  1  0.60245249  0.80906754  0.49703954  1
  Ta  Ta109  1  0.48853550  0.48961613  0.39419602  1
  Ta  Ta110  1  0.49930951  0.29613008  0.87565571  1
  Ta  Ta111  1  0.70769779  0.71857903  0.37943233  1
  Ta  Ta112  1  0.50263302  0.69944489  0.12948583  1
  Ta  Ta113  1  0.89831384  0.52281497  0.62777181  1
  Ta  Ta114  1  0.79354777  0.20436402  0.50801304  1
  Ta  Ta115  1  0.90365391  0.91633098  0.12058336  1
  Ta  Ta116  1  0.10769939  0.30696517  0.11903826  1
  Ta  Ta117  1  0.40672735  0.20008931  0.74099071  1
  Ta  Ta118  1  0.79842922  0.41050789  0.26019728  1
  Ta  Ta119  1  0.09259773  0.49588772  0.11670059  1
  Ti  Ti120  1  0.19724364  0.57314970  0.24949040  1
  Ti  Ti121  1  0.80229481  0.00048423  -0.01418482  1
  Ti  Ti122  1  0.68917428  0.09588356  0.87333898  1
  Ti  Ti123  1  -0.00290915  0.59540643  -0.01124643  1
  Ti  Ti124  1  0.09451506  0.88341299  0.36958734  1
  Ti  Ti125  1  0.10669032  0.69242983  0.12512917  1
  Ti  Ti126  1  0.69338845  0.49294501  0.86151215  1
  Ti  Ti127  1  -0.00035376  0.00013842  -0.01438506  1
  Ti  Ti128  1  0.38046728  0.60164319  0.48949393  1
  Ti  Ti129  1  0.58939583  0.18689019  0.75136830  1
  Ti  Ti130  1  0.50224509  0.90771608  0.62594986  1
  Ti  Ti131  1  0.59807768  0.01140269  0.25480667  1
  Ti  Ti132  1  -0.01099016  0.61632315  0.76132030  1
  Ti  Ti133  1  0.79758762  0.40694904  -0.00147720  1
  Ti  Ti134  1  -0.00546633  0.40368038  0.74832224  1
  Ti  Ti135  1  0.69398208  0.50293559  0.62577463  1
  Ti  Ti136  1  0.11379976  0.50006785  0.38698409  1
  Ti  Ti137  1  0.60750136  -0.00034096  0.00089663  1
  Ti  Ti138  1  0.50525843  0.28793548  0.60664704  1
  Ti  Ti139  1  0.19752751  -0.00484159  -0.00902918  1
  Ti  Ti140  1  0.70492930  0.31024299  0.38184773  1
  Ti  Ti141  1  0.39657790  0.61001490  -0.00957950  1
  Ti  Ti142  1  0.91469175  0.71189507  0.38329351  1
  Ti  Ti143  1  0.49874784  0.70096553  0.87179336  1
  Ti  Ti144  1  0.60770842  0.78838357  0.25063334  1
  Ti  Ti145  1  0.59036032  0.59252336  0.74946547  1
  Ti  Ti146  1  0.39996811  0.01267651  0.24961040  1
  Ti  Ti147  1  0.30002357  0.71186218  0.87388944  1
  Ti  Ti148  1  0.69398973  0.30356334  0.61690893  1
  Ti  Ti149  1  0.10836351  0.09240876  0.63389478  1
  Ti  Ti150  1  0.90491191  0.10689191  0.87133993  1
  Ti  Ti151  1  0.40477946  0.38888484  -0.00887791  1
  Ti  Ti152  1  -0.00241756  0.40341236  -0.00716077  1
  Ti  Ti153  1  0.48414148  0.11279683  0.12166076  1
  Ti  Ti154  1  0.19279685  0.21535549  0.25609670  1
  Ti  Ti155  1  0.00578612  0.20322482  -0.00391211  1
  Ti  Ti156  1  0.30930298  0.08989605  0.86402520  1
  Ti  Ti157  1  0.79776329  0.21295049  0.73805743  1
  Ti  Ti158  1  0.89764998  0.10414376  0.39077845  1
  Ti  Ti159  1  0.90583606  0.89846734  0.87069505  1
  Mo  Mo160  1  0.89955527  0.31702702  0.62919747  1
  Mo  Mo161  1  0.49933404  0.31073997  0.12206206  1
  Mo  Mo162  1  0.60787728  0.39808076  0.50180515  1
  Mo  Mo163  1  0.40494673  0.78385418  0.00101257  1
  Mo  Mo164  1  0.49874623  0.09867082  0.36800877  1
  Mo  Mo165  1  0.79616197  0.80644689  0.25510664  1
  Mo  Mo166  1  0.79880288  0.59764862  0.73942408  1
  Mo  Mo167  1  0.19554021  0.59202534  0.49628528  1
  Mo  Mo168  1  0.90026925  0.90447045  0.63441175  1
  Mo  Mo169  1  0.01418998  0.61546712  0.49917770  1
  Mo  Mo170  1  0.29693068  0.09729086  0.13644390  1
  Mo  Mo171  1  0.39424235  0.39682601  0.50182313  1
  Mo  Mo172  1  0.40353979  0.19887209  -0.00016840  1
  Mo  Mo173  1  0.41132890  0.79163458  0.25027367  1
  Mo  Mo174  1  0.20244491  0.39910879  0.24703691  1
  Mo  Mo175  1  0.10140550  0.29354115  0.37850115  1
  Mo  Mo176  1  0.18705926  0.78575306  0.24627613  1
  Mo  Mo177  1  0.00581127  0.80297281  0.76419725  1
  Mo  Mo178  1  0.59385115  -0.00263303  0.75856328  1
  Mo  Mo179  1  0.79869498  0.21048335  0.25539087  1
  Mo  Mo180  1  0.00176632  0.79373687  0.50600388  1
  Mo  Mo181  1  0.31014961  0.70071502  0.62119060  1
  Mo  Mo182  1  0.29789182  0.49475790  0.38076017  1
  Mo  Mo183  1  0.60796026  0.20263386  0.49652037  1
  Mo  Mo184  1  0.20329169  0.19714278  0.73665821  1
  Mo  Mo185  1  0.08903351  0.68799755  0.37151874  1
  Mo  Mo186  1  0.30351929  0.90236231  0.87281806  1
  Mo  Mo187  1  0.69018818  0.69492823  0.13381074  1
  Mo  Mo188  1  0.08226395  0.49348181  0.86779066  1
  Mo  Mo189  1  0.49271462  0.10126903  0.62638368  1
  Mo  Mo190  1  0.00303068  0.41009478  0.49924559  1
  Mo  Mo191  1  0.70294859  0.49887108  0.38128808  1
  Mo  Mo192  1  0.21206855  0.78806794  0.75922698  1
  Mo  Mo193  1  0.90051248  0.70339639  0.87483483  1
  Mo  Mo194  1  0.92285742  0.71000456  0.62591762  1
  Mo  Mo195  1  0.10654980  0.30251042  0.63904087  1
  Mo  Mo196  1  0.09870321  0.69910243  0.86471352  1
  Mo  Mo197  1  0.19232373  0.59276307  0.78018140  1
  Mo  Mo198  1  0.00140274  0.00388268  0.25249533  1
  Mo  Mo199  1  0.30897689  0.49651628  0.88347638  1
