# generated using pymatgen
data_HfZrTaTiMo
_symmetry_space_group_name_H-M   'P 1'
_cell_length_a   15.21384599
_cell_length_b   15.21963942
_cell_length_c   16.83628838
_cell_angle_alpha   90.02071435
_cell_angle_beta   89.99984589
_cell_angle_gamma   90.06066244
_symmetry_Int_Tables_number   1
_chemical_formula_structural   HfZrTaTiMo
_chemical_formula_sum   'Hf40 Zr40 Ta40 Ti40 Mo40'
_cell_volume   3898.42751236
_cell_formula_units_Z   40
loop_
 _symmetry_equiv_pos_site_id
 _symmetry_equiv_pos_as_xyz
  1  'x, y, z'
loop_
 _atom_site_type_symbol
 _atom_site_label
 _atom_site_symmetry_multiplicity
 _atom_site_fract_x
 _atom_site_fract_y
 _atom_site_fract_z
 _atom_site_occupancy
  Hf  Hf0  1  0.80439615  0.59626657  0.01073931  1
  Hf  Hf1  1  0.90636449  0.28920026  0.12874756  1
  Hf  Hf2  1  0.69999565  0.49501671  0.37111388  1
  Hf  Hf3  1  0.49922795  0.89255509  0.14997307  1
  Hf  Hf4  1  0.18528769  0.80085729  0.24224896  1
  Hf  Hf5  1  0.00166435  0.39607021  -0.01358751  1
  Hf  Hf6  1  -0.00365590  0.38401622  0.75251181  1
  Hf  Hf7  1  0.60370509  0.18707999  0.51556861  1
  Hf  Hf8  1  0.30264993  0.51181067  0.87228367  1
  Hf  Hf9  1  0.79602525  0.79382910  0.00761254  1
  Hf  Hf10  1  0.49066466  0.08718792  0.87448299  1
  Hf  Hf11  1  0.19544851  0.61057440  -0.00321914  1
  Hf  Hf12  1  0.87697426  0.48067401  0.62682077  1
  Hf  Hf13  1  0.40506556  0.40580929  0.26520984  1
  Hf  Hf14  1  0.90869428  0.28676633  0.36493998  1
  Hf  Hf15  1  0.89423149  0.09496274  0.13274388  1
  Hf  Hf16  1  0.79505920  0.80667398  0.73875762  1
  Hf  Hf17  1  0.00004771  0.59689675  0.73209317  1
  Hf  Hf18  1  0.10951435  0.10516139  0.13606820  1
  Hf  Hf19  1  0.10867405  0.89940324  0.88010570  1
  Hf  Hf20  1  0.69192316  0.70087654  0.86969257  1
  Hf  Hf21  1  0.60251217  0.38085140  0.25110547  1
  Hf  Hf22  1  0.40299803  -0.02155181  0.72410593  1
  Hf  Hf23  1  0.19843496  0.61543910  0.52186742  1
  Hf  Hf24  1  0.51281051  0.09742222  0.36589339  1
  Hf  Hf25  1  0.30038442  0.50379508  0.11130756  1
  Hf  Hf26  1  0.28439476  0.30641312  0.38691105  1
  Hf  Hf27  1  0.19118224  0.82789850  0.50667926  1
  Hf  Hf28  1  0.01966913  0.39132730  0.24980396  1
  Hf  Hf29  1  0.79823470  0.00490619  -0.00141579  1
  Hf  Hf30  1  0.19148491  0.61978403  0.73787809  1
  Hf  Hf31  1  0.30711407  0.91689054  0.88066453  1
  Hf  Hf32  1  0.89301114  0.70984780  0.39155878  1
  Hf  Hf33  1  0.29841800  0.29649425  0.62759000  1
  Hf  Hf34  1  0.20822168  0.41078201  0.24686741  1
  Hf  Hf35  1  0.60547347  0.21309140  0.73405365  1
  Hf  Hf36  1  0.89528629  0.70816410  0.61500304  1
  Hf  Hf37  1  0.29512140  0.09225822  0.38008330  1
  Hf  Hf38  1  0.49730705  0.88936789  0.88102383  1
  Hf  Hf39  1  0.80276844  0.62005986  0.24213687  1
  Zr  Zr40  1  0.61019541  0.38768885  0.00500126  1
  Zr  Zr41  1  0.10780937  0.50437243  0.37935446  1
  Zr  Zr42  1  0.31348120  0.73230116  0.62624380  1
  Zr  Zr43  1  0.89828846  0.27836812  0.63287022  1
  Zr  Zr44  1  0.58126586  0.79810040  0.73600906  1
  Zr  Zr45  1  0.69236106  0.10784870  0.87205025  1
  Zr  Zr46  1  0.78714192  0.59408757  0.50072996  1
  Zr  Zr47  1  0.00830938  0.59700274  0.52057496  1
  Zr  Zr48  1  0.38338863  0.60422948  0.25918080  1
  Zr  Zr49  1  0.60143905  0.60141793  0.01142024  1
  Zr  Zr50  1  0.40638948  0.20332084  0.50247663  1
  Zr  Zr51  1  0.50347518  0.28431990  0.11714804  1
  Zr  Zr52  1  0.49698157  0.68283728  0.61026211  1
  Zr  Zr53  1  0.39992610  0.18774273  0.74138853  1
  Zr  Zr54  1  0.90515189  0.50095917  0.37527564  1
  Zr  Zr55  1  0.41045335  -0.01624932  0.50602841  1
  Zr  Zr56  1  0.60251439  0.00313856  0.72294657  1
  Zr  Zr57  1  0.80655861  0.20133490  0.49549387  1
  Zr  Zr58  1  0.80279842  0.39629312  0.24321852  1
  Zr  Zr59  1  0.42758346  0.40351344  0.76396387  1
  Zr  Zr60  1  0.49490331  0.49411666  0.12342510  1
  Zr  Zr61  1  0.51907210  0.89601553  0.36306646  1
  Zr  Zr62  1  0.89891457  0.69471613  0.86759990  1
  Zr  Zr63  1  0.59637081  0.60091347  0.25353156  1
  Zr  Zr64  1  0.91917899  0.50670527  0.12406918  1
  Zr  Zr65  1  0.90601348  0.89363447  0.87515758  1
  Zr  Zr66  1  0.39608963  0.20414489  0.25667439  1
  Zr  Zr67  1  -0.01506512  0.79309908  0.25278972  1
  Zr  Zr68  1  0.69340581  0.90396276  0.87614796  1
  Zr  Zr69  1  0.29723797  0.29785705  0.11714540  1
  Zr  Zr70  1  0.09415181  0.10834925  0.36036283  1
  Zr  Zr71  1  0.19655668  0.40177944  0.75136747  1
  Zr  Zr72  1  -0.00224286  0.38212830  0.50694026  1
  Zr  Zr73  1  0.32173425  0.50858743  0.63404883  1
  Zr  Zr74  1  0.29412097  0.72505135  0.87421748  1
  Zr  Zr75  1  0.89159917  0.49372820  0.86504219  1
  Zr  Zr76  1  0.20270204  0.02683010  0.75479429  1
  Zr  Zr77  1  0.01128459  -0.00675901  0.00825149  1
  Zr  Zr78  1  0.19281716  0.40984464  0.52232651  1
  Zr  Zr79  1  0.68928717  0.49082331  0.87007683  1
  Ta  Ta80  1  0.78179781  0.59744928  0.73502703  1
  Ta  Ta81  1  0.39901461  0.18592686  -0.00131726  1
  Ta  Ta82  1  0.20008165  0.19690622  -0.00793714  1
  Ta  Ta83  1  0.78175722  0.81403692  0.25224363  1
  Ta  Ta84  1  0.67580960  0.49591846  0.62300019  1
  Ta  Ta85  1  0.68941599  0.69980536  0.61489506  1
  Ta  Ta86  1  0.92268739  0.08948855  0.63330769  1
  Ta  Ta87  1  0.39527723  0.60174400  0.48519194  1
  Ta  Ta88  1  0.10217582  0.90644695  0.37061823  1
  Ta  Ta89  1  0.07977555  0.69918730  0.11315637  1
  Ta  Ta90  1  0.49129285  0.70602273  0.37634412  1
  Ta  Ta91  1  0.29720882  0.71067617  0.12524938  1
  Ta  Ta92  1  0.78433026  0.18520833  0.25470272  1
  Ta  Ta93  1  0.09081461  0.70802400  0.88085488  1
  Ta  Ta94  1  0.69979197  0.90352236  0.12266310  1
  Ta  Ta95  1  0.79946783  0.20570095  -0.00938600  1
  Ta  Ta96  1  0.20198810  0.39696528  -0.01800193  1
  Ta  Ta97  1  0.58369233  0.58472713  0.74898927  1
  Ta  Ta98  1  0.59057512  0.79721613  0.01228323  1
  Ta  Ta99  1  0.81600024  0.00486518  0.50969234  1
  Ta  Ta100  1  0.90242607  0.88740770  0.12359012  1
  Ta  Ta101  1  0.09473042  0.70762308  0.38448650  1
  Ta  Ta102  1  0.30350204  0.89925414  0.35897647  1
  Ta  Ta103  1  0.40180227  0.60981726  -0.00106960  1
  Ta  Ta104  1  0.49563106  0.69461297  0.87913355  1
  Ta  Ta105  1  0.70734182  0.07976199  0.38099995  1
  Ta  Ta106  1  0.78535083  0.81810433  0.50573272  1
  Ta  Ta107  1  0.00363834  0.18205209  0.49963197  1
  Ta  Ta108  1  0.29732401  0.91542102  0.14633774  1
  Ta  Ta109  1  0.51988973  0.28773313  0.88372888  1
  Ta  Ta110  1  0.91438486  0.90126670  0.62169962  1
  Ta  Ta111  1  0.39996210  -0.00093936  0.01948859  1
  Ta  Ta112  1  0.50012939  0.09237950  0.14095561  1
  Ta  Ta113  1  0.21393293  0.01240216  0.00848299  1
  Ta  Ta114  1  0.81060352  0.00608683  0.74433897  1
  Ta  Ta115  1  0.40175718  0.39601598  -0.01979482  1
  Ta  Ta116  1  0.00001094  0.19460076  -0.00963414  1
  Ta  Ta117  1  0.90006708  0.08680847  0.36128487  1
  Ta  Ta118  1  0.80352966  0.39177295  0.00365638  1
  Ta  Ta119  1  0.29291547  0.09652996  0.60784203  1
  Ti  Ti120  1  0.70391439  0.28347037  0.12496038  1
  Ti  Ti121  1  0.72407520  0.10581474  0.62926615  1
  Ti  Ti122  1  0.28508720  0.70969362  0.37651405  1
  Ti  Ti123  1  0.70260390  0.49643696  0.13118424  1
  Ti  Ti124  1  0.00547772  -0.01168146  0.24185433  1
  Ti  Ti125  1  0.50688158  0.29915920  0.38126838  1
  Ti  Ti126  1  0.68535135  0.72130754  0.38443786  1
  Ti  Ti127  1  0.10498664  0.28761746  0.87315278  1
  Ti  Ti128  1  0.50739747  0.31928117  0.61865679  1
  Ti  Ti129  1  0.09530096  0.51153560  0.87349967  1
  Ti  Ti130  1  0.69864712  0.28540302  0.37697403  1
  Ti  Ti131  1  0.18986084  0.60706941  0.24285366  1
  Ti  Ti132  1  0.01457015  -0.00778281  0.49719218  1
  Ti  Ti133  1  0.49239948  0.70075006  0.13625432  1
  Ti  Ti134  1  0.39575635  0.80417252  0.01388693  1
  Ti  Ti135  1  0.59113988  0.00021329  0.01067026  1
  Ti  Ti136  1  0.90901579  0.09819132  0.87296159  1
  Ti  Ti137  1  0.01624866  0.18526892  0.76223325  1
  Ti  Ti138  1  0.10597235  0.50085985  0.11208536  1
  Ti  Ti139  1  0.00857573  -0.00571067  0.75441089  1
  Ti  Ti140  1  0.29608775  0.50922028  0.38324971  1
  Ti  Ti141  1  0.01300217  0.79943852  0.74094657  1
  Ti  Ti142  1  0.58987468  0.59327849  0.48523604  1
  Ti  Ti143  1  0.19331180  0.81785576  0.01881202  1
  Ti  Ti144  1  0.19055312  0.21470251  0.25235257  1
  Ti  Ti145  1  0.69198220  0.10292176  0.12159107  1
  Ti  Ti146  1  0.60436287  0.39791548  0.49188381  1
  Ti  Ti147  1  0.18445119  0.20549211  0.50085942  1
  Ti  Ti148  1  0.10278562  0.30321676  0.11199949  1
  Ti  Ti149  1  0.71045609  0.31576082  0.62069083  1
  Ti  Ti150  1  0.30550940  0.28466460  0.86940994  1
  Ti  Ti151  1  0.19963413  0.82528150  0.73502772  1
  Ti  Ti152  1  0.00755431  0.60375249  0.25255931  1
  Ti  Ti153  1  0.63009858  -0.00228966  0.24931407  1
  Ti  Ti154  1  0.40894728  0.40994057  0.49274014  1
  Ti  Ti155  1  0.81099639  0.20580398  0.76443583  1
  Ti  Ti156  1  0.61873559  -0.01713962  0.51814514  1
  Ti  Ti157  1  0.89470094  0.90610060  0.37833661  1
  Ti  Ti158  1  0.10567086  0.10583474  0.62236331  1
  Ti  Ti159  1  0.40391873  0.61337921  0.75765990  1
  Mo  Mo160  1  0.10167750  0.29922517  0.37735401  1
  Mo  Mo161  1  0.00171070  0.79156549  0.00327527  1
  Mo  Mo162  1  0.30545946  0.10678730  0.13088991  1
  Mo  Mo163  1  0.29027348  0.91289491  0.61856525  1
  Mo  Mo164  1  -0.00392091  0.19853700  0.24472123  1
  Mo  Mo165  1  0.60348181  0.39629868  0.74855161  1
  Mo  Mo166  1  0.59367310  0.80048942  0.50347628  1
  Mo  Mo167  1  0.71019931  0.90483572  0.38134084  1
  Mo  Mo168  1  0.60477331  0.79215472  0.24731079  1
  Mo  Mo169  1  0.70778992  0.29818207  0.87489072  1
  Mo  Mo170  1  0.19655405  0.20573886  0.74822805  1
  Mo  Mo171  1  -0.00606269  0.81311333  0.49252222  1
  Mo  Mo172  1  0.71131181  0.90179990  0.62449560  1
  Mo  Mo173  1  0.09248272  0.72338845  0.62544787  1
  Mo  Mo174  1  0.89371564  0.70235302  0.12683392  1
  Mo  Mo175  1  0.39148598  0.79579861  0.47914711  1
  Mo  Mo176  1  0.39909653  0.00303695  0.25066920  1
  Mo  Mo177  1  0.50605863  0.09882292  0.61829202  1
  Mo  Mo178  1  0.10151651  0.10026409  0.88259651  1
  Mo  Mo179  1  0.49699727  0.50368019  0.88384048  1
  Mo  Mo180  1  0.39427695  0.79875392  0.75385400  1
  Mo  Mo181  1  0.30304654  0.10514341  0.88087007  1
  Mo  Mo182  1  0.78675396  0.39309409  0.49393140  1
  Mo  Mo183  1  0.09677209  0.28222226  0.63437908  1
  Mo  Mo184  1  0.78252806  0.38944057  0.74997823  1
  Mo  Mo185  1  0.60820096  0.19197830  0.25580502  1
  Mo  Mo186  1  0.68899588  0.71139100  0.13016543  1
  Mo  Mo187  1  0.00292980  0.60012697  -0.00721424  1
  Mo  Mo188  1  0.39137168  0.79361804  0.25541779  1
  Mo  Mo189  1  0.80775664  -0.00750896  0.24567548  1
  Mo  Mo190  1  0.50152233  0.49303735  0.61057676  1
  Mo  Mo191  1  0.19408799  0.01498056  0.49541880  1
  Mo  Mo192  1  0.19925563  0.00240603  0.24965808  1
  Mo  Mo193  1  0.60212844  0.18275240  0.00259322  1
  Mo  Mo194  1  0.49892960  0.49714089  0.38375870  1
  Mo  Mo195  1  0.09215835  0.92264203  0.62929203  1
  Mo  Mo196  1  0.09502184  0.49463391  0.63689872  1
  Mo  Mo197  1  0.49731918  0.87879922  0.60772928  1
  Mo  Mo198  1  0.10030102  0.90049864  0.12413236  1
  Mo  Mo199  1  0.90015712  0.28804559  0.87455717  1
