# generated using pymatgen
data_HfZrTaTiMo
_symmetry_space_group_name_H-M   'P 1'
_cell_length_a   15.21279709
_cell_length_b   15.22046704
_cell_length_c   16.80660308
_cell_angle_alpha   90.01764583
_cell_angle_beta   90.05130734
_cell_angle_gamma   89.95517148
_symmetry_Int_Tables_number   1
_chemical_formula_structural   HfZrTaTiMo
_chemical_formula_sum   'Hf40 Zr40 Ta40 Ti40 Mo40'
_cell_volume   3891.49670994
_cell_formula_units_Z   40
loop_
 _symmetry_equiv_pos_site_id
 _symmetry_equiv_pos_as_xyz
  1  'x, y, z'
loop_
 _atom_site_type_symbol
 _atom_site_label
 _atom_site_symmetry_multiplicity
 _atom_site_fract_x
 _atom_site_fract_y
 _atom_site_fract_z
 _atom_site_occupancy
  Hf  Hf0  1  0.21072913  0.20179739  0.24699425  1
  Hf  Hf1  1  0.00320561  0.60716938  0.22978719  1
  Hf  Hf2  1  0.00944057  -0.00739042  0.75296283  1
  Hf  Hf3  1  0.50629395  0.88081664  0.39220406  1
  Hf  Hf4  1  0.20147949  0.78074467  0.00453756  1
  Hf  Hf5  1  0.20062805  0.20138938  0.73949111  1
  Hf  Hf6  1  0.70040714  0.11169280  0.87589905  1
  Hf  Hf7  1  0.10494952  0.89785456  0.88188131  1
  Hf  Hf8  1  0.79663143  0.40920951  0.49225746  1
  Hf  Hf9  1  0.19429829  0.59085965  0.23528742  1
  Hf  Hf10  1  0.19857415  0.20300031  -0.00305612  1
  Hf  Hf11  1  0.29743591  0.90789319  0.60912893  1
  Hf  Hf12  1  0.29220636  0.49792238  0.64760209  1
  Hf  Hf13  1  0.90802404  0.10681676  0.63204229  1
  Hf  Hf14  1  0.28480906  0.67682599  0.85336140  1
  Hf  Hf15  1  0.48615085  0.70901483  0.13472984  1
  Hf  Hf16  1  0.69213170  0.50810751  0.11724814  1
  Hf  Hf17  1  0.39326836  0.39667459  -0.01213634  1
  Hf  Hf18  1  0.79786344  0.61159157  0.48690455  1
  Hf  Hf19  1  0.30543272  0.10113055  0.38574173  1
  Hf  Hf20  1  0.88656509  0.48941314  0.11757627  1
  Hf  Hf21  1  0.90521259  0.72238618  0.36657531  1
  Hf  Hf22  1  0.32467362  0.88710364  0.12787247  1
  Hf  Hf23  1  0.88577450  0.71015967  0.12388902  1
  Hf  Hf24  1  0.01025169  0.39999976  0.24111310  1
  Hf  Hf25  1  0.49454791  0.29052439  0.12794532  1
  Hf  Hf26  1  0.39675714  0.39262935  0.51932810  1
  Hf  Hf27  1  0.68702815  0.90301378  0.88325080  1
  Hf  Hf28  1  0.88048976  0.90649457  0.62071345  1
  Hf  Hf29  1  0.18403346  0.80630577  0.73762871  1
  Hf  Hf30  1  0.00100407  0.60781397  0.50539005  1
  Hf  Hf31  1  0.59473868  0.00175051  0.73458896  1
  Hf  Hf32  1  0.71045953  0.09660600  0.62040252  1
  Hf  Hf33  1  0.90107428  0.50688658  0.36506093  1
  Hf  Hf34  1  0.88523355  0.51542866  0.63182534  1
  Hf  Hf35  1  0.59704963  0.80779865  0.73219838  1
  Hf  Hf36  1  0.48576747  0.70876232  0.85511535  1
  Hf  Hf37  1  0.60083996  0.20421903  0.73875934  1
  Hf  Hf38  1  0.90417885  0.27951403  0.13875522  1
  Hf  Hf39  1  0.81821697  -0.00122339  -0.01866783  1
  Zr  Zr40  1  0.57856947  0.61304310  -0.00166178  1
  Zr  Zr41  1  -0.00589617  0.38746891  -0.00658413  1
  Zr  Zr42  1  0.20377014  -0.00350191  0.25290811  1
  Zr  Zr43  1  0.40519596  0.18914960  0.74350442  1
  Zr  Zr44  1  0.48791956  0.50023652  0.85997165  1
  Zr  Zr45  1  -0.00396975  0.00047437  0.26102873  1
  Zr  Zr46  1  0.41246044  -0.00616162  0.26327812  1
  Zr  Zr47  1  0.10275442  0.49916551  0.37541382  1
  Zr  Zr48  1  0.30862746  0.88473829  0.87105152  1
  Zr  Zr49  1  0.01025773  0.20814085  0.49583165  1
  Zr  Zr50  1  0.71455852  0.11163020  0.12279588  1
  Zr  Zr51  1  0.59781601  0.59594425  0.51334563  1
  Zr  Zr52  1  0.30823380  0.10029585  0.12106872  1
  Zr  Zr53  1  0.78583545  0.61312601  0.25524659  1
  Zr  Zr54  1  0.70356403  0.49912086  0.88827595  1
  Zr  Zr55  1  0.80631611  0.79824280  0.76339639  1
  Zr  Zr56  1  0.48475746  0.49573967  0.12078086  1
  Zr  Zr57  1  0.30079540  0.69874081  0.64429545  1
  Zr  Zr58  1  0.11236644  0.09024506  0.61566505  1
  Zr  Zr59  1  0.69136227  0.69555905  0.87560646  1
  Zr  Zr60  1  0.00636720  0.01059536  -0.00698035  1
  Zr  Zr61  1  0.51212809  0.08446512  0.12017470  1
  Zr  Zr62  1  0.09982288  0.88869592  0.37889018  1
  Zr  Zr63  1  0.39471828  0.59762758  0.50936235  1
  Zr  Zr64  1  0.60658214  0.00822131  0.49221335  1
  Zr  Zr65  1  0.61617066  0.00377902  0.27131843  1
  Zr  Zr66  1  0.90740646  0.31095943  0.63199086  1
  Zr  Zr67  1  0.70803278  0.91314922  0.12043843  1
  Zr  Zr68  1  0.10357169  0.90469802  0.12121305  1
  Zr  Zr69  1  0.30928156  0.08513841  0.87740606  1
  Zr  Zr70  1  0.49186722  0.69090299  0.37538541  1
  Zr  Zr71  1  0.30080618  0.49292251  0.37997130  1
  Zr  Zr72  1  0.70094170  0.30979511  0.12587831  1
  Zr  Zr73  1  0.11865005  0.30245600  0.37246483  1
  Zr  Zr74  1  0.82033789  0.21706868  -0.01078461  1
  Zr  Zr75  1  0.80445663  0.00209317  0.76574431  1
  Zr  Zr76  1  0.18944420  0.78876033  0.51274284  1
  Zr  Zr77  1  0.71982035  0.69337244  0.63202954  1
  Zr  Zr78  1  0.79829787  0.20376698  0.49032695  1
  Zr  Zr79  1  0.59127196  0.39390463  0.50765725  1
  Ta  Ta80  1  0.68194289  0.50611525  0.37060289  1
  Ta  Ta81  1  0.00389347  0.60254680  0.01124343  1
  Ta  Ta82  1  0.20357989  0.78944204  0.24607440  1
  Ta  Ta83  1  0.19918729  0.40536974  -0.00573057  1
  Ta  Ta84  1  0.30467625  0.88381870  0.38775558  1
  Ta  Ta85  1  -0.00978580  0.79954175  0.51796179  1
  Ta  Ta86  1  0.90399723  0.30489834  0.36627125  1
  Ta  Ta87  1  0.50893098  0.09162274  0.88079015  1
  Ta  Ta88  1  0.19237852  0.59280482  0.51000093  1
  Ta  Ta89  1  0.68748171  0.29898462  0.37385808  1
  Ta  Ta90  1  0.18754923  0.39369766  0.75684110  1
  Ta  Ta91  1  0.80564059  0.00230017  0.47454043  1
  Ta  Ta92  1  0.68993381  0.71051880  0.11874434  1
  Ta  Ta93  1  0.32310269  0.29562408  0.37434279  1
  Ta  Ta94  1  0.37356636  0.59615866  -0.00675532  1
  Ta  Ta95  1  0.08198783  0.70062307  0.87582244  1
  Ta  Ta96  1  0.59941528  0.80382023  0.24643046  1
  Ta  Ta97  1  0.10718325  0.30095183  0.12252257  1
  Ta  Ta98  1  0.58365232  0.40542572  0.25876301  1
  Ta  Ta99  1  0.39419566  0.58265445  0.25313300  1
  Ta  Ta100  1  0.00182762  0.40651065  0.50034365  1
  Ta  Ta101  1  0.22115169  0.21282839  0.51126935  1
  Ta  Ta102  1  0.92442014  0.12981294  0.86097275  1
  Ta  Ta103  1  0.30022720  0.68625853  0.12831975  1
  Ta  Ta104  1  -0.00446535  0.40548926  0.76297621  1
  Ta  Ta105  1  0.08913306  0.49619039  0.63445851  1
  Ta  Ta106  1  0.11145469  0.10464419  0.86841945  1
  Ta  Ta107  1  0.09272188  0.11292676  0.12478142  1
  Ta  Ta108  1  0.49661573  0.90384275  0.87093185  1
  Ta  Ta109  1  -0.00882194  0.80342661  0.00787206  1
  Ta  Ta110  1  0.79910348  0.79961613  -0.00640289  1
  Ta  Ta111  1  0.80522004  0.21632823  0.75442549  1
  Ta  Ta112  1  0.29651067  0.30008906  0.86982276  1
  Ta  Ta113  1  0.78886535  0.39771984  0.26009876  1
  Ta  Ta114  1  0.40605403  0.19734216  -0.01104986  1
  Ta  Ta115  1  -0.00177190  -0.00409094  0.49339587  1
  Ta  Ta116  1  0.59838697  0.20526982  0.25545713  1
  Ta  Ta117  1  -0.00482010  0.79461914  0.73638253  1
  Ta  Ta118  1  0.10191876  0.69677996  0.37172478  1
  Ta  Ta119  1  0.59218674  0.60251886  0.24949238  1
  Ti  Ti120  1  0.89648796  0.50462589  0.88614584  1
  Ti  Ti121  1  0.49370203  0.69993814  0.63033257  1
  Ti  Ti122  1  0.59783644  0.39949132  0.73813033  1
  Ti  Ti123  1  0.90289092  0.08492729  0.12926260  1
  Ti  Ti124  1  0.29309936  0.69773885  0.37430447  1
  Ti  Ti125  1  -0.01071963  0.60594672  0.75227112  1
  Ti  Ti126  1  0.40462954  -0.01063975  0.73829000  1
  Ti  Ti127  1  0.50577433  0.12987900  0.38177460  1
  Ti  Ti128  1  0.40138088  0.78702759  -0.00402529  1
  Ti  Ti129  1  0.50473404  0.29242145  0.87090892  1
  Ti  Ti130  1  0.60002370  0.20148731  -0.00252252  1
  Ti  Ti131  1  0.00560807  0.19213894  0.26298648  1
  Ti  Ti132  1  0.31096524  0.09810967  0.61253784  1
  Ti  Ti133  1  0.40375929  0.00341849  0.49400001  1
  Ti  Ti134  1  0.70460317  0.30585095  0.62471702  1
  Ti  Ti135  1  0.11016692  0.09911639  0.38859848  1
  Ti  Ti136  1  0.68478045  0.71745872  0.37846344  1
  Ti  Ti137  1  0.70102506  0.30843596  0.87441086  1
  Ti  Ti138  1  0.41895660  -0.01511194  0.00229616  1
  Ti  Ti139  1  0.79093837  0.41425769  0.75261203  1
  Ti  Ti140  1  0.00278892  0.80595910  0.23467145  1
  Ti  Ti141  1  0.49616693  0.89451353  0.60404168  1
  Ti  Ti142  1  0.30648084  0.30253896  0.12179141  1
  Ti  Ti143  1  0.80056239  0.19144988  0.26954734  1
  Ti  Ti144  1  0.60618356  0.58952251  0.73825638  1
  Ti  Ti145  1  0.19123964  0.58875717  0.00871175  1
  Ti  Ti146  1  0.58567190  0.81930500  0.00924006  1
  Ti  Ti147  1  0.10132310  0.50899429  0.87411435  1
  Ti  Ti148  1  0.42200304  0.20440780  0.51680598  1
  Ti  Ti149  1  0.80956019  0.00282739  0.27528652  1
  Ti  Ti150  1  0.19676023  0.39625412  0.51579514  1
  Ti  Ti151  1  0.59511962  0.39343208  -0.00451573  1
  Ti  Ti152  1  0.78840322  0.81099229  0.49548788  1
  Ti  Ti153  1  0.89692307  0.69001221  0.88714454  1
  Ti  Ti154  1  0.39957618  0.38822138  0.74556790  1
  Ti  Ti155  1  0.79740688  0.81897909  0.25341812  1
  Ti  Ti156  1  0.21610768  0.40191927  0.23648997  1
  Ti  Ti157  1  0.21077374  -0.00205731  0.00330615  1
  Ti  Ti158  1  0.20946521  -0.00065319  0.74609685  1
  Ti  Ti159  1  0.08594554  0.28966532  0.87372048  1
  Mo  Mo160  1  0.49593706  0.09041876  0.61517462  1
  Mo  Mo161  1  0.90282315  0.89604215  0.38294316  1
  Mo  Mo162  1  0.49574481  0.49276640  0.37108841  1
  Mo  Mo163  1  0.40483958  0.59317411  0.74278278  1
  Mo  Mo164  1  0.39023847  0.79095793  0.25865164  1
  Mo  Mo165  1  0.00708939  0.20020916  0.00093732  1
  Mo  Mo166  1  0.49959403  0.50059297  0.64472843  1
  Mo  Mo167  1  0.70003982  0.49343419  0.63143709  1
  Mo  Mo168  1  0.70544434  0.88961096  0.37344485  1
  Mo  Mo169  1  0.60456190  0.79584695  0.51822317  1
  Mo  Mo170  1  0.89877684  0.70403906  0.62509949  1
  Mo  Mo171  1  0.50922417  0.89327562  0.13046962  1
  Mo  Mo172  1  0.91607073  0.87401166  0.87597326  1
  Mo  Mo173  1  0.49736549  0.30278506  0.37617128  1
  Mo  Mo174  1  0.39931227  0.79411435  0.50423708  1
  Mo  Mo175  1  0.17439698  0.59212293  0.75421920  1
  Mo  Mo176  1  0.89331048  0.90741037  0.12803241  1
  Mo  Mo177  1  0.20345018  0.00456737  0.49034968  1
  Mo  Mo178  1  0.09057526  0.68790649  0.63323105  1
  Mo  Mo179  1  0.40712390  0.20092606  0.25325874  1
  Mo  Mo180  1  0.28833602  0.48821708  0.85992757  1
  Mo  Mo181  1  0.01135506  0.21049005  0.74487770  1
  Mo  Mo182  1  0.08982592  0.90271598  0.61793764  1
  Mo  Mo183  1  0.29556466  0.49087971  0.11905462  1
  Mo  Mo184  1  0.40245196  0.81022348  0.73964651  1
  Mo  Mo185  1  0.79326092  0.40341485  -0.00292659  1
  Mo  Mo186  1  0.50368694  0.29616420  0.63392609  1
  Mo  Mo187  1  0.59936717  0.20694745  0.51162980  1
  Mo  Mo188  1  0.80252921  0.60944422  0.00546389  1
  Mo  Mo189  1  0.29854247  0.29729143  0.63163487  1
  Mo  Mo190  1  0.60247249  0.00553928  -0.00358967  1
  Mo  Mo191  1  0.80674589  0.59359453  0.76199187  1
  Mo  Mo192  1  0.89383054  0.31626172  0.85934787  1
  Mo  Mo193  1  0.91073436  0.10727331  0.37593208  1
  Mo  Mo194  1  0.70095715  0.10960316  0.37481140  1
  Mo  Mo195  1  0.69762219  0.90191341  0.61450577  1
  Mo  Mo196  1  0.09969995  0.49069662  0.11325050  1
  Mo  Mo197  1  0.10443997  0.31179606  0.62416066  1
  Mo  Mo198  1  0.39336951  0.39157326  0.24797604  1
  Mo  Mo199  1  0.09862874  0.70266752  0.11775852  1
