# generated using pymatgen
data_HfZrTaTiMo
_symmetry_space_group_name_H-M   'P 1'
_cell_length_a   15.21726726
_cell_length_b   15.21753007
_cell_length_c   16.85819420
_cell_angle_alpha   90.05829380
_cell_angle_beta   90.08137979
_cell_angle_gamma   89.98104194
_symmetry_Int_Tables_number   1
_chemical_formula_structural   HfZrTaTiMo
_chemical_formula_sum   'Hf40 Zr40 Ta40 Ti40 Mo40'
_cell_volume   3903.83274849
_cell_formula_units_Z   40
loop_
 _symmetry_equiv_pos_site_id
 _symmetry_equiv_pos_as_xyz
  1  'x, y, z'
loop_
 _atom_site_type_symbol
 _atom_site_label
 _atom_site_symmetry_multiplicity
 _atom_site_fract_x
 _atom_site_fract_y
 _atom_site_fract_z
 _atom_site_occupancy
  Hf  Hf0  1  0.70763139  0.28416980  0.38575430  1
  Hf  Hf1  1  0.19101344  0.00402749  0.49065313  1
  Hf  Hf2  1  0.67658629  0.89865256  0.87392810  1
  Hf  Hf3  1  0.40351701  0.00756873  0.25216710  1
  Hf  Hf4  1  0.49714225  0.11025669  0.11511488  1
  Hf  Hf5  1  0.80365551  0.39129434  0.25735408  1
  Hf  Hf6  1  0.19608602  0.60360324  0.50478980  1
  Hf  Hf7  1  0.30513368  0.69918509  0.87320394  1
  Hf  Hf8  1  0.30352117  0.69380257  0.12636485  1
  Hf  Hf9  1  0.90814696  0.09402611  0.62164238  1
  Hf  Hf10  1  0.90166610  0.10792430  0.88249012  1
  Hf  Hf11  1  0.08286097  0.87713701  0.36327227  1
  Hf  Hf12  1  0.19685932  0.80444500  0.74901230  1
  Hf  Hf13  1  0.32082112  0.31366014  0.35917626  1
  Hf  Hf14  1  0.89479987  0.69245901  0.88105176  1
  Hf  Hf15  1  0.70375602  0.09748945  0.11463045  1
  Hf  Hf16  1  0.39297816  0.19727746  0.76852586  1
  Hf  Hf17  1  0.60833629  0.61101825  0.72898420  1
  Hf  Hf18  1  0.51242647  0.31074930  0.11216800  1
  Hf  Hf19  1  0.69471195  0.48986877  0.13465288  1
  Hf  Hf20  1  0.20330046  0.39014211  -0.00868527  1
  Hf  Hf21  1  0.50922150  0.09312105  0.63474124  1
  Hf  Hf22  1  0.69225778  0.69859653  0.87512377  1
  Hf  Hf23  1  0.29691672  0.10668565  0.12197768  1
  Hf  Hf24  1  0.19214600  0.20412894  0.50291753  1
  Hf  Hf25  1  0.07720657  0.69883093  0.62121946  1
  Hf  Hf26  1  0.29755959  0.90284772  0.62409136  1
  Hf  Hf27  1  0.18695286  0.59967446  0.74921399  1
  Hf  Hf28  1  0.10314425  0.10195145  0.89285094  1
  Hf  Hf29  1  0.50407746  0.52344745  0.86010761  1
  Hf  Hf30  1  0.30252077  0.50353005  0.63744366  1
  Hf  Hf31  1  0.88068900  0.90159117  0.89232948  1
  Hf  Hf32  1  0.30328381  0.49532794  0.12884483  1
  Hf  Hf33  1  0.62073082  0.18924309  0.75764808  1
  Hf  Hf34  1  0.59614315  0.59877604  0.27121347  1
  Hf  Hf35  1  0.60767956  0.20997732  -0.01546466  1
  Hf  Hf36  1  0.78905801  0.59605050  0.00364776  1
  Hf  Hf37  1  0.72666459  0.31268760  0.85965719  1
  Hf  Hf38  1  0.82196574  0.79501187  0.24658930  1
  Hf  Hf39  1  0.51285214  0.31226333  0.86328018  1
  Zr  Zr40  1  0.00446305  0.59387436  0.00184468  1
  Zr  Zr41  1  0.40223321  0.40673631  -0.01725676  1
  Zr  Zr42  1  0.79584895  0.19987010  0.23849594  1
  Zr  Zr43  1  0.31136586  0.29487134  0.13911049  1
  Zr  Zr44  1  -0.00512324  0.37572732  0.50590300  1
  Zr  Zr45  1  0.28776736  0.70480525  0.36955339  1
  Zr  Zr46  1  0.29001125  0.11564531  0.35542492  1
  Zr  Zr47  1  0.59602486  0.59262354  0.50845674  1
  Zr  Zr48  1  0.90182227  0.50814972  0.13341489  1
  Zr  Zr49  1  -0.00495018  0.39062669  0.00500704  1
  Zr  Zr50  1  0.18985919  0.80457754  0.50444795  1
  Zr  Zr51  1  0.40931885  -0.01161430  0.76391482  1
  Zr  Zr52  1  0.49821830  0.89809800  0.61077550  1
  Zr  Zr53  1  -0.00627553  0.38350807  0.73213210  1
  Zr  Zr54  1  -0.00682668  -0.00132867  0.75809097  1
  Zr  Zr55  1  0.50529450  0.30670548  0.64634527  1
  Zr  Zr56  1  0.80256027  0.60215747  0.27623381  1
  Zr  Zr57  1  0.39502125  0.79762152  0.24850431  1
  Zr  Zr58  1  0.19487456  0.79370343  0.00680173  1
  Zr  Zr59  1  0.50042171  0.90174606  0.37640499  1
  Zr  Zr60  1  0.58754996  0.38210657  0.26035390  1
  Zr  Zr61  1  0.60734698  0.79508746  0.24795119  1
  Zr  Zr62  1  0.18691732  -0.01166360  0.24016669  1
  Zr  Zr63  1  0.71157480  0.89750777  0.37246524  1
  Zr  Zr64  1  0.61239065  0.20428499  0.51345649  1
  Zr  Zr65  1  0.60260641  -0.01859786  0.01065805  1
  Zr  Zr66  1  0.09527947  0.89394546  0.88491980  1
  Zr  Zr67  1  -0.00391709  0.40792165  0.25719926  1
  Zr  Zr68  1  0.39920754  0.01159107  0.48450203  1
  Zr  Zr69  1  0.79189005  0.79997058  0.74393862  1
  Zr  Zr70  1  0.40415653  0.22268763  0.49987086  1
  Zr  Zr71  1  0.69411410  0.48643479  0.39665244  1
  Zr  Zr72  1  0.21341736  0.39839417  0.50058517  1
  Zr  Zr73  1  0.09530769  0.51364217  0.37889483  1
  Zr  Zr74  1  0.10453369  0.28929174  0.36286603  1
  Zr  Zr75  1  0.30253485  0.10231020  0.62768220  1
  Zr  Zr76  1  -0.00868296  0.78775026  0.75498644  1
  Zr  Zr77  1  0.10663825  0.29836231  0.13396052  1
  Zr  Zr78  1  0.81420953  0.21743585  0.00922432  1
  Zr  Zr79  1  0.50170119  0.52022294  0.12172412  1
  Ta  Ta80  1  0.08933006  0.91063503  0.62816915  1
  Ta  Ta81  1  0.49414831  0.89963386  0.12953696  1
  Ta  Ta82  1  0.80230081  -0.00026302  0.24453186  1
  Ta  Ta83  1  0.60666944  0.79873844  0.49911219  1
  Ta  Ta84  1  0.29482247  0.50365421  0.86383008  1
  Ta  Ta85  1  0.71606311  0.70204972  0.60616557  1
  Ta  Ta86  1  0.28945602  0.90053424  0.36792830  1
  Ta  Ta87  1  0.49790335  0.69450798  0.38853724  1
  Ta  Ta88  1  0.18797201  0.20204761  0.75023481  1
  Ta  Ta89  1  0.59293595  0.81078141  0.73508632  1
  Ta  Ta90  1  0.20616583  0.58798279  -0.00631490  1
  Ta  Ta91  1  0.09639340  0.10404003  0.62653079  1
  Ta  Ta92  1  0.88804468  0.90919275  0.11668182  1
  Ta  Ta93  1  0.58617316  0.77920167  0.01672438  1
  Ta  Ta94  1  0.80172821  0.00067108  0.49918507  1
  Ta  Ta95  1  0.60329680  0.00835652  0.24346759  1
  Ta  Ta96  1  0.89416631  0.10385384  0.37720927  1
  Ta  Ta97  1  0.10337113  0.10130634  0.11067561  1
  Ta  Ta98  1  0.09327593  0.49429132  0.61963313  1
  Ta  Ta99  1  -0.01206909  0.79168559  0.02202822  1
  Ta  Ta100  1  0.61623950  0.41615154  -0.01067753  1
  Ta  Ta101  1  0.19840332  0.00580864  0.75475886  1
  Ta  Ta102  1  0.88980894  0.48902657  0.86705711  1
  Ta  Ta103  1  -0.00684874  -0.01332277  0.49483309  1
  Ta  Ta104  1  0.51117088  0.08324140  0.87867421  1
  Ta  Ta105  1  0.29637227  0.30587723  0.63999936  1
  Ta  Ta106  1  0.60962469  0.00300603  0.49766199  1
  Ta  Ta107  1  0.78038479  0.80307776  0.01829534  1
  Ta  Ta108  1  0.29996727  0.90186017  0.88058326  1
  Ta  Ta109  1  0.40195911  0.79179113  0.74802454  1
  Ta  Ta110  1  0.39740591  -0.00136843  -0.00601611  1
  Ta  Ta111  1  0.08199219  0.08946773  0.36603655  1
  Ta  Ta112  1  0.30506580  0.50529962  0.37191998  1
  Ta  Ta113  1  -0.00747888  0.19372287  0.24389661  1
  Ta  Ta114  1  0.70403926  0.50352531  0.86140777  1
  Ta  Ta115  1  0.49777085  0.49846868  0.63457554  1
  Ta  Ta116  1  0.00403003  0.63300897  0.24640306  1
  Ta  Ta117  1  0.00006447  -0.00341123  0.00785416  1
  Ta  Ta118  1  0.71398381  0.10140876  0.62420602  1
  Ta  Ta119  1  0.41091081  0.61532092  -0.00469649  1
  Ti  Ti120  1  0.39398134  0.79689008  0.49300131  1
  Ti  Ti121  1  0.79861305  0.40877621  0.72163520  1
  Ti  Ti122  1  0.30214342  0.70128525  0.62734588  1
  Ti  Ti123  1  0.20494356  0.40878865  0.25393380  1
  Ti  Ti124  1  0.89670571  0.88821380  0.62369510  1
  Ti  Ti125  1  0.48650687  0.48224374  0.38990648  1
  Ti  Ti126  1  0.50275460  0.71691227  0.86858038  1
  Ti  Ti127  1  0.78707353  0.38578387  0.52189579  1
  Ti  Ti128  1  0.49107856  0.70144055  0.61763149  1
  Ti  Ti129  1  0.71130958  0.09167486  0.88400230  1
  Ti  Ti130  1  0.39408735  0.40601965  0.76010159  1
  Ti  Ti131  1  0.90860225  0.10513098  0.11336596  1
  Ti  Ti132  1  0.70230096  0.09444191  0.37444143  1
  Ti  Ti133  1  0.19541044  0.60760852  0.25138619  1
  Ti  Ti134  1  0.92183906  0.71370723  0.38710647  1
  Ti  Ti135  1  0.09680380  0.68924355  0.87878852  1
  Ti  Ti136  1  0.91780604  0.29936201  0.87113050  1
  Ti  Ti137  1  0.80376396  0.59891247  0.73729201  1
  Ti  Ti138  1  0.39468109  0.20744088  -0.01978208  1
  Ti  Ti139  1  0.40345667  0.59509065  0.25932172  1
  Ti  Ti140  1  0.29255089  0.10099541  0.88559176  1
  Ti  Ti141  1  0.19149567  0.39487232  0.75235121  1
  Ti  Ti142  1  -0.01187768  -0.00385901  0.23659987  1
  Ti  Ti143  1  0.10382410  0.29055074  0.87629447  1
  Ti  Ti144  1  0.80161032  0.40288102  0.00580297  1
  Ti  Ti145  1  0.43332703  0.21423162  0.25382234  1
  Ti  Ti146  1  0.82412415  0.20705464  0.74161479  1
  Ti  Ti147  1  0.89202643  0.51631913  0.60341871  1
  Ti  Ti148  1  0.69347657  0.68743318  0.12992159  1
  Ti  Ti149  1  0.51565487  0.11701175  0.37377645  1
  Ti  Ti150  1  0.89576594  0.49190362  0.39771978  1
  Ti  Ti151  1  0.39364301  0.59550938  0.50187041  1
  Ti  Ti152  1  0.70097111  0.90638882  0.61940156  1
  Ti  Ti153  1  0.10811489  0.50886184  0.13087577  1
  Ti  Ti154  1  0.29265256  0.90440626  0.11883172  1
  Ti  Ti155  1  -0.01215012  0.58535593  0.74518766  1
  Ti  Ti156  1  0.08999688  0.49308222  0.86983779  1
  Ti  Ti157  1  0.78594037  0.00440196  0.74912184  1
  Ti  Ti158  1  0.81413427  0.80459804  0.49360610  1
  Ti  Ti159  1  0.40299042  0.80686141  0.00480089  1
  Mo  Mo160  1  0.49646574  0.69986258  0.12900402  1
  Mo  Mo161  1  -0.00507172  0.59704064  0.50131602  1
  Mo  Mo162  1  0.49137300  0.88737339  0.87945887  1
  Mo  Mo163  1  0.00696280  0.19550107  0.75266829  1
  Mo  Mo164  1  0.80139560  -0.00092515  0.00291041  1
  Mo  Mo165  1  0.18221130  0.78756814  0.23282628  1
  Mo  Mo166  1  0.29443083  0.30065753  0.86079430  1
  Mo  Mo167  1  0.89077740  0.70091837  0.12222957  1
  Mo  Mo168  1  0.70220691  0.49865653  0.61690011  1
  Mo  Mo169  1  0.40531906  0.41191919  0.51146990  1
  Mo  Mo170  1  0.09439972  0.69931606  0.37458123  1
  Mo  Mo171  1  -0.00748962  0.80496392  0.50473636  1
  Mo  Mo172  1  0.70838878  0.29698649  0.63860470  1
  Mo  Mo173  1  0.89238350  0.69890755  0.61579753  1
  Mo  Mo174  1  0.81452409  0.19904984  0.50432117  1
  Mo  Mo175  1  0.51104085  0.30360825  0.38608670  1
  Mo  Mo176  1  0.61226727  0.41035741  0.74890911  1
  Mo  Mo177  1  0.21053105  0.20203254  -0.00573713  1
  Mo  Mo178  1  0.69668880  0.89479088  0.13673565  1
  Mo  Mo179  1  0.69821328  0.30634169  0.11856689  1
  Mo  Mo180  1  0.80524255  0.60597462  0.48549111  1
  Mo  Mo181  1  0.10221410  0.69050610  0.12085516  1
  Mo  Mo182  1  0.39864232  0.60920354  0.74472403  1
  Mo  Mo183  1  0.00415853  0.18101719  0.49373160  1
  Mo  Mo184  1  0.61287439  -0.00383375  0.74990123  1
  Mo  Mo185  1  0.18817956  0.19756822  0.24972211  1
  Mo  Mo186  1  0.00658889  0.81164516  0.22434404  1
  Mo  Mo187  1  0.40351036  0.41150327  0.25128447  1
  Mo  Mo188  1  0.09479442  0.90361837  0.11657152  1
  Mo  Mo189  1  0.89975824  0.28783379  0.38366725  1
  Mo  Mo190  1  0.90359056  0.91342135  0.36841333  1
  Mo  Mo191  1  0.70442051  0.70198865  0.39612765  1
  Mo  Mo192  1  0.20824286  -0.00277162  0.00490650  1
  Mo  Mo193  1  0.00952144  0.20403167  0.00664923  1
  Mo  Mo194  1  0.10509859  0.29320733  0.62683890  1
  Mo  Mo195  1  0.58907538  0.39311784  0.51226385  1
  Mo  Mo196  1  0.60007882  0.60149669  -0.00517785  1
  Mo  Mo197  1  0.60356045  0.18899523  0.25055454  1
  Mo  Mo198  1  0.89778121  0.28474701  0.61883718  1
  Mo  Mo199  1  0.89977351  0.29982147  0.12978743  1
