# generated using pymatgen
data_HfZrTaTiMo
_symmetry_space_group_name_H-M   'P 1'
_cell_length_a   15.21772717
_cell_length_b   15.21636912
_cell_length_c   16.86540188
_cell_angle_alpha   90.05251374
_cell_angle_beta   90.03630315
_cell_angle_gamma   89.99995793
_symmetry_Int_Tables_number   1
_chemical_formula_structural   HfZrTaTiMo
_chemical_formula_sum   'Hf40 Zr40 Ta40 Ti40 Mo40'
_cell_volume   3905.32564593
_cell_formula_units_Z   40
loop_
 _symmetry_equiv_pos_site_id
 _symmetry_equiv_pos_as_xyz
  1  'x, y, z'
loop_
 _atom_site_type_symbol
 _atom_site_label
 _atom_site_symmetry_multiplicity
 _atom_site_fract_x
 _atom_site_fract_y
 _atom_site_fract_z
 _atom_site_occupancy
  Hf  Hf0  1  0.68639616  0.49714390  0.13387951  1
  Hf  Hf1  1  0.42174018  0.80341533  0.24694060  1
  Hf  Hf2  1  0.50438551  0.89946684  0.87466566  1
  Hf  Hf3  1  0.67695560  0.49106595  0.60903460  1
  Hf  Hf4  1  0.79532479  -0.00372584  0.49251731  1
  Hf  Hf5  1  0.18712954  0.60249072  0.75112831  1
  Hf  Hf6  1  0.20674038  0.00009830  0.25668847  1
  Hf  Hf7  1  0.21019858  0.78064876  0.48742317  1
  Hf  Hf8  1  0.47737049  0.29250120  0.88776233  1
  Hf  Hf9  1  0.88886879  0.09620388  0.62753657  1
  Hf  Hf10  1  0.12809773  0.07852259  0.87153765  1
  Hf  Hf11  1  0.57546198  0.41212571  0.76084628  1
  Hf  Hf12  1  0.10058512  0.89693505  0.37587774  1
  Hf  Hf13  1  0.58761263  0.41530292  -0.00743863  1
  Hf  Hf14  1  0.89480674  0.70252646  0.12527234  1
  Hf  Hf15  1  0.28926587  0.70478642  0.63004071  1
  Hf  Hf16  1  0.31352927  0.70038880  0.87576301  1
  Hf  Hf17  1  0.21717180  0.82783218  -0.01334517  1
  Hf  Hf18  1  0.48334639  0.10017335  0.11936473  1
  Hf  Hf19  1  -0.00008931  0.40164990  -0.00036553  1
  Hf  Hf20  1  0.58681032  -0.01395966  0.23321712  1
  Hf  Hf21  1  0.11410219  0.88870983  0.12814013  1
  Hf  Hf22  1  -0.00786482  0.20533516  0.49683394  1
  Hf  Hf23  1  0.40260391  0.80538840  0.74516200  1
  Hf  Hf24  1  0.01046996  0.60092480  0.24692332  1
  Hf  Hf25  1  0.60014601  0.01151469  0.51323550  1
  Hf  Hf26  1  0.11798824  0.30661680  0.87136543  1
  Hf  Hf27  1  0.59898265  0.20111199  0.24791386  1
  Hf  Hf28  1  0.49797124  0.50350890  0.39023195  1
  Hf  Hf29  1  0.89340432  0.49509207  0.13694209  1
  Hf  Hf30  1  0.60048123  0.60806079  0.26661558  1
  Hf  Hf31  1  0.30051582  0.29695033  0.61570829  1
  Hf  Hf32  1  0.70495150  0.69964493  0.62512585  1
  Hf  Hf33  1  0.09640766  0.70851573  0.88700730  1
  Hf  Hf34  1  0.89458074  0.09064131  0.88330095  1
  Hf  Hf35  1  0.38191311  -0.00710979  -0.00594427  1
  Hf  Hf36  1  0.90901190  0.89412061  0.61474367  1
  Hf  Hf37  1  0.38931224  0.60932898  0.50513471  1
  Hf  Hf38  1  0.78548631  0.60805385  -0.00041061  1
  Hf  Hf39  1  0.89761566  0.10190200  0.11761855  1
  Zr  Zr40  1  0.80760995  0.81071458  0.74916947  1
  Zr  Zr41  1  0.40107307  0.01355683  0.73946322  1
  Zr  Zr42  1  0.00423294  0.19791460  0.75372122  1
  Zr  Zr43  1  0.50132845  0.32240924  0.61459315  1
  Zr  Zr44  1  0.39742668  0.40151220  0.25992114  1
  Zr  Zr45  1  0.69453792  0.28962922  0.62590719  1
  Zr  Zr46  1  0.90410558  0.69725865  0.86977315  1
  Zr  Zr47  1  0.92078537  0.69140074  0.62902480  1
  Zr  Zr48  1  0.00066366  -0.00091121  0.24674042  1
  Zr  Zr49  1  0.79166087  0.79014990  0.48776649  1
  Zr  Zr50  1  0.00404148  -0.02489945  0.75472933  1
  Zr  Zr51  1  0.01042456  0.19898207  -0.00655220  1
  Zr  Zr52  1  0.10759996  0.50108015  0.12016125  1
  Zr  Zr53  1  0.20678275  -0.00157589  0.50760910  1
  Zr  Zr54  1  0.90786227  0.48452584  0.36917617  1
  Zr  Zr55  1  0.89915158  0.89314508  0.11985664  1
  Zr  Zr56  1  0.50792711  0.30673084  0.12019108  1
  Zr  Zr57  1  0.89065217  0.49552560  0.62188414  1
  Zr  Zr58  1  0.78681032  0.40162433  0.75436937  1
  Zr  Zr59  1  0.31092275  0.70346569  0.11656925  1
  Zr  Zr60  1  0.29922864  0.29413255  0.13154691  1
  Zr  Zr61  1  0.01530023  -0.01148998  -0.00008434  1
  Zr  Zr62  1  0.78742919  0.19687445  0.49269766  1
  Zr  Zr63  1  0.20910890  0.60581823  0.24880544  1
  Zr  Zr64  1  0.89975529  0.10087322  0.36659346  1
  Zr  Zr65  1  0.78979467  0.39946923  -0.00276183  1
  Zr  Zr66  1  0.22186679  0.20301192  0.74314172  1
  Zr  Zr67  1  0.89764575  0.29909469  0.86976006  1
  Zr  Zr68  1  0.19531052  0.40707504  0.25808160  1
  Zr  Zr69  1  0.19555543  0.81883586  0.76021717  1
  Zr  Zr70  1  0.69218652  0.08890256  0.89051811  1
  Zr  Zr71  1  0.79813466  0.79348955  0.26594533  1
  Zr  Zr72  1  0.88724537  0.29250285  0.12555550  1
  Zr  Zr73  1  0.19864074  0.21366626  0.48937507  1
  Zr  Zr74  1  0.32521374  0.89473334  0.37794822  1
  Zr  Zr75  1  0.40380499  0.58299322  0.73562971  1
  Zr  Zr76  1  0.09896349  0.10112110  0.62410332  1
  Zr  Zr77  1  0.30869220  0.10583349  0.37063941  1
  Zr  Zr78  1  0.78565242  -0.00045954  0.24430803  1
  Zr  Zr79  1  0.68750498  0.28827990  0.87973645  1
  Ta  Ta80  1  0.78911515  0.18742164  0.74928680  1
  Ta  Ta81  1  0.49732768  0.71937714  0.39309033  1
  Ta  Ta82  1  0.60209934  0.80472472  0.74814641  1
  Ta  Ta83  1  0.69537118  0.87138777  0.12214994  1
  Ta  Ta84  1  0.90090067  0.50601070  0.87129789  1
  Ta  Ta85  1  0.70011759  0.70763991  0.86243119  1
  Ta  Ta86  1  0.61711580  0.79284627  -0.00896803  1
  Ta  Ta87  1  0.91351251  0.69114170  0.37521169  1
  Ta  Ta88  1  0.00594979  0.41519545  0.74774846  1
  Ta  Ta89  1  0.09610616  0.50664018  0.88208438  1
  Ta  Ta90  1  0.60319074  0.00129499  0.74197899  1
  Ta  Ta91  1  0.90088533  0.29869927  0.63273831  1
  Ta  Ta92  1  0.59809161  0.60433292  0.74279202  1
  Ta  Ta93  1  0.79221151  -0.00277991  0.75394398  1
  Ta  Ta94  1  0.51803316  0.91037826  0.38802368  1
  Ta  Ta95  1  0.31575258  0.90823256  0.13632126  1
  Ta  Ta96  1  0.31720701  0.11984992  0.87572877  1
  Ta  Ta97  1  0.09799904  0.31751810  0.62393122  1
  Ta  Ta98  1  0.09564767  0.29602087  0.13374518  1
  Ta  Ta99  1  0.79014273  0.38582884  0.25929068  1
  Ta  Ta100  1  -0.00231959  0.40018963  0.50376666  1
  Ta  Ta101  1  0.29519353  0.49261006  0.87686968  1
  Ta  Ta102  1  0.38231122  0.38891067  0.75343810  1
  Ta  Ta103  1  0.08487524  0.31664394  0.37158428  1
  Ta  Ta104  1  -0.00124290  0.60247131  0.00883362  1
  Ta  Ta105  1  0.59195126  -0.01429643  0.01438076  1
  Ta  Ta106  1  0.38564462  0.40829732  0.00382226  1
  Ta  Ta107  1  0.20838321  0.59817235  0.00202761  1
  Ta  Ta108  1  0.10886136  0.10782047  0.13031156  1
  Ta  Ta109  1  0.19704805  0.41154904  0.74397335  1
  Ta  Ta110  1  0.21027205  0.79173472  0.25856401  1
  Ta  Ta111  1  0.90523198  0.89505156  0.37783548  1
  Ta  Ta112  1  0.09642850  0.51811663  0.61157336  1
  Ta  Ta113  1  0.68020580  0.08990627  0.36923676  1
  Ta  Ta114  1  0.50368387  0.10229912  0.88788247  1
  Ta  Ta115  1  0.38858272  0.39317796  0.48665641  1
  Ta  Ta116  1  0.50986104  0.69019382  0.86999481  1
  Ta  Ta117  1  0.60241026  0.39960805  0.26593510  1
  Ta  Ta118  1  0.40158313  0.60756215  0.25985802  1
  Ta  Ta119  1  0.60763072  0.61146069  0.49207416  1
  Ti  Ti120  1  0.52741072  0.70378590  0.12682276  1
  Ti  Ti121  1  0.09651714  0.10518049  0.37349705  1
  Ti  Ti122  1  0.29224835  0.49108063  0.61211989  1
  Ti  Ti123  1  0.29611079  0.10199563  0.13634207  1
  Ti  Ti124  1  0.59465439  0.20443580  0.49080725  1
  Ti  Ti125  1  0.21179703  0.19848500  0.00298584  1
  Ti  Ti126  1  0.09886264  0.51463302  0.39106113  1
  Ti  Ti127  1  0.40771981  0.59370503  -0.00120906  1
  Ti  Ti128  1  0.68743123  0.51644835  0.87097263  1
  Ti  Ti129  1  0.78689730  -0.01940329  0.00301558  1
  Ti  Ti130  1  0.79729505  0.59496157  0.74890673  1
  Ti  Ti131  1  0.00220638  -0.00155357  0.49596034  1
  Ti  Ti132  1  0.40283342  0.19470521  0.49640779  1
  Ti  Ti133  1  0.61206188  0.79691274  0.26494657  1
  Ti  Ti134  1  0.78936683  0.20213780  0.25607815  1
  Ti  Ti135  1  0.79764978  0.38466568  0.49052573  1
  Ti  Ti136  1  0.50299384  0.89299258  0.61858305  1
  Ti  Ti137  1  0.70325852  0.49440640  0.38358894  1
  Ti  Ti138  1  -0.00313750  0.20945145  0.25437045  1
  Ti  Ti139  1  0.48711536  0.51113055  0.13354681  1
  Ti  Ti140  1  0.80866288  0.59279212  0.49207620  1
  Ti  Ti141  1  0.28960158  0.50474558  0.38772108  1
  Ti  Ti142  1  0.20125239  0.39991815  0.00642243  1
  Ti  Ti143  1  0.10535073  0.87884598  0.61577214  1
  Ti  Ti144  1  0.50782996  0.70139820  0.61514066  1
  Ti  Ti145  1  0.00806669  0.78489896  0.49118085  1
  Ti  Ti146  1  0.49340130  0.09519235  0.36836555  1
  Ti  Ti147  1  0.70004098  0.90324198  0.62409879  1
  Ti  Ti148  1  0.21402728  -0.00064979  0.72916299  1
  Ti  Ti149  1  0.01195636  0.79278846  0.25333123  1
  Ti  Ti150  1  0.69689340  0.11294535  0.10778563  1
  Ti  Ti151  1  0.79326446  0.59838971  0.25986667  1
  Ti  Ti152  1  0.59285434  0.60618194  -0.00168383  1
  Ti  Ti153  1  0.49287688  0.29030884  0.37424674  1
  Ti  Ti154  1  0.40351846  0.00320105  0.51586392  1
  Ti  Ti155  1  0.58992741  0.19498151  0.75313574  1
  Ti  Ti156  1  0.90277450  0.88661760  0.88913510  1
  Ti  Ti157  1  0.50112548  0.11999749  0.62618401  1
  Ti  Ti158  1  0.42268946  0.79522122  0.00362724  1
  Ti  Ti159  1  0.19776820  0.20756018  0.26258489  1
  Mo  Mo160  1  0.19409731  0.59765035  0.50020621  1
  Mo  Mo161  1  0.89613835  0.29828206  0.36900919  1
  Mo  Mo162  1  0.40480322  -0.00050377  0.24806072  1
  Mo  Mo163  1  0.39597487  0.19698057  0.25711337  1
  Mo  Mo164  1  0.19224374  0.40681625  0.49590728  1
  Mo  Mo165  1  0.60200241  0.39475002  0.47651419  1
  Mo  Mo166  1  0.20664628  0.01630273  0.01135181  1
  Mo  Mo167  1  0.41467117  0.20822754  0.74760192  1
  Mo  Mo168  1  0.79390182  0.19194295  0.00281579  1
  Mo  Mo169  1  0.31301429  0.10364529  0.61474576  1
  Mo  Mo170  1  0.29943812  0.30469771  0.37751759  1
  Mo  Mo171  1  -0.00017147  0.39317317  0.24644985  1
  Mo  Mo172  1  0.31201440  0.69326319  0.37120962  1
  Mo  Mo173  1  0.79828140  0.79832808  -0.00630653  1
  Mo  Mo174  1  0.69391023  0.90436849  0.37600888  1
  Mo  Mo175  1  0.09728955  0.70603436  0.62453280  1
  Mo  Mo176  1  0.69174428  0.09661352  0.63430266  1
  Mo  Mo177  1  0.69147174  0.29572622  0.37544058  1
  Mo  Mo178  1  0.30760529  0.89819439  0.61548205  1
  Mo  Mo179  1  0.60168839  0.80681483  0.50555714  1
  Mo  Mo180  1  0.39061441  0.19704979  0.00534276  1
  Mo  Mo181  1  0.50009620  0.88648412  0.11298363  1
  Mo  Mo182  1  0.00381545  0.59309935  0.75371962  1
  Mo  Mo183  1  0.59639272  0.19780832  0.00881838  1
  Mo  Mo184  1  0.49372103  0.50585219  0.60346928  1
  Mo  Mo185  1  0.69675206  0.30087603  0.12836997  1
  Mo  Mo186  1  0.29218703  0.30627233  0.88234752  1
  Mo  Mo187  1  0.00578886  0.79149961  0.00629151  1
  Mo  Mo188  1  0.70130762  0.69154783  0.38304121  1
  Mo  Mo189  1  0.29519530  0.92722382  0.86589806  1
  Mo  Mo190  1  0.40707833  0.80914249  0.51246000  1
  Mo  Mo191  1  -0.00159110  0.60142184  0.49217555  1
  Mo  Mo192  1  0.31245678  0.50410949  0.11904175  1
  Mo  Mo193  1  0.00918647  0.79695753  0.74823023  1
  Mo  Mo194  1  0.70002058  0.89893951  0.87436704  1
  Mo  Mo195  1  0.10297443  0.69924213  0.37060701  1
  Mo  Mo196  1  0.69848375  0.69160169  0.12973666  1
  Mo  Mo197  1  0.48737977  0.50931852  0.87755436  1
  Mo  Mo198  1  0.09771327  0.90126654  0.88033317  1
  Mo  Mo199  1  0.10269021  0.70610340  0.10892568  1
