# generated using pymatgen
data_HfZrTaTiMo
_symmetry_space_group_name_H-M   'P 1'
_cell_length_a   15.19385946
_cell_length_b   15.21641470
_cell_length_c   16.86957327
_cell_angle_alpha   90.06108145
_cell_angle_beta   90.00426967
_cell_angle_gamma   89.97227454
_symmetry_Int_Tables_number   1
_chemical_formula_structural   HfZrTaTiMo
_chemical_formula_sum   'Hf40 Zr40 Ta40 Ti40 Mo40'
_cell_volume   3900.17629910
_cell_formula_units_Z   40
loop_
 _symmetry_equiv_pos_site_id
 _symmetry_equiv_pos_as_xyz
  1  'x, y, z'
loop_
 _atom_site_type_symbol
 _atom_site_label
 _atom_site_symmetry_multiplicity
 _atom_site_fract_x
 _atom_site_fract_y
 _atom_site_fract_z
 _atom_site_occupancy
  Hf  Hf0  1  0.89730973  0.50799353  0.60572040  1
  Hf  Hf1  1  0.90253837  0.30992110  0.87345480  1
  Hf  Hf2  1  0.08653338  0.70184620  0.12276051  1
  Hf  Hf3  1  0.19299537  0.40440118  0.48387801  1
  Hf  Hf4  1  0.49802671  0.69338771  0.88995673  1
  Hf  Hf5  1  0.89630338  0.71433589  0.36990806  1
  Hf  Hf6  1  0.31710712  0.29753484  0.10913000  1
  Hf  Hf7  1  0.20633347  0.00269705  0.73693193  1
  Hf  Hf8  1  0.48958975  0.30457977  0.62654698  1
  Hf  Hf9  1  0.40261566  0.80990739  0.75664128  1
  Hf  Hf10  1  0.71133292  0.89925663  0.11425733  1
  Hf  Hf11  1  0.89590298  0.31577931  0.13172121  1
  Hf  Hf12  1  0.79376159  0.41224264  -0.00075219  1
  Hf  Hf13  1  0.39127896  0.81402759  0.00324668  1
  Hf  Hf14  1  0.69051270  0.30445039  0.62246581  1
  Hf  Hf15  1  0.58149708  0.40280753  0.23444464  1
  Hf  Hf16  1  0.40120269  0.20753986  0.24805653  1
  Hf  Hf17  1  0.09902877  0.88783811  0.61996013  1
  Hf  Hf18  1  0.91160878  0.11207243  0.86254448  1
  Hf  Hf19  1  0.79775648  0.20562407  -0.00336197  1
  Hf  Hf20  1  0.40518301  0.60834556  0.50198351  1
  Hf  Hf21  1  0.51620986  0.49965365  0.37984625  1
  Hf  Hf22  1  0.02182949  0.20568394  0.74134641  1
  Hf  Hf23  1  0.88821593  0.70272186  0.13844021  1
  Hf  Hf24  1  -0.00830735  0.20834245  0.26114580  1
  Hf  Hf25  1  0.20327068  0.19889365  0.25119075  1
  Hf  Hf26  1  0.30042346  0.70263585  0.63318407  1
  Hf  Hf27  1  -0.00130888  0.82667975  0.25224769  1
  Hf  Hf28  1  0.89629796  0.89100773  0.63721226  1
  Hf  Hf29  1  0.19032177  0.37326588  0.76824033  1
  Hf  Hf30  1  0.80822301  0.79579209  0.76990290  1
  Hf  Hf31  1  0.08611775  0.09002847  0.13105866  1
  Hf  Hf32  1  0.91454651  0.90656376  0.11488427  1
  Hf  Hf33  1  0.10109702  0.50189059  0.62120838  1
  Hf  Hf34  1  0.00804766  0.01181815  -0.01511013  1
  Hf  Hf35  1  0.69606360  0.90878950  0.63175900  1
  Hf  Hf36  1  0.11458410  0.70256805  0.36972531  1
  Hf  Hf37  1  0.11721746  0.90249104  0.87398754  1
  Hf  Hf38  1  0.19498255  0.38918122  -0.00927361  1
  Hf  Hf39  1  0.21440095  0.39954415  0.25406042  1
  Zr  Zr40  1  0.49785083  0.69491405  0.11279620  1
  Zr  Zr41  1  0.31176742  0.50509885  0.37378436  1
  Zr  Zr42  1  0.30374754  0.87753992  0.36741262  1
  Zr  Zr43  1  -0.00149060  0.19952748  0.50086251  1
  Zr  Zr44  1  -0.00111387  0.41601700  0.27357459  1
  Zr  Zr45  1  0.80338121  0.59995020  0.75220130  1
  Zr  Zr46  1  0.09983900  0.09080352  0.37496949  1
  Zr  Zr47  1  0.39843311  0.39616398  0.76135727  1
  Zr  Zr48  1  0.51815802  0.70101506  0.62706775  1
  Zr  Zr49  1  0.50309438  0.90521489  0.13167118  1
  Zr  Zr50  1  0.60273024  0.79847037  0.76312546  1
  Zr  Zr51  1  0.51235300  0.09784246  0.63035133  1
  Zr  Zr52  1  0.79218360  0.18169362  0.51210440  1
  Zr  Zr53  1  0.79154138  0.40446923  0.74639482  1
  Zr  Zr54  1  0.31056139  0.08239930  0.36744537  1
  Zr  Zr55  1  0.89788547  0.08578594  0.36820759  1
  Zr  Zr56  1  0.60823244  0.59913633  0.24145016  1
  Zr  Zr57  1  0.79828738  0.00486186  -0.01840975  1
  Zr  Zr58  1  0.09712941  0.29713388  0.12181856  1
  Zr  Zr59  1  0.29212628  0.70627942  0.88085806  1
  Zr  Zr60  1  0.88258763  0.10922567  0.13759006  1
  Zr  Zr61  1  0.60978103  -0.00011150  0.24690058  1
  Zr  Zr62  1  0.59560090  0.20583343  0.49454921  1
  Zr  Zr63  1  0.30021305  0.50605965  0.88450548  1
  Zr  Zr64  1  0.09145435  0.49878837  0.12262850  1
  Zr  Zr65  1  0.21710149  -0.00619230  0.51282858  1
  Zr  Zr66  1  0.81945563  0.79591318  -0.02376747  1
  Zr  Zr67  1  0.08314265  0.49741613  0.87709930  1
  Zr  Zr68  1  0.30299994  0.49500955  0.62703441  1
  Zr  Zr69  1  0.50511927  0.48859030  0.89187372  1
  Zr  Zr70  1  0.50316091  0.90132859  0.36497786  1
  Zr  Zr71  1  -0.00773248  0.40789162  0.74566496  1
  Zr  Zr72  1  0.28300476  0.29229130  0.62571417  1
  Zr  Zr73  1  0.70153070  0.70001299  0.11076241  1
  Zr  Zr74  1  0.39296390  0.19417264  0.49334245  1
  Zr  Zr75  1  0.70919490  0.10292596  0.36313196  1
  Zr  Zr76  1  0.09234192  0.89780903  0.39323020  1
  Zr  Zr77  1  0.20010386  -0.01626463  0.23586879  1
  Zr  Zr78  1  0.60476489  0.79873961  0.49569824  1
  Zr  Zr79  1  0.28618290  0.09571571  0.88082492  1
  Ta  Ta80  1  0.69841505  0.68357881  0.89116620  1
  Ta  Ta81  1  0.68403109  0.31620060  0.37338099  1
  Ta  Ta82  1  -0.02370421  0.60329875  -0.00409967  1
  Ta  Ta83  1  0.39613429  0.01324565  0.01467326  1
  Ta  Ta84  1  0.59904826  0.20674526  0.25276353  1
  Ta  Ta85  1  0.49607998  0.10728191  0.88158507  1
  Ta  Ta86  1  0.69998554  0.29399953  0.13243665  1
  Ta  Ta87  1  0.59681209  0.40216588  0.75214313  1
  Ta  Ta88  1  0.49614080  0.90413140  0.62365193  1
  Ta  Ta89  1  0.20506165  0.59860693  0.24395048  1
  Ta  Ta90  1  0.79596137  0.00175387  0.76483567  1
  Ta  Ta91  1  0.18747583  0.60287640  0.00291554  1
  Ta  Ta92  1  0.89635566  0.09462548  0.63966645  1
  Ta  Ta93  1  0.39676868  0.80415824  0.50379566  1
  Ta  Ta94  1  -0.00176226  0.61421088  0.74312748  1
  Ta  Ta95  1  0.48512891  0.30814872  0.37245185  1
  Ta  Ta96  1  0.19328690  0.60122520  0.75156105  1
  Ta  Ta97  1  0.40103112  0.58526764  0.23589642  1
  Ta  Ta98  1  0.00716135  0.60651840  0.49011722  1
  Ta  Ta99  1  0.29383444  0.69323803  0.11446274  1
  Ta  Ta100  1  0.68432607  0.29850009  0.87422451  1
  Ta  Ta101  1  0.39364593  0.19507312  0.75683815  1
  Ta  Ta102  1  0.89761322  0.30496774  0.61282699  1
  Ta  Ta103  1  0.88216835  0.30298210  0.38508458  1
  Ta  Ta104  1  0.60346880  0.59237107  0.75498179  1
  Ta  Ta105  1  0.50414759  0.09893956  0.36761935  1
  Ta  Ta106  1  0.78394962  0.40819030  0.49219224  1
  Ta  Ta107  1  0.20204414  0.78993143  0.23413616  1
  Ta  Ta108  1  0.50850017  0.49852119  0.62257636  1
  Ta  Ta109  1  0.61406539  0.00477395  0.49643306  1
  Ta  Ta110  1  0.19664779  0.79717811  0.74423545  1
  Ta  Ta111  1  -0.02096402  -0.00646570  0.51301387  1
  Ta  Ta112  1  0.40837467  0.60092505  0.75051770  1
  Ta  Ta113  1  0.79147312  0.41675177  0.26429688  1
  Ta  Ta114  1  0.48840617  0.70008652  0.36547130  1
  Ta  Ta115  1  0.79556721  0.20258868  0.74410398  1
  Ta  Ta116  1  0.20136369  0.20014181  0.48947336  1
  Ta  Ta117  1  0.69778594  0.69840654  0.36942294  1
  Ta  Ta118  1  0.20274806  0.60643362  0.49663248  1
  Ta  Ta119  1  0.09801983  0.69868582  0.87854323  1
  Ti  Ti120  1  0.09364526  0.30606704  0.60940786  1
  Ti  Ti121  1  0.30600886  0.49701992  0.11061025  1
  Ti  Ti122  1  0.00604477  -0.00289535  0.75285407  1
  Ti  Ti123  1  0.41491504  -0.00472330  0.50135875  1
  Ti  Ti124  1  -0.00800522  0.39960091  -0.00232277  1
  Ti  Ti125  1  0.59045633  0.37245226  0.01165088  1
  Ti  Ti126  1  0.20651846  -0.01883569  0.01879151  1
  Ti  Ti127  1  0.30830553  0.90623258  0.87775196  1
  Ti  Ti128  1  0.60446681  0.57847408  0.01047488  1
  Ti  Ti129  1  0.80070122  0.61041379  0.49236476  1
  Ti  Ti130  1  0.49976931  0.11670211  0.12040606  1
  Ti  Ti131  1  0.69155194  0.10847862  0.87141741  1
  Ti  Ti132  1  0.20455244  0.78835534  0.50856158  1
  Ti  Ti133  1  0.10523566  0.10447169  0.61725728  1
  Ti  Ti134  1  0.00916293  0.80350526  -0.01238167  1
  Ti  Ti135  1  0.72005909  0.70046494  0.62498041  1
  Ti  Ti136  1  0.81462160  -0.02845613  0.25119171  1
  Ti  Ti137  1  0.71810768  0.89638846  0.37871176  1
  Ti  Ti138  1  0.70732898  0.49718405  0.12642424  1
  Ti  Ti139  1  0.59246263  0.00767568  -0.00349979  1
  Ti  Ti140  1  0.40042143  0.39785614  0.49842219  1
  Ti  Ti141  1  0.19367899  0.17936628  0.00731282  1
  Ti  Ti142  1  0.59476359  0.00125369  0.76204580  1
  Ti  Ti143  1  0.69047743  0.90368437  0.87841817  1
  Ti  Ti144  1  0.40629088  0.00101023  0.75303658  1
  Ti  Ti145  1  -0.00261107  0.60153296  0.26477819  1
  Ti  Ti146  1  0.61221755  0.59771272  0.49739473  1
  Ti  Ti147  1  0.81130222  0.80726610  0.50248944  1
  Ti  Ti148  1  0.69396515  0.10485359  0.12709769  1
  Ti  Ti149  1  0.00549494  0.79458278  0.75647580  1
  Ti  Ti150  1  0.60955288  0.79885081  0.25093425  1
  Ti  Ti151  1  0.69970512  0.49584601  0.87885949  1
  Ti  Ti152  1  0.30946016  0.09797223  0.62651422  1
  Ti  Ti153  1  0.31245906  0.28567268  0.89187083  1
  Ti  Ti154  1  0.69251927  0.50709299  0.62024324  1
  Ti  Ti155  1  0.59829746  0.81133761  -0.00981166  1
  Ti  Ti156  1  0.09700380  0.30304404  0.37926740  1
  Ti  Ti157  1  0.39518930  0.78928886  0.23895318  1
  Ti  Ti158  1  0.89452973  0.51233554  0.13319065  1
  Ti  Ti159  1  0.59577708  0.20177203  0.75228997  1
  Mo  Mo160  1  -0.00002186  0.00189085  0.24791688  1
  Mo  Mo161  1  0.49760488  0.91792761  0.88488094  1
  Mo  Mo162  1  0.79621246  0.59256222  -0.00182376  1
  Mo  Mo163  1  0.50736333  0.29353298  0.12366036  1
  Mo  Mo164  1  0.31238799  0.89997644  0.62652994  1
  Mo  Mo165  1  0.59296684  0.40842563  0.50259684  1
  Mo  Mo166  1  0.79005956  0.22567654  0.25441993  1
  Mo  Mo167  1  0.10184143  0.50995429  0.37385550  1
  Mo  Mo168  1  0.39806457  0.40480744  0.24421261  1
  Mo  Mo169  1  -0.00141869  0.79047511  0.50665764  1
  Mo  Mo170  1  0.50411655  0.28905657  0.87235777  1
  Mo  Mo171  1  0.90708794  0.70228982  0.61454145  1
  Mo  Mo172  1  0.10076312  0.69427656  0.62440167  1
  Mo  Mo173  1  0.20465253  0.19396420  0.74508452  1
  Mo  Mo174  1  0.29837920  0.29762494  0.37683766  1
  Mo  Mo175  1  0.70242840  0.50726154  0.37652783  1
  Mo  Mo176  1  0.30157940  0.09755154  0.12246724  1
  Mo  Mo177  1  0.10576483  0.10036631  0.87310782  1
  Mo  Mo178  1  0.40344649  0.39511115  -0.00511078  1
  Mo  Mo179  1  0.10051597  0.89225059  0.11217672  1
  Mo  Mo180  1  0.89744264  0.50756423  0.39322433  1
  Mo  Mo181  1  0.91181708  0.69360623  0.87399139  1
  Mo  Mo182  1  0.49030737  0.49018383  0.10561643  1
  Mo  Mo183  1  0.00408689  0.20810566  -0.00174171  1
  Mo  Mo184  1  0.09992305  0.27437004  0.88959235  1
  Mo  Mo185  1  0.30357513  0.89330459  0.12998806  1
  Mo  Mo186  1  0.30803214  0.69898777  0.36638574  1
  Mo  Mo187  1  0.40172542  0.00617347  0.22728546  1
  Mo  Mo188  1  -0.00943633  0.40402285  0.48623965  1
  Mo  Mo189  1  0.89548822  0.90135105  0.38575781  1
  Mo  Mo190  1  0.40999075  0.19870309  -0.00217456  1
  Mo  Mo191  1  0.19378720  0.79971712  0.00752561  1
  Mo  Mo192  1  0.89144479  0.50569958  0.87728292  1
  Mo  Mo193  1  0.80499645  0.59691039  0.25793311  1
  Mo  Mo194  1  0.78686997  0.80121444  0.25127140  1
  Mo  Mo195  1  0.39527494  0.59712058  0.01076462  1
  Mo  Mo196  1  0.91380442  0.90467913  0.85780190  1
  Mo  Mo197  1  0.79536487  -0.00751886  0.50870055  1
  Mo  Mo198  1  0.60605383  0.19062877  0.00144897  1
  Mo  Mo199  1  0.70233140  0.09541217  0.64485408  1
