# generated using pymatgen
data_HfZrTaTiMo
_symmetry_space_group_name_H-M   'P 1'
_cell_length_a   15.21465091
_cell_length_b   15.22262556
_cell_length_c   16.83540297
_cell_angle_alpha   89.96833856
_cell_angle_beta   90.06517773
_cell_angle_gamma   90.00966484
_symmetry_Int_Tables_number   1
_chemical_formula_structural   HfZrTaTiMo
_chemical_formula_sum   'Hf40 Zr40 Ta40 Ti40 Mo40'
_cell_volume   3899.19288783
_cell_formula_units_Z   40
loop_
 _symmetry_equiv_pos_site_id
 _symmetry_equiv_pos_as_xyz
  1  'x, y, z'
loop_
 _atom_site_type_symbol
 _atom_site_label
 _atom_site_symmetry_multiplicity
 _atom_site_fract_x
 _atom_site_fract_y
 _atom_site_fract_z
 _atom_site_occupancy
  Hf  Hf0  1  0.80416917  0.60383510  0.25481032  1
  Hf  Hf1  1  0.09610702  0.69500977  0.62704906  1
  Hf  Hf2  1  0.69765604  0.69207084  0.61249668  1
  Hf  Hf3  1  0.30784395  0.49762457  0.11424289  1
  Hf  Hf4  1  0.09048387  0.29752686  0.12517281  1
  Hf  Hf5  1  0.09961861  0.88431261  0.37707234  1
  Hf  Hf6  1  0.20568734  -0.00055846  0.49395520  1
  Hf  Hf7  1  0.50469357  0.30733653  0.13290117  1
  Hf  Hf8  1  0.71051001  0.72072421  0.38239932  1
  Hf  Hf9  1  0.08403657  0.69220512  0.37677840  1
  Hf  Hf10  1  0.68005708  0.69835446  0.12110919  1
  Hf  Hf11  1  0.90923417  0.10503632  0.88724227  1
  Hf  Hf12  1  0.19482435  -0.01761749  0.24994785  1
  Hf  Hf13  1  0.20316615  -0.00601490  0.75396986  1
  Hf  Hf14  1  -0.00662461  -0.00432687  0.49159698  1
  Hf  Hf15  1  0.59425781  0.59289758  0.48746816  1
  Hf  Hf16  1  0.10759672  0.49560177  0.63643250  1
  Hf  Hf17  1  0.61017767  0.21369847  -0.00282152  1
  Hf  Hf18  1  0.88507423  0.70263261  0.88449942  1
  Hf  Hf19  1  0.70320054  0.29032400  0.37001992  1
  Hf  Hf20  1  0.51135414  0.30963565  0.64088198  1
  Hf  Hf21  1  0.50871993  0.90192814  0.88760608  1
  Hf  Hf22  1  0.39314751  0.80466506  0.00726739  1
  Hf  Hf23  1  0.20209349  0.80025100  0.75043385  1
  Hf  Hf24  1  0.38826851  0.60657478  0.25157524  1
  Hf  Hf25  1  0.70074653  0.89921372  0.62258622  1
  Hf  Hf26  1  0.00606600  0.00625417  0.75205804  1
  Hf  Hf27  1  0.69771968  0.30780680  0.86664146  1
  Hf  Hf28  1  0.88751763  0.69764721  0.11654504  1
  Hf  Hf29  1  0.10285262  0.90743339  0.89967996  1
  Hf  Hf30  1  0.21122328  0.40000427  0.50445313  1
  Hf  Hf31  1  0.90713552  0.10231467  0.62983432  1
  Hf  Hf32  1  0.59337696  0.61615936  0.26819758  1
  Hf  Hf33  1  0.39984225  0.79446377  0.75191562  1
  Hf  Hf34  1  -0.00306826  0.39479426  0.75354052  1
  Hf  Hf35  1  0.58326901  0.80973597  0.50040183  1
  Hf  Hf36  1  0.09738726  0.31352025  0.36936397  1
  Hf  Hf37  1  0.30583610  0.10525271  0.62602024  1
  Hf  Hf38  1  0.92373940  0.49754652  0.36594837  1
  Hf  Hf39  1  0.70093440  0.11103008  0.63244786  1
  Zr  Zr40  1  0.20410325  0.19605811  0.25062574  1
  Zr  Zr41  1  0.79547708  0.00617083  0.50073488  1
  Zr  Zr42  1  0.40350480  0.39682030  -0.01267029  1
  Zr  Zr43  1  0.77873328  0.58387870  -0.00194312  1
  Zr  Zr44  1  0.59885037  0.79231423  0.74744775  1
  Zr  Zr45  1  0.89335484  0.70801537  0.63337721  1
  Zr  Zr46  1  0.79372431  0.40077750  0.50097717  1
  Zr  Zr47  1  0.69005494  0.92018965  0.37534182  1
  Zr  Zr48  1  0.21504748  0.19760893  -0.01484879  1
  Zr  Zr49  1  0.77694900  0.59834620  0.76084784  1
  Zr  Zr50  1  0.11271863  0.50022880  0.10390966  1
  Zr  Zr51  1  0.39955812  0.59982229  0.48716722  1
  Zr  Zr52  1  0.90283597  0.48794517  0.12395184  1
  Zr  Zr53  1  0.11520458  0.08707165  0.11405864  1
  Zr  Zr54  1  0.51656788  0.50840605  0.12990335  1
  Zr  Zr55  1  0.08796759  0.10107463  0.36133916  1
  Zr  Zr56  1  0.91777441  0.09371048  0.14529158  1
  Zr  Zr57  1  0.89003180  0.28080066  0.11004740  1
  Zr  Zr58  1  0.40605777  -0.00091643  0.75337054  1
  Zr  Zr59  1  0.39741518  0.00090032  0.24160280  1
  Zr  Zr60  1  0.00383884  0.40481764  0.50989630  1
  Zr  Zr61  1  0.40927662  0.19847651  -0.01662366  1
  Zr  Zr62  1  0.40650763  0.20143118  0.49785131  1
  Zr  Zr63  1  0.81373490  0.60304363  0.48779577  1
  Zr  Zr64  1  0.89777219  0.29777260  0.88157238  1
  Zr  Zr65  1  0.10330608  0.70100215  0.89086869  1
  Zr  Zr66  1  0.88953585  0.90604845  0.87903243  1
  Zr  Zr67  1  0.51027991  0.51155834  0.87947500  1
  Zr  Zr68  1  0.30506927  0.30383070  0.63828347  1
  Zr  Zr69  1  0.60333759  -0.00408229  0.23980112  1
  Zr  Zr70  1  0.81120651  0.38813292  0.25399260  1
  Zr  Zr71  1  -0.01065128  0.81127692  0.01697525  1
  Zr  Zr72  1  0.10611080  0.10343444  0.61946731  1
  Zr  Zr73  1  0.28417266  0.70284284  0.36879744  1
  Zr  Zr74  1  -0.00133459  0.80344801  0.75651177  1
  Zr  Zr75  1  0.30129078  0.29184339  0.12611440  1
  Zr  Zr76  1  0.89562578  0.29887754  0.62967481  1
  Zr  Zr77  1  0.21413835  0.59415435  0.76103833  1
  Zr  Zr78  1  0.00140064  0.80246405  0.23067770  1
  Zr  Zr79  1  0.87672186  0.09995107  0.35271061  1
  Ta  Ta80  1  0.09399656  0.49464770  0.87990400  1
  Ta  Ta81  1  0.30696877  0.69268851  0.89164343  1
  Ta  Ta82  1  0.89576581  0.51033642  0.63502186  1
  Ta  Ta83  1  0.50520739  0.29907214  0.36993129  1
  Ta  Ta84  1  0.70758125  0.09349794  0.87685885  1
  Ta  Ta85  1  0.29834790  0.49378491  0.37107932  1
  Ta  Ta86  1  0.89114578  0.88451708  0.36735084  1
  Ta  Ta87  1  0.20526598  0.19433916  0.76757591  1
  Ta  Ta88  1  0.20336639  0.39458431  0.76729178  1
  Ta  Ta89  1  0.80592428  0.19849824  0.75388157  1
  Ta  Ta90  1  0.10391951  0.28851626  0.63538592  1
  Ta  Ta91  1  -0.00441405  0.59401517  -0.00556461  1
  Ta  Ta92  1  0.60553935  0.01049275  0.00717223  1
  Ta  Ta93  1  0.50145865  0.10693827  0.12155198  1
  Ta  Ta94  1  0.01873316  0.59892804  0.23460678  1
  Ta  Ta95  1  0.60090883  0.19780318  0.25009540  1
  Ta  Ta96  1  0.60447549  0.20279905  0.50420230  1
  Ta  Ta97  1  0.49708981  0.70122536  0.88852830  1
  Ta  Ta98  1  0.50239648  0.30404493  0.85162188  1
  Ta  Ta99  1  0.50647448  0.89755340  0.11485564  1
  Ta  Ta100  1  0.09690805  0.89590002  0.61548907  1
  Ta  Ta101  1  0.29999346  0.69768804  0.62074188  1
  Ta  Ta102  1  0.60781818  -0.00433777  0.75300840  1
  Ta  Ta103  1  0.71199193  0.11053385  0.12569207  1
  Ta  Ta104  1  0.39558787  0.80230393  0.49870530  1
  Ta  Ta105  1  0.20188085  0.41206298  0.24759026  1
  Ta  Ta106  1  0.39712366  0.01032277  0.00309567  1
  Ta  Ta107  1  0.30622702  0.30329410  0.37102844  1
  Ta  Ta108  1  0.30623810  0.09819744  0.37894030  1
  Ta  Ta109  1  0.30686956  0.89598632  0.37528720  1
  Ta  Ta110  1  -0.00642453  0.59488587  0.76382391  1
  Ta  Ta111  1  0.80696669  -0.00054738  0.01445424  1
  Ta  Ta112  1  0.40601091  0.19578548  0.25773711  1
  Ta  Ta113  1  0.30354077  0.89675306  0.61868567  1
  Ta  Ta114  1  0.78587520  0.80944925  0.24122050  1
  Ta  Ta115  1  0.40226457  0.42507169  0.75557616  1
  Ta  Ta116  1  0.19793696  0.79518008  0.50605917  1
  Ta  Ta117  1  -0.00667804  0.20319169  0.49009309  1
  Ta  Ta118  1  0.41127226  -0.00774108  0.50160404  1
  Ta  Ta119  1  0.78633221  0.39096474  0.00304219  1
  Ti  Ti120  1  0.10408476  0.09716334  0.88917596  1
  Ti  Ti121  1  0.68054958  0.69998189  0.89127918  1
  Ti  Ti122  1  0.20668332  0.39500636  -0.02670805  1
  Ti  Ti123  1  0.48987685  0.69420395  0.62152812  1
  Ti  Ti124  1  0.88881566  0.49330688  0.87671720  1
  Ti  Ti125  1  0.69590670  0.30988417  0.13606648  1
  Ti  Ti126  1  0.31782303  0.50645782  0.62790872  1
  Ti  Ti127  1  -0.00053065  0.39394039  -0.00875038  1
  Ti  Ti128  1  0.60981929  0.41507722  0.00149659  1
  Ti  Ti129  1  0.50885482  0.09414655  0.37588592  1
  Ti  Ti130  1  0.79817136  0.20290460  0.49962411  1
  Ti  Ti131  1  0.00323791  0.59681380  0.50522960  1
  Ti  Ti132  1  0.19994058  0.78494781  0.22775707  1
  Ti  Ti133  1  -0.01825616  0.79176527  0.49940901  1
  Ti  Ti134  1  0.49098702  0.70385654  0.11724789  1
  Ti  Ti135  1  0.20079951  0.59569448  0.50421212  1
  Ti  Ti136  1  0.19675800  0.20494817  0.49118828  1
  Ti  Ti137  1  0.70251805  0.89638967  0.11540659  1
  Ti  Ti138  1  0.50283080  0.09841238  0.63456925  1
  Ti  Ti139  1  0.57937197  0.59148572  0.73970876  1
  Ti  Ti140  1  0.70116053  0.89646797  0.88968355  1
  Ti  Ti141  1  0.68588148  0.48765270  0.62453634  1
  Ti  Ti142  1  0.49857810  0.48858012  0.36614102  1
  Ti  Ti143  1  0.40887332  0.40272053  0.49848560  1
  Ti  Ti144  1  0.59640014  0.39409350  0.50033384  1
  Ti  Ti145  1  0.29813684  0.89869849  0.88707169  1
  Ti  Ti146  1  0.60580865  0.19704287  0.75316125  1
  Ti  Ti147  1  0.78925210  0.40314245  0.74429266  1
  Ti  Ti148  1  0.50933530  0.10065515  0.87008165  1
  Ti  Ti149  1  0.78972688  0.80469905  0.75616990  1
  Ti  Ti150  1  0.89923061  0.89916883  0.62612814  1
  Ti  Ti151  1  0.11517576  0.50706351  0.36850020  1
  Ti  Ti152  1  0.69653152  0.49263233  0.36919186  1
  Ti  Ti153  1  0.40183387  0.39743887  0.25352091  1
  Ti  Ti154  1  0.59107009  0.01025138  0.50720687  1
  Ti  Ti155  1  0.28551487  0.68882734  0.10956405  1
  Ti  Ti156  1  0.79872267  -0.00073185  0.75169155  1
  Ti  Ti157  1  0.29041682  0.90575793  0.11695594  1
  Ti  Ti158  1  0.09299143  0.28792195  0.87326396  1
  Ti  Ti159  1  0.41196095  0.80358865  0.24832824  1
  Mo  Mo160  1  0.59205513  0.60247427  0.00409979  1
  Mo  Mo161  1  -0.00131024  -0.01937034  0.25661920  1
  Mo  Mo162  1  0.00244096  0.00734322  0.00449952  1
  Mo  Mo163  1  0.01250350  0.19862184  0.75499071  1
  Mo  Mo164  1  0.49480587  0.71533425  0.37174752  1
  Mo  Mo165  1  0.69971374  0.49964250  0.87191051  1
  Mo  Mo166  1  0.40801526  0.20021966  0.75781224  1
  Mo  Mo167  1  0.01200411  0.40665916  0.24664878  1
  Mo  Mo168  1  0.58823787  0.80438911  0.24705373  1
  Mo  Mo169  1  0.89055807  0.90538861  0.13025516  1
  Mo  Mo170  1  -0.01605052  0.23448115  0.26209949  1
  Mo  Mo171  1  0.49840149  0.50360703  0.62003607  1
  Mo  Mo172  1  0.59793118  0.80533350  0.00047493  1
  Mo  Mo173  1  0.31375354  0.09599038  0.12633679  1
  Mo  Mo174  1  0.20118331  0.79788906  0.01367281  1
  Mo  Mo175  1  0.30681282  0.09043582  0.86723828  1
  Mo  Mo176  1  0.48894184  0.90356847  0.37388935  1
  Mo  Mo177  1  0.40373347  0.61043317  0.74832235  1
  Mo  Mo178  1  0.69938221  0.29773012  0.63207088  1
  Mo  Mo179  1  0.78926668  0.19147808  -0.00135858  1
  Mo  Mo180  1  0.80546627  0.81066552  0.50127179  1
  Mo  Mo181  1  0.90619724  0.70517637  0.36468882  1
  Mo  Mo182  1  0.79668228  -0.00862321  0.23707824  1
  Mo  Mo183  1  0.21519019  -0.00411427  -0.00468833  1
  Mo  Mo184  1  0.00691023  0.19889018  -0.00104653  1
  Mo  Mo185  1  0.90364624  0.29654811  0.38221733  1
  Mo  Mo186  1  0.19756061  0.60002160  0.24223155  1
  Mo  Mo187  1  0.10425462  0.89870092  0.11350336  1
  Mo  Mo188  1  0.78534036  0.80484901  0.00285866  1
  Mo  Mo189  1  0.59860845  0.40244730  0.25861277  1
  Mo  Mo190  1  0.20377024  0.59040616  -0.01578810  1
  Mo  Mo191  1  0.78912044  0.19529313  0.24736928  1
  Mo  Mo192  1  0.30829344  0.30064207  0.85608068  1
  Mo  Mo193  1  0.60620222  0.41065349  0.74570786  1
  Mo  Mo194  1  0.30111347  0.50232927  0.87999586  1
  Mo  Mo195  1  0.10347936  0.69331239  0.10685095  1
  Mo  Mo196  1  0.49605838  0.90674428  0.62587634  1
  Mo  Mo197  1  0.69610464  0.49174598  0.13667303  1
  Mo  Mo198  1  0.68248194  0.10838838  0.37914170  1
  Mo  Mo199  1  0.40120346  0.60253476  0.00662727  1
