# generated using pymatgen
data_HfZrTaTiMo
_symmetry_space_group_name_H-M   'P 1'
_cell_length_a   15.20746016
_cell_length_b   15.21295268
_cell_length_c   16.83869892
_cell_angle_alpha   89.97050939
_cell_angle_beta   89.98102987
_cell_angle_gamma   90.09080706
_symmetry_Int_Tables_number   1
_chemical_formula_structural   HfZrTaTiMo
_chemical_formula_sum   'Hf40 Zr40 Ta40 Ti40 Mo40'
_cell_volume   3895.63363010
_cell_formula_units_Z   40
loop_
 _symmetry_equiv_pos_site_id
 _symmetry_equiv_pos_as_xyz
  1  'x, y, z'
loop_
 _atom_site_type_symbol
 _atom_site_label
 _atom_site_symmetry_multiplicity
 _atom_site_fract_x
 _atom_site_fract_y
 _atom_site_fract_z
 _atom_site_occupancy
  Hf  Hf0  1  0.59945048  0.39293862  0.25738110  1
  Hf  Hf1  1  0.70452068  0.90671026  0.87917778  1
  Hf  Hf2  1  0.42610815  0.39677369  -0.00732448  1
  Hf  Hf3  1  0.89557693  0.30000559  0.37988865  1
  Hf  Hf4  1  0.51032317  0.89867565  0.63999112  1
  Hf  Hf5  1  0.60258652  0.21169933  0.01487583  1
  Hf  Hf6  1  0.30879867  0.09282582  0.88102246  1
  Hf  Hf7  1  0.29323849  0.29772375  0.11558281  1
  Hf  Hf8  1  0.09982598  0.50002595  0.61665852  1
  Hf  Hf9  1  0.20961875  0.02242467  0.24376595  1
  Hf  Hf10  1  0.20467683  0.00502070  0.75024406  1
  Hf  Hf11  1  0.89828656  0.51356727  0.61950478  1
  Hf  Hf12  1  0.81200919  0.79418278  0.24062939  1
  Hf  Hf13  1  0.09738214  0.90028538  0.85981843  1
  Hf  Hf14  1  0.19528782  0.40364531  -0.00671323  1
  Hf  Hf15  1  0.79317398  0.59879115  0.25314722  1
  Hf  Hf16  1  0.29343579  0.50254304  0.13215592  1
  Hf  Hf17  1  0.09187843  0.11555756  0.62863897  1
  Hf  Hf18  1  0.20898682  0.21859887  0.51027875  1
  Hf  Hf19  1  0.40445818  0.59535250  0.26303547  1
  Hf  Hf20  1  0.00059030  0.20113280  0.25245996  1
  Hf  Hf21  1  0.69361658  0.48627597  0.11905268  1
  Hf  Hf22  1  0.19720891  0.60427136  -0.00346145  1
  Hf  Hf23  1  0.60579092  0.79130448  0.24765124  1
  Hf  Hf24  1  0.89922412  0.89802251  0.36974114  1
  Hf  Hf25  1  0.38767892  0.18009617  0.24581389  1
  Hf  Hf26  1  -0.00501128  0.80293752  0.51322073  1
  Hf  Hf27  1  0.08497022  0.71164261  0.13918497  1
  Hf  Hf28  1  0.09382815  0.50062739  0.86254983  1
  Hf  Hf29  1  0.20714535  0.60618249  0.74173721  1
  Hf  Hf30  1  0.28492975  0.49294803  0.38264346  1
  Hf  Hf31  1  0.58658799  0.58953345  -0.00770320  1
  Hf  Hf32  1  0.91465587  0.89868999  0.12034076  1
  Hf  Hf33  1  -0.00070938  0.60632486  0.00483514  1
  Hf  Hf34  1  0.89346686  0.28578465  0.62317810  1
  Hf  Hf35  1  0.79914775  0.62051245  0.74673234  1
  Hf  Hf36  1  0.90219868  0.90605109  0.88422253  1
  Hf  Hf37  1  0.68548777  0.29726341  0.61750991  1
  Hf  Hf38  1  0.38645968  0.38310930  0.25973083  1
  Hf  Hf39  1  0.29438274  0.70574548  0.36516736  1
  Zr  Zr40  1  0.89701835  0.70627661  0.87992798  1
  Zr  Zr41  1  0.41119098  0.80033865  -0.00752920  1
  Zr  Zr42  1  -0.00499817  0.39859395  -0.00378807  1
  Zr  Zr43  1  -0.02945031  0.79649419  0.72978455  1
  Zr  Zr44  1  0.30997611  0.50483648  0.62165221  1
  Zr  Zr45  1  0.09524781  0.70479818  0.85953678  1
  Zr  Zr46  1  0.70182193  0.70495567  0.38943239  1
  Zr  Zr47  1  0.10690879  0.90719139  0.38295847  1
  Zr  Zr48  1  0.50111964  0.69097492  0.85958631  1
  Zr  Zr49  1  0.39959846  -0.01084998  0.50913940  1
  Zr  Zr50  1  0.20725176  0.20474793  0.75333608  1
  Zr  Zr51  1  0.31106450  0.29468429  0.88305662  1
  Zr  Zr52  1  0.40556140  0.78893765  0.50532222  1
  Zr  Zr53  1  0.29554536  0.70269414  0.14392993  1
  Zr  Zr54  1  0.79780252  0.39536464  0.25708939  1
  Zr  Zr55  1  0.60303000  -0.00678329  0.50090898  1
  Zr  Zr56  1  0.41698222  0.37820135  0.75443999  1
  Zr  Zr57  1  -0.01077986  0.20052937  -0.00928023  1
  Zr  Zr58  1  0.49529520  0.48867430  0.13066270  1
  Zr  Zr59  1  0.19319930  -0.00764126  0.00010230  1
  Zr  Zr60  1  0.79598200  0.58867327  -0.01077438  1
  Zr  Zr61  1  0.20752844  0.79959772  0.00224244  1
  Zr  Zr62  1  0.20073130  0.39284713  0.74544399  1
  Zr  Zr63  1  0.70664662  0.10350557  0.37584614  1
  Zr  Zr64  1  -0.00327482  0.19728779  0.49333645  1
  Zr  Zr65  1  0.40163760  0.18221245  0.49410892  1
  Zr  Zr66  1  0.50254829  0.28465605  0.37480658  1
  Zr  Zr67  1  -0.00287441  0.20634857  0.76638547  1
  Zr  Zr68  1  0.72087273  0.09998804  0.61053103  1
  Zr  Zr69  1  0.09216562  0.51428706  0.38427469  1
  Zr  Zr70  1  0.50716144  0.48845705  0.63353517  1
  Zr  Zr71  1  0.49987092  0.07631771  0.36065956  1
  Zr  Zr72  1  0.68612485  0.49060549  0.85677443  1
  Zr  Zr73  1  0.89814699  0.50200762  0.12460163  1
  Zr  Zr74  1  0.09945975  0.71019448  0.37293654  1
  Zr  Zr75  1  0.09498741  0.91113096  0.63116789  1
  Zr  Zr76  1  0.09514353  0.11013874  0.11936167  1
  Zr  Zr77  1  0.11391599  0.31610468  0.37813926  1
  Zr  Zr78  1  0.49864602  0.69756049  0.12488173  1
  Zr  Zr79  1  0.30977849  0.91041448  0.36632052  1
  Ta  Ta80  1  0.61721747  0.01696895  0.75386516  1
  Ta  Ta81  1  0.31541016  0.90382272  0.13502856  1
  Ta  Ta82  1  0.31272081  0.50665247  0.86740246  1
  Ta  Ta83  1  0.69713903  0.49862097  0.39156497  1
  Ta  Ta84  1  0.20714614  0.80760953  0.51875989  1
  Ta  Ta85  1  0.69837581  0.29637512  0.39331382  1
  Ta  Ta86  1  0.59004734  0.39834704  0.49924555  1
  Ta  Ta87  1  0.59369414  0.60053641  0.50521609  1
  Ta  Ta88  1  0.61370132  0.79658162  0.74826589  1
  Ta  Ta89  1  0.50858159  0.90376737  0.86567091  1
  Ta  Ta90  1  0.10566717  0.10271130  0.37712310  1
  Ta  Ta91  1  0.41275908  0.00528955  0.75250904  1
  Ta  Ta92  1  0.71361407  0.90013071  0.63368866  1
  Ta  Ta93  1  0.89611330  0.29390863  0.12734594  1
  Ta  Ta94  1  0.38840659  0.38341070  0.49980479  1
  Ta  Ta95  1  -0.01021711  0.00594734  0.50282138  1
  Ta  Ta96  1  0.00269420  0.40401546  0.24783326  1
  Ta  Ta97  1  0.39087455  0.59640516  -0.00641008  1
  Ta  Ta98  1  0.09030550  0.69356575  0.62571911  1
  Ta  Ta99  1  0.59952203  -0.00124681  0.00376213  1
  Ta  Ta100  1  0.20571742  0.80031290  0.73356232  1
  Ta  Ta101  1  0.49866408  0.68951246  0.63883211  1
  Ta  Ta102  1  0.69945036  0.70255251  0.61637902  1
  Ta  Ta103  1  0.90099403  0.69386829  0.39104674  1
  Ta  Ta104  1  0.89627094  0.50477293  0.39073646  1
  Ta  Ta105  1  0.78774043  0.18357401  0.75870387  1
  Ta  Ta106  1  0.70317344  0.90675178  0.36749199  1
  Ta  Ta107  1  0.40924577  -0.00489843  -0.00207799  1
  Ta  Ta108  1  0.60449836  0.59271635  0.25766669  1
  Ta  Ta109  1  0.50754113  0.89886558  0.12815892  1
  Ta  Ta110  1  0.19035551  0.20488645  -0.01074645  1
  Ta  Ta111  1  0.69885592  0.50268664  0.62710879  1
  Ta  Ta112  1  -0.01396264  0.60896935  0.25123697  1
  Ta  Ta113  1  0.70005470  0.69628144  0.11406212  1
  Ta  Ta114  1  0.40937561  0.19360747  0.00876721  1
  Ta  Ta115  1  0.51270867  0.10633041  0.87857011  1
  Ta  Ta116  1  0.89260650  0.09583131  0.13029368  1
  Ta  Ta117  1  -0.00442937  0.40011254  0.74342117  1
  Ta  Ta118  1  0.00635451  -0.00770107  0.24758947  1
  Ta  Ta119  1  0.20348041  0.01507342  0.50747511  1
  Ti  Ti120  1  0.70435064  0.09729113  0.12937174  1
  Ti  Ti121  1  0.40239802  0.59769712  0.49649467  1
  Ti  Ti122  1  0.50294075  0.69599879  0.37556298  1
  Ti  Ti123  1  0.01423265  0.81249079  0.00212035  1
  Ti  Ti124  1  0.79438113  0.19772130  0.00220846  1
  Ti  Ti125  1  0.69569124  0.71053478  0.88131934  1
  Ti  Ti126  1  0.30826200  0.89481913  0.86560027  1
  Ti  Ti127  1  0.79271501  0.19756758  0.24712713  1
  Ti  Ti128  1  0.49901511  0.09034046  0.12789780  1
  Ti  Ti129  1  0.50610810  0.88580127  0.36282017  1
  Ti  Ti130  1  0.10181485  0.50183983  0.13749170  1
  Ti  Ti131  1  0.70334603  0.90090323  0.12072185  1
  Ti  Ti132  1  0.58981542  0.21133192  0.75196245  1
  Ti  Ti133  1  0.88813356  0.30583965  0.86976588  1
  Ti  Ti134  1  0.59791589  0.80103213  0.50521618  1
  Ti  Ti135  1  0.79705209  0.40057137  0.50497412  1
  Ti  Ti136  1  0.60009075  0.20239503  0.23382661  1
  Ti  Ti137  1  0.18810594  0.82041476  0.24341622  1
  Ti  Ti138  1  0.51192386  0.11034101  0.62985197  1
  Ti  Ti139  1  0.80037741  0.79675497  0.01095564  1
  Ti  Ti140  1  0.31380263  0.10719645  0.63571913  1
  Ti  Ti141  1  0.30542861  0.90454574  0.63216256  1
  Ti  Ti142  1  0.79628250  0.38973958  0.74324976  1
  Ti  Ti143  1  0.49955832  0.49583512  0.38346797  1
  Ti  Ti144  1  0.79920993  0.00745436  0.00669050  1
  Ti  Ti145  1  0.00357148  0.39702323  0.50798322  1
  Ti  Ti146  1  0.79695061  0.81423687  0.50345605  1
  Ti  Ti147  1  0.20505274  0.61570387  0.50991777  1
  Ti  Ti148  1  0.61146615  -0.00275816  0.24142617  1
  Ti  Ti149  1  0.19880668  0.22108765  0.25244763  1
  Ti  Ti150  1  -0.02203471  0.01051349  0.74415223  1
  Ti  Ti151  1  0.89719291  0.49934265  0.85847856  1
  Ti  Ti152  1  0.30145656  0.09682545  0.10741110  1
  Ti  Ti153  1  0.89676774  0.09145264  0.36456256  1
  Ti  Ti154  1  0.78927670  0.38394793  -0.00298404  1
  Ti  Ti155  1  0.69189717  0.29063781  0.87179563  1
  Ti  Ti156  1  0.39662584  0.79548068  0.74618877  1
  Ti  Ti157  1  0.08863298  0.09480250  0.87906078  1
  Ti  Ti158  1  0.30083298  0.70159286  0.86686843  1
  Ti  Ti159  1  0.88241663  0.09571439  0.87917471  1
  Mo  Mo160  1  0.80065232  0.00164958  0.23947270  1
  Mo  Mo161  1  0.18856294  0.59746167  0.25055102  1
  Mo  Mo162  1  0.61114766  0.39583883  -0.00226059  1
  Mo  Mo163  1  0.20274035  0.40299241  0.51410193  1
  Mo  Mo164  1  0.69699496  0.10331352  0.88329619  1
  Mo  Mo165  1  0.89194760  0.70110522  0.11712757  1
  Mo  Mo166  1  0.60987882  0.80593329  0.00308460  1
  Mo  Mo167  1  0.80959214  -0.00428315  0.49165771  1
  Mo  Mo168  1  0.71019245  0.29135256  0.12742584  1
  Mo  Mo169  1  0.51778357  0.29564648  0.87716719  1
  Mo  Mo170  1  0.41235718  0.18296341  0.75183264  1
  Mo  Mo171  1  0.49899998  0.28834597  0.13512398  1
  Mo  Mo172  1  0.49463790  0.28643972  0.61563869  1
  Mo  Mo173  1  0.40113047  0.59905378  0.75384621  1
  Mo  Mo174  1  0.80370479  0.20038638  0.49296945  1
  Mo  Mo175  1  0.09541385  0.31139515  0.13156714  1
  Mo  Mo176  1  0.30306150  0.70619630  0.62358898  1
  Mo  Mo177  1  0.80276518  0.00177023  0.75638149  1
  Mo  Mo178  1  0.49841317  0.49516230  0.86161174  1
  Mo  Mo179  1  0.90027199  0.09595332  0.62860605  1
  Mo  Mo180  1  0.19018618  0.40385777  0.24394911  1
  Mo  Mo181  1  0.79085226  0.80776103  0.74919422  1
  Mo  Mo182  1  -0.00405169  0.59391289  0.74341923  1
  Mo  Mo183  1  0.41007890  -0.00569634  0.23840276  1
  Mo  Mo184  1  -0.00836983  0.00341470  -0.00223974  1
  Mo  Mo185  1  0.09338341  0.30165460  0.87494009  1
  Mo  Mo186  1  0.40824765  0.80143542  0.25331458  1
  Mo  Mo187  1  0.31471851  0.29537267  0.62817305  1
  Mo  Mo188  1  0.88708910  0.91775245  0.61927737  1
  Mo  Mo189  1  0.88539827  0.70562532  0.60757699  1
  Mo  Mo190  1  0.10690339  0.90735021  0.12978898  1
  Mo  Mo191  1  0.09567711  0.30946595  0.62098822  1
  Mo  Mo192  1  -0.00239262  0.80144901  0.25359148  1
  Mo  Mo193  1  0.79321411  0.60028220  0.50440927  1
  Mo  Mo194  1  0.28589177  0.10196289  0.37425685  1
  Mo  Mo195  1  0.61117989  0.39096922  0.74339255  1
  Mo  Mo196  1  0.29720176  0.29685563  0.37316661  1
  Mo  Mo197  1  0.59749779  0.19898332  0.49957723  1
  Mo  Mo198  1  0.60518428  0.60278236  0.73963866  1
  Mo  Mo199  1  -0.00233110  0.60538558  0.50043254  1
