# generated using pymatgen
data_HfZrTaTiMo
_symmetry_space_group_name_H-M   'P 1'
_cell_length_a   15.19246407
_cell_length_b   15.18262914
_cell_length_c   16.79692401
_cell_angle_alpha   89.97485835
_cell_angle_beta   89.97575018
_cell_angle_gamma   90.09551914
_symmetry_Int_Tables_number   1
_chemical_formula_structural   HfZrTaTiMo
_chemical_formula_sum   'Hf40 Zr40 Ta40 Ti40 Mo40'
_cell_volume   3874.39838615
_cell_formula_units_Z   40
loop_
 _symmetry_equiv_pos_site_id
 _symmetry_equiv_pos_as_xyz
  1  'x, y, z'
loop_
 _atom_site_type_symbol
 _atom_site_label
 _atom_site_symmetry_multiplicity
 _atom_site_fract_x
 _atom_site_fract_y
 _atom_site_fract_z
 _atom_site_occupancy
  Hf  Hf0  1  0.18811219  0.00225784  0.00011669  1
  Hf  Hf1  1  0.80265728  0.37716130  0.74571057  1
  Hf  Hf2  1  0.59228781  -0.00524855  0.25269502  1
  Hf  Hf3  1  0.89371434  0.29640818  0.12249288  1
  Hf  Hf4  1  0.47544578  0.49717283  0.37999667  1
  Hf  Hf5  1  0.61038126  0.60613130  0.00107330  1
  Hf  Hf6  1  0.00611584  0.41335944  0.24286136  1
  Hf  Hf7  1  0.50408655  0.90104301  0.62373705  1
  Hf  Hf8  1  0.59652969  0.37754094  0.74649985  1
  Hf  Hf9  1  0.70109286  0.09476956  0.12646233  1
  Hf  Hf10  1  0.30439505  0.91163338  0.38474572  1
  Hf  Hf11  1  0.61565365  0.39376042  0.00259013  1
  Hf  Hf12  1  0.50937451  0.70865163  0.87004033  1
  Hf  Hf13  1  0.29190697  0.28750628  0.89006678  1
  Hf  Hf14  1  0.90475563  0.48397569  0.87314145  1
  Hf  Hf15  1  0.50101777  0.49623663  0.87685393  1
  Hf  Hf16  1  0.59495883  0.59713783  0.24165299  1
  Hf  Hf17  1  0.29285425  0.88864055  0.11484340  1
  Hf  Hf18  1  0.81444682  0.79424787  0.49240514  1
  Hf  Hf19  1  0.01882165  0.60175664  0.75966819  1
  Hf  Hf20  1  0.71352339  0.68812394  0.36618348  1
  Hf  Hf21  1  0.59061027  0.60386281  0.49731587  1
  Hf  Hf22  1  0.19568826  0.40929555  0.74054462  1
  Hf  Hf23  1  0.69750793  0.49686072  0.63131765  1
  Hf  Hf24  1  0.50146738  0.28857507  0.12018855  1
  Hf  Hf25  1  0.19907357  0.39014727  0.50295774  1
  Hf  Hf26  1  0.29223962  0.48918635  0.88625055  1
  Hf  Hf27  1  -0.00161989  0.19721897  0.00230960  1
  Hf  Hf28  1  0.59427942  0.39067159  0.50938250  1
  Hf  Hf29  1  0.89660957  0.10679218  0.87365257  1
  Hf  Hf30  1  0.10046824  0.90746530  0.85932713  1
  Hf  Hf31  1  0.90804369  0.70418925  0.63642056  1
  Hf  Hf32  1  0.49490100  0.29223838  0.37919425  1
  Hf  Hf33  1  0.38720331  0.58190485  0.24583471  1
  Hf  Hf34  1  0.29910509  0.68905220  0.12322408  1
  Hf  Hf35  1  0.60101371  0.79841917  0.25334019  1
  Hf  Hf36  1  0.80641876  0.41150529  0.24722103  1
  Hf  Hf37  1  0.70170469  0.29731382  0.37219641  1
  Hf  Hf38  1  0.80247256  0.59457924  -0.00965698  1
  Hf  Hf39  1  0.30088384  0.88488574  0.88109990  1
  Zr  Zr40  1  0.00040606  0.41917795  0.01152492  1
  Zr  Zr41  1  0.50967761  0.91042193  0.87558523  1
  Zr  Zr42  1  0.22357940  0.41091896  0.25693482  1
  Zr  Zr43  1  0.80373445  0.19190598  0.49306799  1
  Zr  Zr44  1  0.19724965  -0.00217595  0.24665606  1
  Zr  Zr45  1  0.30886292  0.30098651  0.10965906  1
  Zr  Zr46  1  0.20406434  0.79789225  0.26847125  1
  Zr  Zr47  1  0.60242978  0.02285730  0.74888406  1
  Zr  Zr48  1  0.90441905  0.08918480  0.36996823  1
  Zr  Zr49  1  0.51056966  0.12211735  0.60965604  1
  Zr  Zr50  1  0.48543578  0.49179876  0.11331861  1
  Zr  Zr51  1  0.40846574  0.80076580  0.24854626  1
  Zr  Zr52  1  0.19359967  0.01096240  0.50712051  1
  Zr  Zr53  1  0.10275235  0.29723530  0.37350730  1
  Zr  Zr54  1  0.10357513  0.71437669  0.13102606  1
  Zr  Zr55  1  0.80436397  0.19208329  0.24966309  1
  Zr  Zr56  1  0.68943840  0.26932627  0.61509029  1
  Zr  Zr57  1  0.60740853  0.80187827  0.49300848  1
  Zr  Zr58  1  0.40471302  0.00213093  0.00117156  1
  Zr  Zr59  1  0.39104629  0.60098115  0.75548567  1
  Zr  Zr60  1  0.09557025  0.51006553  0.60830217  1
  Zr  Zr61  1  0.69551332  0.70002339  0.64278058  1
  Zr  Zr62  1  0.18739710  0.61380396  -0.01734554  1
  Zr  Zr63  1  0.10048795  0.10239181  0.36959888  1
  Zr  Zr64  1  0.10323895  0.90039879  0.63752106  1
  Zr  Zr65  1  0.81307674  0.80531821  0.25554691  1
  Zr  Zr66  1  0.69291430  0.49262363  0.37371967  1
  Zr  Zr67  1  0.11518315  0.30863228  0.11971233  1
  Zr  Zr68  1  0.33407816  0.69611531  0.39235798  1
  Zr  Zr69  1  0.80407955  0.59446555  0.75925456  1
  Zr  Zr70  1  0.70733660  0.89864990  0.64488999  1
  Zr  Zr71  1  0.09673562  0.09905188  0.12966027  1
  Zr  Zr72  1  0.90405129  0.90233289  0.64989277  1
  Zr  Zr73  1  -0.00123133  0.39637135  0.74131581  1
  Zr  Zr74  1  0.89932601  0.90322125  0.85869085  1
  Zr  Zr75  1  0.09458112  0.30873666  0.88038156  1
  Zr  Zr76  1  0.80008535  -0.00760466  0.50377517  1
  Zr  Zr77  1  0.50247181  0.28942605  0.88896591  1
  Zr  Zr78  1  0.39116903  0.38606807  0.74119590  1
  Zr  Zr79  1  0.90186209  0.69697392  0.12202538  1
  Ta  Ta80  1  0.20217263  0.80321325  0.49566247  1
  Ta  Ta81  1  0.90070751  0.49748024  0.61773206  1
  Ta  Ta82  1  0.30328800  0.11164487  0.62275984  1
  Ta  Ta83  1  0.30502847  0.90070932  0.62087271  1
  Ta  Ta84  1  -0.00100654  0.61258461  -0.01690943  1
  Ta  Ta85  1  -0.00638512  0.00760392  0.51332101  1
  Ta  Ta86  1  0.78732437  -0.00806929  -0.00707005  1
  Ta  Ta87  1  0.19050145  0.59774986  0.27349571  1
  Ta  Ta88  1  0.10913836  0.70364566  0.61605184  1
  Ta  Ta89  1  -0.00964018  0.61226333  0.49295281  1
  Ta  Ta90  1  0.49765412  0.89550646  0.38765603  1
  Ta  Ta91  1  0.49865163  0.69933046  0.63545671  1
  Ta  Ta92  1  0.61660837  0.81120049  -0.00241230  1
  Ta  Ta93  1  0.00485862  0.81204709  0.26019999  1
  Ta  Ta94  1  0.50137817  0.70631314  0.11114503  1
  Ta  Ta95  1  0.30222806  0.70430020  0.61239241  1
  Ta  Ta96  1  0.40298534  0.00406615  0.50424050  1
  Ta  Ta97  1  0.29832226  0.50982670  0.61455280  1
  Ta  Ta98  1  0.79897062  0.59686633  0.50636024  1
  Ta  Ta99  1  0.00483052  0.81082899  0.49626080  1
  Ta  Ta100  1  0.49762378  0.50273797  0.63024096  1
  Ta  Ta101  1  0.80217477  0.79694940  -0.01437367  1
  Ta  Ta102  1  0.08743275  0.50072338  0.38714044  1
  Ta  Ta103  1  0.81046836  0.39465197  0.50494631  1
  Ta  Ta104  1  0.01164865  0.80619108  -0.00639929  1
  Ta  Ta105  1  0.21316274  0.01051382  0.74527348  1
  Ta  Ta106  1  0.39790420  0.60903242  -0.01014765  1
  Ta  Ta107  1  0.20249749  0.60220762  0.48444121  1
  Ta  Ta108  1  0.00135348  0.20604639  0.50881072  1
  Ta  Ta109  1  0.69567802  0.49279705  0.86586080  1
  Ta  Ta110  1  0.39627743  0.19511729  0.25141142  1
  Ta  Ta111  1  -0.01115414  -0.00307781  0.00370464  1
  Ta  Ta112  1  -0.00019126  0.20280374  0.24019830  1
  Ta  Ta113  1  0.39744272  0.80412889  0.74433315  1
  Ta  Ta114  1  0.50702758  0.89868278  0.11404477  1
  Ta  Ta115  1  -0.01047832  0.60833266  0.26293741  1
  Ta  Ta116  1  0.77850321  0.18822102  0.75569093  1
  Ta  Ta117  1  0.69082249  0.09448582  0.36749415  1
  Ta  Ta118  1  0.59079460  0.19585456  0.25320713  1
  Ta  Ta119  1  0.40528844  0.19062164  0.75272787  1
  Ti  Ti120  1  0.39784117  0.18732414  -0.00161367  1
  Ti  Ti121  1  0.09494599  0.70599564  0.38265214  1
  Ti  Ti122  1  -0.01369695  0.21136466  0.74841727  1
  Ti  Ti123  1  0.71411322  0.50266597  0.12756932  1
  Ti  Ti124  1  0.49087034  0.09442920  0.38118016  1
  Ti  Ti125  1  0.30098684  0.11401308  0.38380769  1
  Ti  Ti126  1  0.59875053  0.18118729  0.00072187  1
  Ti  Ti127  1  0.08878031  0.91141519  0.38067943  1
  Ti  Ti128  1  0.20506688  0.60955444  0.75800486  1
  Ti  Ti129  1  0.39821534  0.00072246  0.24834797  1
  Ti  Ti130  1  0.30664166  0.30231215  0.37859743  1
  Ti  Ti131  1  0.29970135  0.09468103  0.87238879  1
  Ti  Ti132  1  0.90823918  0.70799752  0.86636585  1
  Ti  Ti133  1  0.20266103  0.20584221  0.74521030  1
  Ti  Ti134  1  0.79017051  0.20014575  -0.00338041  1
  Ti  Ti135  1  0.89013470  0.10840335  0.63593287  1
  Ti  Ti136  1  0.10669988  0.11019878  0.87031305  1
  Ti  Ti137  1  0.69656758  0.29744662  0.13336871  1
  Ti  Ti138  1  0.49714477  0.09413089  0.12804655  1
  Ti  Ti139  1  0.71045419  0.90807032  0.36950722  1
  Ti  Ti140  1  -0.02087784  -0.00241778  0.23531011  1
  Ti  Ti141  1  0.89658326  0.90106598  0.11682356  1
  Ti  Ti142  1  0.58774777  0.39687943  0.24400092  1
  Ti  Ti143  1  0.70508932  0.89738075  0.12501811  1
  Ti  Ti144  1  0.68594874  0.09460090  0.88299724  1
  Ti  Ti145  1  0.30013792  0.10302848  0.12394434  1
  Ti  Ti146  1  0.00572115  0.02144616  0.74690143  1
  Ti  Ti147  1  0.89249535  0.50753812  0.38294997  1
  Ti  Ti148  1  0.09879608  0.52430505  0.12839898  1
  Ti  Ti149  1  0.20637186  0.79326313  0.74738986  1
  Ti  Ti150  1  0.80144006  0.39436255  -0.00096441  1
  Ti  Ti151  1  0.09929281  0.11164627  0.63091492  1
  Ti  Ti152  1  0.28693445  0.49436251  0.10379769  1
  Ti  Ti153  1  0.91176494  0.30787950  0.37314599  1
  Ti  Ti154  1  0.20716907  0.20285027  0.24890084  1
  Ti  Ti155  1  0.70566227  0.70365670  0.12746991  1
  Ti  Ti156  1  0.09600217  0.29649624  0.62091015  1
  Ti  Ti157  1  0.60743188  0.00618953  0.49675092  1
  Ti  Ti158  1  0.39843880  0.00323530  0.74745218  1
  Ti  Ti159  1  0.39418333  0.39319199  0.51683363  1
  Mo  Mo160  1  0.90839963  0.69650187  0.37580351  1
  Mo  Mo161  1  0.19871603  0.20060221  0.50858589  1
  Mo  Mo162  1  0.20285247  0.18810138  -0.00497747  1
  Mo  Mo163  1  0.60702500  0.00098798  0.00560341  1
  Mo  Mo164  1  0.59331238  0.79840452  0.75283249  1
  Mo  Mo165  1  0.40457374  0.38635257  0.25190363  1
  Mo  Mo166  1  0.01312921  0.79338226  0.75151613  1
  Mo  Mo167  1  0.30578303  0.70566678  0.87201088  1
  Mo  Mo168  1  0.88796589  0.29322342  0.88381977  1
  Mo  Mo169  1  0.59596162  0.18869076  0.47921827  1
  Mo  Mo170  1  0.79703676  -0.00818711  0.24479373  1
  Mo  Mo171  1  0.38674987  0.20116749  0.49439361  1
  Mo  Mo172  1  0.59420495  0.20242741  0.75805181  1
  Mo  Mo173  1  0.70973416  0.29076460  0.88238247  1
  Mo  Mo174  1  0.29260550  0.29290652  0.62700301  1
  Mo  Mo175  1  0.90192202  0.28995528  0.62284919  1
  Mo  Mo176  1  0.90326087  0.50883851  0.12205369  1
  Mo  Mo177  1  0.80297357  0.59641900  0.24207891  1
  Mo  Mo178  1  0.40211633  0.40225599  -0.00361365  1
  Mo  Mo179  1  0.79660022  0.79642422  0.77126869  1
  Mo  Mo180  1  0.29394941  0.49186752  0.39132929  1
  Mo  Mo181  1  0.09999901  0.50665479  0.87165335  1
  Mo  Mo182  1  0.49017476  0.10280916  0.87604161  1
  Mo  Mo183  1  0.59577305  0.59036737  0.75417290  1
  Mo  Mo184  1  0.40400435  0.59429156  0.51492256  1
  Mo  Mo185  1  0.40771469  0.80309733  0.51269218  1
  Mo  Mo186  1  0.70411761  0.09277979  0.62203884  1
  Mo  Mo187  1  0.89166041  0.09013020  0.11278806  1
  Mo  Mo188  1  0.80021981  0.01181274  0.75907594  1
  Mo  Mo189  1  0.19860462  0.80715699  -0.00210869  1
  Mo  Mo190  1  0.50947179  0.69716515  0.37399770  1
  Mo  Mo191  1  0.91213280  0.90259331  0.37665338  1
  Mo  Mo192  1  0.70077802  0.89694043  0.86647505  1
  Mo  Mo193  1  0.10662413  0.71836883  0.86947252  1
  Mo  Mo194  1  0.70268251  0.70329350  0.86841132  1
  Mo  Mo195  1  0.19457256  0.40572425  0.00176894  1
  Mo  Mo196  1  0.08352736  0.89754809  0.12411077  1
  Mo  Mo197  1  0.48584001  0.29704204  0.61880765  1
  Mo  Mo198  1  -0.01019780  0.40013881  0.49910554  1
  Mo  Mo199  1  0.40699012  0.79201513  0.00313925  1
