# generated using pymatgen
data_HfZrTaTiMo
_symmetry_space_group_name_H-M   'P 1'
_cell_length_a   15.19196807
_cell_length_b   15.21498479
_cell_length_c   16.84376316
_cell_angle_alpha   89.99770614
_cell_angle_beta   90.11128235
_cell_angle_gamma   89.85939899
_symmetry_Int_Tables_number   1
_chemical_formula_structural   HfZrTaTiMo
_chemical_formula_sum   'Hf40 Zr40 Ta40 Ti40 Mo40'
_cell_volume   3893.34205090
_cell_formula_units_Z   40
loop_
 _symmetry_equiv_pos_site_id
 _symmetry_equiv_pos_as_xyz
  1  'x, y, z'
loop_
 _atom_site_type_symbol
 _atom_site_label
 _atom_site_symmetry_multiplicity
 _atom_site_fract_x
 _atom_site_fract_y
 _atom_site_fract_z
 _atom_site_occupancy
  Hf  Hf0  1  0.10175312  0.49439132  0.35890378  1
  Hf  Hf1  1  0.30523155  0.70648696  0.37866821  1
  Hf  Hf2  1  0.30260333  0.29982124  0.38417750  1
  Hf  Hf3  1  0.68497639  0.28867676  0.63005617  1
  Hf  Hf4  1  0.90004993  0.91498517  0.87954894  1
  Hf  Hf5  1  0.68712277  0.30953551  0.37848853  1
  Hf  Hf6  1  0.00457045  0.39315200  0.76336254  1
  Hf  Hf7  1  0.21180636  0.37973240  0.23777722  1
  Hf  Hf8  1  0.11177611  0.68668129  0.87509849  1
  Hf  Hf9  1  0.20083354  0.59722271  0.01146433  1
  Hf  Hf10  1  0.32150782  0.71085587  0.12390371  1
  Hf  Hf11  1  -0.00055819  0.00091702  0.75207190  1
  Hf  Hf12  1  0.87768395  0.09970961  0.62790277  1
  Hf  Hf13  1  -0.01144763  0.59329647  0.00479682  1
  Hf  Hf14  1  0.28794078  0.10548431  0.38228811  1
  Hf  Hf15  1  0.51453718  0.50655113  0.11840365  1
  Hf  Hf16  1  0.30186744  0.52104221  0.61608680  1
  Hf  Hf17  1  0.89280400  0.69238255  0.13727141  1
  Hf  Hf18  1  0.41693915  0.60612061  0.26346523  1
  Hf  Hf19  1  0.80606126  0.00681158  0.23484836  1
  Hf  Hf20  1  0.08537417  0.49160597  0.14132797  1
  Hf  Hf21  1  0.91799705  0.49079260  0.62454593  1
  Hf  Hf22  1  0.78905788  0.40061970  0.75275461  1
  Hf  Hf23  1  0.50286411  0.48883611  0.87828549  1
  Hf  Hf24  1  0.49959419  0.90967970  0.62221689  1
  Hf  Hf25  1  0.90198240  0.89898195  0.61859344  1
  Hf  Hf26  1  0.69840341  0.10529671  0.36367323  1
  Hf  Hf27  1  -0.01903452  0.20192679  0.75269616  1
  Hf  Hf28  1  0.09440650  0.09740732  0.88464327  1
  Hf  Hf29  1  0.91190989  0.89799417  0.37153252  1
  Hf  Hf30  1  0.10490542  0.29520316  0.88528802  1
  Hf  Hf31  1  0.70308225  0.09938596  0.88504164  1
  Hf  Hf32  1  0.89259958  0.51588289  0.86050316  1
  Hf  Hf33  1  -0.00075875  0.59610670  0.48942276  1
  Hf  Hf34  1  0.60686081  0.38565484  0.00532456  1
  Hf  Hf35  1  0.31449931  0.50413557  0.12939710  1
  Hf  Hf36  1  0.79693200  0.79271209  0.00817073  1
  Hf  Hf37  1  0.58785676  -0.00010484  0.24238081  1
  Hf  Hf38  1  0.11523519  0.67352788  0.62303290  1
  Hf  Hf39  1  0.09423038  0.71297546  0.36325040  1
  Zr  Zr40  1  0.58710690  0.79409552  0.25660897  1
  Zr  Zr41  1  0.90310604  0.68490977  0.63472191  1
  Zr  Zr42  1  0.48239190  0.69393172  0.61160663  1
  Zr  Zr43  1  0.68594433  0.12194006  0.12313428  1
  Zr  Zr44  1  0.01421298  0.79957603  0.74861250  1
  Zr  Zr45  1  0.09502852  0.09947977  0.62732217  1
  Zr  Zr46  1  0.78989869  0.19473354  0.49719983  1
  Zr  Zr47  1  0.19704134  0.20256434  0.51539322  1
  Zr  Zr48  1  0.69539587  0.90034901  0.36983681  1
  Zr  Zr49  1  0.20240102  0.80212216  0.50765508  1
  Zr  Zr50  1  0.79732867  -0.00456593  0.02128371  1
  Zr  Zr51  1  0.70975931  0.49525980  0.60953666  1
  Zr  Zr52  1  -0.00048274  -0.00260530  0.49979189  1
  Zr  Zr53  1  0.51013524  0.69472818  0.88383512  1
  Zr  Zr54  1  0.39635786  0.00414441  -0.01783453  1
  Zr  Zr55  1  0.10136885  0.29371279  0.37027565  1
  Zr  Zr56  1  0.60388768  0.59741850  0.49387296  1
  Zr  Zr57  1  0.41861438  0.39663876  0.25261589  1
  Zr  Zr58  1  0.71263705  0.68496667  0.86178963  1
  Zr  Zr59  1  0.19730286  0.01141755  0.24576923  1
  Zr  Zr60  1  0.79471514  0.42338049  -0.01270557  1
  Zr  Zr61  1  0.21574352  0.78858476  0.74150100  1
  Zr  Zr62  1  0.89745783  0.29305545  0.36477731  1
  Zr  Zr63  1  0.40039917  0.38188520  -0.00008946  1
  Zr  Zr64  1  0.48476414  0.29335311  0.63101850  1
  Zr  Zr65  1  0.72474345  0.50013744  0.14119997  1
  Zr  Zr66  1  0.29771640  0.11282917  0.86568103  1
  Zr  Zr67  1  0.88730317  0.32018105  0.13022110  1
  Zr  Zr68  1  0.19150583  0.21103194  0.73987538  1
  Zr  Zr69  1  0.39752618  -0.00624961  0.25538248  1
  Zr  Zr70  1  0.10448644  0.70348840  0.14522546  1
  Zr  Zr71  1  0.21061467  0.80806820  0.00299585  1
  Zr  Zr72  1  0.59837561  0.58572228  0.74047698  1
  Zr  Zr73  1  0.81102723  0.78902593  0.49949028  1
  Zr  Zr74  1  0.00539137  0.80556659  0.00832087  1
  Zr  Zr75  1  0.19901485  0.39765510  0.00969821  1
  Zr  Zr76  1  0.59119549  -0.00702178  0.00374447  1
  Zr  Zr77  1  0.90647298  0.70796766  0.86591628  1
  Zr  Zr78  1  0.79521510  0.81937552  0.74083178  1
  Zr  Zr79  1  0.40244613  0.80641590  0.75822209  1
  Ta  Ta80  1  0.89780549  0.11003297  0.89776656  1
  Ta  Ta81  1  0.58300616  0.19363471  0.49855705  1
  Ta  Ta82  1  -0.00448293  0.39921800  -0.00797558  1
  Ta  Ta83  1  0.08339354  0.09878088  0.37774541  1
  Ta  Ta84  1  -0.00270738  0.00082352  0.24125400  1
  Ta  Ta85  1  0.80169451  0.80056850  0.24623608  1
  Ta  Ta86  1  0.70613186  0.69679202  0.37557072  1
  Ta  Ta87  1  0.31986843  0.10497882  0.63223199  1
  Ta  Ta88  1  0.21419141  -0.01137945  0.74192562  1
  Ta  Ta89  1  0.78989992  -0.00315844  0.49564994  1
  Ta  Ta90  1  0.50683814  0.69639438  0.11050099  1
  Ta  Ta91  1  0.20836462  -0.00109637  0.51127809  1
  Ta  Ta92  1  0.38225850  0.19685607  0.24485796  1
  Ta  Ta93  1  0.19845208  -0.00079538  0.00596357  1
  Ta  Ta94  1  0.41484417  0.00462427  0.76282548  1
  Ta  Ta95  1  0.29224478  0.31668984  0.62562663  1
  Ta  Ta96  1  0.67578223  0.30235677  0.86094071  1
  Ta  Ta97  1  0.60008128  0.80442433  0.74056226  1
  Ta  Ta98  1  0.11491052  0.90259307  0.87506402  1
  Ta  Ta99  1  0.19785567  0.42168336  0.75117729  1
  Ta  Ta100  1  0.08910344  0.28663575  0.12361933  1
  Ta  Ta101  1  0.60550617  0.81091793  0.50520988  1
  Ta  Ta102  1  0.90809047  0.11705606  0.10913096  1
  Ta  Ta103  1  0.88591107  0.29390783  0.88290594  1
  Ta  Ta104  1  0.69560705  0.89519337  0.87567436  1
  Ta  Ta105  1  0.57342533  0.19963365  -0.01148108  1
  Ta  Ta106  1  0.89828330  0.49470144  0.36578930  1
  Ta  Ta107  1  0.69200664  0.69276528  0.13260572  1
  Ta  Ta108  1  0.70049222  0.70239636  0.62460304  1
  Ta  Ta109  1  0.18894496  0.41038179  0.50138713  1
  Ta  Ta110  1  0.40475736  0.00962596  0.50118785  1
  Ta  Ta111  1  0.49204646  0.10248083  0.37639226  1
  Ta  Ta112  1  0.31054146  0.69253312  0.88721494  1
  Ta  Ta113  1  0.48932358  0.88568240  0.11928123  1
  Ta  Ta114  1  -0.01001841  0.20701947  0.50267132  1
  Ta  Ta115  1  -0.00273686  0.18948193  0.24441795  1
  Ta  Ta116  1  0.21470916  0.19791795  0.01176998  1
  Ta  Ta117  1  0.60369325  0.59440564  0.26372755  1
  Ta  Ta118  1  0.62034795  -0.00000289  0.74767594  1
  Ta  Ta119  1  0.49983252  0.48684043  0.61340867  1
  Ti  Ti120  1  0.38904764  0.60353923  0.75088771  1
  Ti  Ti121  1  0.81139136  0.40074498  0.49594429  1
  Ti  Ti122  1  0.20567387  0.59806332  0.48484820  1
  Ti  Ti123  1  0.00267857  -0.00225605  0.01162570  1
  Ti  Ti124  1  0.50150919  0.71165108  0.39371246  1
  Ti  Ti125  1  0.60785636  0.39609513  0.24598946  1
  Ti  Ti126  1  0.78254515  0.18718285  0.75473373  1
  Ti  Ti127  1  0.30661702  0.90326328  0.38406484  1
  Ti  Ti128  1  0.89956231  0.69949413  0.36641862  1
  Ti  Ti129  1  0.70913966  0.49865126  0.37882766  1
  Ti  Ti130  1  0.29499687  0.50522415  0.88044199  1
  Ti  Ti131  1  0.79234341  0.20896621  0.24308212  1
  Ti  Ti132  1  0.30722167  0.49735288  0.37511228  1
  Ti  Ti133  1  0.60310639  0.79818744  -0.00151190  1
  Ti  Ti134  1  0.30445537  0.90885137  0.12460219  1
  Ti  Ti135  1  0.49671091  0.28823753  0.12681944  1
  Ti  Ti136  1  0.03017735  0.58205629  0.75251515  1
  Ti  Ti137  1  0.60349731  0.00705109  0.50128549  1
  Ti  Ti138  1  0.39889227  0.40103714  0.49969257  1
  Ti  Ti139  1  0.69129732  0.88761937  0.13195676  1
  Ti  Ti140  1  0.62558248  0.59283747  -0.00377630  1
  Ti  Ti141  1  0.21240831  0.60168554  0.25151250  1
  Ti  Ti142  1  0.10430223  0.89411000  0.62222789  1
  Ti  Ti143  1  0.39707963  0.40872872  0.74940852  1
  Ti  Ti144  1  0.09825698  0.90059504  0.13396197  1
  Ti  Ti145  1  0.49390848  0.29376790  0.38313588  1
  Ti  Ti146  1  0.20853800  0.81212793  0.25127463  1
  Ti  Ti147  1  0.58164984  0.20505089  0.25176861  1
  Ti  Ti148  1  0.30550574  0.30653187  0.86560204  1
  Ti  Ti149  1  0.78150191  0.22198097  0.00418801  1
  Ti  Ti150  1  0.50964467  0.10504667  0.63538826  1
  Ti  Ti151  1  0.08537746  0.31864141  0.62032343  1
  Ti  Ti152  1  0.41003700  0.80917948  -0.01599000  1
  Ti  Ti153  1  0.10711591  0.90404295  0.37424564  1
  Ti  Ti154  1  0.40345513  0.80592879  0.25705211  1
  Ti  Ti155  1  -0.01106352  0.59738795  0.25446318  1
  Ti  Ti156  1  0.51007289  0.48662618  0.38776995  1
  Ti  Ti157  1  0.89102819  0.30093103  0.62300265  1
  Ti  Ti158  1  0.47795906  0.09949460  0.12212699  1
  Ti  Ti159  1  0.10189267  0.10124013  0.11764994  1
  Mo  Mo160  1  0.70029128  0.90692076  0.61697874  1
  Mo  Mo161  1  0.30443423  0.28857188  0.12791699  1
  Mo  Mo162  1  -0.00194552  0.39248984  0.49746048  1
  Mo  Mo163  1  0.30694960  0.91147099  0.62203943  1
  Mo  Mo164  1  0.21747500  0.59523331  0.75694488  1
  Mo  Mo165  1  0.39256003  0.20479896  0.74662994  1
  Mo  Mo166  1  0.29829318  0.90199590  0.87320559  1
  Mo  Mo167  1  0.40273497  0.81174791  0.49681566  1
  Mo  Mo168  1  0.40037195  0.19933748  -0.00089817  1
  Mo  Mo169  1  -0.00073230  0.81039514  0.24609684  1
  Mo  Mo170  1  0.19266640  0.19305161  0.24053433  1
  Mo  Mo171  1  0.39891187  0.59388911  0.47906753  1
  Mo  Mo172  1  0.90194304  0.09724780  0.36713256  1
  Mo  Mo173  1  0.80233908  0.59865432  0.73715616  1
  Mo  Mo174  1  0.80207900  0.00971466  0.75831772  1
  Mo  Mo175  1  0.59561931  0.39026670  0.49729313  1
  Mo  Mo176  1  0.90495717  0.90243003  0.13116574  1
  Mo  Mo177  1  0.79671083  0.60620501  0.26786181  1
  Mo  Mo178  1  0.59165605  0.19070970  0.75736971  1
  Mo  Mo179  1  0.10872204  0.49125438  0.62040247  1
  Mo  Mo180  1  0.10289713  0.49570080  0.88231583  1
  Mo  Mo181  1  0.00905382  0.79667645  0.49875044  1
  Mo  Mo182  1  0.80537945  0.59471548  0.48344728  1
  Mo  Mo183  1  0.39923508  0.19685460  0.50311181  1
  Mo  Mo184  1  0.29920240  0.09726388  0.11950355  1
  Mo  Mo185  1  0.50720824  0.10469867  0.86184668  1
  Mo  Mo186  1  0.40319583  0.59885463  -0.00145528  1
  Mo  Mo187  1  0.79754386  0.60824148  0.00307074  1
  Mo  Mo188  1  -0.00148690  0.20596079  0.00370035  1
  Mo  Mo189  1  0.49468305  0.90344674  0.39328685  1
  Mo  Mo190  1  0.48590351  0.29177802  0.85828933  1
  Mo  Mo191  1  0.90513631  0.50292895  0.13703261  1
  Mo  Mo192  1  0.69347112  0.49579938  0.86853598  1
  Mo  Mo193  1  0.51449231  0.90063032  0.86680838  1
  Mo  Mo194  1  0.79522777  0.40162689  0.26201951  1
  Mo  Mo195  1  0.58918158  0.39812166  0.74725856  1
  Mo  Mo196  1  -0.00183766  0.39584292  0.24844101  1
  Mo  Mo197  1  0.68826978  0.09163829  0.62284669  1
  Mo  Mo198  1  0.30751292  0.70048663  0.61219892  1
  Mo  Mo199  1  0.68481124  0.30005600  0.13268585  1
