# generated using pymatgen
data_HfZrTaTiMo
_symmetry_space_group_name_H-M   'P 1'
_cell_length_a   15.21572216
_cell_length_b   15.20732734
_cell_length_c   16.85119530
_cell_angle_alpha   89.99065220
_cell_angle_beta   90.01161808
_cell_angle_gamma   90.00479923
_symmetry_Int_Tables_number   1
_chemical_formula_structural   HfZrTaTiMo
_chemical_formula_sum   'Hf40 Zr40 Ta40 Ti40 Mo40'
_cell_volume   3899.20581394
_cell_formula_units_Z   40
loop_
 _symmetry_equiv_pos_site_id
 _symmetry_equiv_pos_as_xyz
  1  'x, y, z'
loop_
 _atom_site_type_symbol
 _atom_site_label
 _atom_site_symmetry_multiplicity
 _atom_site_fract_x
 _atom_site_fract_y
 _atom_site_fract_z
 _atom_site_occupancy
  Hf  Hf0  1  0.90159018  0.30930354  0.12771887  1
  Hf  Hf1  1  0.08604245  0.87945436  0.61130172  1
  Hf  Hf2  1  0.09555995  0.30455801  0.86839428  1
  Hf  Hf3  1  0.90088241  0.49104113  0.62789309  1
  Hf  Hf4  1  0.30081670  0.48571064  0.13675825  1
  Hf  Hf5  1  0.78263583  -0.00111734  0.23419839  1
  Hf  Hf6  1  -0.00288568  0.20564057  0.74421876  1
  Hf  Hf7  1  0.49898954  0.50988107  0.13078495  1
  Hf  Hf8  1  0.01186268  -0.01122774  0.00751576  1
  Hf  Hf9  1  0.09953192  0.10031583  0.60810350  1
  Hf  Hf10  1  0.61971086  0.19877163  0.73825612  1
  Hf  Hf11  1  0.90153412  0.29487396  0.39235117  1
  Hf  Hf12  1  0.09741069  0.50532815  0.86616516  1
  Hf  Hf13  1  0.40371938  0.22153317  0.26437614  1
  Hf  Hf14  1  0.29994914  0.30452673  0.60979356  1
  Hf  Hf15  1  0.09562316  0.30246312  0.60819622  1
  Hf  Hf16  1  0.67662324  0.09562126  0.38462581  1
  Hf  Hf17  1  0.10373053  0.10004774  0.87552758  1
  Hf  Hf18  1  0.59014476  0.38933143  0.25767850  1
  Hf  Hf19  1  0.51001436  0.08733919  0.86054877  1
  Hf  Hf20  1  0.30545085  0.09505834  0.86309262  1
  Hf  Hf21  1  0.69789234  0.28524875  0.11447767  1
  Hf  Hf22  1  0.21002136  0.40236421  0.74437525  1
  Hf  Hf23  1  0.78833332  0.19508099  0.25039856  1
  Hf  Hf24  1  0.10667234  0.29017370  0.39654521  1
  Hf  Hf25  1  0.20083193  -0.00372652  0.73913913  1
  Hf  Hf26  1  0.70540213  0.11293940  0.89484321  1
  Hf  Hf27  1  0.11216296  0.10837301  0.12268827  1
  Hf  Hf28  1  0.58992560  0.61695997  0.26043596  1
  Hf  Hf29  1  0.19373676  0.79406495  0.74652308  1
  Hf  Hf30  1  0.52015820  0.50467265  0.63855529  1
  Hf  Hf31  1  0.29715469  0.89432374  0.37889393  1
  Hf  Hf32  1  0.68609604  0.90442641  0.88358871  1
  Hf  Hf33  1  0.30717452  0.68850711  0.14238215  1
  Hf  Hf34  1  0.32342824  0.10386222  0.12711527  1
  Hf  Hf35  1  0.00583162  0.62074664  0.50084605  1
  Hf  Hf36  1  0.80188842  0.40115269  0.25978211  1
  Hf  Hf37  1  0.89285873  0.68330786  0.86823631  1
  Hf  Hf38  1  0.78929897  0.60268716  0.50896575  1
  Hf  Hf39  1  0.50573505  0.49701900  0.85231902  1
  Zr  Zr40  1  0.52008279  0.90697329  0.37866946  1
  Zr  Zr41  1  0.17784390  0.80303070  0.01233008  1
  Zr  Zr42  1  0.78498219  0.78161000  -0.00585673  1
  Zr  Zr43  1  0.41980759  0.01712373  0.26212388  1
  Zr  Zr44  1  0.38175816  0.79362498  0.00220038  1
  Zr  Zr45  1  -0.00990672  0.40521805  -0.00164968  1
  Zr  Zr46  1  0.71162550  0.89901304  0.38347588  1
  Zr  Zr47  1  0.00568023  0.60600996  0.00423375  1
  Zr  Zr48  1  0.51797819  0.29788263  0.86473164  1
  Zr  Zr49  1  0.88499377  0.10334425  0.10365480  1
  Zr  Zr50  1  0.69302664  0.29595611  0.38853943  1
  Zr  Zr51  1  0.89663376  0.50773052  0.38186904  1
  Zr  Zr52  1  0.49601817  0.29969866  0.12066591  1
  Zr  Zr53  1  0.22024261  -0.00134370  0.00553204  1
  Zr  Zr54  1  0.21722665  0.60081764  0.00024330  1
  Zr  Zr55  1  0.60219085  0.60633250  -0.00996457  1
  Zr  Zr56  1  0.88376507  0.09292222  0.38502182  1
  Zr  Zr57  1  -0.00302907  0.60517372  0.25519246  1
  Zr  Zr58  1  0.30571919  0.68525992  0.36924953  1
  Zr  Zr59  1  0.50623663  0.30627683  0.62028720  1
  Zr  Zr60  1  0.30782548  0.89081941  0.61465247  1
  Zr  Zr61  1  0.58457798  0.81191956  0.74857509  1
  Zr  Zr62  1  0.49844697  0.91566184  0.11458134  1
  Zr  Zr63  1  -0.00575195  -0.01034477  0.23456363  1
  Zr  Zr64  1  0.79274795  0.00589638  0.75128281  1
  Zr  Zr65  1  0.00051422  0.19979468  0.25291260  1
  Zr  Zr66  1  0.40957794  0.19094473  -0.00987973  1
  Zr  Zr67  1  0.48416194  0.69960911  0.87429337  1
  Zr  Zr68  1  0.81090300  0.80027523  0.51585064  1
  Zr  Zr69  1  0.11011001  0.31062869  0.12667650  1
  Zr  Zr70  1  0.08570132  0.08783881  0.39110863  1
  Zr  Zr71  1  0.42021327  0.79570594  0.25650513  1
  Zr  Zr72  1  0.29602111  0.11011242  0.39202009  1
  Zr  Zr73  1  0.11035819  0.50643298  0.62185501  1
  Zr  Zr74  1  0.19896971  0.00032964  0.25378189  1
  Zr  Zr75  1  0.40359946  0.40910398  -0.00751394  1
  Zr  Zr76  1  -0.01006456  0.79783708  0.75619358  1
  Zr  Zr77  1  0.79676365  0.80174978  0.24165444  1
  Zr  Zr78  1  -0.00691558  -0.00101549  0.74658372  1
  Zr  Zr79  1  0.80186930  0.57458067  -0.00087215  1
  Ta  Ta80  1  0.89558829  0.90084873  0.89032120  1
  Ta  Ta81  1  0.80848385  0.20851760  0.74075150  1
  Ta  Ta82  1  0.59721054  0.00963353  0.52084763  1
  Ta  Ta83  1  0.20013220  -0.01199189  0.50256093  1
  Ta  Ta84  1  0.60099540  0.80001674  0.51371101  1
  Ta  Ta85  1  0.30356520  0.09937790  0.61769615  1
  Ta  Ta86  1  0.89447499  0.47297621  0.85017072  1
  Ta  Ta87  1  0.72607386  0.31281487  0.87694516  1
  Ta  Ta88  1  0.30942899  0.50918359  0.86613314  1
  Ta  Ta89  1  0.78713247  0.19516095  0.51907252  1
  Ta  Ta90  1  0.49760896  0.09379750  0.63718223  1
  Ta  Ta91  1  0.20936260  0.39267481  0.26708279  1
  Ta  Ta92  1  0.39597450  0.20267386  0.74280559  1
  Ta  Ta93  1  0.09869990  0.89938220  0.87503159  1
  Ta  Ta94  1  0.69380083  0.90360358  0.63238913  1
  Ta  Ta95  1  0.90870883  0.89860286  0.37662427  1
  Ta  Ta96  1  0.70039261  0.49488494  0.13389368  1
  Ta  Ta97  1  0.01282817  0.40517168  0.26333527  1
  Ta  Ta98  1  0.90065511  0.10482777  0.88783056  1
  Ta  Ta99  1  0.30384491  0.31229356  0.39912178  1
  Ta  Ta100  1  0.40853713  0.79272414  0.49390394  1
  Ta  Ta101  1  0.40223359  0.42252892  0.50224498  1
  Ta  Ta102  1  0.89639083  0.69741916  0.12404847  1
  Ta  Ta103  1  0.20360320  0.40043565  -0.00930115  1
  Ta  Ta104  1  0.79488274  0.59777117  0.73657786  1
  Ta  Ta105  1  0.19446333  0.58966417  0.25431107  1
  Ta  Ta106  1  0.70366509  0.50181328  0.85592090  1
  Ta  Ta107  1  0.18749458  0.79767207  0.24873048  1
  Ta  Ta108  1  0.30538638  0.30495693  0.86364912  1
  Ta  Ta109  1  0.59186979  0.60462387  0.49471689  1
  Ta  Ta110  1  0.61652947  0.40634927  -0.00470514  1
  Ta  Ta111  1  0.29910316  0.89175453  0.86991981  1
  Ta  Ta112  1  0.20325301  0.60750515  0.75141133  1
  Ta  Ta113  1  0.69273546  0.69673991  0.12764937  1
  Ta  Ta114  1  0.79136683  0.60230856  0.25060875  1
  Ta  Ta115  1  0.39191821  0.60171491  0.73535524  1
  Ta  Ta116  1  0.20884673  0.21045913  -0.00715886  1
  Ta  Ta117  1  0.40381383  0.60548810  0.51190845  1
  Ta  Ta118  1  0.50661692  0.70848566  0.11474942  1
  Ta  Ta119  1  0.50200537  0.30215101  0.39915367  1
  Ti  Ti120  1  0.21429209  0.58511486  0.49786632  1
  Ti  Ti121  1  0.70003249  0.32127740  0.61775692  1
  Ti  Ti122  1  0.20232755  0.19874953  0.74168353  1
  Ti  Ti123  1  0.10175227  0.49903481  0.13152327  1
  Ti  Ti124  1  0.00225225  0.41175806  0.49395946  1
  Ti  Ti125  1  0.40836900  -0.01698280  0.74246039  1
  Ti  Ti126  1  0.59124199  0.17352973  0.24532244  1
  Ti  Ti127  1  0.48987656  0.90348533  0.89105615  1
  Ti  Ti128  1  0.69387009  0.70811506  0.37611843  1
  Ti  Ti129  1  0.89709682  0.88691004  0.10467459  1
  Ti  Ti130  1  0.68895562  0.90116979  0.10453189  1
  Ti  Ti131  1  0.90061353  0.29998412  0.60920421  1
  Ti  Ti132  1  0.79314456  -0.00257426  0.51681986  1
  Ti  Ti133  1  0.79333344  0.79919010  0.75161247  1
  Ti  Ti134  1  0.11238835  0.49985751  0.38225865  1
  Ti  Ti135  1  -0.00246114  0.80273447  0.24705460  1
  Ti  Ti136  1  0.68777271  0.50293384  0.37583115  1
  Ti  Ti137  1  0.78891449  0.40727022  0.49913901  1
  Ti  Ti138  1  0.40754577  -0.00154636  0.49874295  1
  Ti  Ti139  1  0.49397982  0.70848471  0.62897990  1
  Ti  Ti140  1  0.00378418  0.59853392  0.74283111  1
  Ti  Ti141  1  0.89345243  0.71091419  0.37411556  1
  Ti  Ti142  1  0.41218311  0.19242991  0.50480419  1
  Ti  Ti143  1  0.28980449  0.69209471  0.61731306  1
  Ti  Ti144  1  0.68738508  0.69341351  0.63505570  1
  Ti  Ti145  1  0.10012682  0.70464793  0.87832606  1
  Ti  Ti146  1  0.90119526  0.50226802  0.13756182  1
  Ti  Ti147  1  0.09371557  0.70175815  0.13205591  1
  Ti  Ti148  1  0.29581894  0.89762681  0.13806577  1
  Ti  Ti149  1  0.29772309  0.29783070  0.12601700  1
  Ti  Ti150  1  0.20473556  0.20277221  0.25809984  1
  Ti  Ti151  1  0.09488291  0.88960383  0.38533343  1
  Ti  Ti152  1  0.48563397  0.50733867  0.37294272  1
  Ti  Ti153  1  0.09787570  0.70314694  0.36969862  1
  Ti  Ti154  1  0.91015420  0.70703058  0.63099506  1
  Ti  Ti155  1  0.89671559  0.09852546  0.61935936  1
  Ti  Ti156  1  0.38565346  0.79462780  0.74976422  1
  Ti  Ti157  1  -0.01778696  -0.01454596  0.50902242  1
  Ti  Ti158  1  0.00644468  0.20624340  -0.00240320  1
  Ti  Ti159  1  0.19366546  0.78054564  0.49696181  1
  Mo  Mo160  1  0.29094975  0.69957113  0.86811696  1
  Mo  Mo161  1  0.20577964  0.19311736  0.50500774  1
  Mo  Mo162  1  0.59297622  0.79789971  -0.00401521  1
  Mo  Mo163  1  0.51711854  0.10793596  0.11692773  1
  Mo  Mo164  1  0.69780453  0.69601681  0.85441645  1
  Mo  Mo165  1  0.10255556  0.69398002  0.62415072  1
  Mo  Mo166  1  0.68593373  0.09283887  0.10348228  1
  Mo  Mo167  1  -0.00102134  0.39703325  0.74269814  1
  Mo  Mo168  1  0.61100786  0.80763733  0.24169977  1
  Mo  Mo169  1  0.59205070  0.00699498  -0.00125485  1
  Mo  Mo170  1  0.00170242  0.79950861  0.49182340  1
  Mo  Mo171  1  0.60458600  0.21165165  -0.00926562  1
  Mo  Mo172  1  0.81226651  0.21194914  -0.00279385  1
  Mo  Mo173  1  0.62123874  0.40003802  0.74972585  1
  Mo  Mo174  1  0.31102033  0.50378743  0.62876109  1
  Mo  Mo175  1  0.40230087  0.39672211  0.75019514  1
  Mo  Mo176  1  0.20356078  0.40800798  0.49619182  1
  Mo  Mo177  1  0.39784572  0.59236017  -0.00144653  1
  Mo  Mo178  1  0.39877621  0.39938017  0.26532867  1
  Mo  Mo179  1  -0.00838834  0.79561333  -0.00527195  1
  Mo  Mo180  1  0.70067174  0.50249090  0.62422437  1
  Mo  Mo181  1  0.39700359  -0.00232283  -0.00732135  1
  Mo  Mo182  1  0.59689037  0.20288974  0.52013687  1
  Mo  Mo183  1  0.40162036  0.59524158  0.25157833  1
  Mo  Mo184  1  0.50979110  0.70215194  0.38555499  1
  Mo  Mo185  1  0.70087619  0.10568753  0.62594282  1
  Mo  Mo186  1  0.30313530  0.49889256  0.37190303  1
  Mo  Mo187  1  0.88939783  0.89922241  0.62929154  1
  Mo  Mo188  1  0.09670682  0.89344794  0.13358251  1
  Mo  Mo189  1  0.50336313  0.11111544  0.38686059  1
  Mo  Mo190  1  0.80108059  -0.00528997  -0.00031080  1
  Mo  Mo191  1  0.90136363  0.28839511  0.87402386  1
  Mo  Mo192  1  0.80338251  0.38832981  0.73631183  1
  Mo  Mo193  1  0.60751140  -0.00304770  0.24321949  1
  Mo  Mo194  1  -0.01272478  0.19459396  0.50795893  1
  Mo  Mo195  1  0.79818474  0.40353607  0.00214295  1
  Mo  Mo196  1  0.60462575  0.61258319  0.75001230  1
  Mo  Mo197  1  0.49637873  0.89880426  0.61541363  1
  Mo  Mo198  1  0.59697041  -0.00038016  0.74200729  1
  Mo  Mo199  1  0.59952072  0.41812049  0.49028607  1
