# generated using pymatgen
data_HfZrTaTiMo
_symmetry_space_group_name_H-M   'P 1'
_cell_length_a   15.22692267
_cell_length_b   15.20071123
_cell_length_c   16.84231319
_cell_angle_alpha   89.99233264
_cell_angle_beta   90.03035807
_cell_angle_gamma   90.01381028
_symmetry_Int_Tables_number   1
_chemical_formula_structural   HfZrTaTiMo
_chemical_formula_sum   'Hf40 Zr40 Ta40 Ti40 Mo40'
_cell_volume   3898.32203237
_cell_formula_units_Z   40
loop_
 _symmetry_equiv_pos_site_id
 _symmetry_equiv_pos_as_xyz
  1  'x, y, z'
loop_
 _atom_site_type_symbol
 _atom_site_label
 _atom_site_symmetry_multiplicity
 _atom_site_fract_x
 _atom_site_fract_y
 _atom_site_fract_z
 _atom_site_occupancy
  Hf  Hf0  1  0.08782646  0.90396824  0.11510816  1
  Hf  Hf1  1  0.19271341  0.00527908  0.24882033  1
  Hf  Hf2  1  -0.00252249  0.19822518  0.23502229  1
  Hf  Hf3  1  0.69540530  0.08867580  0.11913778  1
  Hf  Hf4  1  0.20428833  0.40282549  0.24827325  1
  Hf  Hf5  1  0.62212258  0.00014593  0.48523330  1
  Hf  Hf6  1  0.79903990  0.80717933  0.49197456  1
  Hf  Hf7  1  0.41157771  -0.00325318  0.74503829  1
  Hf  Hf8  1  0.59209642  0.79058053  0.48360176  1
  Hf  Hf9  1  0.17877084  0.19673265  0.49915731  1
  Hf  Hf10  1  0.59206631  0.19877252  0.25937246  1
  Hf  Hf11  1  -0.00085517  0.62099982  0.24094070  1
  Hf  Hf12  1  0.39933757  0.00015237  0.25207098  1
  Hf  Hf13  1  0.29963771  0.51437060  0.62903215  1
  Hf  Hf14  1  0.29339516  0.09772435  0.62876430  1
  Hf  Hf15  1  0.09633487  0.91483790  0.38809819  1
  Hf  Hf16  1  0.39289355  0.20462610  0.25881252  1
  Hf  Hf17  1  0.28823047  0.10063837  0.11212328  1
  Hf  Hf18  1  0.79266900  0.79840046  -0.00906217  1
  Hf  Hf19  1  0.80327418  0.20189307  0.25322018  1
  Hf  Hf20  1  0.29666464  0.89922552  0.11107112  1
  Hf  Hf21  1  0.80246460  0.00286956  0.76108733  1
  Hf  Hf22  1  0.39650397  0.41184589  0.49445187  1
  Hf  Hf23  1  0.28868940  0.69395102  0.88857206  1
  Hf  Hf24  1  -0.00869015  0.00821287  0.51788427  1
  Hf  Hf25  1  -0.00443485  0.80078376  0.75213384  1
  Hf  Hf26  1  0.38528099  0.20700111  -0.01042786  1
  Hf  Hf27  1  0.79644223  -0.00267484  0.26444274  1
  Hf  Hf28  1  0.19423641  0.19999892  0.25541236  1
  Hf  Hf29  1  0.69829760  0.69789795  0.61408184  1
  Hf  Hf30  1  0.00123245  0.58886889  0.74596317  1
  Hf  Hf31  1  0.00977895  0.58474518  0.50904695  1
  Hf  Hf32  1  0.81422200  0.79289002  0.26700487  1
  Hf  Hf33  1  0.50749837  0.89950000  0.61663314  1
  Hf  Hf34  1  0.29203361  0.89062820  0.38022361  1
  Hf  Hf35  1  0.28988642  0.09526612  0.38846890  1
  Hf  Hf36  1  0.60599667  0.19182300  0.74404802  1
  Hf  Hf37  1  0.11001961  0.30343095  0.10771183  1
  Hf  Hf38  1  0.79630023  0.42260103  0.01803192  1
  Hf  Hf39  1  0.69956741  0.10583010  0.88790225  1
  Zr  Zr40  1  0.28577402  0.10660929  0.86616121  1
  Zr  Zr41  1  0.31125021  0.49617390  0.12331585  1
  Zr  Zr42  1  0.70837685  0.49515307  0.60034039  1
  Zr  Zr43  1  0.81440009  0.39821734  0.74134197  1
  Zr  Zr44  1  0.82573942  0.38101720  0.48850195  1
  Zr  Zr45  1  0.90580836  0.49715294  0.88246071  1
  Zr  Zr46  1  0.50545268  0.30243105  0.61029030  1
  Zr  Zr47  1  0.63197942  0.59274030  -0.00621854  1
  Zr  Zr48  1  0.28956826  0.30369256  0.61994061  1
  Zr  Zr49  1  -0.01439317  0.40932419  0.22440246  1
  Zr  Zr50  1  0.49424877  0.10198167  0.12268967  1
  Zr  Zr51  1  0.29879125  0.89797197  0.86739719  1
  Zr  Zr52  1  0.41490781  0.80401824  -0.00767595  1
  Zr  Zr53  1  0.08940751  0.70221611  0.10285276  1
  Zr  Zr54  1  0.40462785  0.60043276  0.76580817  1
  Zr  Zr55  1  0.51185806  0.68202735  0.13623750  1
  Zr  Zr56  1  0.58872151  0.21161445  0.00464245  1
  Zr  Zr57  1  0.42142968  0.59142507  -0.00602862  1
  Zr  Zr58  1  0.39491666  0.79125931  0.25230834  1
  Zr  Zr59  1  0.11063249  0.69250570  0.62790587  1
  Zr  Zr60  1  0.49319052  0.30231456  0.86703029  1
  Zr  Zr61  1  0.18333826  0.79729843  0.24609002  1
  Zr  Zr62  1  0.52469084  0.49391800  0.87062310  1
  Zr  Zr63  1  0.09490955  0.50959316  0.36469781  1
  Zr  Zr64  1  0.07568107  0.30196527  0.37360553  1
  Zr  Zr65  1  -0.00336437  0.20137969  -0.00700208  1
  Zr  Zr66  1  0.69953064  0.32990769  0.88518777  1
  Zr  Zr67  1  0.29683421  0.69889643  0.10812189  1
  Zr  Zr68  1  0.68805093  0.50882964  0.15834575  1
  Zr  Zr69  1  0.50945912  0.51021900  0.61667146  1
  Zr  Zr70  1  0.18340375  0.41540337  0.50202012  1
  Zr  Zr71  1  0.68550845  0.30868239  0.13569561  1
  Zr  Zr72  1  0.49908849  0.69937578  0.62930918  1
  Zr  Zr73  1  0.89677667  0.08866381  0.11516001  1
  Zr  Zr74  1  0.71352329  0.70468288  0.14074281  1
  Zr  Zr75  1  0.61235452  0.40106157  0.73697708  1
  Zr  Zr76  1  -0.00566516  0.81360087  -0.02715070  1
  Zr  Zr77  1  0.10871350  0.71141936  0.38609258  1
  Zr  Zr78  1  -0.01302583  0.19783519  0.76371006  1
  Zr  Zr79  1  0.39661611  0.20529799  0.74457984  1
  Ta  Ta80  1  0.19687723  0.40291482  0.75294632  1
  Ta  Ta81  1  -0.00226761  -0.00444510  0.25073954  1
  Ta  Ta82  1  0.19799136  0.59264493  0.76369864  1
  Ta  Ta83  1  0.79703568  0.79767163  0.74715413  1
  Ta  Ta84  1  0.88174862  0.68845653  0.86642908  1
  Ta  Ta85  1  0.60443302  0.80921037  0.74927495  1
  Ta  Ta86  1  0.50114991  0.09000756  0.87590880  1
  Ta  Ta87  1  0.49799565  0.30235092  0.38835921  1
  Ta  Ta88  1  0.60255627  0.79718902  -0.00122208  1
  Ta  Ta89  1  0.79524561  0.17458862  0.48358677  1
  Ta  Ta90  1  0.30810506  0.29836829  0.12367262  1
  Ta  Ta91  1  0.71725087  0.27696069  0.61175738  1
  Ta  Ta92  1  0.39846489  -0.00514269  0.50563283  1
  Ta  Ta93  1  0.30566848  0.70618667  0.63301211  1
  Ta  Ta94  1  0.59855890  -0.00436811  0.26319777  1
  Ta  Ta95  1  0.08788802  0.10864917  0.63606588  1
  Ta  Ta96  1  0.09903999  0.09551860  0.10698424  1
  Ta  Ta97  1  0.81151474  0.59638891  0.48425232  1
  Ta  Ta98  1  0.70221398  0.49154265  0.37638851  1
  Ta  Ta99  1  0.60214884  0.80373922  0.26625742  1
  Ta  Ta100  1  0.89406258  0.88864133  0.12558968  1
  Ta  Ta101  1  0.19631464  -0.00412387  0.51793982  1
  Ta  Ta102  1  0.29708177  0.30498158  0.38405130  1
  Ta  Ta103  1  -0.00264808  0.80369953  0.51878158  1
  Ta  Ta104  1  0.38843616  0.79695895  0.49714793  1
  Ta  Ta105  1  0.71501166  0.91123870  0.62350003  1
  Ta  Ta106  1  0.90822155  0.90146992  0.38213944  1
  Ta  Ta107  1  0.51097012  0.89719206  0.12921919  1
  Ta  Ta108  1  0.89329565  0.69310608  0.62174398  1
  Ta  Ta109  1  0.40721524  0.61358397  0.48584005  1
  Ta  Ta110  1  0.79880412  0.21061109  0.00622962  1
  Ta  Ta111  1  -0.01982200  0.21070109  0.50800470  1
  Ta  Ta112  1  0.60412543  0.19677534  0.49239905  1
  Ta  Ta113  1  0.87354567  0.10238647  0.62587918  1
  Ta  Ta114  1  0.18501101  -0.01132039  -0.01638410  1
  Ta  Ta115  1  0.01281155  0.39006320  0.75622696  1
  Ta  Ta116  1  0.59787546  -0.01592910  -0.00375162  1
  Ta  Ta117  1  0.40431759  0.00007661  -0.00797073  1
  Ta  Ta118  1  0.29802388  0.48242005  0.88411224  1
  Ta  Ta119  1  0.49350780  0.90151267  0.37969601  1
  Ti  Ti120  1  0.69859188  0.29613065  0.37691566  1
  Ti  Ti121  1  -0.00937931  -0.00329855  0.74792290  1
  Ti  Ti122  1  0.29973524  0.89420581  0.63323884  1
  Ti  Ti123  1  0.91805811  0.69831564  0.38646657  1
  Ti  Ti124  1  0.40920953  0.39941668  0.25959314  1
  Ti  Ti125  1  0.81087686  -0.00643612  -0.01418010  1
  Ti  Ti126  1  0.60588896  -0.00006522  0.74809609  1
  Ti  Ti127  1  0.08567885  0.08837531  0.87624035  1
  Ti  Ti128  1  0.80584180  0.39723776  0.25816973  1
  Ti  Ti129  1  0.90157492  0.30738065  0.88972334  1
  Ti  Ti130  1  0.62507837  0.60834342  0.75514369  1
  Ti  Ti131  1  0.91478580  0.48390331  0.62211332  1
  Ti  Ti132  1  0.20607971  0.60328469  0.24162976  1
  Ti  Ti133  1  0.18838595  0.58126511  0.00243434  1
  Ti  Ti134  1  0.41177472  0.39614594  0.00342219  1
  Ti  Ti135  1  0.19752310  0.79356927  0.75477431  1
  Ti  Ti136  1  0.39499673  0.40341833  0.74747246  1
  Ti  Ti137  1  0.09286448  0.68940497  0.88280123  1
  Ti  Ti138  1  0.08329108  0.30845464  0.62549533  1
  Ti  Ti139  1  0.69651173  0.68764692  0.37332038  1
  Ti  Ti140  1  0.51080805  0.50316435  0.37920169  1
  Ti  Ti141  1  0.11436489  0.30611568  0.89306826  1
  Ti  Ti142  1  0.49619792  0.09917911  0.38473621  1
  Ti  Ti143  1  0.18656761  0.00009323  0.74891354  1
  Ti  Ti144  1  0.30011746  0.50854266  0.37134163  1
  Ti  Ti145  1  0.20194485  0.80331360  0.51353705  1
  Ti  Ti146  1  0.79800237  0.20374469  0.76015986  1
  Ti  Ti147  1  0.18295023  0.21247911  0.75271166  1
  Ti  Ti148  1  0.40536716  0.59367544  0.26139055  1
  Ti  Ti149  1  0.69398567  0.89601958  0.87150289  1
  Ti  Ti150  1  0.21828320  0.61091200  0.49873975  1
  Ti  Ti151  1  0.50904921  0.09868573  0.61417019  1
  Ti  Ti152  1  0.81494060  0.59137418  0.26824404  1
  Ti  Ti153  1  0.40570193  0.79981441  0.75745585  1
  Ti  Ti154  1  0.91695096  0.10212588  0.37609007  1
  Ti  Ti155  1  0.10040960  0.49104395  0.89025017  1
  Ti  Ti156  1  0.39611091  0.19615934  0.50098645  1
  Ti  Ti157  1  0.69968980  0.89929689  0.12862191  1
  Ti  Ti158  1  0.09963660  0.90285672  0.63338519  1
  Ti  Ti159  1  0.51668989  0.70974634  0.86919652  1
  Mo  Mo160  1  0.70037412  0.89456294  0.37022565  1
  Mo  Mo161  1  0.89339201  0.30710085  0.11286029  1
  Mo  Mo162  1  0.00208751  0.39611936  0.50315286  1
  Mo  Mo163  1  0.48770256  0.31350198  0.13367873  1
  Mo  Mo164  1  0.70075701  0.70583987  0.86474388  1
  Mo  Mo165  1  -0.00451125  0.81315474  0.25223962  1
  Mo  Mo166  1  0.89521784  0.52532950  0.12205646  1
  Mo  Mo167  1  0.19704333  0.19405125  -0.00987560  1
  Mo  Mo168  1  0.10209677  0.90255470  0.85469507  1
  Mo  Mo169  1  0.51034331  0.90256642  0.86884930  1
  Mo  Mo170  1  0.59667360  0.60051631  0.27373600  1
  Mo  Mo171  1  0.10441160  0.50519479  0.11970462  1
  Mo  Mo172  1  0.50560845  0.48346620  0.13855535  1
  Mo  Mo173  1  0.81084227  0.61317407  0.00548118  1
  Mo  Mo174  1  -0.00897724  0.59841431  0.00126381  1
  Mo  Mo175  1  0.00655833  0.41508097  0.01858026  1
  Mo  Mo176  1  0.69782461  0.10215457  0.36764409  1
  Mo  Mo177  1  0.89796834  0.71035698  0.12225699  1
  Mo  Mo178  1  0.29186542  0.30734474  0.86743431  1
  Mo  Mo179  1  -0.00684842  -0.00111002  -0.01252194  1
  Mo  Mo180  1  0.19670404  0.79861733  -0.01412874  1
  Mo  Mo181  1  0.90144040  0.28655785  0.63049374  1
  Mo  Mo182  1  0.89642789  0.29431912  0.36749466  1
  Mo  Mo183  1  0.72865243  0.52753894  0.85941665  1
  Mo  Mo184  1  0.60467831  0.59682368  0.47972795  1
  Mo  Mo185  1  0.90376753  0.50204007  0.37246465  1
  Mo  Mo186  1  0.08932747  0.09385916  0.38113077  1
  Mo  Mo187  1  0.10573228  0.49346618  0.63598121  1
  Mo  Mo188  1  0.29730515  0.69237357  0.37494270  1
  Mo  Mo189  1  0.89140598  0.10271222  0.88499105  1
  Mo  Mo190  1  0.58619887  0.40747194  0.01560834  1
  Mo  Mo191  1  0.89243395  0.90154418  0.86415823  1
  Mo  Mo192  1  0.49523697  0.69902765  0.36656041  1
  Mo  Mo193  1  0.80703310  0.60139288  0.73499625  1
  Mo  Mo194  1  0.59425096  0.39543702  0.27635884  1
  Mo  Mo195  1  0.80792364  -0.00120485  0.48986275  1
  Mo  Mo196  1  0.60731442  0.39137762  0.48622924  1
  Mo  Mo197  1  0.89571448  0.89431362  0.62849318  1
  Mo  Mo198  1  0.69559864  0.09577079  0.62488102  1
  Mo  Mo199  1  0.21409954  0.39388704  0.00092213  1
