# generated using pymatgen
data_HfZrTaTiMo
_symmetry_space_group_name_H-M   'P 1'
_cell_length_a   15.21009261
_cell_length_b   15.21087551
_cell_length_c   16.83888553
_cell_angle_alpha   90.04308970
_cell_angle_beta   90.00224415
_cell_angle_gamma   89.97200058
_symmetry_Int_Tables_number   1
_chemical_formula_structural   HfZrTaTiMo
_chemical_formula_sum   'Hf40 Zr40 Ta40 Ti40 Mo40'
_cell_volume   3895.82320460
_cell_formula_units_Z   40
loop_
 _symmetry_equiv_pos_site_id
 _symmetry_equiv_pos_as_xyz
  1  'x, y, z'
loop_
 _atom_site_type_symbol
 _atom_site_label
 _atom_site_symmetry_multiplicity
 _atom_site_fract_x
 _atom_site_fract_y
 _atom_site_fract_z
 _atom_site_occupancy
  Hf  Hf0  1  0.58431437  0.20965787  0.74361924  1
  Hf  Hf1  1  0.48640626  0.10078947  0.87378520  1
  Hf  Hf2  1  0.40325517  0.78814454  0.75374205  1
  Hf  Hf3  1  0.69295736  0.09502384  0.86430245  1
  Hf  Hf4  1  0.28261616  0.09523598  0.87815721  1
  Hf  Hf5  1  0.90769134  0.89512860  0.87069106  1
  Hf  Hf6  1  0.80066520  0.80328926  0.01073927  1
  Hf  Hf7  1  0.39828231  0.58548032  0.74190381  1
  Hf  Hf8  1  0.78999073  0.81476015  0.49980473  1
  Hf  Hf9  1  0.80135251  0.01043816  0.25065772  1
  Hf  Hf10  1  0.00023901  0.00134877  0.25065697  1
  Hf  Hf11  1  -0.00478910  0.60925669  0.74453855  1
  Hf  Hf12  1  0.00396418  0.39928896  0.73728821  1
  Hf  Hf13  1  0.29801987  0.49155288  0.88207098  1
  Hf  Hf14  1  0.61807092  0.40715351  0.25052275  1
  Hf  Hf15  1  0.20778971  0.00203915  0.02245588  1
  Hf  Hf16  1  0.19512350  0.39991331  0.26893346  1
  Hf  Hf17  1  -0.00674757  0.59434045  0.51853935  1
  Hf  Hf18  1  0.39570441  0.39970567  0.25603996  1
  Hf  Hf19  1  0.30235828  0.50645745  0.12144270  1
  Hf  Hf20  1  0.00387916  -0.01109427  0.49058992  1
  Hf  Hf21  1  0.29461099  0.30117822  0.12534204  1
  Hf  Hf22  1  0.51019592  0.69245129  0.62384007  1
  Hf  Hf23  1  0.11183362  0.08834117  0.60869404  1
  Hf  Hf24  1  0.49981466  0.28919430  0.36692378  1
  Hf  Hf25  1  0.07503752  0.49258006  0.38070325  1
  Hf  Hf26  1  0.60609844  0.59600593  0.48768637  1
  Hf  Hf27  1  0.09631908  0.71280573  0.87692511  1
  Hf  Hf28  1  0.08657880  0.10749013  0.13427486  1
  Hf  Hf29  1  0.11043940  0.29389508  0.86949236  1
  Hf  Hf30  1  0.40397284  0.38217994  0.74955681  1
  Hf  Hf31  1  0.51035722  0.90260072  0.86625239  1
  Hf  Hf32  1  0.79745663  0.20707846  0.74239010  1
  Hf  Hf33  1  0.69923467  0.50562978  0.87852889  1
  Hf  Hf34  1  0.89844548  0.30169430  0.60580141  1
  Hf  Hf35  1  0.39800414  0.17206252  0.02659088  1
  Hf  Hf36  1  0.58804324  0.62086099  -0.00554318  1
  Hf  Hf37  1  0.31211330  0.09045348  0.35988778  1
  Hf  Hf38  1  0.09346311  0.70663713  0.37550880  1
  Hf  Hf39  1  0.07446809  0.31593710  0.13217857  1
  Zr  Zr40  1  0.48388700  0.89609064  0.37404986  1
  Zr  Zr41  1  0.19541444  0.19914610  0.25582968  1
  Zr  Zr42  1  0.20725011  0.60407894  0.26472536  1
  Zr  Zr43  1  -0.02373933  0.19909378  -0.00501386  1
  Zr  Zr44  1  0.11396861  0.71156409  0.62803669  1
  Zr  Zr45  1  0.61493714  -0.00819894  0.49688350  1
  Zr  Zr46  1  0.59494758  0.40437992  0.75195982  1
  Zr  Zr47  1  0.69208574  0.92086737  0.12488536  1
  Zr  Zr48  1  0.59957570  0.79229687  0.49441532  1
  Zr  Zr49  1  0.78754658  0.59300785  0.23988518  1
  Zr  Zr50  1  0.90661523  0.69120462  0.12323484  1
  Zr  Zr51  1  0.60546025  0.19911458  0.00345368  1
  Zr  Zr52  1  0.90353133  0.47998957  0.11336773  1
  Zr  Zr53  1  0.11227327  0.29551069  0.60801406  1
  Zr  Zr54  1  0.80644225  0.38602424  -0.00835220  1
  Zr  Zr55  1  0.88711560  0.90838172  0.63909586  1
  Zr  Zr56  1  0.10076012  0.50506878  0.86764747  1
  Zr  Zr57  1  0.70866486  0.90271170  0.86563533  1
  Zr  Zr58  1  0.49906513  0.90599070  0.63053139  1
  Zr  Zr59  1  0.87840162  0.50175818  0.62922999  1
  Zr  Zr60  1  0.50845449  0.51082146  0.13191574  1
  Zr  Zr61  1  0.09618071  0.51328140  0.12805433  1
  Zr  Zr62  1  0.20552162  0.80283236  0.75796910  1
  Zr  Zr63  1  0.71211584  0.30785544  0.12522352  1
  Zr  Zr64  1  0.90340706  0.10069903  0.61433305  1
  Zr  Zr65  1  0.82758111  0.39883486  0.25940500  1
  Zr  Zr66  1  0.19961845  0.59700512  0.49826483  1
  Zr  Zr67  1  0.30596115  0.72808709  0.38676326  1
  Zr  Zr68  1  -0.00483100  0.79743823  0.50806879  1
  Zr  Zr69  1  0.90216546  0.31978241  0.41043590  1
  Zr  Zr70  1  0.28418570  0.89871937  0.61144413  1
  Zr  Zr71  1  0.01785171  0.18527146  0.75027533  1
  Zr  Zr72  1  0.30530313  0.89622576  0.89271105  1
  Zr  Zr73  1  0.58737413  0.19305637  0.50482559  1
  Zr  Zr74  1  0.29833985  0.70172333  0.11909205  1
  Zr  Zr75  1  0.89294118  0.69459578  0.36744220  1
  Zr  Zr76  1  0.31421569  0.29180415  0.88815192  1
  Zr  Zr77  1  0.69751630  0.08086732  0.63552392  1
  Zr  Zr78  1  0.40795754  0.58855009  0.49246739  1
  Zr  Zr79  1  0.18696225  0.20039832  0.01138267  1
  Ta  Ta80  1  0.70006957  0.30096853  0.38667718  1
  Ta  Ta81  1  0.20842297  -0.00923247  0.23574321  1
  Ta  Ta82  1  0.10165397  0.91625886  0.88989767  1
  Ta  Ta83  1  0.67992099  0.50959459  0.62678299  1
  Ta  Ta84  1  0.79163061  0.61293513  0.50163554  1
  Ta  Ta85  1  0.89871890  0.08921458  0.86395803  1
  Ta  Ta86  1  0.59257884  0.81526080  0.00636598  1
  Ta  Ta87  1  0.11366040  0.89808927  0.36754045  1
  Ta  Ta88  1  0.19282527  0.60700318  -0.00244415  1
  Ta  Ta89  1  0.00249602  0.80271515  0.24023770  1
  Ta  Ta90  1  0.18289378  0.00324394  0.75191883  1
  Ta  Ta91  1  0.31289028  0.28842790  0.61232469  1
  Ta  Ta92  1  0.90132867  0.89802722  0.36771778  1
  Ta  Ta93  1  0.22035940  0.19103552  0.48381664  1
  Ta  Ta94  1  0.30764850  0.68665324  0.88696353  1
  Ta  Ta95  1  0.80701245  0.01534052  0.00460496  1
  Ta  Ta96  1  0.59281801  0.60656952  0.76128146  1
  Ta  Ta97  1  0.80309668  0.20528322  0.26354603  1
  Ta  Ta98  1  0.50710999  0.09286075  0.36092365  1
  Ta  Ta99  1  0.50050469  0.69867157  0.35373189  1
  Ta  Ta100  1  0.30436998  0.48484806  0.61645713  1
  Ta  Ta101  1  0.49045144  0.50391646  0.88677028  1
  Ta  Ta102  1  0.50552067  0.29864805  0.13075367  1
  Ta  Ta103  1  0.20914892  0.39886754  0.73949873  1
  Ta  Ta104  1  0.40862784  0.18902379  0.23360533  1
  Ta  Ta105  1  0.90149067  0.10749873  0.38749554  1
  Ta  Ta106  1  0.00424230  0.80261045  0.00824191  1
  Ta  Ta107  1  0.59749351  0.81237591  0.24674603  1
  Ta  Ta108  1  0.19395288  0.40497205  0.00371288  1
  Ta  Ta109  1  0.80437526  0.80796598  0.23587336  1
  Ta  Ta110  1  0.49086091  0.70659544  0.14443061  1
  Ta  Ta111  1  0.21091226  0.39820967  0.48567124  1
  Ta  Ta112  1  0.38388591  0.00554110  0.74749476  1
  Ta  Ta113  1  0.39903445  0.01115827  0.49757195  1
  Ta  Ta114  1  0.30215093  0.10015151  0.62054187  1
  Ta  Ta115  1  0.09387838  0.29052652  0.39312253  1
  Ta  Ta116  1  0.89686570  0.50244865  0.86713133  1
  Ta  Ta117  1  0.89880755  0.30039738  0.86046908  1
  Ta  Ta118  1  0.69803339  0.31342788  0.61034341  1
  Ta  Ta119  1  0.68459207  0.70190702  0.13005087  1
  Ti  Ti120  1  0.10450045  0.70289823  0.12399317  1
  Ti  Ti121  1  0.79430332  0.59950081  0.00373845  1
  Ti  Ti122  1  0.79085113  0.40373821  0.75073281  1
  Ti  Ti123  1  0.59174968  0.40592364  0.49335694  1
  Ti  Ti124  1  0.52056011  0.07708281  0.13155829  1
  Ti  Ti125  1  0.70138464  0.90384317  0.36131562  1
  Ti  Ti126  1  0.88609118  0.70764506  0.63741485  1
  Ti  Ti127  1  0.60932921  0.19634732  0.24667475  1
  Ti  Ti128  1  0.69398884  0.88476476  0.65877313  1
  Ti  Ti129  1  0.40716633  0.39877439  0.01068224  1
  Ti  Ti130  1  0.69950012  0.10289777  0.37394886  1
  Ti  Ti131  1  0.70558983  0.69821619  0.64199994  1
  Ti  Ti132  1  0.00334857  0.39971250  -0.01635304  1
  Ti  Ti133  1  0.69981960  0.29773484  0.87578786  1
  Ti  Ti134  1  0.40825631  -0.01549486  0.23615018  1
  Ti  Ti135  1  0.31801248  0.89168532  0.11406940  1
  Ti  Ti136  1  0.10248242  0.09438684  0.37530669  1
  Ti  Ti137  1  0.10212151  0.89133677  0.12187653  1
  Ti  Ti138  1  0.50288669  0.30334094  0.88920167  1
  Ti  Ti139  1  0.88810919  0.69650794  0.87306386  1
  Ti  Ti140  1  0.69708691  0.70680536  0.35821558  1
  Ti  Ti141  1  0.48472435  0.10672878  0.63245359  1
  Ti  Ti142  1  0.41229929  0.78485753  -0.00354648  1
  Ti  Ti143  1  -0.00636528  0.00009807  0.01296769  1
  Ti  Ti144  1  -0.00926836  0.58745856  0.25313257  1
  Ti  Ti145  1  0.71408720  0.11614838  0.12376258  1
  Ti  Ti146  1  0.21997295  0.19895848  0.74416513  1
  Ti  Ti147  1  0.60255870  0.40908315  0.00713317  1
  Ti  Ti148  1  0.78769663  0.19117585  0.50008418  1
  Ti  Ti149  1  -0.01350422  0.21139525  0.26291389  1
  Ti  Ti150  1  0.69469471  0.71129535  0.86843060  1
  Ti  Ti151  1  0.49489652  0.30955534  0.61133173  1
  Ti  Ti152  1  0.50292005  0.50381716  0.35983212  1
  Ti  Ti153  1  0.20657491  0.59617400  0.74052537  1
  Ti  Ti154  1  0.39745869  0.39040654  0.48204856  1
  Ti  Ti155  1  0.20674741  0.80844130  0.24557538  1
  Ti  Ti156  1  0.00840587  0.81484445  0.74583745  1
  Ti  Ti157  1  -0.00537386  0.60083091  -0.00958402  1
  Ti  Ti158  1  0.31023859  0.70387436  0.60694360  1
  Ti  Ti159  1  0.71246321  0.50211571  0.37854416  1
  Mo  Mo160  1  0.39058419  0.80291367  0.24512248  1
  Mo  Mo161  1  0.60099478  0.00881678  0.25604575  1
  Mo  Mo162  1  0.09400563  0.90605950  0.62753318  1
  Mo  Mo163  1  0.60349254  0.60471066  0.25658475  1
  Mo  Mo164  1  0.40262176  0.80049081  0.50430136  1
  Mo  Mo165  1  0.30352434  0.29380799  0.37450058  1
  Mo  Mo166  1  0.89424968  0.51132223  0.39207550  1
  Mo  Mo167  1  0.00746952  -0.00359287  0.75196841  1
  Mo  Mo168  1  0.40474755  0.19529472  0.49379211  1
  Mo  Mo169  1  0.80875032  0.78521804  0.75786857  1
  Mo  Mo170  1  0.00771084  0.19391328  0.49406721  1
  Mo  Mo171  1  0.69954826  0.51195512  0.10719160  1
  Mo  Mo172  1  0.29583864  0.91012491  0.37406105  1
  Mo  Mo173  1  0.80277438  -0.00005682  0.75421160  1
  Mo  Mo174  1  0.59933398  0.00454012  -0.00001500  1
  Mo  Mo175  1  0.39878012  0.59583546  0.00011731  1
  Mo  Mo176  1  0.39435897  0.19736987  0.74757651  1
  Mo  Mo177  1  0.11277882  0.49791935  0.62945975  1
  Mo  Mo178  1  0.09186546  0.08877455  0.88420518  1
  Mo  Mo179  1  0.30489346  0.50021705  0.37874210  1
  Mo  Mo180  1  0.39896292  0.60015821  0.26226191  1
  Mo  Mo181  1  0.19294327  0.81217324  0.49762653  1
  Mo  Mo182  1  0.49944742  0.70046232  0.87425978  1
  Mo  Mo183  1  0.01181839  0.40735944  0.52330995  1
  Mo  Mo184  1  0.20390221  -0.00183212  0.48603852  1
  Mo  Mo185  1  0.89342812  0.10450521  0.13101150  1
  Mo  Mo186  1  0.50050234  0.49028242  0.61864089  1
  Mo  Mo187  1  0.00150552  0.39416431  0.26037027  1
  Mo  Mo188  1  0.30504015  0.09026539  0.14257284  1
  Mo  Mo189  1  0.50153402  0.89080673  0.12656724  1
  Mo  Mo190  1  0.79975068  0.19275999  -0.01578756  1
  Mo  Mo191  1  0.58584033  0.00248644  0.74397511  1
  Mo  Mo192  1  0.89689623  0.27646555  0.13120734  1
  Mo  Mo193  1  0.42244115  -0.01701365  0.01390553  1
  Mo  Mo194  1  0.80354898  0.00032893  0.47694865  1
  Mo  Mo195  1  0.59933733  0.79125081  0.75228269  1
  Mo  Mo196  1  0.77696648  0.41873479  0.50221493  1
  Mo  Mo197  1  0.90688435  0.90438962  0.12448314  1
  Mo  Mo198  1  0.78953021  0.59930595  0.75710323  1
  Mo  Mo199  1  0.19603923  0.79947544  0.00155134  1
