# generated using pymatgen
data_HfZrTaTiMo
_symmetry_space_group_name_H-M   'P 1'
_cell_length_a   15.21823676
_cell_length_b   15.21124382
_cell_length_c   16.86068599
_cell_angle_alpha   90.03898219
_cell_angle_beta   90.00359123
_cell_angle_gamma   90.13492055
_symmetry_Int_Tables_number   1
_chemical_formula_structural   HfZrTaTiMo
_chemical_formula_sum   'Hf40 Zr40 Ta40 Ti40 Mo40'
_cell_volume   3903.03996863
_cell_formula_units_Z   40
loop_
 _symmetry_equiv_pos_site_id
 _symmetry_equiv_pos_as_xyz
  1  'x, y, z'
loop_
 _atom_site_type_symbol
 _atom_site_label
 _atom_site_symmetry_multiplicity
 _atom_site_fract_x
 _atom_site_fract_y
 _atom_site_fract_z
 _atom_site_occupancy
  Hf  Hf0  1  0.80475328  -0.01483443  0.74864562  1
  Hf  Hf1  1  0.79714707  0.59012618  0.49637908  1
  Hf  Hf2  1  0.19578965  -0.00293702  0.00182058  1
  Hf  Hf3  1  0.00058744  0.01240339  0.73588645  1
  Hf  Hf4  1  0.88609333  0.71283689  0.86576085  1
  Hf  Hf5  1  0.20587188  0.40582805  0.00763231  1
  Hf  Hf6  1  0.88617783  0.70171455  0.62860787  1
  Hf  Hf7  1  0.50639160  0.31813716  0.61744864  1
  Hf  Hf8  1  0.10259346  0.29890230  0.62909559  1
  Hf  Hf9  1  0.52540520  0.10840542  0.12848720  1
  Hf  Hf10  1  0.00795047  0.41128736  0.51337702  1
  Hf  Hf11  1  0.08397467  0.70057347  0.39519585  1
  Hf  Hf12  1  0.10751528  0.73220825  0.12474503  1
  Hf  Hf13  1  0.20072012  0.61879746  0.25351242  1
  Hf  Hf14  1  0.47334898  0.69592486  0.13487696  1
  Hf  Hf15  1  0.00123079  0.40902533  0.74918553  1
  Hf  Hf16  1  0.68569709  0.69345682  0.87335469  1
  Hf  Hf17  1  0.41527279  0.41601872  0.00324414  1
  Hf  Hf18  1  0.59749820  0.39760862  0.48163088  1
  Hf  Hf19  1  0.10440288  0.29922254  0.86708847  1
  Hf  Hf20  1  0.20378449  0.60675404  0.73789140  1
  Hf  Hf21  1  0.79212841  0.17774960  0.26245365  1
  Hf  Hf22  1  0.39245374  0.82292245  0.50747845  1
  Hf  Hf23  1  0.31893128  0.52093577  0.86930223  1
  Hf  Hf24  1  0.20997660  0.40375695  0.23632892  1
  Hf  Hf25  1  0.80275005  0.38527309  0.24984962  1
  Hf  Hf26  1  0.71065130  0.49089732  0.87554295  1
  Hf  Hf27  1  0.29427262  0.88885174  0.86635205  1
  Hf  Hf28  1  0.10372962  0.51081592  0.12025380  1
  Hf  Hf29  1  0.09815438  0.91243146  0.86265938  1
  Hf  Hf30  1  0.21496908  0.63041289  -0.00191449  1
  Hf  Hf31  1  0.69147676  0.48632072  0.63062191  1
  Hf  Hf32  1  0.19316366  -0.00504415  0.25393464  1
  Hf  Hf33  1  0.91131185  0.49927396  0.36798185  1
  Hf  Hf34  1  0.08638104  0.11536222  0.12342860  1
  Hf  Hf35  1  0.10277693  0.90507144  0.39096873  1
  Hf  Hf36  1  0.81503855  -0.00669048  -0.00538374  1
  Hf  Hf37  1  0.69922892  0.27218148  0.12401027  1
  Hf  Hf38  1  0.39528529  0.00988125  0.74447731  1
  Hf  Hf39  1  -0.00728034  0.61646063  -0.00660789  1
  Zr  Zr40  1  0.50174617  0.91705487  0.37793377  1
  Zr  Zr41  1  -0.00764809  0.61580875  0.23854618  1
  Zr  Zr42  1  0.07816168  0.68631501  0.61045798  1
  Zr  Zr43  1  0.41192266  0.20528096  0.26188040  1
  Zr  Zr44  1  0.68741540  0.69461319  0.12261298  1
  Zr  Zr45  1  0.57626858  0.79913088  0.00130235  1
  Zr  Zr46  1  0.90897096  0.29000594  0.37737053  1
  Zr  Zr47  1  0.57652129  0.58710479  -0.00572567  1
  Zr  Zr48  1  0.10400528  0.29515415  0.38347479  1
  Zr  Zr49  1  0.40623859  0.40991683  0.25427790  1
  Zr  Zr50  1  0.40541293  -0.01410202  -0.00068020  1
  Zr  Zr51  1  -0.01026324  0.81254294  0.74411172  1
  Zr  Zr52  1  0.70799541  0.88575387  0.87816597  1
  Zr  Zr53  1  0.39005966  0.60740364  0.27278062  1
  Zr  Zr54  1  0.69822205  0.90920073  0.12846029  1
  Zr  Zr55  1  0.60112772  0.00817599  -0.00731401  1
  Zr  Zr56  1  0.20049463  0.20442803  0.24827893  1
  Zr  Zr57  1  -0.00392887  0.39737996  -0.00147284  1
  Zr  Zr58  1  -0.00076355  0.82267675  -0.00787234  1
  Zr  Zr59  1  0.59528277  0.00319997  0.75773426  1
  Zr  Zr60  1  0.79811434  0.38622380  0.49941022  1
  Zr  Zr61  1  0.39752431  0.79446909  0.73355862  1
  Zr  Zr62  1  0.21118507  0.19052187  0.74819417  1
  Zr  Zr63  1  0.49220618  0.70529004  0.39012053  1
  Zr  Zr64  1  0.68164350  0.48208118  0.12288020  1
  Zr  Zr65  1  0.10599722  0.50940605  0.87776522  1
  Zr  Zr66  1  0.31604623  0.29634535  0.62519822  1
  Zr  Zr67  1  0.58630341  0.38767105  0.76156218  1
  Zr  Zr68  1  0.69456703  0.69576624  0.62827545  1
  Zr  Zr69  1  0.31187128  0.30713321  0.87683688  1
  Zr  Zr70  1  0.61102667  0.19076171  0.47736665  1
  Zr  Zr71  1  0.79241648  0.59974117  0.24544645  1
  Zr  Zr72  1  0.49689622  0.68896335  0.60952239  1
  Zr  Zr73  1  0.70765646  0.28148167  0.86649956  1
  Zr  Zr74  1  0.80820243  0.79460253  0.24756782  1
  Zr  Zr75  1  0.89283610  0.49551374  0.12142345  1
  Zr  Zr76  1  0.50559395  0.11639948  0.62002899  1
  Zr  Zr77  1  0.10872020  0.49549207  0.37169458  1
  Zr  Zr78  1  0.30837641  0.09794894  0.11724355  1
  Zr  Zr79  1  0.39827259  0.00108891  0.25113687  1
  Ta  Ta80  1  0.59869389  0.38280244  0.26641381  1
  Ta  Ta81  1  0.70713244  0.09981552  0.86883473  1
  Ta  Ta82  1  0.59952993  0.79877065  0.74603304  1
  Ta  Ta83  1  0.42399467  0.20944820  0.76248384  1
  Ta  Ta84  1  0.31071771  0.29884134  0.11389093  1
  Ta  Ta85  1  0.61225377  0.81769723  0.49991368  1
  Ta  Ta86  1  0.50886973  0.30586834  0.12448006  1
  Ta  Ta87  1  0.27930807  0.71220067  0.40220658  1
  Ta  Ta88  1  0.29681840  0.69202417  0.60404310  1
  Ta  Ta89  1  0.20767176  0.19291661  0.50494041  1
  Ta  Ta90  1  -0.00465473  0.60087738  0.76022288  1
  Ta  Ta91  1  0.60097946  0.37970444  -0.01062198  1
  Ta  Ta92  1  0.91059072  0.27654468  0.12693073  1
  Ta  Ta93  1  0.90391038  0.89595043  0.38473048  1
  Ta  Ta94  1  0.80465482  0.78921778  0.01228155  1
  Ta  Ta95  1  0.20131826  0.20335208  -0.00191899  1
  Ta  Ta96  1  0.21429314  0.40956967  0.74085099  1
  Ta  Ta97  1  0.70364588  0.27542705  0.63549605  1
  Ta  Ta98  1  0.69928620  0.49914402  0.36729498  1
  Ta  Ta99  1  0.31797169  0.52235840  0.12088400  1
  Ta  Ta100  1  0.20299828  -0.00188601  0.72685300  1
  Ta  Ta101  1  0.29854734  0.09466350  0.38499914  1
  Ta  Ta102  1  0.01146076  0.38278817  0.23422689  1
  Ta  Ta103  1  0.58691465  0.58985205  0.25776275  1
  Ta  Ta104  1  0.59205736  0.80141817  0.25513358  1
  Ta  Ta105  1  0.28819839  0.87825823  0.12709004  1
  Ta  Ta106  1  0.49125379  0.89705672  0.14014541  1
  Ta  Ta107  1  0.21035240  0.00149068  0.51932523  1
  Ta  Ta108  1  0.77989442  -0.01044971  0.49435593  1
  Ta  Ta109  1  0.30575614  0.09939692  0.88098061  1
  Ta  Ta110  1  0.90455615  0.50568218  0.62904262  1
  Ta  Ta111  1  0.57858476  0.59179580  0.75433913  1
  Ta  Ta112  1  0.89785010  0.30007810  0.86804289  1
  Ta  Ta113  1  0.61383412  0.01511601  0.25933974  1
  Ta  Ta114  1  0.18852760  0.81143270  0.52211446  1
  Ta  Ta115  1  0.19463093  0.80709359  0.72042504  1
  Ta  Ta116  1  0.69280829  0.70139463  0.37389295  1
  Ta  Ta117  1  0.89575647  0.29414439  0.62725044  1
  Ta  Ta118  1  0.79513560  0.79740095  0.49169070  1
  Ta  Ta119  1  0.29883347  0.30698157  0.38488710  1
  Ti  Ti120  1  0.90718340  0.08464698  0.38551386  1
  Ti  Ti121  1  0.70145788  0.08552925  0.62579141  1
  Ti  Ti122  1  0.09957570  0.10448438  0.61852029  1
  Ti  Ti123  1  0.21122174  0.39801610  0.51468186  1
  Ti  Ti124  1  0.47169383  0.69129580  0.86715212  1
  Ti  Ti125  1  0.59631294  0.59325665  0.49156784  1
  Ti  Ti126  1  0.89363986  0.08725257  0.13099320  1
  Ti  Ti127  1  0.42207717  0.20105789  -0.00672617  1
  Ti  Ti128  1  0.90331515  0.10455015  0.86872359  1
  Ti  Ti129  1  -0.00145919  0.18535093  0.25724428  1
  Ti  Ti130  1  0.80488394  0.18879175  0.00033520  1
  Ti  Ti131  1  0.11304158  0.71706668  0.86617164  1
  Ti  Ti132  1  0.40514587  0.21111450  0.48622911  1
  Ti  Ti133  1  0.80949819  -0.01110655  0.26323910  1
  Ti  Ti134  1  0.88972772  0.10522130  0.61831609  1
  Ti  Ti135  1  0.88564773  0.89939061  0.61152501  1
  Ti  Ti136  1  0.37534859  0.78275014  -0.00255057  1
  Ti  Ti137  1  0.49516883  0.89122535  0.86843614  1
  Ti  Ti138  1  0.00043647  0.01521879  -0.00670334  1
  Ti  Ti139  1  0.89664371  0.69956378  0.38368301  1
  Ti  Ti140  1  0.51544941  0.90998527  0.62062544  1
  Ti  Ti141  1  0.80123574  0.59449903  -0.00104943  1
  Ti  Ti142  1  0.37204240  0.80623489  0.26774591  1
  Ti  Ti143  1  0.79957135  0.59046904  0.75391697  1
  Ti  Ti144  1  0.30238374  0.50314779  0.39252942  1
  Ti  Ti145  1  0.80451622  0.38551849  0.00021025  1
  Ti  Ti146  1  -0.00062850  0.20396535  -0.00826550  1
  Ti  Ti147  1  0.32741395  0.49969032  0.62053207  1
  Ti  Ti148  1  0.90877338  0.89689431  0.13343515  1
  Ti  Ti149  1  0.19159796  0.58405913  0.51121125  1
  Ti  Ti150  1  0.09184831  0.91980090  0.13134790  1
  Ti  Ti151  1  0.09730759  0.09834128  0.38630203  1
  Ti  Ti152  1  -0.00216517  -0.00227308  0.51268139  1
  Ti  Ti153  1  0.40336824  0.01748998  0.50655517  1
  Ti  Ti154  1  0.80179415  0.18893857  0.49257411  1
  Ti  Ti155  1  0.00869079  0.81623490  0.25658148  1
  Ti  Ti156  1  -0.00087762  0.19770792  0.50478486  1
  Ti  Ti157  1  0.80738678  0.39390733  0.74620103  1
  Ti  Ti158  1  0.10593040  0.10531702  0.87146271  1
  Ti  Ti159  1  -0.00719402  0.20296660  0.74755473  1
  Mo  Mo160  1  0.50477956  0.49622978  0.13271973  1
  Mo  Mo161  1  0.29601826  0.70780424  0.13463648  1
  Mo  Mo162  1  -0.01766422  0.80565482  0.50309272  1
  Mo  Mo163  1  0.19643055  0.81338739  -0.00453490  1
  Mo  Mo164  1  0.69971527  0.89591328  0.62661680  1
  Mo  Mo165  1  0.70662302  0.08241335  0.37954790  1
  Mo  Mo166  1  0.10325509  0.29706250  0.11792620  1
  Mo  Mo167  1  0.19605497  0.80584924  0.26531203  1
  Mo  Mo168  1  0.60685286  0.19073704  0.74598698  1
  Mo  Mo169  1  0.90130010  0.70674379  0.11576844  1
  Mo  Mo170  1  0.50033687  0.10726866  0.87674911  1
  Mo  Mo171  1  0.70115285  0.89134084  0.36515827  1
  Mo  Mo172  1  0.29078323  0.71085894  0.86071421  1
  Mo  Mo173  1  0.49684054  0.10104861  0.37859703  1
  Mo  Mo174  1  0.50301745  0.50021667  0.87231902  1
  Mo  Mo175  1  0.49373618  0.30128610  0.37879774  1
  Mo  Mo176  1  0.40085906  0.61132926  0.00001687  1
  Mo  Mo177  1  0.08884079  0.90766986  0.61621279  1
  Mo  Mo178  1  0.29171495  0.90623390  0.38779613  1
  Mo  Mo179  1  0.61050655  0.19546763  -0.00182129  1
  Mo  Mo180  1  0.50343468  0.50389569  0.37921041  1
  Mo  Mo181  1  0.30837768  0.10750104  0.61831159  1
  Mo  Mo182  1  -0.00847685  0.00224194  0.25820776  1
  Mo  Mo183  1  0.39089900  0.59871281  0.49063162  1
  Mo  Mo184  1  0.89242639  0.50079183  0.87115534  1
  Mo  Mo185  1  0.78858165  0.79517989  0.74636965  1
  Mo  Mo186  1  0.39805628  0.59505246  0.73842122  1
  Mo  Mo187  1  0.30672233  0.90482694  0.62605144  1
  Mo  Mo188  1  0.71692614  0.09158157  0.12664430  1
  Mo  Mo189  1  0.59784783  -0.00279462  0.50273585  1
  Mo  Mo190  1  0.70673538  0.29471729  0.36986343  1
  Mo  Mo191  1  0.50287292  0.29343444  0.88301129  1
  Mo  Mo192  1  -0.01067610  0.59350174  0.50091230  1
  Mo  Mo193  1  0.10901783  0.49642794  0.63196423  1
  Mo  Mo194  1  0.90066848  0.91137202  0.87496463  1
  Mo  Mo195  1  0.60408101  0.19894801  0.26758885  1
  Mo  Mo196  1  0.50293564  0.50320013  0.61792447  1
  Mo  Mo197  1  0.39881003  0.40498012  0.48986597  1
  Mo  Mo198  1  0.40381076  0.40972581  0.75081594  1
  Mo  Mo199  1  0.81154716  0.18610439  0.74170789  1
