# generated using pymatgen
data_HfZrTaTiMo
_symmetry_space_group_name_H-M   'P 1'
_cell_length_a   15.17806240
_cell_length_b   15.17977785
_cell_length_c   16.83012935
_cell_angle_alpha   89.95349302
_cell_angle_beta   89.95489954
_cell_angle_gamma   90.26508665
_symmetry_Int_Tables_number   1
_chemical_formula_structural   HfZrTaTiMo
_chemical_formula_sum   'Hf40 Zr40 Ta40 Ti40 Mo40'
_cell_volume   3877.61133844
_cell_formula_units_Z   40
loop_
 _symmetry_equiv_pos_site_id
 _symmetry_equiv_pos_as_xyz
  1  'x, y, z'
loop_
 _atom_site_type_symbol
 _atom_site_label
 _atom_site_symmetry_multiplicity
 _atom_site_fract_x
 _atom_site_fract_y
 _atom_site_fract_z
 _atom_site_occupancy
  Hf  Hf0  1  0.39141973  0.80265385  0.74435274  1
  Hf  Hf1  1  0.50770672  0.90261183  0.87305781  1
  Hf  Hf2  1  0.09673623  0.49924191  0.86403680  1
  Hf  Hf3  1  0.71314127  0.90700390  0.87905818  1
  Hf  Hf4  1  0.08947252  0.09220968  0.12641348  1
  Hf  Hf5  1  0.69415160  0.50009558  0.61561558  1
  Hf  Hf6  1  0.39868082  0.19178600  0.25612487  1
  Hf  Hf7  1  0.18021052  -0.01690824  -0.00176946  1
  Hf  Hf8  1  0.49208143  0.50871194  0.87994730  1
  Hf  Hf9  1  0.08993263  0.28993556  0.86089031  1
  Hf  Hf10  1  0.78534521  0.18451426  0.27168154  1
  Hf  Hf11  1  0.79019283  0.39312509  0.75251067  1
  Hf  Hf12  1  0.38665495  0.60369920  0.48934040  1
  Hf  Hf13  1  0.60912358  0.40213022  0.00972515  1
  Hf  Hf14  1  0.72135858  0.90392611  0.12139342  1
  Hf  Hf15  1  0.00129630  -0.00605479  0.25781318  1
  Hf  Hf16  1  0.28547460  0.70399196  0.37493872  1
  Hf  Hf17  1  0.21118449  -0.00109702  0.23935559  1
  Hf  Hf18  1  0.69765344  0.70262910  0.88554922  1
  Hf  Hf19  1  0.09944972  0.49910510  0.63986906  1
  Hf  Hf20  1  0.89486295  0.69738553  0.37222159  1
  Hf  Hf21  1  0.59905655  0.78516244  0.74807091  1
  Hf  Hf22  1  0.90583935  0.30864347  0.36694722  1
  Hf  Hf23  1  -0.00669095  0.39902150  0.00656433  1
  Hf  Hf24  1  0.39606240  0.39783672  0.74202666  1
  Hf  Hf25  1  0.27613728  0.30065541  0.37544054  1
  Hf  Hf26  1  0.59211978  0.80786078  0.00820042  1
  Hf  Hf27  1  0.41447927  -0.00448664  0.01166342  1
  Hf  Hf28  1  0.89975142  0.70251372  0.62440666  1
  Hf  Hf29  1  0.49814667  0.30318936  0.60681393  1
  Hf  Hf30  1  0.49847446  0.29835835  0.87947848  1
  Hf  Hf31  1  0.49462329  0.31345870  0.38136890  1
  Hf  Hf32  1  0.60637055  0.00524062  0.74225941  1
  Hf  Hf33  1  0.50620928  0.28497530  0.13102293  1
  Hf  Hf34  1  0.12013381  0.89424492  0.64007321  1
  Hf  Hf35  1  0.60531907  0.19992772  0.49051239  1
  Hf  Hf36  1  0.38405250  0.19045524  0.49281555  1
  Hf  Hf37  1  -0.00809432  0.60039196  0.23805746  1
  Hf  Hf38  1  0.19363066  0.80520170  0.49539522  1
  Hf  Hf39  1  0.40735867  0.60558802  0.26622221  1
  Zr  Zr40  1  0.30391165  0.87347790  0.11505746  1
  Zr  Zr41  1  0.00523509  0.40820584  0.49981918  1
  Zr  Zr42  1  0.71013975  0.89400199  0.62396657  1
  Zr  Zr43  1  0.79171442  0.58690100  0.00868613  1
  Zr  Zr44  1  0.89971578  0.08261414  0.38532539  1
  Zr  Zr45  1  0.90893705  0.90499973  0.88763336  1
  Zr  Zr46  1  0.28873347  0.29994470  0.62082530  1
  Zr  Zr47  1  -0.01471312  0.18994221  -0.00036016  1
  Zr  Zr48  1  0.02705963  -0.00598864  0.50266047  1
  Zr  Zr49  1  0.89729696  0.50208418  0.86986246  1
  Zr  Zr50  1  0.60253549  0.80293934  0.25463507  1
  Zr  Zr51  1  0.91033159  0.89846146  0.62720526  1
  Zr  Zr52  1  0.92500054  0.91125955  0.10707081  1
  Zr  Zr53  1  0.90453958  0.29773242  0.62867062  1
  Zr  Zr54  1  0.49529469  0.71380879  0.60370160  1
  Zr  Zr55  1  0.19317916  0.59464291  0.00010229  1
  Zr  Zr56  1  0.09984073  0.48209544  0.35272866  1
  Zr  Zr57  1  0.41315785  -0.00507740  0.23400588  1
  Zr  Zr58  1  0.88846287  0.28608472  0.13740159  1
  Zr  Zr59  1  0.30474156  0.10408381  0.88294456  1
  Zr  Zr60  1  0.39585071  0.39997821  0.24577115  1
  Zr  Zr61  1  0.19520057  0.20145531  -0.00018523  1
  Zr  Zr62  1  0.61674307  0.01628159  0.24928213  1
  Zr  Zr63  1  0.30408502  0.88871394  0.88015836  1
  Zr  Zr64  1  0.89935935  0.50776226  0.63476620  1
  Zr  Zr65  1  0.40955553  0.60011121  0.73706597  1
  Zr  Zr66  1  0.77689448  0.59762590  0.24519592  1
  Zr  Zr67  1  0.79923001  0.18660688  0.75197522  1
  Zr  Zr68  1  0.68927033  0.50188334  0.86880160  1
  Zr  Zr69  1  0.48124652  0.71407502  0.13144286  1
  Zr  Zr70  1  0.39448444  0.40132551  0.01464543  1
  Zr  Zr71  1  0.70830487  0.10028038  0.61930067  1
  Zr  Zr72  1  0.70210329  0.69322636  0.61462267  1
  Zr  Zr73  1  0.40283040  0.00168815  0.74338948  1
  Zr  Zr74  1  0.28261931  0.70065214  0.61806326  1
  Zr  Zr75  1  0.89256060  0.71287270  0.11600212  1
  Zr  Zr76  1  0.58995729  0.40343787  0.74250043  1
  Zr  Zr77  1  0.19578852  0.39718318  0.00611888  1
  Zr  Zr78  1  0.11548210  0.70609253  0.13130777  1
  Zr  Zr79  1  0.61050858  0.01550092  0.00988582  1
  Ta  Ta80  1  0.00615649  0.20350127  0.49450191  1
  Ta  Ta81  1  0.50458356  0.90549371  0.38358423  1
  Ta  Ta82  1  0.31059444  0.11422904  0.11034073  1
  Ta  Ta83  1  0.17331376  0.59325824  0.49345143  1
  Ta  Ta84  1  0.40301341  0.19835995  0.74295658  1
  Ta  Ta85  1  0.12176789  0.10145130  0.37104337  1
  Ta  Ta86  1  0.58446683  0.60264533  0.00809479  1
  Ta  Ta87  1  0.00758858  0.19804568  0.25960361  1
  Ta  Ta88  1  0.20261710  0.39735920  0.75164897  1
  Ta  Ta89  1  0.90731635  0.09685924  0.61652966  1
  Ta  Ta90  1  0.68852871  0.69721778  0.12169574  1
  Ta  Ta91  1  0.32154277  0.90446162  0.60089550  1
  Ta  Ta92  1  0.00524899  0.78307246  0.49430053  1
  Ta  Ta93  1  0.00099199  0.00695719  0.75396135  1
  Ta  Ta94  1  0.09031381  0.69528454  0.62708258  1
  Ta  Ta95  1  0.28899593  0.09334069  0.62713895  1
  Ta  Ta96  1  0.00372936  0.80441624  0.25261039  1
  Ta  Ta97  1  0.70080988  0.49950761  0.38649077  1
  Ta  Ta98  1  0.20268407  0.20293782  0.23817328  1
  Ta  Ta99  1  0.60463252  -0.00294685  0.50103404  1
  Ta  Ta100  1  0.29232378  0.51374427  0.14042836  1
  Ta  Ta101  1  0.60545887  0.41931036  0.25169997  1
  Ta  Ta102  1  0.51078645  0.50902341  0.39017656  1
  Ta  Ta103  1  0.71631231  0.91088522  0.38078673  1
  Ta  Ta104  1  0.18484787  0.19382575  0.50533710  1
  Ta  Ta105  1  0.69052183  0.69693613  0.38276983  1
  Ta  Ta106  1  0.00261547  0.61757829  0.75975610  1
  Ta  Ta107  1  0.50488321  0.10727682  0.87304145  1
  Ta  Ta108  1  0.38547475  0.61276218  0.00545527  1
  Ta  Ta109  1  0.29917872  0.50128454  0.86913910  1
  Ta  Ta110  1  -0.00114085  0.59833776  0.00895960  1
  Ta  Ta111  1  0.49737171  0.50139167  0.59625010  1
  Ta  Ta112  1  0.50246152  0.09802733  0.37754352  1
  Ta  Ta113  1  0.30239333  0.92486764  0.38912122  1
  Ta  Ta114  1  0.88665074  0.48365802  0.13419325  1
  Ta  Ta115  1  0.79816671  0.39488662  0.49612834  1
  Ta  Ta116  1  0.80565895  0.19971706  0.49108981  1
  Ta  Ta117  1  0.39624803  0.80917128  0.27127895  1
  Ta  Ta118  1  0.70091820  0.12543938  0.12730856  1
  Ta  Ta119  1  0.02895135  0.80272531  -0.01121049  1
  Ti  Ti120  1  0.90444985  0.10221271  0.86951821  1
  Ti  Ti121  1  0.09196465  0.69250544  0.36451462  1
  Ti  Ti122  1  0.80551055  0.81106352  0.25392256  1
  Ti  Ti123  1  0.09699847  0.30120340  0.13439748  1
  Ti  Ti124  1  0.89614994  0.49927195  0.36343981  1
  Ti  Ti125  1  0.59702977  0.20662360  0.74762663  1
  Ti  Ti126  1  0.09864423  0.10246094  0.63537628  1
  Ti  Ti127  1  0.29442094  0.49979780  0.61700696  1
  Ti  Ti128  1  0.30230992  0.30034462  0.87217443  1
  Ti  Ti129  1  0.50424617  0.51142610  0.13135402  1
  Ti  Ti130  1  0.20306838  -0.00741271  0.76002363  1
  Ti  Ti131  1  0.49365413  0.09430231  0.61683602  1
  Ti  Ti132  1  0.00487459  0.80180717  0.76560098  1
  Ti  Ti133  1  0.19104770  0.77144388  0.76858944  1
  Ti  Ti134  1  0.79706446  0.38890576  -0.00433967  1
  Ti  Ti135  1  0.20101759  0.18941523  0.75507305  1
  Ti  Ti136  1  0.69538502  0.30723436  0.37168532  1
  Ti  Ti137  1  0.20036588  0.80498929  0.25580585  1
  Ti  Ti138  1  0.78720826  0.20736223  -0.00985530  1
  Ti  Ti139  1  0.79173975  0.61293677  0.75439341  1
  Ti  Ti140  1  0.48863675  0.70107822  0.87831344  1
  Ti  Ti141  1  0.21615647  0.77804075  -0.01373131  1
  Ti  Ti142  1  0.29399564  0.49542407  0.37198160  1
  Ti  Ti143  1  0.69980219  0.10595399  0.87184027  1
  Ti  Ti144  1  0.81102016  0.59604402  0.49409084  1
  Ti  Ti145  1  0.09609541  0.49444736  0.13925053  1
  Ti  Ti146  1  0.90000892  0.70311103  0.88980100  1
  Ti  Ti147  1  0.09377362  0.29313090  0.64218256  1
  Ti  Ti148  1  0.88735763  0.09429269  0.13761128  1
  Ti  Ti149  1  0.19566512  0.39727826  0.50246968  1
  Ti  Ti150  1  0.90763569  0.89191127  0.38222540  1
  Ti  Ti151  1  0.89534576  0.29805653  0.86612949  1
  Ti  Ti152  1  0.80983319  0.80342026  0.75788129  1
  Ti  Ti153  1  0.59974961  0.80341922  0.49011454  1
  Ti  Ti154  1  0.81007616  0.02130230  -0.00030089  1
  Ti  Ti155  1  0.70020236  0.29913626  0.61605121  1
  Ti  Ti156  1  0.80255837  0.80261842  0.49376929  1
  Ti  Ti157  1  0.70348708  0.31320229  0.14346549  1
  Ti  Ti158  1  0.10580630  0.89782590  0.37414769  1
  Ti  Ti159  1  0.60004299  0.20366279  -0.00223631  1
  Mo  Mo160  1  0.80462578  0.79904290  0.00014907  1
  Mo  Mo161  1  0.10342332  0.89217070  0.12717432  1
  Mo  Mo162  1  0.40817388  0.19990723  -0.00033537  1
  Mo  Mo163  1  0.20363400  0.59461274  0.74930704  1
  Mo  Mo164  1  -0.00299169  0.39870000  0.75218409  1
  Mo  Mo165  1  0.00575856  0.01029733  -0.00986818  1
  Mo  Mo166  1  0.80790188  -0.00221593  0.75651871  1
  Mo  Mo167  1  0.29871098  0.69631687  0.14067621  1
  Mo  Mo168  1  0.50006856  0.70888437  0.38296595  1
  Mo  Mo169  1  0.80539900  -0.01051530  0.25088264  1
  Mo  Mo170  1  0.10569804  0.89618701  0.85986177  1
  Mo  Mo171  1  0.69659361  0.29083226  0.87724647  1
  Mo  Mo172  1  0.09617664  0.09091362  0.86373335  1
  Mo  Mo173  1  0.59741223  0.60400202  0.74641564  1
  Mo  Mo174  1  0.20683294  0.01192773  0.50480066  1
  Mo  Mo175  1  0.30065970  0.10193525  0.37112097  1
  Mo  Mo176  1  0.50716690  0.90321011  0.60929706  1
  Mo  Mo177  1  0.00167383  0.19330827  0.74774531  1
  Mo  Mo178  1  0.09831081  0.29044541  0.37023162  1
  Mo  Mo179  1  0.19936604  0.39206082  0.23617074  1
  Mo  Mo180  1  0.69806588  0.09705728  0.38894226  1
  Mo  Mo181  1  0.20139902  0.59754563  0.25546649  1
  Mo  Mo182  1  0.51011220  0.10822774  0.12399395  1
  Mo  Mo183  1  0.30357143  0.68265274  0.86736569  1
  Mo  Mo184  1  0.59855380  0.21116481  0.26535591  1
  Mo  Mo185  1  0.38794213  0.40805429  0.49533213  1
  Mo  Mo186  1  0.09379106  0.69390469  0.88015748  1
  Mo  Mo187  1  0.59586779  0.60228952  0.25504998  1
  Mo  Mo188  1  0.60658066  0.39944785  0.49618552  1
  Mo  Mo189  1  0.40152343  0.80752784  0.47845560  1
  Mo  Mo190  1  0.00046685  0.60125111  0.49201058  1
  Mo  Mo191  1  0.40200913  0.79147898  -0.00715040  1
  Mo  Mo192  1  0.69157893  0.49815134  0.12393346  1
  Mo  Mo193  1  0.79257721  0.39980697  0.26048198  1
  Mo  Mo194  1  0.60400387  0.60509761  0.49319513  1
  Mo  Mo195  1  0.29542131  0.30026257  0.12871502  1
  Mo  Mo196  1  -0.00547193  0.39426733  0.23856820  1
  Mo  Mo197  1  0.50935245  0.90106320  0.13086015  1
  Mo  Mo198  1  0.41087347  0.00870019  0.50150651  1
  Mo  Mo199  1  0.80750767  -0.00543063  0.50118458  1
