# generated using pymatgen
data_HfZrTaTiMo
_symmetry_space_group_name_H-M   'P 1'
_cell_length_a   15.21497581
_cell_length_b   15.21748464
_cell_length_c   16.83028731
_cell_angle_alpha   89.98601997
_cell_angle_beta   90.01057523
_cell_angle_gamma   89.96660033
_symmetry_Int_Tables_number   1
_chemical_formula_structural   HfZrTaTiMo
_chemical_formula_sum   'Hf40 Zr40 Ta40 Ti40 Mo40'
_cell_volume   3896.77718621
_cell_formula_units_Z   40
loop_
 _symmetry_equiv_pos_site_id
 _symmetry_equiv_pos_as_xyz
  1  'x, y, z'
loop_
 _atom_site_type_symbol
 _atom_site_label
 _atom_site_symmetry_multiplicity
 _atom_site_fract_x
 _atom_site_fract_y
 _atom_site_fract_z
 _atom_site_occupancy
  Hf  Hf0  1  0.39895645  0.18816529  0.74311779  1
  Hf  Hf1  1  0.89429466  0.10089110  0.61378904  1
  Hf  Hf2  1  -0.01856081  0.80331258  0.00797991  1
  Hf  Hf3  1  -0.00282301  0.82356017  0.49115354  1
  Hf  Hf4  1  0.01152297  0.60232195  0.23161267  1
  Hf  Hf5  1  0.80079204  0.19547015  0.75461626  1
  Hf  Hf6  1  0.30874295  0.08477100  0.87921888  1
  Hf  Hf7  1  -0.01365726  0.01232961  0.25279716  1
  Hf  Hf8  1  0.80484499  0.78239607  0.48914906  1
  Hf  Hf9  1  0.70199319  0.29991913  0.11951937  1
  Hf  Hf10  1  0.49667405  0.89684133  0.37607480  1
  Hf  Hf11  1  0.30483937  0.89119590  0.62314387  1
  Hf  Hf12  1  0.29750507  0.47970898  0.64466491  1
  Hf  Hf13  1  0.01129746  0.61922983  0.49148079  1
  Hf  Hf14  1  0.89871697  0.51561381  0.37671455  1
  Hf  Hf15  1  0.59304291  0.39265181  0.25490502  1
  Hf  Hf16  1  0.29521635  0.67849248  0.62988409  1
  Hf  Hf17  1  0.10428273  0.71133997  0.35587772  1
  Hf  Hf18  1  0.10083962  0.31508132  0.86649115  1
  Hf  Hf19  1  0.20554649  0.00117676  0.74305951  1
  Hf  Hf20  1  0.29525371  0.09653636  0.37688172  1
  Hf  Hf21  1  0.31225173  0.70897142  0.13739366  1
  Hf  Hf22  1  0.40556851  0.78703629  0.49605314  1
  Hf  Hf23  1  0.80708297  -0.01893209  -0.00461850  1
  Hf  Hf24  1  0.70129898  0.88145517  0.87335822  1
  Hf  Hf25  1  0.18748228  -0.00350109  0.50198933  1
  Hf  Hf26  1  0.18421862  0.79674539  0.74435776  1
  Hf  Hf27  1  0.50004104  0.70823050  0.86061401  1
  Hf  Hf28  1  0.61946960  0.58757397  0.25114628  1
  Hf  Hf29  1  0.80917638  0.18967445  0.24603824  1
  Hf  Hf30  1  0.49550164  0.30985140  0.62656037  1
  Hf  Hf31  1  0.91046171  0.09096680  0.11399855  1
  Hf  Hf32  1  0.41139826  0.20311127  0.24712475  1
  Hf  Hf33  1  0.28888107  0.89321584  0.36154375  1
  Hf  Hf34  1  0.20897180  0.41427067  0.49618901  1
  Hf  Hf35  1  0.91544460  0.69579279  0.63430179  1
  Hf  Hf36  1  0.29485537  0.10807560  0.12866378  1
  Hf  Hf37  1  0.19867159  0.81146360  0.00431537  1
  Hf  Hf38  1  0.08222897  0.91808714  0.12483629  1
  Hf  Hf39  1  0.59712894  0.39562758  -0.00832979  1
  Zr  Zr40  1  0.69760663  0.30162016  0.87402646  1
  Zr  Zr41  1  0.10743037  0.11123808  0.86617586  1
  Zr  Zr42  1  0.48073573  0.87656010  0.13709219  1
  Zr  Zr43  1  0.19065100  0.21250980  0.50611411  1
  Zr  Zr44  1  0.80224187  -0.00379375  0.74915165  1
  Zr  Zr45  1  0.29987515  0.68564957  0.36241756  1
  Zr  Zr46  1  0.59450562  0.00128828  0.24798824  1
  Zr  Zr47  1  0.69967525  0.29123650  0.38724021  1
  Zr  Zr48  1  0.30713600  0.50196506  0.11819851  1
  Zr  Zr49  1  0.49762612  0.51263887  0.63047307  1
  Zr  Zr50  1  0.01694430  0.40938360  0.49364159  1
  Zr  Zr51  1  0.68762227  0.08643522  0.88109776  1
  Zr  Zr52  1  0.59153680  0.19231177  0.75031346  1
  Zr  Zr53  1  0.69582612  0.88683085  0.13055780  1
  Zr  Zr54  1  0.91380201  0.09583293  0.39626688  1
  Zr  Zr55  1  0.69704852  0.68861300  0.62376926  1
  Zr  Zr56  1  0.29482725  0.29355839  0.86633030  1
  Zr  Zr57  1  0.39143839  0.21170749  0.50778225  1
  Zr  Zr58  1  0.69947771  0.49442269  0.61756291  1
  Zr  Zr59  1  0.50399317  0.50385540  0.11083456  1
  Zr  Zr60  1  0.42318820  0.60596421  0.25147271  1
  Zr  Zr61  1  0.21191676  0.61243356  -0.00618790  1
  Zr  Zr62  1  0.00983098  0.60832762  0.02327946  1
  Zr  Zr63  1  0.00693713  0.39786327  0.24633064  1
  Zr  Zr64  1  0.29970411  0.30776818  0.36551542  1
  Zr  Zr65  1  0.70791822  0.28803264  0.61743383  1
  Zr  Zr66  1  -0.00638807  0.21253700  0.74018091  1
  Zr  Zr67  1  0.90136844  0.32067244  0.88256475  1
  Zr  Zr68  1  0.80303257  0.19675541  -0.00585896  1
  Zr  Zr69  1  0.90629686  0.29854500  0.37577808  1
  Zr  Zr70  1  0.58175740  0.00362717  0.01527673  1
  Zr  Zr71  1  0.60500313  -0.00719259  0.72935456  1
  Zr  Zr72  1  0.80530530  0.61426454  0.00382117  1
  Zr  Zr73  1  0.19065523  0.78441142  0.50613435  1
  Zr  Zr74  1  0.38063832  -0.01534320  0.01022297  1
  Zr  Zr75  1  0.49401090  0.91088064  0.87104243  1
  Zr  Zr76  1  0.70107797  0.09387387  0.39090475  1
  Zr  Zr77  1  0.79344447  0.40784830  0.24905679  1
  Zr  Zr78  1  0.49989907  0.10202299  0.39290382  1
  Zr  Zr79  1  0.60039381  0.78946643  0.00103407  1
  Ta  Ta80  1  0.50200715  0.50326859  0.38438833  1
  Ta  Ta81  1  0.39252463  0.60010252  0.76936747  1
  Ta  Ta82  1  0.59183705  0.39778037  0.49896133  1
  Ta  Ta83  1  0.20035724  0.41211204  0.24528077  1
  Ta  Ta84  1  0.19013461  0.59672995  0.76696617  1
  Ta  Ta85  1  0.90237257  0.50325448  0.61405357  1
  Ta  Ta86  1  0.28022942  0.90167857  0.14749522  1
  Ta  Ta87  1  0.80477017  -0.02532081  0.49803138  1
  Ta  Ta88  1  0.90543237  0.29784143  0.11822750  1
  Ta  Ta89  1  0.49814265  0.09049072  0.60363996  1
  Ta  Ta90  1  0.58826623  0.19679338  0.00074178  1
  Ta  Ta91  1  0.40699170  -0.00647860  0.73936351  1
  Ta  Ta92  1  0.10793438  0.32713289  0.63919070  1
  Ta  Ta93  1  0.79539583  -0.01047366  0.26221579  1
  Ta  Ta94  1  0.79965184  0.79269886  0.74357293  1
  Ta  Ta95  1  0.70266248  0.09571091  0.12284562  1
  Ta  Ta96  1  0.60569606  -0.02188327  0.50714457  1
  Ta  Ta97  1  0.81318079  0.58323324  0.75525656  1
  Ta  Ta98  1  0.09741607  0.10039393  0.62827126  1
  Ta  Ta99  1  0.08842865  0.92033226  0.36613050  1
  Ta  Ta100  1  0.00143402  0.21566469  0.51726339  1
  Ta  Ta101  1  0.90508932  0.69595341  0.86480060  1
  Ta  Ta102  1  0.78772119  0.79403723  0.27236176  1
  Ta  Ta103  1  0.90277636  0.89657669  0.62920245  1
  Ta  Ta104  1  0.00121345  0.40596310  0.01239476  1
  Ta  Ta105  1  0.18333661  0.02007211  0.25083545  1
  Ta  Ta106  1  -0.00717176  0.43194014  0.74663022  1
  Ta  Ta107  1  0.20751657  0.21030222  0.00425976  1
  Ta  Ta108  1  0.08319788  0.50995568  0.88094070  1
  Ta  Ta109  1  0.71471442  0.49872215  0.87898793  1
  Ta  Ta110  1  0.39495569  0.39271543  -0.01404687  1
  Ta  Ta111  1  0.70140218  0.49753237  0.39744552  1
  Ta  Ta112  1  0.09594103  0.90868358  0.88068899  1
  Ta  Ta113  1  0.01548418  0.19987718  0.00126113  1
  Ta  Ta114  1  0.00437337  -0.00554412  0.74723983  1
  Ta  Ta115  1  -0.01634567  0.80579041  0.24915431  1
  Ta  Ta116  1  0.10342602  0.52943312  0.62747582  1
  Ta  Ta117  1  0.19331357  0.40443227  0.00195196  1
  Ta  Ta118  1  0.40783962  0.19563122  0.00040601  1
  Ta  Ta119  1  0.58988656  0.77768300  0.26219633  1
  Ti  Ti120  1  0.50141360  0.89023235  0.61755458  1
  Ti  Ti121  1  0.70779803  0.69267467  0.86603488  1
  Ti  Ti122  1  0.60619163  0.59368500  0.75711995  1
  Ti  Ti123  1  0.01428942  0.19938976  0.24740349  1
  Ti  Ti124  1  0.59660236  0.60308056  -0.00862426  1
  Ti  Ti125  1  0.19394102  0.21204185  0.25133141  1
  Ti  Ti126  1  0.80471834  0.39818705  0.74337445  1
  Ti  Ti127  1  0.39482741  0.77631612  -0.00479354  1
  Ti  Ti128  1  0.50284035  0.49920292  0.87642550  1
  Ti  Ti129  1  0.09426883  0.71259603  0.87680195  1
  Ti  Ti130  1  0.30321938  0.30813209  0.12521453  1
  Ti  Ti131  1  0.60409253  0.19498777  0.24240775  1
  Ti  Ti132  1  0.49155969  0.70012846  0.63809248  1
  Ti  Ti133  1  0.50383525  0.29913794  0.38321750  1
  Ti  Ti134  1  0.30129872  0.87905906  0.86197111  1
  Ti  Ti135  1  0.91348041  0.09246425  0.88002864  1
  Ti  Ti136  1  0.30329352  0.09443503  0.61512431  1
  Ti  Ti137  1  0.80881797  0.60902480  0.24551742  1
  Ti  Ti138  1  0.81329078  0.39098452  0.50525696  1
  Ti  Ti139  1  0.69980376  0.09187440  0.60389897  1
  Ti  Ti140  1  0.40207925  0.40520267  0.25348880  1
  Ti  Ti141  1  0.60066500  0.80009147  0.73759857  1
  Ti  Ti142  1  0.39127655  0.59048828  0.49441553  1
  Ti  Ti143  1  0.60126824  0.40157282  0.76035659  1
  Ti  Ti144  1  0.70374796  0.49865397  0.11007807  1
  Ti  Ti145  1  0.60556452  0.79010832  0.49776820  1
  Ti  Ti146  1  0.49455024  0.29960868  0.12129359  1
  Ti  Ti147  1  0.10666413  0.30134244  0.12294138  1
  Ti  Ti148  1  0.69815494  0.68038925  0.38557606  1
  Ti  Ti149  1  0.89421130  0.49623404  0.12457941  1
  Ti  Ti150  1  0.90478960  0.89018475  0.86728804  1
  Ti  Ti151  1  0.39501368  0.00392148  0.24545042  1
  Ti  Ti152  1  0.40521412  0.39475335  0.76766257  1
  Ti  Ti153  1  0.12415854  0.51283386  0.36684926  1
  Ti  Ti154  1  0.18160233  0.01534919  0.00756954  1
  Ti  Ti155  1  0.88022880  0.89065589  0.13185179  1
  Ti  Ti156  1  0.39815905  0.40568670  0.49648744  1
  Ti  Ti157  1  0.29294182  0.49810444  0.87572426  1
  Ti  Ti158  1  0.70151748  0.69825331  0.12755890  1
  Ti  Ti159  1  0.20499485  0.20757083  0.73099067  1
  Mo  Mo160  1  0.10199578  0.29814177  0.36867665  1
  Mo  Mo161  1  0.10102158  0.11493865  0.12162161  1
  Mo  Mo162  1  0.80511349  0.59278169  0.50060322  1
  Mo  Mo163  1  0.90076130  0.50575201  0.88157012  1
  Mo  Mo164  1  0.80569444  0.19851153  0.50698893  1
  Mo  Mo165  1  0.50959392  0.69261668  0.38521314  1
  Mo  Mo166  1  0.88779477  0.70985803  0.14061473  1
  Mo  Mo167  1  0.10716649  0.49668837  0.11971185  1
  Mo  Mo168  1  0.10137580  0.70706580  0.62700663  1
  Mo  Mo169  1  0.51050264  0.69420558  0.11968476  1
  Mo  Mo170  1  0.70536273  0.88797164  0.61847744  1
  Mo  Mo171  1  0.10142251  0.11851431  0.37706159  1
  Mo  Mo172  1  0.58827189  0.60310374  0.49865778  1
  Mo  Mo173  1  0.90195768  0.69868264  0.36231230  1
  Mo  Mo174  1  -0.00043743  0.00151170  -0.01306651  1
  Mo  Mo175  1  0.00423701  0.61188550  0.75416583  1
  Mo  Mo176  1  0.40088436  0.79997866  0.74087117  1
  Mo  Mo177  1  0.69266397  0.88927533  0.37572600  1
  Mo  Mo178  1  0.49329466  0.10063218  0.87458734  1
  Mo  Mo179  1  0.90661531  0.31423789  0.62548515  1
  Mo  Mo180  1  -0.00488687  0.80890973  0.75694103  1
  Mo  Mo181  1  0.39959118  0.80571934  0.25897188  1
  Mo  Mo182  1  0.80414585  0.40809788  0.01031847  1
  Mo  Mo183  1  0.09040639  0.90634057  0.62787047  1
  Mo  Mo184  1  0.40912528  0.59773606  -0.02490753  1
  Mo  Mo185  1  0.29592466  0.70392108  0.86741605  1
  Mo  Mo186  1  0.19076981  0.40929462  0.75895509  1
  Mo  Mo187  1  0.20308230  0.59715765  0.23644664  1
  Mo  Mo188  1  0.20169687  0.59168471  0.49845447  1
  Mo  Mo189  1  0.59787339  0.19785305  0.50853699  1
  Mo  Mo190  1  0.00540826  0.00589651  0.50668637  1
  Mo  Mo191  1  0.30858900  0.49876698  0.36637023  1
  Mo  Mo192  1  0.39781818  -0.01021003  0.50643406  1
  Mo  Mo193  1  0.89417602  0.90123014  0.37170365  1
  Mo  Mo194  1  0.29943000  0.30345569  0.63797137  1
  Mo  Mo195  1  0.49445068  0.29901973  0.87509838  1
  Mo  Mo196  1  0.80030878  0.79126546  -0.00578108  1
  Mo  Mo197  1  0.49925815  0.10767759  0.13052877  1
  Mo  Mo198  1  0.10833906  0.71716272  0.13674038  1
  Mo  Mo199  1  0.18383219  0.80786155  0.24282949  1
