# generated using pymatgen
data_HfZrTaTiMo
_symmetry_space_group_name_H-M   'P 1'
_cell_length_a   15.21506927
_cell_length_b   15.21012087
_cell_length_c   16.85765045
_cell_angle_alpha   90.02240058
_cell_angle_beta   89.99182232
_cell_angle_gamma   90.13133023
_symmetry_Int_Tables_number   1
_chemical_formula_structural   HfZrTaTiMo
_chemical_formula_sum   'Hf40 Zr40 Ta40 Ti40 Mo40'
_cell_volume   3901.23817501
_cell_formula_units_Z   40
loop_
 _symmetry_equiv_pos_site_id
 _symmetry_equiv_pos_as_xyz
  1  'x, y, z'
loop_
 _atom_site_type_symbol
 _atom_site_label
 _atom_site_symmetry_multiplicity
 _atom_site_fract_x
 _atom_site_fract_y
 _atom_site_fract_z
 _atom_site_occupancy
  Hf  Hf0  1  0.29381601  0.30578388  0.60375588  1
  Hf  Hf1  1  0.39926628  0.61391334  0.49215393  1
  Hf  Hf2  1  0.11480390  0.49731203  0.62107972  1
  Hf  Hf3  1  -0.01058275  0.80695556  -0.00826420  1
  Hf  Hf4  1  0.41272182  0.79137264  -0.00040054  1
  Hf  Hf5  1  0.58911432  -0.00637350  0.73779216  1
  Hf  Hf6  1  -0.00274276  0.78848564  0.50368990  1
  Hf  Hf7  1  0.07913165  0.89428611  0.13823390  1
  Hf  Hf8  1  0.08795394  0.10357193  0.13777409  1
  Hf  Hf9  1  0.47714361  0.10191251  0.88094059  1
  Hf  Hf10  1  0.70313935  0.52151948  0.88260557  1
  Hf  Hf11  1  0.30156509  0.88802676  0.14154805  1
  Hf  Hf12  1  0.20506808  0.78518506  0.49503954  1
  Hf  Hf13  1  -0.01169902  -0.01636005  0.49366390  1
  Hf  Hf14  1  0.49527335  0.30427293  0.86868403  1
  Hf  Hf15  1  0.51744467  0.28671937  0.37061664  1
  Hf  Hf16  1  0.10691572  0.50882377  0.88854153  1
  Hf  Hf17  1  0.81029056  0.61256796  0.25901520  1
  Hf  Hf18  1  0.19309263  0.00392174  0.00494934  1
  Hf  Hf19  1  0.39856632  0.59307596  0.25196466  1
  Hf  Hf20  1  -0.00081785  0.39496101  -0.00180331  1
  Hf  Hf21  1  0.41143433  0.38583232  0.00915359  1
  Hf  Hf22  1  0.86551772  0.08768054  0.38861303  1
  Hf  Hf23  1  0.09205759  0.29124935  0.62514568  1
  Hf  Hf24  1  0.80965760  0.40695591  0.75652130  1
  Hf  Hf25  1  0.81628196  0.60767883  0.49390142  1
  Hf  Hf26  1  0.41633293  0.59773741  0.74706624  1
  Hf  Hf27  1  0.31489698  0.48317058  0.88142410  1
  Hf  Hf28  1  0.18279067  -0.02036279  0.74811510  1
  Hf  Hf29  1  0.89751440  0.71412143  0.12554662  1
  Hf  Hf30  1  0.29294271  0.70312293  0.35772372  1
  Hf  Hf31  1  0.20325967  0.00706642  0.25867072  1
  Hf  Hf32  1  0.91405865  0.50779269  0.36914966  1
  Hf  Hf33  1  0.28950756  0.89049667  0.62403093  1
  Hf  Hf34  1  0.21369525  0.38555184  0.75705576  1
  Hf  Hf35  1  0.60065883  0.60053821  0.47948830  1
  Hf  Hf36  1  0.09609418  0.08398007  0.61410670  1
  Hf  Hf37  1  0.41480440  0.39884438  0.49176064  1
  Hf  Hf38  1  0.70677094  0.51986939  0.12665725  1
  Hf  Hf39  1  0.39536141  0.20311635  0.73797649  1
  Zr  Zr40  1  0.32096487  0.89832179  0.36812974  1
  Zr  Zr41  1  0.29412005  0.49991956  0.38546749  1
  Zr  Zr42  1  0.40289263  -0.00435558  0.01245157  1
  Zr  Zr43  1  0.09017884  0.09489173  0.37219264  1
  Zr  Zr44  1  0.20829670  0.38297393  0.00375760  1
  Zr  Zr45  1  0.72301009  0.91181603  0.13265866  1
  Zr  Zr46  1  0.88689108  0.11439514  0.61295348  1
  Zr  Zr47  1  -0.01642358  0.20074002  0.26251279  1
  Zr  Zr48  1  0.00308450  0.40272829  0.75811505  1
  Zr  Zr49  1  0.71119556  0.30268281  0.62065245  1
  Zr  Zr50  1  0.58421927  0.20095494  0.01131126  1
  Zr  Zr51  1  -0.00123771  0.39969799  0.49748835  1
  Zr  Zr52  1  0.29717917  0.68045476  0.12538479  1
  Zr  Zr53  1  0.30010348  0.69233863  0.88287683  1
  Zr  Zr54  1  0.20852443  0.59578376  0.75008605  1
  Zr  Zr55  1  0.20601802  0.40648967  0.24436803  1
  Zr  Zr56  1  0.79407944  0.61054961  0.74405524  1
  Zr  Zr57  1  0.60955456  0.80108908  -0.01196457  1
  Zr  Zr58  1  0.77265303  0.19896133  0.24821466  1
  Zr  Zr59  1  0.80237855  0.40285097  -0.00123230  1
  Zr  Zr60  1  0.41360541  -0.00555925  0.24531863  1
  Zr  Zr61  1  0.79780891  0.18981449  0.00277228  1
  Zr  Zr62  1  0.39504891  0.18747656  0.26395864  1
  Zr  Zr63  1  0.10174653  0.28002727  0.87955803  1
  Zr  Zr64  1  -0.01090272  0.20741754  0.48717526  1
  Zr  Zr65  1  0.68932396  0.09534979  0.87122025  1
  Zr  Zr66  1  0.09530428  0.87619670  0.36002129  1
  Zr  Zr67  1  0.67070327  0.12234458  0.39972627  1
  Zr  Zr68  1  0.38903569  0.00758475  0.73948053  1
  Zr  Zr69  1  0.70714958  0.70916022  0.61334175  1
  Zr  Zr70  1  0.20269344  0.18017997  0.74625178  1
  Zr  Zr71  1  0.51021568  0.70483068  0.62238204  1
  Zr  Zr72  1  0.40459423  0.80525140  0.76011512  1
  Zr  Zr73  1  0.91109268  0.51020890  0.11908607  1
  Zr  Zr74  1  0.19498129  0.79535200  0.00902757  1
  Zr  Zr75  1  0.60392762  0.40783700  0.74653297  1
  Zr  Zr76  1  0.01161867  0.81249932  0.74783971  1
  Zr  Zr77  1  0.60648069  0.02693426  0.24515869  1
  Zr  Zr78  1  0.70763043  0.72064088  0.37157062  1
  Zr  Zr79  1  0.60100849  0.40928913  0.00699919  1
  Ta  Ta80  1  0.41442097  0.81583356  0.50240690  1
  Ta  Ta81  1  0.09354568  0.69920260  0.87456807  1
  Ta  Ta82  1  0.50848393  0.49911219  0.61472270  1
  Ta  Ta83  1  0.11150567  0.51418009  0.11036966  1
  Ta  Ta84  1  0.40384846  0.40266637  0.73545905  1
  Ta  Ta85  1  0.70421537  0.92436816  0.38011965  1
  Ta  Ta86  1  0.09714411  0.29795688  0.12686591  1
  Ta  Ta87  1  0.41780630  0.59162523  0.00570144  1
  Ta  Ta88  1  0.11180305  0.70575658  0.63267281  1
  Ta  Ta89  1  0.30035164  0.10194877  0.59534306  1
  Ta  Ta90  1  0.50431077  0.50175715  0.13792394  1
  Ta  Ta91  1  0.19466127  0.20936722  0.26414544  1
  Ta  Ta92  1  0.01194680  0.60197784  0.50932234  1
  Ta  Ta93  1  0.20047609  -0.01005850  0.48829528  1
  Ta  Ta94  1  0.68697209  0.10523917  0.61336750  1
  Ta  Ta95  1  0.50722716  0.51031802  0.87433693  1
  Ta  Ta96  1  0.69043950  0.71794924  0.14104057  1
  Ta  Ta97  1  0.79851675  0.00694797  0.73937499  1
  Ta  Ta98  1  0.90080639  0.09606821  0.86830610  1
  Ta  Ta99  1  -0.00062729  0.60207624  0.74733863  1
  Ta  Ta100  1  0.00770429  0.40297281  0.24649726  1
  Ta  Ta101  1  0.29500220  0.10671813  0.12727370  1
  Ta  Ta102  1  0.61069274  0.39953090  0.24660267  1
  Ta  Ta103  1  0.89667711  0.29000063  0.87510492  1
  Ta  Ta104  1  0.49299748  0.29486738  0.14053257  1
  Ta  Ta105  1  0.69802267  0.29910990  0.87170401  1
  Ta  Ta106  1  0.60600585  0.00043862  0.00954349  1
  Ta  Ta107  1  0.89758069  0.90395816  0.63244006  1
  Ta  Ta108  1  -0.01054465  0.00307347  -0.00028878  1
  Ta  Ta109  1  0.79516280  0.20303432  0.75190596  1
  Ta  Ta110  1  0.50206651  0.29612274  0.61688739  1
  Ta  Ta111  1  0.61089067  0.78379552  0.76476148  1
  Ta  Ta112  1  0.51823706  0.88179948  0.13221780  1
  Ta  Ta113  1  0.59804905  0.61157413  0.25704532  1
  Ta  Ta114  1  -0.01004426  0.19137493  0.74788628  1
  Ta  Ta115  1  0.88678803  0.08263485  0.13078421  1
  Ta  Ta116  1  0.80779509  0.40049512  0.24392422  1
  Ta  Ta117  1  0.89067792  0.70722799  0.86949237  1
  Ta  Ta118  1  0.90398216  0.29260283  0.12842048  1
  Ta  Ta119  1  0.70011864  0.50817476  0.61345335  1
  Ti  Ti120  1  0.61386169  0.39687057  0.49284906  1
  Ti  Ti121  1  0.30700366  0.50232304  0.61004505  1
  Ti  Ti122  1  0.30239515  0.69574893  0.62788819  1
  Ti  Ti123  1  0.69862405  0.89736925  0.62846442  1
  Ti  Ti124  1  0.58210493  -0.00858999  0.51822984  1
  Ti  Ti125  1  0.70731504  0.49287573  0.36792635  1
  Ti  Ti126  1  0.29629322  0.28798643  0.12900758  1
  Ti  Ti127  1  0.90181779  0.90942281  0.85807092  1
  Ti  Ti128  1  0.09515587  0.08981259  0.87506515  1
  Ti  Ti129  1  0.19158031  0.20361433  0.48046441  1
  Ti  Ti130  1  0.17674342  0.76812161  0.23470444  1
  Ti  Ti131  1  0.59478455  0.19705445  0.74254674  1
  Ti  Ti132  1  0.01896331  0.60601757  0.24455321  1
  Ti  Ti133  1  -0.02918826  -0.01974753  0.26171037  1
  Ti  Ti134  1  0.90608981  0.52095269  0.88840641  1
  Ti  Ti135  1  0.80543757  0.40092601  0.49785795  1
  Ti  Ti136  1  0.50862793  0.49456616  0.36419988  1
  Ti  Ti137  1  0.71380111  0.89706191  0.86307531  1
  Ti  Ti138  1  0.47748776  0.08354720  0.40292579  1
  Ti  Ti139  1  0.60253364  0.61601596  0.00695636  1
  Ti  Ti140  1  0.09724229  0.67731178  0.37571184  1
  Ti  Ti141  1  0.80710569  0.81706628  0.49639777  1
  Ti  Ti142  1  0.40274403  0.39242797  0.25378097  1
  Ti  Ti143  1  0.80392134  -0.00843116  -0.00841286  1
  Ti  Ti144  1  0.10042821  0.89805338  0.87962188  1
  Ti  Ti145  1  -0.00089358  0.19075159  0.00279813  1
  Ti  Ti146  1  0.88478669  0.30687638  0.36979263  1
  Ti  Ti147  1  0.49777698  0.72359713  0.36653183  1
  Ti  Ti148  1  0.29607654  0.90558222  0.87577095  1
  Ti  Ti149  1  0.30676993  0.49120429  0.11878403  1
  Ti  Ti150  1  0.90215068  0.49753575  0.62373545  1
  Ti  Ti151  1  0.50824982  0.90450032  0.87602119  1
  Ti  Ti152  1  0.69959044  0.30443862  0.12346961  1
  Ti  Ti153  1  0.29491152  0.30012527  0.38306419  1
  Ti  Ti154  1  0.60276263  0.81257303  0.49401125  1
  Ti  Ti155  1  0.79707520  0.80100280  -0.00356957  1
  Ti  Ti156  1  0.30459229  0.26377287  0.88830486  1
  Ti  Ti157  1  0.81627288  0.82203051  0.26029213  1
  Ti  Ti158  1  0.90469746  0.70390519  0.63354060  1
  Ti  Ti159  1  0.10866984  0.49463461  0.38205594  1
  Mo  Mo160  1  0.19757590  0.60313915  0.50676416  1
  Mo  Mo161  1  0.42156258  0.78828894  0.24247017  1
  Mo  Mo162  1  0.49574539  0.10410787  0.61309048  1
  Mo  Mo163  1  0.70286479  0.31690978  0.37620937  1
  Mo  Mo164  1  0.38531433  0.19603303  0.01152801  1
  Mo  Mo165  1  0.59494257  0.21060379  0.23518429  1
  Mo  Mo166  1  0.39644514  -0.00795227  0.51157689  1
  Mo  Mo167  1  -0.00631724  0.00887142  0.74799870  1
  Mo  Mo168  1  0.79950751  0.00950702  0.25795110  1
  Mo  Mo169  1  0.90073361  0.30863394  0.63467641  1
  Mo  Mo170  1  0.50921520  0.68984661  0.87607013  1
  Mo  Mo171  1  0.09731094  0.89428563  0.61507358  1
  Mo  Mo172  1  0.88862075  0.89305648  0.38263092  1
  Mo  Mo173  1  0.50600427  0.89494803  0.62988386  1
  Mo  Mo174  1  0.79678327  0.62542230  -0.00031578  1
  Mo  Mo175  1  0.70030497  0.10424821  0.11280532  1
  Mo  Mo176  1  -0.00958535  0.78525511  0.25621114  1
  Mo  Mo177  1  0.39447283  0.20035649  0.49094163  1
  Mo  Mo178  1  0.08850849  0.68917833  0.11379321  1
  Mo  Mo179  1  0.20057295  0.39699690  0.49640899  1
  Mo  Mo180  1  0.51078673  0.69271894  0.13194613  1
  Mo  Mo181  1  0.60159769  0.59600674  0.74365415  1
  Mo  Mo182  1  0.28463549  0.09098332  0.88047754  1
  Mo  Mo183  1  0.49543084  0.09728791  0.11863040  1
  Mo  Mo184  1  0.20831569  0.59463512  -0.00508175  1
  Mo  Mo185  1  0.19063477  0.18927014  0.01026548  1
  Mo  Mo186  1  0.51885544  0.90338179  0.37794648  1
  Mo  Mo187  1  0.80109465  0.81264039  0.74796222  1
  Mo  Mo188  1  0.29458181  0.10185588  0.39344913  1
  Mo  Mo189  1  0.60460263  0.81461085  0.25820236  1
  Mo  Mo190  1  0.09856832  0.31044796  0.36706318  1
  Mo  Mo191  1  0.20288381  0.79463196  0.75938298  1
  Mo  Mo192  1  0.91492921  0.70298922  0.37264532  1
  Mo  Mo193  1  0.90146276  0.90474662  0.12283450  1
  Mo  Mo194  1  0.70620159  0.70454926  0.87554445  1
  Mo  Mo195  1  0.77998934  -0.00667882  0.51898054  1
  Mo  Mo196  1  0.58750263  0.20921071  0.50996307  1
  Mo  Mo197  1  -0.00048101  0.61176345  -0.00629381  1
  Mo  Mo198  1  0.19110440  0.58908358  0.24778006  1
  Mo  Mo199  1  0.79078737  0.21892272  0.49847078  1
