# generated using pymatgen
data_HfZrTaTiMo
_symmetry_space_group_name_H-M   'P 1'
_cell_length_a   15.21194793
_cell_length_b   15.20339428
_cell_length_c   16.86893887
_cell_angle_alpha   90.03151117
_cell_angle_beta   89.99753343
_cell_angle_gamma   89.93985882
_symmetry_Int_Tables_number   1
_chemical_formula_structural   HfZrTaTiMo
_chemical_formula_sum   'Hf40 Zr40 Ta40 Ti40 Mo40'
_cell_volume   3901.33144007
_cell_formula_units_Z   40
loop_
 _symmetry_equiv_pos_site_id
 _symmetry_equiv_pos_as_xyz
  1  'x, y, z'
loop_
 _atom_site_type_symbol
 _atom_site_label
 _atom_site_symmetry_multiplicity
 _atom_site_fract_x
 _atom_site_fract_y
 _atom_site_fract_z
 _atom_site_occupancy
  Hf  Hf0  1  0.10377702  0.69360088  0.14241073  1
  Hf  Hf1  1  0.80407841  0.58976144  0.75169483  1
  Hf  Hf2  1  0.50790283  0.31241703  0.14168529  1
  Hf  Hf3  1  0.79875117  0.01505611  0.49856973  1
  Hf  Hf4  1  0.29183572  0.70701542  0.87771254  1
  Hf  Hf5  1  0.49509230  0.07824725  0.37813569  1
  Hf  Hf6  1  0.49386617  0.67929564  0.62949417  1
  Hf  Hf7  1  0.18504503  0.39519898  0.73870229  1
  Hf  Hf8  1  0.77537382  0.61506675  0.24385505  1
  Hf  Hf9  1  0.40447007  0.58584564  0.49627205  1
  Hf  Hf10  1  0.19830992  -0.00151169  0.00685124  1
  Hf  Hf11  1  0.69381993  0.90805781  0.61841011  1
  Hf  Hf12  1  0.19231194  0.20589818  0.01422374  1
  Hf  Hf13  1  0.00269827  0.39392196  0.47470487  1
  Hf  Hf14  1  0.61143287  0.38532968  0.75095209  1
  Hf  Hf15  1  0.09912844  0.12528123  0.36278411  1
  Hf  Hf16  1  0.41034271  0.20867983  0.00919438  1
  Hf  Hf17  1  0.09305343  0.30534073  0.88382981  1
  Hf  Hf18  1  0.92015595  0.31193763  0.62399377  1
  Hf  Hf19  1  0.50209482  0.89682727  0.62521752  1
  Hf  Hf20  1  0.31464139  0.71055436  0.38082221  1
  Hf  Hf21  1  0.70918800  0.08476017  0.12981498  1
  Hf  Hf22  1  0.10778645  0.70601470  0.61979912  1
  Hf  Hf23  1  0.59126267  0.58924640  0.75741169  1
  Hf  Hf24  1  0.88957970  0.49813974  0.61064601  1
  Hf  Hf25  1  0.81032485  0.80124834  0.50601102  1
  Hf  Hf26  1  0.49685886  0.09410477  0.14133738  1
  Hf  Hf27  1  0.71130213  0.30413586  0.61288209  1
  Hf  Hf28  1  0.21328952  0.80262762  0.25611178  1
  Hf  Hf29  1  0.89146619  0.70268688  0.36708363  1
  Hf  Hf30  1  0.89468263  0.49655678  0.13007856  1
  Hf  Hf31  1  0.31648872  0.90810810  0.12527459  1
  Hf  Hf32  1  0.30573263  0.30707806  0.88262241  1
  Hf  Hf33  1  0.90090434  0.11684501  0.87435475  1
  Hf  Hf34  1  0.19166007  0.60554672  -0.00382902  1
  Hf  Hf35  1  0.70067702  0.70292988  0.87439100  1
  Hf  Hf36  1  0.29866530  0.90745424  0.86772818  1
  Hf  Hf37  1  0.82180009  0.21018695  0.49186136  1
  Hf  Hf38  1  0.70328585  0.89974274  0.38806293  1
  Hf  Hf39  1  0.89975638  0.91134525  0.12303051  1
  Zr  Zr40  1  0.00371899  0.01164223  0.49617163  1
  Zr  Zr41  1  0.60626804  -0.01799944  0.25618151  1
  Zr  Zr42  1  0.79352142  0.00425155  0.75803466  1
  Zr  Zr43  1  0.58218093  0.39844109  0.49616543  1
  Zr  Zr44  1  0.60566464  0.19165813  0.00276422  1
  Zr  Zr45  1  0.40332175  0.39370344  0.73557467  1
  Zr  Zr46  1  0.50598801  0.87179626  0.39398625  1
  Zr  Zr47  1  0.00548705  0.78400656  0.75683055  1
  Zr  Zr48  1  0.30289983  0.10663623  0.88194516  1
  Zr  Zr49  1  0.20925100  0.01183583  0.24579889  1
  Zr  Zr50  1  0.48621211  0.29272141  0.36672506  1
  Zr  Zr51  1  0.60323878  -0.01049156  -0.01211436  1
  Zr  Zr52  1  0.28062675  0.31533108  0.37836812  1
  Zr  Zr53  1  0.89513385  0.89554816  0.87732105  1
  Zr  Zr54  1  0.91014542  0.09944261  0.63503362  1
  Zr  Zr55  1  0.38552698  0.78797920  0.73957370  1
  Zr  Zr56  1  0.69461222  0.70055154  0.61826742  1
  Zr  Zr57  1  -0.00074820  0.00643911  0.00033828  1
  Zr  Zr58  1  0.11111488  0.90913441  0.37525713  1
  Zr  Zr59  1  0.00983314  0.79988975  0.49262206  1
  Zr  Zr60  1  0.10354685  0.91828992  0.63773562  1
  Zr  Zr61  1  0.30642638  0.70982617  0.11955174  1
  Zr  Zr62  1  0.01011137  0.21885253  0.75186707  1
  Zr  Zr63  1  0.79473198  0.39400119  0.24621611  1
  Zr  Zr64  1  0.60768312  0.18595662  0.48515684  1
  Zr  Zr65  1  0.08556258  0.50285782  0.62159547  1
  Zr  Zr66  1  0.30415719  0.11742021  0.38061271  1
  Zr  Zr67  1  0.29503676  0.49970656  0.86813114  1
  Zr  Zr68  1  0.79646989  0.79604524  0.74467477  1
  Zr  Zr69  1  0.88768778  0.71484711  0.12785598  1
  Zr  Zr70  1  0.68694326  0.50244213  0.61196014  1
  Zr  Zr71  1  0.68585940  0.50713715  0.37777863  1
  Zr  Zr72  1  -0.00107653  0.59494526  0.00508326  1
  Zr  Zr73  1  0.00713948  0.58344663  0.26026186  1
  Zr  Zr74  1  0.51093516  0.89255685  0.12619079  1
  Zr  Zr75  1  0.78965559  0.21041722  0.75267326  1
  Zr  Zr76  1  0.01328118  0.79739719  -0.00507264  1
  Zr  Zr77  1  0.50536768  0.69421047  0.12257175  1
  Zr  Zr78  1  0.48592406  0.09997133  0.62118676  1
  Zr  Zr79  1  0.59936150  0.59259316  -0.00119210  1
  Ta  Ta80  1  0.61303150  0.19800734  0.26182325  1
  Ta  Ta81  1  -0.00417995  0.00595607  0.24720827  1
  Ta  Ta82  1  0.70668445  0.29448152  0.88460119  1
  Ta  Ta83  1  0.49364322  0.69545550  0.86918868  1
  Ta  Ta84  1  0.30203500  0.50971415  0.12199528  1
  Ta  Ta85  1  0.09388820  0.09821014  0.13059145  1
  Ta  Ta86  1  0.39170728  0.41448064  0.24712342  1
  Ta  Ta87  1  0.68769323  0.10579619  0.62679062  1
  Ta  Ta88  1  0.19956756  0.60400425  0.49804090  1
  Ta  Ta89  1  0.58927327  0.39250026  -0.00321506  1
  Ta  Ta90  1  0.31739199  0.91586409  0.38170853  1
  Ta  Ta91  1  -0.00838615  0.20492614  0.01697071  1
  Ta  Ta92  1  0.50215426  0.10458859  0.86093119  1
  Ta  Ta93  1  0.19231696  0.22397719  0.22897984  1
  Ta  Ta94  1  0.89919368  0.68660713  0.88416129  1
  Ta  Ta95  1  0.19068670  0.42094941  0.23887508  1
  Ta  Ta96  1  0.00457762  0.38708277  0.25451411  1
  Ta  Ta97  1  0.70375939  0.48759602  0.88291193  1
  Ta  Ta98  1  0.71353079  0.87344174  0.12288697  1
  Ta  Ta99  1  0.62024077  0.77410925  0.25325193  1
  Ta  Ta100  1  0.21863229  0.19563397  0.74877563  1
  Ta  Ta101  1  0.40039980  0.59256292  -0.00482631  1
  Ta  Ta102  1  0.71198883  0.30159667  0.37424964  1
  Ta  Ta103  1  0.49370916  0.48754802  0.87600314  1
  Ta  Ta104  1  0.89741789  0.48715439  0.88751412  1
  Ta  Ta105  1  0.49981338  0.89554747  0.85873996  1
  Ta  Ta106  1  0.10777861  0.90116852  0.85905105  1
  Ta  Ta107  1  -0.00996344  0.20476567  0.22853326  1
  Ta  Ta108  1  -0.00062821  0.39604205  0.01329029  1
  Ta  Ta109  1  0.30009254  0.27968776  0.61546430  1
  Ta  Ta110  1  0.39254821  0.60460815  0.25417048  1
  Ta  Ta111  1  0.19797533  0.61735022  0.74919954  1
  Ta  Ta112  1  0.30060324  0.51331719  0.63060294  1
  Ta  Ta113  1  0.90856003  0.68928718  0.61811636  1
  Ta  Ta114  1  0.10292441  0.09748627  0.86773689  1
  Ta  Ta115  1  -0.00076970  0.80763396  0.25713463  1
  Ta  Ta116  1  0.41145779  0.80488172  -0.01172364  1
  Ta  Ta117  1  0.11175976  0.69176177  0.36842005  1
  Ta  Ta118  1  0.40908414  0.00265270  -0.00653363  1
  Ta  Ta119  1  0.90572803  0.89835416  0.63211077  1
  Ti  Ti120  1  0.29582488  0.90747739  0.62705630  1
  Ti  Ti121  1  0.20929585  0.81008809  0.49762151  1
  Ti  Ti122  1  0.67847227  0.48891245  0.12523805  1
  Ti  Ti123  1  0.79102347  -0.00351597  -0.01192678  1
  Ti  Ti124  1  0.58105051  0.58038293  0.24248189  1
  Ti  Ti125  1  0.38990354  0.20243482  0.24330321  1
  Ti  Ti126  1  0.90403279  0.90585541  0.37122572  1
  Ti  Ti127  1  0.39678519  0.79338626  0.51513661  1
  Ti  Ti128  1  0.30432750  0.10383390  0.12446886  1
  Ti  Ti129  1  0.11643580  0.11540622  0.63201688  1
  Ti  Ti130  1  0.48844557  0.49524756  0.36837619  1
  Ti  Ti131  1  0.41924169  0.80394414  0.25634094  1
  Ti  Ti132  1  0.68541754  0.70297400  0.39320333  1
  Ti  Ti133  1  0.80398359  0.19617300  0.00710770  1
  Ti  Ti134  1  0.60860718  0.79690067  -0.00797589  1
  Ti  Ti135  1  0.90000108  0.10678073  0.36648149  1
  Ti  Ti136  1  0.88702998  0.48900739  0.37253875  1
  Ti  Ti137  1  0.30413114  0.31669498  0.12127339  1
  Ti  Ti138  1  0.38698821  0.01330661  0.74639454  1
  Ti  Ti139  1  0.79312911  0.60066848  0.00738747  1
  Ti  Ti140  1  -0.00267562  0.58905827  0.75650974  1
  Ti  Ti141  1  0.00136264  0.59808048  0.48123893  1
  Ti  Ti142  1  0.09388049  0.50302775  0.87188819  1
  Ti  Ti143  1  0.02290516  0.20619677  0.50150871  1
  Ti  Ti144  1  0.20797590  0.01666149  0.50230793  1
  Ti  Ti145  1  0.39051879  0.39254053  0.51218219  1
  Ti  Ti146  1  0.80473542  -0.00252754  0.25629948  1
  Ti  Ti147  1  0.50213776  0.29356746  0.86928931  1
  Ti  Ti148  1  0.79387508  0.39405174  0.01000582  1
  Ti  Ti149  1  0.19537849  0.40183316  0.51080062  1
  Ti  Ti150  1  0.50405506  0.28758562  0.62351163  1
  Ti  Ti151  1  0.10318432  0.89674106  0.13367630  1
  Ti  Ti152  1  0.80596053  0.19562789  0.24801701  1
  Ti  Ti153  1  0.60183195  0.00285005  0.75773030  1
  Ti  Ti154  1  0.19531004  0.41094406  0.01149789  1
  Ti  Ti155  1  0.70070374  0.29447137  0.12844783  1
  Ti  Ti156  1  0.28557966  0.50829395  0.37397081  1
  Ti  Ti157  1  0.20114557  0.80575818  0.00118700  1
  Ti  Ti158  1  0.81585622  0.39774179  0.76037415  1
  Ti  Ti159  1  0.79975360  0.59769733  0.49186949  1
  Mo  Mo160  1  0.58926092  0.60019824  0.49422270  1
  Mo  Mo161  1  -0.00825933  0.41344055  0.75877461  1
  Mo  Mo162  1  0.70968955  0.10246372  0.36424017  1
  Mo  Mo163  1  0.10517083  0.30093243  0.36400711  1
  Mo  Mo164  1  0.69784722  0.69297504  0.11966906  1
  Mo  Mo165  1  0.10314991  0.49920895  0.12496635  1
  Mo  Mo166  1  0.50935867  0.68038693  0.37101395  1
  Mo  Mo167  1  0.09841490  0.30855330  0.12098440  1
  Mo  Mo168  1  0.48798773  0.49583295  0.12662196  1
  Mo  Mo169  1  0.91077924  0.28592965  0.36388591  1
  Mo  Mo170  1  0.79556530  0.79888081  -0.00586493  1
  Mo  Mo171  1  0.39257974  0.59211638  0.75380581  1
  Mo  Mo172  1  0.20156061  0.80280942  0.74556781  1
  Mo  Mo173  1  0.89307732  0.30949936  0.89382055  1
  Mo  Mo174  1  0.29343240  0.70013029  0.61232173  1
  Mo  Mo175  1  0.68995742  0.89604130  0.87041307  1
  Mo  Mo176  1  0.79776829  0.81105031  0.25935358  1
  Mo  Mo177  1  0.21175033  0.59951719  0.25514630  1
  Mo  Mo178  1  0.39919495  -0.00544392  0.25322804  1
  Mo  Mo179  1  0.19569084  0.20692356  0.50398829  1
  Mo  Mo180  1  0.29380750  0.09150868  0.62031726  1
  Mo  Mo181  1  0.49069605  0.48686473  0.62679487  1
  Mo  Mo182  1  0.00249064  0.00537964  0.75790054  1
  Mo  Mo183  1  0.11301698  0.49616845  0.38162143  1
  Mo  Mo184  1  0.40338583  0.20164166  0.74991370  1
  Mo  Mo185  1  0.40165318  0.40424708  0.00358091  1
  Mo  Mo186  1  0.19983149  0.00670836  0.74930599  1
  Mo  Mo187  1  0.39882911  0.20541792  0.50103603  1
  Mo  Mo188  1  0.88844110  0.29882397  0.11950392  1
  Mo  Mo189  1  0.59628404  0.39521923  0.25718017  1
  Mo  Mo190  1  0.69651616  0.10275747  0.87637051  1
  Mo  Mo191  1  0.60223427  -0.00142291  0.50290141  1
  Mo  Mo192  1  0.59689775  0.78890837  0.50652318  1
  Mo  Mo193  1  0.59784866  0.19750625  0.75016553  1
  Mo  Mo194  1  0.09746745  0.69543078  0.86957184  1
  Mo  Mo195  1  0.80265935  0.40089706  0.48332228  1
  Mo  Mo196  1  0.59573209  0.80323481  0.75817282  1
  Mo  Mo197  1  0.89124464  0.09827967  0.12615721  1
  Mo  Mo198  1  0.39137676  -0.00979588  0.50763845  1
  Mo  Mo199  1  0.10839066  0.30180987  0.62254954  1
