# generated using pymatgen
data_HfZrTaTiMo
_symmetry_space_group_name_H-M   'P 1'
_cell_length_a   15.21202453
_cell_length_b   15.20247458
_cell_length_c   16.83188616
_cell_angle_alpha   90.03193569
_cell_angle_beta   89.97057078
_cell_angle_gamma   89.95694226
_symmetry_Int_Tables_number   1
_chemical_formula_structural   HfZrTaTiMo
_chemical_formula_sum   'Hf40 Zr40 Ta40 Ti40 Mo40'
_cell_volume   3892.54678039
_cell_formula_units_Z   40
loop_
 _symmetry_equiv_pos_site_id
 _symmetry_equiv_pos_as_xyz
  1  'x, y, z'
loop_
 _atom_site_type_symbol
 _atom_site_label
 _atom_site_symmetry_multiplicity
 _atom_site_fract_x
 _atom_site_fract_y
 _atom_site_fract_z
 _atom_site_occupancy
  Hf  Hf0  1  0.79745346  0.20433152  0.25120200  1
  Hf  Hf1  1  0.40657108  -0.00249689  0.74396688  1
  Hf  Hf2  1  0.09432883  0.28072528  0.38208042  1
  Hf  Hf3  1  0.62506913  0.79658941  0.26281588  1
  Hf  Hf4  1  0.28081279  0.69967183  0.36840803  1
  Hf  Hf5  1  0.08665994  0.46481926  0.13097342  1
  Hf  Hf6  1  0.71047374  0.89959194  0.12774323  1
  Hf  Hf7  1  0.09401270  0.69666397  0.62429847  1
  Hf  Hf8  1  0.30428330  0.89529726  0.13424785  1
  Hf  Hf9  1  0.19593337  0.79562790  0.76226150  1
  Hf  Hf10  1  0.09069848  0.48207032  0.36095173  1
  Hf  Hf11  1  0.78879465  0.41448595  0.25383916  1
  Hf  Hf12  1  0.19791418  0.58249948  0.23701724  1
  Hf  Hf13  1  0.70660051  0.89282249  0.62432574  1
  Hf  Hf14  1  0.40206487  0.20573053  -0.00013633  1
  Hf  Hf15  1  0.39818823  0.81276265  0.49011682  1
  Hf  Hf16  1  0.69684009  0.50704838  0.12185427  1
  Hf  Hf17  1  0.30234987  0.69159460  0.89083368  1
  Hf  Hf18  1  0.91558511  0.10635272  0.10942410  1
  Hf  Hf19  1  0.81249396  0.80234274  0.75008606  1
  Hf  Hf20  1  0.58999895  0.41113864  0.49940400  1
  Hf  Hf21  1  0.61046179  0.82159490  -0.00621472  1
  Hf  Hf22  1  0.70090696  0.10279036  0.12177699  1
  Hf  Hf23  1  0.20258068  -0.01030436  0.75945918  1
  Hf  Hf24  1  0.49403971  0.50964585  0.62533301  1
  Hf  Hf25  1  0.09940750  0.08036202  0.37940389  1
  Hf  Hf26  1  0.09307489  0.28595294  0.62667095  1
  Hf  Hf27  1  0.58389955  0.39506517  0.25475591  1
  Hf  Hf28  1  0.19871686  0.39186184  0.50029572  1
  Hf  Hf29  1  0.89314728  0.52938252  0.35564444  1
  Hf  Hf30  1  0.91335626  0.90815100  0.37928031  1
  Hf  Hf31  1  0.40778176  0.59347645  0.26161221  1
  Hf  Hf32  1  0.40479032  0.80046169  0.00444748  1
  Hf  Hf33  1  0.69959743  0.29968964  0.86932780  1
  Hf  Hf34  1  0.81588414  0.00573339  0.25342542  1
  Hf  Hf35  1  0.19389018  0.57959658  0.01291839  1
  Hf  Hf36  1  0.58990947  0.20027902  0.52032731  1
  Hf  Hf37  1  0.40956347  0.01289765  0.50982762  1
  Hf  Hf38  1  0.40540307  0.79395389  0.25887431  1
  Hf  Hf39  1  0.39679506  0.80142299  0.75027326  1
  Zr  Zr40  1  0.71313174  0.10709417  0.85541164  1
  Zr  Zr41  1  -0.00987794  0.59658553  0.49678113  1
  Zr  Zr42  1  0.71095579  0.09402101  0.39272801  1
  Zr  Zr43  1  0.08883765  0.48616418  0.62143681  1
  Zr  Zr44  1  0.21150127  -0.01363903  0.50852881  1
  Zr  Zr45  1  0.90937529  0.31412017  0.12613157  1
  Zr  Zr46  1  0.50891071  0.70804617  0.61624842  1
  Zr  Zr47  1  0.82176898  0.00998858  0.74008610  1
  Zr  Zr48  1  0.00208654  0.59724359  0.75770640  1
  Zr  Zr49  1  0.51165271  0.90828821  0.37468349  1
  Zr  Zr50  1  0.37743815  0.40394639  0.23917172  1
  Zr  Zr51  1  0.29907871  0.29743148  0.86589140  1
  Zr  Zr52  1  0.60486352  0.39289055  0.73692003  1
  Zr  Zr53  1  0.51745744  0.70474969  0.12674851  1
  Zr  Zr54  1  0.19721914  -0.00600338  0.00212169  1
  Zr  Zr55  1  0.40275292  0.59386439  0.48397692  1
  Zr  Zr56  1  0.70537045  0.71281576  0.87043546  1
  Zr  Zr57  1  0.50989003  0.11468060  0.36953639  1
  Zr  Zr58  1  0.20199213  0.58997350  0.75698272  1
  Zr  Zr59  1  0.80747829  0.40706808  0.00236775  1
  Zr  Zr60  1  0.30013437  0.10598776  0.37183302  1
  Zr  Zr61  1  0.90343066  0.30801875  0.38517125  1
  Zr  Zr62  1  0.38590560  0.40785130  0.00552562  1
  Zr  Zr63  1  0.70290865  0.50049628  0.87389138  1
  Zr  Zr64  1  0.51223599  0.91315756  0.13382685  1
  Zr  Zr65  1  0.51378098  0.10706549  0.86205354  1
  Zr  Zr66  1  0.60038047  0.60707661  -0.00350147  1
  Zr  Zr67  1  0.29528495  0.10695661  0.63650297  1
  Zr  Zr68  1  0.39935649  0.20969515  0.23784399  1
  Zr  Zr69  1  0.79939887  0.42374387  0.49035131  1
  Zr  Zr70  1  0.01023793  -0.00921358  0.75248212  1
  Zr  Zr71  1  0.18832573  0.79467627  0.01722240  1
  Zr  Zr72  1  -0.02095444  0.39579352  0.76638472  1
  Zr  Zr73  1  0.29933611  0.69894743  0.61707107  1
  Zr  Zr74  1  0.29498474  0.10466345  0.11719608  1
  Zr  Zr75  1  0.68965600  0.29266491  0.38152459  1
  Zr  Zr76  1  0.18674833  0.79382764  0.49159675  1
  Zr  Zr77  1  -0.02012453  0.18915610  0.76335244  1
  Zr  Zr78  1  0.59687593  0.60673472  0.75329549  1
  Zr  Zr79  1  0.61430619  0.59272256  0.25853307  1
  Ta  Ta80  1  0.50661654  0.90609762  0.87237028  1
  Ta  Ta81  1  0.10197171  0.88605315  0.35955591  1
  Ta  Ta82  1  0.72342175  0.89160743  0.38820194  1
  Ta  Ta83  1  0.50320493  0.30764163  0.86888439  1
  Ta  Ta84  1  0.81086910  0.61086135  0.00766247  1
  Ta  Ta85  1  0.90754103  0.89934960  0.11824780  1
  Ta  Ta86  1  0.18866076  0.19371584  0.76128260  1
  Ta  Ta87  1  0.29092584  0.90511960  0.35548768  1
  Ta  Ta88  1  0.18507241  0.78929657  0.23350931  1
  Ta  Ta89  1  0.00773295  -0.00892875  0.51476212  1
  Ta  Ta90  1  0.69641240  0.09939275  0.63069476  1
  Ta  Ta91  1  0.90493153  0.89937722  0.88595695  1
  Ta  Ta92  1  0.29580432  0.49618918  0.62630090  1
  Ta  Ta93  1  0.48966394  0.50266373  0.87741905  1
  Ta  Ta94  1  0.90835286  0.11016464  0.39924060  1
  Ta  Ta95  1  0.00381676  0.79823323  0.76140929  1
  Ta  Ta96  1  0.59234150  0.39514379  0.00063426  1
  Ta  Ta97  1  0.17871046  0.37927666  -0.01234431  1
  Ta  Ta98  1  0.18648458  0.19498542  0.24367924  1
  Ta  Ta99  1  0.48120314  0.30534566  0.37975695  1
  Ta  Ta100  1  0.81017708  0.59213177  0.74913700  1
  Ta  Ta101  1  0.30404941  0.09730764  0.87667572  1
  Ta  Ta102  1  0.79271651  0.22794462  0.72263608  1
  Ta  Ta103  1  0.90584805  0.69513002  0.88310261  1
  Ta  Ta104  1  0.39049716  0.39646857  0.50320484  1
  Ta  Ta105  1  0.89959175  0.31726959  0.60672175  1
  Ta  Ta106  1  0.48843430  0.50625914  0.11705302  1
  Ta  Ta107  1  0.49740656  0.70520825  0.87717069  1
  Ta  Ta108  1  0.80762221  0.20301664  -0.00575533  1
  Ta  Ta109  1  0.40277927  0.00547648  0.24857092  1
  Ta  Ta110  1  0.71006616  0.50692713  0.62448741  1
  Ta  Ta111  1  0.39348547  0.41093292  0.75195377  1
  Ta  Ta112  1  0.60429294  0.20045162  -0.00235959  1
  Ta  Ta113  1  0.51049426  0.10550210  0.12513001  1
  Ta  Ta114  1  0.39030266  0.21221980  0.50981187  1
  Ta  Ta115  1  0.31183498  0.68087343  0.12488233  1
  Ta  Ta116  1  0.61967433  0.78990329  0.49267291  1
  Ta  Ta117  1  0.79722961  -0.00031565  -0.00655797  1
  Ta  Ta118  1  0.41636799  0.00253175  -0.00412107  1
  Ta  Ta119  1  0.29253400  0.30749824  0.64111036  1
  Ti  Ti120  1  0.29303479  0.49876955  0.87885993  1
  Ti  Ti121  1  0.09908591  0.09696284  0.88627931  1
  Ti  Ti122  1  0.20047178  0.19157464  0.50688148  1
  Ti  Ti123  1  0.61290855  0.01186798  0.25769754  1
  Ti  Ti124  1  0.89589047  0.70136546  0.62603326  1
  Ti  Ti125  1  0.50737014  0.90469037  0.62311307  1
  Ti  Ti126  1  0.19346880  -0.00169029  0.23651455  1
  Ti  Ti127  1  0.60717346  -0.00466368  0.50628265  1
  Ti  Ti128  1  0.27433470  0.30526654  0.11934484  1
  Ti  Ti129  1  0.09174933  0.26808266  0.11122887  1
  Ti  Ti130  1  0.80532740  0.80357750  -0.00238525  1
  Ti  Ti131  1  0.00674088  -0.00777452  -0.00042859  1
  Ti  Ti132  1  0.81480028  -0.00016320  0.51958682  1
  Ti  Ti133  1  0.30389596  0.89939391  0.88541488  1
  Ti  Ti134  1  -0.01432630  0.79242904  0.24297248  1
  Ti  Ti135  1  0.07849835  0.69176563  0.36125907  1
  Ti  Ti136  1  0.48820656  0.30220001  0.63110512  1
  Ti  Ti137  1  0.07572764  0.68261425  0.12462979  1
  Ti  Ti138  1  0.18676584  0.39755083  0.76235481  1
  Ti  Ti139  1  0.09622305  0.69080163  0.89135024  1
  Ti  Ti140  1  -0.00187203  0.19297465  0.25098660  1
  Ti  Ti141  1  0.29544623  0.48741561  0.37442311  1
  Ti  Ti142  1  0.19482307  0.58996178  0.49316036  1
  Ti  Ti143  1  0.28940228  0.29700623  0.37133496  1
  Ti  Ti144  1  0.80609933  0.64132717  0.23953429  1
  Ti  Ti145  1  0.39606440  0.60293936  0.75363336  1
  Ti  Ti146  1  0.50603706  0.30080467  0.12121891  1
  Ti  Ti147  1  0.09449571  0.09480192  0.62709698  1
  Ti  Ti148  1  0.90659417  0.52069618  0.13876376  1
  Ti  Ti149  1  0.59707619  0.81076724  0.75241142  1
  Ti  Ti150  1  0.52261972  0.68826887  0.38570907  1
  Ti  Ti151  1  -0.00891343  0.79722634  0.49926550  1
  Ti  Ti152  1  0.00910406  0.00073790  0.24046417  1
  Ti  Ti153  1  0.70034536  0.91654824  0.86424575  1
  Ti  Ti154  1  0.70320005  0.69758299  0.62790795  1
  Ti  Ti155  1  0.79020360  0.62412293  0.49461515  1
  Ti  Ti156  1  0.10896862  0.88969271  0.62776742  1
  Ti  Ti157  1  -0.00154190  0.79335864  0.00392690  1
  Ti  Ti158  1  0.69487241  0.29825071  0.12340772  1
  Ti  Ti159  1  0.40432004  0.20554227  0.74797957  1
  Mo  Mo160  1  0.50274475  0.10239703  0.63401674  1
  Mo  Mo161  1  0.81108065  0.81622474  0.24851856  1
  Mo  Mo162  1  0.69260485  0.51186473  0.37784892  1
  Mo  Mo163  1  0.80235797  0.40632001  0.74044684  1
  Mo  Mo164  1  0.00029523  0.40223990  0.49930508  1
  Mo  Mo165  1  0.89614679  0.72198017  0.37422627  1
  Mo  Mo166  1  0.90603111  0.09243150  0.89687715  1
  Mo  Mo167  1  0.89223957  0.51251363  0.62135599  1
  Mo  Mo168  1  0.00009528  0.60594309  0.24644485  1
  Mo  Mo169  1  0.00542418  0.20517336  -0.01795354  1
  Mo  Mo170  1  0.89872949  0.71027246  0.11520674  1
  Mo  Mo171  1  0.39889331  0.60121581  -0.00130653  1
  Mo  Mo172  1  0.00251766  0.19082656  0.50864821  1
  Mo  Mo173  1  0.19882500  0.19426279  -0.01162643  1
  Mo  Mo174  1  0.60497161  -0.00806490  0.74002027  1
  Mo  Mo175  1  0.49231049  0.49298334  0.37990730  1
  Mo  Mo176  1  0.88490855  0.29213433  0.87436270  1
  Mo  Mo177  1  0.90565785  0.10800931  0.61196292  1
  Mo  Mo178  1  -0.00282678  0.40049960  -0.02140383  1
  Mo  Mo179  1  0.71527737  0.70819482  0.11891942  1
  Mo  Mo180  1  0.79990334  0.19932471  0.52160522  1
  Mo  Mo181  1  0.91812186  0.89011158  0.62241867  1
  Mo  Mo182  1  0.72066391  0.70176751  0.37684416  1
  Mo  Mo183  1  0.81113898  0.80508435  0.51205693  1
  Mo  Mo184  1  0.60525829  0.01057046  -0.00549580  1
  Mo  Mo185  1  0.61405977  0.59873666  0.49746621  1
  Mo  Mo186  1  -0.00530784  0.58847198  -0.00134966  1
  Mo  Mo187  1  0.09427870  0.88565657  0.88295234  1
  Mo  Mo188  1  0.29102389  0.49303212  0.12170071  1
  Mo  Mo189  1  0.09849951  0.49562632  0.88237034  1
  Mo  Mo190  1  0.09439449  0.09561426  0.12117386  1
  Mo  Mo191  1  0.09387026  0.29022416  0.87195506  1
  Mo  Mo192  1  0.89636534  0.50522581  0.88227710  1
  Mo  Mo193  1  0.70023040  0.30918680  0.61089407  1
  Mo  Mo194  1  0.30327449  0.89293545  0.62654923  1
  Mo  Mo195  1  0.18798474  0.37378159  0.24821408  1
  Mo  Mo196  1  0.08943518  0.89481165  0.13821071  1
  Mo  Mo197  1  -0.00673907  0.38835787  0.24869006  1
  Mo  Mo198  1  0.59631343  0.20123240  0.72862095  1
  Mo  Mo199  1  0.60068344  0.20281871  0.24367503  1
