# generated using pymatgen
data_HfZrTaTiMo
_symmetry_space_group_name_H-M   'P 1'
_cell_length_a   15.21939170
_cell_length_b   15.20902211
_cell_length_c   16.83521349
_cell_angle_alpha   90.01019635
_cell_angle_beta   89.99235259
_cell_angle_gamma   90.04085609
_symmetry_Int_Tables_number   1
_chemical_formula_structural   HfZrTaTiMo
_chemical_formula_sum   'Hf40 Zr40 Ta40 Ti40 Mo40'
_cell_volume   3896.88054317
_cell_formula_units_Z   40
loop_
 _symmetry_equiv_pos_site_id
 _symmetry_equiv_pos_as_xyz
  1  'x, y, z'
loop_
 _atom_site_type_symbol
 _atom_site_label
 _atom_site_symmetry_multiplicity
 _atom_site_fract_x
 _atom_site_fract_y
 _atom_site_fract_z
 _atom_site_occupancy
  Hf  Hf0  1  0.31128790  0.48382318  0.61017854  1
  Hf  Hf1  1  0.49819701  0.29098649  0.39053978  1
  Hf  Hf2  1  0.89514602  0.31401103  0.88668320  1
  Hf  Hf3  1  0.20586384  0.79879080  0.23425959  1
  Hf  Hf4  1  0.91831270  0.30188012  0.61270630  1
  Hf  Hf5  1  0.29810800  0.69833369  0.88934550  1
  Hf  Hf6  1  0.41584970  0.39206407  0.24696164  1
  Hf  Hf7  1  0.10013895  0.89086135  0.62422136  1
  Hf  Hf8  1  0.60207358  0.41120257  0.74223093  1
  Hf  Hf9  1  0.57879147  0.20128392  0.24468256  1
  Hf  Hf10  1  0.18918636  0.80279899  0.01337224  1
  Hf  Hf11  1  0.30475868  0.89101989  0.38327958  1
  Hf  Hf12  1  0.68562275  0.09913324  0.61832236  1
  Hf  Hf13  1  0.81089186  0.60027636  0.74394280  1
  Hf  Hf14  1  0.40900046  0.80319681  0.24163634  1
  Hf  Hf15  1  0.40638720  0.59077838  0.75816274  1
  Hf  Hf16  1  0.88764139  0.09695904  0.87893172  1
  Hf  Hf17  1  0.30519072  0.89673381  0.62735993  1
  Hf  Hf18  1  0.88935661  0.91159749  0.15067477  1
  Hf  Hf19  1  0.09002404  0.87827778  0.87730376  1
  Hf  Hf20  1  0.29947649  0.30421939  0.38599688  1
  Hf  Hf21  1  0.89263806  0.09541984  0.62572140  1
  Hf  Hf22  1  0.20706846  0.59359924  0.24139252  1
  Hf  Hf23  1  -0.00653171  0.00123621  0.47886795  1
  Hf  Hf24  1  0.08743914  0.50937409  0.88872685  1
  Hf  Hf25  1  0.89703961  0.31258599  0.13447089  1
  Hf  Hf26  1  0.30390341  0.49671425  0.38611913  1
  Hf  Hf27  1  0.10954063  0.70352748  0.37409629  1
  Hf  Hf28  1  0.39593053  0.00932182  0.76171733  1
  Hf  Hf29  1  -0.01195803  -0.01199716  0.00188993  1
  Hf  Hf30  1  0.59110664  0.20889137  0.76022420  1
  Hf  Hf31  1  0.90753501  0.29183699  0.36152364  1
  Hf  Hf32  1  0.61159658  0.81153545  -0.00170315  1
  Hf  Hf33  1  0.32240279  0.49168908  0.11074270  1
  Hf  Hf34  1  0.19132384  0.38858881  0.00714280  1
  Hf  Hf35  1  0.62170816  0.59797414  0.00155823  1
  Hf  Hf36  1  0.52003420  0.69570805  0.86874250  1
  Hf  Hf37  1  0.89615234  0.50376042  0.60834879  1
  Hf  Hf38  1  0.69124518  0.69447979  0.63329904  1
  Hf  Hf39  1  0.79030838  0.59768104  0.47875341  1
  Zr  Zr40  1  0.79426490  0.20314139  0.75166046  1
  Zr  Zr41  1  0.09460901  0.29580606  0.87931875  1
  Zr  Zr42  1  0.19225634  0.59293850  0.74606717  1
  Zr  Zr43  1  0.69141823  0.30300491  0.37235362  1
  Zr  Zr44  1  0.08651020  0.49258948  0.12025234  1
  Zr  Zr45  1  0.42103867  0.00007480  0.50025584  1
  Zr  Zr46  1  0.70245101  0.51337866  0.87042736  1
  Zr  Zr47  1  0.19563951  -0.00034281  0.49063634  1
  Zr  Zr48  1  0.69220071  0.08776763  0.11299581  1
  Zr  Zr49  1  0.19556812  0.17989316  0.00118303  1
  Zr  Zr50  1  0.79902152  0.19867061  0.49043700  1
  Zr  Zr51  1  0.61648901  0.40920613  0.51010817  1
  Zr  Zr52  1  0.51113635  0.69574786  0.11581069  1
  Zr  Zr53  1  0.60164224  0.80696362  0.49543320  1
  Zr  Zr54  1  0.19119176  0.19529404  0.25614921  1
  Zr  Zr55  1  0.20889275  0.38299247  0.74265059  1
  Zr  Zr56  1  0.31734895  0.70071425  0.10506986  1
  Zr  Zr57  1  0.20552127  0.39776306  0.24463920  1
  Zr  Zr58  1  0.68716398  0.30444201  0.12000951  1
  Zr  Zr59  1  0.79064589  -0.00597201  0.48522654  1
  Zr  Zr60  1  -0.00003605  0.40404982  0.74998886  1
  Zr  Zr61  1  0.08902492  0.10205430  0.62319134  1
  Zr  Zr62  1  0.90495828  0.71534499  0.36317510  1
  Zr  Zr63  1  0.69668612  0.30894433  0.88644940  1
  Zr  Zr64  1  -0.00590385  0.20313476  0.00837931  1
  Zr  Zr65  1  0.92389610  0.70298037  0.87396193  1
  Zr  Zr66  1  0.18610467  -0.00645059  0.26844574  1
  Zr  Zr67  1  0.31138980  0.69596192  0.37460771  1
  Zr  Zr68  1  0.30303660  0.69762697  0.62732317  1
  Zr  Zr69  1  0.80407658  0.80173647  0.49885373  1
  Zr  Zr70  1  0.19480296  0.18781964  0.75049506  1
  Zr  Zr71  1  -0.00317446  -0.00886506  0.75559105  1
  Zr  Zr72  1  0.39702851  0.00040867  -0.00926209  1
  Zr  Zr73  1  0.51176117  0.90264112  0.64412904  1
  Zr  Zr74  1  0.72033716  0.69913388  0.13506848  1
  Zr  Zr75  1  0.30460869  0.48567972  0.88388090  1
  Zr  Zr76  1  0.78930968  0.18625117  0.25116485  1
  Zr  Zr77  1  0.09527612  0.48384158  0.60551686  1
  Zr  Zr78  1  0.39736810  0.00109548  0.24912432  1
  Zr  Zr79  1  0.51615667  0.52089684  0.62207222  1
  Ta  Ta80  1  0.69531119  0.90107275  0.13175733  1
  Ta  Ta81  1  0.81811604  0.80882931  0.00802669  1
  Ta  Ta82  1  0.79417279  0.19637364  0.00527362  1
  Ta  Ta83  1  0.30766799  0.10653840  0.38458274  1
  Ta  Ta84  1  0.29026304  0.08328081  0.12367989  1
  Ta  Ta85  1  0.49739165  0.10691616  0.63345240  1
  Ta  Ta86  1  0.29914452  0.10001969  0.62264475  1
  Ta  Ta87  1  0.81077283  0.80655770  0.74179399  1
  Ta  Ta88  1  0.08558403  0.89718491  0.13181102  1
  Ta  Ta89  1  0.79220247  -0.00299601  0.75197385  1
  Ta  Ta90  1  0.19409959  0.20505995  0.50083022  1
  Ta  Ta91  1  0.60510058  0.01343507  0.77106057  1
  Ta  Ta92  1  0.49141157  0.30379989  0.10603091  1
  Ta  Ta93  1  0.39208121  0.21071139  0.74412143  1
  Ta  Ta94  1  0.39566531  0.80242336  0.76894508  1
  Ta  Ta95  1  0.20007737  0.59597151  0.49897758  1
  Ta  Ta96  1  0.39748556  0.20082370  0.51185241  1
  Ta  Ta97  1  -0.00198415  0.61780651  0.01588450  1
  Ta  Ta98  1  0.48728810  0.10613123  0.11517177  1
  Ta  Ta99  1  0.79729750  0.60064470  0.26785146  1
  Ta  Ta100  1  0.00677449  0.40489867  0.26544844  1
  Ta  Ta101  1  0.41321530  0.60691696  0.50046081  1
  Ta  Ta102  1  0.50534029  0.90045774  0.87408705  1
  Ta  Ta103  1  0.60133429  0.80202506  0.24891873  1
  Ta  Ta104  1  0.80148460  0.40136284  0.73987089  1
  Ta  Ta105  1  0.70215320  0.90345132  0.63382673  1
  Ta  Ta106  1  0.50341198  0.49728858  0.38250184  1
  Ta  Ta107  1  0.48529171  0.30986797  0.88426846  1
  Ta  Ta108  1  0.41113319  0.79493411  0.50376446  1
  Ta  Ta109  1  0.58511237  0.18978012  -0.01429294  1
  Ta  Ta110  1  0.41238625  0.59188374  0.24749915  1
  Ta  Ta111  1  0.30563535  0.28206708  0.11808695  1
  Ta  Ta112  1  0.19688492  0.79186457  0.75489833  1
  Ta  Ta113  1  0.59140955  0.00096401  0.24775333  1
  Ta  Ta114  1  0.88946256  0.51431557  0.14111804  1
  Ta  Ta115  1  0.79623872  0.41908550  0.01191261  1
  Ta  Ta116  1  0.91931145  0.71290320  0.14911027  1
  Ta  Ta117  1  0.72021908  0.71882612  0.86820406  1
  Ta  Ta118  1  0.60020562  0.59217469  0.25903518  1
  Ta  Ta119  1  0.08783572  0.08756231  0.13137151  1
  Ti  Ti120  1  0.49575913  0.90633125  0.11063171  1
  Ti  Ti121  1  0.00680954  0.20367293  0.48624529  1
  Ti  Ti122  1  0.50099819  0.71340051  0.64473103  1
  Ti  Ti123  1  0.70775363  0.30243337  0.61829550  1
  Ti  Ti124  1  0.90199489  0.89913130  0.62287515  1
  Ti  Ti125  1  0.89633875  0.50497858  0.88202524  1
  Ti  Ti126  1  0.30263503  0.28887037  0.88431723  1
  Ti  Ti127  1  0.00353979  0.78637613  0.73820771  1
  Ti  Ti128  1  0.69338542  0.49764576  0.13713692  1
  Ti  Ti129  1  0.60386205  0.61011407  0.48401641  1
  Ti  Ti130  1  0.90157581  0.90952825  0.34971641  1
  Ti  Ti131  1  0.39113848  0.19439364  0.24919361  1
  Ti  Ti132  1  0.79043073  0.40971359  0.25910799  1
  Ti  Ti133  1  0.51004353  0.90845045  0.37390006  1
  Ti  Ti134  1  0.29473889  0.09875877  0.87753560  1
  Ti  Ti135  1  0.50292555  0.70370139  0.36970167  1
  Ti  Ti136  1  0.28913201  0.89915934  0.88225239  1
  Ti  Ti137  1  0.42650558  0.58175314  -0.01277879  1
  Ti  Ti138  1  0.19287024  0.60142372  0.01001090  1
  Ti  Ti139  1  -0.00356008  0.20209193  0.75380714  1
  Ti  Ti140  1  0.49682418  0.30332672  0.61573786  1
  Ti  Ti141  1  0.00495336  0.60148740  0.74245811  1
  Ti  Ti142  1  0.20281197  0.79542827  0.50196672  1
  Ti  Ti143  1  0.89114510  0.89255724  0.87500097  1
  Ti  Ti144  1  0.81391276  0.40544404  0.48091112  1
  Ti  Ti145  1  0.09662497  0.69241294  0.61207140  1
  Ti  Ti146  1  0.70171144  0.89503502  0.35921059  1
  Ti  Ti147  1  0.19922627  -0.01097167  0.75142332  1
  Ti  Ti148  1  0.00638695  0.80359051  0.49469804  1
  Ti  Ti149  1  0.00926747  0.59828220  0.25782986  1
  Ti  Ti150  1  0.81405089  0.61072467  0.00457890  1
  Ti  Ti151  1  0.58632572  0.41255355  -0.00206919  1
  Ti  Ti152  1  0.70958890  0.91174734  0.87928062  1
  Ti  Ti153  1  -0.00146627  0.59069306  0.47913404  1
  Ti  Ti154  1  0.89633664  0.10015781  0.13539146  1
  Ti  Ti155  1  0.09241201  0.29093568  0.13032953  1
  Ti  Ti156  1  0.40670305  0.39277223  0.74738511  1
  Ti  Ti157  1  0.90694172  0.70137218  0.61269738  1
  Ti  Ti158  1  0.66964958  0.09573549  0.38310214  1
  Ti  Ti159  1  0.09862336  0.08254914  0.87875770  1
  Mo  Mo160  1  0.30521771  0.29172051  0.61797519  1
  Mo  Mo161  1  0.61690447  0.81388051  0.76217852  1
  Mo  Mo162  1  0.10330453  0.50097543  0.38304247  1
  Mo  Mo163  1  0.09159006  0.11120136  0.37834897  1
  Mo  Mo164  1  0.78066677  0.00302710  0.26367072  1
  Mo  Mo165  1  0.00127986  0.20148544  0.24187325  1
  Mo  Mo166  1  0.69766824  0.09878308  0.88739793  1
  Mo  Mo167  1  0.69409550  0.49887090  0.36857981  1
  Mo  Mo168  1  -0.02043253  0.41699134  0.00902446  1
  Mo  Mo169  1  0.09412738  0.89075292  0.37747968  1
  Mo  Mo170  1  0.50548548  0.49427501  0.86990835  1
  Mo  Mo171  1  0.60043756  -0.00005988  0.49828789  1
  Mo  Mo172  1  0.71393673  0.49742899  0.62318584  1
  Mo  Mo173  1  0.69098222  0.70607816  0.36345145  1
  Mo  Mo174  1  0.39315823  0.19667735  -0.00231129  1
  Mo  Mo175  1  0.59291327  0.40371747  0.24795221  1
  Mo  Mo176  1  0.48928741  0.10987122  0.86789922  1
  Mo  Mo177  1  0.59861503  0.00142983  -0.01396319  1
  Mo  Mo178  1  0.10358269  0.30345901  0.37612406  1
  Mo  Mo179  1  0.79416043  -0.00750043  0.00186913  1
  Mo  Mo180  1  0.90171931  0.50094822  0.36024220  1
  Mo  Mo181  1  0.61126540  0.61176240  0.75170945  1
  Mo  Mo182  1  0.89291607  0.09945650  0.36431050  1
  Mo  Mo183  1  0.29900727  0.90726866  0.11566938  1
  Mo  Mo184  1  0.10446956  0.69557255  0.87575518  1
  Mo  Mo185  1  0.39860348  0.39389279  -0.00062920  1
  Mo  Mo186  1  0.00423717  0.39751468  0.47404039  1
  Mo  Mo187  1  0.19573164  0.39144201  0.50244559  1
  Mo  Mo188  1  -0.00525720  0.01813416  0.26389806  1
  Mo  Mo189  1  -0.00607061  0.79760464  0.01215732  1
  Mo  Mo190  1  0.01354983  0.81288510  0.25734604  1
  Mo  Mo191  1  0.40706379  0.40226966  0.50261065  1
  Mo  Mo192  1  0.09838566  0.69564222  0.13557664  1
  Mo  Mo193  1  0.59230182  0.19539703  0.51200396  1
  Mo  Mo194  1  0.40477244  0.80190507  -0.02094217  1
  Mo  Mo195  1  0.18964955  -0.00658986  0.00495155  1
  Mo  Mo196  1  0.79516795  0.80245484  0.25164766  1
  Mo  Mo197  1  0.49573299  0.10086078  0.37414732  1
  Mo  Mo198  1  0.10026608  0.29310925  0.61611269  1
  Mo  Mo199  1  0.51310255  0.49591140  0.12531253  1
