# generated using pymatgen
data_HfZrTaTiMo
_symmetry_space_group_name_H-M   'P 1'
_cell_length_a   15.22255504
_cell_length_b   15.21517493
_cell_length_c   16.82695732
_cell_angle_alpha   89.94785387
_cell_angle_beta   89.95502185
_cell_angle_gamma   89.99874106
_symmetry_Int_Tables_number   1
_chemical_formula_structural   HfZrTaTiMo
_chemical_formula_sum   'Hf40 Zr40 Ta40 Ti40 Mo40'
_cell_volume   3897.35334660
_cell_formula_units_Z   40
loop_
 _symmetry_equiv_pos_site_id
 _symmetry_equiv_pos_as_xyz
  1  'x, y, z'
loop_
 _atom_site_type_symbol
 _atom_site_label
 _atom_site_symmetry_multiplicity
 _atom_site_fract_x
 _atom_site_fract_y
 _atom_site_fract_z
 _atom_site_occupancy
  Hf  Hf0  1  0.93705355  0.09767328  0.62100924  1
  Hf  Hf1  1  0.49989286  0.29441218  0.63058315  1
  Hf  Hf2  1  -0.00549172  0.60845938  -0.01695864  1
  Hf  Hf3  1  0.31242860  0.11121173  0.36692735  1
  Hf  Hf4  1  0.09404968  0.50416093  0.11672763  1
  Hf  Hf5  1  0.19775562  0.40706481  -0.00484444  1
  Hf  Hf6  1  0.89227540  0.07394808  0.12451530  1
  Hf  Hf7  1  0.90207635  0.88577770  0.63444707  1
  Hf  Hf8  1  0.30963519  0.32157980  0.35980380  1
  Hf  Hf9  1  0.70478772  0.90077399  0.87125048  1
  Hf  Hf10  1  0.09339012  0.70497834  0.64639738  1
  Hf  Hf11  1  0.40938771  0.40779808  -0.00967017  1
  Hf  Hf12  1  0.90212613  0.47184629  0.88143447  1
  Hf  Hf13  1  0.79682613  0.19038639  0.24951216  1
  Hf  Hf14  1  0.30624605  0.70232513  0.37719381  1
  Hf  Hf15  1  -0.00469738  0.19807434  0.25843941  1
  Hf  Hf16  1  0.89660975  0.67881420  0.64329968  1
  Hf  Hf17  1  0.61291550  0.20106931  0.75445418  1
  Hf  Hf18  1  0.29571142  0.29227230  0.87659289  1
  Hf  Hf19  1  0.59351582  0.39878222  0.50092451  1
  Hf  Hf20  1  0.20732243  0.21324212  0.49174408  1
  Hf  Hf21  1  0.71029408  0.68735466  0.12513147  1
  Hf  Hf22  1  0.79587165  0.18404967  0.00515729  1
  Hf  Hf23  1  0.39746010  0.18798493  0.75387386  1
  Hf  Hf24  1  0.81017929  0.20002838  0.50693897  1
  Hf  Hf25  1  0.09957211  0.10024062  0.11229066  1
  Hf  Hf26  1  0.20308555  0.81003334  -0.01541033  1
  Hf  Hf27  1  0.20530535  0.61214420  -0.01220344  1
  Hf  Hf28  1  0.50098812  0.30851599  0.11656366  1
  Hf  Hf29  1  0.59400841  0.59357860  -0.01264252  1
  Hf  Hf30  1  0.20057135  0.80208569  0.51328660  1
  Hf  Hf31  1  0.08103532  0.30876591  0.88989308  1
  Hf  Hf32  1  0.30265406  0.90140355  0.37024979  1
  Hf  Hf33  1  0.02053693  0.58745791  0.26389533  1
  Hf  Hf34  1  0.68877835  0.89211542  0.38165227  1
  Hf  Hf35  1  0.08514324  0.30838170  0.12357932  1
  Hf  Hf36  1  0.49766773  0.09937777  0.89195868  1
  Hf  Hf37  1  0.08998481  0.92182794  0.62603629  1
  Hf  Hf38  1  0.39063632  0.39395820  0.51083810  1
  Hf  Hf39  1  0.29655418  0.49846495  0.64455479  1
  Zr  Zr40  1  0.40264723  0.80024687  0.51801017  1
  Zr  Zr41  1  0.07837359  0.90117026  0.12153216  1
  Zr  Zr42  1  0.79293957  0.78366385  0.50607466  1
  Zr  Zr43  1  0.89613025  0.50165318  0.12596432  1
  Zr  Zr44  1  0.40467072  0.00411639  0.50282630  1
  Zr  Zr45  1  0.08589782  0.49820364  0.62604567  1
  Zr  Zr46  1  0.09664424  0.70282326  0.12003752  1
  Zr  Zr47  1  0.40432389  0.60238287  -0.00005897  1
  Zr  Zr48  1  0.69796600  0.09379445  0.38450997  1
  Zr  Zr49  1  0.81183589  0.39713029  0.73335336  1
  Zr  Zr50  1  0.30186328  0.50238603  0.13394289  1
  Zr  Zr51  1  0.58876644  0.00345040  0.75154904  1
  Zr  Zr52  1  0.20142294  0.20507517  0.24570585  1
  Zr  Zr53  1  0.40212985  0.59840386  0.50830013  1
  Zr  Zr54  1  0.41364915  0.80598343  0.72776627  1
  Zr  Zr55  1  0.39809745  0.79469894  0.01450062  1
  Zr  Zr56  1  0.17150115  0.39236261  0.75380679  1
  Zr  Zr57  1  0.19053604  0.01649045  0.49304490  1
  Zr  Zr58  1  0.29954611  0.50625783  0.85303322  1
  Zr  Zr59  1  0.89135355  0.89657489  0.38893092  1
  Zr  Zr60  1  0.81793032  0.79679501  -0.00759051  1
  Zr  Zr61  1  -0.00747954  -0.00393288  0.26541861  1
  Zr  Zr62  1  0.61337702  0.59259851  0.26221838  1
  Zr  Zr63  1  0.79316213  0.59148853  -0.00721629  1
  Zr  Zr64  1  0.49543732  0.10916113  0.10040256  1
  Zr  Zr65  1  0.29196814  0.10001448  0.89532554  1
  Zr  Zr66  1  0.70091813  0.51111271  0.62726131  1
  Zr  Zr67  1  0.20293092  0.82969017  0.75444395  1
  Zr  Zr68  1  0.31945880  0.71098478  0.85514749  1
  Zr  Zr69  1  0.48294201  0.49069980  0.36455813  1
  Zr  Zr70  1  0.79889617  0.01162345  0.73695215  1
  Zr  Zr71  1  0.69213415  0.29634849  0.38215689  1
  Zr  Zr72  1  0.51395749  0.90816183  0.11661620  1
  Zr  Zr73  1  0.60956647  0.61088588  0.48799889  1
  Zr  Zr74  1  0.19627188  0.79391700  0.24968062  1
  Zr  Zr75  1  0.19609767  0.40833476  0.50102143  1
  Zr  Zr76  1  0.81634497  0.61241272  0.26902139  1
  Zr  Zr77  1  0.79766284  0.40025117  0.24764118  1
  Zr  Zr78  1  0.40245075  0.01137743  0.23891973  1
  Zr  Zr79  1  0.71668065  0.90172392  0.11957881  1
  Ta  Ta80  1  0.50735925  0.30356189  0.87589581  1
  Ta  Ta81  1  0.09704848  0.89442790  0.38216711  1
  Ta  Ta82  1  0.60488057  0.78890079  -0.00748358  1
  Ta  Ta83  1  0.70241378  0.69844655  0.85835347  1
  Ta  Ta84  1  0.69840278  0.49199129  0.86316686  1
  Ta  Ta85  1  0.80038053  0.38170779  0.00920148  1
  Ta  Ta86  1  0.10120980  0.70061929  0.85304584  1
  Ta  Ta87  1  0.60803789  0.79942276  0.24878766  1
  Ta  Ta88  1  0.91441280  0.48513233  0.38125402  1
  Ta  Ta89  1  0.51000330  0.69792737  0.13326794  1
  Ta  Ta90  1  -0.00253335  0.57241501  0.76253639  1
  Ta  Ta91  1  0.01590805  0.18592281  0.48179699  1
  Ta  Ta92  1  0.49366805  0.89042900  0.88340675  1
  Ta  Ta93  1  -0.01196378  0.78646406  0.26087271  1
  Ta  Ta94  1  0.51104669  0.50118029  0.13451573  1
  Ta  Ta95  1  0.08758869  0.11641693  0.88739911  1
  Ta  Ta96  1  0.19273979  0.00402361  0.25394855  1
  Ta  Ta97  1  0.59192247  0.80352291  0.51362638  1
  Ta  Ta98  1  -0.00394960  0.38380271  0.50441725  1
  Ta  Ta99  1  0.69959305  0.29618595  0.61706612  1
  Ta  Ta100  1  0.00686769  0.80630644  -0.02927134  1
  Ta  Ta101  1  0.68956253  0.09548743  0.12458172  1
  Ta  Ta102  1  0.59828815  0.80242638  0.74945803  1
  Ta  Ta103  1  0.39697894  0.61180625  0.24402440  1
  Ta  Ta104  1  0.69568895  0.29747334  0.12702476  1
  Ta  Ta105  1  0.49979541  0.90243740  0.36963188  1
  Ta  Ta106  1  0.00159589  0.59557927  0.49560772  1
  Ta  Ta107  1  0.28549996  0.90989286  0.12783218  1
  Ta  Ta108  1  0.50592066  0.71537654  0.36719712  1
  Ta  Ta109  1  0.58542242  0.60073052  0.75977867  1
  Ta  Ta110  1  0.40433188  0.80402429  0.23570779  1
  Ta  Ta111  1  0.89489981  0.27489851  0.87100900  1
  Ta  Ta112  1  0.80379906  -0.00080531  0.51427908  1
  Ta  Ta113  1  0.00217723  0.78964140  0.50115131  1
  Ta  Ta114  1  0.28427095  0.28358361  0.64010818  1
  Ta  Ta115  1  0.80608824  0.40409001  0.50892516  1
  Ta  Ta116  1  0.18250025  0.41768894  0.25267051  1
  Ta  Ta117  1  -0.02115369  -0.00310185  -0.01767579  1
  Ta  Ta118  1  0.69916523  0.70242362  0.64508415  1
  Ta  Ta119  1  0.40943324  0.21334577  0.23999364  1
  Ti  Ti120  1  0.29754658  0.92658326  0.62592566  1
  Ti  Ti121  1  0.19918319  0.60604393  0.50723373  1
  Ti  Ti122  1  0.60265147  0.39891187  0.74917568  1
  Ti  Ti123  1  0.28561926  0.51357682  0.36359143  1
  Ti  Ti124  1  0.69179685  0.10515264  0.61615220  1
  Ti  Ti125  1  0.18458967  -0.00505529  -0.00920676  1
  Ti  Ti126  1  0.89562691  0.70028905  0.84817946  1
  Ti  Ti127  1  0.01263407  0.01226721  0.76502367  1
  Ti  Ti128  1  0.40999707  0.39807624  0.75448823  1
  Ti  Ti129  1  0.59542971  0.19280114  0.24658100  1
  Ti  Ti130  1  -0.01755136  0.20567863  0.01018659  1
  Ti  Ti131  1  0.39314137  -0.00549230  0.75677205  1
  Ti  Ti132  1  0.59723126  -0.00047546  0.50756959  1
  Ti  Ti133  1  0.80931090  0.59872685  0.48922606  1
  Ti  Ti134  1  0.81803549  0.20169691  0.73265635  1
  Ti  Ti135  1  0.80439434  0.79939706  0.25165398  1
  Ti  Ti136  1  0.61696760  0.00143652  -0.00910365  1
  Ti  Ti137  1  0.09305878  0.31546104  0.36678203  1
  Ti  Ti138  1  0.61134963  0.40465610  -0.00561460  1
  Ti  Ti139  1  0.79572628  -0.00756704  0.25708030  1
  Ti  Ti140  1  0.71821953  0.10503420  0.87135555  1
  Ti  Ti141  1  0.89980058  0.90358932  0.85404316  1
  Ti  Ti142  1  0.40391816  0.19855647  0.50790759  1
  Ti  Ti143  1  0.60240499  0.00056084  0.24987495  1
  Ti  Ti144  1  0.29609309  0.69095170  0.64223815  1
  Ti  Ti145  1  0.29793498  0.30179886  0.12050671  1
  Ti  Ti146  1  0.38608380  -0.01145283  0.00063580  1
  Ti  Ti147  1  0.49578626  0.09403609  0.62606175  1
  Ti  Ti148  1  0.50818390  0.10172438  0.37678153  1
  Ti  Ti149  1  0.69546659  0.90161862  0.62815637  1
  Ti  Ti150  1  0.10632050  0.69436731  0.38164074  1
  Ti  Ti151  1  0.70817775  0.49326040  0.38220708  1
  Ti  Ti152  1  0.70976615  0.30320134  0.87167542  1
  Ti  Ti153  1  0.29487470  0.10885526  0.10857667  1
  Ti  Ti154  1  0.59149074  0.38779229  0.25383645  1
  Ti  Ti155  1  0.49786242  0.28631592  0.37717970  1
  Ti  Ti156  1  0.49997655  0.50507834  0.63425764  1
  Ti  Ti157  1  0.89642735  0.29549673  0.37792493  1
  Ti  Ti158  1  0.60708691  0.21096948  -0.00872442  1
  Ti  Ti159  1  0.20341499  0.02543045  0.75641306  1
  Mo  Mo160  1  0.91118966  0.71319634  0.12465440  1
  Mo  Mo161  1  0.19475743  0.60326267  0.75480628  1
  Mo  Mo162  1  -0.00213964  -0.00401044  0.49078391  1
  Mo  Mo163  1  0.10469051  0.10027908  0.36813922  1
  Mo  Mo164  1  0.89989430  0.10076078  0.86684319  1
  Mo  Mo165  1  -0.00422425  0.39450077  0.26002342  1
  Mo  Mo166  1  0.39701650  0.40018621  0.24175613  1
  Mo  Mo167  1  0.40675894  0.59835742  0.73767391  1
  Mo  Mo168  1  0.08974977  0.28140101  0.62140552  1
  Mo  Mo169  1  0.39814038  0.21074574  0.00092502  1
  Mo  Mo170  1  0.50832543  0.70598729  0.87308347  1
  Mo  Mo171  1  0.09927917  0.91692962  0.87069287  1
  Mo  Mo172  1  0.51382444  0.69177032  0.62292419  1
  Mo  Mo173  1  0.59148786  0.19160125  0.50903820  1
  Mo  Mo174  1  0.90488930  0.88157532  0.12487090  1
  Mo  Mo175  1  0.89902918  0.09818694  0.38821606  1
  Mo  Mo176  1  0.90952250  0.29507680  0.61564342  1
  Mo  Mo177  1  0.19223636  0.20302160  0.01287969  1
  Mo  Mo178  1  0.30740631  0.91286825  0.87361644  1
  Mo  Mo179  1  0.20515571  0.60495519  0.25376971  1
  Mo  Mo180  1  0.19002946  0.19556083  0.75802378  1
  Mo  Mo181  1  -0.01093641  0.38180800  0.74326740  1
  Mo  Mo182  1  -0.01687600  0.39761477  0.00592632  1
  Mo  Mo183  1  0.01042743  0.20501298  0.74986798  1
  Mo  Mo184  1  0.12483216  0.11363457  0.62891860  1
  Mo  Mo185  1  0.80093205  -0.00360943  -0.00991487  1
  Mo  Mo186  1  0.89323286  0.29036401  0.12854766  1
  Mo  Mo187  1  0.91271711  0.69546799  0.38446222  1
  Mo  Mo188  1  0.70304541  0.70637109  0.37585640  1
  Mo  Mo189  1  0.30568060  0.10446524  0.62882633  1
  Mo  Mo190  1  0.50846181  0.90696550  0.62721571  1
  Mo  Mo191  1  0.30342971  0.70852618  0.12862396  1
  Mo  Mo192  1  0.79352361  0.80241241  0.74831309  1
  Mo  Mo193  1  0.68464362  0.48215353  0.12302209  1
  Mo  Mo194  1  0.90017242  0.49965227  0.61197488  1
  Mo  Mo195  1  0.50596139  0.49201593  0.86270864  1
  Mo  Mo196  1  0.09373020  0.50543460  0.87931562  1
  Mo  Mo197  1  -0.00229142  0.80482288  0.76505490  1
  Mo  Mo198  1  0.79629325  0.59307262  0.76019633  1
  Mo  Mo199  1  0.10552248  0.49950729  0.38892494  1
