# generated using pymatgen
data_HfZrTaTiMo
_symmetry_space_group_name_H-M   'P 1'
_cell_length_a   15.20464987
_cell_length_b   15.21075949
_cell_length_c   16.83089578
_cell_angle_alpha   89.98433677
_cell_angle_beta   89.90592534
_cell_angle_gamma   89.89705302
_symmetry_Int_Tables_number   1
_chemical_formula_structural   HfZrTaTiMo
_chemical_formula_sum   'Hf40 Zr40 Ta40 Ti40 Mo40'
_cell_volume   3892.54150141
_cell_formula_units_Z   40
loop_
 _symmetry_equiv_pos_site_id
 _symmetry_equiv_pos_as_xyz
  1  'x, y, z'
loop_
 _atom_site_type_symbol
 _atom_site_label
 _atom_site_symmetry_multiplicity
 _atom_site_fract_x
 _atom_site_fract_y
 _atom_site_fract_z
 _atom_site_occupancy
  Hf  Hf0  1  0.19992540  -0.01233043  0.00550448  1
  Hf  Hf1  1  0.40123326  0.61285442  0.24227556  1
  Hf  Hf2  1  0.42445739  0.21049675  0.01136375  1
  Hf  Hf3  1  0.18716500  0.40180512  -0.01214543  1
  Hf  Hf4  1  0.10322330  0.07142730  0.85010208  1
  Hf  Hf5  1  0.89611153  0.09058496  0.84718769  1
  Hf  Hf6  1  0.80385982  -0.01273293  0.50933213  1
  Hf  Hf7  1  0.38901385  0.40805196  0.24033042  1
  Hf  Hf8  1  0.91061616  0.28188811  0.12321657  1
  Hf  Hf9  1  0.28568124  0.70311845  0.88514382  1
  Hf  Hf10  1  0.78992446  0.79510965  0.24443002  1
  Hf  Hf11  1  0.90631387  0.69793804  0.87395413  1
  Hf  Hf12  1  0.39817994  0.40081564  0.49538530  1
  Hf  Hf13  1  0.09598230  0.90445423  0.38623845  1
  Hf  Hf14  1  0.68889037  0.31997437  0.88773046  1
  Hf  Hf15  1  0.29568288  0.71147024  0.38555156  1
  Hf  Hf16  1  0.39146166  0.80077479  0.75408458  1
  Hf  Hf17  1  0.18878400  0.81158413  0.73415347  1
  Hf  Hf18  1  0.19071538  0.01433006  0.50379215  1
  Hf  Hf19  1  -0.01142021  0.59214539  0.51480887  1
  Hf  Hf20  1  0.30035847  0.10123919  0.13089888  1
  Hf  Hf21  1  0.30921993  0.09528370  0.88086049  1
  Hf  Hf22  1  0.49599711  0.49847228  0.10792208  1
  Hf  Hf23  1  0.50363018  0.10219162  0.36213269  1
  Hf  Hf24  1  0.69468926  0.31658542  0.61667035  1
  Hf  Hf25  1  0.81793230  0.20391882  0.51123994  1
  Hf  Hf26  1  0.42035690  0.40014953  0.75203546  1
  Hf  Hf27  1  0.08741359  0.70269208  0.39006060  1
  Hf  Hf28  1  0.59496776  0.21846819  0.75189791  1
  Hf  Hf29  1  0.89403423  0.69039640  0.10948464  1
  Hf  Hf30  1  0.19346238  0.60118251  0.51114186  1
  Hf  Hf31  1  0.70831767  0.69452529  0.88505226  1
  Hf  Hf32  1  0.80448058  0.39441755  0.24428438  1
  Hf  Hf33  1  0.69569826  0.10180813  0.62635601  1
  Hf  Hf34  1  0.09143428  0.11607302  0.13653656  1
  Hf  Hf35  1  0.91566210  0.09403925  0.38365349  1
  Hf  Hf36  1  0.59916217  0.58062065  0.76540205  1
  Hf  Hf37  1  0.10053186  0.29105739  0.85238148  1
  Hf  Hf38  1  0.80337518  -0.00029778  -0.00240163  1
  Hf  Hf39  1  0.29626538  0.10965292  0.36560026  1
  Zr  Zr40  1  0.50178274  0.70073583  0.62660181  1
  Zr  Zr41  1  0.10613787  0.90159327  0.13807202  1
  Zr  Zr42  1  -0.00941047  0.39265674  -0.01520854  1
  Zr  Zr43  1  0.80666587  0.20091039  -0.01066536  1
  Zr  Zr44  1  0.50038531  0.70622586  0.37510422  1
  Zr  Zr45  1  0.70869190  0.49899221  0.10014651  1
  Zr  Zr46  1  -0.00758575  0.79346886  0.24240672  1
  Zr  Zr47  1  0.30215107  0.50373257  0.62947681  1
  Zr  Zr48  1  0.38639986  0.82126882  -0.00106849  1
  Zr  Zr49  1  0.79767704  0.77544033  0.52061994  1
  Zr  Zr50  1  0.40852904  0.19411121  0.75350164  1
  Zr  Zr51  1  0.70822376  0.30269173  0.38369935  1
  Zr  Zr52  1  0.30153377  0.50585992  0.37680764  1
  Zr  Zr53  1  0.59934438  0.81174980  -0.01160755  1
  Zr  Zr54  1  0.69701431  0.89557656  0.11906742  1
  Zr  Zr55  1  0.90603224  0.48571880  0.37221044  1
  Zr  Zr56  1  0.18989643  0.39757936  0.50741572  1
  Zr  Zr57  1  0.10140416  0.30700718  0.65171402  1
  Zr  Zr58  1  -0.00554536  -0.00066281  0.00426912  1
  Zr  Zr59  1  0.19797077  0.59588751  0.24476007  1
  Zr  Zr60  1  0.30762201  0.09660539  0.62297788  1
  Zr  Zr61  1  0.70827247  0.10439041  0.13150588  1
  Zr  Zr62  1  0.31127351  0.30699913  0.87872133  1
  Zr  Zr63  1  0.01540568  0.18795418  0.52189690  1
  Zr  Zr64  1  0.70573201  0.09389758  0.38005020  1
  Zr  Zr65  1  0.50185573  0.30838959  0.36713723  1
  Zr  Zr66  1  -0.00263944  0.58799390  0.24319015  1
  Zr  Zr67  1  0.00929117  0.19156282  -0.01790313  1
  Zr  Zr68  1  0.20855132  0.79784294  0.24724789  1
  Zr  Zr69  1  0.39652809  0.19999325  0.49313960  1
  Zr  Zr70  1  0.00893751  0.80474874  0.00528818  1
  Zr  Zr71  1  0.49932294  0.47366125  0.89967448  1
  Zr  Zr72  1  0.59382400  0.79913886  0.76181265  1
  Zr  Zr73  1  0.70150150  0.50427335  0.37828694  1
  Zr  Zr74  1  0.89780339  0.88050639  0.38537642  1
  Zr  Zr75  1  0.51210801  0.49766330  0.61524282  1
  Zr  Zr76  1  0.09695643  0.69878895  0.87199519  1
  Zr  Zr77  1  0.49713656  0.91015564  0.62176246  1
  Zr  Zr78  1  0.50021628  0.70706832  0.11330136  1
  Zr  Zr79  1  0.79850292  0.79807012  0.73871723  1
  Ta  Ta80  1  0.38982487  0.59848614  0.76052109  1
  Ta  Ta81  1  0.89890679  0.48979037  0.63706901  1
  Ta  Ta82  1  0.69008162  0.10670276  0.87021728  1
  Ta  Ta83  1  0.59341272  0.01581114  -0.00376776  1
  Ta  Ta84  1  0.50113161  0.29831778  0.61334028  1
  Ta  Ta85  1  0.10316069  0.10738594  0.36627385  1
  Ta  Ta86  1  0.29237183  0.51097034  0.10519645  1
  Ta  Ta87  1  0.60743230  0.60342810  0.24171395  1
  Ta  Ta88  1  0.70802765  0.91473789  0.86773588  1
  Ta  Ta89  1  0.81909911  0.19527124  0.25784112  1
  Ta  Ta90  1  0.39675993  -0.00363171  0.75141214  1
  Ta  Ta91  1  -0.00345111  0.38817238  0.51156658  1
  Ta  Ta92  1  0.79551010  0.59917644  0.24227990  1
  Ta  Ta93  1  0.70275114  0.70504345  0.37183152  1
  Ta  Ta94  1  0.48641676  0.69138065  0.88322660  1
  Ta  Ta95  1  0.50111418  0.90102014  0.37414938  1
  Ta  Ta96  1  0.01510849  0.37578440  0.24584543  1
  Ta  Ta97  1  0.49195472  0.91625602  0.87461940  1
  Ta  Ta98  1  0.90594593  0.08695313  0.64565071  1
  Ta  Ta99  1  0.80698407  -0.00819980  0.25257234  1
  Ta  Ta100  1  0.30245311  0.90572144  0.38282139  1
  Ta  Ta101  1  0.39765737  0.20999115  0.24056311  1
  Ta  Ta102  1  0.61247372  0.61403415  0.49814739  1
  Ta  Ta103  1  0.20064119  0.20928586  0.50623433  1
  Ta  Ta104  1  0.49674218  0.91403570  0.13105065  1
  Ta  Ta105  1  0.91472780  0.89834179  0.85564052  1
  Ta  Ta106  1  0.70767513  0.51545620  0.61631647  1
  Ta  Ta107  1  0.10023459  0.48806853  0.37447361  1
  Ta  Ta108  1  -0.00078348  0.78825447  0.72238627  1
  Ta  Ta109  1  0.60794630  -0.01084552  0.25770696  1
  Ta  Ta110  1  0.81173384  0.40557300  0.50674220  1
  Ta  Ta111  1  0.88463345  0.50072865  0.87439264  1
  Ta  Ta112  1  0.79996613  0.59816688  0.74906571  1
  Ta  Ta113  1  0.19116261  0.22518139  0.24558207  1
  Ta  Ta114  1  0.60074891  0.40714578  0.23661432  1
  Ta  Ta115  1  0.30438153  0.30236596  0.63454451  1
  Ta  Ta116  1  0.51074680  0.10423474  0.14202117  1
  Ta  Ta117  1  0.79135277  0.20519160  0.74899342  1
  Ta  Ta118  1  0.50880327  0.50669533  0.37391421  1
  Ta  Ta119  1  0.69291063  0.90338528  0.63368317  1
  Ti  Ti120  1  0.60614049  0.80911213  0.49878750  1
  Ti  Ti121  1  0.18436334  0.60520667  0.73807978  1
  Ti  Ti122  1  0.10017959  0.48431283  0.12341496  1
  Ti  Ti123  1  0.61335911  0.20853578  0.25203658  1
  Ti  Ti124  1  0.69982896  0.69516988  0.10914198  1
  Ti  Ti125  1  0.90015632  0.29956294  0.64805348  1
  Ti  Ti126  1  0.29559437  0.90043585  0.61333997  1
  Ti  Ti127  1  0.39838595  0.81241125  0.24525678  1
  Ti  Ti128  1  0.60083598  -0.00306748  0.49350683  1
  Ti  Ti129  1  0.29935902  0.70465046  0.62009787  1
  Ti  Ti130  1  0.29121670  0.31101875  0.11876351  1
  Ti  Ti131  1  0.29435411  0.70647912  0.10435014  1
  Ti  Ti132  1  0.59468933  0.01013266  0.75572387  1
  Ti  Ti133  1  0.50422072  0.10067534  0.61960700  1
  Ti  Ti134  1  0.10729384  0.68596053  0.11188717  1
  Ti  Ti135  1  0.90303682  0.48996788  0.11718876  1
  Ti  Ti136  1  0.00746016  0.58269153  -0.00441751  1
  Ti  Ti137  1  0.89285788  0.30161797  0.85523302  1
  Ti  Ti138  1  0.77814713  0.40865817  0.75252491  1
  Ti  Ti139  1  0.08756348  0.29586190  0.37986506  1
  Ti  Ti140  1  0.20864757  0.18735654  0.74549807  1
  Ti  Ti141  1  0.69962154  0.29914764  0.11744993  1
  Ti  Ti142  1  0.59486709  0.79889435  0.25026348  1
  Ti  Ti143  1  -0.00123971  0.41978362  0.76144734  1
  Ti  Ti144  1  0.28295145  0.30768390  0.36774574  1
  Ti  Ti145  1  -0.00898574  0.00270537  0.24556269  1
  Ti  Ti146  1  0.40496038  0.00928121  0.00894352  1
  Ti  Ti147  1  0.80902825  0.80874391  -0.00438118  1
  Ti  Ti148  1  0.59874968  0.20239562  0.49700077  1
  Ti  Ti149  1  0.20366588  0.00137636  0.25362351  1
  Ti  Ti150  1  0.29840216  0.51305331  0.89153086  1
  Ti  Ti151  1  0.60021771  0.59814369  -0.00997757  1
  Ti  Ti152  1  0.27796259  0.90425080  0.86914378  1
  Ti  Ti153  1  0.20815299  0.42002888  0.76190196  1
  Ti  Ti154  1  0.40424510  0.00108560  0.49167885  1
  Ti  Ti155  1  0.89103724  0.68431195  0.37650472  1
  Ti  Ti156  1  0.40567661  0.60595448  0.49937779  1
  Ti  Ti157  1  0.20219772  0.19765012  -0.00061631  1
  Ti  Ti158  1  0.39965829  -0.00176788  0.25100036  1
  Ti  Ti159  1  0.40066187  0.80589523  0.50190717  1
  Mo  Mo160  1  0.38837048  0.39651318  0.01572061  1
  Mo  Mo161  1  0.50368121  0.09809694  0.87862368  1
  Mo  Mo162  1  0.00045853  0.79647304  0.52142938  1
  Mo  Mo163  1  0.30943496  0.90827055  0.13390195  1
  Mo  Mo164  1  0.19520022  0.80395545  0.00658861  1
  Mo  Mo165  1  0.69192759  0.89012883  0.37617154  1
  Mo  Mo166  1  0.60010251  0.40493666  0.49498933  1
  Mo  Mo167  1  0.80652242  0.39639425  0.00065229  1
  Mo  Mo168  1  0.10453696  0.09576103  0.64646785  1
  Mo  Mo169  1  0.78969395  -0.00157450  0.74486099  1
  Mo  Mo170  1  0.20518197  0.80730429  0.50867287  1
  Mo  Mo171  1  0.10194076  0.69950924  0.61462669  1
  Mo  Mo172  1  0.89859724  0.89648591  0.62809476  1
  Mo  Mo173  1  -0.00332753  0.59848055  0.74014960  1
  Mo  Mo174  1  0.89292415  0.90167885  0.13023251  1
  Mo  Mo175  1  0.10631522  0.30126076  0.11696829  1
  Mo  Mo176  1  -0.00192271  -0.00176820  0.51363008  1
  Mo  Mo177  1  0.59059861  0.37537965  0.02022994  1
  Mo  Mo178  1  -0.00402541  0.19851256  0.74562749  1
  Mo  Mo179  1  0.89939755  0.09121417  0.13494888  1
  Mo  Mo180  1  0.91068453  0.29519252  0.38062030  1
  Mo  Mo181  1  0.09411501  0.50003306  0.64267031  1
  Mo  Mo182  1  0.19590602  0.40411485  0.24565939  1
  Mo  Mo183  1  0.50770338  0.29823763  0.14411745  1
  Mo  Mo184  1  0.09670720  0.88957055  0.86690074  1
  Mo  Mo185  1  0.81338405  0.59881538  -0.00269769  1
  Mo  Mo186  1  0.60594578  0.40449178  0.74879402  1
  Mo  Mo187  1  0.68708628  0.69317675  0.63169501  1
  Mo  Mo188  1  0.89312349  0.68202224  0.63145565  1
  Mo  Mo189  1  0.39644867  0.60536427  -0.00575219  1
  Mo  Mo190  1  0.80047923  0.59383672  0.50136016  1
  Mo  Mo191  1  0.70434885  0.50128622  0.89393885  1
  Mo  Mo192  1  0.09621830  0.90296946  0.60663213  1
  Mo  Mo193  1  0.20961233  -0.00636107  0.73811641  1
  Mo  Mo194  1  0.60610923  0.19451326  0.00702289  1
  Mo  Mo195  1  0.18794911  0.59865006  0.00368468  1
  Mo  Mo196  1  0.00743682  -0.02166801  0.73221917  1
  Mo  Mo197  1  0.00121753  0.19620628  0.25706563  1
  Mo  Mo198  1  0.50370748  0.29105573  0.88315438  1
  Mo  Mo199  1  0.09964250  0.50575639  0.86212398  1
