# generated using pymatgen
data_HfZrTaTiMo
_symmetry_space_group_name_H-M   'P 1'
_cell_length_a   15.20899206
_cell_length_b   15.21477408
_cell_length_c   16.85254270
_cell_angle_alpha   89.94607508
_cell_angle_beta   89.97708544
_cell_angle_gamma   89.93462883
_symmetry_Int_Tables_number   1
_chemical_formula_structural   HfZrTaTiMo
_chemical_formula_sum   'Hf40 Zr40 Ta40 Ti40 Mo40'
_cell_volume   3899.69703084
_cell_formula_units_Z   40
loop_
 _symmetry_equiv_pos_site_id
 _symmetry_equiv_pos_as_xyz
  1  'x, y, z'
loop_
 _atom_site_type_symbol
 _atom_site_label
 _atom_site_symmetry_multiplicity
 _atom_site_fract_x
 _atom_site_fract_y
 _atom_site_fract_z
 _atom_site_occupancy
  Hf  Hf0  1  0.69505805  0.67045176  0.86632978  1
  Hf  Hf1  1  0.21209150  0.20677849  -0.00600847  1
  Hf  Hf2  1  0.19133188  -0.00178107  0.24913999  1
  Hf  Hf3  1  0.50990322  0.51324446  0.88016477  1
  Hf  Hf4  1  0.80154348  0.39427447  0.03537784  1
  Hf  Hf5  1  0.39932979  0.80350234  0.24482790  1
  Hf  Hf6  1  0.89178450  0.50130293  0.37461571  1
  Hf  Hf7  1  0.08806723  0.30526388  0.87499275  1
  Hf  Hf8  1  0.60055126  0.19528444  0.73746872  1
  Hf  Hf9  1  0.70589740  0.89357085  0.62476261  1
  Hf  Hf10  1  0.21949189  0.60614804  0.26034666  1
  Hf  Hf11  1  0.29826192  0.52871801  0.62829085  1
  Hf  Hf12  1  0.30816147  0.08445091  0.85463704  1
  Hf  Hf13  1  0.80697307  0.79257847  0.76098372  1
  Hf  Hf14  1  0.11572729  0.70292027  0.63358932  1
  Hf  Hf15  1  0.77980591  0.41112076  0.24028807  1
  Hf  Hf16  1  0.09164647  0.30227559  0.35904530  1
  Hf  Hf17  1  0.79627785  0.19698468  0.00497910  1
  Hf  Hf18  1  0.29482142  0.31021573  0.14275012  1
  Hf  Hf19  1  0.50458651  0.30122048  0.86181195  1
  Hf  Hf20  1  0.80322434  0.58673075  0.01049970  1
  Hf  Hf21  1  0.91202186  0.68244393  0.63505641  1
  Hf  Hf22  1  0.69574694  0.67695208  0.62368879  1
  Hf  Hf23  1  0.10260509  0.71525633  0.13595786  1
  Hf  Hf24  1  0.09507010  0.50390551  0.61662186  1
  Hf  Hf25  1  0.29932394  0.71205672  0.88098095  1
  Hf  Hf26  1  0.70761127  0.07771945  0.37522567  1
  Hf  Hf27  1  0.60240578  0.19007996  0.50473216  1
  Hf  Hf28  1  0.90942363  0.90404497  0.63468368  1
  Hf  Hf29  1  0.91797407  0.09433914  0.88191830  1
  Hf  Hf30  1  0.80207631  -0.00627379  0.76894922  1
  Hf  Hf31  1  0.50048033  0.30917197  0.62148837  1
  Hf  Hf32  1  0.49479201  0.08803078  0.37572285  1
  Hf  Hf33  1  0.20521181  0.00423883  0.50124330  1
  Hf  Hf34  1  0.69307596  0.07715496  0.11860329  1
  Hf  Hf35  1  0.10025418  0.50250718  0.36627241  1
  Hf  Hf36  1  0.71380298  0.31660011  0.87801956  1
  Hf  Hf37  1  -0.01821248  0.40347638  0.23316546  1
  Hf  Hf38  1  0.80106020  0.18820853  0.23775151  1
  Hf  Hf39  1  0.10601271  0.51121515  0.13609901  1
  Zr  Zr40  1  0.50875026  0.70544780  0.12354166  1
  Zr  Zr41  1  0.91343634  0.07225117  0.11185976  1
  Zr  Zr42  1  0.79716723  0.56378452  0.74486409  1
  Zr  Zr43  1  0.28379585  0.31322294  0.36063317  1
  Zr  Zr44  1  0.59434460  0.39446862  0.01102677  1
  Zr  Zr45  1  0.08569004  0.09932178  0.37585103  1
  Zr  Zr46  1  0.28907226  0.31038426  0.63694896  1
  Zr  Zr47  1  0.39208138  0.19241038  0.50802310  1
  Zr  Zr48  1  0.81042921  0.79101953  0.50140961  1
  Zr  Zr49  1  0.30644599  0.29349255  0.85328333  1
  Zr  Zr50  1  0.00549246  0.19818439  0.00646651  1
  Zr  Zr51  1  0.58899998  0.78995727  0.74374601  1
  Zr  Zr52  1  -0.00653746  0.40784326  0.01767117  1
  Zr  Zr53  1  0.41173656  0.20293440  0.00401739  1
  Zr  Zr54  1  0.71724167  0.29684372  0.61611164  1
  Zr  Zr55  1  0.30055651  0.50455783  0.87404973  1
  Zr  Zr56  1  0.19387809  0.21385339  0.50287412  1
  Zr  Zr57  1  0.50981629  0.90788555  0.11896346  1
  Zr  Zr58  1  0.59103403  -0.00631843  0.74534984  1
  Zr  Zr59  1  0.80817304  0.77847384  -0.01371069  1
  Zr  Zr60  1  0.40439949  0.00728831  0.23815687  1
  Zr  Zr61  1  0.61772661  0.42136301  0.74288259  1
  Zr  Zr62  1  0.38198489  0.41358206  0.49737014  1
  Zr  Zr63  1  0.21067678  0.00420162  0.00450667  1
  Zr  Zr64  1  0.91603947  0.70222232  0.36180374  1
  Zr  Zr65  1  0.49160879  0.30006591  0.37343433  1
  Zr  Zr66  1  0.80953710  0.20215813  0.75739160  1
  Zr  Zr67  1  0.19637578  0.60680422  -0.00243685  1
  Zr  Zr68  1  0.59372727  0.78894171  0.50501146  1
  Zr  Zr69  1  0.01202527  0.80356908  0.50039384  1
  Zr  Zr70  1  0.67100361  0.28394414  0.13376700  1
  Zr  Zr71  1  0.18391295  0.41353700  0.75497490  1
  Zr  Zr72  1  0.10469638  0.29225872  0.13920927  1
  Zr  Zr73  1  0.49901427  0.71564676  0.89169753  1
  Zr  Zr74  1  0.38940582  0.40760755  0.00352171  1
  Zr  Zr75  1  0.40210579  0.62225286  0.48924515  1
  Zr  Zr76  1  0.69270691  0.29581355  0.37155441  1
  Zr  Zr77  1  0.80442849  -0.02025972  -0.02026407  1
  Zr  Zr78  1  0.09484076  0.09877007  0.62354205  1
  Zr  Zr79  1  0.21379963  0.80084674  0.49780887  1
  Ta  Ta80  1  0.29727950  0.10990230  0.36377351  1
  Ta  Ta81  1  0.09611102  0.89964973  0.37655217  1
  Ta  Ta82  1  -0.02405118  0.39870988  0.75063939  1
  Ta  Ta83  1  0.67857408  0.88427189  0.87900964  1
  Ta  Ta84  1  0.89424620  0.91821486  0.37834497  1
  Ta  Ta85  1  0.20078992  0.60370325  0.48419929  1
  Ta  Ta86  1  0.59421317  -0.00893717  0.51074021  1
  Ta  Ta87  1  0.00226717  0.20157298  0.75278944  1
  Ta  Ta88  1  0.80855924  -0.01625035  0.24304921  1
  Ta  Ta89  1  0.70237939  0.88195440  0.11473309  1
  Ta  Ta90  1  0.90395809  0.69960322  0.14311186  1
  Ta  Ta91  1  0.08312892  0.90711141  0.12168454  1
  Ta  Ta92  1  -0.01372661  0.21391069  0.49678894  1
  Ta  Ta93  1  0.61231907  0.59632159  0.25458138  1
  Ta  Ta94  1  0.80978654  0.17716851  0.49377553  1
  Ta  Ta95  1  0.40677123  0.61369304  0.75035745  1
  Ta  Ta96  1  0.90137326  0.47796921  0.60540662  1
  Ta  Ta97  1  0.81542723  0.37755464  0.48699626  1
  Ta  Ta98  1  0.92161852  0.67475924  0.85929449  1
  Ta  Ta99  1  0.48568986  0.69852559  0.62492620  1
  Ta  Ta100  1  0.39085945  0.81339530  0.74694101  1
  Ta  Ta101  1  0.88447461  0.47790017  0.88066229  1
  Ta  Ta102  1  0.41216230  0.42016831  0.74062531  1
  Ta  Ta103  1  0.49659680  0.10278597  0.86859327  1
  Ta  Ta104  1  0.50053865  0.89663025  0.37550407  1
  Ta  Ta105  1  0.59293512  0.00254407  -0.01205119  1
  Ta  Ta106  1  0.30836398  0.91487555  0.37522963  1
  Ta  Ta107  1  0.39194068  0.42234879  0.25713702  1
  Ta  Ta108  1  0.89759518  0.28815702  0.35868919  1
  Ta  Ta109  1  0.71112877  0.68407965  0.37744012  1
  Ta  Ta110  1  0.18017700  0.81218079  -0.01002485  1
  Ta  Ta111  1  0.60670744  0.60033461  0.01239506  1
  Ta  Ta112  1  0.41332076  0.60398354  0.26060416  1
  Ta  Ta113  1  0.69644603  0.88666480  0.38179739  1
  Ta  Ta114  1  0.07532536  0.51802315  0.87511629  1
  Ta  Ta115  1  0.38467094  0.81545687  0.00866129  1
  Ta  Ta116  1  0.70352592  0.49059614  0.59036496  1
  Ta  Ta117  1  -0.00620099  0.61371299  0.00656056  1
  Ta  Ta118  1  0.07986938  0.30967132  0.62398956  1
  Ta  Ta119  1  0.78993105  0.80107558  0.25432620  1
  Ti  Ti120  1  0.89952227  0.10186805  0.63115701  1
  Ti  Ti121  1  0.01540581  -0.00587130  0.75635465  1
  Ti  Ti122  1  0.68996358  0.10317422  0.87910225  1
  Ti  Ti123  1  0.30445640  0.69945637  0.11774000  1
  Ti  Ti124  1  0.39884767  0.00943833  0.00865132  1
  Ti  Ti125  1  -0.00454154  0.17941388  0.24097882  1
  Ti  Ti126  1  0.40101559  0.81693177  0.50792990  1
  Ti  Ti127  1  0.47894480  0.91029182  0.88039461  1
  Ti  Ti128  1  0.29726638  0.90327808  0.63286157  1
  Ti  Ti129  1  0.50735615  0.11386567  0.12340337  1
  Ti  Ti130  1  0.50714968  0.50512719  0.38371486  1
  Ti  Ti131  1  0.10840152  0.09554094  0.12564053  1
  Ti  Ti132  1  0.40084056  0.00093708  0.51142044  1
  Ti  Ti133  1  0.31072406  0.71626522  0.37283047  1
  Ti  Ti134  1  0.51141193  0.51170336  0.61010711  1
  Ti  Ti135  1  0.19216440  0.19459809  0.74488263  1
  Ti  Ti136  1  0.00179723  0.60207544  0.49314663  1
  Ti  Ti137  1  -0.00189242  0.82032276  0.25495975  1
  Ti  Ti138  1  0.11054686  0.09370331  0.86981581  1
  Ti  Ti139  1  0.69552192  0.49786885  0.39470647  1
  Ti  Ti140  1  0.19807422  0.80579612  0.26267729  1
  Ti  Ti141  1  0.89947792  0.88226686  0.11640543  1
  Ti  Ti142  1  0.19342787  0.81742222  0.76520696  1
  Ti  Ti143  1  0.58999770  0.18294317  0.25664295  1
  Ti  Ti144  1  0.19518051  0.61592620  0.76342362  1
  Ti  Ti145  1  0.70624706  0.69749450  0.13361785  1
  Ti  Ti146  1  0.19166279  0.40499492  -0.00506605  1
  Ti  Ti147  1  0.93649155  0.87650477  0.87273484  1
  Ti  Ti148  1  -0.01828931  0.01100504  0.50061106  1
  Ti  Ti149  1  0.58472254  0.41116274  0.25060700  1
  Ti  Ti150  1  0.51803207  0.70884510  0.36592099  1
  Ti  Ti151  1  0.48493443  0.30308839  0.14445702  1
  Ti  Ti152  1  0.10441135  0.90218876  0.63208981  1
  Ti  Ti153  1  0.61157639  -0.02284798  0.25142627  1
  Ti  Ti154  1  0.31093227  0.09860503  0.64525287  1
  Ti  Ti155  1  0.49409132  0.50761332  0.12757039  1
  Ti  Ti156  1  0.71043870  0.08774454  0.62226185  1
  Ti  Ti157  1  0.28423328  0.89373425  0.12769003  1
  Ti  Ti158  1  0.30482950  0.51108606  0.12474500  1
  Ti  Ti159  1  0.30254267  0.11515217  0.13820606  1
  Mo  Mo160  1  0.09197770  0.70992427  0.86844542  1
  Mo  Mo161  1  0.30703262  0.90028682  0.87864516  1
  Mo  Mo162  1  0.59788449  0.39861246  0.49576896  1
  Mo  Mo163  1  0.00652836  0.61155331  0.25106768  1
  Mo  Mo164  1  0.40601714  0.20326788  0.73853318  1
  Mo  Mo165  1  0.20262130  -0.00212960  0.74327285  1
  Mo  Mo166  1  0.18454363  0.41410899  0.50200072  1
  Mo  Mo167  1  0.60395102  0.80302661  -0.00306267  1
  Mo  Mo168  1  0.19992966  0.41160073  0.24568964  1
  Mo  Mo169  1  0.50130944  0.09724780  0.62011312  1
  Mo  Mo170  1  0.89622933  0.51718152  0.13853255  1
  Mo  Mo171  1  0.90441616  0.29769120  0.88148998  1
  Mo  Mo172  1  0.79780802  -0.00353185  0.50620012  1
  Mo  Mo173  1  0.19771088  0.19091303  0.24890487  1
  Mo  Mo174  1  0.01915896  -0.01820729  -0.01082751  1
  Mo  Mo175  1  0.59932868  0.18874113  -0.00919087  1
  Mo  Mo176  1  0.58633414  0.59074825  0.74008570  1
  Mo  Mo177  1  0.40499874  -0.00279684  0.74020913  1
  Mo  Mo178  1  0.68182150  0.50913859  0.13313978  1
  Mo  Mo179  1  0.00852513  0.79669707  0.74682024  1
  Mo  Mo180  1  0.89221060  0.28999781  0.14203979  1
  Mo  Mo181  1  0.10924059  0.90848201  0.87198314  1
  Mo  Mo182  1  -0.00542810  -0.00885583  0.24871815  1
  Mo  Mo183  1  0.80394522  0.39219095  0.74214152  1
  Mo  Mo184  1  0.00058686  0.79276135  0.00121488  1
  Mo  Mo185  1  0.30631890  0.51040809  0.37801884  1
  Mo  Mo186  1  0.00473250  0.39740508  0.48871103  1
  Mo  Mo187  1  0.60833915  0.79918760  0.25736574  1
  Mo  Mo188  1  0.89751455  0.09882522  0.36967232  1
  Mo  Mo189  1  0.48940019  0.89928726  0.62076249  1
  Mo  Mo190  1  0.80017376  0.60122931  0.24702434  1
  Mo  Mo191  1  0.90661070  0.28874033  0.62012813  1
  Mo  Mo192  1  0.40139857  0.60826803  0.01194108  1
  Mo  Mo193  1  0.69872497  0.49545340  0.88687038  1
  Mo  Mo194  1  0.80979238  0.59206763  0.49994639  1
  Mo  Mo195  1  0.10962128  0.70890367  0.36720028  1
  Mo  Mo196  1  0.00687132  0.58437365  0.74611188  1
  Mo  Mo197  1  0.59950829  0.59853012  0.48729321  1
  Mo  Mo198  1  0.29766258  0.71304487  0.63803912  1
  Mo  Mo199  1  0.40275453  0.20389905  0.24775834  1
