# generated using pymatgen
data_HfZrTaTiMo
_symmetry_space_group_name_H-M   'P 1'
_cell_length_a   15.21626580
_cell_length_b   15.20088090
_cell_length_c   16.87356053
_cell_angle_alpha   89.96655776
_cell_angle_beta   90.02459936
_cell_angle_gamma   90.04708266
_symmetry_Int_Tables_number   1
_chemical_formula_structural   HfZrTaTiMo
_chemical_formula_sum   'Hf40 Zr40 Ta40 Ti40 Mo40'
_cell_volume   3902.86307793
_cell_formula_units_Z   40
loop_
 _symmetry_equiv_pos_site_id
 _symmetry_equiv_pos_as_xyz
  1  'x, y, z'
loop_
 _atom_site_type_symbol
 _atom_site_label
 _atom_site_symmetry_multiplicity
 _atom_site_fract_x
 _atom_site_fract_y
 _atom_site_fract_z
 _atom_site_occupancy
  Hf  Hf0  1  0.90000610  0.31531599  0.62278650  1
  Hf  Hf1  1  0.70768957  0.91953806  0.13838161  1
  Hf  Hf2  1  0.19572626  0.00208642  0.23867265  1
  Hf  Hf3  1  0.30829857  0.68546336  0.11864286  1
  Hf  Hf4  1  0.30563152  0.89788827  0.37182392  1
  Hf  Hf5  1  0.87420794  0.09372728  0.88587924  1
  Hf  Hf6  1  0.40125490  0.19689729  0.49890435  1
  Hf  Hf7  1  0.00779467  -0.00439606  0.50132829  1
  Hf  Hf8  1  0.30540261  0.32369378  0.12901929  1
  Hf  Hf9  1  0.91786117  0.48619128  0.13230889  1
  Hf  Hf10  1  0.20735831  0.80393590  0.75201601  1
  Hf  Hf11  1  0.50201168  0.69813771  0.88591993  1
  Hf  Hf12  1  0.79977978  0.79368390  0.74351226  1
  Hf  Hf13  1  0.29799874  0.09595688  0.37820626  1
  Hf  Hf14  1  0.30087621  0.30771954  0.61527621  1
  Hf  Hf15  1  0.50556677  0.70910378  0.37104683  1
  Hf  Hf16  1  0.90344725  0.10152853  0.62646687  1
  Hf  Hf17  1  0.20017492  0.60075942  0.25859437  1
  Hf  Hf18  1  0.29470850  0.89863824  0.11127366  1
  Hf  Hf19  1  0.89744802  0.69435221  0.38624340  1
  Hf  Hf20  1  0.47748984  0.49913037  0.11711225  1
  Hf  Hf21  1  0.00210994  0.77848669  0.25854701  1
  Hf  Hf22  1  0.09526900  0.89307127  0.11442224  1
  Hf  Hf23  1  0.42811764  0.40552804  0.49260266  1
  Hf  Hf24  1  0.39999817  0.40455128  0.74157136  1
  Hf  Hf25  1  0.91491884  0.69369417  0.86979497  1
  Hf  Hf26  1  0.69066028  0.89552312  0.36348756  1
  Hf  Hf27  1  0.79091264  0.40306055  0.75932426  1
  Hf  Hf28  1  0.78725507  0.19896717  0.74845006  1
  Hf  Hf29  1  0.78884630  0.00199018  0.50528915  1
  Hf  Hf30  1  -0.01126992  0.20186292  0.23509933  1
  Hf  Hf31  1  0.09518597  0.30049255  0.88539101  1
  Hf  Hf32  1  0.40199228  0.00490565  0.23806929  1
  Hf  Hf33  1  0.31979261  0.70824735  0.62776632  1
  Hf  Hf34  1  0.89389925  0.86912941  0.13589155  1
  Hf  Hf35  1  0.87766145  0.07944437  0.12269837  1
  Hf  Hf36  1  0.09144818  0.88782377  0.88100258  1
  Hf  Hf37  1  0.50416086  0.49374682  0.87968224  1
  Hf  Hf38  1  0.31059904  0.11091644  0.87117611  1
  Hf  Hf39  1  0.20496504  -0.00099962  0.50936159  1
  Zr  Zr40  1  0.08674769  0.32093508  0.11027816  1
  Zr  Zr41  1  0.69622655  0.09384701  0.36912004  1
  Zr  Zr42  1  0.40700576  0.02120286  0.00164317  1
  Zr  Zr43  1  0.59738173  0.20793693  0.49694459  1
  Zr  Zr44  1  0.18756126  0.00983718  0.75694663  1
  Zr  Zr45  1  0.80718891  0.60793562  0.24862476  1
  Zr  Zr46  1  0.08503908  0.49580835  0.61356298  1
  Zr  Zr47  1  0.20338005  0.60067640  0.73882098  1
  Zr  Zr48  1  0.40904307  0.60998561  0.49616965  1
  Zr  Zr49  1  0.28743292  0.30967110  0.38651341  1
  Zr  Zr50  1  0.18940150  0.21394445  0.24432057  1
  Zr  Zr51  1  0.89570912  0.89422575  0.37084292  1
  Zr  Zr52  1  0.89062190  0.09818771  0.36661237  1
  Zr  Zr53  1  -0.00871250  0.58748284  0.00291795  1
  Zr  Zr54  1  0.09236527  0.69024223  0.12333736  1
  Zr  Zr55  1  0.69877240  0.49810281  0.13288351  1
  Zr  Zr56  1  0.68157761  0.28503910  0.87670375  1
  Zr  Zr57  1  0.79942537  0.40969942  -0.00355706  1
  Zr  Zr58  1  -0.02525811  -0.02174805  -0.00825946  1
  Zr  Zr59  1  0.09679608  0.10164566  0.36845578  1
  Zr  Zr60  1  0.09459863  0.51637655  0.86990849  1
  Zr  Zr61  1  0.21032460  0.40797576  -0.00715972  1
  Zr  Zr62  1  0.19701662  0.40032768  0.75071184  1
  Zr  Zr63  1  0.59844893  0.79773604  0.76028558  1
  Zr  Zr64  1  0.40718647  0.79388592  0.24000986  1
  Zr  Zr65  1  0.50870409  0.90465570  0.11331649  1
  Zr  Zr66  1  0.61933371  0.59496973  -0.00047258  1
  Zr  Zr67  1  0.30267607  0.09987936  0.63492385  1
  Zr  Zr68  1  0.79389457  0.58967731  0.50734055  1
  Zr  Zr69  1  0.80863102  0.59154430  0.74235593  1
  Zr  Zr70  1  0.79019380  0.79407103  0.51449886  1
  Zr  Zr71  1  0.90239732  0.89296176  0.62669276  1
  Zr  Zr72  1  0.39657420  0.20840927  0.25622156  1
  Zr  Zr73  1  0.50405876  0.91268245  0.88297625  1
  Zr  Zr74  1  0.30055138  0.69504569  0.87813041  1
  Zr  Zr75  1  -0.00683709  0.20443002  0.49908644  1
  Zr  Zr76  1  0.62828095  0.80401372  -0.00021668  1
  Zr  Zr77  1  0.00283322  0.19386210  0.75440657  1
  Zr  Zr78  1  0.09729354  0.10177950  0.10155519  1
  Zr  Zr79  1  0.69743628  0.30527933  0.37473706  1
  Ta  Ta80  1  0.92027700  0.68145903  0.62106876  1
  Ta  Ta81  1  0.20498498  0.80138488  0.50497358  1
  Ta  Ta82  1  0.69412564  0.50277041  0.36896389  1
  Ta  Ta83  1  0.71941852  0.91074367  0.87451287  1
  Ta  Ta84  1  0.50879463  0.09021997  0.62670317  1
  Ta  Ta85  1  0.01081867  0.39511813  0.26798893  1
  Ta  Ta86  1  -0.01221837  0.40944332  0.75586554  1
  Ta  Ta87  1  0.59280224  0.20390524  0.25392476  1
  Ta  Ta88  1  0.40720176  0.22323031  -0.00055773  1
  Ta  Ta89  1  0.89518004  0.29934375  0.88212381  1
  Ta  Ta90  1  0.20095320  0.79890333  0.24996909  1
  Ta  Ta91  1  0.69484508  0.69920378  0.37487024  1
  Ta  Ta92  1  0.40089791  0.59159934  0.26044005  1
  Ta  Ta93  1  0.78808391  0.20447541  0.23147653  1
  Ta  Ta94  1  0.41306250  -0.00505010  0.50481033  1
  Ta  Ta95  1  0.67969509  0.91195782  0.62907479  1
  Ta  Ta96  1  0.59315342  0.38251958  0.00266925  1
  Ta  Ta97  1  0.49197397  0.89249691  0.63781518  1
  Ta  Ta98  1  0.59482398  0.60367412  0.24512340  1
  Ta  Ta99  1  0.51320277  0.51319359  0.63079179  1
  Ta  Ta100  1  0.89601506  0.29607065  0.37280585  1
  Ta  Ta101  1  0.10244866  0.90089993  0.63000100  1
  Ta  Ta102  1  0.79492050  -0.00037040  0.74368468  1
  Ta  Ta103  1  0.60217039  0.01992834  0.75992375  1
  Ta  Ta104  1  0.10692893  0.89170648  0.37372411  1
  Ta  Ta105  1  0.40524281  0.80994110  0.50119896  1
  Ta  Ta106  1  0.77074517  0.19630669  0.01949647  1
  Ta  Ta107  1  0.29748426  0.50740889  0.38801687  1
  Ta  Ta108  1  0.31328034  0.49906947  0.87501399  1
  Ta  Ta109  1  0.80351027  0.39473693  0.49505545  1
  Ta  Ta110  1  0.09987234  0.29486711  0.62461871  1
  Ta  Ta111  1  0.50493136  0.30339393  0.13031549  1
  Ta  Ta112  1  0.01049967  0.78597901  0.74432295  1
  Ta  Ta113  1  0.69512270  0.10687321  0.62035317  1
  Ta  Ta114  1  0.30409636  0.89942953  0.88139553  1
  Ta  Ta115  1  0.50226486  0.09168183  0.37393201  1
  Ta  Ta116  1  0.18881758  0.20021722  0.50659542  1
  Ta  Ta117  1  0.20336019  0.20737854  0.75524595  1
  Ta  Ta118  1  0.09104936  0.10426007  0.89297336  1
  Ta  Ta119  1  0.01254386  0.79270534  0.50132662  1
  Ti  Ti120  1  0.20227881  0.00309954  -0.00989937  1
  Ti  Ti121  1  0.60929982  0.79165610  0.23577797  1
  Ti  Ti122  1  0.19818505  0.41319208  0.25751625  1
  Ti  Ti123  1  0.40272617  0.40837125  0.26838400  1
  Ti  Ti124  1  0.30034590  0.11304997  0.11646636  1
  Ti  Ti125  1  0.69844183  0.30230856  0.61690036  1
  Ti  Ti126  1  0.29927895  0.70743053  0.37825022  1
  Ti  Ti127  1  0.89846887  0.48929110  0.37213272  1
  Ti  Ti128  1  0.41690601  0.61062109  0.74745559  1
  Ti  Ti129  1  0.20403069  0.59562081  0.00269724  1
  Ti  Ti130  1  0.00086444  0.58609476  0.48892250  1
  Ti  Ti131  1  0.20048938  0.60076336  0.49955168  1
  Ti  Ti132  1  0.41315455  0.19922222  0.74544831  1
  Ti  Ti133  1  0.19403030  0.79094731  -0.00669112  1
  Ti  Ti134  1  0.51152622  0.30465104  0.62783722  1
  Ti  Ti135  1  0.59692334  0.59534338  0.49623849  1
  Ti  Ti136  1  0.30502243  0.50346758  0.61079163  1
  Ti  Ti137  1  0.50955810  0.69403555  0.11379365  1
  Ti  Ti138  1  0.00973594  0.58355294  0.26024425  1
  Ti  Ti139  1  0.61829291  0.02823708  -0.00735419  1
  Ti  Ti140  1  0.67844351  0.69236633  0.62564203  1
  Ti  Ti141  1  0.40399056  -0.00575851  0.75660435  1
  Ti  Ti142  1  0.50354941  0.90505002  0.37148059  1
  Ti  Ti143  1  0.69831599  0.48946432  0.62183174  1
  Ti  Ti144  1  0.81926111  0.79469249  -0.00937544  1
  Ti  Ti145  1  -0.02613490  0.20825511  0.00894167  1
  Ti  Ti146  1  0.10827555  0.69659481  0.38416149  1
  Ti  Ti147  1  0.21243181  0.20459150  -0.00800856  1
  Ti  Ti148  1  0.59101845  0.80351514  0.50672293  1
  Ti  Ti149  1  -0.00166509  -0.00958060  0.24607426  1
  Ti  Ti150  1  0.50910120  0.10920393  0.12742767  1
  Ti  Ti151  1  0.40038456  0.79529279  0.00201923  1
  Ti  Ti152  1  0.61535849  0.59496659  0.76358493  1
  Ti  Ti153  1  0.10666079  0.70072413  0.61708693  1
  Ti  Ti154  1  0.59077918  0.40291654  0.25174444  1
  Ti  Ti155  1  0.80445485  0.39217111  0.24707913  1
  Ti  Ti156  1  0.30604704  0.90140374  0.63206224  1
  Ti  Ti157  1  0.48703674  0.29645655  0.86840948  1
  Ti  Ti158  1  -0.00709503  -0.00772892  0.76051656  1
  Ti  Ti159  1  0.60002071  0.39970667  0.75092338  1
  Mo  Mo160  1  0.09964168  0.10019783  0.63125946  1
  Mo  Mo161  1  0.61102896  0.41655592  0.50401145  1
  Mo  Mo162  1  0.09528048  0.30303853  0.37772453  1
  Mo  Mo163  1  0.79681076  0.20487444  0.50766336  1
  Mo  Mo164  1  0.59344553  0.20939829  0.73537733  1
  Mo  Mo165  1  0.80362943  0.00306653  0.25497016  1
  Mo  Mo166  1  0.51024226  0.50443623  0.36713201  1
  Mo  Mo167  1  0.58927434  -0.01038782  0.50382866  1
  Mo  Mo168  1  0.11329714  0.49640634  0.13128167  1
  Mo  Mo169  1  0.10492415  0.49757557  0.38764979  1
  Mo  Mo170  1  0.78596800  -0.01468805  0.00047361  1
  Mo  Mo171  1  -0.00538067  0.39558715  -0.00894489  1
  Mo  Mo172  1  0.71735582  0.71267396  0.12772148  1
  Mo  Mo173  1  0.10656046  0.69958672  0.87889218  1
  Mo  Mo174  1  0.68974330  0.30322834  0.13202883  1
  Mo  Mo175  1  0.69597642  0.49933413  0.87342760  1
  Mo  Mo176  1  0.69362745  0.10060219  0.87271947  1
  Mo  Mo177  1  0.68228523  0.10227314  0.13658114  1
  Mo  Mo178  1  0.88866927  0.29821371  0.12525520  1
  Mo  Mo179  1  0.71225555  0.69859296  0.87560876  1
  Mo  Mo180  1  0.20055724  0.40298414  0.50357520  1
  Mo  Mo181  1  0.00107843  0.78727119  -0.00264934  1
  Mo  Mo182  1  0.40014645  0.80635868  0.75785478  1
  Mo  Mo183  1  0.51005206  0.70085185  0.62836670  1
  Mo  Mo184  1  0.89882072  0.49230320  0.61578927  1
  Mo  Mo185  1  0.29097490  0.50180799  0.13415001  1
  Mo  Mo186  1  0.00440728  0.59942185  0.74153830  1
  Mo  Mo187  1  0.58859360  0.00205075  0.24969880  1
  Mo  Mo188  1  0.40263857  0.40046131  -0.00434209  1
  Mo  Mo189  1  0.89749283  0.49122290  0.87503291  1
  Mo  Mo190  1  0.89825038  0.89277017  0.85695304  1
  Mo  Mo191  1  0.00244553  0.39785761  0.47971984  1
  Mo  Mo192  1  0.39743250  0.59721732  -0.00094696  1
  Mo  Mo193  1  0.79408630  0.79112174  0.25559220  1
  Mo  Mo194  1  0.50267720  0.30321283  0.36795172  1
  Mo  Mo195  1  0.30695840  0.30215159  0.86771063  1
  Mo  Mo196  1  0.89136691  0.68831723  0.12062690  1
  Mo  Mo197  1  0.50889043  0.11923619  0.86912634  1
  Mo  Mo198  1  0.58640581  0.19907159  0.00581511  1
  Mo  Mo199  1  0.79635397  0.61139184  -0.00346059  1
