# generated using pymatgen
data_HfZrTaTiMo
_symmetry_space_group_name_H-M   'P 1'
_cell_length_a   15.21011781
_cell_length_b   15.21099091
_cell_length_c   16.82623491
_cell_angle_alpha   90.04713257
_cell_angle_beta   90.00710325
_cell_angle_gamma   90.06845117
_symmetry_Int_Tables_number   1
_chemical_formula_structural   HfZrTaTiMo
_chemical_formula_sum   'Hf40 Zr40 Ta40 Ti40 Mo40'
_cell_volume   3892.92979757
_cell_formula_units_Z   40
loop_
 _symmetry_equiv_pos_site_id
 _symmetry_equiv_pos_as_xyz
  1  'x, y, z'
loop_
 _atom_site_type_symbol
 _atom_site_label
 _atom_site_symmetry_multiplicity
 _atom_site_fract_x
 _atom_site_fract_y
 _atom_site_fract_z
 _atom_site_occupancy
  Hf  Hf0  1  0.49506481  0.48674664  0.35623768  1
  Hf  Hf1  1  0.51399634  0.70700674  0.36246289  1
  Hf  Hf2  1  0.40719756  -0.00374443  0.75849358  1
  Hf  Hf3  1  0.69310883  0.29224184  0.62766486  1
  Hf  Hf4  1  0.79226060  0.79775961  0.75525566  1
  Hf  Hf5  1  -0.00189667  0.80332294  0.51390244  1
  Hf  Hf6  1  0.60004330  0.19081322  0.48424232  1
  Hf  Hf7  1  0.80627852  0.20131603  0.76515413  1
  Hf  Hf8  1  0.08945189  0.48955960  0.88129297  1
  Hf  Hf9  1  0.40458055  0.40688352  0.01153432  1
  Hf  Hf10  1  0.19159402  0.40270425  0.01224839  1
  Hf  Hf11  1  0.30091253  0.69896174  0.87791720  1
  Hf  Hf12  1  0.29764874  0.29509270  0.62867229  1
  Hf  Hf13  1  -0.00559448  0.00335656  0.52196876  1
  Hf  Hf14  1  0.20773615  0.00104424  0.50482537  1
  Hf  Hf15  1  0.69056470  0.50747190  0.89945228  1
  Hf  Hf16  1  0.12361933  0.88737757  0.64307964  1
  Hf  Hf17  1  0.81339624  -0.00595275  0.00712029  1
  Hf  Hf18  1  0.19957808  0.78905424  0.25539902  1
  Hf  Hf19  1  0.40213552  0.80335224  0.48349526  1
  Hf  Hf20  1  0.88803322  0.70823071  0.11761695  1
  Hf  Hf21  1  0.61389878  0.58464664  0.24225877  1
  Hf  Hf22  1  0.69785447  0.88702670  0.35653246  1
  Hf  Hf23  1  0.89229375  0.68801947  0.88370785  1
  Hf  Hf24  1  0.59589808  0.40034290  0.75314299  1
  Hf  Hf25  1  0.41666934  0.00937809  0.48003373  1
  Hf  Hf26  1  0.00509937  0.59670604  0.01121664  1
  Hf  Hf27  1  0.78745379  0.59661507  0.75768246  1
  Hf  Hf28  1  -0.01027267  0.80435168  0.23714950  1
  Hf  Hf29  1  0.91339173  0.89279598  0.86671226  1
  Hf  Hf30  1  0.00878513  0.01296992  0.73960253  1
  Hf  Hf31  1  0.80458608  0.40125782  0.76816450  1
  Hf  Hf32  1  0.50662728  0.11081779  0.62349131  1
  Hf  Hf33  1  0.69456324  0.70219922  0.61486053  1
  Hf  Hf34  1  0.02412599  0.00258670  -0.00201872  1
  Hf  Hf35  1  0.50708600  0.69735415  0.89084696  1
  Hf  Hf36  1  0.30690918  0.09113119  0.62445618  1
  Hf  Hf37  1  0.90612383  0.70345422  0.37316383  1
  Hf  Hf38  1  0.29370055  0.71072110  0.62915624  1
  Hf  Hf39  1  0.58870722  0.60254874  0.75126336  1
  Zr  Zr40  1  0.28981107  0.30430169  0.88581976  1
  Zr  Zr41  1  0.81314991  0.00132180  0.23670164  1
  Zr  Zr42  1  0.11301833  0.10216875  0.38283132  1
  Zr  Zr43  1  0.00088639  0.40969198  0.51333944  1
  Zr  Zr44  1  0.20143868  0.58911303  0.50372837  1
  Zr  Zr45  1  0.48393721  0.50375589  0.61708569  1
  Zr  Zr46  1  0.59625640  0.80163914  0.74714670  1
  Zr  Zr47  1  0.60714921  0.19670046  0.23807819  1
  Zr  Zr48  1  0.59908476  0.59758659  0.48743467  1
  Zr  Zr49  1  0.79618626  -0.00640851  0.50265962  1
  Zr  Zr50  1  0.18798132  0.39849296  0.74794563  1
  Zr  Zr51  1  0.19403395  0.18871093  0.76498759  1
  Zr  Zr52  1  0.10335218  0.50065158  0.36647548  1
  Zr  Zr53  1  -0.00114920  0.20524074  0.50191057  1
  Zr  Zr54  1  0.50437512  0.89450343  0.89134376  1
  Zr  Zr55  1  0.29487758  0.90925014  0.36593225  1
  Zr  Zr56  1  0.00115204  0.19295906  0.24796256  1
  Zr  Zr57  1  0.09716368  0.71095579  0.86435927  1
  Zr  Zr58  1  0.49082188  0.09766841  0.12423823  1
  Zr  Zr59  1  0.91589900  0.10622826  0.88046907  1
  Zr  Zr60  1  0.88252367  0.29366641  0.35841237  1
  Zr  Zr61  1  0.30086805  0.70752985  0.12546146  1
  Zr  Zr62  1  0.40570451  0.20147008  0.76337066  1
  Zr  Zr63  1  0.50752847  0.30500345  0.88564698  1
  Zr  Zr64  1  0.19917084  0.79065913  0.49165618  1
  Zr  Zr65  1  0.48044488  0.28805924  0.35169271  1
  Zr  Zr66  1  0.58425956  0.38971938  0.49407088  1
  Zr  Zr67  1  0.61026202  -0.00446817  0.01359760  1
  Zr  Zr68  1  0.89865909  0.50566835  0.36847224  1
  Zr  Zr69  1  0.08470298  0.90341733  0.37177356  1
  Zr  Zr70  1  0.88762389  0.30021043  0.12349736  1
  Zr  Zr71  1  0.69933458  0.49606601  0.62126187  1
  Zr  Zr72  1  0.11043945  0.90514303  0.12768885  1
  Zr  Zr73  1  -0.00594236  0.58825631  0.74494716  1
  Zr  Zr74  1  0.21420576  0.19830441  0.24327650  1
  Zr  Zr75  1  0.31083674  0.91477749  0.12812676  1
  Zr  Zr76  1  0.60639820  0.00165334  0.75437074  1
  Zr  Zr77  1  0.09607195  0.30775955  0.36771611  1
  Zr  Zr78  1  0.79179684  0.39252763  0.49229816  1
  Zr  Zr79  1  0.70997028  0.09561969  0.62604787  1
  Ta  Ta80  1  0.00623820  0.60264675  0.22837972  1
  Ta  Ta81  1  0.88312607  0.49901704  0.11155223  1
  Ta  Ta82  1  0.39719776  0.80276830  0.74853157  1
  Ta  Ta83  1  0.89607093  0.29029721  0.62996344  1
  Ta  Ta84  1  0.80065762  -0.00065930  0.75434560  1
  Ta  Ta85  1  0.70227015  0.89471841  0.88347735  1
  Ta  Ta86  1  0.50112963  0.90294784  0.61739354  1
  Ta  Ta87  1  0.70924745  0.88301100  0.13566435  1
  Ta  Ta88  1  0.19828685  0.60400037  0.01019742  1
  Ta  Ta89  1  0.38965282  0.60028911  0.25735497  1
  Ta  Ta90  1  0.48743467  0.50422944  0.88093801  1
  Ta  Ta91  1  0.00010687  0.80434193  0.00743297  1
  Ta  Ta92  1  0.19828426  0.59995715  0.74307027  1
  Ta  Ta93  1  0.48881202  0.70641401  0.61526222  1
  Ta  Ta94  1  0.71447998  0.69139885  0.37066094  1
  Ta  Ta95  1  0.50536091  0.89000309  0.13409308  1
  Ta  Ta96  1  0.70038987  0.10041550  0.88539064  1
  Ta  Ta97  1  -0.00462012  0.39131293  0.74393451  1
  Ta  Ta98  1  0.79786505  0.79864468  0.50203635  1
  Ta  Ta99  1  0.19880028  0.38861600  0.50819016  1
  Ta  Ta100  1  0.77587038  0.41289249  0.24337116  1
  Ta  Ta101  1  0.09523085  0.69287484  0.37152664  1
  Ta  Ta102  1  0.29908130  0.89528264  0.88284734  1
  Ta  Ta103  1  0.71209837  0.10384073  0.36380035  1
  Ta  Ta104  1  0.38989102  0.19274738  -0.00046840  1
  Ta  Ta105  1  0.79012707  0.79831961  -0.00543189  1
  Ta  Ta106  1  0.60069178  0.20596124  0.01174290  1
  Ta  Ta107  1  0.19438441  0.80637561  -0.00113528  1
  Ta  Ta108  1  0.90399062  0.08957222  0.37259735  1
  Ta  Ta109  1  0.89444670  0.89880625  0.37406213  1
  Ta  Ta110  1  0.09216121  0.29026732  0.11496786  1
  Ta  Ta111  1  0.89717333  0.69994907  0.62929758  1
  Ta  Ta112  1  0.39367223  0.20947190  0.49373054  1
  Ta  Ta113  1  0.80071374  0.20129893  -0.00461375  1
  Ta  Ta114  1  0.39474306  0.41157767  0.75640199  1
  Ta  Ta115  1  0.91795081  0.10708259  0.11207767  1
  Ta  Ta116  1  0.40371130  0.01927179  0.26412816  1
  Ta  Ta117  1  0.19801983  0.40187560  0.23055342  1
  Ta  Ta118  1  0.40746827  0.80643227  0.25959438  1
  Ta  Ta119  1  0.00498096  0.60792671  0.51629469  1
  Ti  Ti120  1  0.60520910  0.19925795  0.76233956  1
  Ti  Ti121  1  0.21666449  -0.00411611  0.75894785  1
  Ti  Ti122  1  0.00702150  0.21086698  0.75347265  1
  Ti  Ti123  1  0.70010797  0.30271912  0.89300103  1
  Ti  Ti124  1  0.71521881  0.10900918  0.12445160  1
  Ti  Ti125  1  0.69673576  0.31326205  0.11508359  1
  Ti  Ti126  1  0.39014408  0.60260194  0.47723378  1
  Ti  Ti127  1  0.38296900  0.40727443  0.49235377  1
  Ti  Ti128  1  0.29595948  0.50689353  0.87830467  1
  Ti  Ti129  1  0.49732001  0.69573840  0.13589919  1
  Ti  Ti130  1  0.49174022  0.30468377  0.62771870  1
  Ti  Ti131  1  0.89323312  0.49763731  0.62429263  1
  Ti  Ti132  1  0.58540709  0.59066772  0.02018176  1
  Ti  Ti133  1  0.21416607  0.01547719  -0.00804411  1
  Ti  Ti134  1  0.29192157  0.31133553  0.36838046  1
  Ti  Ti135  1  0.19747720  0.59594430  0.24372802  1
  Ti  Ti136  1  0.80720179  0.60145363  0.24304042  1
  Ti  Ti137  1  0.39542073  0.60286033  0.75138370  1
  Ti  Ti138  1  0.49469939  0.30869805  0.13366297  1
  Ti  Ti139  1  0.30340543  0.50202829  0.12993853  1
  Ti  Ti140  1  0.00640362  0.00360049  0.23854056  1
  Ti  Ti141  1  0.80699361  0.59769567  0.49726171  1
  Ti  Ti142  1  0.39432998  0.59931033  0.00929371  1
  Ti  Ti143  1  0.40094577  -0.00033806  -0.00337653  1
  Ti  Ti144  1  0.50659755  0.10247784  0.88946398  1
  Ti  Ti145  1  0.60551576  -0.00637392  0.48649733  1
  Ti  Ti146  1  0.10787868  0.90203906  0.86372503  1
  Ti  Ti147  1  0.60271538  0.80834641  0.49687680  1
  Ti  Ti148  1  0.10813338  0.12246024  0.61941666  1
  Ti  Ti149  1  0.69657955  0.69219732  0.11755377  1
  Ti  Ti150  1  0.80372494  0.19079241  0.49851267  1
  Ti  Ti151  1  0.59854404  -0.00669669  0.24864433  1
  Ti  Ti152  1  0.88915494  0.89898477  0.63860269  1
  Ti  Ti153  1  0.20341072  0.01085686  0.24835906  1
  Ti  Ti154  1  -0.00555348  0.40966267  0.23202998  1
  Ti  Ti155  1  0.29650996  0.50002203  0.62819902  1
  Ti  Ti156  1  0.30072101  0.28855488  0.11799590  1
  Ti  Ti157  1  0.91603428  0.31491705  0.89369817  1
  Ti  Ti158  1  0.68747893  0.30950841  0.35724292  1
  Ti  Ti159  1  0.40388645  0.79859194  0.00906828  1
  Mo  Mo160  1  0.49050687  0.50398705  0.13829005  1
  Mo  Mo161  1  0.69605400  0.89446299  0.61905505  1
  Mo  Mo162  1  0.31180094  0.12169716  0.37889917  1
  Mo  Mo163  1  0.70512396  0.50000592  0.37169568  1
  Mo  Mo164  1  0.90224814  0.90335087  0.11590412  1
  Mo  Mo165  1  0.09649483  0.29753978  0.62683750  1
  Mo  Mo166  1  0.00881872  0.20247726  -0.00148079  1
  Mo  Mo167  1  0.10286793  0.70109917  0.12029913  1
  Mo  Mo168  1  0.09470233  0.69732765  0.64018150  1
  Mo  Mo169  1  0.59797507  0.79030069  0.02371429  1
  Mo  Mo170  1  0.50984611  0.90192905  0.36017777  1
  Mo  Mo171  1  0.79724912  0.39643199  -0.00929198  1
  Mo  Mo172  1  0.79770037  0.19978729  0.24548053  1
  Mo  Mo173  1  0.32160733  0.89874348  0.62450825  1
  Mo  Mo174  1  0.51269743  0.09787052  0.36648755  1
  Mo  Mo175  1  0.89679765  0.49257519  0.89156350  1
  Mo  Mo176  1  0.90279757  0.10657756  0.63728410  1
  Mo  Mo177  1  0.59358440  0.39942246  0.01592885  1
  Mo  Mo178  1  0.79857869  0.78995303  0.24892691  1
  Mo  Mo179  1  0.20970170  0.20803143  0.49872188  1
  Mo  Mo180  1  0.29899374  0.09750415  0.11818303  1
  Mo  Mo181  1  0.11090256  0.10134578  0.12300076  1
  Mo  Mo182  1  0.38325553  0.39849200  0.23326407  1
  Mo  Mo183  1  0.60429161  0.78909356  0.23409010  1
  Mo  Mo184  1  0.31146968  0.09131366  0.88171028  1
  Mo  Mo185  1  0.29918845  0.68839272  0.36578324  1
  Mo  Mo186  1  0.79384611  0.60237832  0.00248329  1
  Mo  Mo187  1  0.59561285  0.39952486  0.23311238  1
  Mo  Mo188  1  0.21025544  0.80405184  0.75964537  1
  Mo  Mo189  1  0.69858012  0.49893929  0.10728685  1
  Mo  Mo190  1  0.09861409  0.49790211  0.13068451  1
  Mo  Mo191  1  0.68925626  0.70464878  0.89267172  1
  Mo  Mo192  1  0.08825620  0.29063607  0.88932668  1
  Mo  Mo193  1  -0.00299981  0.39973829  0.01257635  1
  Mo  Mo194  1  0.11172010  0.09384237  0.87203129  1
  Mo  Mo195  1  0.29724230  0.48980306  0.36506108  1
  Mo  Mo196  1  0.39503105  0.20141846  0.23946544  1
  Mo  Mo197  1  0.19553191  0.19072252  0.00135787  1
  Mo  Mo198  1  0.10022321  0.49750992  0.62702389  1
  Mo  Mo199  1  -0.00314700  0.79897366  0.73857226  1
