# generated using pymatgen
data_HfZrTaTiMo
_symmetry_space_group_name_H-M   'P 1'
_cell_length_a   15.18788853
_cell_length_b   15.17727214
_cell_length_c   16.79566224
_cell_angle_alpha   89.98632291
_cell_angle_beta   90.03393476
_cell_angle_gamma   90.07043587
_symmetry_Int_Tables_number   1
_chemical_formula_structural   HfZrTaTiMo
_chemical_formula_sum   'Hf40 Zr40 Ta40 Ti40 Mo40'
_cell_volume   3871.57643762
_cell_formula_units_Z   40
loop_
 _symmetry_equiv_pos_site_id
 _symmetry_equiv_pos_as_xyz
  1  'x, y, z'
loop_
 _atom_site_type_symbol
 _atom_site_label
 _atom_site_symmetry_multiplicity
 _atom_site_fract_x
 _atom_site_fract_y
 _atom_site_fract_z
 _atom_site_occupancy
  Hf  Hf0  1  0.09331226  0.11333056  0.35117044  1
  Hf  Hf1  1  0.20534177  0.61812256  -0.00042483  1
  Hf  Hf2  1  0.10385122  0.91177622  0.62199143  1
  Hf  Hf3  1  0.60529523  0.00896003  0.75275864  1
  Hf  Hf4  1  0.29160220  0.29752023  0.36783684  1
  Hf  Hf5  1  0.30402200  0.71711118  0.14224182  1
  Hf  Hf6  1  0.39487668  0.18710221  0.01818239  1
  Hf  Hf7  1  0.50926801  0.90423599  0.37363877  1
  Hf  Hf8  1  0.40518843  0.21160898  0.23266236  1
  Hf  Hf9  1  0.68527575  0.69203694  0.63113702  1
  Hf  Hf10  1  0.29477311  0.69982721  0.86152653  1
  Hf  Hf11  1  0.70747842  0.89263374  0.61567743  1
  Hf  Hf12  1  0.09855894  0.71678285  0.85811997  1
  Hf  Hf13  1  0.18532048  0.20732146  0.76457626  1
  Hf  Hf14  1  0.80148015  0.38531272  0.74446067  1
  Hf  Hf15  1  0.60934877  0.59243353  0.26885142  1
  Hf  Hf16  1  0.29707171  0.50915999  0.12853599  1
  Hf  Hf17  1  0.91218404  0.71825716  0.13498351  1
  Hf  Hf18  1  0.11676403  0.90411537  0.88290681  1
  Hf  Hf19  1  0.10425758  0.70783015  0.63002557  1
  Hf  Hf20  1  0.78075049  0.18271058  0.74103134  1
  Hf  Hf21  1  0.40286712  0.20633422  0.75076315  1
  Hf  Hf22  1  0.59717496  -0.00264079  -0.00205347  1
  Hf  Hf23  1  0.70647804  0.90026093  0.87042692  1
  Hf  Hf24  1  0.91081853  0.48994459  0.61455474  1
  Hf  Hf25  1  0.49267390  0.70517744  0.87010383  1
  Hf  Hf26  1  0.10732439  0.69823076  0.14313739  1
  Hf  Hf27  1  0.08986419  0.30594018  0.12931104  1
  Hf  Hf28  1  0.40842353  0.38318758  0.49899938  1
  Hf  Hf29  1  -0.01690324  0.20498910  0.76079496  1
  Hf  Hf30  1  -0.00458619  -0.02200383  0.25517692  1
  Hf  Hf31  1  0.80732591  0.60528972  0.26715336  1
  Hf  Hf32  1  0.58898071  0.38330667  0.25894918  1
  Hf  Hf33  1  0.40535611  0.60118967  0.26355122  1
  Hf  Hf34  1  0.22765369  0.00160257  0.01162094  1
  Hf  Hf35  1  0.11366038  0.50749929  0.62830997  1
  Hf  Hf36  1  0.50803832  0.50424302  0.61149502  1
  Hf  Hf37  1  0.29012102  0.29551039  0.62361632  1
  Hf  Hf38  1  0.50291913  0.88975811  0.13695418  1
  Hf  Hf39  1  0.22086696  0.41241562  0.75786242  1
  Zr  Zr40  1  -0.00197131  0.61634206  -0.00561751  1
  Zr  Zr41  1  0.20858596  0.01033176  0.48888475  1
  Zr  Zr42  1  0.89946721  0.70490436  0.86045786  1
  Zr  Zr43  1  0.68824930  0.08519089  0.60430769  1
  Zr  Zr44  1  0.10583678  0.88457485  0.12565113  1
  Zr  Zr45  1  0.58153486  0.38596587  0.75088022  1
  Zr  Zr46  1  0.67949801  0.29039575  0.60812450  1
  Zr  Zr47  1  0.11191277  0.51578834  0.86574782  1
  Zr  Zr48  1  0.10722999  0.10309274  0.13982703  1
  Zr  Zr49  1  0.81432220  0.80939703  0.00240160  1
  Zr  Zr50  1  0.00163764  0.01500193  0.48411347  1
  Zr  Zr51  1  0.69178989  0.26903407  0.88146133  1
  Zr  Zr52  1  0.69929770  0.69471481  0.86173657  1
  Zr  Zr53  1  0.90443459  0.50277306  0.12711359  1
  Zr  Zr54  1  0.89855058  0.28264189  0.36406181  1
  Zr  Zr55  1  0.06982469  0.30666122  0.61059527  1
  Zr  Zr56  1  0.00200858  0.39834452  0.76333394  1
  Zr  Zr57  1  0.30763768  0.90126285  0.61864782  1
  Zr  Zr58  1  0.70088814  0.70038022  0.12702463  1
  Zr  Zr59  1  0.19716191  0.40719694  0.49507833  1
  Zr  Zr60  1  0.10534863  0.11118301  0.62321768  1
  Zr  Zr61  1  0.71012569  0.90745309  0.13598917  1
  Zr  Zr62  1  0.50002496  0.49373417  0.12594382  1
  Zr  Zr63  1  0.69950942  0.49419209  0.12354097  1
  Zr  Zr64  1  0.56757052  0.19064062  0.48040584  1
  Zr  Zr65  1  -0.00426788  -0.00521535  0.00909320  1
  Zr  Zr66  1  0.10250078  0.50300710  0.12882245  1
  Zr  Zr67  1  0.80180781  0.62169015  0.49980494  1
  Zr  Zr68  1  0.32667479  0.90227411  0.86817397  1
  Zr  Zr69  1  0.88851700  0.10006814  0.14752549  1
  Zr  Zr70  1  0.00085340  0.40032206  -0.01372678  1
  Zr  Zr71  1  0.01011263  0.60878746  0.49599019  1
  Zr  Zr72  1  0.00327515  0.00877845  0.75574418  1
  Zr  Zr73  1  0.50477782  0.69404935  0.12610204  1
  Zr  Zr74  1  0.70141067  0.49146027  0.60952717  1
  Zr  Zr75  1  0.79620224  0.59511485  -0.00561720  1
  Zr  Zr76  1  0.49899611  0.09683696  0.88082507  1
  Zr  Zr77  1  0.30153565  0.89934129  0.36648002  1
  Zr  Zr78  1  0.78999603  0.40114761  0.25689308  1
  Zr  Zr79  1  0.30408025  0.30510784  0.88625873  1
  Ta  Ta80  1  0.50173326  0.49381672  0.38833637  1
  Ta  Ta81  1  0.88699111  0.29783435  0.13179557  1
  Ta  Ta82  1  0.90022611  0.10332021  0.61794640  1
  Ta  Ta83  1  0.09161533  0.30601919  0.37097693  1
  Ta  Ta84  1  0.59828919  0.39264033  -0.00215131  1
  Ta  Ta85  1  0.90191059  0.90224429  0.61322481  1
  Ta  Ta86  1  0.79647138  0.38712705  -0.00033052  1
  Ta  Ta87  1  0.30556432  0.70689100  0.37601077  1
  Ta  Ta88  1  0.69638702  0.48484537  0.87173949  1
  Ta  Ta89  1  0.59479442  0.18883749  0.25746882  1
  Ta  Ta90  1  0.20245327  0.60140229  0.26978034  1
  Ta  Ta91  1  0.80576979  0.18653367  0.49241309  1
  Ta  Ta92  1  0.39836970  0.57999949  0.75174051  1
  Ta  Ta93  1  0.59508425  0.79686032  -0.00735987  1
  Ta  Ta94  1  0.79882928  0.01350060  0.00097685  1
  Ta  Ta95  1  0.80106170  0.58977699  0.74014683  1
  Ta  Ta96  1  0.80358664  -0.00489752  0.48448723  1
  Ta  Ta97  1  0.70088863  0.49537296  0.39806005  1
  Ta  Ta98  1  0.29031393  0.30740880  0.12350137  1
  Ta  Ta99  1  0.30982814  0.50484693  0.61774196  1
  Ta  Ta100  1  0.49721573  0.29840752  0.89017786  1
  Ta  Ta101  1  0.59094026  0.80614309  0.74448791  1
  Ta  Ta102  1  0.51121412  0.90394912  0.61146019  1
  Ta  Ta103  1  0.19070990  0.20459604  0.00068183  1
  Ta  Ta104  1  0.59334319  0.59095954  -0.01516151  1
  Ta  Ta105  1  -0.00270881  0.40737519  0.25897755  1
  Ta  Ta106  1  0.90957309  0.90157777  0.87451007  1
  Ta  Ta107  1  0.39443190  0.40322831  0.25424791  1
  Ta  Ta108  1  0.40071401  0.60143268  -0.00669044  1
  Ta  Ta109  1  -0.01417648  0.19880318  0.00132233  1
  Ta  Ta110  1  0.39215196  0.80909213  0.00362579  1
  Ta  Ta111  1  0.70575185  0.88719109  0.37829582  1
  Ta  Ta112  1  0.69243324  0.29315276  0.38538136  1
  Ta  Ta113  1  0.21136898  0.00910572  0.75350166  1
  Ta  Ta114  1  0.60479313  0.78504102  0.49667672  1
  Ta  Ta115  1  0.29800928  0.09870451  0.87742124  1
  Ta  Ta116  1  0.29756763  0.10405850  0.35040743  1
  Ta  Ta117  1  0.41112859  0.00764927  0.24513174  1
  Ta  Ta118  1  0.69272425  0.08704297  0.37119479  1
  Ta  Ta119  1  0.41238757  0.01158941  0.49429178  1
  Ti  Ti120  1  0.90464464  0.49544903  0.38772646  1
  Ti  Ti121  1  0.49497102  0.10710051  0.62575882  1
  Ti  Ti122  1  0.20972446  0.81014421  0.73988495  1
  Ti  Ti123  1  0.40931441  0.79385341  0.73247257  1
  Ti  Ti124  1  0.81123318  -0.00687765  0.74765644  1
  Ti  Ti125  1  0.41048887  -0.00520754  0.74271110  1
  Ti  Ti126  1  0.81154024  0.38320799  0.49916950  1
  Ti  Ti127  1  0.30257181  0.90620070  0.14760018  1
  Ti  Ti128  1  0.21016603  0.61210455  0.49282274  1
  Ti  Ti129  1  0.88243677  0.10019676  0.88033087  1
  Ti  Ti130  1  0.18581148  0.19936037  0.49051072  1
  Ti  Ti131  1  0.69870756  0.10205957  0.13647744  1
  Ti  Ti132  1  0.90392705  0.89494642  0.38302873  1
  Ti  Ti133  1  0.09812326  0.10382762  0.88749088  1
  Ti  Ti134  1  0.81319877  0.81174478  0.25409358  1
  Ti  Ti135  1  0.00297560  0.60182585  0.26750285  1
  Ti  Ti136  1  0.19895114  0.40691066  0.25551668  1
  Ti  Ti137  1  0.30519435  0.69155629  0.62593434  1
  Ti  Ti138  1  0.30403042  0.50425863  0.38269528  1
  Ti  Ti139  1  0.89032728  0.50049177  0.86941516  1
  Ti  Ti140  1  0.40518099  0.79820657  0.50577173  1
  Ti  Ti141  1  0.51008496  0.09525447  0.12440321  1
  Ti  Ti142  1  0.59233041  0.59248241  0.75655314  1
  Ti  Ti143  1  -0.00159335  0.80256594  0.50208562  1
  Ti  Ti144  1  0.80415762  0.79820795  0.73977661  1
  Ti  Ti145  1  -0.00603419  0.60503105  0.74055938  1
  Ti  Ti146  1  0.50446400  0.70377119  0.37861936  1
  Ti  Ti147  1  0.88867083  0.29418120  0.88507313  1
  Ti  Ti148  1  0.19921022  0.80133556  0.49703752  1
  Ti  Ti149  1  0.40129167  0.40504758  0.00499405  1
  Ti  Ti150  1  0.10468286  0.71553968  0.37146185  1
  Ti  Ti151  1  0.90130431  0.71321256  0.37602930  1
  Ti  Ti152  1  0.40680819  0.61007520  0.49793324  1
  Ti  Ti153  1  0.20317873  0.40773822  -0.00755978  1
  Ti  Ti154  1  -0.00628364  0.81239179  0.73845459  1
  Ti  Ti155  1  0.69041782  0.28608072  0.12131127  1
  Ti  Ti156  1  0.10231584  0.50319821  0.37815456  1
  Ti  Ti157  1  0.60822720  0.79358220  0.26068610  1
  Ti  Ti158  1  0.37838392  0.18985158  0.49392618  1
  Ti  Ti159  1  0.30195278  0.09821748  0.62812930  1
  Mo  Mo160  1  0.01213823  0.79885919  -0.00393160  1
  Mo  Mo161  1  0.58817798  0.19306605  0.74527234  1
  Mo  Mo162  1  0.50287976  0.29944393  0.11271551  1
  Mo  Mo163  1  0.21123132  0.61057119  0.73912622  1
  Mo  Mo164  1  0.79564899  -0.00452982  0.27025692  1
  Mo  Mo165  1  0.59970916  0.39260518  0.48848490  1
  Mo  Mo166  1  0.29915868  0.09903704  0.14277723  1
  Mo  Mo167  1  0.09553054  0.29661832  0.89034055  1
  Mo  Mo168  1  0.88751746  0.29221698  0.61539573  1
  Mo  Mo169  1  0.21012037  0.80190283  0.00171374  1
  Mo  Mo170  1  0.09913540  0.89197459  0.38034699  1
  Mo  Mo171  1  0.60060635  0.19551082  0.01393000  1
  Mo  Mo172  1  -0.00841254  0.20289663  0.49340467  1
  Mo  Mo173  1  0.40472308  0.40123066  0.74396389  1
  Mo  Mo174  1  0.80960270  0.80123171  0.50171035  1
  Mo  Mo175  1  0.49812714  0.49379651  0.87942754  1
  Mo  Mo176  1  0.48804665  0.29673386  0.36788285  1
  Mo  Mo177  1  0.48562100  0.09629168  0.36590153  1
  Mo  Mo178  1  -0.00127690  0.79161463  0.26634779  1
  Mo  Mo179  1  0.70609297  0.09150271  0.87751185  1
  Mo  Mo180  1  0.40468863  -0.00771720  0.01840225  1
  Mo  Mo181  1  0.48542510  0.29152853  0.62151013  1
  Mo  Mo182  1  0.19961740  0.80230441  0.26506417  1
  Mo  Mo183  1  -0.00786722  0.21188131  0.24096815  1
  Mo  Mo184  1  0.20408140  0.00157947  0.25051874  1
  Mo  Mo185  1  0.40976142  0.79875905  0.25906555  1
  Mo  Mo186  1  0.89983197  0.90139287  0.12775501  1
  Mo  Mo187  1  0.70369899  0.70677122  0.37197883  1
  Mo  Mo188  1  0.88833579  0.09533456  0.35829914  1
  Mo  Mo189  1  0.50449795  0.89254753  0.87268063  1
  Mo  Mo190  1  0.77698126  0.20271324  0.25357199  1
  Mo  Mo191  1  0.19978436  0.21673473  0.24359344  1
  Mo  Mo192  1  0.31392599  0.50571430  0.88330801  1
  Mo  Mo193  1  0.60363889  0.00075031  0.24999713  1
  Mo  Mo194  1  0.89843489  0.70802525  0.63606327  1
  Mo  Mo195  1  -0.00316244  0.40201619  0.48288884  1
  Mo  Mo196  1  0.59794827  -0.01009215  0.49398193  1
  Mo  Mo197  1  0.49297193  0.70226168  0.62507420  1
  Mo  Mo198  1  0.79997567  0.19568755  0.00945161  1
  Mo  Mo199  1  0.59419286  0.60423323  0.48715692  1
