# generated using pymatgen
data_HfZrTaTiMo
_symmetry_space_group_name_H-M   'P 1'
_cell_length_a   15.22877017
_cell_length_b   15.19411943
_cell_length_c   16.85361756
_cell_angle_alpha   90.08509831
_cell_angle_beta   89.98613750
_cell_angle_gamma   90.01479236
_symmetry_Int_Tables_number   1
_chemical_formula_structural   HfZrTaTiMo
_chemical_formula_sum   'Hf40 Zr40 Ta40 Ti40 Mo40'
_cell_volume   3899.71614710
_cell_formula_units_Z   40
loop_
 _symmetry_equiv_pos_site_id
 _symmetry_equiv_pos_as_xyz
  1  'x, y, z'
loop_
 _atom_site_type_symbol
 _atom_site_label
 _atom_site_symmetry_multiplicity
 _atom_site_fract_x
 _atom_site_fract_y
 _atom_site_fract_z
 _atom_site_occupancy
  Hf  Hf0  1  0.78736320  0.20353423  0.00844669  1
  Hf  Hf1  1  0.38608163  0.60471081  0.74920333  1
  Hf  Hf2  1  0.70759059  0.91107930  0.62357423  1
  Hf  Hf3  1  0.19790219  0.20057777  0.00205193  1
  Hf  Hf4  1  0.32439214  0.48635324  0.37451644  1
  Hf  Hf5  1  0.18996406  0.19302291  0.24543492  1
  Hf  Hf6  1  0.10197043  0.90403830  0.62994315  1
  Hf  Hf7  1  0.79931315  0.80358327  0.24676119  1
  Hf  Hf8  1  0.89397066  0.70866116  0.38044868  1
  Hf  Hf9  1  0.70206887  0.70865823  0.61222821  1
  Hf  Hf10  1  0.01634259  0.59842370  0.74618351  1
  Hf  Hf11  1  0.00660429  0.39122106  0.25727612  1
  Hf  Hf12  1  0.89897204  0.70663338  0.61896071  1
  Hf  Hf13  1  0.39839904  0.17760951  0.00135941  1
  Hf  Hf14  1  0.89653246  0.09331453  0.13766316  1
  Hf  Hf15  1  0.70388169  0.89303575  0.38526672  1
  Hf  Hf16  1  0.91404599  0.70216449  0.87668741  1
  Hf  Hf17  1  0.70204186  0.49421457  0.86291769  1
  Hf  Hf18  1  0.30527664  0.70184171  0.60559779  1
  Hf  Hf19  1  0.21620994  0.60329960  0.25329016  1
  Hf  Hf20  1  0.19832679  0.79019116  0.00820217  1
  Hf  Hf21  1  0.08995150  0.89099879  0.88387881  1
  Hf  Hf22  1  0.90506372  0.70924798  0.12641198  1
  Hf  Hf23  1  0.61266680  0.40307288  0.00646389  1
  Hf  Hf24  1  0.41575111  0.82737278  0.49935380  1
  Hf  Hf25  1  0.00049114  0.60115567  0.25667830  1
  Hf  Hf26  1  0.08386616  0.10615641  0.62714260  1
  Hf  Hf27  1  0.58175919  0.20588189  0.24872373  1
  Hf  Hf28  1  0.18098090  0.00026679  0.76201444  1
  Hf  Hf29  1  0.69199934  0.09433111  0.36602957  1
  Hf  Hf30  1  0.21629345  0.38106505  0.48820095  1
  Hf  Hf31  1  0.20390034  0.82798052  0.49318660  1
  Hf  Hf32  1  -0.00121695  0.80591222  0.74904199  1
  Hf  Hf33  1  0.20224958  0.77259413  0.76306552  1
  Hf  Hf34  1  0.39637040  0.79329290  0.23938264  1
  Hf  Hf35  1  -0.00145350  0.80773762  0.49698936  1
  Hf  Hf36  1  0.79771566  0.39020287  0.73920723  1
  Hf  Hf37  1  0.49944797  0.09420895  0.85664247  1
  Hf  Hf38  1  0.40234445  0.79535183  0.75338798  1
  Hf  Hf39  1  0.57669038  0.19893271  0.49441265  1
  Zr  Zr40  1  0.49682236  0.90278114  0.88165485  1
  Zr  Zr41  1  0.79323971  0.80628792  -0.01005006  1
  Zr  Zr42  1  0.00717073  0.38307479  0.73833136  1
  Zr  Zr43  1  0.39783589  0.39164198  -0.00180234  1
  Zr  Zr44  1  0.60925694  0.79668772  0.76265580  1
  Zr  Zr45  1  0.19784144  0.00522904  0.00391727  1
  Zr  Zr46  1  0.10619919  0.71390747  0.36712515  1
  Zr  Zr47  1  0.32016692  0.48123218  0.13910825  1
  Zr  Zr48  1  0.11026388  0.69167928  0.61316484  1
  Zr  Zr49  1  0.59239825  0.60533062  0.75171195  1
  Zr  Zr50  1  0.79575879  0.40269214  0.50226466  1
  Zr  Zr51  1  0.79894812  0.59125728  -0.00844296  1
  Zr  Zr52  1  0.50230737  0.29773500  0.86769918  1
  Zr  Zr53  1  0.90988835  0.27122963  0.60199768  1
  Zr  Zr54  1  0.49242763  0.10910487  0.64568950  1
  Zr  Zr55  1  0.69728602  0.28545690  0.61579389  1
  Zr  Zr56  1  0.50547934  0.70080133  0.38500982  1
  Zr  Zr57  1  0.10435504  0.50511596  0.87350874  1
  Zr  Zr58  1  0.79931847  0.00903984  0.00224596  1
  Zr  Zr59  1  0.30455802  0.90740313  0.88572979  1
  Zr  Zr60  1  0.29855144  0.91572011  0.35953541  1
  Zr  Zr61  1  0.59252910  0.01208225  0.00950440  1
  Zr  Zr62  1  -0.00298618  0.39881726  0.00415407  1
  Zr  Zr63  1  0.10101408  0.29245642  0.86981799  1
  Zr  Zr64  1  0.38181114  0.02841932  0.50121820  1
  Zr  Zr65  1  0.68196001  0.69705863  0.11061453  1
  Zr  Zr66  1  0.01359381  0.61036334  0.00556966  1
  Zr  Zr67  1  0.21687279  0.59546544  0.01511655  1
  Zr  Zr68  1  0.79770323  0.59970410  0.25072917  1
  Zr  Zr69  1  0.90405312  0.49898221  0.61890604  1
  Zr  Zr70  1  0.51549342  0.48725159  0.36569889  1
  Zr  Zr71  1  0.49835933  0.50803938  0.88120746  1
  Zr  Zr72  1  0.80106922  0.39731232  0.25121988  1
  Zr  Zr73  1  0.68853684  0.30389295  0.37546346  1
  Zr  Zr74  1  0.10596857  0.49478713  0.13644757  1
  Zr  Zr75  1  0.31149113  0.70174574  0.38357573  1
  Zr  Zr76  1  0.50278876  0.90963966  0.64666284  1
  Zr  Zr77  1  0.58676068  -0.00206461  0.49995832  1
  Zr  Zr78  1  0.89325376  0.29552926  0.87539368  1
  Zr  Zr79  1  0.30436221  0.49607227  0.60910061  1
  Ta  Ta80  1  0.29809189  0.29032280  0.63714036  1
  Ta  Ta81  1  0.58873796  0.40110525  0.50545488  1
  Ta  Ta82  1  0.51123220  0.89501844  0.12810187  1
  Ta  Ta83  1  0.29679484  0.49657368  0.87327341  1
  Ta  Ta84  1  0.09983624  0.29343795  0.12595914  1
  Ta  Ta85  1  0.50163658  0.69903696  0.60844129  1
  Ta  Ta86  1  0.52436680  0.50669857  0.12685558  1
  Ta  Ta87  1  0.28572826  0.10413118  0.64669248  1
  Ta  Ta88  1  0.90037147  0.91336134  0.62531239  1
  Ta  Ta89  1  0.10154805  0.28272532  0.38427265  1
  Ta  Ta90  1  0.79434717  0.18284933  0.75095730  1
  Ta  Ta91  1  -0.00593761  0.19701490  0.25772674  1
  Ta  Ta92  1  0.90605722  0.91437463  0.37519850  1
  Ta  Ta93  1  0.60210103  0.79688440  0.25007938  1
  Ta  Ta94  1  0.80122960  0.80573490  0.75986923  1
  Ta  Ta95  1  0.80023207  0.61179387  0.75405270  1
  Ta  Ta96  1  0.18666692  -0.01024733  0.23850473  1
  Ta  Ta97  1  0.29804585  0.91092849  0.63628178  1
  Ta  Ta98  1  0.69344647  0.50243064  0.63269747  1
  Ta  Ta99  1  0.69757659  0.91884236  0.87071951  1
  Ta  Ta100  1  0.90508288  0.49398964  0.38416402  1
  Ta  Ta101  1  -0.00797204  0.19078404  0.00376770  1
  Ta  Ta102  1  0.29530784  0.30123728  0.85803236  1
  Ta  Ta103  1  0.60883112  0.60245457  0.25128550  1
  Ta  Ta104  1  0.90133279  0.29077702  0.38889138  1
  Ta  Ta105  1  0.20399320  0.39309855  0.00196578  1
  Ta  Ta106  1  0.89729430  0.49725205  0.12650899  1
  Ta  Ta107  1  0.10554774  0.49129851  0.60644197  1
  Ta  Ta108  1  0.69830379  0.70045242  0.39075613  1
  Ta  Ta109  1  0.50568129  0.91303441  0.35455685  1
  Ta  Ta110  1  0.49121748  0.30394586  0.12454173  1
  Ta  Ta111  1  0.49246990  0.30758091  0.63570036  1
  Ta  Ta112  1  0.60500648  0.59181600  0.50310445  1
  Ta  Ta113  1  0.20740459  0.17902938  0.49780135  1
  Ta  Ta114  1  0.21573308  0.38035632  0.26176544  1
  Ta  Ta115  1  0.40121286  0.40585258  0.75074668  1
  Ta  Ta116  1  0.69449596  0.29410990  0.87135571  1
  Ta  Ta117  1  0.00632876  0.59274022  0.48947539  1
  Ta  Ta118  1  0.00391796  0.00709134  0.49662887  1
  Ta  Ta119  1  0.49886976  0.50170642  0.62287379  1
  Ti  Ti120  1  0.29040345  0.11438069  0.85306432  1
  Ti  Ti121  1  0.38523448  0.21206446  0.23874627  1
  Ti  Ti122  1  0.20044557  0.41011498  0.73964111  1
  Ti  Ti123  1  0.29627828  0.89465057  0.12655192  1
  Ti  Ti124  1  0.80571347  0.00736089  0.75279657  1
  Ti  Ti125  1  0.10642463  0.29564655  0.60716946  1
  Ti  Ti126  1  0.80062934  -0.00428033  0.25053869  1
  Ti  Ti127  1  0.10992553  0.71150712  0.14376662  1
  Ti  Ti128  1  0.68550921  0.09729008  0.14270716  1
  Ti  Ti129  1  0.29731499  0.09688971  0.12880119  1
  Ti  Ti130  1  -0.00538981  0.80846944  0.00804952  1
  Ti  Ti131  1  0.29257680  0.10713225  0.36271284  1
  Ti  Ti132  1  0.70506667  0.50430336  0.37872911  1
  Ti  Ti133  1  0.80360430  0.60170660  0.49930314  1
  Ti  Ti134  1  0.40682841  0.00880329  0.23169989  1
  Ti  Ti135  1  0.08802636  0.09726052  0.12643980  1
  Ti  Ti136  1  0.20365403  0.59535593  0.48328571  1
  Ti  Ti137  1  0.70350937  0.90270767  0.12644400  1
  Ti  Ti138  1  0.79755189  0.20191823  0.25108948  1
  Ti  Ti139  1  0.69491603  0.30711718  0.13416180  1
  Ti  Ti140  1  0.48043327  0.10781467  0.36419847  1
  Ti  Ti141  1  -0.01447532  0.17825594  0.75369970  1
  Ti  Ti142  1  0.08481091  0.90368217  0.12485187  1
  Ti  Ti143  1  0.09842191  0.08300132  0.37268916  1
  Ti  Ti144  1  0.80544399  0.01341296  0.50025666  1
  Ti  Ti145  1  0.89811138  0.10293221  0.37108652  1
  Ti  Ti146  1  0.31024472  0.69180022  0.88889720  1
  Ti  Ti147  1  0.00550756  0.82491114  0.25282959  1
  Ti  Ti148  1  0.59555996  0.20186889  0.00771415  1
  Ti  Ti149  1  0.90173706  0.49561379  0.86567763  1
  Ti  Ti150  1  0.10587808  0.48909522  0.37687045  1
  Ti  Ti151  1  -0.00935166  -0.00017265  0.00346957  1
  Ti  Ti152  1  0.40725949  0.79474009  0.01640302  1
  Ti  Ti153  1  0.61017304  0.20300688  0.74704467  1
  Ti  Ti154  1  0.41690329  0.59978888  0.24051261  1
  Ti  Ti155  1  0.80248953  0.39789504  0.00490157  1
  Ti  Ti156  1  0.89937488  0.91481162  0.87173977  1
  Ti  Ti157  1  0.41461014  0.60543218  0.01505074  1
  Ti  Ti158  1  0.08027657  0.09748138  0.87615309  1
  Ti  Ti159  1  0.90323290  0.29664553  0.12789088  1
  Mo  Mo160  1  0.19414377  0.00722350  0.50372271  1
  Mo  Mo161  1  0.69653805  0.11179791  0.87637319  1
  Mo  Mo162  1  0.48326966  0.29912924  0.37024007  1
  Mo  Mo163  1  0.39848113  -0.01076595  0.03102564  1
  Mo  Mo164  1  0.29162542  0.29140465  0.12395914  1
  Mo  Mo165  1  0.30669920  0.69717146  0.12771645  1
  Mo  Mo166  1  0.49722868  0.70344700  0.89168816  1
  Mo  Mo167  1  0.89653270  0.09973921  0.87975066  1
  Mo  Mo168  1  0.59940138  0.39829462  0.74096350  1
  Mo  Mo169  1  0.88693913  0.09263370  0.61972947  1
  Mo  Mo170  1  0.79393502  0.18732496  0.48528939  1
  Mo  Mo171  1  0.09619853  0.91072002  0.37044987  1
  Mo  Mo172  1  0.50214225  0.69990280  0.12490692  1
  Mo  Mo173  1  0.60149260  -0.00536934  0.24377432  1
  Mo  Mo174  1  0.00413898  0.18792088  0.48469900  1
  Mo  Mo175  1  0.70718156  0.49768934  0.12183309  1
  Mo  Mo176  1  0.60028895  0.80330110  0.50045688  1
  Mo  Mo177  1  0.38548656  0.21261932  0.50404137  1
  Mo  Mo178  1  0.90044945  0.90230987  0.12904361  1
  Mo  Mo179  1  0.41126971  0.38229076  0.50305468  1
  Mo  Mo180  1  0.70565881  0.10073688  0.62078270  1
  Mo  Mo181  1  0.59885498  0.60685370  -0.01006548  1
  Mo  Mo182  1  0.30866479  0.28204129  0.37183044  1
  Mo  Mo183  1  0.39219855  0.20572360  0.75397984  1
  Mo  Mo184  1  -0.00351166  0.00571209  0.25286425  1
  Mo  Mo185  1  0.80557570  0.81295171  0.49992709  1
  Mo  Mo186  1  0.59610249  0.80045136  -0.01221615  1
  Mo  Mo187  1  -0.01561722  0.00205182  0.75555145  1
  Mo  Mo188  1  0.41224027  0.58882358  0.50080882  1
  Mo  Mo189  1  0.38320293  0.00109847  0.75242688  1
  Mo  Mo190  1  0.01246384  0.39776242  0.48736681  1
  Mo  Mo191  1  0.62743109  0.01617188  0.75334594  1
  Mo  Mo192  1  0.41431157  0.38764187  0.24481980  1
  Mo  Mo193  1  0.18135071  0.21197986  0.74657874  1
  Mo  Mo194  1  0.49385600  0.10354442  0.13313696  1
  Mo  Mo195  1  0.19829775  0.80759516  0.23763901  1
  Mo  Mo196  1  0.10856664  0.70011745  0.88013637  1
  Mo  Mo197  1  0.20631679  0.58701484  0.74619414  1
  Mo  Mo198  1  0.60505256  0.40324374  0.23632582  1
  Mo  Mo199  1  0.70167589  0.70476228  0.87682086  1
