# generated using pymatgen
data_HfZrTaTiMo
_symmetry_space_group_name_H-M   'P 1'
_cell_length_a   15.21180607
_cell_length_b   15.21740197
_cell_length_c   16.86626010
_cell_angle_alpha   89.99642684
_cell_angle_beta   89.97458077
_cell_angle_gamma   89.89462780
_symmetry_Int_Tables_number   1
_chemical_formula_structural   HfZrTaTiMo
_chemical_formula_sum   'Hf40 Zr40 Ta40 Ti40 Mo40'
_cell_volume   3904.26518601
_cell_formula_units_Z   40
loop_
 _symmetry_equiv_pos_site_id
 _symmetry_equiv_pos_as_xyz
  1  'x, y, z'
loop_
 _atom_site_type_symbol
 _atom_site_label
 _atom_site_symmetry_multiplicity
 _atom_site_fract_x
 _atom_site_fract_y
 _atom_site_fract_z
 _atom_site_occupancy
  Hf  Hf0  1  0.79960283  0.79930081  0.48422604  1
  Hf  Hf1  1  -0.00231120  0.60365142  0.75018028  1
  Hf  Hf2  1  0.41231143  0.19786617  0.51010293  1
  Hf  Hf3  1  0.30157545  0.09566650  0.12503705  1
  Hf  Hf4  1  0.69214060  0.68961867  0.37067836  1
  Hf  Hf5  1  0.49940449  0.30931813  0.88124440  1
  Hf  Hf6  1  0.88334979  0.29474804  0.63203922  1
  Hf  Hf7  1  0.89997661  0.71896950  0.86838008  1
  Hf  Hf8  1  0.59413255  0.39665821  0.49838177  1
  Hf  Hf9  1  0.60786290  -0.01033473  -0.00623938  1
  Hf  Hf10  1  0.11488773  0.90098851  0.13057772  1
  Hf  Hf11  1  0.60678704  0.01427769  0.48570311  1
  Hf  Hf12  1  0.09744300  0.49016174  0.87231588  1
  Hf  Hf13  1  0.10134208  0.10301204  0.12986343  1
  Hf  Hf14  1  0.90455646  0.12039958  0.13289688  1
  Hf  Hf15  1  0.38560870  0.61264839  0.01649093  1
  Hf  Hf16  1  0.41261636  0.77364750  0.49556795  1
  Hf  Hf17  1  0.58793955  0.80426780  0.25597559  1
  Hf  Hf18  1  0.00274023  0.21368888  0.50673901  1
  Hf  Hf19  1  0.10453244  0.51158519  0.37763883  1
  Hf  Hf20  1  0.49560189  0.69790043  0.87663813  1
  Hf  Hf21  1  0.01546733  0.80179469  0.26477734  1
  Hf  Hf22  1  0.21688304  0.40559671  0.24819825  1
  Hf  Hf23  1  0.80402953  0.58970513  0.50240537  1
  Hf  Hf24  1  0.62882521  0.00117030  0.76676794  1
  Hf  Hf25  1  0.89967090  0.90807899  0.61443356  1
  Hf  Hf26  1  -0.00520000  0.40771688  0.73601711  1
  Hf  Hf27  1  0.30343673  0.89443018  0.38731669  1
  Hf  Hf28  1  0.19936226  0.20343407  0.26018404  1
  Hf  Hf29  1  0.09514113  0.49780299  0.12551094  1
  Hf  Hf30  1  0.38664576  0.40740055  0.00886933  1
  Hf  Hf31  1  0.69173672  0.49111654  0.36465569  1
  Hf  Hf32  1  0.31215393  0.29917760  0.38382628  1
  Hf  Hf33  1  0.70977472  0.09859130  0.12676941  1
  Hf  Hf34  1  0.39187408  0.40168475  0.74572184  1
  Hf  Hf35  1  0.90070687  0.49823026  0.36895570  1
  Hf  Hf36  1  0.80232465  0.18433406  0.77250261  1
  Hf  Hf37  1  0.81210346  0.79182890  0.26772121  1
  Hf  Hf38  1  0.41251152  0.00001456  0.26443178  1
  Hf  Hf39  1  0.79520287  0.81221075  0.74803441  1
  Zr  Zr40  1  0.60232528  0.79093774  0.01179461  1
  Zr  Zr41  1  0.49337441  0.09894464  0.87609888  1
  Zr  Zr42  1  0.11003310  0.69678137  0.86370161  1
  Zr  Zr43  1  0.80196280  0.38036522  0.24671803  1
  Zr  Zr44  1  0.40008790  0.81558212  0.00286328  1
  Zr  Zr45  1  0.39688510  0.79653834  0.73071427  1
  Zr  Zr46  1  0.88761065  0.49803994  0.12453160  1
  Zr  Zr47  1  0.49399765  0.89980335  0.86920176  1
  Zr  Zr48  1  -0.00260735  0.60361009  -0.00358990  1
  Zr  Zr49  1  0.60076051  0.59071439  0.75075123  1
  Zr  Zr50  1  0.61275755  0.20264795  -0.00673249  1
  Zr  Zr51  1  0.91614884  0.31079602  0.86931012  1
  Zr  Zr52  1  0.82065158  0.19947442  -0.01509819  1
  Zr  Zr53  1  -0.00406228  0.01286370  -0.00558111  1
  Zr  Zr54  1  0.18952634  0.39099621  0.50528985  1
  Zr  Zr55  1  0.59677555  0.79972677  0.74530862  1
  Zr  Zr56  1  0.70374164  0.89833584  0.13786611  1
  Zr  Zr57  1  0.79703171  0.38540083  0.49867839  1
  Zr  Zr58  1  0.78531767  0.40019550  0.75630337  1
  Zr  Zr59  1  0.69839586  0.91199039  0.60863380  1
  Zr  Zr60  1  0.90393401  0.70225835  0.62826381  1
  Zr  Zr61  1  -0.00733062  0.80714528  0.00375156  1
  Zr  Zr62  1  0.38831198  0.20496740  0.00717621  1
  Zr  Zr63  1  0.20510057  -0.00271731  0.26182446  1
  Zr  Zr64  1  0.20284314  0.79047298  0.00193001  1
  Zr  Zr65  1  0.12988490  0.29180046  0.85331477  1
  Zr  Zr66  1  0.30096445  0.91314985  0.59693896  1
  Zr  Zr67  1  0.28622418  0.90584408  0.86984794  1
  Zr  Zr68  1  0.08286569  0.89868759  0.85878799  1
  Zr  Zr69  1  0.40974702  0.21798753  0.24123870  1
  Zr  Zr70  1  0.00593436  0.79278035  0.49089052  1
  Zr  Zr71  1  0.90385005  0.91127344  0.13589447  1
  Zr  Zr72  1  0.49165583  0.50677519  0.88299581  1
  Zr  Zr73  1  0.68825668  0.70025214  0.61151721  1
  Zr  Zr74  1  0.28484582  0.69054171  0.37782176  1
  Zr  Zr75  1  0.37649127  0.00586281  0.74090373  1
  Zr  Zr76  1  0.70378622  0.68513378  0.88147848  1
  Zr  Zr77  1  0.37923635  0.59248839  0.24061879  1
  Zr  Zr78  1  0.50319133  0.08730017  0.63121842  1
  Zr  Zr79  1  0.70447457  0.11712249  0.62661840  1
  Ta  Ta80  1  0.89327557  0.70365114  0.12948355  1
  Ta  Ta81  1  0.29939505  0.69047846  0.86407892  1
  Ta  Ta82  1  0.88430950  0.51138548  0.88352520  1
  Ta  Ta83  1  0.32019582  0.89187814  0.13766714  1
  Ta  Ta84  1  0.10917680  0.90279503  0.38489517  1
  Ta  Ta85  1  0.59790845  0.39512916  0.75004229  1
  Ta  Ta86  1  0.40670495  0.39983922  0.50757232  1
  Ta  Ta87  1  0.21310951  0.18108485  0.72792079  1
  Ta  Ta88  1  0.50944769  0.11997534  0.37286858  1
  Ta  Ta89  1  0.09840137  0.90899842  0.62471466  1
  Ta  Ta90  1  0.49188771  0.49511651  0.12983606  1
  Ta  Ta91  1  0.48664428  0.71288113  0.14020840  1
  Ta  Ta92  1  0.68701014  0.28663914  0.36757874  1
  Ta  Ta93  1  0.69446043  0.49160448  0.62036778  1
  Ta  Ta94  1  0.19601976  0.37867892  0.00502472  1
  Ta  Ta95  1  0.60405010  0.00723926  0.26108790  1
  Ta  Ta96  1  0.10618474  0.51310160  0.62605989  1
  Ta  Ta97  1  0.20156584  0.80413831  0.73402857  1
  Ta  Ta98  1  0.30265560  0.49779014  0.39119394  1
  Ta  Ta99  1  0.90062175  0.09632941  0.62226641  1
  Ta  Ta100  1  0.58989569  0.59260176  0.24265264  1
  Ta  Ta101  1  -0.01262321  0.60859072  0.25291677  1
  Ta  Ta102  1  0.49732814  0.50023898  0.62421178  1
  Ta  Ta103  1  0.57689649  0.60002880  0.48866703  1
  Ta  Ta104  1  0.02516547  0.21119857  -0.00699502  1
  Ta  Ta105  1  0.09742836  0.29669062  0.13056955  1
  Ta  Ta106  1  0.09647423  0.70011539  0.12941772  1
  Ta  Ta107  1  0.09898881  0.10627115  0.38313247  1
  Ta  Ta108  1  0.80043836  0.18812970  0.49183782  1
  Ta  Ta109  1  0.58667993  0.38779853  0.24292932  1
  Ta  Ta110  1  0.80906030  0.01058978  0.26618604  1
  Ta  Ta111  1  0.50527863  0.08562961  0.12126981  1
  Ta  Ta112  1  0.28921964  0.11479970  0.87653747  1
  Ta  Ta113  1  0.59287137  0.59415085  0.02223296  1
  Ta  Ta114  1  0.79928491  0.59177675  0.74268551  1
  Ta  Ta115  1  0.29768186  0.50243629  0.61593726  1
  Ta  Ta116  1  0.50478945  0.89618577  0.38839949  1
  Ta  Ta117  1  0.90734593  0.91479427  0.38124934  1
  Ta  Ta118  1  0.39963673  0.20571495  0.74671486  1
  Ta  Ta119  1  0.70266692  0.68871689  0.13966199  1
  Ti  Ti120  1  0.70164634  0.90457030  0.37518222  1
  Ti  Ti121  1  0.29233232  0.68546726  0.61686955  1
  Ti  Ti122  1  -0.00844956  0.20894793  0.26015211  1
  Ti  Ti123  1  0.60673934  0.21021167  0.49983237  1
  Ti  Ti124  1  0.00335739  0.01278802  0.49790017  1
  Ti  Ti125  1  0.00491254  0.39750209  0.24896857  1
  Ti  Ti126  1  0.38934110  0.59775877  0.74545211  1
  Ti  Ti127  1  0.48702015  0.49251819  0.36531052  1
  Ti  Ti128  1  0.21002657  0.00253383  0.00086063  1
  Ti  Ti129  1  0.60854933  0.20748413  0.76760593  1
  Ti  Ti130  1  0.28475788  0.48999893  0.86790698  1
  Ti  Ti131  1  0.71197052  0.10689868  0.36736743  1
  Ti  Ti132  1  0.00533337  0.01065894  0.26388398  1
  Ti  Ti133  1  0.69000548  0.48258826  0.89631247  1
  Ti  Ti134  1  0.19240838  0.79013477  0.50669396  1
  Ti  Ti135  1  0.00546650  0.60244796  0.50129147  1
  Ti  Ti136  1  0.10456028  0.70366262  0.63496430  1
  Ti  Ti137  1  0.89700615  0.29249195  0.37670364  1
  Ti  Ti138  1  -0.00825108  0.39645295  0.00341889  1
  Ti  Ti139  1  -0.00838869  0.41333153  0.51693403  1
  Ti  Ti140  1  0.09441365  0.30695443  0.37613387  1
  Ti  Ti141  1  0.71891686  0.30086442  0.11631838  1
  Ti  Ti142  1  0.79146698  0.60210583  0.00854591  1
  Ti  Ti143  1  0.51433806  0.29647718  0.63432193  1
  Ti  Ti144  1  0.18629146  0.60851460  0.24434704  1
  Ti  Ti145  1  0.20120407  0.58765771  0.00562940  1
  Ti  Ti146  1  0.10837845  0.09407722  0.86594497  1
  Ti  Ti147  1  0.00915369  0.18984220  0.74150742  1
  Ti  Ti148  1  0.79556305  0.81119798  0.00277186  1
  Ti  Ti149  1  0.50667903  0.89276581  0.59830123  1
  Ti  Ti150  1  0.49556034  0.68616981  0.62198744  1
  Ti  Ti151  1  0.19810162  0.18767173  0.51456021  1
  Ti  Ti152  1  0.69234478  0.48953637  0.12479651  1
  Ti  Ti153  1  0.60936590  0.20022235  0.23955826  1
  Ti  Ti154  1  0.87779435  0.92627811  0.87151779  1
  Ti  Ti155  1  0.30302371  0.09654294  0.39418752  1
  Ti  Ti156  1  -0.00748830  0.00483660  0.74422839  1
  Ti  Ti157  1  0.50925670  0.30082790  0.11479532  1
  Ti  Ti158  1  0.10685896  0.30151555  0.63630350  1
  Ti  Ti159  1  0.30346838  0.29880268  0.62194337  1
  Mo  Mo160  1  0.90983573  0.10877110  0.37518386  1
  Mo  Mo161  1  0.72073023  0.08391604  0.88581655  1
  Mo  Mo162  1  0.19608901  0.19403049  -0.00049258  1
  Mo  Mo163  1  0.89940718  0.50325059  0.62099474  1
  Mo  Mo164  1  0.80004381  0.20106571  0.25296368  1
  Mo  Mo165  1  0.28534443  0.49946385  0.11949038  1
  Mo  Mo166  1  0.69661611  0.30193146  0.88364518  1
  Mo  Mo167  1  0.79577241  0.40330359  -0.00167856  1
  Mo  Mo168  1  0.40252808  0.40076490  0.24359380  1
  Mo  Mo169  1  0.90344634  0.69056483  0.37538086  1
  Mo  Mo170  1  0.80215739  0.00007930  0.00104465  1
  Mo  Mo171  1  0.29750617  0.10388477  0.60997156  1
  Mo  Mo172  1  0.09205232  0.09764863  0.62141185  1
  Mo  Mo173  1  0.20422958  0.39835219  0.73144806  1
  Mo  Mo174  1  0.69021412  0.29611165  0.62956286  1
  Mo  Mo175  1  0.18620064  0.00317634  0.74136706  1
  Mo  Mo176  1  0.50547972  0.30502915  0.37395356  1
  Mo  Mo177  1  0.39793722  0.79992663  0.26043029  1
  Mo  Mo178  1  0.09882423  0.69854497  0.37346831  1
  Mo  Mo179  1  0.20665437  0.79449086  0.24874733  1
  Mo  Mo180  1  0.80953711  0.00217665  0.74640691  1
  Mo  Mo181  1  0.91629476  0.30215816  0.12080498  1
  Mo  Mo182  1  0.71034092  0.88797807  0.88297857  1
  Mo  Mo183  1  0.19215683  0.00177401  0.49192767  1
  Mo  Mo184  1  0.60004962  0.79436749  0.48422690  1
  Mo  Mo185  1  0.39601846  0.00515293  0.00419021  1
  Mo  Mo186  1  0.28399969  0.70701632  0.13361572  1
  Mo  Mo187  1  0.79432637  0.59508530  0.24432653  1
  Mo  Mo188  1  0.29026555  0.30146214  0.12734647  1
  Mo  Mo189  1  0.92626904  0.09917127  0.87021149  1
  Mo  Mo190  1  0.40946796  0.00481585  0.48345050  1
  Mo  Mo191  1  0.59988060  0.40185822  0.01723187  1
  Mo  Mo192  1  0.49532927  0.68595445  0.36012573  1
  Mo  Mo193  1  0.00251728  0.81155347  0.74133359  1
  Mo  Mo194  1  0.49980614  0.91054052  0.13365688  1
  Mo  Mo195  1  0.30325677  0.29885864  0.86585874  1
  Mo  Mo196  1  0.19137814  0.60347938  0.50721189  1
  Mo  Mo197  1  0.20928299  0.59676475  0.74475665  1
  Mo  Mo198  1  0.80785892  0.00774810  0.48134615  1
  Mo  Mo199  1  0.39859149  0.58604266  0.49940809  1
