# generated using pymatgen
data_HfZrTaTiMo
_symmetry_space_group_name_H-M   'P 1'
_cell_length_a   15.20782371
_cell_length_b   15.21452640
_cell_length_c   16.84990745
_cell_angle_alpha   90.01107790
_cell_angle_beta   89.95239215
_cell_angle_gamma   89.91992412
_symmetry_Int_Tables_number   1
_chemical_formula_structural   HfZrTaTiMo
_chemical_formula_sum   'Hf40 Zr40 Ta40 Ti40 Mo40'
_cell_volume   3898.72358489
_cell_formula_units_Z   40
loop_
 _symmetry_equiv_pos_site_id
 _symmetry_equiv_pos_as_xyz
  1  'x, y, z'
loop_
 _atom_site_type_symbol
 _atom_site_label
 _atom_site_symmetry_multiplicity
 _atom_site_fract_x
 _atom_site_fract_y
 _atom_site_fract_z
 _atom_site_occupancy
  Hf  Hf0  1  0.48362015  0.28393205  0.14035529  1
  Hf  Hf1  1  0.59942288  0.01002735  -0.00377796  1
  Hf  Hf2  1  0.59734104  0.58901749  0.49869730  1
  Hf  Hf3  1  0.59915759  0.19008660  0.49322132  1
  Hf  Hf4  1  0.88773474  0.30565453  0.13757272  1
  Hf  Hf5  1  0.09969049  0.70418569  0.39048337  1
  Hf  Hf6  1  0.10357099  0.89919247  0.39509130  1
  Hf  Hf7  1  0.89526188  0.71670012  0.38280548  1
  Hf  Hf8  1  0.29907092  0.70398498  0.38446063  1
  Hf  Hf9  1  0.29625702  0.70098986  0.11942754  1
  Hf  Hf10  1  -0.00576597  0.00077588  -0.00935599  1
  Hf  Hf11  1  0.92259189  0.70825279  0.85414450  1
  Hf  Hf12  1  0.48962737  0.28025118  0.85400678  1
  Hf  Hf13  1  0.29579848  0.11662104  0.85345975  1
  Hf  Hf14  1  0.89925725  0.90475893  0.86995185  1
  Hf  Hf15  1  0.78707755  0.00261763  0.50447307  1
  Hf  Hf16  1  0.88848211  0.11987073  0.61357695  1
  Hf  Hf17  1  0.80399765  0.20533939  0.75992907  1
  Hf  Hf18  1  -0.00596150  0.00118735  0.74330268  1
  Hf  Hf19  1  0.29655367  0.11368515  0.37388115  1
  Hf  Hf20  1  0.61228600  0.57919013  -0.01260628  1
  Hf  Hf21  1  0.69601199  0.90453856  0.86513478  1
  Hf  Hf22  1  0.30520840  0.10619252  0.13636040  1
  Hf  Hf23  1  0.10240577  0.09391484  0.13264200  1
  Hf  Hf24  1  0.79596063  0.18553513  -0.00550528  1
  Hf  Hf25  1  0.89872017  0.31548790  0.36211325  1
  Hf  Hf26  1  0.49750271  0.90096058  0.12471164  1
  Hf  Hf27  1  0.92033123  0.49728091  0.86531082  1
  Hf  Hf28  1  0.39402763  -0.00599193  -0.00804131  1
  Hf  Hf29  1  0.19896336  0.59890363  0.25546435  1
  Hf  Hf30  1  0.88441827  0.09025346  0.13741798  1
  Hf  Hf31  1  0.50180300  0.48438278  0.87635609  1
  Hf  Hf32  1  0.69604674  0.70057661  0.63444899  1
  Hf  Hf33  1  0.00144770  0.19881423  0.00852706  1
  Hf  Hf34  1  0.40104640  0.18637569  -0.00428452  1
  Hf  Hf35  1  0.50079300  0.68652464  0.12146251  1
  Hf  Hf36  1  0.50072789  0.89718812  0.38078908  1
  Hf  Hf37  1  0.81560537  0.60827959  -0.01368749  1
  Hf  Hf38  1  0.39443986  0.19335604  0.51961847  1
  Hf  Hf39  1  0.20524282  0.80146252  -0.01091479  1
  Zr  Zr40  1  0.40176277  0.58575987  0.25729708  1
  Zr  Zr41  1  -0.00464615  0.60161234  0.50638881  1
  Zr  Zr42  1  0.71090694  0.91214224  0.12585435  1
  Zr  Zr43  1  0.29632996  0.48776247  0.12192357  1
  Zr  Zr44  1  0.70778831  0.68995027  0.12177166  1
  Zr  Zr45  1  0.50776670  0.48389421  0.12421528  1
  Zr  Zr46  1  0.70289965  0.89253171  0.37167193  1
  Zr  Zr47  1  -0.00134799  0.40226572  0.01325500  1
  Zr  Zr48  1  0.21614713  0.79400859  0.74084386  1
  Zr  Zr49  1  0.50967098  0.29022182  0.63865352  1
  Zr  Zr50  1  0.80616133  0.79479337  0.24594150  1
  Zr  Zr51  1  0.80311385  0.40452988  0.49370002  1
  Zr  Zr52  1  -0.00070474  0.19118689  0.25688450  1
  Zr  Zr53  1  0.90220497  0.48787661  0.63026426  1
  Zr  Zr54  1  0.11869673  0.68225254  0.86214737  1
  Zr  Zr55  1  0.19439502  0.20911203  0.51263122  1
  Zr  Zr56  1  0.61215666  0.40476758  0.74358280  1
  Zr  Zr57  1  0.70621805  0.71085300  0.86305965  1
  Zr  Zr58  1  0.69029525  0.31027054  0.88195916  1
  Zr  Zr59  1  0.60173360  0.39258671  0.49612597  1
  Zr  Zr60  1  0.20546242  0.20849365  0.00080355  1
  Zr  Zr61  1  0.79888218  0.59239477  0.74918693  1
  Zr  Zr62  1  0.10422827  0.29925246  0.87206412  1
  Zr  Zr63  1  0.09662609  0.10716600  0.62734934  1
  Zr  Zr64  1  0.91923504  0.89974666  0.13566881  1
  Zr  Zr65  1  0.39351460  0.79710204  0.25194143  1
  Zr  Zr66  1  0.40062018  -0.00160870  0.25226163  1
  Zr  Zr67  1  -0.00003448  0.61653536  0.25436956  1
  Zr  Zr68  1  0.79654039  0.01198235  0.74516274  1
  Zr  Zr69  1  0.90761851  0.92216832  0.36643577  1
  Zr  Zr70  1  0.11813651  0.30490558  0.36178921  1
  Zr  Zr71  1  0.40088110  0.39261569  0.50598703  1
  Zr  Zr72  1  0.60045589  0.79762235  0.00004979  1
  Zr  Zr73  1  0.38505837  0.60479775  0.76528349  1
  Zr  Zr74  1  0.30353003  0.51463607  0.62609787  1
  Zr  Zr75  1  0.40037481  0.59498652  0.49273182  1
  Zr  Zr76  1  0.19240611  0.40170769  0.74750254  1
  Zr  Zr77  1  0.60818631  0.79559628  0.50216099  1
  Zr  Zr78  1  0.38925442  0.38422975  -0.00893177  1
  Zr  Zr79  1  0.68943147  0.30632539  0.12628548  1
  Ta  Ta80  1  0.81312772  0.81320240  -0.00001774  1
  Ta  Ta81  1  0.11565985  0.30986854  0.14304931  1
  Ta  Ta82  1  0.91171651  0.70042730  0.11904357  1
  Ta  Ta83  1  0.01805364  0.60229267  0.00105231  1
  Ta  Ta84  1  0.50847216  0.69533713  0.37056463  1
  Ta  Ta85  1  0.80292028  0.59208289  0.25360663  1
  Ta  Ta86  1  0.10215220  0.89988680  0.62162172  1
  Ta  Ta87  1  0.50656569  0.89871984  0.63036800  1
  Ta  Ta88  1  0.49836185  0.89644305  0.85962290  1
  Ta  Ta89  1  0.59784560  0.79131748  0.24843815  1
  Ta  Ta90  1  0.72084500  0.29193226  0.62355491  1
  Ta  Ta91  1  0.19663812  0.00228229  -0.01370743  1
  Ta  Ta92  1  0.67955457  0.10431085  0.62767611  1
  Ta  Ta93  1  0.69277166  0.90649225  0.63329592  1
  Ta  Ta94  1  0.39595734  -0.00297330  0.73867922  1
  Ta  Ta95  1  0.49842847  0.09120399  0.37999714  1
  Ta  Ta96  1  0.09969842  0.89570867  0.86134716  1
  Ta  Ta97  1  0.19407040  0.80741062  0.25427919  1
  Ta  Ta98  1  0.90237395  0.29792156  0.88200072  1
  Ta  Ta99  1  0.59077145  0.60002689  0.75343697  1
  Ta  Ta100  1  0.40485258  0.79953515  0.50786131  1
  Ta  Ta101  1  0.48670157  0.28811476  0.36846417  1
  Ta  Ta102  1  0.81684367  0.80915825  0.72875029  1
  Ta  Ta103  1  0.10049643  0.71151392  0.12308443  1
  Ta  Ta104  1  0.79503738  0.60921207  0.50552239  1
  Ta  Ta105  1  0.19888525  0.40216579  0.51168511  1
  Ta  Ta106  1  0.79396937  0.20548543  0.47849721  1
  Ta  Ta107  1  0.58857473  0.20154781  0.00091683  1
  Ta  Ta108  1  -0.00041231  0.41909182  0.24383933  1
  Ta  Ta109  1  0.49229663  0.69011928  0.63008516  1
  Ta  Ta110  1  0.68847216  0.10758343  0.13398305  1
  Ta  Ta111  1  0.39197675  0.60228671  -0.01404795  1
  Ta  Ta112  1  0.30299250  0.90358444  0.61641693  1
  Ta  Ta113  1  0.78996185  0.41262040  -0.00497152  1
  Ta  Ta114  1  0.29793919  0.90503132  0.39494935  1
  Ta  Ta115  1  0.89315130  0.50952311  0.12522830  1
  Ta  Ta116  1  0.10917906  0.90088087  0.12349378  1
  Ta  Ta117  1  0.19461032  -0.00336485  0.25978102  1
  Ta  Ta118  1  0.78460085  0.20164820  0.26861536  1
  Ta  Ta119  1  0.09975827  0.50078023  0.62401504  1
  Ti  Ti120  1  0.50156326  0.70458983  0.87312054  1
  Ti  Ti121  1  0.09770628  0.49938366  0.38342046  1
  Ti  Ti122  1  0.28650716  0.48813114  0.38258179  1
  Ti  Ti123  1  0.30110715  0.90087172  0.86537315  1
  Ti  Ti124  1  -0.00647248  0.80400692  0.52522567  1
  Ti  Ti125  1  0.19918900  0.00130954  0.74494434  1
  Ti  Ti126  1  -0.00442694  0.00676520  0.50684002  1
  Ti  Ti127  1  0.40811128  0.00181680  0.51333734  1
  Ti  Ti128  1  0.40684447  0.79805818  0.74360176  1
  Ti  Ti129  1  0.69139665  0.10358295  0.86920276  1
  Ti  Ti130  1  0.70522723  0.49390562  0.13202333  1
  Ti  Ti131  1  0.40108326  0.79943248  -0.00899095  1
  Ti  Ti132  1  0.19085181  0.41016317  -0.00457363  1
  Ti  Ti133  1  -0.00654301  0.20683424  0.48966553  1
  Ti  Ti134  1  0.00602159  0.39171752  0.50072760  1
  Ti  Ti135  1  0.49770985  0.48841061  0.36696699  1
  Ti  Ti136  1  0.60299383  -0.00073159  0.24724909  1
  Ti  Ti137  1  0.09450568  0.09793494  0.86391677  1
  Ti  Ti138  1  0.00724600  0.79896072  -0.00659024  1
  Ti  Ti139  1  0.69746633  0.08852340  0.37004685  1
  Ti  Ti140  1  0.80922715  0.80185951  0.52237338  1
  Ti  Ti141  1  0.60684170  0.59259996  0.25566389  1
  Ti  Ti142  1  0.39300470  0.39803350  0.74555196  1
  Ti  Ti143  1  0.50140541  0.09137870  0.85291279  1
  Ti  Ti144  1  0.20481131  0.79125657  0.51700260  1
  Ti  Ti145  1  0.60569502  0.39170252  0.26231432  1
  Ti  Ti146  1  0.20562387  0.00737997  0.50811476  1
  Ti  Ti147  1  0.36941982  0.37828718  0.26003590  1
  Ti  Ti148  1  0.58982439  0.19012433  0.25975900  1
  Ti  Ti149  1  0.10695371  0.69099209  0.63011055  1
  Ti  Ti150  1  0.70619550  0.49482232  0.36964887  1
  Ti  Ti151  1  0.29085116  0.90400609  0.12143863  1
  Ti  Ti152  1  0.27659317  0.50845097  0.87813135  1
  Ti  Ti153  1  0.09977570  0.51143832  0.12690303  1
  Ti  Ti154  1  0.80940700  0.39347646  0.75294490  1
  Ti  Ti155  1  0.09272965  0.09457488  0.37686061  1
  Ti  Ti156  1  0.90094906  0.51119649  0.37648132  1
  Ti  Ti157  1  0.70129881  0.69090148  0.37321707  1
  Ti  Ti158  1  0.69446475  0.49750713  0.62205146  1
  Ti  Ti159  1  0.00128312  0.21273052  0.74792209  1
  Mo  Mo160  1  0.39045883  0.19764610  0.72875487  1
  Mo  Mo161  1  0.19636879  0.59511624  0.49866600  1
  Mo  Mo162  1  0.79604667  0.00086623  -0.00523273  1
  Mo  Mo163  1  0.01828381  0.80708689  0.25176773  1
  Mo  Mo164  1  0.59435640  -0.00148351  0.75272480  1
  Mo  Mo165  1  0.60674213  0.19163107  0.74797355  1
  Mo  Mo166  1  0.00824066  0.80270732  0.73068040  1
  Mo  Mo167  1  0.29121487  0.29904858  0.63759302  1
  Mo  Mo168  1  0.70756432  0.50099953  0.87249890  1
  Mo  Mo169  1  0.50988211  0.09588227  0.12728906  1
  Mo  Mo170  1  0.01561785  0.59274780  0.73714970  1
  Mo  Mo171  1  0.01209845  -0.00216397  0.25793275  1
  Mo  Mo172  1  -0.00658831  0.39071043  0.74855132  1
  Mo  Mo173  1  0.30501347  0.30830444  0.86005782  1
  Mo  Mo174  1  0.59317319  0.00020137  0.50137081  1
  Mo  Mo175  1  0.91065639  0.11259750  0.87374953  1
  Mo  Mo176  1  0.90770044  0.70089921  0.63372594  1
  Mo  Mo177  1  0.59470701  0.79694443  0.74501696  1
  Mo  Mo178  1  0.09865184  0.49793049  0.87725613  1
  Mo  Mo179  1  0.29691435  0.09335095  0.63502002  1
  Mo  Mo180  1  0.31245685  0.70799006  0.88146717  1
  Mo  Mo181  1  0.89870287  0.10758211  0.38594564  1
  Mo  Mo182  1  0.30169826  0.30546218  0.38357635  1
  Mo  Mo183  1  0.79553162  0.01560319  0.25638597  1
  Mo  Mo184  1  0.50602036  0.50464966  0.63807135  1
  Mo  Mo185  1  0.21231509  0.20659650  0.25009515  1
  Mo  Mo186  1  0.79762782  0.41087800  0.25562427  1
  Mo  Mo187  1  0.29135281  0.29614213  0.12863850  1
  Mo  Mo188  1  0.90413725  0.29374430  0.61723524  1
  Mo  Mo189  1  0.68862470  0.29850507  0.36609894  1
  Mo  Mo190  1  0.19608715  0.20090665  0.73657547  1
  Mo  Mo191  1  0.19365936  0.41231173  0.25334797  1
  Mo  Mo192  1  0.30320697  0.70693420  0.61552276  1
  Mo  Mo193  1  0.59735002  0.38874727  0.00086434  1
  Mo  Mo194  1  0.50067693  0.08840218  0.63358041  1
  Mo  Mo195  1  0.20033365  0.59613946  0.00508498  1
  Mo  Mo196  1  0.90171759  0.90978686  0.61708275  1
  Mo  Mo197  1  0.08095867  0.30985851  0.62343056  1
  Mo  Mo198  1  0.20010032  0.59732766  0.74395379  1
  Mo  Mo199  1  0.40229027  0.19521898  0.25986874  1
