# generated using pymatgen
data_HfZrTaTiMo
_symmetry_space_group_name_H-M   'P 1'
_cell_length_a   15.19636144
_cell_length_b   15.18073938
_cell_length_c   16.78311343
_cell_angle_alpha   89.91183569
_cell_angle_beta   90.01920354
_cell_angle_gamma   89.89767277
_symmetry_Int_Tables_number   1
_chemical_formula_structural   HfZrTaTiMo
_chemical_formula_sum   'Hf40 Zr40 Ta40 Ti40 Mo40'
_cell_volume   3871.71906760
_cell_formula_units_Z   40
loop_
 _symmetry_equiv_pos_site_id
 _symmetry_equiv_pos_as_xyz
  1  'x, y, z'
loop_
 _atom_site_type_symbol
 _atom_site_label
 _atom_site_symmetry_multiplicity
 _atom_site_fract_x
 _atom_site_fract_y
 _atom_site_fract_z
 _atom_site_occupancy
  Hf  Hf0  1  0.88566500  0.09710348  0.36669580  1
  Hf  Hf1  1  0.50547829  0.89047550  0.87660734  1
  Hf  Hf2  1  0.40870612  -0.00322445  0.23857350  1
  Hf  Hf3  1  0.52297118  0.49689447  0.63526527  1
  Hf  Hf4  1  0.49393831  0.50621583  0.87370386  1
  Hf  Hf5  1  0.20560650  0.18713495  0.49687106  1
  Hf  Hf6  1  0.61452231  -0.01031857  0.75891454  1
  Hf  Hf7  1  0.91133589  0.29358300  0.87737118  1
  Hf  Hf8  1  0.31320091  0.69502368  0.87377585  1
  Hf  Hf9  1  0.40460691  0.80582175  0.50656453  1
  Hf  Hf10  1  0.78706734  0.81515193  0.75186396  1
  Hf  Hf11  1  0.48981568  0.09745602  0.64262142  1
  Hf  Hf12  1  0.58835972  0.61742192  -0.00851350  1
  Hf  Hf13  1  0.09736835  0.08903514  0.14518961  1
  Hf  Hf14  1  0.19162065  0.20456121  -0.00241668  1
  Hf  Hf15  1  0.89226436  0.31973422  0.37819610  1
  Hf  Hf16  1  0.40760900  0.79777208  0.00782079  1
  Hf  Hf17  1  0.51155628  0.89185786  0.63629703  1
  Hf  Hf18  1  0.40580245  0.20594331  0.50015122  1
  Hf  Hf19  1  0.19263459  0.39132329  0.50401206  1
  Hf  Hf20  1  0.71196442  0.88990847  0.11882044  1
  Hf  Hf21  1  0.28797896  0.70095764  0.12833079  1
  Hf  Hf22  1  -0.00213460  -0.00263331  0.48821490  1
  Hf  Hf23  1  0.08025209  0.09719716  0.63523555  1
  Hf  Hf24  1  0.10266220  0.29858055  0.13856347  1
  Hf  Hf25  1  0.68420243  0.30008494  0.11288873  1
  Hf  Hf26  1  0.19445007  0.80166472  -0.01272812  1
  Hf  Hf27  1  0.08838972  0.49890026  0.62871288  1
  Hf  Hf28  1  0.20187659  0.80399275  0.75840673  1
  Hf  Hf29  1  0.69657786  0.10007270  0.36694358  1
  Hf  Hf30  1  0.70734332  0.90167429  0.37168648  1
  Hf  Hf31  1  0.41126880  0.59947327  0.50481604  1
  Hf  Hf32  1  0.09068686  0.48633559  0.37105563  1
  Hf  Hf33  1  0.90257477  0.71248715  0.38433028  1
  Hf  Hf34  1  0.40751110  0.39435997  0.74614749  1
  Hf  Hf35  1  0.10288474  0.48536828  0.86037806  1
  Hf  Hf36  1  0.60556065  0.57967986  0.25237729  1
  Hf  Hf37  1  0.08583158  0.10204450  0.86413407  1
  Hf  Hf38  1  0.01074881  0.20229533  0.47682682  1
  Hf  Hf39  1  0.89803594  0.69547364  0.62518299  1
  Zr  Zr40  1  0.10770254  0.49935202  0.13806053  1
  Zr  Zr41  1  0.77314977  0.60827797  0.75042591  1
  Zr  Zr42  1  0.78413539  0.41128336  0.23971399  1
  Zr  Zr43  1  0.30216220  0.70149884  0.37399058  1
  Zr  Zr44  1  0.50546358  0.69516152  0.36843431  1
  Zr  Zr45  1  -0.00693182  0.80113602  0.75571339  1
  Zr  Zr46  1  0.38816366  0.00320192  0.50909362  1
  Zr  Zr47  1  0.01194977  0.39980238  0.00533780  1
  Zr  Zr48  1  0.81025467  -0.00552661  0.00083619  1
  Zr  Zr49  1  0.11026532  0.89888053  0.62551000  1
  Zr  Zr50  1  0.90512316  0.51275658  0.86361688  1
  Zr  Zr51  1  0.30310466  0.09831140  0.85343951  1
  Zr  Zr52  1  0.89797851  0.28994423  0.61376933  1
  Zr  Zr53  1  0.80922392  0.02048336  0.74714575  1
  Zr  Zr54  1  0.19365943  0.59319607  0.00062766  1
  Zr  Zr55  1  0.81441696  0.40042260  0.00771962  1
  Zr  Zr56  1  0.50775996  0.09749242  0.37539497  1
  Zr  Zr57  1  -0.01215415  0.80791665  -0.01257847  1
  Zr  Zr58  1  0.59902736  0.38971415  0.48552053  1
  Zr  Zr59  1  0.61773543  0.40230759  0.76614229  1
  Zr  Zr60  1  0.08739619  0.68486279  0.86441319  1
  Zr  Zr61  1  0.09833443  0.89401832  0.13049215  1
  Zr  Zr62  1  -0.00591991  0.58847864  0.49855711  1
  Zr  Zr63  1  0.29365531  0.89810180  0.36972995  1
  Zr  Zr64  1  0.29724058  0.29772358  0.86714751  1
  Zr  Zr65  1  0.20278295  0.39523588  0.73399593  1
  Zr  Zr66  1  0.20296843  0.00155348  -0.00538284  1
  Zr  Zr67  1  0.39551815  0.40066106  -0.00186854  1
  Zr  Zr68  1  0.30128266  0.50418525  0.37569294  1
  Zr  Zr69  1  0.40834546  0.80029641  0.23774552  1
  Zr  Zr70  1  0.62184265  0.58882330  0.49259313  1
  Zr  Zr71  1  0.29765445  0.10388559  0.13508877  1
  Zr  Zr72  1  -0.01047577  0.61017404  0.25206817  1
  Zr  Zr73  1  0.42545729  0.21283039  0.24811853  1
  Zr  Zr74  1  0.40117002  0.39789264  0.50797252  1
  Zr  Zr75  1  0.30011159  0.09860120  0.36356810  1
  Zr  Zr76  1  -0.00528310  0.20105560  0.25887583  1
  Zr  Zr77  1  0.69659768  0.11724848  0.62472054  1
  Zr  Zr78  1  0.79972039  0.81202121  0.51231312  1
  Zr  Zr79  1  0.30150404  0.31294125  0.13599592  1
  Ta  Ta80  1  0.30105038  0.50899163  0.62506784  1
  Ta  Ta81  1  0.30540219  0.90445937  0.86700032  1
  Ta  Ta82  1  0.89598436  0.10776649  0.87939526  1
  Ta  Ta83  1  0.10358823  0.69481720  0.62856246  1
  Ta  Ta84  1  0.50298196  0.48983539  0.12029340  1
  Ta  Ta85  1  0.89296720  0.51594226  0.12555104  1
  Ta  Ta86  1  0.70283282  0.50682178  0.89622960  1
  Ta  Ta87  1  0.71370668  0.69429393  0.37300683  1
  Ta  Ta88  1  0.10578856  0.70203926  0.38013508  1
  Ta  Ta89  1  0.79530070  0.42245849  0.49840299  1
  Ta  Ta90  1  0.61371085  0.79231295  0.24779456  1
  Ta  Ta91  1  0.70104127  0.31906406  0.62531768  1
  Ta  Ta92  1  0.69075965  0.50573116  0.10417396  1
  Ta  Ta93  1  0.70567510  0.69738416  0.11256164  1
  Ta  Ta94  1  0.79711871  0.20318556  0.23307224  1
  Ta  Ta95  1  0.69993865  0.09422244  0.12592120  1
  Ta  Ta96  1  0.49902009  0.09745561  0.87272275  1
  Ta  Ta97  1  0.60579077  -0.00689947  0.24129460  1
  Ta  Ta98  1  -0.01399961  0.60539251  0.00451786  1
  Ta  Ta99  1  0.88922270  0.49180597  0.63433292  1
  Ta  Ta100  1  0.60577578  0.79439334  0.50080273  1
  Ta  Ta101  1  0.29853111  0.50433453  0.86605515  1
  Ta  Ta102  1  0.90666401  0.91807999  0.62906471  1
  Ta  Ta103  1  0.50751223  0.28816806  0.88546296  1
  Ta  Ta104  1  0.29963866  0.30651414  0.36776038  1
  Ta  Ta105  1  0.51336928  0.10329491  0.11457207  1
  Ta  Ta106  1  0.40049284  0.18949672  -0.00033172  1
  Ta  Ta107  1  0.39295697  0.59710967  0.01310422  1
  Ta  Ta108  1  0.00067599  0.00693580  0.00328645  1
  Ta  Ta109  1  0.51414269  0.28904411  0.63437842  1
  Ta  Ta110  1  0.30110334  0.70618711  0.62691797  1
  Ta  Ta111  1  0.08702730  0.70092360  0.12529618  1
  Ta  Ta112  1  0.50961689  0.89935100  0.37453584  1
  Ta  Ta113  1  0.60192043  -0.00907680  0.50787394  1
  Ta  Ta114  1  0.20425557  0.40181670  -0.00306508  1
  Ta  Ta115  1  -0.00011733  0.37834827  0.74640779  1
  Ta  Ta116  1  0.19893411  0.60014703  0.25093303  1
  Ta  Ta117  1  0.70636019  0.29465852  0.89362845  1
  Ta  Ta118  1  0.51082540  0.69450963  0.62963948  1
  Ta  Ta119  1  -0.00926287  0.19467707  0.01829160  1
  Ti  Ti120  1  0.00996952  0.80226031  0.50521751  1
  Ti  Ti121  1  0.20155845  0.80014456  0.50375269  1
  Ti  Ti122  1  -0.01120299  0.40111815  0.24484603  1
  Ti  Ti123  1  0.30481200  0.90870086  0.64226472  1
  Ti  Ti124  1  0.20389482  0.60169831  0.74264673  1
  Ti  Ti125  1  0.89070417  0.71889286  0.11822624  1
  Ti  Ti126  1  0.80770807  0.80459046  0.24776726  1
  Ti  Ti127  1  0.09224337  0.29280072  0.61733313  1
  Ti  Ti128  1  0.40668673  0.79560968  0.74924518  1
  Ti  Ti129  1  0.40825831  0.41013085  0.25279545  1
  Ti  Ti130  1  0.19078922  0.79955756  0.25367138  1
  Ti  Ti131  1  0.60689005  0.20176869  0.76210279  1
  Ti  Ti132  1  0.90514263  0.91267207  0.86726292  1
  Ti  Ti133  1  0.90075302  0.90412502  0.37014457  1
  Ti  Ti134  1  0.70054161  0.10377339  0.88558484  1
  Ti  Ti135  1  0.79371024  0.61350812  0.24208978  1
  Ti  Ti136  1  0.60225463  -0.00174930  -0.00548113  1
  Ti  Ti137  1  0.60525641  0.77970811  0.75867665  1
  Ti  Ti138  1  0.18892278  -0.00507273  0.49095104  1
  Ti  Ti139  1  0.80222120  0.39979575  0.75747679  1
  Ti  Ti140  1  0.80688425  0.19368054  0.01801427  1
  Ti  Ti141  1  0.40477934  0.60403470  0.74258968  1
  Ti  Ti142  1  0.68780638  0.29705519  0.35900856  1
  Ti  Ti143  1  0.78904173  0.21222705  0.49385997  1
  Ti  Ti144  1  0.28883077  0.09576813  0.65088840  1
  Ti  Ti145  1  0.51446121  0.89980265  0.11642730  1
  Ti  Ti146  1  0.87899722  0.51580170  0.37285753  1
  Ti  Ti147  1  0.20107167  0.60386904  0.50548677  1
  Ti  Ti148  1  0.40104198  0.59469602  0.23828934  1
  Ti  Ti149  1  0.79589699  0.01165492  0.51230311  1
  Ti  Ti150  1  0.59950998  0.19872733  0.49925505  1
  Ti  Ti151  1  -0.00161951  0.80623289  0.25238639  1
  Ti  Ti152  1  0.40208199  -0.00103919  0.00397043  1
  Ti  Ti153  1  0.17875226  0.20833777  0.74891019  1
  Ti  Ti154  1  0.30754817  0.28387100  0.63415432  1
  Ti  Ti155  1  0.51235265  0.69712263  0.13031770  1
  Ti  Ti156  1  0.50458973  0.29754778  0.10642781  1
  Ti  Ti157  1  0.29204602  0.90491369  0.12950542  1
  Ti  Ti158  1  0.19597495  0.20408235  0.26660178  1
  Ti  Ti159  1  0.79866023  0.21258520  0.75212555  1
  Mo  Mo160  1  0.88741479  0.70216964  0.87276890  1
  Mo  Mo161  1  0.80413086  -0.00417783  0.23977959  1
  Mo  Mo162  1  0.69472656  0.71276198  0.88775058  1
  Mo  Mo163  1  0.49352243  0.70023448  0.87031018  1
  Mo  Mo164  1  0.30649624  0.50486463  0.13550033  1
  Mo  Mo165  1  0.69947652  0.90307944  0.62167724  1
  Mo  Mo166  1  0.80261220  0.60839547  -0.00023835  1
  Mo  Mo167  1  0.09252110  0.88315622  0.37890315  1
  Mo  Mo168  1  0.80066486  0.79559839  -0.01652111  1
  Mo  Mo169  1  0.09694478  0.29375798  0.87452186  1
  Mo  Mo170  1  -0.00768031  0.59260027  0.74043868  1
  Mo  Mo171  1  0.19577619  -0.00149660  0.75379398  1
  Mo  Mo172  1  0.50000706  0.49073840  0.36317726  1
  Mo  Mo173  1  0.68725127  0.70613993  0.62452658  1
  Mo  Mo174  1  -0.01818413  0.19405632  0.74588559  1
  Mo  Mo175  1  0.59937570  0.40199650  -0.01218856  1
  Mo  Mo176  1  0.49913683  0.30019045  0.37155430  1
  Mo  Mo177  1  0.19598514  -0.00863107  0.25755933  1
  Mo  Mo178  1  -0.00731320  0.39710296  0.50019670  1
  Mo  Mo179  1  0.10535296  0.29899100  0.37055567  1
  Mo  Mo180  1  0.20122650  0.39816496  0.26092965  1
  Mo  Mo181  1  0.60083432  0.80671265  0.00498289  1
  Mo  Mo182  1  0.89915735  0.30108690  0.13024248  1
  Mo  Mo183  1  0.60365269  0.18856379  -0.00837989  1
  Mo  Mo184  1  -0.00554099  0.00014500  0.75190424  1
  Mo  Mo185  1  0.90633211  0.90053117  0.13048808  1
  Mo  Mo186  1  0.10087871  0.08233362  0.35885533  1
  Mo  Mo187  1  0.59393429  0.60545247  0.76444744  1
  Mo  Mo188  1  0.41083517  0.20147047  0.75043834  1
  Mo  Mo189  1  -0.00444077  -0.01167129  0.26316139  1
  Mo  Mo190  1  0.70845738  0.50017549  0.62994225  1
  Mo  Mo191  1  0.10030444  0.90903468  0.87216321  1
  Mo  Mo192  1  0.89553597  0.10478505  0.60823431  1
  Mo  Mo193  1  0.89791611  0.09272915  0.13634587  1
  Mo  Mo194  1  0.60696237  0.19722875  0.24011899  1
  Mo  Mo195  1  0.40224519  -0.01057267  0.75111209  1
  Mo  Mo196  1  0.70385521  0.90294650  0.88622498  1
  Mo  Mo197  1  0.58395011  0.38652743  0.24874509  1
  Mo  Mo198  1  0.70857185  0.49271534  0.36627419  1
  Mo  Mo199  1  0.79809798  0.60602468  0.50425325  1
