# generated using pymatgen
data_HfZrTaTiMo
_symmetry_space_group_name_H-M   'P 1'
_cell_length_a   15.23045625
_cell_length_b   15.20899167
_cell_length_c   16.82135838
_cell_angle_alpha   89.99640619
_cell_angle_beta   89.95198429
_cell_angle_gamma   89.90697702
_symmetry_Int_Tables_number   1
_chemical_formula_structural   HfZrTaTiMo
_chemical_formula_sum   'Hf40 Zr40 Ta40 Ti40 Mo40'
_cell_volume   3896.49096167
_cell_formula_units_Z   40
loop_
 _symmetry_equiv_pos_site_id
 _symmetry_equiv_pos_as_xyz
  1  'x, y, z'
loop_
 _atom_site_type_symbol
 _atom_site_label
 _atom_site_symmetry_multiplicity
 _atom_site_fract_x
 _atom_site_fract_y
 _atom_site_fract_z
 _atom_site_occupancy
  Hf  Hf0  1  0.00958013  0.79575348  0.49739619  1
  Hf  Hf1  1  0.39604196  0.19691354  0.75094217  1
  Hf  Hf2  1  0.70255119  0.91055793  0.62764493  1
  Hf  Hf3  1  0.68936551  0.69949158  0.36972177  1
  Hf  Hf4  1  -0.01647346  0.19711440  0.73526875  1
  Hf  Hf5  1  0.79691736  0.00893115  0.24488444  1
  Hf  Hf6  1  0.29991607  0.50192432  0.60508685  1
  Hf  Hf7  1  0.89582129  0.29051480  0.36742956  1
  Hf  Hf8  1  0.10792807  0.89039479  0.12880655  1
  Hf  Hf9  1  0.69252428  0.29808798  0.37155622  1
  Hf  Hf10  1  0.50054955  0.50202060  0.63451256  1
  Hf  Hf11  1  0.69592317  0.49634406  0.88079505  1
  Hf  Hf12  1  0.59306797  0.60689934  0.01324058  1
  Hf  Hf13  1  0.79264347  0.58822364  0.01239667  1
  Hf  Hf14  1  0.31553064  0.89160745  0.86133934  1
  Hf  Hf15  1  0.69734481  0.31667312  0.12380746  1
  Hf  Hf16  1  0.21649589  0.77857125  0.25943995  1
  Hf  Hf17  1  0.79475827  0.81075379  -0.00112379  1
  Hf  Hf18  1  0.20649467  0.00015154  -0.00618395  1
  Hf  Hf19  1  0.11024812  0.68891584  0.12918143  1
  Hf  Hf20  1  -0.00417487  0.59549935  0.00668296  1
  Hf  Hf21  1  0.90436164  0.90204023  0.12598104  1
  Hf  Hf22  1  0.10537300  0.09941456  0.37059479  1
  Hf  Hf23  1  0.29742039  0.29993665  0.60810278  1
  Hf  Hf24  1  0.30624535  0.28554732  0.39074342  1
  Hf  Hf25  1  0.00671783  0.40061723  0.25175615  1
  Hf  Hf26  1  0.48155071  0.70865671  0.14323369  1
  Hf  Hf27  1  0.69020867  0.70516906  0.87492389  1
  Hf  Hf28  1  0.78808090  0.59706340  0.75365575  1
  Hf  Hf29  1  0.50260533  0.30000101  0.62143158  1
  Hf  Hf30  1  0.48174277  0.51745018  0.34927828  1
  Hf  Hf31  1  0.39271936  0.61161829  0.00001708  1
  Hf  Hf32  1  -0.00497205  0.39870208  0.48445437  1
  Hf  Hf33  1  0.49894546  0.11327631  0.37141131  1
  Hf  Hf34  1  0.10533083  0.67424256  0.38033795  1
  Hf  Hf35  1  0.21837674  0.40648704  0.26293445  1
  Hf  Hf36  1  0.88871246  0.49238800  0.61590116  1
  Hf  Hf37  1  0.09260126  0.48731584  0.88144043  1
  Hf  Hf38  1  0.21914679  -0.00843505  0.24871001  1
  Hf  Hf39  1  0.60376772  0.20038216  0.23906409  1
  Zr  Zr40  1  0.61350505  0.00365036  -0.00133120  1
  Zr  Zr41  1  0.90066955  0.09599425  0.37769503  1
  Zr  Zr42  1  0.90624415  0.90700783  0.62330775  1
  Zr  Zr43  1  0.19868455  0.39696882  0.74575588  1
  Zr  Zr44  1  -0.00074785  0.18836000  0.01468773  1
  Zr  Zr45  1  -0.00930707  0.58315842  0.75466707  1
  Zr  Zr46  1  0.49030109  0.71095553  0.86389896  1
  Zr  Zr47  1  0.19455331  0.59429281  0.74762867  1
  Zr  Zr48  1  0.90054316  0.70088365  0.12765721  1
  Zr  Zr49  1  0.61716661  0.19321111  0.74925114  1
  Zr  Zr50  1  0.31127499  0.10507505  0.11782601  1
  Zr  Zr51  1  0.89674298  0.70263544  0.87933198  1
  Zr  Zr52  1  0.09618094  0.30018382  0.87431649  1
  Zr  Zr53  1  0.19872923  0.19546411  0.74242433  1
  Zr  Zr54  1  0.11578029  0.89934065  0.62905580  1
  Zr  Zr55  1  0.10401639  0.69828882  0.87931044  1
  Zr  Zr56  1  0.49248412  0.49877937  0.86763852  1
  Zr  Zr57  1  0.89001076  0.28395375  0.88105726  1
  Zr  Zr58  1  0.10416852  0.09471080  0.13045328  1
  Zr  Zr59  1  0.79741440  0.80578404  0.25390686  1
  Zr  Zr60  1  0.41671271  0.79765071  0.49332352  1
  Zr  Zr61  1  0.10972671  0.90115315  0.37321337  1
  Zr  Zr62  1  0.09270684  0.09850055  0.87229641  1
  Zr  Zr63  1  -0.00687705  0.39373411  0.01717254  1
  Zr  Zr64  1  0.58143100  0.60441905  0.49315168  1
  Zr  Zr65  1  0.10551247  0.28979456  0.37806701  1
  Zr  Zr66  1  0.31218044  0.90813625  0.62678325  1
  Zr  Zr67  1  0.69907318  0.31045743  0.61615523  1
  Zr  Zr68  1  0.70621708  0.91628606  0.86257221  1
  Zr  Zr69  1  0.09368038  0.50024266  0.60587705  1
  Zr  Zr70  1  0.10112516  0.89655646  0.86304222  1
  Zr  Zr71  1  0.58644757  0.01999695  0.51476172  1
  Zr  Zr72  1  0.48943954  0.49900308  0.14540461  1
  Zr  Zr73  1  0.50043324  0.10135225  0.11917149  1
  Zr  Zr74  1  0.90194897  0.69077585  0.61902437  1
  Zr  Zr75  1  0.80336722  0.03527414  0.74525384  1
  Zr  Zr76  1  0.70250499  0.91326211  0.38957533  1
  Zr  Zr77  1  0.22616985  0.79019571  -0.00015020  1
  Zr  Zr78  1  0.50868170  0.10365547  0.87434696  1
  Zr  Zr79  1  0.79786046  0.79667423  0.50156790  1
  Ta  Ta80  1  0.69443857  0.50268109  0.62426516  1
  Ta  Ta81  1  -0.00546951  -0.00735249  -0.00124937  1
  Ta  Ta82  1  0.89658271  0.50733628  0.36996812  1
  Ta  Ta83  1  0.21150888  0.20804404  -0.00411033  1
  Ta  Ta84  1  0.59312099  0.81353798  0.25395804  1
  Ta  Ta85  1  0.20147488  0.58761274  -0.00030834  1
  Ta  Ta86  1  0.69335948  0.90347536  0.12453448  1
  Ta  Ta87  1  0.48877748  0.30768742  0.13103274  1
  Ta  Ta88  1  0.30149965  0.69823545  0.61060717  1
  Ta  Ta89  1  0.40705870  -0.01304868  -0.01042993  1
  Ta  Ta90  1  0.69818941  0.10754552  0.38432027  1
  Ta  Ta91  1  0.68909750  0.50014770  0.35606562  1
  Ta  Ta92  1  0.49669416  0.70238681  0.63818829  1
  Ta  Ta93  1  0.00560279  0.79240677  0.74407711  1
  Ta  Ta94  1  0.01375770  0.00776328  0.50758258  1
  Ta  Ta95  1  0.69552434  0.30169133  0.88527036  1
  Ta  Ta96  1  0.00388108  0.79518958  0.26014817  1
  Ta  Ta97  1  0.90717121  0.90250888  0.38175462  1
  Ta  Ta98  1  0.58127458  0.39963525  0.00051464  1
  Ta  Ta99  1  0.69324917  0.69410710  0.62754454  1
  Ta  Ta100  1  0.50184432  0.90561748  0.64547435  1
  Ta  Ta101  1  -0.00153852  0.19543363  0.51378174  1
  Ta  Ta102  1  0.79997746  0.59923016  0.24761574  1
  Ta  Ta103  1  0.38379287  0.60640907  0.75056448  1
  Ta  Ta104  1  0.50123699  0.90914055  0.37716265  1
  Ta  Ta105  1  0.41084973  0.18275031  0.51116866  1
  Ta  Ta106  1  0.80295727  0.39246724  0.75182811  1
  Ta  Ta107  1  0.79528103  0.19428378  0.01588945  1
  Ta  Ta108  1  0.50880679  0.90343818  0.85119346  1
  Ta  Ta109  1  0.60336355  0.20953376  0.00353771  1
  Ta  Ta110  1  0.40818163  -0.00376694  0.25399772  1
  Ta  Ta111  1  0.29558243  0.50229537  0.12423026  1
  Ta  Ta112  1  0.90073085  0.69664239  0.37402781  1
  Ta  Ta113  1  0.80773680  0.80189721  0.74626712  1
  Ta  Ta114  1  0.79161975  0.40680156  0.48414357  1
  Ta  Ta115  1  0.21522960  0.78356435  0.74667877  1
  Ta  Ta116  1  0.21380111  0.79991560  0.48921080  1
  Ta  Ta117  1  0.60335859  0.00303853  0.24993180  1
  Ta  Ta118  1  0.79535658  0.19889382  0.50424351  1
  Ta  Ta119  1  0.40834405  0.40676536  0.48712531  1
  Ti  Ti120  1  0.30597261  0.31043834  0.11970870  1
  Ti  Ti121  1  0.89495564  0.30274833  0.61909973  1
  Ti  Ti122  1  0.10701379  0.49068491  0.12527125  1
  Ti  Ti123  1  0.30668655  0.30603514  0.88218184  1
  Ti  Ti124  1  0.58427679  0.80933992  0.00148454  1
  Ti  Ti125  1  0.60040963  0.80326492  0.50830509  1
  Ti  Ti126  1  0.31825462  0.88670346  0.12421508  1
  Ti  Ti127  1  0.49934277  0.90334174  0.12899740  1
  Ti  Ti128  1  0.00370284  0.80305724  -0.00233311  1
  Ti  Ti129  1  0.89580815  0.29944412  0.13111566  1
  Ti  Ti130  1  0.00329832  0.59369684  0.24911330  1
  Ti  Ti131  1  0.00552054  0.00389996  0.73961580  1
  Ti  Ti132  1  0.21684683  0.01132568  0.75333577  1
  Ti  Ti133  1  0.29548661  0.49560435  0.88359912  1
  Ti  Ti134  1  0.89169790  0.48074171  0.88368862  1
  Ti  Ti135  1  0.80947142  0.01188848  0.00243293  1
  Ti  Ti136  1  0.10714861  0.69503906  0.61429010  1
  Ti  Ti137  1  0.19421235  0.17725209  0.51505269  1
  Ti  Ti138  1  0.39239221  0.20400556  0.24975716  1
  Ti  Ti139  1  0.69067611  0.70863092  0.13325217  1
  Ti  Ti140  1  0.20691567  0.19868118  0.24789562  1
  Ti  Ti141  1  0.50032210  0.30917330  0.36697545  1
  Ti  Ti142  1  0.40905626  0.21353398  -0.01136583  1
  Ti  Ti143  1  0.39825471  0.80430927  0.27025638  1
  Ti  Ti144  1  0.30372115  0.08250774  0.38829432  1
  Ti  Ti145  1  -0.00183012  0.19393248  0.23705613  1
  Ti  Ti146  1  0.09382007  0.30441241  0.61797250  1
  Ti  Ti147  1  -0.00039044  -0.00494049  0.24934825  1
  Ti  Ti148  1  0.31385682  0.67654659  0.38734089  1
  Ti  Ti149  1  0.79713906  0.40035500  0.25524775  1
  Ti  Ti150  1  0.11620807  0.29918478  0.12816410  1
  Ti  Ti151  1  0.60171198  0.40031946  0.75651338  1
  Ti  Ti152  1  0.90737152  0.90676819  0.86601559  1
  Ti  Ti153  1  0.59767768  0.40823416  0.48919169  1
  Ti  Ti154  1  0.80017935  0.19581163  0.23655828  1
  Ti  Ti155  1  0.68956315  0.50409423  0.14189655  1
  Ti  Ti156  1  0.78938100  0.59420815  0.49079530  1
  Ti  Ti157  1  0.88924590  0.49070648  0.13418995  1
  Ti  Ti158  1  0.60916787  0.79672036  0.74232224  1
  Ti  Ti159  1  0.39456023  0.39802661  0.75216839  1
  Mo  Mo160  1  0.71939697  0.11905724  0.88348285  1
  Mo  Mo161  1  0.60631643  0.61348465  0.24057096  1
  Mo  Mo162  1  0.40072321  0.79687451  0.73965403  1
  Mo  Mo163  1  0.78960049  0.39677837  0.00941062  1
  Mo  Mo164  1  0.10096305  0.09545924  0.62800042  1
  Mo  Mo165  1  0.59290260  0.21430468  0.49714933  1
  Mo  Mo166  1  -0.01613342  0.59832639  0.49235131  1
  Mo  Mo167  1  0.89462211  0.09111486  0.87966530  1
  Mo  Mo168  1  0.40231808  0.00892422  0.75728601  1
  Mo  Mo169  1  0.59693141  0.40130672  0.25162564  1
  Mo  Mo170  1  0.59707823  0.59905081  0.74320205  1
  Mo  Mo171  1  0.39746489  -0.00169693  0.49696610  1
  Mo  Mo172  1  0.09514460  0.49574062  0.38051091  1
  Mo  Mo173  1  0.90149017  0.09801584  0.13142946  1
  Mo  Mo174  1  0.20006064  0.39178714  0.49276968  1
  Mo  Mo175  1  0.60211292  0.00566416  0.74093847  1
  Mo  Mo176  1  0.39116941  0.39836562  -0.00003758  1
  Mo  Mo177  1  0.70321328  0.10166699  0.12353165  1
  Mo  Mo178  1  0.36241220  0.60374539  0.25025267  1
  Mo  Mo179  1  0.39429437  0.39061263  0.26120038  1
  Mo  Mo180  1  0.28612965  0.49915559  0.39670129  1
  Mo  Mo181  1  0.20612046  0.39657020  0.00637376  1
  Mo  Mo182  1  0.80009312  0.21509187  0.74282550  1
  Mo  Mo183  1  0.49816019  0.70784659  0.35647868  1
  Mo  Mo184  1  0.49222890  0.09575737  0.63725103  1
  Mo  Mo185  1  0.80675265  0.00961061  0.50437881  1
  Mo  Mo186  1  0.19205050  0.58734610  0.25001092  1
  Mo  Mo187  1  0.19725220  0.60343478  0.50181749  1
  Mo  Mo188  1  -0.01455332  0.39310745  0.74297402  1
  Mo  Mo189  1  0.30038473  0.68901203  0.87166222  1
  Mo  Mo190  1  0.40430834  0.59952637  0.50119480  1
  Mo  Mo191  1  0.29970769  0.09509075  0.61907203  1
  Mo  Mo192  1  0.30433147  0.10433867  0.88744542  1
  Mo  Mo193  1  0.89680924  0.10427309  0.61093424  1
  Mo  Mo194  1  0.41224741  0.80940168  0.00126724  1
  Mo  Mo195  1  0.30099614  0.69631182  0.13003470  1
  Mo  Mo196  1  0.50089471  0.31000640  0.87441643  1
  Mo  Mo197  1  0.20544132  -0.00176156  0.49924420  1
  Mo  Mo198  1  0.69779546  0.11080251  0.60972553  1
  Mo  Mo199  1  0.30960763  0.89778643  0.37945605  1
