# generated using pymatgen
data_HfZrTaTiMo
_symmetry_space_group_name_H-M   'P 1'
_cell_length_a   15.18270851
_cell_length_b   15.18731275
_cell_length_c   16.79324666
_cell_angle_alpha   90.05385282
_cell_angle_beta   90.02777874
_cell_angle_gamma   90.19350998
_symmetry_Int_Tables_number   1
_chemical_formula_structural   HfZrTaTiMo
_chemical_formula_sum   'Hf40 Zr40 Ta40 Ti40 Mo40'
_cell_volume   3872.23884278
_cell_formula_units_Z   40
loop_
 _symmetry_equiv_pos_site_id
 _symmetry_equiv_pos_as_xyz
  1  'x, y, z'
loop_
 _atom_site_type_symbol
 _atom_site_label
 _atom_site_symmetry_multiplicity
 _atom_site_fract_x
 _atom_site_fract_y
 _atom_site_fract_z
 _atom_site_occupancy
  Hf  Hf0  1  0.49871589  0.90015269  0.87753363  1
  Hf  Hf1  1  0.89366953  0.29973561  0.38395084  1
  Hf  Hf2  1  0.69357128  0.89476318  0.37054637  1
  Hf  Hf3  1  0.80268082  0.59594972  0.25384587  1
  Hf  Hf4  1  0.60285287  0.41491592  0.00947202  1
  Hf  Hf5  1  0.11066606  0.11476312  0.38349380  1
  Hf  Hf6  1  0.40425170  0.79159049  0.74450616  1
  Hf  Hf7  1  0.70112213  0.10856556  0.12584390  1
  Hf  Hf8  1  0.00852152  0.80909263  0.49945919  1
  Hf  Hf9  1  0.61189359  0.00147270  0.75394098  1
  Hf  Hf10  1  0.79962807  0.20391723  0.25332574  1
  Hf  Hf11  1  0.10081793  0.89519231  0.87111840  1
  Hf  Hf12  1  0.30882309  0.10405139  0.87057025  1
  Hf  Hf13  1  0.89494767  0.51158387  0.62430628  1
  Hf  Hf14  1  0.00328742  0.63156826  0.77027053  1
  Hf  Hf15  1  0.38276751  0.39376293  0.76608020  1
  Hf  Hf16  1  0.19199477  0.38617659  0.50577929  1
  Hf  Hf17  1  0.59556248  0.39350275  0.73957943  1
  Hf  Hf18  1  0.49854041  0.10161439  0.12618864  1
  Hf  Hf19  1  0.10750860  0.12066226  0.60706875  1
  Hf  Hf20  1  -0.00586608  0.60662359  -0.00937144  1
  Hf  Hf21  1  0.79585873  0.60192786  0.75937875  1
  Hf  Hf22  1  0.29558420  0.28340931  0.13614825  1
  Hf  Hf23  1  0.89150555  0.90094352  0.13200160  1
  Hf  Hf24  1  0.80175290  0.00239592  0.74307558  1
  Hf  Hf25  1  0.70061964  0.69251245  0.11755552  1
  Hf  Hf26  1  0.89717729  0.29842734  0.87206901  1
  Hf  Hf27  1  0.29531982  0.29653195  0.36444696  1
  Hf  Hf28  1  0.60109670  0.20593589  -0.00974572  1
  Hf  Hf29  1  0.09527138  0.50139487  0.12002434  1
  Hf  Hf30  1  0.48975379  0.89637307  0.37850344  1
  Hf  Hf31  1  0.39363391  -0.00663054  0.24035364  1
  Hf  Hf32  1  0.29186462  0.88850469  0.36675455  1
  Hf  Hf33  1  0.10735219  0.49961464  0.88483084  1
  Hf  Hf34  1  0.11182396  0.71068486  0.35866408  1
  Hf  Hf35  1  0.09675387  0.51681876  0.62803926  1
  Hf  Hf36  1  0.20060652  0.59729314  0.48999759  1
  Hf  Hf37  1  0.59123548  0.36875401  0.50450274  1
  Hf  Hf38  1  0.00656663  0.80746532  0.00275776  1
  Hf  Hf39  1  0.89954569  0.10070531  0.12136357  1
  Zr  Zr40  1  0.41053142  0.00560875  0.74195470  1
  Zr  Zr41  1  0.90082666  0.69355339  0.12282930  1
  Zr  Zr42  1  0.31105721  0.48762628  0.62059723  1
  Zr  Zr43  1  0.59568734  0.01413956  0.25959766  1
  Zr  Zr44  1  0.91211935  0.10052552  0.39587114  1
  Zr  Zr45  1  0.00925608  0.20117125  0.01005863  1
  Zr  Zr46  1  0.90347320  0.11226127  0.60667212  1
  Zr  Zr47  1  0.51162736  0.69431435  0.61073070  1
  Zr  Zr48  1  0.21107123  0.59223150  0.76030313  1
  Zr  Zr49  1  0.00041535  0.61094291  0.48624650  1
  Zr  Zr50  1  0.51540504  0.49763367  0.87651161  1
  Zr  Zr51  1  0.68839628  0.50536376  0.61430423  1
  Zr  Zr52  1  0.79012699  -0.00611686  0.50830874  1
  Zr  Zr53  1  0.30122838  0.68869652  0.62179602  1
  Zr  Zr54  1  0.00382600  0.59335862  0.25502555  1
  Zr  Zr55  1  -0.01012970  0.40974574  0.75198420  1
  Zr  Zr56  1  0.17884841  0.79231033  0.73502369  1
  Zr  Zr57  1  0.69364473  0.49299537  0.38452310  1
  Zr  Zr58  1  0.01243732  0.21483328  0.23923379  1
  Zr  Zr59  1  0.60678030  0.00075182  -0.01163526  1
  Zr  Zr60  1  0.29505279  0.89541962  0.87111791  1
  Zr  Zr61  1  0.49061030  0.49397983  0.38302028  1
  Zr  Zr62  1  0.50888223  0.69819386  0.38462247  1
  Zr  Zr63  1  0.31648088  0.11720571  0.61528911  1
  Zr  Zr64  1  0.59207013  0.58505020  0.23761220  1
  Zr  Zr65  1  0.50367666  0.29851754  0.13322412  1
  Zr  Zr66  1  0.09800101  0.91311359  0.35903618  1
  Zr  Zr67  1  0.10122292  0.09620935  0.87440260  1
  Zr  Zr68  1  0.89465923  0.89083616  0.37020784  1
  Zr  Zr69  1  0.00617861  0.00286643  0.73673872  1
  Zr  Zr70  1  0.19924861  -0.01282364  0.50732473  1
  Zr  Zr71  1  0.58606046  0.79793931  0.23705090  1
  Zr  Zr72  1  0.50025776  0.70227268  0.88738606  1
  Zr  Zr73  1  0.52525654  0.12118209  0.62363469  1
  Zr  Zr74  1  0.69753805  0.90483023  0.12838059  1
  Zr  Zr75  1  0.79585402  0.80093939  -0.01757963  1
  Zr  Zr76  1  0.80374982  0.79908122  0.76266076  1
  Zr  Zr77  1  0.19060938  0.38777681  0.74710630  1
  Zr  Zr78  1  0.39461397  -0.00284059  0.01064569  1
  Zr  Zr79  1  0.39924114  0.58456147  0.00542995  1
  Ta  Ta80  1  0.59718890  0.00313114  0.49801773  1
  Ta  Ta81  1  0.40680057  -0.00095552  0.50359649  1
  Ta  Ta82  1  -0.00505916  0.40107287  0.00171655  1
  Ta  Ta83  1  0.90484526  0.91217735  0.87434169  1
  Ta  Ta84  1  0.80184092  0.60586552  0.49322135  1
  Ta  Ta85  1  0.79982127  0.20547869  -0.00373801  1
  Ta  Ta86  1  0.19298821  -0.00313485  0.01275915  1
  Ta  Ta87  1  0.20298373  0.39351656  0.00532004  1
  Ta  Ta88  1  0.09571167  0.90671174  0.14197545  1
  Ta  Ta89  1  0.70670225  0.70927774  0.61874520  1
  Ta  Ta90  1  0.89804744  0.49382077  0.38150284  1
  Ta  Ta91  1  0.18706120  0.39546314  0.24260522  1
  Ta  Ta92  1  0.10265181  0.29490647  0.88145766  1
  Ta  Ta93  1  0.40120474  0.40428874  0.24911466  1
  Ta  Ta94  1  0.30707839  0.89796253  0.62535549  1
  Ta  Ta95  1  0.60128523  0.60603364  0.74826990  1
  Ta  Ta96  1  0.90290345  0.89315863  0.62222152  1
  Ta  Ta97  1  0.79612943  0.39334632  0.50909763  1
  Ta  Ta98  1  0.20775965  0.20322641  0.74938634  1
  Ta  Ta99  1  0.28313286  0.89142876  0.13406755  1
  Ta  Ta100  1  0.39598395  0.80299537  0.50409820  1
  Ta  Ta101  1  0.20399235  0.00232420  0.73200457  1
  Ta  Ta102  1  0.38995090  0.79583012  0.01718243  1
  Ta  Ta103  1  0.00547470  0.21090528  0.74530003  1
  Ta  Ta104  1  -0.00228474  0.01329875  0.24726307  1
  Ta  Ta105  1  0.11207783  0.70993081  0.13476299  1
  Ta  Ta106  1  0.69899873  0.31250114  0.87057525  1
  Ta  Ta107  1  0.29417840  0.69580943  0.88136227  1
  Ta  Ta108  1  0.30695794  0.09260594  0.37986549  1
  Ta  Ta109  1  0.79963796  0.39968869  0.00257689  1
  Ta  Ta110  1  0.39440678  0.38588644  -0.00519020  1
  Ta  Ta111  1  0.31060740  0.69645123  0.37145729  1
  Ta  Ta112  1  0.80159261  0.00533095  0.25903084  1
  Ta  Ta113  1  -0.00273057  0.40559284  0.50471491  1
  Ta  Ta114  1  0.61034051  0.80008564  0.75294310  1
  Ta  Ta115  1  0.40813363  0.59267430  0.75840086  1
  Ta  Ta116  1  0.09441678  0.30740790  0.37376155  1
  Ta  Ta117  1  0.79184055  0.20468392  0.73929599  1
  Ta  Ta118  1  0.49359161  0.28676496  0.87035070  1
  Ta  Ta119  1  0.70647414  0.70315945  0.37650641  1
  Ti  Ti120  1  0.39006857  0.78517094  0.23086610  1
  Ti  Ti121  1  0.70690366  0.11050052  0.38533850  1
  Ti  Ti122  1  0.21232716  0.59904374  0.24515462  1
  Ti  Ti123  1  0.51403086  0.89571948  0.61841527  1
  Ti  Ti124  1  0.09977191  0.49180132  0.36917907  1
  Ti  Ti125  1  0.79692257  0.40201176  0.24633186  1
  Ti  Ti126  1  0.20029820  0.79794331  0.00753810  1
  Ti  Ti127  1  0.90003002  0.30260577  0.61962066  1
  Ti  Ti128  1  0.60289211  0.39461680  0.24957556  1
  Ti  Ti129  1  0.69004207  0.68611932  0.88607026  1
  Ti  Ti130  1  0.90397768  0.10668617  0.87357474  1
  Ti  Ti131  1  0.59951906  0.20866190  0.27600020  1
  Ti  Ti132  1  0.49626038  0.50139922  0.61835596  1
  Ti  Ti133  1  0.30302307  0.49212794  0.12804328  1
  Ti  Ti134  1  0.39879145  0.59572090  0.49492851  1
  Ti  Ti135  1  -0.01238964  0.79641137  0.24905383  1
  Ti  Ti136  1  0.79125132  0.39832356  0.73939996  1
  Ti  Ti137  1  0.90857917  0.70407463  0.62658288  1
  Ti  Ti138  1  0.47642471  0.29944656  0.63329165  1
  Ti  Ti139  1  0.49401930  0.69000682  0.11440285  1
  Ti  Ti140  1  0.12138272  0.10568540  0.13531105  1
  Ti  Ti141  1  0.78890787  0.58313298  -0.00325645  1
  Ti  Ti142  1  0.00163198  0.00189311  0.00532109  1
  Ti  Ti143  1  0.80316272  0.00645411  -0.01239063  1
  Ti  Ti144  1  0.41901988  0.20485123  0.48258420  1
  Ti  Ti145  1  0.88766173  0.49891430  0.87618448  1
  Ti  Ti146  1  0.80163789  0.79386920  0.50186120  1
  Ti  Ti147  1  0.70747987  0.10951772  0.87137965  1
  Ti  Ti148  1  0.29328946  0.49773951  0.36686339  1
  Ti  Ti149  1  0.89817579  0.31048115  0.12118917  1
  Ti  Ti150  1  0.39126729  0.38773225  0.49530940  1
  Ti  Ti151  1  0.39865935  0.19665892  -0.00088708  1
  Ti  Ti152  1  0.20076366  0.79142080  0.51024670  1
  Ti  Ti153  1  0.59287806  0.80139075  0.00707068  1
  Ti  Ti154  1  0.40614541  0.19151267  0.26078826  1
  Ti  Ti155  1  0.70476413  0.30294030  0.12652933  1
  Ti  Ti156  1  -0.01143559  0.40466976  0.24326472  1
  Ti  Ti157  1  0.20271480  0.60441692  0.00396314  1
  Ti  Ti158  1  0.20816354  0.19560569  0.00231285  1
  Ti  Ti159  1  0.39883114  0.59617520  0.24174528  1
  Mo  Mo160  1  0.29737897  0.29050145  0.61885348  1
  Mo  Mo161  1  0.10281948  0.30558031  0.11962942  1
  Mo  Mo162  1  0.60390078  0.20021925  0.76444058  1
  Mo  Mo163  1  0.79623112  0.79559191  0.25161674  1
  Mo  Mo164  1  0.29535303  0.68864574  0.12461885  1
  Mo  Mo165  1  0.70730915  0.48922592  0.13065685  1
  Mo  Mo166  1  0.70214029  0.10291622  0.62206543  1
  Mo  Mo167  1  0.49676332  0.30107101  0.36413905  1
  Mo  Mo168  1  -0.01047634  0.81004264  0.74962687  1
  Mo  Mo169  1  0.21746469  0.20702483  0.49153384  1
  Mo  Mo170  1  0.11126402  0.70899771  0.88787747  1
  Mo  Mo171  1  0.09053891  0.30100071  0.62476557  1
  Mo  Mo172  1  0.00067234  -0.00065713  0.50869404  1
  Mo  Mo173  1  0.49288302  0.88911352  0.12117171  1
  Mo  Mo174  1  0.78403713  0.21270837  0.51008902  1
  Mo  Mo175  1  0.40082017  0.20664997  0.75348327  1
  Mo  Mo176  1  0.60645658  0.60311165  0.01177215  1
  Mo  Mo177  1  0.50372426  0.10523793  0.87214789  1
  Mo  Mo178  1  0.09947770  0.90408168  0.62150299  1
  Mo  Mo179  1  0.89423951  0.69996874  0.37171286  1
  Mo  Mo180  1  0.49455167  0.49244112  0.13011421  1
  Mo  Mo181  1  0.30068233  0.49705864  0.88972619  1
  Mo  Mo182  1  0.89086014  0.49225215  0.11928212  1
  Mo  Mo183  1  0.49620969  0.09734102  0.37964914  1
  Mo  Mo184  1  0.69137504  0.28408586  0.62941012  1
  Mo  Mo185  1  0.20143262  0.79573138  0.24562235  1
  Mo  Mo186  1  0.69958741  0.89994795  0.87879843  1
  Mo  Mo187  1  0.60754633  0.60232356  0.49984361  1
  Mo  Mo188  1  0.01039904  0.22468067  0.50089072  1
  Mo  Mo189  1  0.20781674  0.19551777  0.25347177  1
  Mo  Mo190  1  0.70225887  0.30345796  0.37191205  1
  Mo  Mo191  1  0.09120802  0.70335265  0.62138948  1
  Mo  Mo192  1  0.20005501  0.00975563  0.24619337  1
  Mo  Mo193  1  0.61091681  0.80950611  0.50278955  1
  Mo  Mo194  1  0.69549794  0.89312676  0.62226364  1
  Mo  Mo195  1  0.90040986  0.70495586  0.88707220  1
  Mo  Mo196  1  0.70479734  0.49601389  0.86907531  1
  Mo  Mo197  1  0.29840571  0.09694728  0.12375111  1
  Mo  Mo198  1  0.29051352  0.29394228  0.88733168  1
  Mo  Mo199  1  0.60473960  0.19339324  0.48312470  1
