# generated using pymatgen
data_HfZrTaTiMo
_symmetry_space_group_name_H-M   'P 1'
_cell_length_a   15.20823688
_cell_length_b   15.22272747
_cell_length_c   16.85329836
_cell_angle_alpha   90.01192433
_cell_angle_beta   90.08321049
_cell_angle_gamma   89.90437147
_symmetry_Int_Tables_number   1
_chemical_formula_structural   HfZrTaTiMo
_chemical_formula_sum   'Hf40 Zr40 Ta40 Ti40 Mo40'
_cell_volume   3901.71171772
_cell_formula_units_Z   40
loop_
 _symmetry_equiv_pos_site_id
 _symmetry_equiv_pos_as_xyz
  1  'x, y, z'
loop_
 _atom_site_type_symbol
 _atom_site_label
 _atom_site_symmetry_multiplicity
 _atom_site_fract_x
 _atom_site_fract_y
 _atom_site_fract_z
 _atom_site_occupancy
  Hf  Hf0  1  0.41726295  -0.01021823  0.75164780  1
  Hf  Hf1  1  0.59842011  0.20165432  0.23827579  1
  Hf  Hf2  1  0.20012377  0.18795648  0.00143581  1
  Hf  Hf3  1  0.38886285  0.61274633  0.01067349  1
  Hf  Hf4  1  0.21201041  0.19449076  0.23367647  1
  Hf  Hf5  1  0.90812300  0.30078581  0.37899325  1
  Hf  Hf6  1  0.51626966  0.29915897  0.89517323  1
  Hf  Hf7  1  -0.00707057  0.40172617  0.23577418  1
  Hf  Hf8  1  0.48695310  0.51311113  0.63630807  1
  Hf  Hf9  1  0.91277342  0.90710321  0.60821416  1
  Hf  Hf10  1  0.09600247  0.08705746  0.36341378  1
  Hf  Hf11  1  0.29447840  0.89195606  0.12251542  1
  Hf  Hf12  1  0.49902256  0.50923143  0.87002640  1
  Hf  Hf13  1  0.40248878  0.41173557  0.00889839  1
  Hf  Hf14  1  0.10403144  0.29767783  0.36347316  1
  Hf  Hf15  1  0.59975628  0.58896834  0.01006686  1
  Hf  Hf16  1  0.69178551  0.92918384  0.87280009  1
  Hf  Hf17  1  0.82532008  0.80810537  0.25576744  1
  Hf  Hf18  1  0.69883629  0.70310743  0.88223492  1
  Hf  Hf19  1  0.80186228  0.20429215  0.24395604  1
  Hf  Hf20  1  -0.00573219  0.80459625  0.75519071  1
  Hf  Hf21  1  0.69473942  0.91403900  0.12962867  1
  Hf  Hf22  1  0.59999078  0.21022626  0.74848285  1
  Hf  Hf23  1  0.39613828  0.39643091  0.22656515  1
  Hf  Hf24  1  0.30507358  0.29069083  0.63127048  1
  Hf  Hf25  1  -0.00086521  -0.02108212  0.01692236  1
  Hf  Hf26  1  0.09863037  0.30092102  0.11826539  1
  Hf  Hf27  1  0.09044794  0.29491082  0.63546623  1
  Hf  Hf28  1  0.40393714  0.19419356  0.76883291  1
  Hf  Hf29  1  0.21833534  0.18640043  0.49360570  1
  Hf  Hf30  1  -0.00431381  0.57876686  0.50398352  1
  Hf  Hf31  1  0.61796264  0.80016235  0.25920098  1
  Hf  Hf32  1  0.47952451  0.10991524  0.37828311  1
  Hf  Hf33  1  0.70444698  0.31037701  0.37119345  1
  Hf  Hf34  1  0.08848401  0.08254065  0.88117098  1
  Hf  Hf35  1  0.51300555  0.68771866  0.36509500  1
  Hf  Hf36  1  0.68287175  0.51770537  0.36339814  1
  Hf  Hf37  1  0.19150306  -0.01163816  0.49548935  1
  Hf  Hf38  1  -0.01645384  0.42016443  0.00889840  1
  Hf  Hf39  1  0.31739171  0.89105118  0.87965505  1
  Zr  Zr40  1  0.90330505  0.50759153  0.85750785  1
  Zr  Zr41  1  0.31464834  0.70209260  0.63535639  1
  Zr  Zr42  1  0.80989772  0.81181878  -0.00565485  1
  Zr  Zr43  1  0.61473052  0.79624099  0.49386745  1
  Zr  Zr44  1  0.50719001  0.30484874  0.36916726  1
  Zr  Zr45  1  0.70359715  0.48666294  0.87185049  1
  Zr  Zr46  1  0.88276003  0.30194039  0.88579233  1
  Zr  Zr47  1  0.20894807  0.77847519  0.26086131  1
  Zr  Zr48  1  0.91380000  0.48661750  0.64963122  1
  Zr  Zr49  1  0.29751853  0.49992775  0.86835280  1
  Zr  Zr50  1  0.19571088  0.60026772  0.51457143  1
  Zr  Zr51  1  0.59112080  0.00085768  0.50713951  1
  Zr  Zr52  1  0.89086625  0.09326643  0.38066078  1
  Zr  Zr53  1  0.09119033  0.48814731  0.85698586  1
  Zr  Zr54  1  0.00828045  0.19391434  0.50297864  1
  Zr  Zr55  1  0.11508984  0.89243017  0.62688306  1
  Zr  Zr56  1  0.20132736  0.79195720  -0.01043355  1
  Zr  Zr57  1  0.28534562  0.08876773  0.63941763  1
  Zr  Zr58  1  0.59087889  0.81591026  0.00115319  1
  Zr  Zr59  1  0.60051663  0.41205899  0.51023324  1
  Zr  Zr60  1  0.19194283  0.19000149  0.76818942  1
  Zr  Zr61  1  0.41273120  0.80786607  0.49499777  1
  Zr  Zr62  1  0.88686970  0.10032296  0.88538282  1
  Zr  Zr63  1  0.61570320  0.02119947  0.73392138  1
  Zr  Zr64  1  0.80797350  0.40698097  0.50709354  1
  Zr  Zr65  1  0.58437508  0.82051579  0.73913923  1
  Zr  Zr66  1  0.59738009  0.61678488  0.74751481  1
  Zr  Zr67  1  0.40807895  0.81022586  0.25374429  1
  Zr  Zr68  1  0.70782167  0.50760931  0.63628790  1
  Zr  Zr69  1  0.00317262  0.78335313  -0.00788486  1
  Zr  Zr70  1  0.71496892  0.70258004  0.12012683  1
  Zr  Zr71  1  0.88934288  0.50264166  0.36551482  1
  Zr  Zr72  1  0.48655483  0.49657078  0.36435004  1
  Zr  Zr73  1  0.31105169  0.29418535  0.36719653  1
  Zr  Zr74  1  0.39017571  0.40126109  0.50354525  1
  Zr  Zr75  1  0.89533662  0.70396128  0.61712082  1
  Zr  Zr76  1  0.78459655  0.01797240  0.00938476  1
  Zr  Zr77  1  0.37812851  0.60570700  0.23790708  1
  Zr  Zr78  1  0.18060013  0.40065833  0.50408577  1
  Zr  Zr79  1  0.19856836  -0.00617026  0.23889539  1
  Ta  Ta80  1  0.39582167  0.60415269  0.49639682  1
  Ta  Ta81  1  0.29669828  0.49290524  0.64406665  1
  Ta  Ta82  1  0.91314954  0.90316234  0.38883232  1
  Ta  Ta83  1  0.50474135  0.70350448  0.13419385  1
  Ta  Ta84  1  0.89784102  0.09510214  0.12884794  1
  Ta  Ta85  1  0.08658831  0.29192205  0.88340409  1
  Ta  Ta86  1  0.78866470  0.19165895  0.74518610  1
  Ta  Ta87  1  0.38627248  0.00981288  0.50326497  1
  Ta  Ta88  1  -0.01976624  0.18504320  0.74826160  1
  Ta  Ta89  1  0.20240518  0.79806963  0.76289552  1
  Ta  Ta90  1  0.79380757  0.81470888  0.75487287  1
  Ta  Ta91  1  0.30115389  0.29649542  0.89123263  1
  Ta  Ta92  1  0.02048545  0.79026485  0.49339019  1
  Ta  Ta93  1  0.69112808  0.10830474  0.38320309  1
  Ta  Ta94  1  0.00179948  0.18973447  0.23835822  1
  Ta  Ta95  1  0.19185697  0.40055340  -0.00342753  1
  Ta  Ta96  1  0.28100806  0.50934592  0.37030275  1
  Ta  Ta97  1  0.40289275  0.19324228  0.22022796  1
  Ta  Ta98  1  0.48708638  0.11303142  0.61645144  1
  Ta  Ta99  1  0.71757676  0.90773581  0.61788204  1
  Ta  Ta100  1  0.18231972  0.59708136  -0.00700222  1
  Ta  Ta101  1  0.40140040  0.01059428  0.23372893  1
  Ta  Ta102  1  0.11226034  0.69722886  0.12955011  1
  Ta  Ta103  1  0.09873700  0.88640348  0.36963334  1
  Ta  Ta104  1  0.48365031  0.71678434  0.87310373  1
  Ta  Ta105  1  0.88616670  0.28282071  0.62051731  1
  Ta  Ta106  1  0.19966294  0.40635664  0.24054743  1
  Ta  Ta107  1  0.82213863  0.59549767  0.00259316  1
  Ta  Ta108  1  0.80693126  0.62274676  0.75412282  1
  Ta  Ta109  1  0.40555816  0.38995850  0.75804310  1
  Ta  Ta110  1  0.78435626  0.61351975  0.49257057  1
  Ta  Ta111  1  0.62734045  0.19277417  0.01000129  1
  Ta  Ta112  1  0.30622673  0.91514343  0.37086878  1
  Ta  Ta113  1  0.31393191  0.08836571  0.89160595  1
  Ta  Ta114  1  0.51072326  0.29948432  0.10650632  1
  Ta  Ta115  1  0.00048172  0.61086502  0.25203715  1
  Ta  Ta116  1  0.09007879  0.68699500  0.86219298  1
  Ta  Ta117  1  0.59583927  0.00632076  0.25423326  1
  Ta  Ta118  1  0.19700385  0.60127396  0.74474982  1
  Ta  Ta119  1  0.71348068  0.91577377  0.37648053  1
  Ti  Ti120  1  0.59276129  0.60946412  0.51056881  1
  Ti  Ti121  1  -0.00819480  -0.02223837  0.23667033  1
  Ti  Ti122  1  0.89398089  0.30129506  0.11887456  1
  Ti  Ti123  1  0.09940314  0.48934662  0.64800866  1
  Ti  Ti124  1  0.79263424  0.37681068  0.74555922  1
  Ti  Ti125  1  0.79314352  0.40936540  0.23161664  1
  Ti  Ti126  1  -0.00707017  0.19291327  0.01151556  1
  Ti  Ti127  1  0.19569698  -0.01124089  0.76599884  1
  Ti  Ti128  1  0.79807334  0.00439272  0.24965205  1
  Ti  Ti129  1  0.11161428  0.68163381  0.37715851  1
  Ti  Ti130  1  0.79548104  0.60784406  0.24648178  1
  Ti  Ti131  1  0.30114332  0.69104284  0.86351630  1
  Ti  Ti132  1  0.60153272  0.39689079  0.74628641  1
  Ti  Ti133  1  0.77395758  0.39967619  0.01773802  1
  Ti  Ti134  1  0.21751661  0.79250491  0.48677846  1
  Ti  Ti135  1  0.91808527  0.70284478  0.12942685  1
  Ti  Ti136  1  0.89311721  0.09392983  0.60741873  1
  Ti  Ti137  1  0.59685946  0.21307050  0.50473523  1
  Ti  Ti138  1  0.90985526  0.90916866  0.86977932  1
  Ti  Ti139  1  0.08359505  0.08295426  0.63354954  1
  Ti  Ti140  1  0.09817338  0.69814238  0.63315634  1
  Ti  Ti141  1  0.70987202  0.11662033  0.60343373  1
  Ti  Ti142  1  0.08859705  0.49166573  0.36939709  1
  Ti  Ti143  1  0.27677046  0.50738560  0.11951538  1
  Ti  Ti144  1  0.91029157  0.70126135  0.37928110  1
  Ti  Ti145  1  0.80626366  0.80214234  0.48749875  1
  Ti  Ti146  1  0.70140474  0.71215183  0.62689329  1
  Ti  Ti147  1  0.41393681  0.18327575  0.00634294  1
  Ti  Ti148  1  0.10030926  0.08790600  0.12360211  1
  Ti  Ti149  1  0.08868248  0.51188527  0.12445380  1
  Ti  Ti150  1  0.60019782  0.41191296  0.22329796  1
  Ti  Ti151  1  0.20354504  0.38267193  0.75993396  1
  Ti  Ti152  1  0.50537757  0.91438603  0.37176204  1
  Ti  Ti153  1  0.40411433  0.80135616  0.01335342  1
  Ti  Ti154  1  0.19935513  -0.01167106  0.00179000  1
  Ti  Ti155  1  0.50018552  0.30434953  0.62529332  1
  Ti  Ti156  1  0.31068923  0.89640533  0.63235461  1
  Ti  Ti157  1  0.29958993  0.29772656  0.10627348  1
  Ti  Ti158  1  0.81898564  0.00756340  0.74312987  1
  Ti  Ti159  1  0.41658616  -0.00778160  0.01263166  1
  Mo  Mo160  1  0.30310619  0.09596490  0.36604498  1
  Mo  Mo161  1  0.18762328  0.58619874  0.25082047  1
  Mo  Mo162  1  0.80501225  0.20984503  0.02047874  1
  Mo  Mo163  1  0.01018818  0.79270688  0.26000210  1
  Mo  Mo164  1  0.89351621  0.51659974  0.13347948  1
  Mo  Mo165  1  0.71705331  0.70213680  0.37069948  1
  Mo  Mo166  1  0.70153247  0.10247869  0.13978339  1
  Mo  Mo167  1  0.49800072  0.90626132  0.88064680  1
  Mo  Mo168  1  0.70329561  0.50747400  0.12948437  1
  Mo  Mo169  1  0.49623293  0.50573270  0.12855991  1
  Mo  Mo170  1  0.70176063  0.30475746  0.13190445  1
  Mo  Mo171  1  0.69699111  0.12213942  0.87527247  1
  Mo  Mo172  1  0.79025324  0.20360044  0.49485042  1
  Mo  Mo173  1  0.39796742  0.60144590  0.75432687  1
  Mo  Mo174  1  0.79351427  -0.00161814  0.49660515  1
  Mo  Mo175  1  0.09151772  0.88426513  0.13574651  1
  Mo  Mo176  1  0.50978578  0.09210940  0.12065448  1
  Mo  Mo177  1  0.89242145  0.70388842  0.86957433  1
  Mo  Mo178  1  0.30363307  0.09621163  0.10156761  1
  Mo  Mo179  1  0.69714122  0.29913650  0.62356319  1
  Mo  Mo180  1  0.50510933  0.70357527  0.61687966  1
  Mo  Mo181  1  0.70437480  0.29674563  0.87900310  1
  Mo  Mo182  1  0.40459739  0.20039150  0.50642453  1
  Mo  Mo183  1  0.50746479  0.09021047  0.88610323  1
  Mo  Mo184  1  0.60108607  0.40067651  0.01038909  1
  Mo  Mo185  1  0.49925643  0.90850845  0.61644410  1
  Mo  Mo186  1  0.60007825  0.60023912  0.23203121  1
  Mo  Mo187  1  0.58854759  0.01305951  0.00282742  1
  Mo  Mo188  1  0.40029474  0.79768969  0.74908677  1
  Mo  Mo189  1  0.30321530  0.69645738  0.38470502  1
  Mo  Mo190  1  0.00124402  0.60384477  0.00138076  1
  Mo  Mo191  1  0.89909882  0.89421606  0.13148120  1
  Mo  Mo192  1  0.50208453  0.89841916  0.13635879  1
  Mo  Mo193  1  0.00500837  -0.00738506  0.49568693  1
  Mo  Mo194  1  0.00325495  0.61171928  0.73869728  1
  Mo  Mo195  1  0.29491609  0.69615119  0.11907460  1
  Mo  Mo196  1  0.00111604  0.00262996  0.74857353  1
  Mo  Mo197  1  0.00534534  0.39830573  0.50136401  1
  Mo  Mo198  1  0.10473821  0.89628408  0.87014769  1
  Mo  Mo199  1  -0.00151854  0.36521915  0.75386052  1
