# generated using pymatgen
data_HfZrTaTiMo
_symmetry_space_group_name_H-M   'P 1'
_cell_length_a   15.18130833
_cell_length_b   15.18294604
_cell_length_c   16.79918503
_cell_angle_alpha   89.98870853
_cell_angle_beta   90.03234087
_cell_angle_gamma   90.06415383
_symmetry_Int_Tables_number   1
_chemical_formula_structural   HfZrTaTiMo
_chemical_formula_sum   'Hf40 Zr40 Ta40 Ti40 Mo40'
_cell_volume   3872.15838282
_cell_formula_units_Z   40
loop_
 _symmetry_equiv_pos_site_id
 _symmetry_equiv_pos_as_xyz
  1  'x, y, z'
loop_
 _atom_site_type_symbol
 _atom_site_label
 _atom_site_symmetry_multiplicity
 _atom_site_fract_x
 _atom_site_fract_y
 _atom_site_fract_z
 _atom_site_occupancy
  Hf  Hf0  1  0.21489803  0.38274350  -0.00708444  1
  Hf  Hf1  1  0.20602980  0.60910264  0.76082266  1
  Hf  Hf2  1  0.20233576  0.79438203  0.23600152  1
  Hf  Hf3  1  0.50809614  0.30380524  0.85799230  1
  Hf  Hf4  1  0.31210867  0.70286652  0.62624022  1
  Hf  Hf5  1  0.89911725  0.29534738  0.60847806  1
  Hf  Hf6  1  0.80782292  0.79449070  0.73891126  1
  Hf  Hf7  1  0.20586280  0.79448835  0.49403828  1
  Hf  Hf8  1  0.31421552  0.91079444  0.10682369  1
  Hf  Hf9  1  0.78487367  0.41548860  0.49397916  1
  Hf  Hf10  1  0.51144432  0.70028538  0.12782675  1
  Hf  Hf11  1  0.69460695  0.49020374  0.87226825  1
  Hf  Hf12  1  0.19212213  0.20431461  0.73038316  1
  Hf  Hf13  1  0.00161460  0.20374074  0.01081620  1
  Hf  Hf14  1  0.49940618  0.90531425  0.63091832  1
  Hf  Hf15  1  0.01226779  0.40449997  0.00540247  1
  Hf  Hf16  1  0.90861323  0.70133556  0.87808417  1
  Hf  Hf17  1  0.61265890  0.58759297  0.49846699  1
  Hf  Hf18  1  0.11125527  0.50441256  0.39040112  1
  Hf  Hf19  1  0.09909911  0.69899541  0.88659618  1
  Hf  Hf20  1  0.40073894  0.59198175  0.49226890  1
  Hf  Hf21  1  0.79298619  0.61237793  0.24608899  1
  Hf  Hf22  1  0.40316874  0.59401389  0.25399809  1
  Hf  Hf23  1  0.89992823  0.90848059  0.87455267  1
  Hf  Hf24  1  0.60718209  0.80666527  0.76279281  1
  Hf  Hf25  1  0.11043985  0.30173364  0.13526525  1
  Hf  Hf26  1  -0.01156459  0.18657386  0.26285097  1
  Hf  Hf27  1  0.07404410  0.09073115  0.62917472  1
  Hf  Hf28  1  0.38123933  0.20763163  -0.01408053  1
  Hf  Hf29  1  0.40441827  0.81229678  0.24827135  1
  Hf  Hf30  1  0.80416034  0.81007175  0.23328945  1
  Hf  Hf31  1  0.80051098  0.59193825  0.73081177  1
  Hf  Hf32  1  0.29528585  0.69163119  0.37046056  1
  Hf  Hf33  1  0.30737757  0.50314474  0.62786480  1
  Hf  Hf34  1  0.91769009  0.90864280  0.63235894  1
  Hf  Hf35  1  0.71290700  0.69459914  0.88165541  1
  Hf  Hf36  1  -0.01868611  0.00378328  0.01540011  1
  Hf  Hf37  1  0.80135389  0.19105310  0.00129563  1
  Hf  Hf38  1  0.50618048  0.70327139  0.62232452  1
  Hf  Hf39  1  0.22069351  0.38878496  0.50700481  1
  Zr  Zr40  1  0.59626874  0.20744992  -0.00748643  1
  Zr  Zr41  1  0.89685150  0.50318594  0.87890767  1
  Zr  Zr42  1  0.30487727  0.91414456  0.37459216  1
  Zr  Zr43  1  0.11153269  0.71799053  0.63079530  1
  Zr  Zr44  1  0.58815361  -0.00557603  -0.01640979  1
  Zr  Zr45  1  0.76881314  0.20225512  0.49016727  1
  Zr  Zr46  1  0.19609003  0.39813030  0.74149989  1
  Zr  Zr47  1  0.41744614  0.40802845  -0.00663550  1
  Zr  Zr48  1  0.20732298  -0.00533551  0.24195469  1
  Zr  Zr49  1  0.90108429  0.72144553  0.36980647  1
  Zr  Zr50  1  0.59111954  0.37255199  0.50793546  1
  Zr  Zr51  1  0.27486627  0.10719063  0.86813397  1
  Zr  Zr52  1  0.78895286  0.20239343  0.26101332  1
  Zr  Zr53  1  0.58867024  0.59853386  -0.00559601  1
  Zr  Zr54  1  0.42371714  0.80040115  -0.01305429  1
  Zr  Zr55  1  -0.00654605  0.39438718  0.74373423  1
  Zr  Zr56  1  0.90131966  0.51390083  0.37786875  1
  Zr  Zr57  1  0.50536768  0.48614961  0.63561431  1
  Zr  Zr58  1  0.09490789  0.69706132  0.36351260  1
  Zr  Zr59  1  0.09933962  0.50390159  0.60958750  1
  Zr  Zr60  1  0.81375170  0.79832872  0.01922035  1
  Zr  Zr61  1  0.00345373  0.40341249  0.25491383  1
  Zr  Zr62  1  -0.00618661  0.61954561  0.51093729  1
  Zr  Zr63  1  0.09784471  0.08132790  0.37156167  1
  Zr  Zr64  1  0.67395631  0.10487303  0.63120449  1
  Zr  Zr65  1  0.20913588  0.19933699  0.26443814  1
  Zr  Zr66  1  0.40471781  0.21383809  0.52270475  1
  Zr  Zr67  1  0.06529825  0.10046148  0.86233145  1
  Zr  Zr68  1  0.61271923  0.79440649  0.25464484  1
  Zr  Zr69  1  0.79869633  0.39320407  0.00226827  1
  Zr  Zr70  1  0.89704084  0.49875732  0.12950636  1
  Zr  Zr71  1  0.19904282  0.58356541  0.00065805  1
  Zr  Zr72  1  0.20495028  0.18198845  0.50244144  1
  Zr  Zr73  1  0.39917789  0.01147776  0.50461700  1
  Zr  Zr74  1  0.51011097  0.70586290  0.38166708  1
  Zr  Zr75  1  0.58498580  0.18419752  0.24595550  1
  Zr  Zr76  1  0.80987087  0.80939868  0.50975310  1
  Zr  Zr77  1  0.89990116  0.92899165  0.36238572  1
  Zr  Zr78  1  0.69331082  0.30717599  0.13024466  1
  Zr  Zr79  1  0.81938337  0.18425103  0.75093164  1
  Ta  Ta80  1  0.18988015  -0.01421680  0.50754706  1
  Ta  Ta81  1  -0.00019381  0.60738912  0.74163629  1
  Ta  Ta82  1  0.09501796  0.89086412  0.36622580  1
  Ta  Ta83  1  0.30381943  0.49368004  0.12815567  1
  Ta  Ta84  1  0.51042817  0.91457599  0.12937336  1
  Ta  Ta85  1  0.79322113  0.61501817  0.51692221  1
  Ta  Ta86  1  0.29513023  0.89294396  0.63182473  1
  Ta  Ta87  1  0.09692546  0.09902264  0.13245548  1
  Ta  Ta88  1  0.50462875  0.48062589  0.37521844  1
  Ta  Ta89  1  0.09809249  0.30353956  0.38662855  1
  Ta  Ta90  1  0.70223100  0.30956144  0.64901295  1
  Ta  Ta91  1  0.10898662  0.29351755  0.87360104  1
  Ta  Ta92  1  0.91237391  0.28996120  0.87246252  1
  Ta  Ta93  1  0.49801831  0.50655200  0.85399588  1
  Ta  Ta94  1  0.30486691  0.49694305  0.86473743  1
  Ta  Ta95  1  0.88042434  0.09340120  0.60527096  1
  Ta  Ta96  1  0.48186742  0.09534881  0.86475152  1
  Ta  Ta97  1  0.50115689  0.49290672  0.13040123  1
  Ta  Ta98  1  0.10151149  0.90281628  0.89407207  1
  Ta  Ta99  1  0.68940687  0.50808038  0.12011741  1
  Ta  Ta100  1  0.89529622  0.30649627  0.38340246  1
  Ta  Ta101  1  0.30445031  0.91049916  0.88889866  1
  Ta  Ta102  1  0.78839116  -0.00087500  0.00833068  1
  Ta  Ta103  1  0.41259317  0.02188547  0.24928768  1
  Ta  Ta104  1  0.01881250  0.81450704  0.75588629  1
  Ta  Ta105  1  0.10443193  0.89726293  0.10579789  1
  Ta  Ta106  1  0.60411676  0.60728995  0.74547448  1
  Ta  Ta107  1  0.59580175  -0.00014447  0.76497381  1
  Ta  Ta108  1  0.71065022  0.29891629  0.85676665  1
  Ta  Ta109  1  0.09476959  0.49753579  0.87148136  1
  Ta  Ta110  1  0.29638710  0.11197681  0.11660262  1
  Ta  Ta111  1  0.21264742  0.80884938  0.77226229  1
  Ta  Ta112  1  0.40239896  0.79071462  0.77040877  1
  Ta  Ta113  1  -0.00860076  0.19320586  0.48501111  1
  Ta  Ta114  1  0.30924700  0.30042699  0.13188966  1
  Ta  Ta115  1  0.30709804  0.69522366  0.11986310  1
  Ta  Ta116  1  0.10150510  0.69738301  0.11407547  1
  Ta  Ta117  1  0.48691992  0.28813416  0.37193887  1
  Ta  Ta118  1  0.21292335  0.79465899  -0.00448579  1
  Ta  Ta119  1  0.60634612  0.58978999  0.25989869  1
  Ti  Ti120  1  0.48518466  0.10129951  0.11378943  1
  Ti  Ti121  1  0.39396442  0.39045266  0.74825671  1
  Ti  Ti122  1  0.70057134  0.09615202  0.87265011  1
  Ti  Ti123  1  0.38755832  -0.01294909  0.75483605  1
  Ti  Ti124  1  0.51300966  0.91240555  0.37192535  1
  Ti  Ti125  1  0.61524257  0.79785263  0.49989900  1
  Ti  Ti126  1  0.01303623  0.81592015  0.50312055  1
  Ti  Ti127  1  0.30577131  0.48921265  0.37617954  1
  Ti  Ti128  1  0.70295743  0.89591727  0.37693250  1
  Ti  Ti129  1  -0.00687693  -0.00192877  0.49463260  1
  Ti  Ti130  1  0.59503139  0.40034760  0.25149274  1
  Ti  Ti131  1  0.78726367  0.41168038  0.26361609  1
  Ti  Ti132  1  0.20552373  0.40432713  0.25554538  1
  Ti  Ti133  1  0.69565506  0.08124682  0.37378225  1
  Ti  Ti134  1  0.69181240  0.90177206  0.12448257  1
  Ti  Ti135  1  0.79111964  -0.00786990  0.75401192  1
  Ti  Ti136  1  0.68311510  0.09196543  0.12424442  1
  Ti  Ti137  1  0.60203013  0.00041677  0.50108095  1
  Ti  Ti138  1  0.30692283  0.29813488  0.37435912  1
  Ti  Ti139  1  0.49972333  0.10060105  0.37865014  1
  Ti  Ti140  1  0.40077448  0.39242199  0.25041299  1
  Ti  Ti141  1  0.19723238  0.59020770  0.23504270  1
  Ti  Ti142  1  0.17897175  -0.01380999  0.75068046  1
  Ti  Ti143  1  0.70103910  0.90563522  0.62307710  1
  Ti  Ti144  1  0.61313838  0.80467841  -0.00976365  1
  Ti  Ti145  1  0.80211396  0.01302698  0.23358068  1
  Ti  Ti146  1  0.39478976  0.60303819  -0.00767706  1
  Ti  Ti147  1  0.19498628  0.01690401  0.00108644  1
  Ti  Ti148  1  0.00431413  0.60559281  0.23527568  1
  Ti  Ti149  1  0.39411152  0.19298722  0.74490517  1
  Ti  Ti150  1  0.09153755  0.29765789  0.60521791  1
  Ti  Ti151  1  0.67859716  0.30394158  0.36979465  1
  Ti  Ti152  1  0.89740487  0.29637302  0.13826885  1
  Ti  Ti153  1  -0.01062987  0.60443809  0.01364645  1
  Ti  Ti154  1  0.51447688  0.27738088  0.64959652  1
  Ti  Ti155  1  0.00285677  0.80846547  0.22762989  1
  Ti  Ti156  1  0.89695109  0.49296265  0.61626659  1
  Ti  Ti157  1  0.49617632  0.29980939  0.12414585  1
  Ti  Ti158  1  0.40823737  0.81069462  0.49479417  1
  Ti  Ti159  1  0.29558719  0.08463138  0.63584926  1
  Mo  Mo160  1  0.30888543  0.29832048  0.63521824  1
  Mo  Mo161  1  0.29978424  0.30135457  0.85833964  1
  Mo  Mo162  1  0.40364931  0.39895443  0.49457330  1
  Mo  Mo163  1  0.40278429  0.60195268  0.75454254  1
  Mo  Mo164  1  0.30579078  0.69610124  0.88345405  1
  Mo  Mo165  1  -0.01915668  0.00461542  0.75189832  1
  Mo  Mo166  1  0.70828531  0.70186817  0.38232292  1
  Mo  Mo167  1  0.18910921  0.20176071  0.00413363  1
  Mo  Mo168  1  0.00885600  0.79997182  0.00744440  1
  Mo  Mo169  1  -0.00013869  -0.00514052  0.22980196  1
  Mo  Mo170  1  0.11011718  0.90473332  0.63018248  1
  Mo  Mo171  1  0.88787267  0.10736966  0.13006161  1
  Mo  Mo172  1  0.69915670  0.69518306  0.11437538  1
  Mo  Mo173  1  0.58602784  0.18277932  0.49581373  1
  Mo  Mo174  1  -0.00360284  0.39527490  0.49439149  1
  Mo  Mo175  1  0.70322629  0.49810670  0.63012701  1
  Mo  Mo176  1  0.20930654  0.59792608  0.49617737  1
  Mo  Mo177  1  0.69570674  0.49828668  0.37064098  1
  Mo  Mo178  1  0.90856726  0.69982224  0.12829770  1
  Mo  Mo179  1  0.69560465  0.70817648  0.62542232  1
  Mo  Mo180  1  0.60530350  0.40220749  0.74616591  1
  Mo  Mo181  1  0.39481094  0.00999450  -0.00330309  1
  Mo  Mo182  1  0.11070758  0.49914736  0.12990436  1
  Mo  Mo183  1  0.31650776  0.10957740  0.37724472  1
  Mo  Mo184  1  0.91036634  0.70295758  0.63089946  1
  Mo  Mo185  1  0.50694229  0.69247489  0.86876102  1
  Mo  Mo186  1  0.79684175  0.60132035  0.01276853  1
  Mo  Mo187  1  0.59690231  0.39939003  -0.00098092  1
  Mo  Mo188  1  0.60185908  0.19216405  0.76637615  1
  Mo  Mo189  1  0.88661479  0.10282229  0.38768428  1
  Mo  Mo190  1  -0.00179844  0.20457321  0.73908723  1
  Mo  Mo191  1  0.78716227  -0.00222278  0.50073937  1
  Mo  Mo192  1  0.60524341  -0.00642702  0.25159526  1
  Mo  Mo193  1  0.48804202  0.09178130  0.64936344  1
  Mo  Mo194  1  0.90163256  0.90984831  0.13030554  1
  Mo  Mo195  1  0.39900423  0.20210884  0.24475930  1
  Mo  Mo196  1  0.70859178  0.90302491  0.87825788  1
  Mo  Mo197  1  0.49807057  0.90387438  0.86694784  1
  Mo  Mo198  1  0.88412113  0.10102798  0.88023260  1
  Mo  Mo199  1  0.80815770  0.39647136  0.74913586  1
