# generated using pymatgen
data_HfZrTaTiMo
_symmetry_space_group_name_H-M   'P 1'
_cell_length_a   15.21692032
_cell_length_b   15.22404328
_cell_length_c   16.80250044
_cell_angle_alpha   89.99200051
_cell_angle_beta   89.98353172
_cell_angle_gamma   90.06136043
_symmetry_Int_Tables_number   1
_chemical_formula_structural   HfZrTaTiMo
_chemical_formula_sum   'Hf40 Zr40 Ta40 Ti40 Mo40'
_cell_volume   3892.51612806
_cell_formula_units_Z   40
loop_
 _symmetry_equiv_pos_site_id
 _symmetry_equiv_pos_as_xyz
  1  'x, y, z'
loop_
 _atom_site_type_symbol
 _atom_site_label
 _atom_site_symmetry_multiplicity
 _atom_site_fract_x
 _atom_site_fract_y
 _atom_site_fract_z
 _atom_site_occupancy
  Hf  Hf0  1  0.28837723  0.28064056  0.13489797  1
  Hf  Hf1  1  0.49385359  0.28982982  0.12461422  1
  Hf  Hf2  1  0.31157599  0.10711103  0.60676613  1
  Hf  Hf3  1  0.59862686  0.39425202  0.25663187  1
  Hf  Hf4  1  0.30365415  0.49270686  0.63115727  1
  Hf  Hf5  1  0.00135008  0.39127528  0.73621083  1
  Hf  Hf6  1  0.80670444  0.20695756  0.26600157  1
  Hf  Hf7  1  0.90703331  0.29994990  0.12272905  1
  Hf  Hf8  1  0.00294608  -0.00192717  0.74182502  1
  Hf  Hf9  1  0.80569841  0.80884365  0.25560945  1
  Hf  Hf10  1  0.78202173  0.40767831  0.73293749  1
  Hf  Hf11  1  0.69863083  0.50434087  0.38820234  1
  Hf  Hf12  1  0.91678881  0.10952676  0.88137279  1
  Hf  Hf13  1  0.59843450  0.80554541  0.49105081  1
  Hf  Hf14  1  0.83159807  0.81120931  0.51252522  1
  Hf  Hf15  1  0.60815119  0.20320651  0.73893135  1
  Hf  Hf16  1  0.29656330  0.69312360  0.34841364  1
  Hf  Hf17  1  0.70179999  0.92059894  0.62062533  1
  Hf  Hf18  1  -0.00185194  -0.01871783  0.50510655  1
  Hf  Hf19  1  0.19354347  0.39106603  0.48917597  1
  Hf  Hf20  1  0.70599535  0.30233224  0.12344550  1
  Hf  Hf21  1  0.00330282  0.01004789  0.25307580  1
  Hf  Hf22  1  0.10021160  0.50350064  0.37639618  1
  Hf  Hf23  1  0.60274355  0.19774158  0.26622974  1
  Hf  Hf24  1  0.60149609  0.60822421  0.00454218  1
  Hf  Hf25  1  0.39981560  0.18560010  0.26771172  1
  Hf  Hf26  1  0.88926804  0.70230322  0.87623005  1
  Hf  Hf27  1  0.80416091  0.60806225  0.73532643  1
  Hf  Hf28  1  0.39881648  0.00723155  0.75049016  1
  Hf  Hf29  1  0.59716901  0.81486178  0.26552406  1
  Hf  Hf30  1  0.71361835  0.69884502  0.38775085  1
  Hf  Hf31  1  0.10288045  0.49058717  0.88095309  1
  Hf  Hf32  1  0.69620585  0.70821591  0.61555566  1
  Hf  Hf33  1  0.39678140  0.79503509  0.75520717  1
  Hf  Hf34  1  0.81195977  -0.00473484  -0.01022838  1
  Hf  Hf35  1  0.70814761  0.89799737  0.86690471  1
  Hf  Hf36  1  0.18912572  0.79162312  0.49349078  1
  Hf  Hf37  1  0.49548545  0.69050227  0.36313854  1
  Hf  Hf38  1  0.38942066  0.18352675  -0.00015818  1
  Hf  Hf39  1  0.10369619  0.69642131  0.35993004  1
  Zr  Zr40  1  0.50450651  0.48713953  0.87865321  1
  Zr  Zr41  1  0.00946132  0.61433179  0.51580145  1
  Zr  Zr42  1  0.49704977  0.90332082  0.62221975  1
  Zr  Zr43  1  0.39593059  0.79980631  0.49269919  1
  Zr  Zr44  1  0.50496629  0.69356012  0.87423446  1
  Zr  Zr45  1  0.91484280  0.70845132  0.37269051  1
  Zr  Zr46  1  0.90153318  0.90296336  0.12629350  1
  Zr  Zr47  1  0.30114660  0.48826291  0.89796536  1
  Zr  Zr48  1  0.70146560  0.70363175  0.12931277  1
  Zr  Zr49  1  0.60408893  0.00455143  0.27076760  1
  Zr  Zr50  1  0.00697075  0.18995460  0.73422599  1
  Zr  Zr51  1  0.90469989  0.10935615  0.12020420  1
  Zr  Zr52  1  0.20003250  0.80142742  0.76736564  1
  Zr  Zr53  1  0.00504748  0.59816209  0.74784824  1
  Zr  Zr54  1  0.38938396  0.39761080  0.49207997  1
  Zr  Zr55  1  0.28989236  0.69225188  0.62761099  1
  Zr  Zr56  1  0.60511092  0.59934129  0.24758294  1
  Zr  Zr57  1  0.19929601  0.80448400  0.00048465  1
  Zr  Zr58  1  0.80295128  0.02976463  0.74298865  1
  Zr  Zr59  1  0.31932765  0.89613859  0.14006961  1
  Zr  Zr60  1  0.89981832  0.09366692  0.39035606  1
  Zr  Zr61  1  -0.01502069  0.39465478  0.51283561  1
  Zr  Zr62  1  0.11708514  0.49670055  0.62779508  1
  Zr  Zr63  1  0.39367039  0.59273261  0.49562707  1
  Zr  Zr64  1  0.50584845  0.90450160  0.86897460  1
  Zr  Zr65  1  0.39949467  0.79536923  -0.00534639  1
  Zr  Zr66  1  0.69088844  0.11670587  0.88430763  1
  Zr  Zr67  1  -0.00271898  0.40424549  0.24917687  1
  Zr  Zr68  1  0.58076721  0.39797394  0.48974793  1
  Zr  Zr69  1  0.60014701  0.40199867  0.00832005  1
  Zr  Zr70  1  0.49933912  0.28434043  0.88574056  1
  Zr  Zr71  1  0.68902044  0.90895979  0.12053361  1
  Zr  Zr72  1  0.00254189  0.80137915  0.76294663  1
  Zr  Zr73  1  0.38591722  0.38545536  0.75533351  1
  Zr  Zr74  1  -0.00335478  0.81003330  -0.00494382  1
  Zr  Zr75  1  0.28885570  0.90748587  0.61882309  1
  Zr  Zr76  1  0.69619232  0.10926166  0.11448976  1
  Zr  Zr77  1  0.61015364  0.58270283  0.74856623  1
  Zr  Zr78  1  0.18172241  0.59141227  0.21815062  1
  Zr  Zr79  1  0.89494071  0.50309230  0.38277815  1
  Ta  Ta80  1  0.60888449  0.79578119  0.74544163  1
  Ta  Ta81  1  0.09461738  0.29379828  0.87640637  1
  Ta  Ta82  1  0.80848492  0.59495864  0.52464951  1
  Ta  Ta83  1  0.80814844  0.59752997  0.24741445  1
  Ta  Ta84  1  0.89454304  0.49510092  0.87142007  1
  Ta  Ta85  1  0.49696103  0.69206570  0.63100213  1
  Ta  Ta86  1  0.70302844  0.11007220  0.40157655  1
  Ta  Ta87  1  0.11741187  0.09851418  0.60773452  1
  Ta  Ta88  1  0.69864460  0.31886322  0.86983418  1
  Ta  Ta89  1  0.02263594  0.01436511  0.00459054  1
  Ta  Ta90  1  0.12033636  0.10767128  0.87884130  1
  Ta  Ta91  1  0.18666846  0.37890700  0.01647007  1
  Ta  Ta92  1  0.80815555  0.81237228  0.73874131  1
  Ta  Ta93  1  0.08915467  0.89188322  0.36383652  1
  Ta  Ta94  1  0.19957903  0.01490339  0.74851767  1
  Ta  Ta95  1  0.39979502  0.19147568  0.75395712  1
  Ta  Ta96  1  0.49355130  0.08221997  0.12947769  1
  Ta  Ta97  1  0.89461940  0.30219502  0.86458496  1
  Ta  Ta98  1  0.29386564  0.50045997  0.35038254  1
  Ta  Ta99  1  0.48641764  0.29039249  0.62473695  1
  Ta  Ta100  1  0.80029736  0.40715920  -0.00704281  1
  Ta  Ta101  1  0.39981745  0.59461318  0.75325763  1
  Ta  Ta102  1  0.11029117  0.11750571  0.12964548  1
  Ta  Ta103  1  0.29760364  0.08705409  0.13895456  1
  Ta  Ta104  1  0.88855526  0.50032898  0.11864236  1
  Ta  Ta105  1  0.20871445  0.20736864  0.74594607  1
  Ta  Ta106  1  0.78943638  0.79352895  -0.00628532  1
  Ta  Ta107  1  -0.00432417  0.59650123  0.00600088  1
  Ta  Ta108  1  -0.00637218  0.39526562  -0.00197614  1
  Ta  Ta109  1  0.88282310  0.28088555  0.62601672  1
  Ta  Ta110  1  0.49009600  0.49864992  0.13195284  1
  Ta  Ta111  1  0.20363413  0.00418398  0.26618954  1
  Ta  Ta112  1  0.01051388  0.20163237  0.50102270  1
  Ta  Ta113  1  0.79809339  0.40438671  0.25504374  1
  Ta  Ta114  1  0.18991704  0.19273986  0.27469931  1
  Ta  Ta115  1  0.40097139  -0.00468287  -0.00278606  1
  Ta  Ta116  1  0.40787526  0.20324103  0.47760297  1
  Ta  Ta117  1  0.11469929  0.91516671  0.13195336  1
  Ta  Ta118  1  0.79389701  0.59645311  -0.00805107  1
  Ta  Ta119  1  0.49108521  0.71398333  0.13585257  1
  Ti  Ti120  1  0.30121918  0.30909938  0.35932540  1
  Ti  Ti121  1  0.89515026  0.69902057  0.11578745  1
  Ti  Ti122  1  0.18613487  0.38823267  0.24250473  1
  Ti  Ti123  1  0.09718763  0.91772867  0.87954894  1
  Ti  Ti124  1  0.70927410  0.30534413  0.39381744  1
  Ti  Ti125  1  0.39632723  0.59461376  0.01912252  1
  Ti  Ti126  1  0.30013007  0.48211239  0.12478445  1
  Ti  Ti127  1  0.41292503  -0.01018751  0.27056565  1
  Ti  Ti128  1  0.29800366  0.68318524  0.88581846  1
  Ti  Ti129  1  0.47893809  0.49411854  0.35117060  1
  Ti  Ti130  1  0.20778637  0.59194836  0.76299255  1
  Ti  Ti131  1  0.70227453  0.50110730  0.12826576  1
  Ti  Ti132  1  0.10421480  0.70482157  0.63249547  1
  Ti  Ti133  1  0.21445738  0.01064355  0.00351267  1
  Ti  Ti134  1  0.20452997  0.19761132  0.47522971  1
  Ti  Ti135  1  0.00960605  0.79574704  0.23005379  1
  Ti  Ti136  1  0.58825646  0.00767358  -0.00507518  1
  Ti  Ti137  1  0.00684663  0.20891244  0.27116872  1
  Ti  Ti138  1  0.10454276  0.68959510  0.88574912  1
  Ti  Ti139  1  0.72584074  0.91362051  0.39251627  1
  Ti  Ti140  1  0.28788954  0.29460808  0.61958471  1
  Ti  Ti141  1  0.20092698  -0.00252039  0.47670756  1
  Ti  Ti142  1  0.29741939  0.88828434  0.36139099  1
  Ti  Ti143  1  0.79760470  0.00748524  0.25646560  1
  Ti  Ti144  1  0.59615748  0.00506512  0.49079851  1
  Ti  Ti145  1  -0.00639425  0.60039282  0.22547172  1
  Ti  Ti146  1  0.29283317  0.91526510  0.87530495  1
  Ti  Ti147  1  0.10124095  0.89531686  0.62690582  1
  Ti  Ti148  1  0.40067650  0.00080271  0.47967747  1
  Ti  Ti149  1  0.19197172  0.59672609  0.01982855  1
  Ti  Ti150  1  0.29766134  0.70199774  0.13656640  1
  Ti  Ti151  1  0.68659508  0.30824931  0.61075471  1
  Ti  Ti152  1  0.71698373  0.12388870  0.60047813  1
  Ti  Ti153  1  0.80292444  0.21447169  -0.00822633  1
  Ti  Ti154  1  0.28402838  0.28862944  0.88642486  1
  Ti  Ti155  1  0.50360674  0.48771561  0.63499478  1
  Ti  Ti156  1  0.59688337  0.00882682  0.74762904  1
  Ti  Ti157  1  0.51000007  0.10493982  0.60907003  1
  Ti  Ti158  1  0.59056641  0.59821296  0.50692022  1
  Ti  Ti159  1  0.59734021  0.80666011  0.00001325  1
  Mo  Mo160  1  0.68798972  0.50047655  0.60791597  1
  Mo  Mo161  1  0.10084688  0.09599760  0.38887975  1
  Mo  Mo162  1  0.09049289  0.70784537  0.11584701  1
  Mo  Mo163  1  0.01046048  0.21013795  -0.00320339  1
  Mo  Mo164  1  0.49791771  0.09748082  0.87415311  1
  Mo  Mo165  1  0.89569471  0.30378871  0.38087604  1
  Mo  Mo166  1  0.40310899  0.80164334  0.25328906  1
  Mo  Mo167  1  0.09488416  0.29309072  0.13378189  1
  Mo  Mo168  1  0.59635874  0.20347051  0.50253374  1
  Mo  Mo169  1  0.19605537  0.38500994  0.75705227  1
  Mo  Mo170  1  0.90368338  0.90904388  0.87811123  1
  Mo  Mo171  1  0.59869003  0.19542090  0.00503023  1
  Mo  Mo172  1  0.19268183  0.18839358  0.00491952  1
  Mo  Mo173  1  0.79968838  0.21047153  0.74893601  1
  Mo  Mo174  1  0.70816919  0.50276608  0.87467836  1
  Mo  Mo175  1  0.30134526  0.09081803  0.38063780  1
  Mo  Mo176  1  0.19243673  0.80684133  0.24149019  1
  Mo  Mo177  1  0.21083914  0.59126316  0.48956995  1
  Mo  Mo178  1  0.90716568  0.90233297  0.63438803  1
  Mo  Mo179  1  0.89852740  0.49471473  0.62636013  1
  Mo  Mo180  1  0.11132694  0.28428099  0.61726705  1
  Mo  Mo181  1  0.39075034  0.39433384  0.24503764  1
  Mo  Mo182  1  0.69994117  0.70504841  0.87113320  1
  Mo  Mo183  1  0.08868831  0.49122821  0.10873677  1
  Mo  Mo184  1  0.50572300  0.90563206  0.12213571  1
  Mo  Mo185  1  0.79242630  0.40445327  0.51910742  1
  Mo  Mo186  1  0.59200114  0.38945244  0.74221829  1
  Mo  Mo187  1  0.49541389  0.89857328  0.38596417  1
  Mo  Mo188  1  0.09549225  0.30088070  0.37533134  1
  Mo  Mo189  1  0.50553131  0.09876501  0.38822571  1
  Mo  Mo190  1  0.90240957  0.09967643  0.60748308  1
  Mo  Mo191  1  0.30107693  0.10005413  0.87280541  1
  Mo  Mo192  1  0.39409610  0.59454004  0.22869237  1
  Mo  Mo193  1  0.80127092  0.00520812  0.51074812  1
  Mo  Mo194  1  0.49830470  0.30368717  0.36696588  1
  Mo  Mo195  1  0.80981778  0.21711265  0.49300268  1
  Mo  Mo196  1  0.90392323  0.89968108  0.36479130  1
  Mo  Mo197  1  0.01497777  0.80161649  0.50401134  1
  Mo  Mo198  1  0.90961801  0.70610752  0.63239578  1
  Mo  Mo199  1  0.38766961  0.39687315  0.01471651  1
