# generated using pymatgen
data_HfZrTaTiMo
_symmetry_space_group_name_H-M   'P 1'
_cell_length_a   15.20719745
_cell_length_b   15.20424535
_cell_length_c   16.84924419
_cell_angle_alpha   89.95629478
_cell_angle_beta   90.00156343
_cell_angle_gamma   90.00189536
_symmetry_Int_Tables_number   1
_chemical_formula_structural   HfZrTaTiMo
_chemical_formula_sum   'Hf40 Zr40 Ta40 Ti40 Mo40'
_cell_volume   3895.77935432
_cell_formula_units_Z   40
loop_
 _symmetry_equiv_pos_site_id
 _symmetry_equiv_pos_as_xyz
  1  'x, y, z'
loop_
 _atom_site_type_symbol
 _atom_site_label
 _atom_site_symmetry_multiplicity
 _atom_site_fract_x
 _atom_site_fract_y
 _atom_site_fract_z
 _atom_site_occupancy
  Hf  Hf0  1  0.01182647  0.39724265  0.24865074  1
  Hf  Hf1  1  0.41169087  0.80605302  0.26784614  1
  Hf  Hf2  1  0.20252010  0.01751810  0.25051968  1
  Hf  Hf3  1  0.88997252  0.29960069  0.64260660  1
  Hf  Hf4  1  0.39998977  0.19987742  0.25720692  1
  Hf  Hf5  1  0.60178571  -0.00291865  0.25695578  1
  Hf  Hf6  1  0.60539743  0.01793537  -0.01204851  1
  Hf  Hf7  1  0.18459315  0.81889807  0.74322446  1
  Hf  Hf8  1  0.31599463  0.50842116  0.86878138  1
  Hf  Hf9  1  0.00946153  0.19936191  0.76516615  1
  Hf  Hf10  1  0.18340592  0.80019813  0.48660888  1
  Hf  Hf11  1  0.00012235  0.21032247  0.50219499  1
  Hf  Hf12  1  0.90833840  0.09345589  0.63230260  1
  Hf  Hf13  1  0.10869668  0.07394715  0.87556266  1
  Hf  Hf14  1  0.10102685  0.51301297  0.87624528  1
  Hf  Hf15  1  -0.00116184  0.39129554  -0.01584978  1
  Hf  Hf16  1  0.60027615  0.80709050  -0.01782894  1
  Hf  Hf17  1  0.59569651  0.40299748  0.24829602  1
  Hf  Hf18  1  0.90697667  0.71503253  0.62070446  1
  Hf  Hf19  1  0.12411483  0.29497546  0.11315679  1
  Hf  Hf20  1  0.39837183  0.20081630  0.50421157  1
  Hf  Hf21  1  0.70002116  0.71455614  0.62225043  1
  Hf  Hf22  1  0.80585207  -0.00564627  0.00029577  1
  Hf  Hf23  1  0.49690339  0.69507311  0.86382668  1
  Hf  Hf24  1  0.60277424  0.21325545  0.73691646  1
  Hf  Hf25  1  0.70866397  0.29426553  0.36347170  1
  Hf  Hf26  1  0.51003195  0.11307387  0.12738207  1
  Hf  Hf27  1  0.10411149  0.69660088  0.13948764  1
  Hf  Hf28  1  0.40069953  0.60336354  0.00210266  1
  Hf  Hf29  1  0.30485626  0.49035293  0.37193541  1
  Hf  Hf30  1  -0.00944803  0.59955990  0.00608000  1
  Hf  Hf31  1  0.21944766  0.19551308  -0.01213086  1
  Hf  Hf32  1  0.00106025  0.18560937  -0.00575416  1
  Hf  Hf33  1  0.69622857  0.50787417  0.37766050  1
  Hf  Hf34  1  0.11162297  0.08342952  0.61621046  1
  Hf  Hf35  1  0.50609540  0.49531932  0.11803882  1
  Hf  Hf36  1  0.49587043  0.70516057  0.62533145  1
  Hf  Hf37  1  0.68620733  0.29589411  0.12509835  1
  Hf  Hf38  1  0.29762238  0.71678581  0.86779404  1
  Hf  Hf39  1  0.91462504  0.88600489  0.87139270  1
  Zr  Zr40  1  0.50142803  0.30180812  0.37264571  1
  Zr  Zr41  1  0.69370317  0.50794982  0.87216979  1
  Zr  Zr42  1  0.40645225  0.58966502  0.24948837  1
  Zr  Zr43  1  -0.00573750  0.00466642  0.24999462  1
  Zr  Zr44  1  0.89929564  0.29901860  0.12427408  1
  Zr  Zr45  1  0.10961800  0.09801566  0.39200084  1
  Zr  Zr46  1  0.61085887  0.19592035  0.51532194  1
  Zr  Zr47  1  0.49217304  0.08418150  0.61656857  1
  Zr  Zr48  1  0.10034821  0.31146573  0.63381628  1
  Zr  Zr49  1  0.19699690  0.38812987  0.77245187  1
  Zr  Zr50  1  0.19493269  0.58628835  0.49160149  1
  Zr  Zr51  1  0.60185902  0.39448491  0.51447894  1
  Zr  Zr52  1  0.89308828  0.49671725  0.36932240  1
  Zr  Zr53  1  -0.00677469  0.79847160  0.01404215  1
  Zr  Zr54  1  0.30144600  0.89894655  0.13873944  1
  Zr  Zr55  1  0.79290377  0.19600714  -0.00436961  1
  Zr  Zr56  1  0.89418893  0.09679845  0.38335790  1
  Zr  Zr57  1  0.47556774  0.90933842  0.87311357  1
  Zr  Zr58  1  0.39404960  0.40011249  0.50905083  1
  Zr  Zr59  1  -0.00211863  0.61199445  0.48303998  1
  Zr  Zr60  1  0.38651039  0.80781352  0.50084017  1
  Zr  Zr61  1  0.50721691  0.71547566  0.12181068  1
  Zr  Zr62  1  0.38851466  0.01245937  0.00438234  1
  Zr  Zr63  1  0.58717333  -0.00145418  0.75454730  1
  Zr  Zr64  1  0.60011595  0.40416493  0.74894707  1
  Zr  Zr65  1  0.80221944  0.82021996  0.49359755  1
  Zr  Zr66  1  0.09841079  0.68722526  0.62489512  1
  Zr  Zr67  1  0.40710868  0.38794233  -0.00989233  1
  Zr  Zr68  1  0.61453283  0.61738605  0.24399266  1
  Zr  Zr69  1  0.71419896  0.50169824  0.63126880  1
  Zr  Zr70  1  0.29575678  0.69786259  0.13899207  1
  Zr  Zr71  1  0.02087441  0.19481071  0.24320551  1
  Zr  Zr72  1  -0.00539269  0.58898082  0.24548061  1
  Zr  Zr73  1  0.10067118  0.89306223  0.14258713  1
  Zr  Zr74  1  0.28058365  0.49966277  0.63455063  1
  Zr  Zr75  1  0.87229290  0.69276550  0.14225049  1
  Zr  Zr76  1  0.50098115  0.90953859  0.12175442  1
  Zr  Zr77  1  0.92342078  0.50558495  0.63709168  1
  Zr  Zr78  1  0.80910810  0.39512626  0.50302920  1
  Zr  Zr79  1  0.01662766  0.41053547  0.49147328  1
  Ta  Ta80  1  0.28864013  0.48595604  0.11932654  1
  Ta  Ta81  1  0.20281690  0.38577037  0.25245480  1
  Ta  Ta82  1  0.19674010  0.61045566  0.75670719  1
  Ta  Ta83  1  0.71544046  0.09118168  0.64136016  1
  Ta  Ta84  1  0.30164100  0.28965183  0.63685914  1
  Ta  Ta85  1  0.20686278  0.39868315  -0.01784224  1
  Ta  Ta86  1  -0.00564259  0.39809369  0.77758442  1
  Ta  Ta87  1  0.60657998  0.60358974  -0.00155608  1
  Ta  Ta88  1  0.88566546  0.89734777  0.13581836  1
  Ta  Ta89  1  0.88210991  0.70300512  0.36153299  1
  Ta  Ta90  1  0.80368416  0.60827393  0.75185692  1
  Ta  Ta91  1  0.79823754  0.40171074  -0.00799554  1
  Ta  Ta92  1  0.79479446  -0.00535759  0.25141207  1
  Ta  Ta93  1  0.79422884  0.79340330  -0.00389397  1
  Ta  Ta94  1  0.39127627  0.82466692  0.73145835  1
  Ta  Ta95  1  0.08937171  0.71880499  0.87590691  1
  Ta  Ta96  1  0.40953217  0.39465810  0.74787469  1
  Ta  Ta97  1  0.19738582  0.80180700  0.00021398  1
  Ta  Ta98  1  0.49408670  0.50668537  0.62620561  1
  Ta  Ta99  1  0.51726746  0.89946698  0.39500637  1
  Ta  Ta100  1  0.39677697  0.60241892  0.50292634  1
  Ta  Ta101  1  0.70290241  0.10845715  0.85943352  1
  Ta  Ta102  1  0.19887827  0.60585900  -0.00261522  1
  Ta  Ta103  1  0.80237510  0.80564872  0.74928267  1
  Ta  Ta104  1  0.59979551  0.80544490  0.75029325  1
  Ta  Ta105  1  0.90434693  0.29282244  0.36434473  1
  Ta  Ta106  1  0.40562436  0.00585719  0.26826408  1
  Ta  Ta107  1  0.32089002  0.28093156  0.86256423  1
  Ta  Ta108  1  0.68815197  0.71397187  0.38723703  1
  Ta  Ta109  1  0.08427116  0.89056388  0.61108517  1
  Ta  Ta110  1  0.59685055  0.60188958  0.50609103  1
  Ta  Ta111  1  0.89712578  0.08622185  0.86217167  1
  Ta  Ta112  1  0.70578270  0.70756987  0.86531794  1
  Ta  Ta113  1  0.50204744  0.69804695  0.38746328  1
  Ta  Ta114  1  0.79965794  0.20037403  0.50694376  1
  Ta  Ta115  1  0.69603959  0.88704922  0.12515856  1
  Ta  Ta116  1  0.31227681  0.08815937  0.86498648  1
  Ta  Ta117  1  0.80305166  0.18766899  0.24158342  1
  Ta  Ta118  1  0.21063343  0.18120997  0.74989666  1
  Ta  Ta119  1  0.01476819  -0.02096826  0.74775817  1
  Ti  Ti120  1  0.00029349  -0.00404091  0.01600802  1
  Ti  Ti121  1  0.10275334  0.49426933  0.11338222  1
  Ti  Ti122  1  0.89032223  0.90648046  0.63126840  1
  Ti  Ti123  1  0.40701186  0.19213689  0.73710800  1
  Ti  Ti124  1  0.29955023  0.69461589  0.36838474  1
  Ti  Ti125  1  0.39822911  0.60446927  0.74081877  1
  Ti  Ti126  1  0.89357318  0.50843279  0.87289809  1
  Ti  Ti127  1  0.29398513  0.70832009  0.62599727  1
  Ti  Ti128  1  0.50866893  0.89912107  0.60773583  1
  Ti  Ti129  1  0.59923946  0.60457650  0.74455736  1
  Ti  Ti130  1  0.50763347  0.09606961  0.38810695  1
  Ti  Ti131  1  0.38951268  0.80444857  0.00017268  1
  Ti  Ti132  1  0.70498307  0.09395223  0.12870421  1
  Ti  Ti133  1  0.20387884  0.20078714  0.50871397  1
  Ti  Ti134  1  0.79722687  0.60205399  -0.00379189  1
  Ti  Ti135  1  -0.00352594  0.61552145  0.76390303  1
  Ti  Ti136  1  0.19928684  0.38769352  0.49354865  1
  Ti  Ti137  1  0.79724961  0.38667264  0.77059772  1
  Ti  Ti138  1  0.39289859  0.39380556  0.24154303  1
  Ti  Ti139  1  0.30469504  0.09738162  0.38536611  1
  Ti  Ti140  1  0.79071383  0.00710426  0.50187718  1
  Ti  Ti141  1  0.29983307  0.12014353  0.13005181  1
  Ti  Ti142  1  0.09749594  0.70035782  0.35860603  1
  Ti  Ti143  1  0.50111712  0.50432356  0.38244322  1
  Ti  Ti144  1  0.49328685  0.29672192  0.12168700  1
  Ti  Ti145  1  0.27854203  0.90919099  0.87388764  1
  Ti  Ti146  1  0.70911337  0.90839907  0.86519987  1
  Ti  Ti147  1  0.77179088  0.79962399  0.25809681  1
  Ti  Ti148  1  0.71437633  0.50780507  0.11920458  1
  Ti  Ti149  1  0.49645460  0.12590190  0.87401293  1
  Ti  Ti150  1  -0.01115654  0.80415930  0.26266439  1
  Ti  Ti151  1  0.69645111  0.09959703  0.37533983  1
  Ti  Ti152  1  0.80449540  0.40844824  0.23909717  1
  Ti  Ti153  1  0.19373920  -0.00251312  0.01522672  1
  Ti  Ti154  1  0.28776881  0.28806732  0.37410432  1
  Ti  Ti155  1  0.79923538  0.60569165  0.50044975  1
  Ti  Ti156  1  -0.00504526  -0.02862825  0.48684721  1
  Ti  Ti157  1  0.19627026  0.58174250  0.25437667  1
  Ti  Ti158  1  0.60240148  0.39793713  -0.01370202  1
  Ti  Ti159  1  0.29273922  0.90702645  0.37390102  1
  Mo  Mo160  1  0.70123445  0.90993281  0.37870463  1
  Mo  Mo161  1  0.59318500  0.21063936  -0.00761914  1
  Mo  Mo162  1  -0.00562144  0.79908114  0.74680288  1
  Mo  Mo163  1  0.20706495  -0.00924285  0.49470622  1
  Mo  Mo164  1  0.49206367  0.30422556  0.62648612  1
  Mo  Mo165  1  0.80249103  0.19970766  0.76017898  1
  Mo  Mo166  1  0.10409409  0.89876267  0.88652571  1
  Mo  Mo167  1  0.80579198  -0.00314409  0.75452831  1
  Mo  Mo168  1  0.60827132  0.19250351  0.25285914  1
  Mo  Mo169  1  0.20511534  -0.00628882  0.74274747  1
  Mo  Mo170  1  0.11206398  0.49443778  0.36705949  1
  Mo  Mo171  1  0.70973403  0.29394731  0.62975390  1
  Mo  Mo172  1  0.10761810  0.09728302  0.11447550  1
  Mo  Mo173  1  0.40947606  0.19617648  -0.00194929  1
  Mo  Mo174  1  0.69899256  0.90796920  0.63462069  1
  Mo  Mo175  1  0.89343285  0.29279901  0.87378395  1
  Mo  Mo176  1  0.28969941  0.91876099  0.61370681  1
  Mo  Mo177  1  0.60006759  0.80800104  0.25862215  1
  Mo  Mo178  1  0.29784784  0.09689474  0.61819078  1
  Mo  Mo179  1  0.10895873  0.29105746  0.88105193  1
  Mo  Mo180  1  0.49971227  0.50912448  0.86944365  1
  Mo  Mo181  1  0.78960201  0.59697126  0.25358372  1
  Mo  Mo182  1  0.89136645  0.89632593  0.36106529  1
  Mo  Mo183  1  0.21000343  0.20383628  0.25184105  1
  Mo  Mo184  1  0.89230314  0.69371270  0.87590548  1
  Mo  Mo185  1  0.50340602  0.30281468  0.87024626  1
  Mo  Mo186  1  0.89097515  0.49033704  0.11641506  1
  Mo  Mo187  1  0.09435490  0.49974565  0.65551292  1
  Mo  Mo188  1  0.38499515  0.00375421  0.74370025  1
  Mo  Mo189  1  0.19954707  0.79798657  0.27357608  1
  Mo  Mo190  1  0.09911415  0.89607932  0.36432362  1
  Mo  Mo191  1  0.30918354  0.30324260  0.12290598  1
  Mo  Mo192  1  -0.00569003  0.80043113  0.47713161  1
  Mo  Mo193  1  0.61635849  -0.00382264  0.50247491  1
  Mo  Mo194  1  0.60004862  0.79891591  0.50737089  1
  Mo  Mo195  1  0.10759498  0.29806073  0.37792035  1
  Mo  Mo196  1  0.40129945  0.00076525  0.48166052  1
  Mo  Mo197  1  0.89479680  0.08962416  0.12552065  1
  Mo  Mo198  1  0.69658697  0.70461260  0.11457660  1
  Mo  Mo199  1  0.69525691  0.29703628  0.88289856  1
