# generated using pymatgen
data_HfZrTaTiMo
_symmetry_space_group_name_H-M   'P 1'
_cell_length_a   15.20343512
_cell_length_b   15.22534515
_cell_length_c   16.87573405
_cell_angle_alpha   90.04534582
_cell_angle_beta   89.93374370
_cell_angle_gamma   90.08865159
_symmetry_Int_Tables_number   1
_chemical_formula_structural   HfZrTaTiMo
_chemical_formula_sum   'Hf40 Zr40 Ta40 Ti40 Mo40'
_cell_volume   3906.34501685
_cell_formula_units_Z   40
loop_
 _symmetry_equiv_pos_site_id
 _symmetry_equiv_pos_as_xyz
  1  'x, y, z'
loop_
 _atom_site_type_symbol
 _atom_site_label
 _atom_site_symmetry_multiplicity
 _atom_site_fract_x
 _atom_site_fract_y
 _atom_site_fract_z
 _atom_site_occupancy
  Hf  Hf0  1  0.67980701  0.07728013  0.36335883  1
  Hf  Hf1  1  0.58054828  0.18543880  0.49122486  1
  Hf  Hf2  1  0.50009371  0.50096235  0.87144801  1
  Hf  Hf3  1  0.30856783  0.93022569  0.37841999  1
  Hf  Hf4  1  0.80108063  0.39482110  0.47987556  1
  Hf  Hf5  1  0.00323888  0.79300491  0.00416384  1
  Hf  Hf6  1  0.79930003  0.61484582  0.01906253  1
  Hf  Hf7  1  0.00398651  0.59710049  0.01122618  1
  Hf  Hf8  1  0.79291637  0.59082494  0.48643134  1
  Hf  Hf9  1  0.88892537  0.09329672  0.62990168  1
  Hf  Hf10  1  0.89386673  0.29292699  0.87524730  1
  Hf  Hf11  1  0.49377712  0.27309935  0.87978108  1
  Hf  Hf12  1  0.19913806  0.61416947  0.00397605  1
  Hf  Hf13  1  0.19533091  0.40618522  0.00299759  1
  Hf  Hf14  1  0.89071008  0.27862911  0.12783501  1
  Hf  Hf15  1  0.18885954  0.40309227  0.73330991  1
  Hf  Hf16  1  0.00302958  0.20359340  0.50761614  1
  Hf  Hf17  1  0.20925510  0.01181488  0.51288253  1
  Hf  Hf18  1  0.19725642  0.82146423  0.25432292  1
  Hf  Hf19  1  0.41142461  0.60746821  0.50028199  1
  Hf  Hf20  1  0.48936210  0.49671696  0.13038357  1
  Hf  Hf21  1  0.20005737  0.83310610  0.00106328  1
  Hf  Hf22  1  0.09785019  0.09793177  0.63823637  1
  Hf  Hf23  1  0.89880103  0.50722176  0.88292677  1
  Hf  Hf24  1  0.41729950  0.81612209  0.48651693  1
  Hf  Hf25  1  0.20034830  0.20415781  -0.01581698  1
  Hf  Hf26  1  0.09874530  0.50197283  0.37832135  1
  Hf  Hf27  1  0.71184653  0.49787362  0.62334336  1
  Hf  Hf28  1  0.30052248  0.71341878  0.87385823  1
  Hf  Hf29  1  0.79438747  -0.02214735  0.49154716  1
  Hf  Hf30  1  0.60611264  0.79480006  0.01877097  1
  Hf  Hf31  1  0.20997172  0.38883811  0.24386467  1
  Hf  Hf32  1  -0.00166030  0.39204993  0.24769848  1
  Hf  Hf33  1  0.40395494  0.80411459  0.00462139  1
  Hf  Hf34  1  -0.00549555  0.60325071  0.74470846  1
  Hf  Hf35  1  0.50557476  0.49629426  0.62853963  1
  Hf  Hf36  1  0.20457662  0.60567711  0.25185139  1
  Hf  Hf37  1  0.51273848  0.51226621  0.36584763  1
  Hf  Hf38  1  0.09817036  0.89807425  0.64123110  1
  Hf  Hf39  1  0.79368388  0.18683908  0.48534006  1
  Zr  Zr40  1  0.09394822  0.71222550  0.38365900  1
  Zr  Zr41  1  0.79539650  0.40344035  -0.00033513  1
  Zr  Zr42  1  0.60027016  0.59635023  0.00828995  1
  Zr  Zr43  1  0.20187436  0.80897550  0.49862050  1
  Zr  Zr44  1  0.60159726  0.38223037  0.75972439  1
  Zr  Zr45  1  0.39603922  0.38903116  0.50418159  1
  Zr  Zr46  1  0.77915797  0.20420781  0.74831369  1
  Zr  Zr47  1  0.89522774  0.69387358  0.61508437  1
  Zr  Zr48  1  -0.01534091  0.18173613  0.00120355  1
  Zr  Zr49  1  0.89109629  0.31450757  0.62459504  1
  Zr  Zr50  1  0.68647713  0.28961799  0.61515424  1
  Zr  Zr51  1  0.30104811  0.49286027  0.38107688  1
  Zr  Zr52  1  0.19246355  0.61128220  0.73421463  1
  Zr  Zr53  1  0.01523635  -0.01461787  -0.00430494  1
  Zr  Zr54  1  0.69951686  0.49260926  0.14515287  1
  Zr  Zr55  1  0.60452600  0.38502506  -0.00499947  1
  Zr  Zr56  1  0.40144642  0.60840721  0.74192647  1
  Zr  Zr57  1  0.09336557  0.09274805  0.85501533  1
  Zr  Zr58  1  0.50882427  0.07412411  0.87187667  1
  Zr  Zr59  1  0.10986800  0.29768646  0.38211753  1
  Zr  Zr60  1  0.48889050  0.27713907  0.11910563  1
  Zr  Zr61  1  0.00567328  0.38973167  0.00569728  1
  Zr  Zr62  1  0.40563405  0.01015696  0.23324376  1
  Zr  Zr63  1  0.90044585  0.89514025  0.63560869  1
  Zr  Zr64  1  0.68788152  0.68842857  0.36712191  1
  Zr  Zr65  1  0.60054829  0.40769797  0.48786923  1
  Zr  Zr66  1  0.38754544  0.39002602  -0.00591344  1
  Zr  Zr67  1  0.30128863  0.71123709  0.12925214  1
  Zr  Zr68  1  0.79472066  0.78949936  0.75550380  1
  Zr  Zr69  1  0.61105185  0.60461735  0.75304538  1
  Zr  Zr70  1  0.40699260  0.80030921  0.26446835  1
  Zr  Zr71  1  -0.00539775  0.61200786  0.24945223  1
  Zr  Zr72  1  0.70642975  0.10760846  0.13395189  1
  Zr  Zr73  1  0.81127627  0.02134573  0.00345355  1
  Zr  Zr74  1  0.29292238  0.49990582  0.86594810  1
  Zr  Zr75  1  0.39096508  -0.00138405  0.00891165  1
  Zr  Zr76  1  0.81139664  0.18873566  0.26636473  1
  Zr  Zr77  1  0.21114135  0.20867325  0.74405331  1
  Zr  Zr78  1  0.91304162  0.90156983  0.85809787  1
  Zr  Zr79  1  0.80761518  0.81460461  0.01085099  1
  Ta  Ta80  1  0.68564067  0.90874276  0.88245023  1
  Ta  Ta81  1  0.20373544  0.02592817  0.25282194  1
  Ta  Ta82  1  0.90623723  0.88790760  0.36808622  1
  Ta  Ta83  1  0.00283063  -0.00246808  0.49930143  1
  Ta  Ta84  1  0.68927416  0.29172833  0.35787037  1
  Ta  Ta85  1  0.71093602  0.90582328  0.13891094  1
  Ta  Ta86  1  0.30292475  0.09488264  0.87061842  1
  Ta  Ta87  1  0.30544355  0.71098849  0.61633535  1
  Ta  Ta88  1  0.60958278  0.80640095  0.48811107  1
  Ta  Ta89  1  -0.00663414  0.40962422  0.49690449  1
  Ta  Ta90  1  0.51483192  0.90996278  0.62384504  1
  Ta  Ta91  1  0.60173359  -0.00360694  0.01607005  1
  Ta  Ta92  1  0.90522016  0.29965766  0.37132544  1
  Ta  Ta93  1  0.90167710  0.49355781  0.13252318  1
  Ta  Ta94  1  0.10423689  0.08450511  0.12328438  1
  Ta  Ta95  1  0.70323838  0.70060601  0.88168594  1
  Ta  Ta96  1  0.69305092  0.70280636  0.61203663  1
  Ta  Ta97  1  0.50496812  0.70774863  0.87756206  1
  Ta  Ta98  1  0.69962915  0.89050422  0.62181634  1
  Ta  Ta99  1  0.29548288  0.12673197  0.11529932  1
  Ta  Ta100  1  0.21742278  0.20818865  0.52639997  1
  Ta  Ta101  1  0.11583472  0.10398906  0.38644562  1
  Ta  Ta102  1  0.60065719  0.80443269  0.24257424  1
  Ta  Ta103  1  0.40192824  -0.00858942  0.74644267  1
  Ta  Ta104  1  0.90247942  0.69977552  0.87593048  1
  Ta  Ta105  1  0.37656035  0.20373869  0.25059301  1
  Ta  Ta106  1  0.81112525  0.78845310  0.23923773  1
  Ta  Ta107  1  0.40108648  0.60342061  0.00145507  1
  Ta  Ta108  1  0.48971546  0.29263367  0.36719156  1
  Ta  Ta109  1  0.69487892  0.29479627  0.14099176  1
  Ta  Ta110  1  0.67796805  0.07933659  0.62055554  1
  Ta  Ta111  1  0.10393337  0.49940075  0.13310346  1
  Ta  Ta112  1  0.79525927  0.41172496  0.76387899  1
  Ta  Ta113  1  -0.00176745  0.21375305  0.74193736  1
  Ta  Ta114  1  0.41426002  0.02147609  0.51152908  1
  Ta  Ta115  1  0.59719306  0.80913900  0.75457436  1
  Ta  Ta116  1  0.77848821  -0.00254072  0.75389070  1
  Ta  Ta117  1  0.10921326  0.28093665  0.12854399  1
  Ta  Ta118  1  0.20026760  0.59905557  0.51172312  1
  Ta  Ta119  1  -0.00668678  0.40555356  0.74846608  1
  Ti  Ti120  1  0.89301904  0.70061948  0.37938599  1
  Ti  Ti121  1  0.69327970  0.11301020  0.88033366  1
  Ti  Ti122  1  0.30060866  0.69906924  0.38324358  1
  Ti  Ti123  1  0.50076308  0.89851332  0.13053932  1
  Ti  Ti124  1  0.40347510  0.19334130  0.74555609  1
  Ti  Ti125  1  0.70970916  0.48846710  0.34847656  1
  Ti  Ti126  1  0.57837261  0.18485780  0.25092367  1
  Ti  Ti127  1  0.10080945  0.30911181  0.86718849  1
  Ti  Ti128  1  0.49350778  0.28368800  0.62803848  1
  Ti  Ti129  1  0.39815468  0.39560990  0.25107595  1
  Ti  Ti130  1  0.01399986  0.18095384  0.25334844  1
  Ti  Ti131  1  0.09610715  0.50714836  0.87111991  1
  Ti  Ti132  1  0.81598144  -0.00817355  0.25315497  1
  Ti  Ti133  1  0.29947151  0.50297804  0.12655122  1
  Ti  Ti134  1  0.40791299  0.80566190  0.74975576  1
  Ti  Ti135  1  0.91637934  0.08620034  0.37728284  1
  Ti  Ti136  1  0.58931295  0.61591705  0.23399236  1
  Ti  Ti137  1  -0.00677090  0.59665471  0.49608680  1
  Ti  Ti138  1  0.92631894  0.90158368  0.14277385  1
  Ti  Ti139  1  0.08114386  0.50178399  0.61644226  1
  Ti  Ti140  1  0.39005916  0.38639076  0.74751248  1
  Ti  Ti141  1  0.30207812  0.50320548  0.62267241  1
  Ti  Ti142  1  0.70548403  0.88817770  0.35791621  1
  Ti  Ti143  1  0.47875051  0.09320608  0.37072456  1
  Ti  Ti144  1  0.89141386  0.10030055  0.85734173  1
  Ti  Ti145  1  0.09684611  0.70659294  0.61549530  1
  Ti  Ti146  1  0.11849863  0.90203850  0.85081961  1
  Ti  Ti147  1  0.21589558  0.80596437  0.74353229  1
  Ti  Ti148  1  0.19201234  0.39782621  0.52047923  1
  Ti  Ti149  1  -0.01074306  0.80751289  0.49876192  1
  Ti  Ti150  1  0.59070899  0.38812474  0.24993132  1
  Ti  Ti151  1  0.79962836  0.59658433  0.75276102  1
  Ti  Ti152  1  0.80577426  0.59663630  0.24542856  1
  Ti  Ti153  1  0.09491708  0.71404798  0.13487782  1
  Ti  Ti154  1  0.09635071  0.70856026  0.86860312  1
  Ti  Ti155  1  0.29796174  0.28438601  0.38288595  1
  Ti  Ti156  1  0.50680373  0.71386333  0.62172001  1
  Ti  Ti157  1  0.09518575  0.91588885  0.37487694  1
  Ti  Ti158  1  0.31248982  0.90433504  0.62448085  1
  Ti  Ti159  1  0.40058309  0.60450578  0.25483830  1
  Mo  Mo160  1  0.60218357  -0.00603143  0.23785972  1
  Mo  Mo161  1  0.19573578  0.20030941  0.24895222  1
  Mo  Mo162  1  0.29951960  0.11347750  0.38112289  1
  Mo  Mo163  1  0.50308817  0.09940448  0.63499908  1
  Mo  Mo164  1  0.49452993  0.69864543  0.12754877  1
  Mo  Mo165  1  0.79963450  0.79623485  0.48993467  1
  Mo  Mo166  1  0.59233947  -0.01336082  0.49335466  1
  Mo  Mo167  1  -0.00643181  0.00352477  0.75208051  1
  Mo  Mo168  1  0.59291594  0.61034078  0.50690214  1
  Mo  Mo169  1  0.10825946  0.90517684  0.13531091  1
  Mo  Mo170  1  0.29655314  0.29522990  0.86176916  1
  Mo  Mo171  1  0.50137071  0.70472449  0.37167692  1
  Mo  Mo172  1  0.59382718  0.18482468  0.74452053  1
  Mo  Mo173  1  0.31235334  0.09858159  0.63629916  1
  Mo  Mo174  1  0.00949479  0.00187223  0.26364314  1
  Mo  Mo175  1  0.89796711  0.49920760  0.62481944  1
  Mo  Mo176  1  0.30576748  0.90664532  0.86329785  1
  Mo  Mo177  1  0.28308505  0.92288554  0.13103210  1
  Mo  Mo178  1  0.39809136  0.19820520  0.50351140  1
  Mo  Mo179  1  0.80249689  0.39161706  0.25579695  1
  Mo  Mo180  1  0.91655863  0.08249558  0.14432769  1
  Mo  Mo181  1  0.39316249  0.19154517  -0.00972533  1
  Mo  Mo182  1  0.30975201  0.30886098  0.62951878  1
  Mo  Mo183  1  0.60355676  -0.00961992  0.75218190  1
  Mo  Mo184  1  0.90044484  0.50007296  0.36625506  1
  Mo  Mo185  1  0.50105044  0.09906343  0.12020872  1
  Mo  Mo186  1  0.50081442  0.88595211  0.87861797  1
  Mo  Mo187  1  0.70081118  0.70436162  0.14195492  1
  Mo  Mo188  1  0.29574232  0.30800969  0.12327414  1
  Mo  Mo189  1  0.21552017  -0.00355520  0.74171968  1
  Mo  Mo190  1  0.20271611  0.01013425  -0.00444783  1
  Mo  Mo191  1  0.00005531  0.80679173  0.25532887  1
  Mo  Mo192  1  0.90501446  0.69961199  0.13065547  1
  Mo  Mo193  1  0.52062795  0.91510769  0.36944502  1
  Mo  Mo194  1  0.60271255  0.18459689  0.00457649  1
  Mo  Mo195  1  0.77375007  0.21330804  -0.00790228  1
  Mo  Mo196  1  0.01561123  0.78755095  0.75351046  1
  Mo  Mo197  1  0.09448258  0.30841332  0.62060954  1
  Mo  Mo198  1  0.70441520  0.50984199  0.87449919  1
  Mo  Mo199  1  0.69424399  0.29789605  0.87483459  1
