# generated using pymatgen
data_HfZrTaTiMo
_symmetry_space_group_name_H-M   'P 1'
_cell_length_a   15.21441658
_cell_length_b   15.21160915
_cell_length_c   16.82671781
_cell_angle_alpha   90.08535808
_cell_angle_beta   90.03299384
_cell_angle_gamma   89.92190191
_symmetry_Int_Tables_number   1
_chemical_formula_structural   HfZrTaTiMo
_chemical_formula_sum   'Hf40 Zr40 Ta40 Ti40 Mo40'
_cell_volume   3894.29561602
_cell_formula_units_Z   40
loop_
 _symmetry_equiv_pos_site_id
 _symmetry_equiv_pos_as_xyz
  1  'x, y, z'
loop_
 _atom_site_type_symbol
 _atom_site_label
 _atom_site_symmetry_multiplicity
 _atom_site_fract_x
 _atom_site_fract_y
 _atom_site_fract_z
 _atom_site_occupancy
  Hf  Hf0  1  0.69063753  0.90871107  0.62726150  1
  Hf  Hf1  1  0.00967242  0.80367972  0.25229792  1
  Hf  Hf2  1  0.68563113  0.49207617  0.89569673  1
  Hf  Hf3  1  0.51958455  0.51280436  0.62033923  1
  Hf  Hf4  1  0.59094167  0.19902045  -0.00453935  1
  Hf  Hf5  1  0.48658749  0.30162411  0.86771847  1
  Hf  Hf6  1  -0.00041765  0.60840508  -0.02105904  1
  Hf  Hf7  1  0.61134762  0.19477245  0.49003761  1
  Hf  Hf8  1  0.90362774  0.11756471  0.63138473  1
  Hf  Hf9  1  0.38477699  0.19661306  0.50095079  1
  Hf  Hf10  1  -0.01069777  0.59033473  0.75482862  1
  Hf  Hf11  1  0.50000879  0.09409363  0.37060322  1
  Hf  Hf12  1  0.27327866  0.09773042  0.37569760  1
  Hf  Hf13  1  0.80924202  -0.00963585  0.01583908  1
  Hf  Hf14  1  0.37227803  0.21112182  0.26184053  1
  Hf  Hf15  1  0.49946144  0.30733723  0.37863721  1
  Hf  Hf16  1  0.00678428  0.80868111  -0.01490532  1
  Hf  Hf17  1  0.28988176  0.09944670  0.11662857  1
  Hf  Hf18  1  0.40367260  0.00288128  0.00188189  1
  Hf  Hf19  1  0.79594765  0.19209904  0.01910467  1
  Hf  Hf20  1  0.90162825  0.70989787  0.12308842  1
  Hf  Hf21  1  0.50513779  0.48863834  0.09677115  1
  Hf  Hf22  1  0.72733317  0.49538350  0.63295661  1
  Hf  Hf23  1  0.71435340  0.29605115  0.64423371  1
  Hf  Hf24  1  0.20213932  0.58361371  0.73326147  1
  Hf  Hf25  1  0.69958622  0.90548988  0.87817800  1
  Hf  Hf26  1  0.90155285  0.50980768  0.12035506  1
  Hf  Hf27  1  0.91296135  0.10641709  0.36429132  1
  Hf  Hf28  1  0.71162632  0.29011910  0.87031608  1
  Hf  Hf29  1  0.11496050  0.90827811  0.64430604  1
  Hf  Hf30  1  0.48809170  0.71282899  0.89105839  1
  Hf  Hf31  1  0.10662354  0.90189224  0.86104337  1
  Hf  Hf32  1  0.16690988  0.18676210  0.23356514  1
  Hf  Hf33  1  0.59460539  0.60643709  0.76158138  1
  Hf  Hf34  1  0.90811955  0.31217447  0.36578500  1
  Hf  Hf35  1  0.50969192  0.29750188  0.62788060  1
  Hf  Hf36  1  0.39338562  -0.00039392  0.24943686  1
  Hf  Hf37  1  0.50389706  0.10475144  0.13679181  1
  Hf  Hf38  1  0.79956664  0.20182978  0.24106718  1
  Hf  Hf39  1  0.20245143  0.59380981  0.51857654  1
  Zr  Zr40  1  0.88879904  0.69833492  0.62732618  1
  Zr  Zr41  1  0.84720294  0.39953143  0.77814208  1
  Zr  Zr42  1  0.48572508  0.50158793  0.88147788  1
  Zr  Zr43  1  0.50149517  0.89750022  0.12258660  1
  Zr  Zr44  1  0.30502473  0.89224826  0.86405535  1
  Zr  Zr45  1  0.01058853  0.39501450  0.00385381  1
  Zr  Zr46  1  0.68163698  0.31213109  0.13045057  1
  Zr  Zr47  1  0.57414426  0.81029735  0.74491977  1
  Zr  Zr48  1  0.38543114  0.60208787  0.25184680  1
  Zr  Zr49  1  0.80211348  0.00844173  0.75021374  1
  Zr  Zr50  1  0.59952707  0.79145466  0.50010851  1
  Zr  Zr51  1  0.50096642  0.69243134  0.10840129  1
  Zr  Zr52  1  0.78773781  0.60325855  0.48410616  1
  Zr  Zr53  1  0.39506994  0.80127343  0.24718891  1
  Zr  Zr54  1  0.90928219  0.90938393  0.37130355  1
  Zr  Zr55  1  0.41102118  0.41028428  0.25322577  1
  Zr  Zr56  1  0.79453448  0.80019193  0.75576525  1
  Zr  Zr57  1  -0.00719162  0.22161426  0.76842791  1
  Zr  Zr58  1  0.29062748  0.10815171  0.87636726  1
  Zr  Zr59  1  0.79579969  0.61416579  0.25414009  1
  Zr  Zr60  1  0.80089053  0.80722631  0.49602638  1
  Zr  Zr61  1  0.90038352  0.09536657  0.88284267  1
  Zr  Zr62  1  0.59666522  0.58571239  0.24315146  1
  Zr  Zr63  1  0.48338259  0.29621540  0.12778450  1
  Zr  Zr64  1  0.79698053  0.60073722  0.77728387  1
  Zr  Zr65  1  0.28989001  0.50333365  0.11981841  1
  Zr  Zr66  1  0.50449209  0.08745345  0.61868513  1
  Zr  Zr67  1  0.20791437  0.39208436  0.24818008  1
  Zr  Zr68  1  -0.00516632  0.60380591  0.49957094  1
  Zr  Zr69  1  0.10145570  0.48379262  0.86220690  1
  Zr  Zr70  1  0.28046406  0.71037951  0.11838785  1
  Zr  Zr71  1  0.59534260  0.18288501  0.75647240  1
  Zr  Zr72  1  0.20277688  0.79827867  0.50823126  1
  Zr  Zr73  1  0.79906216  0.01310826  0.49830738  1
  Zr  Zr74  1  0.50364087  0.69601768  0.37414467  1
  Zr  Zr75  1  0.41306341  -0.01104340  0.74712925  1
  Zr  Zr76  1  0.80121007  0.21299584  0.48943152  1
  Zr  Zr77  1  0.39676144  0.40004438  0.51706628  1
  Zr  Zr78  1  0.10519071  0.49550732  0.37745114  1
  Zr  Zr79  1  0.11018582  0.28540328  0.38242796  1
  Ta  Ta80  1  0.28705833  0.69287279  0.86345795  1
  Ta  Ta81  1  0.91227017  0.90528685  0.62787351  1
  Ta  Ta82  1  0.00839593  0.60042010  0.25407866  1
  Ta  Ta83  1  0.00422277  0.39400703  0.23742402  1
  Ta  Ta84  1  0.37774429  0.59923811  -0.00872935  1
  Ta  Ta85  1  0.30456519  0.49534939  0.38687522  1
  Ta  Ta86  1  0.79560232  0.41254514  0.24149315  1
  Ta  Ta87  1  0.79546606  0.61312401  -0.00785682  1
  Ta  Ta88  1  0.39973872  0.80212549  0.50354726  1
  Ta  Ta89  1  0.50321956  0.89758180  0.37020236  1
  Ta  Ta90  1  0.28560388  0.08546829  0.63217252  1
  Ta  Ta91  1  0.00474626  0.40171655  0.50977644  1
  Ta  Ta92  1  0.39459870  -0.00960349  0.49995829  1
  Ta  Ta93  1  0.79919556  0.81052334  0.24739048  1
  Ta  Ta94  1  0.01010629  0.00607923  0.50923681  1
  Ta  Ta95  1  0.11480119  0.88600773  0.11893275  1
  Ta  Ta96  1  0.69666691  0.51110912  0.10635966  1
  Ta  Ta97  1  0.40131864  0.60916041  0.50941740  1
  Ta  Ta98  1  0.90213817  0.31686787  0.62326294  1
  Ta  Ta99  1  0.30043017  0.89447798  0.37797384  1
  Ta  Ta100  1  0.09295306  0.70641926  0.63960140  1
  Ta  Ta101  1  0.80133391  0.39772879  0.00364082  1
  Ta  Ta102  1  0.39385209  0.40511926  0.73399294  1
  Ta  Ta103  1  0.09710696  0.68964293  0.12374422  1
  Ta  Ta104  1  0.70089262  0.31178858  0.36135346  1
  Ta  Ta105  1  0.62115800  0.40109266  0.50167188  1
  Ta  Ta106  1  0.38352653  0.20379194  0.74202609  1
  Ta  Ta107  1  0.00590818  0.80842540  0.50529791  1
  Ta  Ta108  1  0.09746966  0.28734745  0.62011671  1
  Ta  Ta109  1  0.80020165  0.00197064  0.23693334  1
  Ta  Ta110  1  0.60113432  -0.00552869  0.48738469  1
  Ta  Ta111  1  0.68204543  0.68955667  0.62680064  1
  Ta  Ta112  1  0.37384242  0.38606943  -0.00524660  1
  Ta  Ta113  1  0.50645404  0.50099620  0.39373095  1
  Ta  Ta114  1  0.61431375  0.79376973  0.24221095  1
  Ta  Ta115  1  0.19889112  -0.00192873  0.50546556  1
  Ta  Ta116  1  0.61296396  0.00509513  0.01453009  1
  Ta  Ta117  1  0.00914809  0.19339277  0.00764082  1
  Ta  Ta118  1  0.10798636  0.90860001  0.37873902  1
  Ta  Ta119  1  0.19779150  -0.01755504  0.24277757  1
  Ti  Ti120  1  0.10183405  0.50346941  0.12535724  1
  Ti  Ti121  1  0.19978858  0.78947829  0.25851545  1
  Ti  Ti122  1  0.81115092  0.40837866  0.49141485  1
  Ti  Ti123  1  0.40107184  0.60402856  0.74245462  1
  Ti  Ti124  1  0.30582127  0.71105308  0.63578629  1
  Ti  Ti125  1  0.19058278  0.19147687  0.74438389  1
  Ti  Ti126  1  0.61941854  0.80389478  0.01553731  1
  Ti  Ti127  1  0.69779848  0.09458307  0.87674129  1
  Ti  Ti128  1  0.39015366  0.20174208  -0.00483743  1
  Ti  Ti129  1  0.11770495  0.29573413  0.87587021  1
  Ti  Ti130  1  0.90089193  0.70802862  0.37171594  1
  Ti  Ti131  1  0.20114853  0.22576924  0.00997768  1
  Ti  Ti132  1  0.29325711  0.69216113  0.37984855  1
  Ti  Ti133  1  0.60324523  0.19786768  0.26012937  1
  Ti  Ti134  1  0.19206678  0.18986860  0.51208997  1
  Ti  Ti135  1  0.69990293  0.90147504  0.36872083  1
  Ti  Ti136  1  0.20997052  0.38396459  0.72736654  1
  Ti  Ti137  1  0.19027073  0.59964827  -0.01544130  1
  Ti  Ti138  1  0.37602467  0.80515276  0.00316730  1
  Ti  Ti139  1  0.91927288  0.90513527  0.12928987  1
  Ti  Ti140  1  0.69997423  0.10375329  0.63048009  1
  Ti  Ti141  1  0.00725371  0.01281340  0.75047503  1
  Ti  Ti142  1  0.50913856  0.90282827  0.89114227  1
  Ti  Ti143  1  -0.00804032  0.79967309  0.76226867  1
  Ti  Ti144  1  0.91651543  0.09965061  0.12941445  1
  Ti  Ti145  1  0.29458360  0.48496031  0.86834106  1
  Ti  Ti146  1  0.10343619  0.09753417  0.88793461  1
  Ti  Ti147  1  0.90424172  0.50185545  0.36397560  1
  Ti  Ti148  1  0.69561714  0.50092956  0.37096967  1
  Ti  Ti149  1  0.80933935  0.80216525  -0.00568256  1
  Ti  Ti150  1  0.00152216  0.19863954  0.50116969  1
  Ti  Ti151  1  0.01725573  0.01172464  0.24215325  1
  Ti  Ti152  1  0.61395353  -0.00628753  0.24587188  1
  Ti  Ti153  1  0.50030033  0.09067093  0.87542169  1
  Ti  Ti154  1  0.10017636  0.70202837  0.37859659  1
  Ti  Ti155  1  0.20597378  0.39102450  0.51656801  1
  Ti  Ti156  1  0.60090777  0.40485097  0.75328035  1
  Ti  Ti157  1  0.90575114  0.30227004  0.12507309  1
  Ti  Ti158  1  0.68820866  0.70777052  0.88668622  1
  Ti  Ti159  1  0.19678022  -0.01944801  0.00113556  1
  Mo  Mo160  1  0.09749185  0.08346317  0.10790415  1
  Mo  Mo161  1  0.20064699  0.41025442  -0.00131827  1
  Mo  Mo162  1  0.89384031  0.49883756  0.90147089  1
  Mo  Mo163  1  0.30908051  0.50102372  0.62441738  1
  Mo  Mo164  1  0.59134081  0.39098242  -0.00775570  1
  Mo  Mo165  1  0.80395688  0.20216432  0.75692593  1
  Mo  Mo166  1  0.70121620  0.70913123  0.36517738  1
  Mo  Mo167  1  0.09123673  0.08726594  0.37765775  1
  Mo  Mo168  1  0.60157532  -0.00091181  0.75657739  1
  Mo  Mo169  1  0.69916588  0.09531389  0.35802200  1
  Mo  Mo170  1  0.18942668  0.60551205  0.25817907  1
  Mo  Mo171  1  0.19692191  0.78359857  -0.00991390  1
  Mo  Mo172  1  0.90158469  0.49801118  0.62059449  1
  Mo  Mo173  1  0.70770509  0.70251620  0.11409280  1
  Mo  Mo174  1  0.39588169  0.78671181  0.74919373  1
  Mo  Mo175  1  0.90224557  0.29014491  0.90840066  1
  Mo  Mo176  1  0.29078424  0.30654313  0.38665536  1
  Mo  Mo177  1  0.29332104  0.29830514  0.12203428  1
  Mo  Mo178  1  0.28984921  0.30687174  0.86227168  1
  Mo  Mo179  1  0.20029656  0.79241607  0.74172808  1
  Mo  Mo180  1  0.20064901  0.01066891  0.75504701  1
  Mo  Mo181  1  0.60505824  0.40380639  0.25498412  1
  Mo  Mo182  1  0.09348224  0.10166252  0.62948352  1
  Mo  Mo183  1  0.29661335  0.28637527  0.62945862  1
  Mo  Mo184  1  -0.00654504  0.20224101  0.23533502  1
  Mo  Mo185  1  0.59565875  0.60898727  -0.00504126  1
  Mo  Mo186  1  0.03008837  0.40438729  0.72171902  1
  Mo  Mo187  1  0.29298376  0.90261286  0.12046076  1
  Mo  Mo188  1  0.09860831  0.30130062  0.12118060  1
  Mo  Mo189  1  0.69579010  0.09741085  0.13516577  1
  Mo  Mo190  1  0.10038021  0.49778612  0.61638426  1
  Mo  Mo191  1  0.90443689  0.90304490  0.87142438  1
  Mo  Mo192  1  0.00779584  -0.00126269  0.00439469  1
  Mo  Mo193  1  0.89591767  0.71036041  0.87617086  1
  Mo  Mo194  1  0.60503827  0.59219879  0.49764783  1
  Mo  Mo195  1  0.71267670  0.89342702  0.12584980  1
  Mo  Mo196  1  0.49238616  0.89645161  0.61309630  1
  Mo  Mo197  1  0.10513859  0.70024824  0.85168768  1
  Mo  Mo198  1  0.30954234  0.89942258  0.62946257  1
  Mo  Mo199  1  0.49461255  0.69890350  0.62185378  1
