# generated using pymatgen
data_HfZrTaTiMo
_symmetry_space_group_name_H-M   'P 1'
_cell_length_a   15.18522275
_cell_length_b   15.18107672
_cell_length_c   16.80395538
_cell_angle_alpha   90.05180341
_cell_angle_beta   90.08291700
_cell_angle_gamma   90.00929551
_symmetry_Int_Tables_number   1
_chemical_formula_structural   HfZrTaTiMo
_chemical_formula_sum   'Hf40 Zr40 Ta40 Ti40 Mo40'
_cell_volume   3873.77706606
_cell_formula_units_Z   40
loop_
 _symmetry_equiv_pos_site_id
 _symmetry_equiv_pos_as_xyz
  1  'x, y, z'
loop_
 _atom_site_type_symbol
 _atom_site_label
 _atom_site_symmetry_multiplicity
 _atom_site_fract_x
 _atom_site_fract_y
 _atom_site_fract_z
 _atom_site_occupancy
  Hf  Hf0  1  0.19811122  0.59491901  -0.00101854  1
  Hf  Hf1  1  0.69552609  0.09158066  0.89738910  1
  Hf  Hf2  1  0.68338046  0.49919552  0.86262578  1
  Hf  Hf3  1  0.00485800  0.59888482  0.73107099  1
  Hf  Hf4  1  0.89047668  0.29351585  0.62696965  1
  Hf  Hf5  1  0.00487674  0.39653186  -0.00601490  1
  Hf  Hf6  1  -0.01980122  0.40023100  0.49819433  1
  Hf  Hf7  1  0.10954348  0.90193194  0.38836063  1
  Hf  Hf8  1  0.86940342  0.49740862  0.63632443  1
  Hf  Hf9  1  0.31337480  0.69439305  0.12072264  1
  Hf  Hf10  1  0.08954849  0.50412263  0.12786044  1
  Hf  Hf11  1  0.71408984  0.10943588  0.37472156  1
  Hf  Hf12  1  0.50009885  0.31679241  0.11723803  1
  Hf  Hf13  1  0.90203302  0.29054875  0.13699129  1
  Hf  Hf14  1  0.40120573  0.61724322  0.27002229  1
  Hf  Hf15  1  0.38539425  0.21337030  -0.00404407  1
  Hf  Hf16  1  0.62320323  -0.00484002  0.73835427  1
  Hf  Hf17  1  0.29427037  0.71472110  0.39836283  1
  Hf  Hf18  1  0.89457026  0.49141222  0.12379454  1
  Hf  Hf19  1  0.18755776  0.20973316  0.76055629  1
  Hf  Hf20  1  0.40881122  0.79049162  0.73737471  1
  Hf  Hf21  1  0.19536766  0.40534405  0.26301718  1
  Hf  Hf22  1  0.09077372  0.10453537  0.36607428  1
  Hf  Hf23  1  0.38976745  0.20527913  0.76782409  1
  Hf  Hf24  1  0.60781148  0.21286105  0.24192111  1
  Hf  Hf25  1  0.70838504  0.70381649  0.38622663  1
  Hf  Hf26  1  0.49598479  0.09602614  0.89436132  1
  Hf  Hf27  1  0.29321483  0.30521974  0.62188324  1
  Hf  Hf28  1  0.69783955  0.87608744  0.13398561  1
  Hf  Hf29  1  0.30189828  0.90634623  0.62170797  1
  Hf  Hf30  1  0.19781788  0.00750418  0.01148219  1
  Hf  Hf31  1  0.89441777  0.09284260  0.87490931  1
  Hf  Hf32  1  0.09793093  0.91428909  0.60725260  1
  Hf  Hf33  1  0.39248232  0.41925732  -0.00402381  1
  Hf  Hf34  1  0.31689216  0.89661486  0.11606870  1
  Hf  Hf35  1  -0.00265931  -0.00869223  0.01017209  1
  Hf  Hf36  1  0.08483830  0.71234330  0.40347486  1
  Hf  Hf37  1  0.09883255  0.29759549  0.38534441  1
  Hf  Hf38  1  -0.00677080  0.61209413  0.26747515  1
  Hf  Hf39  1  0.60127342  -0.01409149  0.50492623  1
  Zr  Zr40  1  0.49874964  0.46899382  0.35381044  1
  Zr  Zr41  1  0.08982147  0.11403337  0.13882577  1
  Zr  Zr42  1  0.90008032  0.89725615  0.86659055  1
  Zr  Zr43  1  0.80553736  0.79587911  -0.00130603  1
  Zr  Zr44  1  0.30001272  0.10967014  0.36207807  1
  Zr  Zr45  1  0.91104453  0.09270554  0.62605295  1
  Zr  Zr46  1  0.31112576  0.90635843  0.88568018  1
  Zr  Zr47  1  0.30997136  0.69529424  0.87683099  1
  Zr  Zr48  1  0.89163117  0.49210565  0.85462180  1
  Zr  Zr49  1  0.39563768  0.20158096  0.50286543  1
  Zr  Zr50  1  0.60192199  0.21003798  0.49778310  1
  Zr  Zr51  1  0.78527600  0.59898714  -0.01046859  1
  Zr  Zr52  1  0.09664511  0.50000998  0.86702417  1
  Zr  Zr53  1  0.79979827  0.58458451  0.25633408  1
  Zr  Zr54  1  0.19423093  0.60537794  0.26461268  1
  Zr  Zr55  1  0.50445111  0.66750527  0.62343524  1
  Zr  Zr56  1  0.21291943  0.02136168  0.49277263  1
  Zr  Zr57  1  0.61775811  0.79209689  0.73007415  1
  Zr  Zr58  1  0.91066294  0.88109205  0.37065943  1
  Zr  Zr59  1  0.29980971  0.49225579  0.13425619  1
  Zr  Zr60  1  0.32113487  0.31571999  0.37445791  1
  Zr  Zr61  1  0.39652200  0.57259213  0.48468880  1
  Zr  Zr62  1  0.20838771  0.80109267  0.25137364  1
  Zr  Zr63  1  0.59277285  0.20725768  0.75915899  1
  Zr  Zr64  1  0.81496906  -0.00733883  0.49017788  1
  Zr  Zr65  1  0.40374862  -0.00004889  0.74900925  1
  Zr  Zr66  1  0.19899540  0.80464173  0.74374348  1
  Zr  Zr67  1  0.79270172  0.19270939  0.75834911  1
  Zr  Zr68  1  0.39832260  0.40226125  0.75708112  1
  Zr  Zr69  1  0.20466142  0.00006767  0.24258274  1
  Zr  Zr70  1  0.50099009  0.09623274  0.37110469  1
  Zr  Zr71  1  0.42111011  0.80614966  0.50797697  1
  Zr  Zr72  1  0.60168068  -0.00230834  0.24081498  1
  Zr  Zr73  1  0.10714491  0.89961727  0.87417598  1
  Zr  Zr74  1  0.71513027  0.10676423  0.61276968  1
  Zr  Zr75  1  0.01747949  0.00417219  0.74831635  1
  Zr  Zr76  1  0.89914493  0.69505028  0.12252143  1
  Zr  Zr77  1  -0.00864026  0.20021911  -0.00325548  1
  Zr  Zr78  1  0.49642375  0.10345393  0.62759742  1
  Zr  Zr79  1  0.51660599  0.89722538  0.87457634  1
  Ta  Ta80  1  0.60424968  0.60921137  0.25846527  1
  Ta  Ta81  1  0.51651507  0.69536109  0.86669093  1
  Ta  Ta82  1  0.21258588  0.41218876  0.49511479  1
  Ta  Ta83  1  0.09169718  0.50806747  0.39646921  1
  Ta  Ta84  1  0.80257717  -0.00487859  0.24340915  1
  Ta  Ta85  1  0.48958282  0.51472366  0.87171108  1
  Ta  Ta86  1  0.28703478  0.10649945  0.63385287  1
  Ta  Ta87  1  0.58654544  0.40323939  0.50111726  1
  Ta  Ta88  1  0.59747589  -0.01571604  0.01685133  1
  Ta  Ta89  1  -0.03139064  0.60623645  0.50921925  1
  Ta  Ta90  1  0.69055739  0.49557343  0.12439389  1
  Ta  Ta91  1  0.29434996  0.50394983  0.86778827  1
  Ta  Ta92  1  0.29399358  0.69435681  0.60861279  1
  Ta  Ta93  1  -0.01199936  0.40755554  0.26978656  1
  Ta  Ta94  1  0.61621839  0.79549894  0.51342363  1
  Ta  Ta95  1  0.88491741  0.28740158  0.36946573  1
  Ta  Ta96  1  0.40438109  0.20914390  0.23568382  1
  Ta  Ta97  1  0.40738146  -0.00120056  0.23669437  1
  Ta  Ta98  1  0.00916407  0.78926144  -0.00375440  1
  Ta  Ta99  1  0.51207275  0.71919567  0.13598491  1
  Ta  Ta100  1  0.42331104  0.79451094  -0.00109666  1
  Ta  Ta101  1  0.70035994  0.29695769  0.89423946  1
  Ta  Ta102  1  0.60232853  0.58970921  0.48829362  1
  Ta  Ta103  1  0.20482990  0.60063984  0.73462960  1
  Ta  Ta104  1  0.18952788  0.21317354  -0.00438314  1
  Ta  Ta105  1  0.78548519  0.38319606  0.25024806  1
  Ta  Ta106  1  0.49961211  0.52023900  0.13597835  1
  Ta  Ta107  1  0.70376387  0.10548166  0.11358102  1
  Ta  Ta108  1  0.80368766  0.39465981  -0.00442547  1
  Ta  Ta109  1  0.80398088  0.78609189  0.25187221  1
  Ta  Ta110  1  0.80236333  -0.00488524  0.01830099  1
  Ta  Ta111  1  0.67391278  0.49923275  0.63977017  1
  Ta  Ta112  1  0.20021588  0.79521432  0.00282363  1
  Ta  Ta113  1  -0.00029219  0.79434793  0.73199584  1
  Ta  Ta114  1  0.30315227  0.11154455  0.12260846  1
  Ta  Ta115  1  0.69716074  0.31472030  0.62993260  1
  Ta  Ta116  1  0.70437795  0.29740769  0.10529142  1
  Ta  Ta117  1  0.09857695  0.70209960  0.12424010  1
  Ta  Ta118  1  0.90582466  0.69829704  0.86086228  1
  Ta  Ta119  1  0.09876689  0.70420110  0.60476398  1
  Ti  Ti120  1  0.89471290  0.10017218  0.13845980  1
  Ti  Ti121  1  0.10368611  0.11443458  0.61470803  1
  Ti  Ti122  1  0.31857929  0.90890274  0.37420590  1
  Ti  Ti123  1  0.10106796  0.69932847  0.86849707  1
  Ti  Ti124  1  0.10354348  0.49821347  0.61015972  1
  Ti  Ti125  1  0.70092844  0.49268176  0.37263695  1
  Ti  Ti126  1  0.00439871  0.39063421  0.73859842  1
  Ti  Ti127  1  0.30740448  0.50294582  0.62721350  1
  Ti  Ti128  1  0.58580387  0.60794126  0.00395343  1
  Ti  Ti129  1  0.78262391  0.40245150  0.49690479  1
  Ti  Ti130  1  0.68911044  0.30709258  0.37441925  1
  Ti  Ti131  1  0.00144071  0.20531455  0.75213786  1
  Ti  Ti132  1  0.70367145  0.89761408  0.36739009  1
  Ti  Ti133  1  0.80173662  0.80364602  0.74289225  1
  Ti  Ti134  1  0.50936506  0.88212213  0.36806237  1
  Ti  Ti135  1  -0.00555269  0.60257608  -0.00896117  1
  Ti  Ti136  1  0.50640412  0.31123690  0.88832153  1
  Ti  Ti137  1  0.28886744  0.09865640  0.88097755  1
  Ti  Ti138  1  0.81937801  0.78112872  0.51030683  1
  Ti  Ti139  1  0.89638416  0.89819609  0.62739956  1
  Ti  Ti140  1  0.89871005  0.29987571  0.86588827  1
  Ti  Ti141  1  0.90401344  0.09965922  0.35883150  1
  Ti  Ti142  1  0.61394830  0.78793024  -0.00229296  1
  Ti  Ti143  1  0.70885267  0.89602977  0.87847874  1
  Ti  Ti144  1  -0.01181429  0.19009792  0.49557512  1
  Ti  Ti145  1  0.00029995  -0.01111098  0.24549916  1
  Ti  Ti146  1  0.09842527  0.30022677  0.60870307  1
  Ti  Ti147  1  0.20437110  0.21231549  0.24363421  1
  Ti  Ti148  1  0.40879713  0.00165235  0.50459703  1
  Ti  Ti149  1  0.19974360  0.39194067  -0.00474750  1
  Ti  Ti150  1  0.71521236  0.68202028  0.61232846  1
  Ti  Ti151  1  0.90791219  0.88902625  0.13557012  1
  Ti  Ti152  1  0.78172343  0.61463314  0.75568009  1
  Ti  Ti153  1  0.19181855  0.40421642  0.74733995  1
  Ti  Ti154  1  0.50104749  0.31186350  0.63241611  1
  Ti  Ti155  1  0.59975673  0.41548248  -0.00048636  1
  Ti  Ti156  1  0.10029797  0.30899835  0.13488663  1
  Ti  Ti157  1  0.09808776  0.10251164  0.87770419  1
  Ti  Ti158  1  0.09907696  0.88787093  0.12703779  1
  Ti  Ti159  1  0.49931162  0.10134622  0.11010562  1
  Mo  Mo160  1  0.59660995  0.20444729  0.00474392  1
  Mo  Mo161  1  0.28508957  0.31205016  0.87695019  1
  Mo  Mo162  1  0.29142544  0.50247300  0.37125379  1
  Mo  Mo163  1  0.78998240  0.58490655  0.50166501  1
  Mo  Mo164  1  0.79853089  -0.01226930  0.75012225  1
  Mo  Mo165  1  0.59140401  0.59785289  0.75020327  1
  Mo  Mo166  1  -0.00014604  0.00864255  0.49298446  1
  Mo  Mo167  1  0.59552479  0.39191712  0.75999657  1
  Mo  Mo168  1  0.19064797  0.21326421  0.50376764  1
  Mo  Mo169  1  -0.01015200  0.80724955  0.51969625  1
  Mo  Mo170  1  0.40076081  0.39914397  0.23520279  1
  Mo  Mo171  1  0.60249507  0.79320403  0.26151308  1
  Mo  Mo172  1  0.20631594  0.01704792  0.75060725  1
  Mo  Mo173  1  0.40669715  0.39455163  0.50663290  1
  Mo  Mo174  1  0.79710904  0.19204491  0.24595471  1
  Mo  Mo175  1  0.78976288  0.39060840  0.75593095  1
  Mo  Mo176  1  0.49565530  0.48551467  0.62602365  1
  Mo  Mo177  1  0.38939510  0.60000899  0.74572056  1
  Mo  Mo178  1  0.00025958  0.21069080  0.25392067  1
  Mo  Mo179  1  0.60882558  0.40633205  0.23757700  1
  Mo  Mo180  1  0.50939437  0.89763845  0.62246629  1
  Mo  Mo181  1  0.19097320  0.59513496  0.50933341  1
  Mo  Mo182  1  0.51139042  0.69987604  0.38426647  1
  Mo  Mo183  1  0.50691962  0.29000409  0.36331460  1
  Mo  Mo184  1  0.89701382  0.69409806  0.38167798  1
  Mo  Mo185  1  0.41170204  0.60699903  0.00232953  1
  Mo  Mo186  1  0.40944605  0.80970428  0.25918704  1
  Mo  Mo187  1  0.89242407  0.69770518  0.63896379  1
  Mo  Mo188  1  0.70333567  0.70687925  0.86917719  1
  Mo  Mo189  1  0.28816071  0.29831219  0.12544243  1
  Mo  Mo190  1  0.20767233  0.80766360  0.50569129  1
  Mo  Mo191  1  0.40233526  0.00470727  0.01163333  1
  Mo  Mo192  1  0.09133782  0.30252686  0.86973445  1
  Mo  Mo193  1  0.80613457  0.21698166  0.49516396  1
  Mo  Mo194  1  0.71693563  0.89063124  0.61546975  1
  Mo  Mo195  1  0.80398795  0.19812944  -0.00168210  1
  Mo  Mo196  1  0.00490198  0.79986909  0.24643752  1
  Mo  Mo197  1  0.89125329  0.48887786  0.38256186  1
  Mo  Mo198  1  0.50387739  0.89745727  0.12313668  1
  Mo  Mo199  1  0.68960483  0.68312328  0.12999344  1
