# generated using pymatgen
data_HfZrTaTiMo
_symmetry_space_group_name_H-M   'P 1'
_cell_length_a   15.21011070
_cell_length_b   15.21316559
_cell_length_c   16.87214868
_cell_angle_alpha   90.02767248
_cell_angle_beta   89.99233646
_cell_angle_gamma   90.14973792
_symmetry_Int_Tables_number   1
_chemical_formula_structural   HfZrTaTiMo
_chemical_formula_sum   'Hf40 Zr40 Ta40 Ti40 Mo40'
_cell_volume   3904.09901580
_cell_formula_units_Z   40
loop_
 _symmetry_equiv_pos_site_id
 _symmetry_equiv_pos_as_xyz
  1  'x, y, z'
loop_
 _atom_site_type_symbol
 _atom_site_label
 _atom_site_symmetry_multiplicity
 _atom_site_fract_x
 _atom_site_fract_y
 _atom_site_fract_z
 _atom_site_occupancy
  Hf  Hf0  1  0.70053157  0.10502402  0.63311569  1
  Hf  Hf1  1  0.29553043  0.88865097  0.37190002  1
  Hf  Hf2  1  0.20615922  0.81158089  -0.00637179  1
  Hf  Hf3  1  0.10398041  0.10680236  0.60681906  1
  Hf  Hf4  1  0.29784363  0.09826307  0.37778218  1
  Hf  Hf5  1  0.48867643  0.89731222  0.62518373  1
  Hf  Hf6  1  0.30053631  0.28028091  0.87344605  1
  Hf  Hf7  1  0.30520392  0.50676524  0.12592052  1
  Hf  Hf8  1  0.10644561  0.70041846  0.36899071  1
  Hf  Hf9  1  0.90442794  0.91459348  0.12974601  1
  Hf  Hf10  1  0.57836075  0.19426001  0.75749034  1
  Hf  Hf11  1  0.28092184  0.09996902  0.14289735  1
  Hf  Hf12  1  0.71284962  0.49723362  0.36848850  1
  Hf  Hf13  1  0.70612678  0.32266496  0.11414974  1
  Hf  Hf14  1  0.39789832  0.79877484  0.00614270  1
  Hf  Hf15  1  0.20025029  0.58759408  0.75959209  1
  Hf  Hf16  1  -0.00934780  0.39511783  0.00700580  1
  Hf  Hf17  1  0.79233111  0.79349746  0.49746493  1
  Hf  Hf18  1  0.70849844  0.50268336  0.63050361  1
  Hf  Hf19  1  0.50422106  0.12469900  0.37878239  1
  Hf  Hf20  1  0.60825013  0.60770923  0.74321950  1
  Hf  Hf21  1  0.50032129  0.09326085  0.11764452  1
  Hf  Hf22  1  0.49715401  0.29284046  0.62108427  1
  Hf  Hf23  1  0.60476234  0.39367606  0.49479777  1
  Hf  Hf24  1  0.11424653  0.90819502  0.12452348  1
  Hf  Hf25  1  0.71336051  0.08668495  0.86670601  1
  Hf  Hf26  1  0.00137417  0.80244020  0.75893894  1
  Hf  Hf27  1  0.70502765  0.30528173  0.86588263  1
  Hf  Hf28  1  0.20623273  0.60086127  -0.00907727  1
  Hf  Hf29  1  0.60518999  0.60983011  0.50007327  1
  Hf  Hf30  1  0.41139538  0.58671336  0.76333163  1
  Hf  Hf31  1  0.79429072  0.80536541  0.00426778  1
  Hf  Hf32  1  0.10887889  0.28914621  0.11675564  1
  Hf  Hf33  1  0.19940345  0.38909456  0.75469946  1
  Hf  Hf34  1  0.89917447  0.70142960  0.12779064  1
  Hf  Hf35  1  0.59633032  -0.01025921  0.75816180  1
  Hf  Hf36  1  0.60046035  0.59375062  0.24399469  1
  Hf  Hf37  1  0.01115121  0.38886196  0.24467632  1
  Hf  Hf38  1  0.30407896  0.48741297  0.62778051  1
  Hf  Hf39  1  0.19545549  0.39144581  0.49943444  1
  Zr  Zr40  1  0.89176690  0.31249352  0.37450566  1
  Zr  Zr41  1  0.78244960  0.59046692  0.01517117  1
  Zr  Zr42  1  0.89623295  0.70151289  0.62641369  1
  Zr  Zr43  1  0.09347634  0.27641969  0.88550176  1
  Zr  Zr44  1  0.90272941  0.91018127  0.62032253  1
  Zr  Zr45  1  0.00441879  0.60125183  0.50253772  1
  Zr  Zr46  1  0.91051364  0.90876356  0.38481525  1
  Zr  Zr47  1  0.49860508  0.90713049  0.37941472  1
  Zr  Zr48  1  0.00060557  0.39894915  0.74525920  1
  Zr  Zr49  1  0.32057317  0.90968255  0.86152978  1
  Zr  Zr50  1  0.30197546  0.50465941  0.36990785  1
  Zr  Zr51  1  0.00571659  0.01118118  -0.01302393  1
  Zr  Zr52  1  0.20559386  0.78250578  0.51116779  1
  Zr  Zr53  1  0.51043821  0.70043116  0.88485647  1
  Zr  Zr54  1  0.37712191  0.19183296  0.01044198  1
  Zr  Zr55  1  0.29781767  0.27485691  0.61987119  1
  Zr  Zr56  1  0.39593046  0.60143451  0.50537714  1
  Zr  Zr57  1  0.59656040  0.00821060  0.50437028  1
  Zr  Zr58  1  0.69673094  0.89279717  0.62135404  1
  Zr  Zr59  1  0.40272709  0.39692309  0.25484215  1
  Zr  Zr60  1  0.47485875  0.08821320  0.88838785  1
  Zr  Zr61  1  0.10403540  0.49518060  0.36387202  1
  Zr  Zr62  1  0.69480544  0.11015828  0.11974197  1
  Zr  Zr63  1  0.31628660  0.70772643  0.64613963  1
  Zr  Zr64  1  0.70271116  0.50728413  0.86638631  1
  Zr  Zr65  1  0.40085579  -0.00655205  0.24695000  1
  Zr  Zr66  1  0.09799724  0.69961312  0.87363696  1
  Zr  Zr67  1  -0.00957090  0.18084972  0.26598876  1
  Zr  Zr68  1  0.77986797  0.21432859  0.25616968  1
  Zr  Zr69  1  0.89912247  0.69891791  0.36519493  1
  Zr  Zr70  1  0.80840468  0.01052150  0.26090478  1
  Zr  Zr71  1  0.59040349  0.80732272  0.23672939  1
  Zr  Zr72  1  -0.00036747  0.80266522  -0.00825824  1
  Zr  Zr73  1  0.81205565  0.20541871  -0.00612305  1
  Zr  Zr74  1  0.00955349  0.80906989  0.24745055  1
  Zr  Zr75  1  0.48893073  0.70212121  0.36583197  1
  Zr  Zr76  1  0.81074392  0.40165150  0.50543343  1
  Zr  Zr77  1  0.50718178  0.48471740  0.12262865  1
  Zr  Zr78  1  0.78702614  0.80104892  0.75660790  1
  Zr  Zr79  1  0.88172962  0.91692667  0.86475232  1
  Ta  Ta80  1  0.01046491  0.00847321  0.74544382  1
  Ta  Ta81  1  0.09004041  0.10033924  0.12929878  1
  Ta  Ta82  1  0.09433550  0.49132444  0.88520239  1
  Ta  Ta83  1  0.40396148  0.80416136  0.50217001  1
  Ta  Ta84  1  0.10017232  0.69308991  0.63618126  1
  Ta  Ta85  1  0.50031919  0.30174583  0.88376049  1
  Ta  Ta86  1  0.00549936  0.59531127  0.23314496  1
  Ta  Ta87  1  0.89858514  0.30905786  0.86803647  1
  Ta  Ta88  1  0.21352540  0.01670178  -0.00450402  1
  Ta  Ta89  1  0.69680745  0.91098015  0.12723370  1
  Ta  Ta90  1  0.79469937  0.00129841  0.00150517  1
  Ta  Ta91  1  0.50128388  0.49551773  0.62399281  1
  Ta  Ta92  1  0.60338531  0.78989410  0.02088666  1
  Ta  Ta93  1  0.90036291  0.49961749  0.87690064  1
  Ta  Ta94  1  0.09947662  0.89307959  0.61752604  1
  Ta  Ta95  1  0.10954813  0.69958321  0.12165026  1
  Ta  Ta96  1  0.39463528  0.02288718  0.73142140  1
  Ta  Ta97  1  0.48507174  0.68348639  0.12191969  1
  Ta  Ta98  1  0.40236494  0.58625595  -0.01688686  1
  Ta  Ta99  1  0.59056936  0.79844319  0.75621198  1
  Ta  Ta100  1  0.50746429  0.29135335  0.11367134  1
  Ta  Ta101  1  0.00122636  0.59519827  0.75270758  1
  Ta  Ta102  1  0.60774634  0.37784233  0.25998903  1
  Ta  Ta103  1  0.69638041  0.70593469  0.36774332  1
  Ta  Ta104  1  0.19203552  0.21404911  0.26796221  1
  Ta  Ta105  1  0.20900021  0.61114516  0.23754404  1
  Ta  Ta106  1  0.40429235  0.20598311  0.24540338  1
  Ta  Ta107  1  0.09121643  0.09063456  0.39295095  1
  Ta  Ta108  1  0.69742802  0.89994674  0.37749401  1
  Ta  Ta109  1  0.70045771  0.30303526  0.63983115  1
  Ta  Ta110  1  0.20692655  -0.00810247  0.50740391  1
  Ta  Ta111  1  -0.00062916  0.19359259  0.74101557  1
  Ta  Ta112  1  0.88955125  0.48543326  0.13337972  1
  Ta  Ta113  1  0.59017609  0.40383427  0.75161409  1
  Ta  Ta114  1  0.80103010  0.59934862  0.49760344  1
  Ta  Ta115  1  0.79961185  0.01175023  0.49390055  1
  Ta  Ta116  1  0.10111028  0.89769257  0.39297630  1
  Ta  Ta117  1  0.20990321  0.39758451  -0.00639463  1
  Ta  Ta118  1  -0.00435320  0.21189900  0.49181221  1
  Ta  Ta119  1  0.60657904  0.41214632  -0.00918893  1
  Ti  Ti120  1  0.49253897  0.90054762  0.12105616  1
  Ti  Ti121  1  0.78602867  0.20810175  0.50060159  1
  Ti  Ti122  1  0.39420488  0.01051258  0.51380716  1
  Ti  Ti123  1  0.29924211  0.69726858  0.36929435  1
  Ti  Ti124  1  0.78987740  0.80358184  0.24620786  1
  Ti  Ti125  1  0.60657506  0.01319001  0.25406000  1
  Ti  Ti126  1  0.90637788  0.50843210  0.36155383  1
  Ti  Ti127  1  0.30613790  0.70476839  0.86279823  1
  Ti  Ti128  1  0.79736452  0.60083842  0.23939914  1
  Ti  Ti129  1  0.30509683  0.29600522  0.37835129  1
  Ti  Ti130  1  0.37489603  0.78630532  0.22847084  1
  Ti  Ti131  1  0.89553053  0.68830362  0.88117022  1
  Ti  Ti132  1  0.20168501  0.18116405  0.74659008  1
  Ti  Ti133  1  0.19746333  0.58932508  0.51192991  1
  Ti  Ti134  1  0.11380617  0.91657016  0.86644203  1
  Ti  Ti135  1  0.60155686  0.19907420  -0.01287771  1
  Ti  Ti136  1  -0.00263939  0.59465791  0.00914185  1
  Ti  Ti137  1  0.59739830  -0.01455401  -0.00692003  1
  Ti  Ti138  1  0.40171761  0.39778483  -0.00748353  1
  Ti  Ti139  1  0.09392970  0.30126117  0.62019315  1
  Ti  Ti140  1  0.20449777  0.80835424  0.74618497  1
  Ti  Ti141  1  0.50186317  0.49841802  0.37228078  1
  Ti  Ti142  1  0.91530832  0.11349858  0.86969251  1
  Ti  Ti143  1  0.81028386  0.59944264  0.75016676  1
  Ti  Ti144  1  0.20271133  0.00021367  0.73074641  1
  Ti  Ti145  1  0.70178001  0.70311573  0.88345812  1
  Ti  Ti146  1  0.90100636  0.10361578  0.12098991  1
  Ti  Ti147  1  0.90166788  0.29125786  0.12921854  1
  Ti  Ti148  1  0.90221297  0.10994014  0.61232001  1
  Ti  Ti149  1  0.29942125  0.30658619  0.12958206  1
  Ti  Ti150  1  0.10700469  0.49636670  0.12277237  1
  Ti  Ti151  1  0.40421615  0.39462712  0.49280525  1
  Ti  Ti152  1  0.69872387  0.10966398  0.38095919  1
  Ti  Ti153  1  0.18049726  -0.00352289  0.26172198  1
  Ti  Ti154  1  0.91079892  0.50038558  0.62896781  1
  Ti  Ti155  1  0.80924017  0.20511109  0.74848793  1
  Ti  Ti156  1  0.00516677  0.40622487  0.50244118  1
  Ti  Ti157  1  0.89688025  0.29996187  0.62577192  1
  Ti  Ti158  1  0.40378688  0.38997975  0.75973739  1
  Ti  Ti159  1  0.51305641  0.70498822  0.62309391  1
  Mo  Mo160  1  0.28301317  0.09282966  0.86734187  1
  Mo  Mo161  1  0.49339211  0.30538376  0.38066717  1
  Mo  Mo162  1  0.49359280  0.10723159  0.62129834  1
  Mo  Mo163  1  -0.00253032  0.19454203  0.00305645  1
  Mo  Mo164  1  0.29718169  0.90180414  0.63094156  1
  Mo  Mo165  1  0.69475756  0.70554257  0.13504243  1
  Mo  Mo166  1  0.00616484  0.00603454  0.25630904  1
  Mo  Mo167  1  0.29769569  0.90437666  0.12667708  1
  Mo  Mo168  1  0.19716915  0.19938738  0.47972188  1
  Mo  Mo169  1  0.50657122  0.89534110  0.88540392  1
  Mo  Mo170  1  0.39105580  -0.01143899  0.01437150  1
  Mo  Mo171  1  0.00867438  0.79876327  0.50376675  1
  Mo  Mo172  1  0.20218567  0.39675090  0.24321577  1
  Mo  Mo173  1  0.82592636  0.02934512  0.73798633  1
  Mo  Mo174  1  0.29782282  0.09914271  0.61195762  1
  Mo  Mo175  1  0.59744814  0.79738665  0.49328401  1
  Mo  Mo176  1  0.00278114  0.00152740  0.51008477  1
  Mo  Mo177  1  0.69893503  0.69896473  0.62355399  1
  Mo  Mo178  1  0.19153061  0.19530745  0.00617896  1
  Mo  Mo179  1  0.10051069  0.49945584  0.62615014  1
  Mo  Mo180  1  0.20216705  0.80271878  0.24736007  1
  Mo  Mo181  1  0.80329403  0.40118678  0.74155609  1
  Mo  Mo182  1  0.30091086  0.48772701  0.87654344  1
  Mo  Mo183  1  0.10830167  0.09495840  0.86272644  1
  Mo  Mo184  1  0.80111614  0.40929727  0.25123516  1
  Mo  Mo185  1  0.60760559  0.20437560  0.50774714  1
  Mo  Mo186  1  0.58697584  0.20341723  0.24237621  1
  Mo  Mo187  1  0.40242562  0.20196909  0.49327781  1
  Mo  Mo188  1  0.50406427  0.48973020  0.87786741  1
  Mo  Mo189  1  0.67985431  0.88746506  0.88931613  1
  Mo  Mo190  1  0.69974886  0.49949259  0.13301053  1
  Mo  Mo191  1  0.10391889  0.29763629  0.38034341  1
  Mo  Mo192  1  0.29479833  0.69749774  0.11645121  1
  Mo  Mo193  1  0.68538446  0.29239118  0.38035330  1
  Mo  Mo194  1  0.41099288  0.80590573  0.75395243  1
  Mo  Mo195  1  0.80480616  0.40296368  -0.00443557  1
  Mo  Mo196  1  0.40203650  0.60384876  0.24910528  1
  Mo  Mo197  1  0.89337303  0.10568194  0.39709744  1
  Mo  Mo198  1  0.59347886  0.60105579  0.01051759  1
  Mo  Mo199  1  0.39309270  0.20128934  0.75409066  1
