# generated using pymatgen
data_HfZrTaTiMo
_symmetry_space_group_name_H-M   'P 1'
_cell_length_a   15.22160643
_cell_length_b   15.22068756
_cell_length_c   16.83170972
_cell_angle_alpha   90.02649395
_cell_angle_beta   90.03761588
_cell_angle_gamma   89.86223459
_symmetry_Int_Tables_number   1
_chemical_formula_structural   HfZrTaTiMo
_chemical_formula_sum   'Hf40 Zr40 Ta40 Ti40 Mo40'
_cell_volume   3899.61378832
_cell_formula_units_Z   40
loop_
 _symmetry_equiv_pos_site_id
 _symmetry_equiv_pos_as_xyz
  1  'x, y, z'
loop_
 _atom_site_type_symbol
 _atom_site_label
 _atom_site_symmetry_multiplicity
 _atom_site_fract_x
 _atom_site_fract_y
 _atom_site_fract_z
 _atom_site_occupancy
  Hf  Hf0  1  0.49608099  0.90815047  0.38079526  1
  Hf  Hf1  1  0.80174561  0.62005852  0.00579248  1
  Hf  Hf2  1  0.50386106  0.29029194  0.89059209  1
  Hf  Hf3  1  0.50066560  0.09365853  0.89568286  1
  Hf  Hf4  1  0.19421343  0.79560783  0.49089758  1
  Hf  Hf5  1  -0.00337988  0.01299089  -0.01306461  1
  Hf  Hf6  1  0.18011850  0.79495801  0.75856980  1
  Hf  Hf7  1  0.52125831  0.69121398  0.87214915  1
  Hf  Hf8  1  0.78337915  0.61101759  0.75126255  1
  Hf  Hf9  1  0.60489698  0.38725434  0.49408518  1
  Hf  Hf10  1  0.29128145  0.29362624  0.11133196  1
  Hf  Hf11  1  0.08689466  0.29824003  0.62499193  1
  Hf  Hf12  1  0.39522479  0.39023798  0.24794383  1
  Hf  Hf13  1  0.39423163  0.61050868  0.25842351  1
  Hf  Hf14  1  0.29871756  0.50185888  0.63301268  1
  Hf  Hf15  1  0.09615372  0.90053447  0.13350462  1
  Hf  Hf16  1  0.70486994  0.88445965  0.86487146  1
  Hf  Hf17  1  0.28835093  0.50586587  0.87556748  1
  Hf  Hf18  1  0.80387878  0.41221719  0.49514090  1
  Hf  Hf19  1  0.40118264  0.39340497  0.75393101  1
  Hf  Hf20  1  0.29850040  0.90660426  0.86795859  1
  Hf  Hf21  1  0.69493554  0.13539092  0.61894176  1
  Hf  Hf22  1  0.20049659  -0.00504340  0.48959846  1
  Hf  Hf23  1  0.40438060  -0.00101964  0.24512408  1
  Hf  Hf24  1  0.49926008  0.89166768  0.87440160  1
  Hf  Hf25  1  0.08976625  0.68810320  0.12944439  1
  Hf  Hf26  1  0.10241925  0.50266956  0.36765400  1
  Hf  Hf27  1  0.01507864  0.59381718  0.76306776  1
  Hf  Hf28  1  0.79517764  0.20969294  0.75743743  1
  Hf  Hf29  1  0.80807578  0.38728564  0.23406899  1
  Hf  Hf30  1  0.88658935  0.90976735  0.13024752  1
  Hf  Hf31  1  0.51000983  0.10268520  0.11059465  1
  Hf  Hf32  1  0.09117900  0.30184011  0.37311493  1
  Hf  Hf33  1  0.70695851  0.90639832  0.36840508  1
  Hf  Hf34  1  0.20485257  0.40519752  0.50096118  1
  Hf  Hf35  1  0.30685627  0.29709690  0.62574800  1
  Hf  Hf36  1  -0.01917511  0.79436740  0.25676702  1
  Hf  Hf37  1  0.30989563  0.69854447  0.86454082  1
  Hf  Hf38  1  0.19487689  0.79599683  0.26652566  1
  Hf  Hf39  1  0.19541411  -0.00394091  -0.00397603  1
  Zr  Zr40  1  0.29671165  0.69744493  0.62754317  1
  Zr  Zr41  1  0.89516990  0.71173221  0.86613509  1
  Zr  Zr42  1  0.80800179  -0.00766269  0.51270983  1
  Zr  Zr43  1  0.90645324  0.50322726  0.62820161  1
  Zr  Zr44  1  0.60534423  0.78909648  0.01812539  1
  Zr  Zr45  1  0.09661959  0.11205565  0.12935103  1
  Zr  Zr46  1  0.81145865  0.40796654  0.75788232  1
  Zr  Zr47  1  0.09944707  0.90638837  0.62677813  1
  Zr  Zr48  1  -0.00898332  0.80447969  -0.00232717  1
  Zr  Zr49  1  0.90273449  0.09643659  0.38996588  1
  Zr  Zr50  1  0.17374659  0.39899151  0.76427264  1
  Zr  Zr51  1  0.72451976  0.09752704  0.12367786  1
  Zr  Zr52  1  0.20700654  0.00089990  0.25375226  1
  Zr  Zr53  1  0.09974796  0.10928962  0.36963462  1
  Zr  Zr54  1  0.19787013  0.18558376  0.76123364  1
  Zr  Zr55  1  0.57953063  0.80059548  0.24716925  1
  Zr  Zr56  1  0.80208000  0.00891283  0.73931608  1
  Zr  Zr57  1  0.61490490  -0.01311933  0.00194050  1
  Zr  Zr58  1  0.49202283  0.50077282  0.13728510  1
  Zr  Zr59  1  0.90502169  0.30239922  0.89803805  1
  Zr  Zr60  1  0.59559454  0.00942896  0.51039799  1
  Zr  Zr61  1  0.50008862  0.49730633  0.88065668  1
  Zr  Zr62  1  0.70574674  0.49792967  0.35486120  1
  Zr  Zr63  1  0.79875089  0.40993213  0.02333119  1
  Zr  Zr64  1  0.41370983  0.19216469  0.75003892  1
  Zr  Zr65  1  0.60236329  0.60266724  0.02493314  1
  Zr  Zr66  1  0.29255494  0.70685130  0.12887105  1
  Zr  Zr67  1  0.20195444  0.19882307  0.50062487  1
  Zr  Zr68  1  0.60805879  0.78011468  0.73380466  1
  Zr  Zr69  1  0.61101530  0.39234325  0.74941896  1
  Zr  Zr70  1  0.60088143  0.40258429  0.01814443  1
  Zr  Zr71  1  0.50817483  0.68718916  0.60733111  1
  Zr  Zr72  1  -0.00126933  0.39934555  0.22682204  1
  Zr  Zr73  1  0.59952780  0.01233758  0.73973857  1
  Zr  Zr74  1  0.19185385  0.79115747  -0.01380754  1
  Zr  Zr75  1  0.39989470  -0.00239907  0.74041995  1
  Zr  Zr76  1  0.28464241  0.50404035  0.12399501  1
  Zr  Zr77  1  0.30741318  0.29804015  0.37513031  1
  Zr  Zr78  1  0.69648633  0.69759721  0.36785483  1
  Zr  Zr79  1  -0.01371867  0.80662643  0.49655510  1
  Ta  Ta80  1  0.39178772  0.40237538  0.00207681  1
  Ta  Ta81  1  0.01612378  0.01312870  0.76005318  1
  Ta  Ta82  1  0.40720827  0.19417466  0.24184512  1
  Ta  Ta83  1  0.89597827  0.29834579  0.62457667  1
  Ta  Ta84  1  0.39586095  0.58720107  0.48997419  1
  Ta  Ta85  1  0.39565311  0.00053243  0.50546955  1
  Ta  Ta86  1  0.38754912  0.80685127  0.26418294  1
  Ta  Ta87  1  0.10034282  0.50171281  0.10331738  1
  Ta  Ta88  1  0.49901365  0.49428172  0.37019884  1
  Ta  Ta89  1  0.41824643  0.19480527  0.50581984  1
  Ta  Ta90  1  0.69956425  0.90193006  0.14656896  1
  Ta  Ta91  1  0.50627720  0.10945578  0.37162464  1
  Ta  Ta92  1  0.41452464  0.59678501  0.74515650  1
  Ta  Ta93  1  0.39236059  0.80155829  0.49113261  1
  Ta  Ta94  1  0.88871188  0.69010206  0.37753141  1
  Ta  Ta95  1  0.69440471  0.51180995  0.61903055  1
  Ta  Ta96  1  0.91741578  0.11155391  0.61957826  1
  Ta  Ta97  1  0.90536879  0.90673507  0.85666022  1
  Ta  Ta98  1  0.30793632  0.09860943  0.11024986  1
  Ta  Ta99  1  0.10077272  0.50377039  0.62379243  1
  Ta  Ta100  1  -0.00551555  0.59739214  0.49886656  1
  Ta  Ta101  1  0.89973595  0.26649948  0.10690196  1
  Ta  Ta102  1  0.31716997  0.09863393  0.37614726  1
  Ta  Ta103  1  0.29682268  0.89682308  0.62789075  1
  Ta  Ta104  1  0.50110400  0.48949983  0.61928352  1
  Ta  Ta105  1  0.69976186  0.51342218  0.88138489  1
  Ta  Ta106  1  0.08068870  0.90802489  0.37499903  1
  Ta  Ta107  1  0.19410323  0.59892632  0.49855511  1
  Ta  Ta108  1  0.69934802  0.30051255  0.89326912  1
  Ta  Ta109  1  0.90703241  0.50148024  0.36556904  1
  Ta  Ta110  1  0.71939000  0.70507593  0.15187573  1
  Ta  Ta111  1  0.29884163  0.29675216  0.88824192  1
  Ta  Ta112  1  0.52416617  0.28369220  0.62478226  1
  Ta  Ta113  1  -0.00061419  0.21013854  0.76731452  1
  Ta  Ta114  1  0.09125036  0.69250674  0.62439921  1
  Ta  Ta115  1  0.39762766  0.60922108  0.00485697  1
  Ta  Ta116  1  0.29599356  0.09247875  0.62238304  1
  Ta  Ta117  1  0.40228378  0.80088841  0.00211402  1
  Ta  Ta118  1  0.69794323  0.10974825  0.37632729  1
  Ta  Ta119  1  0.90923223  0.50408468  0.89132262  1
  Ti  Ti120  1  0.49312155  0.89462078  0.61552559  1
  Ti  Ti121  1  0.40833843  0.39529372  0.49759377  1
  Ti  Ti122  1  0.79348928  0.81113474  0.00412543  1
  Ti  Ti123  1  0.19430071  0.39956907  0.24334816  1
  Ti  Ti124  1  0.91184140  0.90503331  0.63758103  1
  Ti  Ti125  1  0.59035909  0.60378207  0.24737731  1
  Ti  Ti126  1  0.29196665  0.69127250  0.37932461  1
  Ti  Ti127  1  0.09590587  0.30419570  0.10019247  1
  Ti  Ti128  1  0.40621484  0.79584173  0.74059515  1
  Ti  Ti129  1  0.91204357  0.53328666  0.12309533  1
  Ti  Ti130  1  0.59689630  0.38529812  0.24219235  1
  Ti  Ti131  1  0.60399575  0.01772917  0.24896509  1
  Ti  Ti132  1  0.49666500  0.29017990  0.11612557  1
  Ti  Ti133  1  0.60042680  0.79995790  0.49915046  1
  Ti  Ti134  1  0.70546248  0.50833697  0.14803177  1
  Ti  Ti135  1  0.89801927  0.69909131  0.62577556  1
  Ti  Ti136  1  0.80261334  0.80228689  0.73334252  1
  Ti  Ti137  1  0.08822353  0.69072058  0.37291737  1
  Ti  Ti138  1  0.79804955  0.21619804  0.49758050  1
  Ti  Ti139  1  0.69429931  0.28185513  0.12229218  1
  Ti  Ti140  1  -0.00118974  0.39897201  0.49735598  1
  Ti  Ti141  1  0.19111897  0.19491133  -0.01304101  1
  Ti  Ti142  1  0.30764426  0.09901134  0.88815895  1
  Ti  Ti143  1  0.29800686  0.49864163  0.36973947  1
  Ti  Ti144  1  -0.00561484  0.20412633  0.24572436  1
  Ti  Ti145  1  0.80829319  -0.00016045  -0.01326063  1
  Ti  Ti146  1  0.50798500  0.29209770  0.36840596  1
  Ti  Ti147  1  0.79469750  0.79110528  0.50546401  1
  Ti  Ti148  1  0.70192960  0.29199851  0.36061310  1
  Ti  Ti149  1  0.69832109  0.89183079  0.62138122  1
  Ti  Ti150  1  0.60835494  0.59050326  0.48974110  1
  Ti  Ti151  1  0.49087850  0.89872832  0.12289002  1
  Ti  Ti152  1  0.89840562  0.29993063  0.37440019  1
  Ti  Ti153  1  0.30004934  0.90026974  0.12068034  1
  Ti  Ti154  1  -0.01770050  0.00548002  0.25366252  1
  Ti  Ti155  1  0.80688806  0.18775362  0.25245915  1
  Ti  Ti156  1  0.09863730  0.10110627  0.62195266  1
  Ti  Ti157  1  0.70104527  0.10698362  0.87969684  1
  Ti  Ti158  1  0.49505019  0.69542155  0.38678918  1
  Ti  Ti159  1  0.21025389  0.20407400  0.24759813  1
  Mo  Mo160  1  0.09190784  0.89815936  0.86321757  1
  Mo  Mo161  1  0.00350267  0.60907465  -0.01118404  1
  Mo  Mo162  1  0.59968746  0.58617100  0.74257754  1
  Mo  Mo163  1  0.00285021  0.00482964  0.50628786  1
  Mo  Mo164  1  0.19314915  0.59432117  0.25817285  1
  Mo  Mo165  1  -0.00761638  0.40499714  0.02004872  1
  Mo  Mo166  1  0.70772177  0.69673032  0.60670624  1
  Mo  Mo167  1  0.39636920  -0.00989840  0.00678119  1
  Mo  Mo168  1  0.89952676  0.71238515  0.12308006  1
  Mo  Mo169  1  0.71047982  0.31525575  0.62167362  1
  Mo  Mo170  1  0.20327495  0.00212118  0.75019044  1
  Mo  Mo171  1  0.39455234  0.19859821  0.00157571  1
  Mo  Mo172  1  0.80357002  0.60417418  0.50081224  1
  Mo  Mo173  1  0.09834352  0.30242891  0.89409153  1
  Mo  Mo174  1  0.90793118  0.09610814  0.12768006  1
  Mo  Mo175  1  0.48585335  0.70773510  0.13199639  1
  Mo  Mo176  1  0.00571633  0.19512234  -0.01223023  1
  Mo  Mo177  1  0.10259190  0.68701932  0.87717485  1
  Mo  Mo178  1  0.19997218  0.59728737  0.74879192  1
  Mo  Mo179  1  0.49615474  0.10173552  0.61986645  1
  Mo  Mo180  1  0.80207082  0.18475914  -0.01117560  1
  Mo  Mo181  1  0.89688423  0.89613574  0.37851856  1
  Mo  Mo182  1  0.60639104  0.20748384  0.48844588  1
  Mo  Mo183  1  0.60977125  0.20031649  0.00220771  1
  Mo  Mo184  1  0.10521859  0.10012018  0.87435678  1
  Mo  Mo185  1  0.81961288  0.60104708  0.24450225  1
  Mo  Mo186  1  0.80007348  0.00367635  0.26067587  1
  Mo  Mo187  1  0.19666743  0.39663336  -0.01013806  1
  Mo  Mo188  1  -0.00831374  0.21031186  0.50326051  1
  Mo  Mo189  1  -0.00295301  0.39453484  0.75761352  1
  Mo  Mo190  1  0.29753009  0.89963187  0.37911259  1
  Mo  Mo191  1  0.60699468  0.20167658  0.75961553  1
  Mo  Mo192  1  0.09265949  0.49740640  0.90003819  1
  Mo  Mo193  1  0.20068531  0.60232199  -0.00580599  1
  Mo  Mo194  1  0.89568190  0.10000363  0.86699944  1
  Mo  Mo195  1  0.60281377  0.20498083  0.24791497  1
  Mo  Mo196  1  0.79947175  0.80547071  0.25874570  1
  Mo  Mo197  1  0.00176399  0.59854562  0.25132639  1
  Mo  Mo198  1  -0.00845205  0.80085914  0.74222709  1
  Mo  Mo199  1  0.70082921  0.69936212  0.87746380  1
