# generated using pymatgen
data_HfZrTaTiMo
_symmetry_space_group_name_H-M   'P 1'
_cell_length_a   15.23375286
_cell_length_b   15.20719055
_cell_length_c   16.82064353
_cell_angle_alpha   89.95847673
_cell_angle_beta   90.04848650
_cell_angle_gamma   90.14590699
_symmetry_Int_Tables_number   1
_chemical_formula_structural   HfZrTaTiMo
_chemical_formula_sum   'Hf40 Zr40 Ta40 Ti40 Mo40'
_cell_volume   3896.69867236
_cell_formula_units_Z   40
loop_
 _symmetry_equiv_pos_site_id
 _symmetry_equiv_pos_as_xyz
  1  'x, y, z'
loop_
 _atom_site_type_symbol
 _atom_site_label
 _atom_site_symmetry_multiplicity
 _atom_site_fract_x
 _atom_site_fract_y
 _atom_site_fract_z
 _atom_site_occupancy
  Hf  Hf0  1  0.81458684  0.39883920  0.01869863  1
  Hf  Hf1  1  0.71563580  0.29733753  0.36503418  1
  Hf  Hf2  1  0.89319067  0.70625740  0.12689296  1
  Hf  Hf3  1  0.40625733  0.40867303  0.24914672  1
  Hf  Hf4  1  0.30572995  0.88419821  0.12264314  1
  Hf  Hf5  1  0.49903222  0.31135236  0.62477891  1
  Hf  Hf6  1  0.60044739  -0.00365328  0.24038915  1
  Hf  Hf7  1  0.08540128  0.11044209  0.86509918  1
  Hf  Hf8  1  0.00429903  0.40798354  0.23709099  1
  Hf  Hf9  1  0.90706449  0.49527901  0.37100974  1
  Hf  Hf10  1  0.30292824  0.51408747  0.10577139  1
  Hf  Hf11  1  0.20578570  0.40715946  0.24207199  1
  Hf  Hf12  1  0.38019566  -0.01202040  0.74338605  1
  Hf  Hf13  1  0.58446185  0.79303268  0.24503698  1
  Hf  Hf14  1  0.00331122  0.39898354  0.51010656  1
  Hf  Hf15  1  0.60509482  0.41340646  0.26579106  1
  Hf  Hf16  1  0.29740275  0.09647683  0.11534392  1
  Hf  Hf17  1  0.68539927  0.69037488  0.12141582  1
  Hf  Hf18  1  0.52041085  0.51496216  0.12916175  1
  Hf  Hf19  1  0.17957550  0.00018401  0.50936255  1
  Hf  Hf20  1  0.09288927  0.30397783  0.37099336  1
  Hf  Hf21  1  0.10503684  0.28934883  0.62975315  1
  Hf  Hf22  1  0.80126820  0.18109646  0.74631061  1
  Hf  Hf23  1  -0.01018480  0.18143709  0.49612101  1
  Hf  Hf24  1  0.31299335  0.29737163  0.10951256  1
  Hf  Hf25  1  0.39766899  0.40702467  0.75351590  1
  Hf  Hf26  1  0.61976066  0.39499933  0.00585297  1
  Hf  Hf27  1  0.19665788  0.19183322  0.24735058  1
  Hf  Hf28  1  -0.00397435  0.41298964  0.73519210  1
  Hf  Hf29  1  0.70920008  0.49112248  0.86745417  1
  Hf  Hf30  1  0.51052206  0.29644825  0.87406507  1
  Hf  Hf31  1  0.19831332  0.78381357  0.24050806  1
  Hf  Hf32  1  0.69627603  0.69703102  0.86757429  1
  Hf  Hf33  1  0.19032694  0.79328280  0.52203906  1
  Hf  Hf34  1  0.51129183  0.89176410  0.62773725  1
  Hf  Hf35  1  0.80332616  0.59572621  -0.00167723  1
  Hf  Hf36  1  0.40033565  0.41420649  0.49931094  1
  Hf  Hf37  1  0.19583283  0.19895092  0.49584276  1
  Hf  Hf38  1  0.81962785  0.59742078  0.75207174  1
  Hf  Hf39  1  0.60394737  0.42018534  0.48072240  1
  Zr  Zr40  1  0.38556388  0.00123534  0.51699495  1
  Zr  Zr41  1  0.08988089  0.31782821  0.88331008  1
  Zr  Zr42  1  0.01181078  0.60477515  0.01274479  1
  Zr  Zr43  1  0.28673249  0.69111553  0.38713926  1
  Zr  Zr44  1  0.39815147  0.62129797  0.24776420  1
  Zr  Zr45  1  0.50100425  0.09966710  0.87557571  1
  Zr  Zr46  1  0.19013173  0.18975634  -0.00483071  1
  Zr  Zr47  1  0.18761202  0.78709777  -0.00034715  1
  Zr  Zr48  1  0.91227017  0.90557548  0.12037399  1
  Zr  Zr49  1  0.80776056  0.38932108  0.50447919  1
  Zr  Zr50  1  0.29820850  0.30235312  0.37687841  1
  Zr  Zr51  1  0.01245308  0.60388380  0.51481870  1
  Zr  Zr52  1  0.89193545  0.71044710  0.62244166  1
  Zr  Zr53  1  0.17786797  -0.01060751  0.23722264  1
  Zr  Zr54  1  0.50035291  0.89630444  0.39127009  1
  Zr  Zr55  1  0.09903731  0.28892133  0.12152154  1
  Zr  Zr56  1  0.49048275  0.69807515  0.86203374  1
  Zr  Zr57  1  0.29840469  0.89031523  0.37723416  1
  Zr  Zr58  1  0.49181997  0.10255723  0.37739506  1
  Zr  Zr59  1  0.10733525  0.52398908  0.87356542  1
  Zr  Zr60  1  0.50204153  0.12766214  0.10832905  1
  Zr  Zr61  1  0.70387299  0.88786888  0.37810728  1
  Zr  Zr62  1  0.70974076  0.09476874  0.36227229  1
  Zr  Zr63  1  0.38695668  0.20187553  0.75486622  1
  Zr  Zr64  1  0.50761259  0.10997994  0.63656116  1
  Zr  Zr65  1  0.39812169  -0.00200199  0.24806261  1
  Zr  Zr66  1  0.30508231  0.50147160  0.89119293  1
  Zr  Zr67  1  0.61830506  0.00510071  0.51021909  1
  Zr  Zr68  1  0.69571255  0.28342377  0.62713049  1
  Zr  Zr69  1  0.69864234  0.50585191  0.62996776  1
  Zr  Zr70  1  0.11570025  0.91094741  0.86316026  1
  Zr  Zr71  1  0.89655815  0.70082492  0.37580654  1
  Zr  Zr72  1  0.50130506  0.90196318  0.87348045  1
  Zr  Zr73  1  0.50193485  0.90208122  0.10697795  1
  Zr  Zr74  1  0.60080357  0.62073414  0.49543793  1
  Zr  Zr75  1  0.42159976  0.40053982  0.00270351  1
  Zr  Zr76  1  0.60100104  0.20752807  0.49047883  1
  Zr  Zr77  1  0.78610120  0.20128329  0.00783437  1
  Zr  Zr78  1  0.20392257  0.40497164  0.74447788  1
  Zr  Zr79  1  0.20321894  0.80421184  0.73541852  1
  Ta  Ta80  1  0.69315628  0.70826922  0.64195200  1
  Ta  Ta81  1  0.40066177  0.78367229  0.52135640  1
  Ta  Ta82  1  0.28661492  0.08011347  0.87577685  1
  Ta  Ta83  1  0.80855880  0.39111000  0.74230480  1
  Ta  Ta84  1  -0.00617454  0.79695012  0.76492962  1
  Ta  Ta85  1  -0.00490378  0.80119783  -0.02183694  1
  Ta  Ta86  1  0.68649080  0.29521660  0.14116457  1
  Ta  Ta87  1  0.70858490  0.89205271  0.11339558  1
  Ta  Ta88  1  0.49120040  0.70549687  0.38317664  1
  Ta  Ta89  1  0.09239715  0.89213185  0.37700627  1
  Ta  Ta90  1  0.50326301  0.69265313  0.64465230  1
  Ta  Ta91  1  0.80733066  0.00277912  0.00332942  1
  Ta  Ta92  1  0.39303159  0.20221578  0.50515653  1
  Ta  Ta93  1  0.19838415  0.41146336  0.50788635  1
  Ta  Ta94  1  0.00305601  0.80462510  0.24917438  1
  Ta  Ta95  1  0.59499091  0.59699663  -0.00715333  1
  Ta  Ta96  1  0.91144863  0.49190987  0.87724178  1
  Ta  Ta97  1  0.40030791  0.20671169  0.24959652  1
  Ta  Ta98  1  0.71594784  0.89311244  0.62699812  1
  Ta  Ta99  1  0.61480957  0.01016472  0.00523230  1
  Ta  Ta100  1  0.82460993  -0.00661887  0.50025373  1
  Ta  Ta101  1  0.51071308  0.50559390  0.86568913  1
  Ta  Ta102  1  0.80053965  0.40748769  0.23712966  1
  Ta  Ta103  1  0.28448478  0.69334862  0.86695500  1
  Ta  Ta104  1  0.80818000  0.80815770  0.76983002  1
  Ta  Ta105  1  0.89019503  0.09999929  0.87995553  1
  Ta  Ta106  1  0.11316972  0.51161434  0.37714794  1
  Ta  Ta107  1  0.80458481  0.79992532  -0.01742003  1
  Ta  Ta108  1  0.08443057  0.90915682  0.63834438  1
  Ta  Ta109  1  0.90292406  0.09599384  0.35624947  1
  Ta  Ta110  1  -0.00803108  0.81735871  0.50243200  1
  Ta  Ta111  1  0.70608512  0.29341558  0.86520424  1
  Ta  Ta112  1  -0.01931636  0.00215797  0.75691189  1
  Ta  Ta113  1  0.79246189  0.79514065  0.24928409  1
  Ta  Ta114  1  0.00883309  0.60494675  0.23918555  1
  Ta  Ta115  1  0.90633044  0.27961944  0.63082874  1
  Ta  Ta116  1  0.70292328  0.91163900  0.88386318  1
  Ta  Ta117  1  0.70766958  0.09763747  0.13472504  1
  Ta  Ta118  1  0.60471361  0.39755522  0.74940909  1
  Ta  Ta119  1  -0.01804281  0.19667811  0.00498833  1
  Ti  Ti120  1  0.78648602  0.79127464  0.49905302  1
  Ti  Ti121  1  0.90259456  0.28722279  0.35743598  1
  Ti  Ti122  1  0.19270513  0.59679974  0.23626564  1
  Ti  Ti123  1  0.21279683  0.59481631  0.52610383  1
  Ti  Ti124  1  0.61000354  0.60268336  0.27669885  1
  Ti  Ti125  1  0.79792159  0.59199846  0.49883194  1
  Ti  Ti126  1  0.47951490  0.70858248  0.10851251  1
  Ti  Ti127  1  0.29454183  0.09743308  0.37442385  1
  Ti  Ti128  1  0.27834706  0.10534443  0.63191406  1
  Ti  Ti129  1  0.09436043  0.69945095  0.37699709  1
  Ti  Ti130  1  0.19219452  -0.01258316  0.00776584  1
  Ti  Ti131  1  0.08943441  0.08990103  0.36883941  1
  Ti  Ti132  1  0.79642251  0.59509140  0.24974447  1
  Ti  Ti133  1  0.30070336  0.30159840  0.62063058  1
  Ti  Ti134  1  0.90026698  0.90547771  0.63001050  1
  Ti  Ti135  1  0.89636703  0.28830359  0.14130555  1
  Ti  Ti136  1  0.49501827  0.51266773  0.63564533  1
  Ti  Ti137  1  0.90493267  0.90266781  0.36779393  1
  Ti  Ti138  1  0.30374225  0.50761263  0.37834257  1
  Ti  Ti139  1  0.80003778  0.18075899  0.50629888  1
  Ti  Ti140  1  0.20740424  0.60288107  0.72540868  1
  Ti  Ti141  1  0.01270726  0.60775771  0.73533260  1
  Ti  Ti142  1  0.29814181  0.29524099  0.89275354  1
  Ti  Ti143  1  0.60217386  0.79854805  -0.00649882  1
  Ti  Ti144  1  0.39196930  -0.00138870  -0.00960007  1
  Ti  Ti145  1  0.91014169  0.10197670  0.14167220  1
  Ti  Ti146  1  0.49311848  0.30489220  0.37746922  1
  Ti  Ti147  1  0.89968520  0.29856832  0.87246819  1
  Ti  Ti148  1  0.79708173  -0.00913628  0.75544902  1
  Ti  Ti149  1  0.59135134  0.20424537  0.25502825  1
  Ti  Ti150  1  0.80516820  -0.01164719  0.24220469  1
  Ti  Ti151  1  0.19726266  0.20141062  0.75987024  1
  Ti  Ti152  1  0.00495300  0.00325598  -0.00488881  1
  Ti  Ti153  1  0.00186694  0.40432179  0.01832601  1
  Ti  Ti154  1  0.38983165  0.79325558  0.74060801  1
  Ti  Ti155  1  0.38635370  0.79502928  -0.01584215  1
  Ti  Ti156  1  0.60926280  0.81126423  0.75606944  1
  Ti  Ti157  1  0.61516227  0.00959338  0.74411194  1
  Ti  Ti158  1  0.69255082  0.10506627  0.87735409  1
  Ti  Ti159  1  0.07607096  0.10191444  0.64207092  1
  Mo  Mo160  1  0.00255769  0.19390014  0.25243376  1
  Mo  Mo161  1  0.10050676  0.69915515  0.86045172  1
  Mo  Mo162  1  0.08275300  0.08672548  0.11427985  1
  Mo  Mo163  1  0.39991818  0.79869524  0.25034768  1
  Mo  Mo164  1  0.30877387  0.49626207  0.62384943  1
  Mo  Mo165  1  0.09403273  0.70827856  0.63082170  1
  Mo  Mo166  1  0.90910121  0.68963785  0.87318356  1
  Mo  Mo167  1  0.20547438  0.60932462  0.00187074  1
  Mo  Mo168  1  0.70552705  0.50606711  0.12924187  1
  Mo  Mo169  1  0.40388252  0.59831620  0.50334561  1
  Mo  Mo170  1  0.50520867  0.30491698  0.13507578  1
  Mo  Mo171  1  0.39159433  0.60002432  0.75079027  1
  Mo  Mo172  1  0.30121929  0.69943510  0.11592352  1
  Mo  Mo173  1  -0.00853307  0.20755443  0.75529352  1
  Mo  Mo174  1  0.10526580  0.50121442  0.62464761  1
  Mo  Mo175  1  0.90139476  0.50367054  0.13510212  1
  Mo  Mo176  1  0.09391460  0.70504300  0.12867041  1
  Mo  Mo177  1  -0.00132982  -0.00669092  0.25254223  1
  Mo  Mo178  1  0.90062416  0.90742165  0.88134338  1
  Mo  Mo179  1  0.30471301  0.89577727  0.87755290  1
  Mo  Mo180  1  0.29801573  0.90299829  0.61896158  1
  Mo  Mo181  1  0.89665113  0.49534076  0.62162129  1
  Mo  Mo182  1  0.60583563  0.20387552  0.00138245  1
  Mo  Mo183  1  0.19053696  0.40567703  0.00697690  1
  Mo  Mo184  1  -0.00101535  -0.00472788  0.49713657  1
  Mo  Mo185  1  0.79970922  0.19814509  0.24100079  1
  Mo  Mo186  1  0.60505577  0.19927069  0.75010041  1
  Mo  Mo187  1  0.60229396  0.59652149  0.75077687  1
  Mo  Mo188  1  0.19250684  0.01126937  0.73772106  1
  Mo  Mo189  1  0.90126002  0.08609926  0.62809829  1
  Mo  Mo190  1  0.49429154  0.51308261  0.37377591  1
  Mo  Mo191  1  0.71136062  0.08166811  0.62451736  1
  Mo  Mo192  1  0.09137328  0.89473262  0.11480937  1
  Mo  Mo193  1  0.31031935  0.69344271  0.62757563  1
  Mo  Mo194  1  0.10778584  0.49997079  0.11814265  1
  Mo  Mo195  1  0.40882326  0.61230529  -0.00516563  1
  Mo  Mo196  1  0.70358682  0.70296222  0.37109108  1
  Mo  Mo197  1  0.60200656  0.79811775  0.51338661  1
  Mo  Mo198  1  0.71680808  0.50990072  0.37707920  1
  Mo  Mo199  1  0.39455367  0.19243328  -0.01859758  1
