# generated using pymatgen
data_HfZrTaTiMo
_symmetry_space_group_name_H-M   'P 1'
_cell_length_a   15.21462520
_cell_length_b   15.21297892
_cell_length_c   16.85776597
_cell_angle_alpha   90.00706928
_cell_angle_beta   90.00564034
_cell_angle_gamma   90.07964052
_symmetry_Int_Tables_number   1
_chemical_formula_structural   HfZrTaTiMo
_chemical_formula_sum   'Hf40 Zr40 Ta40 Ti40 Mo40'
_cell_volume   3901.89085692
_cell_formula_units_Z   40
loop_
 _symmetry_equiv_pos_site_id
 _symmetry_equiv_pos_as_xyz
  1  'x, y, z'
loop_
 _atom_site_type_symbol
 _atom_site_label
 _atom_site_symmetry_multiplicity
 _atom_site_fract_x
 _atom_site_fract_y
 _atom_site_fract_z
 _atom_site_occupancy
  Hf  Hf0  1  0.29841163  0.30179277  0.61214302  1
  Hf  Hf1  1  0.40567473  0.00359737  0.75597428  1
  Hf  Hf2  1  0.58715389  0.58431916  0.49014555  1
  Hf  Hf3  1  -0.01075953  0.59957740  0.23656848  1
  Hf  Hf4  1  0.00845325  0.78608922  0.50741709  1
  Hf  Hf5  1  0.20617501  0.79743002  0.22922250  1
  Hf  Hf6  1  0.39945109  0.61601189  0.24818375  1
  Hf  Hf7  1  0.90242316  0.90088262  0.37530411  1
  Hf  Hf8  1  0.80584599  0.59208924  0.50500156  1
  Hf  Hf9  1  0.48942321  0.70913605  0.61132507  1
  Hf  Hf10  1  0.20147282  0.01039131  0.49684613  1
  Hf  Hf11  1  0.88609099  0.70879548  0.10746830  1
  Hf  Hf12  1  0.48806097  0.71500876  0.38428876  1
  Hf  Hf13  1  0.48961822  0.50183181  0.62532734  1
  Hf  Hf14  1  0.41014338  0.40447788  0.47673480  1
  Hf  Hf15  1  0.70609623  0.88444482  0.88934013  1
  Hf  Hf16  1  0.00405366  0.19216852  0.75553413  1
  Hf  Hf17  1  0.68916653  0.70349996  0.61717344  1
  Hf  Hf18  1  0.09861699  0.30931585  0.87241249  1
  Hf  Hf19  1  0.19325141  0.60096345  0.23919233  1
  Hf  Hf20  1  0.51569698  0.30436116  0.62030974  1
  Hf  Hf21  1  0.90398862  0.49751103  0.62968292  1
  Hf  Hf22  1  0.68685286  0.48666817  0.63142142  1
  Hf  Hf23  1  -0.00080702  0.40198659  0.00582819  1
  Hf  Hf24  1  0.80968653  0.21026279  0.25352717  1
  Hf  Hf25  1  0.50396955  0.90940030  0.36589587  1
  Hf  Hf26  1  0.68732099  0.10314561  0.36050440  1
  Hf  Hf27  1  0.60594859  0.78781611  0.75982749  1
  Hf  Hf28  1  -0.00509048  0.20026739  -0.00087245  1
  Hf  Hf29  1  0.00318266  0.00262861  0.01002901  1
  Hf  Hf30  1  0.79759673  0.79349259  0.24966746  1
  Hf  Hf31  1  0.91019764  0.68961618  0.38169538  1
  Hf  Hf32  1  0.50148603  0.09677909  0.62021127  1
  Hf  Hf33  1  0.70773592  0.89308227  0.11092398  1
  Hf  Hf34  1  0.40206558  -0.01313491  0.49324044  1
  Hf  Hf35  1  0.20025756  0.59965328  0.01295798  1
  Hf  Hf36  1  0.69996504  0.30860369  0.87355891  1
  Hf  Hf37  1  0.40199007  0.21464238  0.26120435  1
  Hf  Hf38  1  0.30332838  0.90327492  0.88914404  1
  Hf  Hf39  1  0.21037601  -0.00084402  0.24083680  1
  Zr  Zr40  1  0.37661353  0.60265995  0.49170482  1
  Zr  Zr41  1  0.51610630  0.50168170  0.13416444  1
  Zr  Zr42  1  0.19256774  0.41200001  0.74424778  1
  Zr  Zr43  1  0.40809023  0.19447657  0.48313416  1
  Zr  Zr44  1  0.40773327  0.80850009  0.75576602  1
  Zr  Zr45  1  0.00235556  0.00166365  0.49636282  1
  Zr  Zr46  1  0.59368596  0.19279716  -0.00915103  1
  Zr  Zr47  1  0.08508149  0.50040257  0.37153254  1
  Zr  Zr48  1  0.70020483  0.08988356  0.62588715  1
  Zr  Zr49  1  0.50751516  0.11162488  0.12854101  1
  Zr  Zr50  1  0.58620217  0.78801390  0.00548190  1
  Zr  Zr51  1  0.91741316  0.09871895  0.62152301  1
  Zr  Zr52  1  -0.01041366  0.38689529  0.24849359  1
  Zr  Zr53  1  0.00059546  0.59977427  0.76265687  1
  Zr  Zr54  1  0.80642089  -0.00340959  0.24443530  1
  Zr  Zr55  1  0.79116926  0.59148755  0.25943512  1
  Zr  Zr56  1  0.80256112  -0.00285085  0.75401325  1
  Zr  Zr57  1  0.79156149  0.60736406  0.75216781  1
  Zr  Zr58  1  0.80783175  0.00903989  0.00137160  1
  Zr  Zr59  1  0.20593454  0.79584697  0.74879236  1
  Zr  Zr60  1  -0.00076370  0.80574683  0.23761935  1
  Zr  Zr61  1  0.80511578  0.19936473  0.75821734  1
  Zr  Zr62  1  0.38718949  0.60969150  0.75202454  1
  Zr  Zr63  1  0.10089206  0.90796103  0.63721352  1
  Zr  Zr64  1  0.40234830  0.40880109  0.75303037  1
  Zr  Zr65  1  0.30943462  0.11139676  0.12012370  1
  Zr  Zr66  1  0.30379387  0.48667081  0.13366010  1
  Zr  Zr67  1  0.39542322  0.19865846  0.74854050  1
  Zr  Zr68  1  -0.00942893  0.59557206  -0.00367819  1
  Zr  Zr69  1  0.69132685  0.66646251  0.11351497  1
  Zr  Zr70  1  0.29519145  0.30578400  0.87934384  1
  Zr  Zr71  1  0.11480424  0.89911945  0.36958919  1
  Zr  Zr72  1  0.69306693  0.29681889  0.12002763  1
  Zr  Zr73  1  0.19049414  0.40059249  0.49458012  1
  Zr  Zr74  1  0.69483397  0.70409156  0.38882132  1
  Zr  Zr75  1  0.10423048  0.09361964  0.87859854  1
  Zr  Zr76  1  0.59586633  0.18883440  0.76101442  1
  Zr  Zr77  1  0.91552754  0.90172101  0.86494663  1
  Zr  Zr78  1  0.80020996  0.81374596  0.51480403  1
  Zr  Zr79  1  0.59144856  0.79229739  0.23516632  1
  Ta  Ta80  1  0.62305220  0.20471383  0.49701558  1
  Ta  Ta81  1  0.91426484  0.11026872  0.37065574  1
  Ta  Ta82  1  0.09153222  0.29640451  0.62745691  1
  Ta  Ta83  1  0.78922963  0.38476065  0.50285237  1
  Ta  Ta84  1  0.59582414  0.40041047  -0.00161470  1
  Ta  Ta85  1  0.79313589  0.41268520  -0.00449035  1
  Ta  Ta86  1  0.59571119  -0.01503687  0.76856412  1
  Ta  Ta87  1  0.29178108  0.70332562  0.89392032  1
  Ta  Ta88  1  0.40850976  0.60349023  0.00988835  1
  Ta  Ta89  1  0.10734971  0.89642044  0.87190293  1
  Ta  Ta90  1  0.20817049  0.00981177  0.75027924  1
  Ta  Ta91  1  0.09753694  0.71078467  0.88432355  1
  Ta  Ta92  1  0.29044673  0.50715980  0.36431514  1
  Ta  Ta93  1  0.48883163  0.69571714  0.88429874  1
  Ta  Ta94  1  0.39254777  0.81215295  0.22865872  1
  Ta  Ta95  1  0.79694365  0.00884464  0.49305994  1
  Ta  Ta96  1  0.30146072  0.09235839  0.36707587  1
  Ta  Ta97  1  0.30303311  0.50935414  0.88778907  1
  Ta  Ta98  1  0.20187958  0.20523120  0.00605971  1
  Ta  Ta99  1  0.20267839  0.38268451  0.25612883  1
  Ta  Ta100  1  0.38716354  0.80228017  0.01935717  1
  Ta  Ta101  1  0.69579324  0.90207941  0.37242085  1
  Ta  Ta102  1  0.79199843  0.40067414  0.25184694  1
  Ta  Ta103  1  0.52351643  0.90011941  0.62094996  1
  Ta  Ta104  1  0.81766033  0.20112611  0.49211600  1
  Ta  Ta105  1  0.69653043  0.09541056  0.13217014  1
  Ta  Ta106  1  0.30870888  0.10485724  0.89205232  1
  Ta  Ta107  1  0.20339321  0.19814364  0.74562503  1
  Ta  Ta108  1  0.68504402  0.47416334  0.38178918  1
  Ta  Ta109  1  0.21162224  0.80564569  0.50559317  1
  Ta  Ta110  1  0.53398233  0.29943600  0.37424218  1
  Ta  Ta111  1  0.18003360  0.61101340  0.49748275  1
  Ta  Ta112  1  0.40583862  0.40005558  0.00323803  1
  Ta  Ta113  1  0.09228353  0.69062312  0.63032476  1
  Ta  Ta114  1  -0.01367722  0.38997700  0.49676027  1
  Ta  Ta115  1  0.28818011  0.71862135  0.37334225  1
  Ta  Ta116  1  0.10980765  0.29357379  0.12952062  1
  Ta  Ta117  1  0.49587817  0.30427300  0.87634005  1
  Ta  Ta118  1  0.20627739  -0.00290628  0.01058988  1
  Ta  Ta119  1  0.00518030  0.00962890  0.24180239  1
  Ti  Ti120  1  0.10163141  0.69993626  0.37125513  1
  Ti  Ti121  1  0.29543845  0.10126259  0.61848080  1
  Ti  Ti122  1  0.19866379  0.60343956  0.75812991  1
  Ti  Ti123  1  0.10504525  0.50330780  0.87918013  1
  Ti  Ti124  1  0.28609011  0.50908545  0.61912578  1
  Ti  Ti125  1  0.10291002  0.10752052  0.13045014  1
  Ti  Ti126  1  0.88896588  0.48659387  0.38180983  1
  Ti  Ti127  1  -0.00225558  0.81079850  0.00310040  1
  Ti  Ti128  1  0.40918179  0.00405322  0.25152752  1
  Ti  Ti129  1  0.90125942  0.10873994  0.13110612  1
  Ti  Ti130  1  0.80665093  0.79502488  0.74013374  1
  Ti  Ti131  1  0.59972724  0.38851795  0.24550817  1
  Ti  Ti132  1  0.60089188  0.57930679  -0.01512521  1
  Ti  Ti133  1  0.60743034  0.00012589  0.49537885  1
  Ti  Ti134  1  0.89179645  0.49433328  0.87042111  1
  Ti  Ti135  1  0.90234100  0.30217776  0.62918634  1
  Ti  Ti136  1  0.90050877  0.30360957  0.87573382  1
  Ti  Ti137  1  0.89416996  0.70934958  0.88354094  1
  Ti  Ti138  1  0.09440116  0.48932368  0.13058527  1
  Ti  Ti139  1  0.80178924  0.20366657  -0.00505752  1
  Ti  Ti140  1  0.31417785  0.90190322  0.62647307  1
  Ti  Ti141  1  0.10192747  0.90309193  0.11990418  1
  Ti  Ti142  1  0.79970971  0.40175349  0.75177938  1
  Ti  Ti143  1  0.70176592  0.09192629  0.88068315  1
  Ti  Ti144  1  0.87733398  0.50159585  0.12050747  1
  Ti  Ti145  1  0.20170369  0.39937985  0.00832718  1
  Ti  Ti146  1  0.58825248  0.58397009  0.76828214  1
  Ti  Ti147  1  0.27934178  0.28988312  0.38049717  1
  Ti  Ti148  1  0.02120691  0.20270086  0.49679755  1
  Ti  Ti149  1  0.29000153  0.70289406  0.61936570  1
  Ti  Ti150  1  0.89723179  0.30316048  0.11937061  1
  Ti  Ti151  1  0.40465104  0.40291949  0.26566736  1
  Ti  Ti152  1  0.70310689  0.68703286  0.88713855  1
  Ti  Ti153  1  0.09272552  0.49610468  0.62244757  1
  Ti  Ti154  1  0.50073311  0.91695091  0.11933231  1
  Ti  Ti155  1  0.90620236  0.89620133  0.63704292  1
  Ti  Ti156  1  0.10941556  0.12018675  0.36076780  1
  Ti  Ti157  1  0.70715981  0.29452282  0.63348472  1
  Ti  Ti158  1  0.09474742  0.70399394  0.11127777  1
  Ti  Ti159  1  0.59758743  0.59007754  0.26591376  1
  Mo  Mo160  1  0.59621344  -0.00420839  -0.01134382  1
  Mo  Mo161  1  0.49451028  0.69907495  0.12439036  1
  Mo  Mo162  1  -0.01071535  0.39631651  0.75389606  1
  Mo  Mo163  1  0.60227811  0.39012314  0.50226018  1
  Mo  Mo164  1  0.00085449  0.58850438  0.50596214  1
  Mo  Mo165  1  0.60139318  0.20359604  0.24623975  1
  Mo  Mo166  1  0.89749864  0.10900264  0.87839101  1
  Mo  Mo167  1  0.19850418  0.19743230  0.49884167  1
  Mo  Mo168  1  0.49727976  0.09314083  0.88302936  1
  Mo  Mo169  1  0.18843525  0.80495871  0.00597986  1
  Mo  Mo170  1  0.30535873  0.91097844  0.11418226  1
  Mo  Mo171  1  0.30624016  0.89724650  0.36713980  1
  Mo  Mo172  1  0.79524037  0.59151965  -0.01582219  1
  Mo  Mo173  1  0.90602465  0.70334317  0.63127715  1
  Mo  Mo174  1  0.20114320  0.20042070  0.24762264  1
  Mo  Mo175  1  0.90985120  0.29911623  0.38091303  1
  Mo  Mo176  1  0.09366330  0.29169337  0.37234109  1
  Mo  Mo177  1  0.59709821  0.81506358  0.49840929  1
  Mo  Mo178  1  0.48405119  0.30790863  0.12555358  1
  Mo  Mo179  1  0.60100430  0.39801078  0.75706381  1
  Mo  Mo180  1  0.50050647  0.89731537  0.88815736  1
  Mo  Mo181  1  0.69548585  0.49587927  0.86504012  1
  Mo  Mo182  1  0.49629078  0.49934260  0.88136958  1
  Mo  Mo183  1  -0.00176601  0.79235412  0.75016451  1
  Mo  Mo184  1  0.50257069  0.10309125  0.36900584  1
  Mo  Mo185  1  0.01407291  -0.00312473  0.74923160  1
  Mo  Mo186  1  0.60148912  -0.00324856  0.24284142  1
  Mo  Mo187  1  0.00300164  0.19536116  0.24071053  1
  Mo  Mo188  1  0.29659398  0.69961773  0.11476615  1
  Mo  Mo189  1  0.71479906  0.29708963  0.37292433  1
  Mo  Mo190  1  0.41489945  0.00416249  -0.00418774  1
  Mo  Mo191  1  0.70178471  0.90177281  0.63004854  1
  Mo  Mo192  1  0.80564818  0.79454573  -0.00646629  1
  Mo  Mo193  1  0.90888139  0.90550923  0.12382316  1
  Mo  Mo194  1  0.39268304  0.80853125  0.50337024  1
  Mo  Mo195  1  0.11472614  0.11164452  0.62583907  1
  Mo  Mo196  1  0.49739708  0.49751891  0.36101162  1
  Mo  Mo197  1  0.39893174  0.21097057  -0.00182420  1
  Mo  Mo198  1  0.70204046  0.48866629  0.12476707  1
  Mo  Mo199  1  0.30447407  0.30443947  0.12492810  1
