# generated using pymatgen
data_HfZrTaTiMo
_symmetry_space_group_name_H-M   'P 1'
_cell_length_a   15.20444149
_cell_length_b   15.20759931
_cell_length_c   16.83489478
_cell_angle_alpha   90.01844880
_cell_angle_beta   90.00715462
_cell_angle_gamma   90.06992285
_symmetry_Int_Tables_number   1
_chemical_formula_structural   HfZrTaTiMo
_chemical_formula_sum   'Hf40 Zr40 Ta40 Ti40 Mo40'
_cell_volume   3892.61265238
_cell_formula_units_Z   40
loop_
 _symmetry_equiv_pos_site_id
 _symmetry_equiv_pos_as_xyz
  1  'x, y, z'
loop_
 _atom_site_type_symbol
 _atom_site_label
 _atom_site_symmetry_multiplicity
 _atom_site_fract_x
 _atom_site_fract_y
 _atom_site_fract_z
 _atom_site_occupancy
  Hf  Hf0  1  0.10469469  0.52506496  0.87482018  1
  Hf  Hf1  1  0.29598683  0.67739816  0.87210360  1
  Hf  Hf2  1  0.61671138  0.20838753  0.00025682  1
  Hf  Hf3  1  0.19216446  0.78888078  0.00388080  1
  Hf  Hf4  1  0.20756422  0.40710018  0.00210874  1
  Hf  Hf5  1  0.48809999  0.68796613  0.13033348  1
  Hf  Hf6  1  0.09630020  0.31041287  0.38454583  1
  Hf  Hf7  1  0.31083585  0.30065881  0.12050144  1
  Hf  Hf8  1  0.78633872  0.18582897  0.25723421  1
  Hf  Hf9  1  0.88629967  0.90285859  0.61422464  1
  Hf  Hf10  1  0.78686853  0.79619893  0.25487800  1
  Hf  Hf11  1  0.09084097  0.90083653  0.12406788  1
  Hf  Hf12  1  -0.00656757  0.80999573  0.74849839  1
  Hf  Hf13  1  0.89300650  0.48419215  0.87136885  1
  Hf  Hf14  1  0.18692716  0.80874892  0.26527015  1
  Hf  Hf15  1  0.32443250  0.50601888  0.14642939  1
  Hf  Hf16  1  0.89734338  0.90192267  0.12796406  1
  Hf  Hf17  1  0.29081379  0.69568485  0.61758460  1
  Hf  Hf18  1  0.00839923  0.38956134  -0.00831056  1
  Hf  Hf19  1  0.31346045  0.30799676  0.62025657  1
  Hf  Hf20  1  0.50054236  0.71144421  0.37160752  1
  Hf  Hf21  1  0.59302224  0.61270420  0.74581881  1
  Hf  Hf22  1  0.19514397  0.01031093  0.25200964  1
  Hf  Hf23  1  0.01011862  0.39542107  0.75672207  1
  Hf  Hf24  1  0.69003366  0.28930225  0.38795926  1
  Hf  Hf25  1  0.79481434  0.37723476  -0.00394676  1
  Hf  Hf26  1  0.10232170  0.10321271  0.61866490  1
  Hf  Hf27  1  0.91521341  0.69434578  0.86943450  1
  Hf  Hf28  1  0.68591811  0.48584166  0.12136810  1
  Hf  Hf29  1  0.41176338  0.20290545  0.00119819  1
  Hf  Hf30  1  0.59240203  0.81766286  0.51737561  1
  Hf  Hf31  1  0.89437364  0.28066666  0.12840181  1
  Hf  Hf32  1  0.31293913  0.30846741  0.88248778  1
  Hf  Hf33  1  0.09407284  0.51334881  0.35541288  1
  Hf  Hf34  1  0.77419225  0.59406231  -0.01609268  1
  Hf  Hf35  1  0.90439221  0.89636245  0.37597082  1
  Hf  Hf36  1  0.60322239  -0.01282117  0.74056369  1
  Hf  Hf37  1  0.80117167  0.80484134  -0.01277915  1
  Hf  Hf38  1  0.78859628  0.58802181  0.76017671  1
  Hf  Hf39  1  0.70993982  0.49492006  0.39213026  1
  Zr  Zr40  1  0.30633279  0.89244497  0.88110098  1
  Zr  Zr41  1  -0.01489807  0.19196693  -0.00320752  1
  Zr  Zr42  1  0.41733106  0.79788034  0.73122249  1
  Zr  Zr43  1  0.30272549  0.89973419  0.13109512  1
  Zr  Zr44  1  0.90032921  0.09901357  0.38790733  1
  Zr  Zr45  1  0.50434702  0.92106060  0.36320055  1
  Zr  Zr46  1  0.50917541  0.11709043  0.14048504  1
  Zr  Zr47  1  0.08456092  0.90227976  0.87896918  1
  Zr  Zr48  1  0.10862806  0.31537369  0.61040558  1
  Zr  Zr49  1  0.19379203  0.00780383  0.00290029  1
  Zr  Zr50  1  0.52042099  0.30605550  0.86386590  1
  Zr  Zr51  1  0.20571727  0.38514503  0.24962042  1
  Zr  Zr52  1  -0.00146740  0.60274402  0.49691867  1
  Zr  Zr53  1  0.80784648  0.18512832  0.72748295  1
  Zr  Zr54  1  0.78358945  0.79881193  0.76364102  1
  Zr  Zr55  1  0.49798588  0.70240135  0.88100611  1
  Zr  Zr56  1  0.79534621  0.58611441  0.24792281  1
  Zr  Zr57  1  0.89219972  0.69646856  0.12563831  1
  Zr  Zr58  1  0.19563477  0.00351076  0.75086472  1
  Zr  Zr59  1  0.19735313  0.21015575  0.75524320  1
  Zr  Zr60  1  0.00060352  0.19821074  0.25731999  1
  Zr  Zr61  1  0.59901379  0.59682432  0.26031550  1
  Zr  Zr62  1  0.31454693  0.10065248  0.37645127  1
  Zr  Zr63  1  0.21473667  0.41523557  0.75851051  1
  Zr  Zr64  1  0.59706655  0.79619084  0.00494088  1
  Zr  Zr65  1  0.49729463  0.90953163  0.87876597  1
  Zr  Zr66  1  0.90870636  0.68407943  0.36085800  1
  Zr  Zr67  1  0.50477336  0.10214154  0.62121614  1
  Zr  Zr68  1  0.60347535  0.60998353  0.49972964  1
  Zr  Zr69  1  0.30448673  0.48574382  0.37590553  1
  Zr  Zr70  1  0.00005504  0.59857427  0.01132825  1
  Zr  Zr71  1  0.90516322  0.49847635  0.62468284  1
  Zr  Zr72  1  0.19900532  0.79778026  0.75118947  1
  Zr  Zr73  1  0.41736982  0.21810557  0.49406350  1
  Zr  Zr74  1  0.79279956  0.77971243  0.48884830  1
  Zr  Zr75  1  0.20860003  0.60017573  0.02063961  1
  Zr  Zr76  1  0.49700223  0.49546087  0.62316733  1
  Zr  Zr77  1  0.30696960  0.09684992  0.87970385  1
  Zr  Zr78  1  0.39322615  0.80465825  0.50154727  1
  Zr  Zr79  1  0.18495748  0.80384347  0.48635466  1
  Ta  Ta80  1  0.09147654  0.69742336  0.15191490  1
  Ta  Ta81  1  0.69905003  0.90614493  0.12173112  1
  Ta  Ta82  1  0.30292814  0.90434061  0.37120326  1
  Ta  Ta83  1  0.29806607  0.91382794  0.62034927  1
  Ta  Ta84  1  0.70971771  0.07580247  0.60454506  1
  Ta  Ta85  1  0.80086958  -0.00620822  0.75082306  1
  Ta  Ta86  1  0.72014158  0.29075761  0.86343478  1
  Ta  Ta87  1  0.51846768  0.11791178  0.36872635  1
  Ta  Ta88  1  0.10449576  0.09828067  0.38728268  1
  Ta  Ta89  1  0.20974076  0.20541345  0.49263217  1
  Ta  Ta90  1  0.79930550  0.38725983  0.25472799  1
  Ta  Ta91  1  0.00794039  -0.00659387  0.50323051  1
  Ta  Ta92  1  0.40471629  0.19959675  0.74939594  1
  Ta  Ta93  1  0.40926250  0.00148538  0.01593416  1
  Ta  Ta94  1  0.69666939  0.90901134  0.88224605  1
  Ta  Ta95  1  0.68939392  0.69704923  0.11957355  1
  Ta  Ta96  1  0.29398596  0.10946606  0.12468703  1
  Ta  Ta97  1  -0.01310367  0.01290631  0.74391821  1
  Ta  Ta98  1  0.90646924  0.30229559  0.61125059  1
  Ta  Ta99  1  0.49391655  0.50545090  0.86805929  1
  Ta  Ta100  1  0.08573689  0.10971720  0.87234565  1
  Ta  Ta101  1  0.80264641  0.38476810  0.74232649  1
  Ta  Ta102  1  0.08801803  0.69839608  0.62577061  1
  Ta  Ta103  1  0.42126983  0.42193230  0.00332019  1
  Ta  Ta104  1  0.09518914  0.49310778  0.14365599  1
  Ta  Ta105  1  0.60345197  0.01014565  0.00854826  1
  Ta  Ta106  1  0.79958145  -0.00249172  0.25085459  1
  Ta  Ta107  1  0.51271187  0.32502442  0.13773723  1
  Ta  Ta108  1  0.69748850  0.08670691  0.39448844  1
  Ta  Ta109  1  0.29352714  0.69135933  0.36399258  1
  Ta  Ta110  1  0.80240229  0.19548177  0.51014571  1
  Ta  Ta111  1  0.50514930  0.90338658  0.13298618  1
  Ta  Ta112  1  0.18905976  0.20767144  -0.00304005  1
  Ta  Ta113  1  0.29230713  0.49751431  0.60479829  1
  Ta  Ta114  1  0.30320985  0.10488153  0.61746902  1
  Ta  Ta115  1  0.89812353  0.48155342  0.12637700  1
  Ta  Ta116  1  0.70088646  0.69924538  0.62802859  1
  Ta  Ta117  1  0.09974982  0.29612142  0.12813265  1
  Ta  Ta118  1  0.89462593  0.69560753  0.63214044  1
  Ta  Ta119  1  0.39818251  0.60058031  0.49377655  1
  Ti  Ti120  1  -0.00137136  0.79723469  -0.00322230  1
  Ti  Ti121  1  0.88545496  0.10174213  0.87188180  1
  Ti  Ti122  1  0.50194950  0.49592624  0.37705610  1
  Ti  Ti123  1  0.00098260  0.79733215  0.49915795  1
  Ti  Ti124  1  0.08717178  0.10435996  0.12425690  1
  Ti  Ti125  1  0.61112946  0.19631126  0.74288142  1
  Ti  Ti126  1  0.61717230  0.40808289  0.74539512  1
  Ti  Ti127  1  0.00125038  -0.00327928  0.25573007  1
  Ti  Ti128  1  0.89450156  0.30528902  0.39039533  1
  Ti  Ti129  1  0.40510728  0.40372072  0.75102549  1
  Ti  Ti130  1  0.20574342  -0.00034257  0.49634103  1
  Ti  Ti131  1  0.69834847  0.29802605  0.61482987  1
  Ti  Ti132  1  0.69606574  0.09858406  0.87170522  1
  Ti  Ti133  1  0.39077370  0.79361990  0.01200806  1
  Ti  Ti134  1  0.39777531  0.00479026  0.74288456  1
  Ti  Ti135  1  0.29441235  0.69902713  0.14956657  1
  Ti  Ti136  1  0.90352977  0.48280740  0.37966156  1
  Ti  Ti137  1  0.50989712  0.30143877  0.63519497  1
  Ti  Ti138  1  0.38815640  0.59268409  0.73752534  1
  Ti  Ti139  1  0.09950479  0.89967359  0.62416348  1
  Ti  Ti140  1  0.49665402  0.31288491  0.36315234  1
  Ti  Ti141  1  0.58856024  0.39049838  0.50435471  1
  Ti  Ti142  1  0.10261761  0.50539883  0.61803438  1
  Ti  Ti143  1  0.69433901  0.90073310  0.37690683  1
  Ti  Ti144  1  -0.01496741  -0.00161598  -0.00405206  1
  Ti  Ti145  1  0.71032286  0.49486761  0.61022228  1
  Ti  Ti146  1  0.50594422  0.10139614  0.87106852  1
  Ti  Ti147  1  0.40970164  0.00077106  0.50095864  1
  Ti  Ti148  1  0.19341904  0.60389975  0.49026716  1
  Ti  Ti149  1  0.61741233  0.01321063  0.24366966  1
  Ti  Ti150  1  0.69429420  0.28967055  0.13506837  1
  Ti  Ti151  1  0.40101155  0.00979185  0.24347356  1
  Ti  Ti152  1  0.00290980  0.20132907  0.50173592  1
  Ti  Ti153  1  0.20158134  0.19740649  0.25594513  1
  Ti  Ti154  1  -0.00401778  0.20442147  0.74877998  1
  Ti  Ti155  1  0.79749596  0.01413114  0.00261308  1
  Ti  Ti156  1  0.18981864  0.60143974  0.74124234  1
  Ti  Ti157  1  0.60129203  0.80598769  0.24390067  1
  Ti  Ti158  1  0.39916893  0.80484305  0.25255000  1
  Ti  Ti159  1  0.39660483  0.21457138  0.25458048  1
  Mo  Mo160  1  0.90387191  0.28727384  0.86480360  1
  Mo  Mo161  1  0.09553228  0.70248753  0.35893786  1
  Mo  Mo162  1  0.09498207  0.91270075  0.38013512  1
  Mo  Mo163  1  0.58198358  0.58251860  -0.00134872  1
  Mo  Mo164  1  0.20116690  0.60070891  0.24543726  1
  Mo  Mo165  1  0.00157398  0.40182404  0.49643684  1
  Mo  Mo166  1  0.20158030  0.40925234  0.49421951  1
  Mo  Mo167  1  0.89225977  0.91741512  0.87682950  1
  Mo  Mo168  1  0.00419955  0.60290061  0.74272272  1
  Mo  Mo169  1  0.40195978  0.60574326  0.26825377  1
  Mo  Mo170  1  0.40112462  0.60334189  0.00483759  1
  Mo  Mo171  1  0.50762155  0.50221452  0.13128278  1
  Mo  Mo172  1  0.60739379  0.20268385  0.50993277  1
  Mo  Mo173  1  -0.00846374  0.58892771  0.23805157  1
  Mo  Mo174  1  -0.00581472  0.80539876  0.25080296  1
  Mo  Mo175  1  0.41637642  0.40109987  0.25379054  1
  Mo  Mo176  1  0.70025847  0.89371469  0.62613762  1
  Mo  Mo177  1  0.68252360  0.48235936  0.86943818  1
  Mo  Mo178  1  0.79322375  0.18574433  -0.00212827  1
  Mo  Mo179  1  0.10253252  0.29718082  0.87674831  1
  Mo  Mo180  1  -0.01505431  0.39392824  0.24763599  1
  Mo  Mo181  1  0.30221976  0.29531003  0.37609537  1
  Mo  Mo182  1  0.31353127  0.50230446  0.87574865  1
  Mo  Mo183  1  0.40790898  0.40712126  0.49746805  1
  Mo  Mo184  1  0.59999556  0.20428003  0.25475667  1
  Mo  Mo185  1  0.60438773  0.80149446  0.73931801  1
  Mo  Mo186  1  0.69314053  0.69736945  0.87751190  1
  Mo  Mo187  1  0.79945296  -0.01347059  0.49435463  1
  Mo  Mo188  1  0.09954789  0.70238221  0.87442684  1
  Mo  Mo189  1  0.80130335  0.39375595  0.50668191  1
  Mo  Mo190  1  0.49328108  0.69389300  0.62013800  1
  Mo  Mo191  1  0.59630056  0.00214628  0.49856532  1
  Mo  Mo192  1  0.60533546  0.40281021  -0.00858016  1
  Mo  Mo193  1  0.90490453  0.08439643  0.13158361  1
  Mo  Mo194  1  0.71044556  0.09767541  0.12581150  1
  Mo  Mo195  1  0.90811201  0.09782410  0.61131264  1
  Mo  Mo196  1  0.61255977  0.39713375  0.26063370  1
  Mo  Mo197  1  0.69518364  0.70732639  0.37294648  1
  Mo  Mo198  1  0.79971460  0.59655598  0.50625901  1
  Mo  Mo199  1  0.49177864  0.90789062  0.62525675  1
