# generated using pymatgen
data_HfZrTaTiMo
_symmetry_space_group_name_H-M   'P 1'
_cell_length_a   15.19069894
_cell_length_b   15.18371595
_cell_length_c   16.79419597
_cell_angle_alpha   90.04313268
_cell_angle_beta   90.09713312
_cell_angle_gamma   89.92061343
_symmetry_Int_Tables_number   1
_chemical_formula_structural   HfZrTaTiMo
_chemical_formula_sum   'Hf40 Zr40 Ta40 Ti40 Mo40'
_cell_volume   3873.59204922
_cell_formula_units_Z   40
loop_
 _symmetry_equiv_pos_site_id
 _symmetry_equiv_pos_as_xyz
  1  'x, y, z'
loop_
 _atom_site_type_symbol
 _atom_site_label
 _atom_site_symmetry_multiplicity
 _atom_site_fract_x
 _atom_site_fract_y
 _atom_site_fract_z
 _atom_site_occupancy
  Hf  Hf0  1  0.39665412  0.19076462  -0.00526814  1
  Hf  Hf1  1  -0.00492312  0.19392675  0.49800620  1
  Hf  Hf2  1  0.50134888  0.72152584  0.85416765  1
  Hf  Hf3  1  0.69564346  0.10161502  0.37429699  1
  Hf  Hf4  1  0.61752351  0.81273667  0.49949374  1
  Hf  Hf5  1  0.41964373  0.39539591  0.24651787  1
  Hf  Hf6  1  0.59887759  0.60925885  0.49648886  1
  Hf  Hf7  1  0.79300998  0.80036256  -0.00951492  1
  Hf  Hf8  1  -0.00775724  -0.00951183  0.74893731  1
  Hf  Hf9  1  0.19041891  0.21336589  0.23684669  1
  Hf  Hf10  1  0.70138396  0.48793910  0.37262585  1
  Hf  Hf11  1  0.10472350  0.89774969  0.86550363  1
  Hf  Hf12  1  0.88719213  0.09168192  0.62227675  1
  Hf  Hf13  1  0.59098068  0.81608382  0.00084451  1
  Hf  Hf14  1  0.20621194  0.79646610  -0.00252401  1
  Hf  Hf15  1  0.58829208  0.60760776  0.26228660  1
  Hf  Hf16  1  0.40665370  0.82573096  0.50332998  1
  Hf  Hf17  1  0.10451305  0.68224166  0.86281314  1
  Hf  Hf18  1  0.82261343  0.39858159  -0.00734338  1
  Hf  Hf19  1  0.61150522  0.61575692  -0.00552475  1
  Hf  Hf20  1  0.19390617  0.19023955  0.75025540  1
  Hf  Hf21  1  0.40040386  0.78619023  0.25607728  1
  Hf  Hf22  1  0.79898599  0.60266971  0.49870052  1
  Hf  Hf23  1  0.71865192  0.71374615  0.63604953  1
  Hf  Hf24  1  0.40508102  -0.00616412  0.00784248  1
  Hf  Hf25  1  0.30380563  0.50864948  0.11646953  1
  Hf  Hf26  1  0.30581106  0.91076647  0.36463639  1
  Hf  Hf27  1  0.80811406  0.60569621  0.26172790  1
  Hf  Hf28  1  0.19460490  0.40310080  0.73455906  1
  Hf  Hf29  1  0.69318089  0.30443606  0.63133022  1
  Hf  Hf30  1  0.09630982  0.89159632  0.38955861  1
  Hf  Hf31  1  0.68642809  0.10289659  0.63366131  1
  Hf  Hf32  1  0.58377738  0.00056306  0.49796124  1
  Hf  Hf33  1  0.20233863  0.60569391  0.25788587  1
  Hf  Hf34  1  0.48469616  0.09323111  0.36459215  1
  Hf  Hf35  1  0.89289898  0.68687134  0.87061861  1
  Hf  Hf36  1  0.18031355  0.00058034  0.24122227  1
  Hf  Hf37  1  0.90280604  0.49368962  0.13248866  1
  Hf  Hf38  1  0.50099532  0.29364349  0.63404523  1
  Hf  Hf39  1  -0.01079194  0.00710020  -0.01062742  1
  Zr  Zr40  1  0.28566977  0.10999429  0.36702138  1
  Zr  Zr41  1  -0.00071467  0.58212460  -0.00162847  1
  Zr  Zr42  1  -0.00557518  0.20013474  0.75111644  1
  Zr  Zr43  1  0.28591682  0.51122610  0.86790208  1
  Zr  Zr44  1  0.00580097  0.60432681  0.25940384  1
  Zr  Zr45  1  -0.00275428  0.79575685  -0.01070541  1
  Zr  Zr46  1  0.21584153  0.40388134  0.25453617  1
  Zr  Zr47  1  0.11233780  0.50035717  0.38966512  1
  Zr  Zr48  1  0.88779941  0.30401584  0.61750875  1
  Zr  Zr49  1  0.39865350  0.19853081  0.23240105  1
  Zr  Zr50  1  0.60061994  0.22510301  0.24822342  1
  Zr  Zr51  1  0.00690951  0.38545770  0.26950926  1
  Zr  Zr52  1  0.89180158  0.07844097  0.38979708  1
  Zr  Zr53  1  0.09436106  0.90182054  0.11799750  1
  Zr  Zr54  1  0.39715971  0.61258808  -0.00873968  1
  Zr  Zr55  1  0.18169829  0.39827353  0.00002285  1
  Zr  Zr56  1  0.28214639  0.29551059  0.87495037  1
  Zr  Zr57  1  -0.00380221  0.18492724  0.26228475  1
  Zr  Zr58  1  0.51200077  0.49302449  0.62848148  1
  Zr  Zr59  1  0.48459586  0.09709144  0.63113433  1
  Zr  Zr60  1  0.50821609  0.71794739  0.63334666  1
  Zr  Zr61  1  0.39111823  0.59481150  0.25878227  1
  Zr  Zr62  1  0.72062321  0.51388171  0.87107038  1
  Zr  Zr63  1  0.69122531  0.91186426  0.86414734  1
  Zr  Zr64  1  -0.00714069  0.80918998  0.25206115  1
  Zr  Zr65  1  0.40503115  0.39934622  -0.01361486  1
  Zr  Zr66  1  0.09791826  0.08491956  0.38975888  1
  Zr  Zr67  1  0.50916932  0.50905665  0.86650545  1
  Zr  Zr68  1  0.39550467  0.80272737  0.00511392  1
  Zr  Zr69  1  0.71499098  0.29703787  0.10721237  1
  Zr  Zr70  1  0.39217541  0.59800660  0.73296188  1
  Zr  Zr71  1  0.70127341  0.71199695  0.13814267  1
  Zr  Zr72  1  0.20948466  0.59794979  0.52261113  1
  Zr  Zr73  1  0.69998646  0.50227005  0.12519133  1
  Zr  Zr74  1  0.11582360  0.88551700  0.62816238  1
  Zr  Zr75  1  0.49347197  0.49447684  0.38685902  1
  Zr  Zr76  1  0.38383161  0.19765506  0.49839980  1
  Zr  Zr77  1  0.21198528  0.38654884  0.51044201  1
  Zr  Zr78  1  0.80241575  0.19297665  0.24604079  1
  Zr  Zr79  1  0.60267604  0.19373008  -0.00624519  1
  Ta  Ta80  1  0.50182600  0.89912658  0.14480466  1
  Ta  Ta81  1  0.79842589  0.38883575  0.25221426  1
  Ta  Ta82  1  0.89059913  0.90079253  0.11991210  1
  Ta  Ta83  1  0.30002681  0.70221796  0.39476958  1
  Ta  Ta84  1  0.40440249  0.38853835  0.75916947  1
  Ta  Ta85  1  0.70945550  0.49708511  0.62558502  1
  Ta  Ta86  1  0.08103643  0.11367028  0.11222467  1
  Ta  Ta87  1  0.70606306  0.90665433  0.35705947  1
  Ta  Ta88  1  0.88766384  0.09823885  0.87117475  1
  Ta  Ta89  1  -0.00151736  0.78529570  0.74643055  1
  Ta  Ta90  1  0.22193975  -0.00829443  0.50912541  1
  Ta  Ta91  1  0.50708142  0.31044990  0.11062894  1
  Ta  Ta92  1  0.39769367  0.19187063  0.77267892  1
  Ta  Ta93  1  0.30548185  0.90504013  0.86275503  1
  Ta  Ta94  1  0.81419273  -0.00311905  0.23987128  1
  Ta  Ta95  1  0.59167250  0.20440593  0.77010098  1
  Ta  Ta96  1  0.92603194  0.28993474  0.12001870  1
  Ta  Ta97  1  0.29619032  0.71229066  0.85236496  1
  Ta  Ta98  1  0.20334913  0.00244432  -0.00205751  1
  Ta  Ta99  1  0.70125233  0.09919726  0.86816998  1
  Ta  Ta100  1  0.90873124  0.70615060  0.39384981  1
  Ta  Ta101  1  0.78237100  -0.01769838  0.50689292  1
  Ta  Ta102  1  0.49566898  0.69866715  0.12802567  1
  Ta  Ta103  1  0.28933561  0.09383913  0.12220809  1
  Ta  Ta104  1  0.09809143  0.49000067  0.13096182  1
  Ta  Ta105  1  0.50878490  0.50272883  0.11821861  1
  Ta  Ta106  1  0.58852861  0.20723113  0.48968919  1
  Ta  Ta107  1  0.10366871  0.69357499  0.12377554  1
  Ta  Ta108  1  0.29050922  0.72914332  0.62870290  1
  Ta  Ta109  1  0.70595794  0.71790325  0.36854378  1
  Ta  Ta110  1  0.88990314  0.88372813  0.62142741  1
  Ta  Ta111  1  0.09720951  0.29080837  0.61626820  1
  Ta  Ta112  1  0.71327507  0.29701396  0.87834401  1
  Ta  Ta113  1  0.89898355  0.70042680  0.11949063  1
  Ta  Ta114  1  0.60259284  0.01644634  0.23514753  1
  Ta  Ta115  1  0.90079329  0.49719673  0.38572474  1
  Ta  Ta116  1  0.40315853  0.40167510  0.50907110  1
  Ta  Ta117  1  -0.00244179  0.39486267  0.49313102  1
  Ta  Ta118  1  0.19675234  0.79131695  0.25461626  1
  Ta  Ta119  1  0.30645075  0.28918136  0.63827546  1
  Ti  Ti120  1  0.87728976  0.30085122  0.38740754  1
  Ti  Ti121  1  0.69465177  0.90781352  0.64578355  1
  Ti  Ti122  1  0.10193754  0.70230272  0.39894902  1
  Ti  Ti123  1  0.19728351  0.60449965  0.00187052  1
  Ti  Ti124  1  0.89375170  0.89009538  0.38665049  1
  Ti  Ti125  1  0.91662156  0.69472052  0.61212666  1
  Ti  Ti126  1  0.81474439  0.59752717  0.73602308  1
  Ti  Ti127  1  -0.00291443  0.39442195  0.74030758  1
  Ti  Ti128  1  0.91321491  0.48979246  0.86563511  1
  Ti  Ti129  1  0.29764877  0.30149474  0.11260600  1
  Ti  Ti130  1  0.80425512  0.40163150  0.75338774  1
  Ti  Ti131  1  0.81313856  0.81615040  0.76026725  1
  Ti  Ti132  1  0.60445378  0.40417014  -0.01462034  1
  Ti  Ti133  1  0.09471376  0.48543333  0.86498994  1
  Ti  Ti134  1  0.40144062  -0.00103120  0.75819658  1
  Ti  Ti135  1  0.29805591  0.89366303  0.13804643  1
  Ti  Ti136  1  0.50348170  0.08126482  0.87645340  1
  Ti  Ti137  1  0.60751503  0.39854447  0.76315641  1
  Ti  Ti138  1  0.39937110  0.60429210  0.51366061  1
  Ti  Ti139  1  0.11827572  0.28427199  0.39216325  1
  Ti  Ti140  1  0.00220738  0.58834048  0.73746994  1
  Ti  Ti141  1  0.70068724  0.90118372  0.13995018  1
  Ti  Ti142  1  0.78948970  0.00851774  0.00718058  1
  Ti  Ti143  1  0.59939978  0.00583001  0.02007174  1
  Ti  Ti144  1  0.10257157  0.09145409  0.62075899  1
  Ti  Ti145  1  0.61313848  0.60196104  0.74332937  1
  Ti  Ti146  1  0.19260129  0.60337937  0.72605339  1
  Ti  Ti147  1  0.79552643  0.20296289  0.75316160  1
  Ti  Ti148  1  0.10414719  0.10188534  0.87663712  1
  Ti  Ti149  1  0.51148402  0.89766136  0.35419646  1
  Ti  Ti150  1  -0.00476957  0.21680512  -0.01991410  1
  Ti  Ti151  1  0.78176118  0.20149663  0.49995057  1
  Ti  Ti152  1  0.08782385  0.49575242  0.61420447  1
  Ti  Ti153  1  0.31507421  0.31145589  0.37527842  1
  Ti  Ti154  1  0.89979217  0.49581825  0.61204687  1
  Ti  Ti155  1  -0.00498830  -0.01777876  0.51604232  1
  Ti  Ti156  1  0.18931716  0.19682329  -0.00046391  1
  Ti  Ti157  1  0.29403066  0.08975118  0.63382206  1
  Ti  Ti158  1  0.69909747  0.70656771  0.85585540  1
  Ti  Ti159  1  0.60659519  0.39244086  0.49843303  1
  Mo  Mo160  1  0.80135266  0.80283844  0.50187844  1
  Mo  Mo161  1  0.00168893  0.79376101  0.50903749  1
  Mo  Mo162  1  0.39501363  -0.00241535  0.23173643  1
  Mo  Mo163  1  0.30700627  0.50251330  0.39014917  1
  Mo  Mo164  1  0.50124217  0.30003273  0.38173581  1
  Mo  Mo165  1  0.00160011  0.59266515  0.50343480  1
  Mo  Mo166  1  0.31389001  0.91343281  0.64077730  1
  Mo  Mo167  1  0.70439288  0.09248210  0.12267557  1
  Mo  Mo168  1  -0.00942818  0.00289723  0.24121827  1
  Mo  Mo169  1  0.09654247  0.69506160  0.62949937  1
  Mo  Mo170  1  0.89613547  0.10278726  0.11028381  1
  Mo  Mo171  1  0.49697692  0.90776695  0.87359427  1
  Mo  Mo172  1  0.79666967  0.39836296  0.49883881  1
  Mo  Mo173  1  0.81326159  0.18960068  -0.00734729  1
  Mo  Mo174  1  0.29263972  0.08885416  0.88014268  1
  Mo  Mo175  1  0.39956374  0.81346129  0.74182871  1
  Mo  Mo176  1  0.49893888  0.10294459  0.12426847  1
  Mo  Mo177  1  0.50544169  0.29755886  0.87489606  1
  Mo  Mo178  1  0.80830926  0.80340845  0.25230313  1
  Mo  Mo179  1  0.28874584  0.70350144  0.12836021  1
  Mo  Mo180  1  0.80114661  0.00619870  0.74529894  1
  Mo  Mo181  1  0.59240493  0.00902741  0.75197916  1
  Mo  Mo182  1  0.39784522  0.00183620  0.49763804  1
  Mo  Mo183  1  0.20963442  0.80206434  0.49960145  1
  Mo  Mo184  1  0.30753883  0.49150320  0.63409141  1
  Mo  Mo185  1  0.00355212  0.39509621  -0.00324169  1
  Mo  Mo186  1  0.08776095  0.30269941  0.86517619  1
  Mo  Mo187  1  0.10139336  0.29868016  0.12327631  1
  Mo  Mo188  1  0.80561995  0.60779639  0.00083972  1
  Mo  Mo189  1  0.60119148  0.80409633  0.25438229  1
  Mo  Mo190  1  0.89720571  0.30308424  0.86260745  1
  Mo  Mo191  1  0.50785639  0.91263261  0.63500048  1
  Mo  Mo192  1  0.19788965  0.80057224  0.75396066  1
  Mo  Mo193  1  0.89583522  0.90262381  0.87161765  1
  Mo  Mo194  1  0.49921437  0.70961965  0.38950737  1
  Mo  Mo195  1  0.20173363  0.00519476  0.75430744  1
  Mo  Mo196  1  0.19518081  0.18890902  0.52044389  1
  Mo  Mo197  1  0.60457584  0.40437762  0.24251275  1
  Mo  Mo198  1  0.69673988  0.30090279  0.37873535  1
  Mo  Mo199  1  0.60351243  0.80950523  0.74531536  1
