# generated using pymatgen
data_HfZrTaTiMo
_symmetry_space_group_name_H-M   'P 1'
_cell_length_a   15.21314814
_cell_length_b   15.21002330
_cell_length_c   16.85761607
_cell_angle_alpha   90.05648592
_cell_angle_beta   90.04331779
_cell_angle_gamma   89.94552950
_symmetry_Int_Tables_number   1
_chemical_formula_structural   HfZrTaTiMo
_chemical_formula_sum   'Hf40 Zr40 Ta40 Ti40 Mo40'
_cell_volume   3900.71842062
_cell_formula_units_Z   40
loop_
 _symmetry_equiv_pos_site_id
 _symmetry_equiv_pos_as_xyz
  1  'x, y, z'
loop_
 _atom_site_type_symbol
 _atom_site_label
 _atom_site_symmetry_multiplicity
 _atom_site_fract_x
 _atom_site_fract_y
 _atom_site_fract_z
 _atom_site_occupancy
  Hf  Hf0  1  0.11956617  0.30553677  0.11668976  1
  Hf  Hf1  1  0.71440968  0.70329787  0.12056178  1
  Hf  Hf2  1  0.90807984  0.51147329  0.12680475  1
  Hf  Hf3  1  -0.00207346  -0.00219930  0.24003647  1
  Hf  Hf4  1  0.28261141  0.48695876  0.12323205  1
  Hf  Hf5  1  0.08801859  0.70307021  0.62959561  1
  Hf  Hf6  1  0.21655658  0.38792901  0.25781635  1
  Hf  Hf7  1  0.81004240  0.81306967  -0.01413700  1
  Hf  Hf8  1  0.39292082  0.22679400  0.24468582  1
  Hf  Hf9  1  0.51366696  0.71300758  0.87857706  1
  Hf  Hf10  1  0.01839977  0.79459459  0.26947311  1
  Hf  Hf11  1  0.68432271  0.89181818  0.86604122  1
  Hf  Hf12  1  0.01293079  0.79885607  0.48785706  1
  Hf  Hf13  1  0.08849007  0.09999640  0.36389597  1
  Hf  Hf14  1  0.50459297  0.90542185  0.61556142  1
  Hf  Hf15  1  0.10329871  0.29282557  0.37182008  1
  Hf  Hf16  1  0.30115594  0.70229773  0.87754097  1
  Hf  Hf17  1  0.41565526  0.79776648  0.01767919  1
  Hf  Hf18  1  0.20059080  0.59089571  0.75079786  1
  Hf  Hf19  1  0.79761388  0.20782718  0.76197056  1
  Hf  Hf20  1  0.80427756  0.77664676  0.27026846  1
  Hf  Hf21  1  0.79721040  0.39737557  0.24915627  1
  Hf  Hf22  1  0.19843601  0.59487968  0.26814465  1
  Hf  Hf23  1  0.09264231  0.89452759  0.86561859  1
  Hf  Hf24  1  0.90351720  0.09499582  0.63632705  1
  Hf  Hf25  1  0.59624259  0.39245846  0.23979135  1
  Hf  Hf26  1  0.60353835  0.60899381  0.23876560  1
  Hf  Hf27  1  0.70616436  0.49861671  0.88644549  1
  Hf  Hf28  1  0.88442889  0.10344104  0.11091470  1
  Hf  Hf29  1  0.20635864  0.39472918  0.76130562  1
  Hf  Hf30  1  0.89571260  0.30109847  0.37861097  1
  Hf  Hf31  1  0.41288583  0.81279783  0.74403475  1
  Hf  Hf32  1  0.21312008  0.20525260  -0.01484954  1
  Hf  Hf33  1  0.21781443  0.80017073  0.25911378  1
  Hf  Hf34  1  0.28090286  0.09443945  0.35747355  1
  Hf  Hf35  1  -0.01301039  0.20696089  0.23391162  1
  Hf  Hf36  1  0.79457789  -0.00249390  0.76074527  1
  Hf  Hf37  1  0.88266037  0.30518492  0.10379692  1
  Hf  Hf38  1  0.38302130  -0.00037954  0.49267175  1
  Hf  Hf39  1  0.00448440  0.19733250  0.50569820  1
  Zr  Zr40  1  0.20606919  0.80285027  0.74345536  1
  Zr  Zr41  1  0.21318528  0.00674698  0.75971749  1
  Zr  Zr42  1  0.69656089  0.31144793  0.61980302  1
  Zr  Zr43  1  -0.00902368  0.60442453  0.27476874  1
  Zr  Zr44  1  0.80082606  0.78503942  0.48885765  1
  Zr  Zr45  1  0.29784206  0.28944295  0.63150352  1
  Zr  Zr46  1  0.30383777  0.90075580  0.89515227  1
  Zr  Zr47  1  0.91686753  0.70783917  0.12332875  1
  Zr  Zr48  1  0.59694622  0.20438524  0.49563524  1
  Zr  Zr49  1  0.88561147  0.89636602  0.12865766  1
  Zr  Zr50  1  0.90541320  0.88944535  0.63025967  1
  Zr  Zr51  1  0.68136948  0.11455385  0.13676492  1
  Zr  Zr52  1  0.90576874  0.31354493  0.88795017  1
  Zr  Zr53  1  0.49610415  0.10569052  0.35877369  1
  Zr  Zr54  1  0.29469523  0.11141336  0.13144183  1
  Zr  Zr55  1  0.80606054  0.42153655  0.75070945  1
  Zr  Zr56  1  0.49386517  0.11183786  0.62305866  1
  Zr  Zr57  1  0.30969722  0.69682434  0.62554848  1
  Zr  Zr58  1  0.28455189  0.90031789  0.11322986  1
  Zr  Zr59  1  0.69922094  0.89109854  0.62511934  1
  Zr  Zr60  1  0.21334237  0.81380976  0.50246853  1
  Zr  Zr61  1  0.59093668  0.00256861  0.00169058  1
  Zr  Zr62  1  0.50945775  0.50321370  0.88276236  1
  Zr  Zr63  1  0.41123565  0.59769351  0.75107367  1
  Zr  Zr64  1  0.69661679  0.09832698  0.62800121  1
  Zr  Zr65  1  0.40994143  0.79037760  0.50105892  1
  Zr  Zr66  1  0.20118086  0.38713003  0.50553920  1
  Zr  Zr67  1  0.18826391  0.58738413  -0.01368885  1
  Zr  Zr68  1  0.00930269  0.40768575  0.24713654  1
  Zr  Zr69  1  0.50273221  0.89708478  0.37320863  1
  Zr  Zr70  1  0.09172807  0.49273658  0.62160273  1
  Zr  Zr71  1  0.48559162  0.50530053  0.12593119  1
  Zr  Zr72  1  0.30634109  0.68554527  0.12268972  1
  Zr  Zr73  1  -0.00713299  -0.01527319  -0.00173647  1
  Zr  Zr74  1  0.49547941  0.31943533  0.38230640  1
  Zr  Zr75  1  0.39269514  0.38580148  -0.00815145  1
  Zr  Zr76  1  0.81676910  0.59926360  -0.00658178  1
  Zr  Zr77  1  0.90592541  0.30393279  0.62572816  1
  Zr  Zr78  1  0.90594258  0.90829403  0.37690080  1
  Zr  Zr79  1  0.77909475  -0.00518034  0.25439613  1
  Ta  Ta80  1  0.79966815  0.19713010  0.49816846  1
  Ta  Ta81  1  0.10412124  0.68599339  0.12733525  1
  Ta  Ta82  1  0.38691196  0.20281087  0.49777739  1
  Ta  Ta83  1  0.61306362  0.81423080  0.23953007  1
  Ta  Ta84  1  0.29490400  0.09504145  0.62933317  1
  Ta  Ta85  1  0.60288635  0.39216893  0.01190189  1
  Ta  Ta86  1  0.88967763  0.10806491  0.37135473  1
  Ta  Ta87  1  0.20557061  0.60355175  0.49603397  1
  Ta  Ta88  1  0.39721678  0.19934501  0.75860401  1
  Ta  Ta89  1  0.80031293  0.00681414  0.49363327  1
  Ta  Ta90  1  0.09053564  0.10428930  0.86803087  1
  Ta  Ta91  1  0.69440351  0.50754900  0.37603796  1
  Ta  Ta92  1  0.09825847  0.91512003  0.63677856  1
  Ta  Ta93  1  0.31361473  0.49145580  0.38720879  1
  Ta  Ta94  1  0.00841113  0.19953487  -0.00150557  1
  Ta  Ta95  1  0.70013210  0.69671151  0.87887195  1
  Ta  Ta96  1  0.10090799  0.09581744  0.12309913  1
  Ta  Ta97  1  -0.02466132  0.58788647  0.74219734  1
  Ta  Ta98  1  0.59905399  0.40213694  0.75002953  1
  Ta  Ta99  1  0.70804366  0.49332295  0.11634451  1
  Ta  Ta100  1  0.89823721  0.09925276  0.87901043  1
  Ta  Ta101  1  0.40623769  0.39671606  0.75887597  1
  Ta  Ta102  1  0.08134854  0.49676894  0.86296422  1
  Ta  Ta103  1  0.41715655  0.78604654  0.24157468  1
  Ta  Ta104  1  0.10069756  0.49732531  0.39260173  1
  Ta  Ta105  1  0.09812727  0.11157553  0.64544289  1
  Ta  Ta106  1  0.59333726  0.20745081  0.75632354  1
  Ta  Ta107  1  -0.00811676  0.40126601  0.49953071  1
  Ta  Ta108  1  0.38836413  -0.01505556  0.24560295  1
  Ta  Ta109  1  0.12302742  0.91331430  0.37341279  1
  Ta  Ta110  1  0.49791975  0.51184818  0.36761810  1
  Ta  Ta111  1  0.79497368  0.77756440  0.75109447  1
  Ta  Ta112  1  0.31365754  0.49186797  0.61878806  1
  Ta  Ta113  1  0.58859464  0.00118869  0.75546812  1
  Ta  Ta114  1  0.01195407  0.42027580  0.00400527  1
  Ta  Ta115  1  0.00512649  0.00360281  0.50319828  1
  Ta  Ta116  1  0.08390370  0.69724888  0.85905183  1
  Ta  Ta117  1  0.41713581  0.59101970  0.50464499  1
  Ta  Ta118  1  0.69636105  0.30127080  0.88416357  1
  Ta  Ta119  1  0.69770924  0.67973482  0.62173760  1
  Ti  Ti120  1  0.90476983  0.69380305  0.86819182  1
  Ti  Ti121  1  0.49211864  0.31485429  0.62257884  1
  Ti  Ti122  1  0.40203437  0.00838428  0.01427562  1
  Ti  Ti123  1  0.49314898  0.90718745  0.87932160  1
  Ti  Ti124  1  0.60833407  0.80670026  0.01623645  1
  Ti  Ti125  1  0.60389350  0.78439268  0.49808766  1
  Ti  Ti126  1  0.60416110  0.00591466  0.49361047  1
  Ti  Ti127  1  0.00812407  0.38358989  0.75011687  1
  Ti  Ti128  1  0.78144735  0.00814100  -0.01242331  1
  Ti  Ti129  1  0.31352249  0.09926820  0.88079493  1
  Ti  Ti130  1  0.59623181  0.60729450  0.01264704  1
  Ti  Ti131  1  0.39632916  0.59422763  -0.00837070  1
  Ti  Ti132  1  0.20208708  0.39667836  -0.02869289  1
  Ti  Ti133  1  0.70041352  0.30285308  0.37916629  1
  Ti  Ti134  1  0.19496671  0.20664922  0.76677148  1
  Ti  Ti135  1  0.41398002  0.19374000  0.00581833  1
  Ti  Ti136  1  0.09289805  0.88606436  0.12086924  1
  Ti  Ti137  1  0.69620126  0.10798047  0.36484278  1
  Ti  Ti138  1  0.50978768  0.28146444  0.12346916  1
  Ti  Ti139  1  0.60702742  0.19631412  -0.00555944  1
  Ti  Ti140  1  0.51450008  0.69542343  0.36860630  1
  Ti  Ti141  1  0.17833722  0.78957997  -0.00301564  1
  Ti  Ti142  1  0.87475149  0.50459823  0.60470189  1
  Ti  Ti143  1  0.30181805  0.29634472  0.38478737  1
  Ti  Ti144  1  0.40309591  0.00585575  0.74941698  1
  Ti  Ti145  1  0.69311471  0.89935801  0.38125455  1
  Ti  Ti146  1  0.50441728  0.29586423  0.87792790  1
  Ti  Ti147  1  0.88574907  0.50080915  0.38621476  1
  Ti  Ti148  1  0.59920704  0.42507323  0.50246740  1
  Ti  Ti149  1  0.19171538  0.00552706  0.50929500  1
  Ti  Ti150  1  0.31987849  0.69177005  0.37665314  1
  Ti  Ti151  1  0.51286893  0.50956901  0.62828988  1
  Ti  Ti152  1  0.90633487  0.88917449  0.85554639  1
  Ti  Ti153  1  0.50880125  0.91202766  0.13581899  1
  Ti  Ti154  1  -0.00699441  0.60281206  0.49205683  1
  Ti  Ti155  1  0.19656287  0.18881990  0.50634893  1
  Ti  Ti156  1  0.89138223  0.68933485  0.62144418  1
  Ti  Ti157  1  0.18984165  0.00738896  -0.00672597  1
  Ti  Ti158  1  0.50432427  0.10168799  0.87318621  1
  Ti  Ti159  1  0.61530140  0.60349605  0.75062832  1
  Mo  Mo160  1  0.30646687  0.89875591  0.36600096  1
  Mo  Mo161  1  0.69021167  0.69512618  0.37156180  1
  Mo  Mo162  1  0.79367958  0.58783996  0.25438199  1
  Mo  Mo163  1  0.09787840  0.29918418  0.88333034  1
  Mo  Mo164  1  0.60633006  0.20845653  0.25698868  1
  Mo  Mo165  1  0.31165896  0.29034605  0.86692316  1
  Mo  Mo166  1  0.50691884  0.70565139  0.12476893  1
  Mo  Mo167  1  0.30110537  0.91413636  0.62677701  1
  Mo  Mo168  1  0.10153620  0.50474790  0.12813537  1
  Mo  Mo169  1  0.79167460  0.59076729  0.49553997  1
  Mo  Mo170  1  0.70006428  0.90216328  0.11990493  1
  Mo  Mo171  1  0.11274081  0.69663085  0.39025863  1
  Mo  Mo172  1  0.00127248  0.20072277  0.76150536  1
  Mo  Mo173  1  0.89890233  0.68843676  0.38724903  1
  Mo  Mo174  1  0.79659524  0.60174347  0.75199085  1
  Mo  Mo175  1  0.58860296  -0.00084392  0.25158138  1
  Mo  Mo176  1  0.69772928  0.30092131  0.11341513  1
  Mo  Mo177  1  -0.00825257  0.79027883  0.74220159  1
  Mo  Mo178  1  0.60192277  0.79364966  0.74516094  1
  Mo  Mo179  1  0.39918749  0.41364332  0.25064615  1
  Mo  Mo180  1  0.69194404  0.10425529  0.86989671  1
  Mo  Mo181  1  0.31108785  0.30415897  0.11601500  1
  Mo  Mo182  1  0.40875527  0.40227361  0.51086424  1
  Mo  Mo183  1  0.30226729  0.49890676  0.87041733  1
  Mo  Mo184  1  0.18853667  -0.00872632  0.23762321  1
  Mo  Mo185  1  0.79055483  0.39787011  0.49181641  1
  Mo  Mo186  1  0.09867069  0.29138404  0.63086107  1
  Mo  Mo187  1  0.59684858  0.60756383  0.49582178  1
  Mo  Mo188  1  0.79045552  0.20782658  0.25612442  1
  Mo  Mo189  1  0.00538188  0.78849984  -0.00729902  1
  Mo  Mo190  1  0.79795859  0.40277546  -0.00094562  1
  Mo  Mo191  1  0.01229130  0.60989712  -0.00601837  1
  Mo  Mo192  1  0.48919676  0.09901454  0.14092594  1
  Mo  Mo193  1  0.90933736  0.50757708  0.87622861  1
  Mo  Mo194  1  -0.00125963  0.00067490  0.75743204  1
  Mo  Mo195  1  0.19073912  0.19813656  0.24297486  1
  Mo  Mo196  1  0.51824613  0.70116861  0.63094923  1
  Mo  Mo197  1  0.39500448  0.60098091  0.25886647  1
  Mo  Mo198  1  0.79448438  0.19412104  -0.01705619  1
  Mo  Mo199  1  0.69125292  0.50104920  0.62313135  1
