# generated using pymatgen
data_HfZrTaTiMo
_symmetry_space_group_name_H-M   'P 1'
_cell_length_a   15.21222041
_cell_length_b   15.22815511
_cell_length_c   16.84840538
_cell_angle_alpha   89.87716654
_cell_angle_beta   90.03734839
_cell_angle_gamma   90.09419062
_symmetry_Int_Tables_number   1
_chemical_formula_structural   HfZrTaTiMo
_chemical_formula_sum   'Hf40 Zr40 Ta40 Ti40 Mo40'
_cell_volume   3902.98631148
_cell_formula_units_Z   40
loop_
 _symmetry_equiv_pos_site_id
 _symmetry_equiv_pos_as_xyz
  1  'x, y, z'
loop_
 _atom_site_type_symbol
 _atom_site_label
 _atom_site_symmetry_multiplicity
 _atom_site_fract_x
 _atom_site_fract_y
 _atom_site_fract_z
 _atom_site_occupancy
  Hf  Hf0  1  0.79120520  0.19542956  0.50854730  1
  Hf  Hf1  1  0.40642574  0.38900177  0.50948320  1
  Hf  Hf2  1  0.29198612  0.90360313  0.11116701  1
  Hf  Hf3  1  0.07747538  0.69478420  0.12498399  1
  Hf  Hf4  1  0.50891589  0.48758852  0.37806404  1
  Hf  Hf5  1  0.32148090  0.29854957  0.11545576  1
  Hf  Hf6  1  0.20245171  -0.00175613  0.51918697  1
  Hf  Hf7  1  0.50568256  0.10107044  0.37651274  1
  Hf  Hf8  1  0.10582324  0.09589961  0.38769940  1
  Hf  Hf9  1  0.00423252  0.20086806  0.76052405  1
  Hf  Hf10  1  0.89555835  0.88219933  0.36404272  1
  Hf  Hf11  1  0.68862513  0.89640270  0.11900380  1
  Hf  Hf12  1  0.40704622  0.00104458  0.51156705  1
  Hf  Hf13  1  0.27277422  0.70450049  0.37482472  1
  Hf  Hf14  1  0.39382761  0.81057249  0.25493108  1
  Hf  Hf15  1  0.19465616  0.00340510  0.23892991  1
  Hf  Hf16  1  0.58374016  0.80358128  -0.01706114  1
  Hf  Hf17  1  0.80858718  0.19597869  0.22903526  1
  Hf  Hf18  1  -0.00327194  0.00104441  0.23897733  1
  Hf  Hf19  1  0.61729339  0.01365610  0.52064408  1
  Hf  Hf20  1  0.19518326  0.39924829  0.00031553  1
  Hf  Hf21  1  0.71285300  0.70113634  0.36453793  1
  Hf  Hf22  1  0.19723252  0.59854822  0.00022127  1
  Hf  Hf23  1  0.20130526  0.38588148  0.75496778  1
  Hf  Hf24  1  0.70404938  0.10887477  0.37153663  1
  Hf  Hf25  1  0.21129368  0.19826885  0.24065353  1
  Hf  Hf26  1  0.29240626  0.70437249  0.12739522  1
  Hf  Hf27  1  0.18247098  0.59135282  0.24282859  1
  Hf  Hf28  1  0.78447477  0.80412528  0.76434824  1
  Hf  Hf29  1  0.93901497  0.30542521  0.10922770  1
  Hf  Hf30  1  0.00093861  0.41061250  0.50294549  1
  Hf  Hf31  1  0.79211620  -0.00033177  0.23423256  1
  Hf  Hf32  1  -0.00462754  0.61488201  0.50750497  1
  Hf  Hf33  1  0.41683219  0.41060629  -0.01104841  1
  Hf  Hf34  1  0.39655099  0.01170818  0.25202844  1
  Hf  Hf35  1  -0.00906981  0.01093598  -0.00178947  1
  Hf  Hf36  1  0.69648231  0.69764888  0.11902507  1
  Hf  Hf37  1  0.40077822  0.19568171  0.50993632  1
  Hf  Hf38  1  -0.01112841  0.80974610  0.75600694  1
  Hf  Hf39  1  0.29847138  0.49263114  0.62943925  1
  Zr  Zr40  1  0.61207527  0.00743265  0.74408105  1
  Zr  Zr41  1  0.59814691  0.59337409  0.76515826  1
  Zr  Zr42  1  0.18289844  0.80184161  -0.00577568  1
  Zr  Zr43  1  0.40465989  0.60134426  0.49725380  1
  Zr  Zr44  1  0.82477155  0.18603551  0.00760960  1
  Zr  Zr45  1  0.00956723  0.20681199  0.25770993  1
  Zr  Zr46  1  0.49523563  0.89781766  0.63156548  1
  Zr  Zr47  1  0.31522752  0.30160810  0.37394276  1
  Zr  Zr48  1  0.69839409  0.47955415  0.89509608  1
  Zr  Zr49  1  0.11650890  0.30053100  0.61550222  1
  Zr  Zr50  1  0.20101719  0.81478504  0.73539295  1
  Zr  Zr51  1  0.19356714  0.60557006  0.51273123  1
  Zr  Zr52  1  0.59778515  0.58420812  0.23874105  1
  Zr  Zr53  1  0.79732109  0.80320437  -0.01429771  1
  Zr  Zr54  1  0.48908027  0.92297435  0.10742532  1
  Zr  Zr55  1  0.20862909  0.39991899  0.23894669  1
  Zr  Zr56  1  0.89380458  0.49708238  0.63996955  1
  Zr  Zr57  1  0.30244275  0.90280977  0.87763537  1
  Zr  Zr58  1  0.89564543  0.30115718  0.37637401  1
  Zr  Zr59  1  0.79899232  0.80010163  0.50838956  1
  Zr  Zr60  1  0.09572509  0.89190884  0.38056781  1
  Zr  Zr61  1  0.89419184  0.70327505  0.63784524  1
  Zr  Zr62  1  0.48893877  0.70118557  0.12795954  1
  Zr  Zr63  1  0.81028553  0.59856460  0.24267395  1
  Zr  Zr64  1  0.49959329  0.69815975  0.62944004  1
  Zr  Zr65  1  0.90325673  0.29244415  0.62696513  1
  Zr  Zr66  1  0.52077548  0.49476520  0.62564492  1
  Zr  Zr67  1  0.30260212  0.10302725  0.65033464  1
  Zr  Zr68  1  0.11785268  0.30672929  0.39448123  1
  Zr  Zr69  1  0.56879277  0.58616369  -0.00206243  1
  Zr  Zr70  1  0.29269310  0.90818592  0.37932736  1
  Zr  Zr71  1  0.79762418  0.59738252  0.76851641  1
  Zr  Zr72  1  0.09881723  0.69544583  0.85639428  1
  Zr  Zr73  1  0.69332327  0.90965714  0.37363863  1
  Zr  Zr74  1  0.20760700  0.19754271  -0.01067090  1
  Zr  Zr75  1  0.30231019  0.50652914  0.86740791  1
  Zr  Zr76  1  0.80541104  0.39869785  0.23767137  1
  Zr  Zr77  1  0.59626478  0.79212062  0.50214657  1
  Zr  Zr78  1  0.38866151  0.58973995  0.26261362  1
  Zr  Zr79  1  0.50302622  0.70351982  0.37371604  1
  Ta  Ta80  1  0.50490332  0.09207028  0.86950991  1
  Ta  Ta81  1  0.61104446  0.39569075  0.50177919  1
  Ta  Ta82  1  -0.00272923  0.80892463  0.51270900  1
  Ta  Ta83  1  -0.00150750  0.60062680  -0.01622071  1
  Ta  Ta84  1  -0.00462847  0.00866869  0.75522447  1
  Ta  Ta85  1  0.01210425  0.41930281  0.24981800  1
  Ta  Ta86  1  0.90009409  0.08651727  0.37926247  1
  Ta  Ta87  1  0.70894148  0.09761220  0.88519792  1
  Ta  Ta88  1  0.79112018  0.59418230  0.50158380  1
  Ta  Ta89  1  0.09294607  0.10597677  0.62244709  1
  Ta  Ta90  1  0.09330503  0.50831268  0.64902843  1
  Ta  Ta91  1  0.89458111  0.70393774  0.11685005  1
  Ta  Ta92  1  0.79490887  0.19190276  0.75439463  1
  Ta  Ta93  1  0.41583311  0.20191485  0.24202207  1
  Ta  Ta94  1  0.31264512  0.09764068  0.11291077  1
  Ta  Ta95  1  0.90396237  0.51373511  0.37658880  1
  Ta  Ta96  1  0.90648337  0.48958458  0.87370716  1
  Ta  Ta97  1  0.30362835  0.10070663  0.85948446  1
  Ta  Ta98  1  0.59493095  0.20967111  0.50659273  1
  Ta  Ta99  1  0.79881908  0.38311159  0.75829886  1
  Ta  Ta100  1  0.18061017  0.80444278  0.24216709  1
  Ta  Ta101  1  0.79286228  0.40447970  0.50206597  1
  Ta  Ta102  1  0.80719215  0.00397906  0.73911447  1
  Ta  Ta103  1  0.09552247  0.49636543  0.85599971  1
  Ta  Ta104  1  0.37949079  0.80221945  0.50437712  1
  Ta  Ta105  1  0.68955089  0.29704065  0.63285031  1
  Ta  Ta106  1  0.91654311  0.50768898  0.11132837  1
  Ta  Ta107  1  0.80665081  0.59875195  -0.00660870  1
  Ta  Ta108  1  0.41429924  0.39255065  0.75337698  1
  Ta  Ta109  1  0.58823243  0.80220257  0.76752173  1
  Ta  Ta110  1  0.10152129  0.50770688  0.38013737  1
  Ta  Ta111  1  0.67778780  0.10225127  0.10776177  1
  Ta  Ta112  1  0.60782558  0.38654957  0.75811113  1
  Ta  Ta113  1  0.09242448  0.11702805  0.11356944  1
  Ta  Ta114  1  0.88773768  0.91913143  0.87439837  1
  Ta  Ta115  1  0.31437348  0.50639915  0.11636367  1
  Ta  Ta116  1  0.29812395  0.70005388  0.86128921  1
  Ta  Ta117  1  0.70593407  0.30131290  0.10154669  1
  Ta  Ta118  1  0.60594010  0.20319581  0.23912598  1
  Ta  Ta119  1  -0.00473797  0.18576020  0.49913725  1
  Ti  Ti120  1  0.09717194  0.30096733  0.87691588  1
  Ti  Ti121  1  0.31272172  0.29343716  0.86933867  1
  Ti  Ti122  1  0.70456835  0.49337423  0.37146660  1
  Ti  Ti123  1  0.70094015  0.49075490  0.10466997  1
  Ti  Ti124  1  0.31106264  0.28964059  0.63992524  1
  Ti  Ti125  1  0.68601136  0.91560120  0.87921185  1
  Ti  Ti126  1  0.89771329  0.88790148  0.12637101  1
  Ti  Ti127  1  0.51743082  0.29394261  0.10981171  1
  Ti  Ti128  1  0.41679586  0.39765615  0.24052550  1
  Ti  Ti129  1  0.58924424  0.00836442  0.24317930  1
  Ti  Ti130  1  0.41566339  0.18898071  -0.01175989  1
  Ti  Ti131  1  0.60605701  0.39124592  0.23570068  1
  Ti  Ti132  1  0.51132300  0.12725213  0.64981124  1
  Ti  Ti133  1  0.19503295  0.00845202  -0.00511845  1
  Ti  Ti134  1  0.18539728  0.00926893  0.74986114  1
  Ti  Ti135  1  0.29975365  0.10847101  0.38097312  1
  Ti  Ti136  1  0.39142047  0.79233160  -0.00846407  1
  Ti  Ti137  1  0.69176618  0.69551182  0.88456353  1
  Ti  Ti138  1  0.06880807  0.70030351  0.36142193  1
  Ti  Ti139  1  0.82186575  0.00096739  0.52129880  1
  Ti  Ti140  1  0.08761357  0.89881116  0.11695037  1
  Ti  Ti141  1  0.40301411  -0.01401127  0.75151347  1
  Ti  Ti142  1  0.09432077  0.91188678  0.87364374  1
  Ti  Ti143  1  -0.01160300  0.80045941  -0.01651224  1
  Ti  Ti144  1  0.18794399  0.79775855  0.52485709  1
  Ti  Ti145  1  0.69689894  0.30347122  0.37123753  1
  Ti  Ti146  1  0.08273985  0.90981801  0.62706544  1
  Ti  Ti147  1  0.39842628  0.59788629  0.74636069  1
  Ti  Ti148  1  0.90464648  0.30157042  0.88582648  1
  Ti  Ti149  1  0.70341563  0.88958580  0.63089226  1
  Ti  Ti150  1  0.29071817  0.49230369  0.38751231  1
  Ti  Ti151  1  0.79652468  -0.00248064  0.01123867  1
  Ti  Ti152  1  0.69145581  0.68344511  0.63045889  1
  Ti  Ti153  1  0.71092271  0.29144560  0.89528839  1
  Ti  Ti154  1  0.51523034  0.29640411  0.87867579  1
  Ti  Ti155  1  0.59994602  0.81078910  0.25076073  1
  Ti  Ti156  1  0.48019116  0.69471200  0.87023231  1
  Ti  Ti157  1  0.49968999  0.90252132  0.38317141  1
  Ti  Ti158  1  0.51214251  0.29537201  0.36857890  1
  Ti  Ti159  1  0.29988726  0.70426497  0.63758456  1
  Mo  Mo160  1  0.90727058  0.09896038  0.62657236  1
  Mo  Mo161  1  0.40148030  0.79453443  0.75569731  1
  Mo  Mo162  1  0.61245368  0.20748071  0.77062272  1
  Mo  Mo163  1  0.00921356  0.40758773  -0.01173054  1
  Mo  Mo164  1  0.60257091  0.19924731  -0.01531145  1
  Mo  Mo165  1  0.59390231  0.00770605  -0.01010803  1
  Mo  Mo166  1  0.11378291  0.30176268  0.12089017  1
  Mo  Mo167  1  0.81378862  0.40211360  0.00588860  1
  Mo  Mo168  1  0.39029409  0.01059928  -0.01175069  1
  Mo  Mo169  1  -0.00364645  0.60006529  0.75981481  1
  Mo  Mo170  1  0.39170943  0.60721680  -0.00463546  1
  Mo  Mo171  1  0.49615584  0.48399321  0.12965261  1
  Mo  Mo172  1  0.49516431  0.90116232  0.87517566  1
  Mo  Mo173  1  0.10303468  0.09565233  0.87463176  1
  Mo  Mo174  1  0.89983549  0.70073505  0.37845881  1
  Mo  Mo175  1  0.09512459  0.49214043  0.11697162  1
  Mo  Mo176  1  0.49554117  0.11422847  0.11858375  1
  Mo  Mo177  1  -0.00527050  0.39460481  0.75791979  1
  Mo  Mo178  1  0.20537161  0.40514973  0.50820455  1
  Mo  Mo179  1  0.29960327  0.89936417  0.62855822  1
  Mo  Mo180  1  0.01621026  0.20099884  -0.01718123  1
  Mo  Mo181  1  0.50232517  0.29745311  0.63496692  1
  Mo  Mo182  1  -0.00643859  0.59574900  0.24944782  1
  Mo  Mo183  1  0.89658316  0.10055498  0.87124709  1
  Mo  Mo184  1  0.90372440  0.09621435  0.12583343  1
  Mo  Mo185  1  0.62142131  0.58436183  0.49674163  1
  Mo  Mo186  1  0.60275870  0.39107617  0.00138346  1
  Mo  Mo187  1  0.49698590  0.49170587  0.86122747  1
  Mo  Mo188  1  0.41047581  0.20351413  0.76680899  1
  Mo  Mo189  1  0.70745280  0.49007134  0.62940447  1
  Mo  Mo190  1  0.70497200  0.10687503  0.62831984  1
  Mo  Mo191  1  0.09408285  0.70222504  0.63717683  1
  Mo  Mo192  1  -0.00960539  0.79718775  0.23911594  1
  Mo  Mo193  1  -0.00471418  -0.00494354  0.50193737  1
  Mo  Mo194  1  0.89784917  0.90403313  0.63312570  1
  Mo  Mo195  1  0.20286967  0.60060726  0.73801072  1
  Mo  Mo196  1  0.89565562  0.70254813  0.87946750  1
  Mo  Mo197  1  0.20033058  0.19733748  0.76529953  1
  Mo  Mo198  1  0.79355784  0.79952796  0.23765394  1
  Mo  Mo199  1  0.20631114  0.19697157  0.50714671  1
