# generated using pymatgen
data_HfZrTaTiMo
_symmetry_space_group_name_H-M   'P 1'
_cell_length_a   15.20706968
_cell_length_b   15.22032539
_cell_length_c   16.86395970
_cell_angle_alpha   90.07417013
_cell_angle_beta   89.97286309
_cell_angle_gamma   89.99413455
_symmetry_Int_Tables_number   1
_chemical_formula_structural   HfZrTaTiMo
_chemical_formula_sum   'Hf40 Zr40 Ta40 Ti40 Mo40'
_cell_volume   3903.27018056
_cell_formula_units_Z   40
loop_
 _symmetry_equiv_pos_site_id
 _symmetry_equiv_pos_as_xyz
  1  'x, y, z'
loop_
 _atom_site_type_symbol
 _atom_site_label
 _atom_site_symmetry_multiplicity
 _atom_site_fract_x
 _atom_site_fract_y
 _atom_site_fract_z
 _atom_site_occupancy
  Hf  Hf0  1  0.89285872  0.71184235  0.37847721  1
  Hf  Hf1  1  0.79559282  0.80523217  0.75478787  1
  Hf  Hf2  1  0.71671574  0.11434963  0.62130589  1
  Hf  Hf3  1  0.71358746  0.31324173  0.13030995  1
  Hf  Hf4  1  0.18938006  0.60260408  0.74613080  1
  Hf  Hf5  1  0.19166941  0.59652294  0.00229217  1
  Hf  Hf6  1  0.60618409  0.01170122  0.49389068  1
  Hf  Hf7  1  0.81832272  0.19523628  0.00146354  1
  Hf  Hf8  1  0.00617010  0.20113401  0.26173543  1
  Hf  Hf9  1  0.89555062  0.49036037  0.61323364  1
  Hf  Hf10  1  0.20192111  0.80228960  -0.01349220  1
  Hf  Hf11  1  0.40376539  0.19242131  0.75578844  1
  Hf  Hf12  1  0.08718836  0.69884690  0.35736203  1
  Hf  Hf13  1  0.20052766  0.19578150  0.51060063  1
  Hf  Hf14  1  0.70105509  0.70177049  0.62236190  1
  Hf  Hf15  1  0.21358640  0.80018451  0.77222656  1
  Hf  Hf16  1  0.39670685  0.60877412  0.74936591  1
  Hf  Hf17  1  0.79930708  0.79690931  0.23762215  1
  Hf  Hf18  1  0.60142347  0.00516001  0.24508687  1
  Hf  Hf19  1  0.00658796  0.60770692  0.49874186  1
  Hf  Hf20  1  0.59538640  0.58672843  0.50438266  1
  Hf  Hf21  1  0.49898104  0.50494873  0.87550660  1
  Hf  Hf22  1  0.40889512  0.18047687  0.00036523  1
  Hf  Hf23  1  0.61126562  0.81572135  -0.01418423  1
  Hf  Hf24  1  0.91264654  0.70919886  0.61588906  1
  Hf  Hf25  1  0.29475972  0.49065612  0.11666817  1
  Hf  Hf26  1  0.20583618  -0.00146302  0.49593671  1
  Hf  Hf27  1  0.00176422  0.78839395  0.76215727  1
  Hf  Hf28  1  0.69274372  0.90522201  0.62278714  1
  Hf  Hf29  1  0.41431747  0.40569042  0.51249120  1
  Hf  Hf30  1  0.29311313  0.29065175  0.88091993  1
  Hf  Hf31  1  -0.00949997  0.39420319  0.26105798  1
  Hf  Hf32  1  0.71080863  0.90090234  0.37289486  1
  Hf  Hf33  1  0.70236634  0.49690224  0.86959931  1
  Hf  Hf34  1  -0.01856875  0.20055154  0.49440012  1
  Hf  Hf35  1  0.48821498  0.92313184  0.86253446  1
  Hf  Hf36  1  0.07934323  0.29844407  0.63042129  1
  Hf  Hf37  1  -0.00131632  0.80172866  0.00169481  1
  Hf  Hf38  1  0.88438962  0.50528073  0.37681000  1
  Hf  Hf39  1  0.09971369  0.88874825  0.63357546  1
  Zr  Zr40  1  0.87262024  0.29178087  0.63721966  1
  Zr  Zr41  1  0.80984655  0.20037404  0.24780302  1
  Zr  Zr42  1  0.70237060  0.48685630  0.63221807  1
  Zr  Zr43  1  0.39987335  -0.00342949  0.49132184  1
  Zr  Zr44  1  0.20529737  0.59211336  0.51832424  1
  Zr  Zr45  1  0.09047868  0.89603415  0.37028252  1
  Zr  Zr46  1  0.40715196  0.78635448  -0.02577217  1
  Zr  Zr47  1  0.00043516  0.00569180  0.24381165  1
  Zr  Zr48  1  0.81715113  0.59871583  0.74912791  1
  Zr  Zr49  1  0.22720641  0.00478522  0.27060972  1
  Zr  Zr50  1  0.60841765  0.20668123  0.75771473  1
  Zr  Zr51  1  0.20048341  0.79793780  0.24370224  1
  Zr  Zr52  1  0.60671990  0.21149276  0.00668526  1
  Zr  Zr53  1  0.20160975  0.40166103  0.73762008  1
  Zr  Zr54  1  0.09185757  0.48997956  0.13119323  1
  Zr  Zr55  1  0.51778644  0.31286758  0.36959349  1
  Zr  Zr56  1  0.30758222  0.28892557  0.37983875  1
  Zr  Zr57  1  0.31172356  0.49215462  0.37214015  1
  Zr  Zr58  1  0.18707925  0.79709082  0.50039973  1
  Zr  Zr59  1  0.29635535  0.09190896  0.12021665  1
  Zr  Zr60  1  0.60091045  0.59258250  0.23907364  1
  Zr  Zr61  1  0.88131079  0.48737373  0.12840601  1
  Zr  Zr62  1  0.79193681  -0.01172365  0.01734676  1
  Zr  Zr63  1  -0.00213912  -0.00418711  0.50493475  1
  Zr  Zr64  1  0.10216984  0.50314754  0.36637035  1
  Zr  Zr65  1  0.40294566  0.80533431  0.25786789  1
  Zr  Zr66  1  0.19801650  0.40143869  0.51553587  1
  Zr  Zr67  1  0.10977026  0.91634599  0.12133178  1
  Zr  Zr68  1  0.29763284  0.69601620  0.37983623  1
  Zr  Zr69  1  0.29443523  0.49696225  0.88352108  1
  Zr  Zr70  1  0.57788233  0.01195996  0.01107259  1
  Zr  Zr71  1  0.89202000  0.90507912  0.88254858  1
  Zr  Zr72  1  0.32099370  0.89893824  0.11365087  1
  Zr  Zr73  1  0.30506495  0.71406951  0.62599221  1
  Zr  Zr74  1  0.58921797  0.61014970  0.00320611  1
  Zr  Zr75  1  0.39892244  0.59293442  0.24266911  1
  Zr  Zr76  1  0.50985409  0.89505517  0.37027998  1
  Zr  Zr77  1  0.70272884  0.09041559  0.87874972  1
  Zr  Zr78  1  0.50903662  0.09869476  0.62545875  1
  Zr  Zr79  1  0.40789182  0.39323076  0.01097658  1
  Ta  Ta80  1  0.59582914  0.79599942  0.50072626  1
  Ta  Ta81  1  0.50541371  0.68620485  0.37866183  1
  Ta  Ta82  1  0.80238804  0.00195890  0.23629431  1
  Ta  Ta83  1  0.79990628  0.00453268  0.74987551  1
  Ta  Ta84  1  0.69681573  0.11472530  0.37158774  1
  Ta  Ta85  1  0.19916604  0.01161603  -0.01437952  1
  Ta  Ta86  1  0.69385753  0.69930051  0.37631206  1
  Ta  Ta87  1  0.39869590  0.19114381  0.24212156  1
  Ta  Ta88  1  -0.01053066  0.59774780  0.00978452  1
  Ta  Ta89  1  0.49372563  0.70889009  0.12355453  1
  Ta  Ta90  1  0.10614012  0.10692361  0.38043336  1
  Ta  Ta91  1  0.90093718  0.49831492  0.88225584  1
  Ta  Ta92  1  0.29961717  0.69606409  0.11595464  1
  Ta  Ta93  1  0.40714107  0.60081700  0.51282383  1
  Ta  Ta94  1  0.10854147  0.10549806  0.86161076  1
  Ta  Ta95  1  0.31414404  0.29417924  0.62625354  1
  Ta  Ta96  1  0.77959309  0.37641687  0.48336276  1
  Ta  Ta97  1  0.01927334  0.20674993  -0.01417209  1
  Ta  Ta98  1  0.89669513  0.69006625  0.88702321  1
  Ta  Ta99  1  0.10015890  0.09563189  0.63944867  1
  Ta  Ta100  1  0.41574440  0.20010272  0.50705299  1
  Ta  Ta101  1  0.30173781  0.09610148  0.63052037  1
  Ta  Ta102  1  0.41094699  0.38921746  0.23076420  1
  Ta  Ta103  1  0.20360101  0.38639474  0.24950528  1
  Ta  Ta104  1  0.28388525  0.28856796  0.11636660  1
  Ta  Ta105  1  0.92496700  0.28765627  0.11909037  1
  Ta  Ta106  1  0.30832538  0.90521263  0.63519300  1
  Ta  Ta107  1  0.59401634  0.80043995  0.76058656  1
  Ta  Ta108  1  0.10213331  0.30109377  0.38303989  1
  Ta  Ta109  1  0.40640155  0.39510137  0.74630673  1
  Ta  Ta110  1  0.91248250  0.10635542  0.86245772  1
  Ta  Ta111  1  0.09995390  0.12504396  0.11834587  1
  Ta  Ta112  1  0.90124717  0.30194198  0.86308264  1
  Ta  Ta113  1  0.09191092  0.68608853  0.88115716  1
  Ta  Ta114  1  0.60126754  0.60623446  0.75077391  1
  Ta  Ta115  1  0.79181060  0.59852826  0.00555865  1
  Ta  Ta116  1  0.00182036  0.39526533  -0.00470824  1
  Ta  Ta117  1  0.50667876  0.30604022  0.87732475  1
  Ta  Ta118  1  0.08864535  0.49495743  0.87497203  1
  Ta  Ta119  1  0.60769915  0.40908822  0.01364794  1
  Ti  Ti120  1  0.20094353  0.20139947  0.25608380  1
  Ti  Ti121  1  0.19826560  0.59579582  0.23890783  1
  Ti  Ti122  1  0.51115818  0.89662420  0.13219014  1
  Ti  Ti123  1  -0.00264706  0.01732568  0.00238728  1
  Ti  Ti124  1  0.79115180  0.60057865  0.24515225  1
  Ti  Ti125  1  0.80362181  0.39576170  -0.00325485  1
  Ti  Ti126  1  0.60189416  0.00223344  0.75037261  1
  Ti  Ti127  1  0.90437532  0.89514938  0.12572309  1
  Ti  Ti128  1  0.09630000  0.30176771  0.86051458  1
  Ti  Ti129  1  0.31381592  0.08280713  0.87332465  1
  Ti  Ti130  1  0.79983783  0.79231713  0.00883511  1
  Ti  Ti131  1  0.90837996  0.10328289  0.63989252  1
  Ti  Ti132  1  0.78344661  0.40265695  0.26527793  1
  Ti  Ti133  1  0.00078075  -0.00210350  0.75131261  1
  Ti  Ti134  1  0.89713720  0.90623488  0.62773318  1
  Ti  Ti135  1  0.40235367  0.79948714  0.49441551  1
  Ti  Ti136  1  0.68039227  0.30375568  0.62767345  1
  Ti  Ti137  1  0.50346406  0.70830214  0.62861074  1
  Ti  Ti138  1  -0.00996639  0.39814507  0.48826138  1
  Ti  Ti139  1  0.70169005  0.70103462  0.87487122  1
  Ti  Ti140  1  0.49373518  0.89474410  0.63432340  1
  Ti  Ti141  1  0.08419199  0.50834046  0.63238922  1
  Ti  Ti142  1  0.49831814  0.11320227  0.37075335  1
  Ti  Ti143  1  -0.01399340  0.41051523  0.75187558  1
  Ti  Ti144  1  0.70811376  0.30598325  0.87225040  1
  Ti  Ti145  1  0.79248909  0.59857087  0.49711545  1
  Ti  Ti146  1  0.80681337  0.00706414  0.49991791  1
  Ti  Ti147  1  0.20167501  0.19955089  0.74223448  1
  Ti  Ti148  1  0.50689945  0.49082827  0.64024308  1
  Ti  Ti149  1  0.09079505  0.70545036  0.12897536  1
  Ti  Ti150  1  -0.02082672  0.61345274  0.23448126  1
  Ti  Ti151  1  0.70114605  0.10161143  0.12822577  1
  Ti  Ti152  1  0.69320402  0.70990331  0.12332362  1
  Ti  Ti153  1  0.89267818  0.09353398  0.37529397  1
  Ti  Ti154  1  0.80031354  0.80861038  0.50114996  1
  Ti  Ti155  1  0.59537481  0.21141743  0.23646545  1
  Ti  Ti156  1  0.20793282  0.00119315  0.75607484  1
  Ti  Ti157  1  0.90123908  0.89980981  0.36789956  1
  Ti  Ti158  1  0.09678247  0.91155795  0.87582262  1
  Ti  Ti159  1  0.67084839  0.48896089  0.37458381  1
  Mo  Mo160  1  0.30533502  0.89650797  0.38186729  1
  Mo  Mo161  1  0.10715172  0.30086612  0.12647916  1
  Mo  Mo162  1  0.31142865  0.49693424  0.63156635  1
  Mo  Mo163  1  0.29836213  0.69056115  0.87911410  1
  Mo  Mo164  1  0.49882220  0.11156464  0.87114838  1
  Mo  Mo165  1  0.40622456  0.80150820  0.75767129  1
  Mo  Mo166  1  -0.00160101  0.59563164  0.75447187  1
  Mo  Mo167  1  0.79424582  0.39309642  0.75907235  1
  Mo  Mo168  1  0.49740599  0.50454761  0.37485387  1
  Mo  Mo169  1  0.59665036  0.40436911  0.23060110  1
  Mo  Mo170  1  0.39591284  0.60185180  0.00686560  1
  Mo  Mo171  1  0.91178006  0.09820625  0.11787386  1
  Mo  Mo172  1  0.50630875  0.69901446  0.86396030  1
  Mo  Mo173  1  0.69692740  0.89851483  0.86689826  1
  Mo  Mo174  1  0.39686839  -0.00008404  0.74155903  1
  Mo  Mo175  1  -0.01112962  0.80768269  0.50008156  1
  Mo  Mo176  1  0.19952325  0.19786200  -0.01253287  1
  Mo  Mo177  1  0.59949768  0.39648162  0.50319567  1
  Mo  Mo178  1  0.60449138  0.79041073  0.24721728  1
  Mo  Mo179  1  0.89517417  0.69700729  0.11637361  1
  Mo  Mo180  1  0.41091781  0.00823348  0.25942394  1
  Mo  Mo181  1  0.61127081  0.21603599  0.49643253  1
  Mo  Mo182  1  0.50531018  0.30065756  0.62823407  1
  Mo  Mo183  1  0.49850222  0.50093449  0.11661144  1
  Mo  Mo184  1  0.49487030  0.09536582  0.13767060  1
  Mo  Mo185  1  0.09643794  0.70038722  0.63252422  1
  Mo  Mo186  1  0.18208144  0.38141632  -0.00519419  1
  Mo  Mo187  1  0.69683887  0.29933645  0.35949918  1
  Mo  Mo188  1  -0.00689273  0.79864326  0.23306958  1
  Mo  Mo189  1  0.69785332  0.89685346  0.13148938  1
  Mo  Mo190  1  0.79098216  0.19085777  0.48989692  1
  Mo  Mo191  1  0.80324389  0.19597823  0.75902048  1
  Mo  Mo192  1  0.50011375  0.29449887  0.12904559  1
  Mo  Mo193  1  0.59490271  0.40152832  0.75798377  1
  Mo  Mo194  1  0.39528847  -0.00822879  -0.00138388  1
  Mo  Mo195  1  0.89437953  0.30087811  0.37791463  1
  Mo  Mo196  1  0.70205014  0.50468010  0.12024145  1
  Mo  Mo197  1  0.30935884  0.11066081  0.37970565  1
  Mo  Mo198  1  0.00717502  0.19972607  0.75505861  1
  Mo  Mo199  1  0.29311555  0.90796923  0.87408312  1
