# generated using pymatgen
data_HfZrTaTiMo
_symmetry_space_group_name_H-M   'P 1'
_cell_length_a   15.21894793
_cell_length_b   15.20466072
_cell_length_c   16.86759041
_cell_angle_alpha   90.04356116
_cell_angle_beta   90.00804211
_cell_angle_gamma   90.03435915
_symmetry_Int_Tables_number   1
_chemical_formula_structural   HfZrTaTiMo
_chemical_formula_sum   'Hf40 Zr40 Ta40 Ti40 Mo40'
_cell_volume   3903.14066686
_cell_formula_units_Z   40
loop_
 _symmetry_equiv_pos_site_id
 _symmetry_equiv_pos_as_xyz
  1  'x, y, z'
loop_
 _atom_site_type_symbol
 _atom_site_label
 _atom_site_symmetry_multiplicity
 _atom_site_fract_x
 _atom_site_fract_y
 _atom_site_fract_z
 _atom_site_occupancy
  Hf  Hf0  1  0.29894453  0.09194891  0.61727692  1
  Hf  Hf1  1  0.80147540  0.81292033  0.23969485  1
  Hf  Hf2  1  0.41349174  0.79446505  0.00065180  1
  Hf  Hf3  1  0.68169090  0.90668889  0.37514860  1
  Hf  Hf4  1  0.40849207  -0.00912129  0.73791051  1
  Hf  Hf5  1  0.69334440  0.50759826  0.37105868  1
  Hf  Hf6  1  0.11103392  0.69430261  0.12953226  1
  Hf  Hf7  1  0.78123567  0.00710376  -0.01320221  1
  Hf  Hf8  1  0.90984438  0.69098630  0.86886991  1
  Hf  Hf9  1  0.89110740  0.90870286  0.37810245  1
  Hf  Hf10  1  0.09264142  0.09449694  0.37749100  1
  Hf  Hf11  1  0.78711640  0.81581476  0.74575172  1
  Hf  Hf12  1  0.79252226  0.19344962  0.24382076  1
  Hf  Hf13  1  0.59855197  0.22197838  0.49972040  1
  Hf  Hf14  1  0.39472527  0.58150563  0.77012442  1
  Hf  Hf15  1  0.89833787  0.89860376  0.88570811  1
  Hf  Hf16  1  0.02334410  0.80510499  0.76163917  1
  Hf  Hf17  1  0.40493676  0.57704358  0.26321539  1
  Hf  Hf18  1  -0.00417551  0.59438489  0.25182165  1
  Hf  Hf19  1  0.79477777  0.39556275  0.49960618  1
  Hf  Hf20  1  0.18919887  0.61544976  0.76246501  1
  Hf  Hf21  1  0.70555203  0.10325841  0.38149403  1
  Hf  Hf22  1  -0.00250787  0.60256178  0.49946743  1
  Hf  Hf23  1  0.59862136  -0.00869519  0.51430571  1
  Hf  Hf24  1  0.20239898  0.59531541  0.49318784  1
  Hf  Hf25  1  0.78267100  0.60111668  0.74536005  1
  Hf  Hf26  1  0.11305948  0.71387924  0.62107432  1
  Hf  Hf27  1  0.29444567  0.10242970  0.86931058  1
  Hf  Hf28  1  0.20576501  -0.00933322  0.24488513  1
  Hf  Hf29  1  0.90087134  0.91200302  0.63074200  1
  Hf  Hf30  1  0.29134451  0.28765039  0.12108432  1
  Hf  Hf31  1  0.40210757  0.19447660  0.25563077  1
  Hf  Hf32  1  0.59800048  0.80701202  0.23759753  1
  Hf  Hf33  1  0.59775075  0.20601543  0.25048740  1
  Hf  Hf34  1  -0.00893513  0.20391433  0.50323560  1
  Hf  Hf35  1  0.20235425  0.40612272  0.24727673  1
  Hf  Hf36  1  0.20657092  0.80355565  -0.00326733  1
  Hf  Hf37  1  0.39202668  0.18735899  -0.00146643  1
  Hf  Hf38  1  0.50874095  0.70217406  0.36170831  1
  Hf  Hf39  1  0.39741051  0.58934885  0.47987763  1
  Zr  Zr40  1  -0.00491257  0.40906964  0.50008625  1
  Zr  Zr41  1  0.20210806  0.59681809  -0.01179284  1
  Zr  Zr42  1  0.32121198  0.30182753  0.62477954  1
  Zr  Zr43  1  -0.01201204  0.00368834  0.23491373  1
  Zr  Zr44  1  0.50113529  0.07713810  0.87391462  1
  Zr  Zr45  1  -0.00993038  0.39879111  0.00313442  1
  Zr  Zr46  1  0.19325756  0.39070980  -0.00806097  1
  Zr  Zr47  1  0.89779656  0.69998518  0.37734732  1
  Zr  Zr48  1  0.10440602  0.90248991  0.11422842  1
  Zr  Zr49  1  0.41715509  0.39174446  0.48939432  1
  Zr  Zr50  1  0.50004546  0.30020962  0.11544207  1
  Zr  Zr51  1  0.70028539  0.71338223  0.88486276  1
  Zr  Zr52  1  0.00662680  0.80574490  0.24541649  1
  Zr  Zr53  1  0.19878354  0.20297889  0.74209933  1
  Zr  Zr54  1  0.21120980  0.40605535  0.76248414  1
  Zr  Zr55  1  0.78961447  0.40011480  0.24239454  1
  Zr  Zr56  1  0.20004966  0.19678244  0.25340116  1
  Zr  Zr57  1  -0.00045834  0.20044504  0.22985804  1
  Zr  Zr58  1  0.42339227  0.78960520  0.75866405  1
  Zr  Zr59  1  0.79836022  0.59917276  0.50987380  1
  Zr  Zr60  1  0.90392282  0.70574737  0.63208041  1
  Zr  Zr61  1  0.20610130  0.20568274  0.50143240  1
  Zr  Zr62  1  0.81451622  0.20334359  -0.01375053  1
  Zr  Zr63  1  0.60582477  0.40624039  0.77366017  1
  Zr  Zr64  1  0.30367115  0.08353387  0.38344424  1
  Zr  Zr65  1  0.60021949  0.39893151  -0.01543249  1
  Zr  Zr66  1  0.81761111  0.20957323  0.77041789  1
  Zr  Zr67  1  0.70337211  0.70830085  0.37788817  1
  Zr  Zr68  1  0.31503938  0.68536895  0.62864915  1
  Zr  Zr69  1  0.11413793  0.71431172  0.37318445  1
  Zr  Zr70  1  0.09942095  0.30490609  0.37960718  1
  Zr  Zr71  1  0.19318815  -0.01260166  0.75120660  1
  Zr  Zr72  1  0.79975488  0.59348127  -0.00013695  1
  Zr  Zr73  1  0.50045039  0.11182575  0.62609308  1
  Zr  Zr74  1  -0.00052609  0.02390217  0.00915476  1
  Zr  Zr75  1  0.70969961  0.10492835  0.63204225  1
  Zr  Zr76  1  0.30179959  0.50247134  0.12219827  1
  Zr  Zr77  1  0.88421834  0.48142365  0.85749407  1
  Zr  Zr78  1  0.68300755  0.49596244  0.62541588  1
  Zr  Zr79  1  0.29549907  0.87861647  0.62240875  1
  Ta  Ta80  1  0.40996056  0.79022423  0.49039314  1
  Ta  Ta81  1  0.89596569  0.10341460  0.37246974  1
  Ta  Ta82  1  0.00361719  0.59824153  0.00225454  1
  Ta  Ta83  1  -0.00531188  0.01366818  0.76060347  1
  Ta  Ta84  1  0.09248953  0.10976442  0.87930033  1
  Ta  Ta85  1  0.09964745  0.50056792  0.37159297  1
  Ta  Ta86  1  0.60912316  0.19824585  0.76622535  1
  Ta  Ta87  1  0.49765570  0.09201905  0.12092842  1
  Ta  Ta88  1  0.31567314  0.90743670  0.88040944  1
  Ta  Ta89  1  0.00791496  0.81517000  0.50042866  1
  Ta  Ta90  1  0.90065460  0.49310091  0.64263077  1
  Ta  Ta91  1  0.40396755  -0.01833716  0.50025848  1
  Ta  Ta92  1  0.09204670  0.29432340  0.87316042  1
  Ta  Ta93  1  0.39270158  0.40133335  -0.02076204  1
  Ta  Ta94  1  0.50845986  0.08728321  0.38010952  1
  Ta  Ta95  1  0.70341340  0.70346651  0.11702994  1
  Ta  Ta96  1  0.79529026  0.60403961  0.23908054  1
  Ta  Ta97  1  0.68407915  0.50307008  0.12591475  1
  Ta  Ta98  1  0.58542059  0.59928990  0.50100847  1
  Ta  Ta99  1  -0.00558184  0.00391271  0.50060137  1
  Ta  Ta100  1  0.50263494  0.68768320  0.13159964  1
  Ta  Ta101  1  0.59146868  0.60364150  -0.00393603  1
  Ta  Ta102  1  0.09743572  0.50560818  0.63481927  1
  Ta  Ta103  1  0.79090380  0.39729639  0.00006531  1
  Ta  Ta104  1  0.08084429  0.50665749  0.86481656  1
  Ta  Ta105  1  0.60722358  -0.01909363  0.74042282  1
  Ta  Ta106  1  0.30063003  0.70923087  0.87361700  1
  Ta  Ta107  1  0.90419116  0.10536893  0.63182851  1
  Ta  Ta108  1  0.90296691  0.70126418  0.11771901  1
  Ta  Ta109  1  0.19045206  -0.01673523  0.50092177  1
  Ta  Ta110  1  0.67415655  0.71506918  0.62141243  1
  Ta  Ta111  1  0.10463901  0.31259690  0.62117663  1
  Ta  Ta112  1  0.49372160  0.49897304  0.11619629  1
  Ta  Ta113  1  0.09237094  0.09902304  0.62135204  1
  Ta  Ta114  1  -0.00619341  0.40040474  0.24889860  1
  Ta  Ta115  1  0.49583884  0.90048878  0.12734576  1
  Ta  Ta116  1  0.48652708  0.50086788  0.63067977  1
  Ta  Ta117  1  0.58453267  0.61401282  0.76142820  1
  Ta  Ta118  1  0.89077196  0.89607215  0.10587767  1
  Ta  Ta119  1  0.89032699  0.30032525  0.36920417  1
  Ti  Ti120  1  0.60598775  0.80541466  0.01164536  1
  Ti  Ti121  1  0.49808628  0.28585830  0.87987917  1
  Ti  Ti122  1  0.09621155  0.90654237  0.62556830  1
  Ti  Ti123  1  0.10885282  0.90939643  0.88740749  1
  Ti  Ti124  1  0.29611189  0.87937729  0.37761612  1
  Ti  Ti125  1  0.70475904  0.30078167  0.63417331  1
  Ti  Ti126  1  0.21022383  0.60842990  0.26218938  1
  Ti  Ti127  1  0.68818333  0.31103154  0.37409695  1
  Ti  Ti128  1  0.09499228  0.49611612  0.12773983  1
  Ti  Ti129  1  0.69716234  0.29470700  0.11661595  1
  Ti  Ti130  1  0.10171696  0.90221405  0.37478648  1
  Ti  Ti131  1  0.79760722  0.00996425  0.76694495  1
  Ti  Ti132  1  0.21566455  0.01578234  0.00712822  1
  Ti  Ti133  1  0.40888582  -0.00878501  0.25510015  1
  Ti  Ti134  1  -0.00022270  0.38590242  0.74701799  1
  Ti  Ti135  1  0.40785698  0.19244518  0.48670585  1
  Ti  Ti136  1  0.58593064  -0.00203127  0.00423955  1
  Ti  Ti137  1  0.87019311  0.09313711  0.12385680  1
  Ti  Ti138  1  0.30493645  0.31131586  0.37470116  1
  Ti  Ti139  1  0.68002206  0.90630378  0.87792314  1
  Ti  Ti140  1  0.51613563  0.31214072  0.63902385  1
  Ti  Ti141  1  0.90021514  0.29912327  0.63012282  1
  Ti  Ti142  1  0.39094252  0.79827795  0.25144949  1
  Ti  Ti143  1  0.40645210  0.20302221  0.75635824  1
  Ti  Ti144  1  0.80318840  0.00725352  0.50665902  1
  Ti  Ti145  1  0.51611038  0.86787639  0.62066545  1
  Ti  Ti146  1  0.40399035  0.39270876  0.77408556  1
  Ti  Ti147  1  0.40205203  0.59699634  -0.01309350  1
  Ti  Ti148  1  0.00253331  0.79350711  -0.00430336  1
  Ti  Ti149  1  0.80231433  0.20297498  0.50115607  1
  Ti  Ti150  1  0.29265844  0.48904525  0.62125624  1
  Ti  Ti151  1  0.89261726  0.50127607  0.12499870  1
  Ti  Ti152  1  0.60420735  0.00980373  0.24232949  1
  Ti  Ti153  1  0.57811057  0.40901864  0.24982301  1
  Ti  Ti154  1  0.30899100  0.69858621  0.12944214  1
  Ti  Ti155  1  0.78853963  0.81322093  0.51232434  1
  Ti  Ti156  1  0.61668034  0.18935072  -0.01506854  1
  Ti  Ti157  1  0.89824516  0.30197916  0.12256929  1
  Ti  Ti158  1  0.30976906  0.90197096  0.12369481  1
  Ti  Ti159  1  0.70014684  0.91822890  0.12181378  1
  Mo  Mo160  1  0.50452543  0.70181642  0.88856427  1
  Mo  Mo161  1  0.21689904  0.79919529  0.24111803  1
  Mo  Mo162  1  0.70518083  0.90243223  0.62267337  1
  Mo  Mo163  1  0.69818159  0.50803828  0.87412182  1
  Mo  Mo164  1  0.19048289  0.19505756  -0.00130953  1
  Mo  Mo165  1  0.39803967  -0.00993818  0.00558816  1
  Mo  Mo166  1  0.91194201  0.09918244  0.87556515  1
  Mo  Mo167  1  0.12711119  0.11445109  0.11827458  1
  Mo  Mo168  1  0.31006686  0.08731039  0.12965907  1
  Mo  Mo169  1  0.50230943  0.29511107  0.36851396  1
  Mo  Mo170  1  0.79038481  0.00180207  0.24405425  1
  Mo  Mo171  1  0.01075071  0.20795625  0.01539237  1
  Mo  Mo172  1  0.90134496  0.49145917  0.36551131  1
  Mo  Mo173  1  0.29289620  0.49954544  0.87947637  1
  Mo  Mo174  1  0.49777303  0.50327618  0.88467291  1
  Mo  Mo175  1  0.30347622  0.29191060  0.87494256  1
  Mo  Mo176  1  0.50964311  0.49101910  0.37109395  1
  Mo  Mo177  1  0.20340215  0.40889631  0.50375927  1
  Mo  Mo178  1  0.79964814  0.80370207  0.00724798  1
  Mo  Mo179  1  0.68445173  0.10445207  0.11781025  1
  Mo  Mo180  1  0.60251243  0.79878547  0.75311603  1
  Mo  Mo181  1  0.60179118  0.40761909  0.50433567  1
  Mo  Mo182  1  0.48770101  0.90592084  0.36938847  1
  Mo  Mo183  1  0.01074770  0.20206651  0.74105754  1
  Mo  Mo184  1  0.91763564  0.29778555  0.87546054  1
  Mo  Mo185  1  0.69560441  0.09588459  0.86499452  1
  Mo  Mo186  1  0.29033838  0.49034218  0.37274517  1
  Mo  Mo187  1  0.09482607  0.70707456  0.88500223  1
  Mo  Mo188  1  0.79888229  0.39524329  0.74230088  1
  Mo  Mo189  1  0.20850418  0.80876676  0.77012499  1
  Mo  Mo190  1  0.40271146  0.38744765  0.25597039  1
  Mo  Mo191  1  0.50928561  0.89271523  0.88205856  1
  Mo  Mo192  1  0.60521529  0.59770740  0.23667081  1
  Mo  Mo193  1  0.49962499  0.68213221  0.62226304  1
  Mo  Mo194  1  0.59217581  0.79868734  0.49600957  1
  Mo  Mo195  1  0.30470623  0.70173809  0.36943949  1
  Mo  Mo196  1  0.70965999  0.30553755  0.87768413  1
  Mo  Mo197  1  0.09446203  0.30651507  0.12646546  1
  Mo  Mo198  1  -0.00007955  0.59702742  0.74322481  1
  Mo  Mo199  1  0.20555250  0.80321183  0.49733277  1
