# generated using pymatgen
data_HfZrTaTiMo
_symmetry_space_group_name_H-M   'P 1'
_cell_length_a   15.20131167
_cell_length_b   15.20724405
_cell_length_c   16.84370563
_cell_angle_alpha   89.92623831
_cell_angle_beta   90.01002404
_cell_angle_gamma   90.10041702
_symmetry_Int_Tables_number   1
_chemical_formula_structural   HfZrTaTiMo
_chemical_formula_sum   'Hf40 Zr40 Ta40 Ti40 Mo40'
_cell_volume   3893.75111529
_cell_formula_units_Z   40
loop_
 _symmetry_equiv_pos_site_id
 _symmetry_equiv_pos_as_xyz
  1  'x, y, z'
loop_
 _atom_site_type_symbol
 _atom_site_label
 _atom_site_symmetry_multiplicity
 _atom_site_fract_x
 _atom_site_fract_y
 _atom_site_fract_z
 _atom_site_occupancy
  Hf  Hf0  1  0.21165239  0.40127572  0.49542757  1
  Hf  Hf1  1  0.79244242  -0.01353556  0.00868369  1
  Hf  Hf2  1  0.89991466  0.50859461  0.39824585  1
  Hf  Hf3  1  0.47816815  0.08317526  0.11500090  1
  Hf  Hf4  1  -0.00043266  0.80686244  0.73602558  1
  Hf  Hf5  1  0.40566450  0.81628832  0.00149322  1
  Hf  Hf6  1  0.48700568  0.70807748  0.38242202  1
  Hf  Hf7  1  0.40169574  0.81777011  0.24631726  1
  Hf  Hf8  1  0.18454511  0.40004490  0.00373981  1
  Hf  Hf9  1  0.91486837  0.49700060  0.86500555  1
  Hf  Hf10  1  0.40293638  0.00497616  0.51218138  1
  Hf  Hf11  1  0.68191063  0.48843459  0.62197828  1
  Hf  Hf12  1  0.19355991  0.80649761  -0.00761087  1
  Hf  Hf13  1  0.31820307  0.09665871  0.85237641  1
  Hf  Hf14  1  0.49727037  0.72001872  0.86121698  1
  Hf  Hf15  1  0.90634856  0.87715917  0.12407947  1
  Hf  Hf16  1  0.60095070  0.61520191  -0.01704192  1
  Hf  Hf17  1  0.69318399  0.28661703  0.61860786  1
  Hf  Hf18  1  0.10720083  0.87600650  0.39342211  1
  Hf  Hf19  1  0.60139684  0.59330879  0.76696878  1
  Hf  Hf20  1  0.77958443  0.61161589  0.49989878  1
  Hf  Hf21  1  0.89752517  0.31171302  0.38681027  1
  Hf  Hf22  1  0.47973655  0.49920336  0.88067194  1
  Hf  Hf23  1  0.19239413  0.60316273  0.00291028  1
  Hf  Hf24  1  0.58736923  0.38937326  0.76705076  1
  Hf  Hf25  1  0.51041178  0.11363053  0.62217136  1
  Hf  Hf26  1  0.09905259  0.10349563  0.63511663  1
  Hf  Hf27  1  0.51167998  0.28620496  0.11131865  1
  Hf  Hf28  1  0.57288604  0.57818701  0.49477479  1
  Hf  Hf29  1  0.79228775  0.19347184  0.48885605  1
  Hf  Hf30  1  0.30983660  0.92562197  0.12558577  1
  Hf  Hf31  1  0.60599964  0.79225863  0.49668194  1
  Hf  Hf32  1  0.91412015  0.90034659  0.38952355  1
  Hf  Hf33  1  0.21630405  0.00674893  -0.00665002  1
  Hf  Hf34  1  0.49969722  0.50472752  0.11387255  1
  Hf  Hf35  1  0.69317720  0.47817497  0.38496535  1
  Hf  Hf36  1  0.79228548  0.00185116  0.24481359  1
  Hf  Hf37  1  0.39598157  0.60059697  0.24922782  1
  Hf  Hf38  1  0.81245644  0.41373099  0.24805379  1
  Hf  Hf39  1  0.60304957  0.19501706  0.75725767  1
  Zr  Zr40  1  0.20204139  0.79068545  0.73222328  1
  Zr  Zr41  1  0.69424137  0.88828508  0.87022305  1
  Zr  Zr42  1  0.90455744  0.89267223  0.87770854  1
  Zr  Zr43  1  0.07794203  0.70637379  0.13153725  1
  Zr  Zr44  1  0.00066929  0.20785836  0.74635853  1
  Zr  Zr45  1  0.81283948  0.78533480  0.25717667  1
  Zr  Zr46  1  0.70723127  0.89608623  0.37593818  1
  Zr  Zr47  1  0.48644611  0.69081172  0.62821942  1
  Zr  Zr48  1  0.60116519  0.79332462  0.25906822  1
  Zr  Zr49  1  0.00060828  0.18893270  0.49635196  1
  Zr  Zr50  1  0.90560203  0.09228893  0.87326133  1
  Zr  Zr51  1  0.01076766  0.40551738  0.73110221  1
  Zr  Zr52  1  0.80013192  0.18451385  0.00394587  1
  Zr  Zr53  1  0.27599186  0.50179337  0.86839376  1
  Zr  Zr54  1  0.61157768  0.40859858  -0.01137923  1
  Zr  Zr55  1  0.21196410  0.20238559  -0.00068301  1
  Zr  Zr56  1  0.69055724  0.70186153  0.63810946  1
  Zr  Zr57  1  0.79279101  0.39375186  0.75034051  1
  Zr  Zr58  1  0.21219193  0.41181214  0.26157648  1
  Zr  Zr59  1  -0.00376254  0.59268279  -0.00343008  1
  Zr  Zr60  1  0.51543189  0.31656411  0.37807573  1
  Zr  Zr61  1  0.60492634  0.00460284  0.49098116  1
  Zr  Zr62  1  0.01319523  -0.00217327  0.00332766  1
  Zr  Zr63  1  0.18188720  0.60280006  0.25563568  1
  Zr  Zr64  1  0.20054301  0.00325129  0.50657576  1
  Zr  Zr65  1  0.11413485  0.10996970  0.85800431  1
  Zr  Zr66  1  0.71469102  0.30332988  0.11244900  1
  Zr  Zr67  1  0.29290148  0.70937425  0.12634653  1
  Zr  Zr68  1  0.79076742  0.58408237  -0.01611461  1
  Zr  Zr69  1  0.42166032  0.19661985  0.26271184  1
  Zr  Zr70  1  0.31461417  0.30292823  0.13257798  1
  Zr  Zr71  1  0.90241554  0.30136669  0.88543651  1
  Zr  Zr72  1  0.90313087  0.10287638  0.13245593  1
  Zr  Zr73  1  0.57460256  0.00344603  0.26322771  1
  Zr  Zr74  1  0.11009269  0.29304814  0.14713674  1
  Zr  Zr75  1  0.49234711  0.91671012  0.85746322  1
  Zr  Zr76  1  0.28167512  0.70629881  0.38080880  1
  Zr  Zr77  1  0.20383876  0.20358036  0.49668356  1
  Zr  Zr78  1  0.10449193  0.09475669  0.14431786  1
  Zr  Zr79  1  0.60586697  0.39656433  0.23810730  1
  Ta  Ta80  1  0.88363774  0.67439261  0.12831115  1
  Ta  Ta81  1  0.69675330  0.28221065  0.88827788  1
  Ta  Ta82  1  0.59548598  0.00120202  0.00027535  1
  Ta  Ta83  1  0.10580811  0.90371075  0.86089747  1
  Ta  Ta84  1  0.68776844  0.89348307  0.12703369  1
  Ta  Ta85  1  0.91156006  0.70552528  0.39993001  1
  Ta  Ta86  1  0.89561696  0.29663126  0.61509280  1
  Ta  Ta87  1  0.89450628  0.70574569  0.61284124  1
  Ta  Ta88  1  0.89762865  0.69925358  0.86318552  1
  Ta  Ta89  1  0.91757634  0.31420254  0.11914299  1
  Ta  Ta90  1  0.19579548  0.59969485  0.50189142  1
  Ta  Ta91  1  0.79521511  0.19003163  0.75417129  1
  Ta  Ta92  1  0.39421756  0.60977609  -0.00108770  1
  Ta  Ta93  1  0.89846486  0.09399243  0.62895760  1
  Ta  Ta94  1  0.10178743  0.30075039  0.36914991  1
  Ta  Ta95  1  0.01767978  0.21111358  -0.00026502  1
  Ta  Ta96  1  0.90128933  0.90580196  0.61292750  1
  Ta  Ta97  1  0.07790744  0.49414869  0.13276314  1
  Ta  Ta98  1  0.09269453  0.50677674  0.38887930  1
  Ta  Ta99  1  0.40104594  0.21097373  0.49657131  1
  Ta  Ta100  1  0.80701100  0.00408436  0.49820285  1
  Ta  Ta101  1  0.40887187  0.41711384  0.49953089  1
  Ta  Ta102  1  0.49579686  0.31307838  0.61835747  1
  Ta  Ta103  1  0.79365063  0.20931975  0.25527230  1
  Ta  Ta104  1  0.30518971  0.09812715  0.37134567  1
  Ta  Ta105  1  0.89203293  0.50268156  0.61334265  1
  Ta  Ta106  1  0.29836250  0.70468010  0.87166771  1
  Ta  Ta107  1  0.20630821  -0.01135632  0.26679843  1
  Ta  Ta108  1  0.09677865  0.69215444  0.86342263  1
  Ta  Ta109  1  -0.00107293  0.60673629  0.73161439  1
  Ta  Ta110  1  0.80775690  -0.00446968  0.74674958  1
  Ta  Ta111  1  0.29909474  0.30067479  0.86151879  1
  Ta  Ta112  1  0.09387158  0.08959463  0.36624645  1
  Ta  Ta113  1  0.50651827  0.70610528  0.12251811  1
  Ta  Ta114  1  0.31373455  0.89688212  0.38896490  1
  Ta  Ta115  1  -0.00809754  0.20466450  0.26285788  1
  Ta  Ta116  1  0.20757849  -0.00837938  0.73409715  1
  Ta  Ta117  1  0.79870794  0.79821216  0.74497934  1
  Ta  Ta118  1  0.69690631  0.69652718  0.12701919  1
  Ta  Ta119  1  0.10745251  0.89668760  0.13294500  1
  Ti  Ti120  1  0.80156776  0.59683660  0.75118875  1
  Ti  Ti121  1  0.00892437  0.39444837  0.51229507  1
  Ti  Ti122  1  0.09735411  0.69946034  0.60884950  1
  Ti  Ti123  1  0.79585989  0.78066723  -0.00118245  1
  Ti  Ti124  1  0.00211182  -0.02044361  0.25250799  1
  Ti  Ti125  1  0.70807030  0.09186905  0.62457632  1
  Ti  Ti126  1  0.10649810  0.32090123  0.86613977  1
  Ti  Ti127  1  0.71357338  0.51429357  0.12861202  1
  Ti  Ti128  1  0.30750623  0.50355063  0.62744715  1
  Ti  Ti129  1  0.29794529  0.50202815  0.11966706  1
  Ti  Ti130  1  0.40153289  0.19540539  -0.01154442  1
  Ti  Ti131  1  0.19198164  0.80347346  0.25381478  1
  Ti  Ti132  1  -0.02253698  0.60393919  0.26024625  1
  Ti  Ti133  1  0.30455440  0.11437959  0.63601686  1
  Ti  Ti134  1  0.09578535  0.90431579  0.61225957  1
  Ti  Ti135  1  0.60247546  0.59670403  0.25805360  1
  Ti  Ti136  1  0.41064993  0.21613518  0.75080009  1
  Ti  Ti137  1  -0.00056290  0.79121193  -0.00885519  1
  Ti  Ti138  1  0.60510442  0.80529538  0.00209781  1
  Ti  Ti139  1  0.00310685  0.40920737  0.26081862  1
  Ti  Ti140  1  0.89593174  0.09514357  0.36558429  1
  Ti  Ti141  1  0.40601629  0.00055627  0.72704559  1
  Ti  Ti142  1  0.61349483  -0.00141701  0.74561021  1
  Ti  Ti143  1  0.19207169  0.59299762  0.73789814  1
  Ti  Ti144  1  0.30205909  0.89876816  0.86305721  1
  Ti  Ti145  1  0.51218672  0.89379064  0.62789689  1
  Ti  Ti146  1  0.38699941  0.60410260  0.74942906  1
  Ti  Ti147  1  0.51432981  0.10817507  0.88082983  1
  Ti  Ti148  1  0.38157785  0.60228050  0.49916038  1
  Ti  Ti149  1  0.40867856  0.41162266  0.25210228  1
  Ti  Ti150  1  0.70762397  0.89950794  0.62292536  1
  Ti  Ti151  1  0.38893563  0.39554984  -0.00370533  1
  Ti  Ti152  1  0.39338208  0.40544804  0.74781107  1
  Ti  Ti153  1  0.29752475  0.30597298  0.63196169  1
  Ti  Ti154  1  0.59877341  0.19959771  0.48332921  1
  Ti  Ti155  1  0.29040863  0.11375142  0.15413065  1
  Ti  Ti156  1  0.10698711  0.49816674  0.61500244  1
  Ti  Ti157  1  0.67837380  0.10542896  0.13280256  1
  Ti  Ti158  1  0.39118305  0.80569963  0.73127184  1
  Ti  Ti159  1  0.30928824  0.30554241  0.37103522  1
  Mo  Mo160  1  0.09891013  0.50823673  0.86182415  1
  Mo  Mo161  1  0.90019216  0.49912168  0.13002348  1
  Mo  Mo162  1  0.81276056  0.39945467  0.00083491  1
  Mo  Mo163  1  0.00600881  -0.00716673  0.74529781  1
  Mo  Mo164  1  0.50681820  0.89727432  0.11934886  1
  Mo  Mo165  1  0.20392428  0.40028447  0.73496045  1
  Mo  Mo166  1  0.00300341  0.80167031  0.51808283  1
  Mo  Mo167  1  0.40234005  0.00654155  -0.01430928  1
  Mo  Mo168  1  0.49352417  0.10446239  0.38998280  1
  Mo  Mo169  1  -0.00077241  0.00818804  0.49654472  1
  Mo  Mo170  1  0.30592338  0.50077894  0.38056279  1
  Mo  Mo171  1  0.00823080  0.39865922  0.00007481  1
  Mo  Mo172  1  0.79980459  0.39646683  0.51267598  1
  Mo  Mo173  1  0.70091119  0.08851994  0.87134644  1
  Mo  Mo174  1  0.21282928  0.20891719  0.74179649  1
  Mo  Mo175  1  0.39363670  -0.00110935  0.26058180  1
  Mo  Mo176  1  0.59977830  0.80780748  0.73745608  1
  Mo  Mo177  1  -0.00060237  0.59459793  0.51990459  1
  Mo  Mo178  1  0.70720082  0.70238179  0.86121048  1
  Mo  Mo179  1  0.59494811  0.38904483  0.50539114  1
  Mo  Mo180  1  0.70755866  0.48922797  0.86738474  1
  Mo  Mo181  1  0.00561011  0.79000166  0.25554606  1
  Mo  Mo182  1  0.79795811  0.80559593  0.50421667  1
  Mo  Mo183  1  0.48920621  0.90006506  0.38845542  1
  Mo  Mo184  1  0.70744336  0.29778309  0.37522692  1
  Mo  Mo185  1  0.79029148  0.60197627  0.26493082  1
  Mo  Mo186  1  0.48958924  0.50642186  0.36901647  1
  Mo  Mo187  1  0.39772718  0.80306810  0.51635576  1
  Mo  Mo188  1  0.08473786  0.69188370  0.38919768  1
  Mo  Mo189  1  0.20074297  0.19791351  0.27519134  1
  Mo  Mo190  1  0.20937018  0.79491398  0.51920619  1
  Mo  Mo191  1  0.48631765  0.49408744  0.63670942  1
  Mo  Mo192  1  0.29130163  0.68967875  0.62133180  1
  Mo  Mo193  1  0.70153766  0.10593291  0.36458398  1
  Mo  Mo194  1  0.59781222  0.18918645  -0.00509818  1
  Mo  Mo195  1  0.70224429  0.68636825  0.37499430  1
  Mo  Mo196  1  0.30711662  0.89777566  0.61937878  1
  Mo  Mo197  1  0.48588551  0.29342545  0.88505395  1
  Mo  Mo198  1  0.61271898  0.19338636  0.25540153  1
  Mo  Mo199  1  0.10614796  0.30514058  0.62023655  1
