# generated using pymatgen
data_HfZrTaTiMo
_symmetry_space_group_name_H-M   'P 1'
_cell_length_a   15.20002994
_cell_length_b   15.21023433
_cell_length_c   16.85719930
_cell_angle_alpha   90.00541565
_cell_angle_beta   89.98980920
_cell_angle_gamma   90.00711750
_symmetry_Int_Tables_number   1
_chemical_formula_structural   HfZrTaTiMo
_chemical_formula_sum   'Hf40 Zr40 Ta40 Ti40 Mo40'
_cell_volume   3897.31723144
_cell_formula_units_Z   40
loop_
 _symmetry_equiv_pos_site_id
 _symmetry_equiv_pos_as_xyz
  1  'x, y, z'
loop_
 _atom_site_type_symbol
 _atom_site_label
 _atom_site_symmetry_multiplicity
 _atom_site_fract_x
 _atom_site_fract_y
 _atom_site_fract_z
 _atom_site_occupancy
  Hf  Hf0  1  0.51305946  0.69637367  0.13412416  1
  Hf  Hf1  1  0.90968039  0.30065371  0.13624766  1
  Hf  Hf2  1  0.90963653  0.69477020  0.13374240  1
  Hf  Hf3  1  0.09919582  0.50489343  0.37879616  1
  Hf  Hf4  1  -0.00011296  0.21718179  0.49968494  1
  Hf  Hf5  1  0.18965065  0.40387180  0.00573923  1
  Hf  Hf6  1  0.60042168  0.41949201  0.25156657  1
  Hf  Hf7  1  -0.00167777  0.20202511  -0.00102909  1
  Hf  Hf8  1  0.60059644  0.39962081  0.74408194  1
  Hf  Hf9  1  0.09593865  0.09701092  0.63161492  1
  Hf  Hf10  1  0.29980078  0.49879441  0.13307115  1
  Hf  Hf11  1  0.88705379  0.70443494  0.36710880  1
  Hf  Hf12  1  0.29739882  0.70932549  0.13650892  1
  Hf  Hf13  1  0.20777176  0.20791353  0.50800437  1
  Hf  Hf14  1  0.79211630  0.39318303  0.73941106  1
  Hf  Hf15  1  0.89872354  0.09585365  0.37978194  1
  Hf  Hf16  1  0.49869687  0.69203487  0.86786923  1
  Hf  Hf17  1  0.70219736  0.51268420  0.39754879  1
  Hf  Hf18  1  0.20768206  0.80575365  0.00032933  1
  Hf  Hf19  1  0.09549580  0.29748459  0.86324762  1
  Hf  Hf20  1  0.50569713  0.29394030  0.88063153  1
  Hf  Hf21  1  0.90575803  0.49820262  0.38354608  1
  Hf  Hf22  1  0.79046062  0.20821091  -0.00271656  1
  Hf  Hf23  1  0.60201914  0.80106391  0.50594552  1
  Hf  Hf24  1  0.30131516  0.51330005  0.62247429  1
  Hf  Hf25  1  0.00484508  -0.00180362  -0.01000848  1
  Hf  Hf26  1  0.50159156  0.50066170  0.87351020  1
  Hf  Hf27  1  0.90441577  0.88117579  0.63480857  1
  Hf  Hf28  1  0.18900747  0.18591015  0.00772133  1
  Hf  Hf29  1  0.89966338  0.88708236  0.12119521  1
  Hf  Hf30  1  0.49993796  0.29748492  0.62264460  1
  Hf  Hf31  1  0.71426876  0.10630295  0.60644619  1
  Hf  Hf32  1  0.40902644  0.58752404  0.25482074  1
  Hf  Hf33  1  -0.00885939  0.40736886  0.73676433  1
  Hf  Hf34  1  0.72691266  0.70330823  0.61981493  1
  Hf  Hf35  1  0.70233576  0.09379465  0.38085259  1
  Hf  Hf36  1  0.39993156  -0.00475689  0.49375672  1
  Hf  Hf37  1  0.59698119  -0.00101543  0.73822454  1
  Hf  Hf38  1  0.59870825  0.17048592  0.01003337  1
  Hf  Hf39  1  0.39818989  0.60283974  0.00743316  1
  Zr  Zr40  1  0.71402969  0.49971455  0.87349235  1
  Zr  Zr41  1  0.60388891  0.81604484  -0.00381328  1
  Zr  Zr42  1  0.77158974  0.60317813  0.25372172  1
  Zr  Zr43  1  0.16923407  0.20270605  0.23535018  1
  Zr  Zr44  1  0.28764179  0.69789447  0.37200877  1
  Zr  Zr45  1  0.20716496  -0.00142033  0.25089094  1
  Zr  Zr46  1  0.29689977  0.29699730  0.12420917  1
  Zr  Zr47  1  0.29860234  0.30063993  0.88301191  1
  Zr  Zr48  1  0.50065588  0.09716660  0.62214518  1
  Zr  Zr49  1  0.71476035  0.70531160  0.87696223  1
  Zr  Zr50  1  0.11446087  0.89378336  0.64124691  1
  Zr  Zr51  1  0.00273779  0.62510841  0.50710771  1
  Zr  Zr52  1  0.71660620  0.71690175  0.11262022  1
  Zr  Zr53  1  0.60915923  0.38999197  0.00224879  1
  Zr  Zr54  1  0.90274384  0.09126754  0.62447061  1
  Zr  Zr55  1  0.49930257  0.10853395  0.36281801  1
  Zr  Zr56  1  0.10162362  0.10989265  0.38177648  1
  Zr  Zr57  1  0.20382492  0.20345302  0.74296182  1
  Zr  Zr58  1  0.89152290  0.50031524  0.13605570  1
  Zr  Zr59  1  0.60053133  -0.00683037  0.49875835  1
  Zr  Zr60  1  0.29396006  0.52026605  0.86854839  1
  Zr  Zr61  1  0.00607857  0.00091438  0.24872953  1
  Zr  Zr62  1  0.28989114  0.72278940  0.61471617  1
  Zr  Zr63  1  0.51225716  0.90722077  0.13576394  1
  Zr  Zr64  1  0.89452861  0.09718586  0.12931865  1
  Zr  Zr65  1  0.89043028  0.31321888  0.87131800  1
  Zr  Zr66  1  0.78128913  -0.00109891  0.00132587  1
  Zr  Zr67  1  0.69362954  0.30059414  0.37585576  1
  Zr  Zr68  1  0.40240585  -0.01015312  0.00583263  1
  Zr  Zr69  1  0.39100062  0.40080982  0.74397718  1
  Zr  Zr70  1  0.49559960  0.29374969  0.13642306  1
  Zr  Zr71  1  0.29451280  0.48755302  0.37507124  1
  Zr  Zr72  1  0.50195645  0.08565952  0.87185380  1
  Zr  Zr73  1  0.40044600  0.80729707  0.26011878  1
  Zr  Zr74  1  0.08913629  0.50355449  0.87192744  1
  Zr  Zr75  1  0.63331492  0.20158527  0.75626051  1
  Zr  Zr76  1  0.49971769  0.49314518  0.38707508  1
  Zr  Zr77  1  0.40264137  0.19370277  0.74947909  1
  Zr  Zr78  1  0.60561369  0.79604995  0.74167018  1
  Zr  Zr79  1  0.70362627  0.30315166  0.13849266  1
  Ta  Ta80  1  0.49827199  0.50102821  0.61583441  1
  Ta  Ta81  1  0.69723789  0.91167948  0.86643088  1
  Ta  Ta82  1  0.49007408  0.69294678  0.62801348  1
  Ta  Ta83  1  0.60642546  0.59335442  0.73190267  1
  Ta  Ta84  1  0.71110643  0.90276414  0.62700072  1
  Ta  Ta85  1  0.29075263  0.08741888  0.87926173  1
  Ta  Ta86  1  0.18777355  0.39871367  0.51202454  1
  Ta  Ta87  1  0.30109600  0.10509971  0.37539663  1
  Ta  Ta88  1  0.81402192  0.59872734  0.74230710  1
  Ta  Ta89  1  0.38379048  -0.01414899  0.74569441  1
  Ta  Ta90  1  0.59849709  0.60722424  0.51327235  1
  Ta  Ta91  1  0.09008922  0.50601791  0.13315643  1
  Ta  Ta92  1  0.48158415  0.88685844  0.62752071  1
  Ta  Ta93  1  0.59455968  0.20603932  0.49494587  1
  Ta  Ta94  1  0.61243393  0.59437317  0.00515282  1
  Ta  Ta95  1  0.79577561  0.19245693  0.25441122  1
  Ta  Ta96  1  0.09475108  0.70622374  0.13091563  1
  Ta  Ta97  1  0.29476669  0.90403183  0.38016487  1
  Ta  Ta98  1  0.38608976  0.38793496  0.50644745  1
  Ta  Ta99  1  0.00447442  0.60319548  0.74007410  1
  Ta  Ta100  1  0.29752475  0.08711537  0.62314781  1
  Ta  Ta101  1  0.00406910  0.79181394  -0.01213239  1
  Ta  Ta102  1  0.70417340  0.49581751  0.60811096  1
  Ta  Ta103  1  0.19475491  0.40968393  0.73433871  1
  Ta  Ta104  1  0.29677225  0.08379138  0.12057504  1
  Ta  Ta105  1  0.40034407  0.40108672  -0.00008066  1
  Ta  Ta106  1  0.80360075  0.39871006  0.26279418  1
  Ta  Ta107  1  0.49577415  0.89267846  0.86561105  1
  Ta  Ta108  1  0.11208589  0.69907225  0.87453424  1
  Ta  Ta109  1  0.51729355  0.69793872  0.37240948  1
  Ta  Ta110  1  0.40201565  0.60489853  0.49471839  1
  Ta  Ta111  1  0.29853908  0.89448655  0.87289343  1
  Ta  Ta112  1  0.00277381  0.78889781  0.76444464  1
  Ta  Ta113  1  0.89540093  0.50327447  0.60838045  1
  Ta  Ta114  1  0.17504542  0.80793686  0.48983173  1
  Ta  Ta115  1  0.89457326  0.10202076  0.86378788  1
  Ta  Ta116  1  0.01097278  -0.01890731  0.49721197  1
  Ta  Ta117  1  0.18981019  0.60789196  0.00946928  1
  Ta  Ta118  1  0.10843120  0.90540275  0.11571046  1
  Ta  Ta119  1  0.38431374  0.78750212  0.75349350  1
  Ti  Ti120  1  0.39805421  0.79926874  0.48798729  1
  Ti  Ti121  1  0.20548406  0.62281763  0.74491536  1
  Ti  Ti122  1  0.91315396  0.89105226  0.36981596  1
  Ti  Ti123  1  0.01182670  0.39217803  0.25541952  1
  Ti  Ti124  1  0.60760827  0.00467801  0.25027031  1
  Ti  Ti125  1  0.71528408  0.88467510  0.37708447  1
  Ti  Ti126  1  0.39870603  0.19201826  0.00645425  1
  Ti  Ti127  1  0.20265002  -0.00089089  0.49756561  1
  Ti  Ti128  1  0.48385087  0.30104350  0.36518130  1
  Ti  Ti129  1  0.79577741  0.00349029  0.75267023  1
  Ti  Ti130  1  0.80229087  0.41898187  0.00356620  1
  Ti  Ti131  1  0.18985055  0.81090185  0.25077696  1
  Ti  Ti132  1  0.81194397  -0.02170662  0.49744117  1
  Ti  Ti133  1  0.50650144  0.49655688  0.12257885  1
  Ti  Ti134  1  -0.00391925  0.59542924  -0.00004753  1
  Ti  Ti135  1  0.39921600  0.00095114  0.25019170  1
  Ti  Ti136  1  0.90463504  0.68588478  0.87780747  1
  Ti  Ti137  1  0.28809325  0.29611145  0.36867016  1
  Ti  Ti138  1  -0.00494254  0.40483135  0.00273238  1
  Ti  Ti139  1  0.09855676  0.09800282  0.86138692  1
  Ti  Ti140  1  0.89170660  0.89012653  0.87097925  1
  Ti  Ti141  1  0.08260322  0.71444394  0.36021039  1
  Ti  Ti142  1  0.70653815  0.29759452  0.60690834  1
  Ti  Ti143  1  0.40231666  0.79620084  -0.00205994  1
  Ti  Ti144  1  0.09951377  0.51278084  0.62029824  1
  Ti  Ti145  1  0.39747248  0.20107246  0.49791446  1
  Ti  Ti146  1  0.79474960  -0.01244758  0.24890892  1
  Ti  Ti147  1  0.09354969  0.30330107  0.63254293  1
  Ti  Ti148  1  0.38709035  0.19559765  0.24660545  1
  Ti  Ti149  1  -0.00168762  -0.00301276  0.76073985  1
  Ti  Ti150  1  0.81489785  0.38302794  0.49757372  1
  Ti  Ti151  1  0.18537479  0.60306531  0.24791165  1
  Ti  Ti152  1  0.62633675  0.79757829  0.25552050  1
  Ti  Ti153  1  0.10860417  0.90372190  0.86828966  1
  Ti  Ti154  1  0.51040199  0.89867427  0.36763811  1
  Ti  Ti155  1  0.89509100  0.28882073  0.62583743  1
  Ti  Ti156  1  0.19835856  0.60953174  0.50043085  1
  Ti  Ti157  1  0.59159758  0.39586167  0.50233276  1
  Ti  Ti158  1  0.91013960  0.29674208  0.36891298  1
  Ti  Ti159  1  0.19667576  0.39761293  0.24691385  1
  Mo  Mo160  1  0.70716272  0.90727648  0.13320309  1
  Mo  Mo161  1  0.09253265  0.09685459  0.11915818  1
  Mo  Mo162  1  0.10248358  0.90038683  0.37479911  1
  Mo  Mo163  1  0.00274180  0.40328450  0.51419742  1
  Mo  Mo164  1  0.80292234  0.81115993  0.25410382  1
  Mo  Mo165  1  0.39245819  0.39056745  0.25450820  1
  Mo  Mo166  1  0.90011911  0.51063160  0.87292079  1
  Mo  Mo167  1  0.00767461  0.80227597  0.24586910  1
  Mo  Mo168  1  0.60001514  0.19744470  0.25130186  1
  Mo  Mo169  1  0.69473703  0.50744972  0.12107060  1
  Mo  Mo170  1  0.00465049  0.59714304  0.25480482  1
  Mo  Mo171  1  0.68928767  0.09279950  0.14262123  1
  Mo  Mo172  1  0.09005553  0.31263054  0.12117330  1
  Mo  Mo173  1  0.81061247  0.19698410  0.74933139  1
  Mo  Mo174  1  0.81803703  0.80403170  -0.01292050  1
  Mo  Mo175  1  0.49167792  0.10099668  0.14271789  1
  Mo  Mo176  1  0.29605403  0.30027773  0.61988975  1
  Mo  Mo177  1  0.70713703  0.09504341  0.87261450  1
  Mo  Mo178  1  0.09662232  0.70490244  0.63215051  1
  Mo  Mo179  1  0.81167254  0.80526538  0.49782745  1
  Mo  Mo180  1  0.69524708  0.70771394  0.38870277  1
  Mo  Mo181  1  0.19622676  -0.00242914  -0.00417204  1
  Mo  Mo182  1  0.30071984  0.69904793  0.87928767  1
  Mo  Mo183  1  0.80977284  0.80254095  0.76094208  1
  Mo  Mo184  1  0.10120602  0.31842589  0.37920159  1
  Mo  Mo185  1  0.70149800  0.29607599  0.88120906  1
  Mo  Mo186  1  0.80109638  0.60115351  0.50153293  1
  Mo  Mo187  1  0.20133225  0.80452213  0.76105197  1
  Mo  Mo188  1  0.40604132  0.60183369  0.74239812  1
  Mo  Mo189  1  0.29891138  0.89707011  0.12754156  1
  Mo  Mo190  1  0.90978045  0.69915428  0.63285750  1
  Mo  Mo191  1  -0.00718557  0.19727904  0.74902995  1
  Mo  Mo192  1  -0.00501650  0.80930021  0.49812077  1
  Mo  Mo193  1  0.20358259  0.00185434  0.75535962  1
  Mo  Mo194  1  0.30126371  0.90328251  0.61462388  1
  Mo  Mo195  1  0.80233371  0.20328150  0.49051444  1
  Mo  Mo196  1  0.59692937  -0.00493675  -0.00006891  1
  Mo  Mo197  1  0.80895716  0.60131587  0.00079927  1
  Mo  Mo198  1  0.59741391  0.60787133  0.24986697  1
  Mo  Mo199  1  -0.01110766  0.20633035  0.25665146  1
