# generated using pymatgen
data_HfZrTaTiMo
_symmetry_space_group_name_H-M   'P 1'
_cell_length_a   15.22694767
_cell_length_b   15.21433994
_cell_length_c   16.85851626
_cell_angle_alpha   90.03522605
_cell_angle_beta   90.04038611
_cell_angle_gamma   90.06258355
_symmetry_Int_Tables_number   1
_chemical_formula_structural   HfZrTaTiMo
_chemical_formula_sum   'Hf40 Zr40 Ta40 Ti40 Mo40'
_cell_volume   3905.57399909
_cell_formula_units_Z   40
loop_
 _symmetry_equiv_pos_site_id
 _symmetry_equiv_pos_as_xyz
  1  'x, y, z'
loop_
 _atom_site_type_symbol
 _atom_site_label
 _atom_site_symmetry_multiplicity
 _atom_site_fract_x
 _atom_site_fract_y
 _atom_site_fract_z
 _atom_site_occupancy
  Hf  Hf0  1  0.29259328  0.31341060  0.36955791  1
  Hf  Hf1  1  0.80050943  0.19556769  0.01442066  1
  Hf  Hf2  1  0.40250294  0.20163676  0.76185074  1
  Hf  Hf3  1  0.78595504  0.19874977  0.75191410  1
  Hf  Hf4  1  -0.00259007  0.39984441  0.75460966  1
  Hf  Hf5  1  0.41110614  0.79546789  0.26267491  1
  Hf  Hf6  1  0.88399728  0.69038117  0.37460671  1
  Hf  Hf7  1  0.19602198  0.19412421  0.01050849  1
  Hf  Hf8  1  0.29314981  0.72175835  0.86814058  1
  Hf  Hf9  1  -0.00258750  0.79574447  0.00937831  1
  Hf  Hf10  1  0.51427485  0.50021035  0.11700999  1
  Hf  Hf11  1  0.49803421  0.31021532  0.37178472  1
  Hf  Hf12  1  0.01269195  0.19695702  0.23796077  1
  Hf  Hf13  1  0.49041598  0.31176567  0.62257312  1
  Hf  Hf14  1  -0.00016107  0.79967798  0.50064059  1
  Hf  Hf15  1  0.91304596  0.07844617  0.13293179  1
  Hf  Hf16  1  0.00228129  -0.00439234  0.50876651  1
  Hf  Hf17  1  0.49437040  0.51855048  0.36714708  1
  Hf  Hf18  1  0.01801821  0.00003892  -0.00878978  1
  Hf  Hf19  1  0.90359151  0.08608967  0.36594848  1
  Hf  Hf20  1  0.20064134  0.19990807  0.50241141  1
  Hf  Hf21  1  0.89321055  0.28917985  0.37913461  1
  Hf  Hf22  1  0.77738152  0.18192336  0.50221337  1
  Hf  Hf23  1  0.08733729  0.90457508  0.14661888  1
  Hf  Hf24  1  0.79215149  0.79010533  0.74397629  1
  Hf  Hf25  1  0.61435045  0.00826856  0.76111221  1
  Hf  Hf26  1  0.69069919  0.70107537  0.61525903  1
  Hf  Hf27  1  0.19893357  0.40379136  0.23098346  1
  Hf  Hf28  1  0.80221175  0.40338444  0.25577812  1
  Hf  Hf29  1  0.20555173  0.01445814  0.25278770  1
  Hf  Hf30  1  0.20055086  0.41227045  0.00322112  1
  Hf  Hf31  1  0.40575429  -0.01244742  0.75022176  1
  Hf  Hf32  1  0.40449823  0.40007541  0.77047109  1
  Hf  Hf33  1  0.53418440  0.09871883  0.37817307  1
  Hf  Hf34  1  0.09030556  0.70776408  0.87257861  1
  Hf  Hf35  1  0.89870526  0.09206906  0.86705347  1
  Hf  Hf36  1  0.61005616  0.59953289  0.74802374  1
  Hf  Hf37  1  0.09177992  0.30462723  0.61535658  1
  Hf  Hf38  1  0.08926318  0.90610247  0.36689433  1
  Hf  Hf39  1  0.88846586  0.68700360  0.13571460  1
  Zr  Zr40  1  0.19559361  0.19559751  0.74872494  1
  Zr  Zr41  1  0.13794380  0.90672054  0.86555967  1
  Zr  Zr42  1  0.39813464  0.59781306  0.75454957  1
  Zr  Zr43  1  0.69883568  0.91966772  0.62380149  1
  Zr  Zr44  1  0.80739019  -0.01719744  0.00742725  1
  Zr  Zr45  1  0.69842515  0.31594170  0.89662602  1
  Zr  Zr46  1  0.18638431  0.61851629  0.00677064  1
  Zr  Zr47  1  0.00929747  0.59856725  0.48190347  1
  Zr  Zr48  1  0.02428444  0.00074650  0.74277981  1
  Zr  Zr49  1  0.21383008  -0.00883166  0.49470658  1
  Zr  Zr50  1  0.10673305  0.50885005  0.62310959  1
  Zr  Zr51  1  0.70404749  0.89273405  0.88278581  1
  Zr  Zr52  1  0.20355400  0.40387420  0.75960598  1
  Zr  Zr53  1  0.79339236  0.19773789  0.23561768  1
  Zr  Zr54  1  0.79072269  0.41292869  0.74820865  1
  Zr  Zr55  1  0.38950216  0.59615389  0.00857381  1
  Zr  Zr56  1  0.21780750  0.59001289  0.48925751  1
  Zr  Zr57  1  0.01917609  0.79154230  0.72540115  1
  Zr  Zr58  1  0.58032579  0.81699329  0.49800448  1
  Zr  Zr59  1  0.30414707  0.89492800  0.14358440  1
  Zr  Zr60  1  0.31271646  0.09631533  0.62368555  1
  Zr  Zr61  1  0.21143589  0.00258304  0.01847031  1
  Zr  Zr62  1  0.88827490  0.09014456  0.63520373  1
  Zr  Zr63  1  0.09752712  0.29105482  0.38079195  1
  Zr  Zr64  1  0.69850484  0.69469151  0.88753056  1
  Zr  Zr65  1  0.49930840  0.70202342  0.87932022  1
  Zr  Zr66  1  0.08517640  0.51331376  0.12693752  1
  Zr  Zr67  1  0.00658632  0.19809343  0.00755309  1
  Zr  Zr68  1  0.39978451  0.18071736  0.00010493  1
  Zr  Zr69  1  0.52568996  0.10182003  0.61664710  1
  Zr  Zr70  1  0.78070383  -0.01346163  0.24076776  1
  Zr  Zr71  1  0.40747455  0.19833470  0.24039541  1
  Zr  Zr72  1  0.69499357  0.50423360  0.36704927  1
  Zr  Zr73  1  0.38770604  0.79688652  0.48821471  1
  Zr  Zr74  1  0.31604892  0.31379618  0.10890118  1
  Zr  Zr75  1  0.91130830  0.88517958  0.86422090  1
  Zr  Zr76  1  0.89754585  0.48847743  0.61243314  1
  Zr  Zr77  1  0.40458164  0.20393521  0.49365931  1
  Zr  Zr78  1  0.89291532  0.68769417  0.61384887  1
  Zr  Zr79  1  0.89820975  0.30310711  0.88271142  1
  Ta  Ta80  1  -0.00929481  0.78983684  0.26084994  1
  Ta  Ta81  1  0.08716535  0.50797530  0.87780128  1
  Ta  Ta82  1  0.51512082  0.29819894  0.10337216  1
  Ta  Ta83  1  0.70199957  0.32072245  0.11298447  1
  Ta  Ta84  1  0.51355380  0.71140537  0.12032195  1
  Ta  Ta85  1  0.39554508  0.80408016  0.00812385  1
  Ta  Ta86  1  0.00072654  0.20414109  0.74969897  1
  Ta  Ta87  1  -0.00162221  0.40699338  -0.00189257  1
  Ta  Ta88  1  0.59273780  0.00000990  -0.00259098  1
  Ta  Ta89  1  0.59529118  0.40333306  0.75592591  1
  Ta  Ta90  1  0.69246436  0.87190934  0.11182669  1
  Ta  Ta91  1  0.40211260  -0.00910181  -0.00062703  1
  Ta  Ta92  1  0.68257521  0.70367235  0.37859678  1
  Ta  Ta93  1  0.90818318  0.31202981  0.12253754  1
  Ta  Ta94  1  0.40292713  0.40761439  0.23942286  1
  Ta  Ta95  1  0.59224008  0.40697135  0.49795208  1
  Ta  Ta96  1  -0.00604261  0.58748375  0.26852574  1
  Ta  Ta97  1  0.20611319  0.20432873  0.22927631  1
  Ta  Ta98  1  -0.00163128  0.39900218  0.25682775  1
  Ta  Ta99  1  0.68634657  0.28854120  0.37134563  1
  Ta  Ta100  1  0.11600246  0.48874732  0.37174921  1
  Ta  Ta101  1  0.79185921  0.80376169  0.49326746  1
  Ta  Ta102  1  0.19305038  0.78810055  0.48482796  1
  Ta  Ta103  1  0.78646152  0.38887174  0.49413811  1
  Ta  Ta104  1  0.89149584  0.68985969  0.87740220  1
  Ta  Ta105  1  0.59406187  0.21367869  0.76193460  1
  Ta  Ta106  1  0.28761830  0.08198143  0.86850149  1
  Ta  Ta107  1  0.50494851  0.30298939  0.90068893  1
  Ta  Ta108  1  0.69368978  0.49780019  0.61579745  1
  Ta  Ta109  1  0.40193694  0.59972401  0.23296604  1
  Ta  Ta110  1  0.30782492  0.49974257  0.63032531  1
  Ta  Ta111  1  -0.01501804  0.59637228  0.75274338  1
  Ta  Ta112  1  0.20015385  0.79129734  0.27018315  1
  Ta  Ta113  1  0.28451466  0.70169576  0.62969342  1
  Ta  Ta114  1  0.50660938  0.90763378  0.12706955  1
  Ta  Ta115  1  0.49856376  0.89294332  0.87667393  1
  Ta  Ta116  1  0.68570155  0.30115016  0.62418846  1
  Ta  Ta117  1  0.38611252  0.41909048  0.49634723  1
  Ta  Ta118  1  0.68439706  0.91560123  0.37794548  1
  Ta  Ta119  1  0.10178492  0.30029929  0.87936019  1
  Ti  Ti120  1  0.29429091  0.70062859  0.13448120  1
  Ti  Ti121  1  0.89260645  0.88157570  0.13561672  1
  Ti  Ti122  1  0.42764431  -0.01281585  0.49487927  1
  Ti  Ti123  1  0.29163327  0.50999409  0.87726279  1
  Ti  Ti124  1  0.09567573  0.70750912  0.14463077  1
  Ti  Ti125  1  0.40650763  0.60613501  0.50589155  1
  Ti  Ti126  1  0.29522960  0.31061856  0.62161184  1
  Ti  Ti127  1  0.10367014  0.10202597  0.37533282  1
  Ti  Ti128  1  0.30778502  0.89129317  0.62309378  1
  Ti  Ti129  1  0.88163162  0.50516930  0.88077763  1
  Ti  Ti130  1  0.88565253  0.89233750  0.36790798  1
  Ti  Ti131  1  -0.00970140  0.19123002  0.50599140  1
  Ti  Ti132  1  0.41842483  0.00448725  0.25369273  1
  Ti  Ti133  1  0.60378696  0.19481055  0.23426782  1
  Ti  Ti134  1  0.89585332  0.89687020  0.62838621  1
  Ti  Ti135  1  0.30689279  0.90700253  0.36879263  1
  Ti  Ti136  1  0.18689851  0.60912371  0.75095850  1
  Ti  Ti137  1  0.68221233  0.09020588  0.11545058  1
  Ti  Ti138  1  0.69838565  0.10556358  0.88858257  1
  Ti  Ti139  1  -0.01866115  0.59946413  -0.00135862  1
  Ti  Ti140  1  0.50327127  0.09944359  0.87899549  1
  Ti  Ti141  1  0.79072551  0.58895779  0.49193227  1
  Ti  Ti142  1  0.31167165  0.10474401  0.37336075  1
  Ti  Ti143  1  0.50077521  0.50545890  0.62489717  1
  Ti  Ti144  1  0.20040456  0.80889255  0.01144302  1
  Ti  Ti145  1  0.59039974  0.60465856  0.50214308  1
  Ti  Ti146  1  -0.00420400  0.39927016  0.48803143  1
  Ti  Ti147  1  0.20198342  0.59859867  0.25302191  1
  Ti  Ti148  1  0.59889309  0.39775453  0.24210013  1
  Ti  Ti149  1  0.88842877  0.49690596  0.12797643  1
  Ti  Ti150  1  0.31026609  0.67848448  0.36709717  1
  Ti  Ti151  1  0.79789541  -0.00680941  0.49283180  1
  Ti  Ti152  1  0.89015197  0.29465964  0.61871590  1
  Ti  Ti153  1  0.59893296  0.80899562  0.25653408  1
  Ti  Ti154  1  0.51918730  0.49988135  0.89423537  1
  Ti  Ti155  1  0.30108476  0.29835097  0.88933323  1
  Ti  Ti156  1  0.78142134  0.78460529  0.25422063  1
  Ti  Ti157  1  0.78050249  0.58476363  0.00998647  1
  Ti  Ti158  1  0.48751572  0.71259098  0.63310063  1
  Ti  Ti159  1  0.10726812  0.09498156  0.62125477  1
  Mo  Mo160  1  0.61175894  0.41504283  0.00612287  1
  Mo  Mo161  1  0.50221055  0.69730217  0.37257277  1
  Mo  Mo162  1  0.21189804  0.80527159  0.73761752  1
  Mo  Mo163  1  0.81036350  0.41188005  0.01041390  1
  Mo  Mo164  1  0.49931597  0.90004267  0.62838431  1
  Mo  Mo165  1  0.60071812  -0.00093309  0.23867021  1
  Mo  Mo166  1  0.50363096  0.09460431  0.12300555  1
  Mo  Mo167  1  0.10129028  0.69563604  0.36218570  1
  Mo  Mo168  1  0.20336682  0.40023514  0.50196047  1
  Mo  Mo169  1  0.10471187  0.09845493  0.13440399  1
  Mo  Mo170  1  0.60514857  0.22068360  0.49766292  1
  Mo  Mo171  1  0.60007801  0.60547942  0.00595527  1
  Mo  Mo172  1  0.70018632  0.11200288  0.63614246  1
  Mo  Mo173  1  0.21293455  -0.00316495  0.73535359  1
  Mo  Mo174  1  0.30375361  0.51179710  0.12750694  1
  Mo  Mo175  1  0.10586242  0.69562165  0.61972816  1
  Mo  Mo176  1  0.69426465  0.69076252  0.12508248  1
  Mo  Mo177  1  -0.00658097  -0.00816667  0.25829124  1
  Mo  Mo178  1  0.90258606  0.48670421  0.38341012  1
  Mo  Mo179  1  0.40143732  0.40461463  -0.01650754  1
  Mo  Mo180  1  0.79644326  0.59895571  0.25406122  1
  Mo  Mo181  1  0.12436263  0.89025184  0.61214884  1
  Mo  Mo182  1  0.10684718  0.11089009  0.86754006  1
  Mo  Mo183  1  0.61722893  0.01572214  0.50007693  1
  Mo  Mo184  1  0.49947433  0.90726407  0.36836249  1
  Mo  Mo185  1  0.09633351  0.30763594  0.12063060  1
  Mo  Mo186  1  0.30613601  0.49778850  0.36021676  1
  Mo  Mo187  1  0.70999247  0.10325697  0.36530654  1
  Mo  Mo188  1  0.70507910  0.51125767  0.14237786  1
  Mo  Mo189  1  0.59922803  0.62010478  0.24747502  1
  Mo  Mo190  1  0.31358173  0.09643835  0.13482020  1
  Mo  Mo191  1  0.31564336  0.89738494  0.87815708  1
  Mo  Mo192  1  0.58226827  0.80793893  0.73986593  1
  Mo  Mo193  1  0.40501450  0.79874902  0.74239593  1
  Mo  Mo194  1  0.60459335  0.19550111  0.00451954  1
  Mo  Mo195  1  0.80820169  0.78240453  0.00744646  1
  Mo  Mo196  1  0.59177009  0.80497184  0.00252734  1
  Mo  Mo197  1  0.80219742  0.59820165  0.74906843  1
  Mo  Mo198  1  0.80620668  -0.00365064  0.75726472  1
  Mo  Mo199  1  0.69991211  0.50728744  0.87716610  1
