# generated using pymatgen
data_HfZrTaTiMo
_symmetry_space_group_name_H-M   'P 1'
_cell_length_a   15.20178115
_cell_length_b   15.21674553
_cell_length_c   16.84785846
_cell_angle_alpha   89.95422068
_cell_angle_beta   89.98215393
_cell_angle_gamma   90.15574974
_symmetry_Int_Tables_number   1
_chemical_formula_structural   HfZrTaTiMo
_chemical_formula_sum   'Hf40 Zr40 Ta40 Ti40 Mo40'
_cell_volume   3897.25833687
_cell_formula_units_Z   40
loop_
 _symmetry_equiv_pos_site_id
 _symmetry_equiv_pos_as_xyz
  1  'x, y, z'
loop_
 _atom_site_type_symbol
 _atom_site_label
 _atom_site_symmetry_multiplicity
 _atom_site_fract_x
 _atom_site_fract_y
 _atom_site_fract_z
 _atom_site_occupancy
  Hf  Hf0  1  0.60385246  0.61041185  0.50799480  1
  Hf  Hf1  1  0.68433736  0.90657903  0.63375929  1
  Hf  Hf2  1  0.08883952  0.88375955  0.11649773  1
  Hf  Hf3  1  0.20692404  0.80136077  -0.00958997  1
  Hf  Hf4  1  0.01843253  0.18955239  0.24021024  1
  Hf  Hf5  1  0.90003309  0.11373289  0.87853331  1
  Hf  Hf6  1  0.28580236  0.69669536  0.12244487  1
  Hf  Hf7  1  0.90462221  0.91159013  0.61827141  1
  Hf  Hf8  1  0.59744857  0.41450903  0.24420458  1
  Hf  Hf9  1  0.68328612  0.91215027  0.12039107  1
  Hf  Hf10  1  0.59818231  0.80665247  0.49634461  1
  Hf  Hf11  1  0.09323897  0.69593503  0.37524324  1
  Hf  Hf12  1  0.89070619  0.48173713  0.11183036  1
  Hf  Hf13  1  0.19141290  0.79919098  0.50908261  1
  Hf  Hf14  1  0.36907993  0.00129075  -0.01250433  1
  Hf  Hf15  1  0.81276992  0.21053769  0.74255030  1
  Hf  Hf16  1  0.39619095  0.60591826  -0.00007577  1
  Hf  Hf17  1  0.38288808  0.39078044  0.24255574  1
  Hf  Hf18  1  0.19333727  0.38466521  -0.01602620  1
  Hf  Hf19  1  0.19298823  0.39313756  0.50167524  1
  Hf  Hf20  1  0.08169285  0.48622702  0.87405126  1
  Hf  Hf21  1  0.81265168  0.40814728  0.75176817  1
  Hf  Hf22  1  0.70994769  0.30848630  0.36329125  1
  Hf  Hf23  1  0.49678078  0.69537975  0.14026276  1
  Hf  Hf24  1  0.09428694  0.48208089  0.64193005  1
  Hf  Hf25  1  0.40517998  0.39527062  0.75135417  1
  Hf  Hf26  1  0.60160490  0.40146180  0.00638380  1
  Hf  Hf27  1  0.70096555  0.70695740  0.13237655  1
  Hf  Hf28  1  0.29707614  0.10368067  0.12539956  1
  Hf  Hf29  1  0.80309640  0.81120224  0.75049812  1
  Hf  Hf30  1  0.81451259  0.20231735  0.23744187  1
  Hf  Hf31  1  0.82963847  0.22346125  0.02298778  1
  Hf  Hf32  1  0.30064468  0.29056278  0.63825671  1
  Hf  Hf33  1  0.70005967  0.70499819  0.87089553  1
  Hf  Hf34  1  0.69134292  0.91553558  0.87500264  1
  Hf  Hf35  1  0.11016417  0.07946364  0.62779803  1
  Hf  Hf36  1  0.89407072  0.89782036  0.38079292  1
  Hf  Hf37  1  0.79788858  0.00366241  0.23909643  1
  Hf  Hf38  1  0.49644869  0.29285276  0.37788251  1
  Hf  Hf39  1  0.91108799  0.10889331  0.61748652  1
  Zr  Zr40  1  -0.00002715  0.80247212  0.74877311  1
  Zr  Zr41  1  0.41198349  0.18020462  0.51593897  1
  Zr  Zr42  1  0.09321031  0.68118845  0.64282686  1
  Zr  Zr43  1  0.80460473  0.21886983  0.50177734  1
  Zr  Zr44  1  0.59383280  0.79357635  -0.00182158  1
  Zr  Zr45  1  0.39635814  0.80066529  0.50767830  1
  Zr  Zr46  1  0.70464294  0.49337680  0.62645059  1
  Zr  Zr47  1  0.78754932  0.02289998  0.00965826  1
  Zr  Zr48  1  0.48303355  0.89589093  0.88207604  1
  Zr  Zr49  1  0.02665881  0.19354298  0.01627202  1
  Zr  Zr50  1  0.09662102  0.27942119  0.64181934  1
  Zr  Zr51  1  0.39906737  -0.00258892  0.24357724  1
  Zr  Zr52  1  0.49419674  0.50026118  0.87195905  1
  Zr  Zr53  1  0.31435207  0.70684490  0.86264452  1
  Zr  Zr54  1  0.90795071  0.09721951  0.37935092  1
  Zr  Zr55  1  0.21791240  0.21805503  0.25982923  1
  Zr  Zr56  1  0.78971065  0.79944700  0.50104755  1
  Zr  Zr57  1  0.11034722  0.68380803  0.86679270  1
  Zr  Zr58  1  0.47982652  0.89272533  0.11527114  1
  Zr  Zr59  1  0.49052506  0.50013325  0.37899589  1
  Zr  Zr60  1  0.70238917  0.52161122  0.37588745  1
  Zr  Zr61  1  0.92281737  0.69987939  0.11284334  1
  Zr  Zr62  1  0.71848823  0.29584925  0.88233589  1
  Zr  Zr63  1  0.71357684  0.32133728  0.13088575  1
  Zr  Zr64  1  0.90861918  0.69965402  0.88863440  1
  Zr  Zr65  1  0.22195727  0.18559910  -0.01645254  1
  Zr  Zr66  1  0.29793299  0.69345959  0.63457663  1
  Zr  Zr67  1  0.20884353  0.19967343  0.48950309  1
  Zr  Zr68  1  0.60667244  0.39631429  0.50143820  1
  Zr  Zr69  1  0.50392295  0.69402254  0.36285940  1
  Zr  Zr70  1  0.18776771  0.00286757  0.25628706  1
  Zr  Zr71  1  -0.00555797  0.78886088  0.50944165  1
  Zr  Zr72  1  0.29047878  0.49029292  0.37694825  1
  Zr  Zr73  1  0.50889180  0.09779773  0.10410577  1
  Zr  Zr74  1  0.09552481  0.51133580  0.10490522  1
  Zr  Zr75  1  0.31643846  0.09501065  0.37343460  1
  Zr  Zr76  1  0.41052894  0.81648079  0.73401801  1
  Zr  Zr77  1  0.48616688  0.90857498  0.37495392  1
  Zr  Zr78  1  0.69393027  0.50394055  0.86975475  1
  Zr  Zr79  1  0.79757989  0.59288447  0.24038084  1
  Ta  Ta80  1  0.80850642  0.81429618  0.00411222  1
  Ta  Ta81  1  0.89071349  0.69149677  0.36963703  1
  Ta  Ta82  1  0.70461887  0.70308081  0.63646651  1
  Ta  Ta83  1  0.08722369  0.90607206  0.37662652  1
  Ta  Ta84  1  0.81294372  0.60705862  0.74838202  1
  Ta  Ta85  1  0.78816674  0.60042775  0.00813232  1
  Ta  Ta86  1  0.59698096  0.59868650  0.00607965  1
  Ta  Ta87  1  0.60823184  0.19715514  0.75124625  1
  Ta  Ta88  1  0.89484548  0.49632605  0.89381962  1
  Ta  Ta89  1  0.20032756  0.38831759  0.76748368  1
  Ta  Ta90  1  -0.00736230  -0.00820375  0.23575917  1
  Ta  Ta91  1  0.90950519  0.31450576  0.62149840  1
  Ta  Ta92  1  -0.00430314  0.00249815  0.75627987  1
  Ta  Ta93  1  0.29477226  0.69284663  0.37642409  1
  Ta  Ta94  1  0.28918334  0.92358958  0.62229385  1
  Ta  Ta95  1  0.79547315  0.01431114  0.75093269  1
  Ta  Ta96  1  0.58578691  0.01013985  0.50704916  1
  Ta  Ta97  1  0.19437539  0.00005217  0.49071047  1
  Ta  Ta98  1  0.51078234  0.29179528  0.88002309  1
  Ta  Ta99  1  0.61168619  0.19583235  0.50681096  1
  Ta  Ta100  1  0.41614156  0.18831283  0.74996035  1
  Ta  Ta101  1  0.01445209  0.20415828  0.48853428  1
  Ta  Ta102  1  0.49258153  0.50013883  0.62519936  1
  Ta  Ta103  1  0.59792984  0.60219549  0.74000152  1
  Ta  Ta104  1  0.81083658  0.60781687  0.50472920  1
  Ta  Ta105  1  0.60062092  0.01090011  0.24961120  1
  Ta  Ta106  1  0.69241681  0.91393559  0.37290543  1
  Ta  Ta107  1  0.18963158  0.79504880  0.25416490  1
  Ta  Ta108  1  0.28894425  0.50470823  0.87522558  1
  Ta  Ta109  1  0.58146309  0.00550377  0.74828115  1
  Ta  Ta110  1  0.29298076  0.49531453  0.63058864  1
  Ta  Ta111  1  -0.00166156  0.39746738  0.49403723  1
  Ta  Ta112  1  0.19344749  0.59420460  0.50292752  1
  Ta  Ta113  1  0.37962430  0.79492144  0.25513823  1
  Ta  Ta114  1  0.60557222  0.19885363  0.24198325  1
  Ta  Ta115  1  0.51653333  0.29532551  0.62848002  1
  Ta  Ta116  1  0.39580652  0.39131818  0.51176198  1
  Ta  Ta117  1  0.78379588  0.00978601  0.50135575  1
  Ta  Ta118  1  0.19383893  0.59579121  0.24788297  1
  Ta  Ta119  1  0.41670709  0.19930708  0.24505328  1
  Ti  Ti120  1  0.20936149  0.18430323  0.76565457  1
  Ti  Ti121  1  0.28554173  0.89803098  0.12515913  1
  Ti  Ti122  1  0.49828686  0.29483414  0.11554199  1
  Ti  Ti123  1  0.39288840  0.59595398  0.50755970  1
  Ti  Ti124  1  0.30631879  0.29836990  0.11229401  1
  Ti  Ti125  1  0.50510867  0.10081075  0.88625249  1
  Ti  Ti126  1  0.28884323  0.89107237  0.37979985  1
  Ti  Ti127  1  0.10576664  0.31001718  0.36488197  1
  Ti  Ti128  1  0.20052559  0.80942551  0.74722382  1
  Ti  Ti129  1  0.91010441  0.30880066  0.36571913  1
  Ti  Ti130  1  0.81030861  0.41120900  0.50015180  1
  Ti  Ti131  1  -0.00056020  0.59120916  0.49956773  1
  Ti  Ti132  1  0.39853792  0.39677264  -0.00285192  1
  Ti  Ti133  1  0.60027536  0.80799564  0.25760429  1
  Ti  Ti134  1  -0.01173776  -0.00597415  0.01312937  1
  Ti  Ti135  1  0.62290350  0.18949352  -0.00172706  1
  Ti  Ti136  1  0.90916555  0.51029462  0.62602908  1
  Ti  Ti137  1  0.38809223  0.00748308  0.75312318  1
  Ti  Ti138  1  0.60328375  0.39239927  0.74654072  1
  Ti  Ti139  1  0.40009445  0.59528682  0.74562806  1
  Ti  Ti140  1  0.10002626  0.08953979  0.87512266  1
  Ti  Ti141  1  0.89784125  0.91032274  0.87947301  1
  Ti  Ti142  1  0.50716747  0.69814224  0.86497628  1
  Ti  Ti143  1  -0.00550046  0.79713730  0.25109328  1
  Ti  Ti144  1  0.38937412  0.59289957  0.24653410  1
  Ti  Ti145  1  0.00366982  0.40497782  0.24767435  1
  Ti  Ti146  1  0.19659222  -0.00739709  0.76080634  1
  Ti  Ti147  1  0.50839089  0.70598811  0.63080601  1
  Ti  Ti148  1  0.31716124  0.29151920  0.87153075  1
  Ti  Ti149  1  0.09068031  0.89862643  0.88531185  1
  Ti  Ti150  1  0.09447986  0.49910804  0.37114152  1
  Ti  Ti151  1  0.80083443  0.80667849  0.25026114  1
  Ti  Ti152  1  0.69685805  0.10708634  0.62818776  1
  Ti  Ti153  1  0.69994709  0.10650169  0.37556401  1
  Ti  Ti154  1  0.90393222  0.49916327  0.37345109  1
  Ti  Ti155  1  0.49214347  0.49902637  0.12346361  1
  Ti  Ti156  1  0.51352845  0.09981289  0.37325743  1
  Ti  Ti157  1  0.11429805  0.31149683  0.13174141  1
  Ti  Ti158  1  0.00235539  0.60084765  0.24775312  1
  Ti  Ti159  1  0.28985361  0.49322547  0.11659223  1
  Mo  Mo160  1  0.28234863  0.90283778  0.86374604  1
  Mo  Mo161  1  0.00037569  0.80663147  -0.01194248  1
  Mo  Mo162  1  0.39228312  0.79796293  0.00123518  1
  Mo  Mo163  1  0.00624958  0.18814447  0.75478194  1
  Mo  Mo164  1  -0.00628187  0.38055870  0.00044500  1
  Mo  Mo165  1  0.89452732  0.69330807  0.62815831  1
  Mo  Mo166  1  0.20218315  0.59272836  -0.00537317  1
  Mo  Mo167  1  0.92313928  0.30829660  0.87797213  1
  Mo  Mo168  1  0.81232824  0.40381530  0.25984936  1
  Mo  Mo169  1  0.17805967  0.00046290  -0.00572505  1
  Mo  Mo170  1  0.70868416  0.71774873  0.36232743  1
  Mo  Mo171  1  0.10934397  0.08548016  0.12009063  1
  Mo  Mo172  1  0.89038672  0.89258944  0.12486082  1
  Mo  Mo173  1  0.19246278  0.40928430  0.24376026  1
  Mo  Mo174  1  0.68821984  0.51207915  0.12395918  1
  Mo  Mo175  1  0.60054550  0.79857767  0.74969982  1
  Mo  Mo176  1  0.09729633  0.09689759  0.37783122  1
  Mo  Mo177  1  0.59345019  0.00664720  -0.00966953  1
  Mo  Mo178  1  0.20642063  0.58053868  0.75157058  1
  Mo  Mo179  1  0.69838852  0.11060007  0.12788525  1
  Mo  Mo180  1  0.91183791  0.09322390  0.12717742  1
  Mo  Mo181  1  0.58967273  0.60557656  0.24341141  1
  Mo  Mo182  1  0.70425349  0.29793824  0.62863539  1
  Mo  Mo183  1  0.92520823  0.30867867  0.13857816  1
  Mo  Mo184  1  0.10297337  0.90186187  0.63071312  1
  Mo  Mo185  1  -0.01282046  0.58228390  0.75414855  1
  Mo  Mo186  1  0.30810817  0.09635314  0.86395516  1
  Mo  Mo187  1  0.41384669  0.21144085  -0.00772195  1
  Mo  Mo188  1  0.69292680  0.10322571  0.86201488  1
  Mo  Mo189  1  0.39164307  -0.00351348  0.50386041  1
  Mo  Mo190  1  0.50348247  0.09329836  0.63375600  1
  Mo  Mo191  1  0.29828936  0.09839779  0.63743826  1
  Mo  Mo192  1  0.79834361  0.40561206  -0.00525501  1
  Mo  Mo193  1  0.10297060  0.70106888  0.12966407  1
  Mo  Mo194  1  0.00371428  0.00094826  0.49659802  1
  Mo  Mo195  1  -0.01052266  0.38590361  0.75364803  1
  Mo  Mo196  1  -0.00117874  0.59754024  -0.00339871  1
  Mo  Mo197  1  0.09762438  0.28111805  0.86147341  1
  Mo  Mo198  1  0.31144846  0.30405712  0.37826754  1
  Mo  Mo199  1  0.49406179  0.90990363  0.62195060  1
