# generated using pymatgen
data_HfZrTaTiMo
_symmetry_space_group_name_H-M   'P 1'
_cell_length_a   15.21746531
_cell_length_b   15.19549609
_cell_length_c   16.87108442
_cell_angle_alpha   89.98028192
_cell_angle_beta   89.98427004
_cell_angle_gamma   89.84408464
_symmetry_Int_Tables_number   1
_chemical_formula_structural   HfZrTaTiMo
_chemical_formula_sum   'Hf40 Zr40 Ta40 Ti40 Mo40'
_cell_volume   3901.20302380
_cell_formula_units_Z   40
loop_
 _symmetry_equiv_pos_site_id
 _symmetry_equiv_pos_as_xyz
  1  'x, y, z'
loop_
 _atom_site_type_symbol
 _atom_site_label
 _atom_site_symmetry_multiplicity
 _atom_site_fract_x
 _atom_site_fract_y
 _atom_site_fract_z
 _atom_site_occupancy
  Hf  Hf0  1  0.92399132  0.28665192  0.39035628  1
  Hf  Hf1  1  0.91546348  0.09290798  0.86731529  1
  Hf  Hf2  1  0.21287656  0.17713309  0.24314322  1
  Hf  Hf3  1  0.69668444  0.50067877  0.12697798  1
  Hf  Hf4  1  0.69608335  0.29864058  0.12715986  1
  Hf  Hf5  1  0.39879075  0.60789397  0.25729765  1
  Hf  Hf6  1  0.21407117  -0.02334463  -0.00700100  1
  Hf  Hf7  1  0.29938873  0.49600301  0.36563990  1
  Hf  Hf8  1  0.80958673  -0.00327560  0.00611160  1
  Hf  Hf9  1  0.90658972  0.49838563  0.60572546  1
  Hf  Hf10  1  0.89955853  0.30124261  0.87031015  1
  Hf  Hf11  1  0.22497167  -0.01541637  0.75657639  1
  Hf  Hf12  1  0.10878195  0.29756971  0.63733750  1
  Hf  Hf13  1  0.90428213  0.68466366  0.12528909  1
  Hf  Hf14  1  0.28894627  0.70637392  0.62370469  1
  Hf  Hf15  1  0.19213755  0.60326220  0.49576185  1
  Hf  Hf16  1  -0.00193825  0.38168741  0.25150582  1
  Hf  Hf17  1  0.39992530  0.21691630  -0.00919872  1
  Hf  Hf18  1  0.31432268  0.27922721  0.36646787  1
  Hf  Hf19  1  0.31357404  0.29380455  0.64180477  1
  Hf  Hf20  1  0.09439143  0.48197825  0.38547270  1
  Hf  Hf21  1  0.20340389  0.38108988  0.49805371  1
  Hf  Hf22  1  0.48482945  0.71317399  0.87645342  1
  Hf  Hf23  1  0.59411952  0.60567397  0.74477382  1
  Hf  Hf24  1  0.48157535  0.50465333  0.86982653  1
  Hf  Hf25  1  0.79622546  0.61875228  0.48639367  1
  Hf  Hf26  1  0.70764050  0.09548030  0.87940551  1
  Hf  Hf27  1  0.79055720  0.80027047  -0.00972726  1
  Hf  Hf28  1  0.58586252  0.40250828  0.49527776  1
  Hf  Hf29  1  0.80840872  0.59093414  -0.01429387  1
  Hf  Hf30  1  0.60354579  0.02720640  0.51077072  1
  Hf  Hf31  1  0.10192251  0.29693776  0.86407525  1
  Hf  Hf32  1  0.60075912  0.80473888  0.51446979  1
  Hf  Hf33  1  0.47824402  0.91867733  0.11584333  1
  Hf  Hf34  1  0.01044069  -0.01803104  0.50353230  1
  Hf  Hf35  1  0.19834556  0.38909021  0.24590848  1
  Hf  Hf36  1  0.17835232  0.80701137  0.50260632  1
  Hf  Hf37  1  0.60561147  0.81455969  0.23197866  1
  Hf  Hf38  1  0.51433078  0.10901773  0.88486764  1
  Hf  Hf39  1  0.22827585  0.17630029  0.50765988  1
  Zr  Zr40  1  0.00677770  0.18990309  -0.00379618  1
  Zr  Zr41  1  0.80378011  0.19845341  0.25794433  1
  Zr  Zr42  1  0.70213848  0.70035886  0.12206795  1
  Zr  Zr43  1  0.11327143  0.09719581  0.37202743  1
  Zr  Zr44  1  0.29208529  0.70704462  0.12659975  1
  Zr  Zr45  1  0.60438890  0.40067225  0.74762094  1
  Zr  Zr46  1  0.59122956  0.01844590  0.24074195  1
  Zr  Zr47  1  0.10896138  0.88101059  0.87103101  1
  Zr  Zr48  1  0.28742138  0.92121754  0.38417239  1
  Zr  Zr49  1  0.89841046  0.88907183  0.13597754  1
  Zr  Zr50  1  0.79752565  0.39757446  0.26934288  1
  Zr  Zr51  1  0.68286866  0.90607275  0.37763974  1
  Zr  Zr52  1  0.31569341  0.49773251  0.63098318  1
  Zr  Zr53  1  0.20590257  0.39159064  0.01047739  1
  Zr  Zr54  1  0.91553866  0.88466001  0.63910596  1
  Zr  Zr55  1  0.48093375  0.92301038  0.61784082  1
  Zr  Zr56  1  0.90218393  0.89433685  0.86393364  1
  Zr  Zr57  1  0.30673272  0.32835725  0.85991639  1
  Zr  Zr58  1  0.00665796  0.79221050  0.00242215  1
  Zr  Zr59  1  0.00855804  0.59644386  0.26872178  1
  Zr  Zr60  1  0.38353869  0.81544751  0.74485965  1
  Zr  Zr61  1  0.59329744  0.81111903  0.74345984  1
  Zr  Zr62  1  0.79337122  0.39730389  -0.00694170  1
  Zr  Zr63  1  0.00237679  0.41122413  0.00032959  1
  Zr  Zr64  1  0.39894652  0.60379307  0.48409998  1
  Zr  Zr65  1  0.21214398  0.17838874  0.76396395  1
  Zr  Zr66  1  0.79466979  0.19776402  0.74464720  1
  Zr  Zr67  1  0.01586535  0.18611139  0.51172036  1
  Zr  Zr68  1  0.59638953  0.60435022  0.50240767  1
  Zr  Zr69  1  0.50557026  0.72153745  0.37294249  1
  Zr  Zr70  1  0.80039321  0.60287746  0.26548907  1
  Zr  Zr71  1  0.79008170  0.39414831  0.48912094  1
  Zr  Zr72  1  0.18980503  0.59170032  -0.00395630  1
  Zr  Zr73  1  0.80518105  0.40310746  0.74614665  1
  Zr  Zr74  1  0.90122645  0.08780506  0.63460988  1
  Zr  Zr75  1  0.19298705  0.59189764  0.75035840  1
  Zr  Zr76  1  0.39379129  0.81987385  0.25671756  1
  Zr  Zr77  1  0.87402563  0.69637424  0.62703536  1
  Zr  Zr78  1  0.91199630  0.10352115  0.13544405  1
  Zr  Zr79  1  0.88527322  0.89415079  0.36312749  1
  Ta  Ta80  1  0.39131286  0.60664239  0.00136797  1
  Ta  Ta81  1  0.40703713  0.39489599  0.24344574  1
  Ta  Ta82  1  0.90396115  0.29786297  0.61503342  1
  Ta  Ta83  1  0.28437041  0.70659773  0.87481183  1
  Ta  Ta84  1  0.38131494  0.81306355  0.00006637  1
  Ta  Ta85  1  0.78765563  0.78871587  0.76177382  1
  Ta  Ta86  1  0.71293369  0.89924459  0.62541672  1
  Ta  Ta87  1  0.50005285  0.12624547  0.37730150  1
  Ta  Ta88  1  0.09733755  0.28041830  0.12595515  1
  Ta  Ta89  1  0.31306763  0.09078069  0.10786861  1
  Ta  Ta90  1  0.60324680  0.01241364  0.74035871  1
  Ta  Ta91  1  0.59077705  0.80657559  0.00447754  1
  Ta  Ta92  1  0.48383356  0.69385499  0.62699305  1
  Ta  Ta93  1  0.59132558  0.59964759  -0.00319765  1
  Ta  Ta94  1  0.60739878  0.00063769  0.00918709  1
  Ta  Ta95  1  0.70300607  0.09896524  0.37343333  1
  Ta  Ta96  1  0.59332569  0.40808696  0.25863139  1
  Ta  Ta97  1  0.79042001  0.59477710  0.76014441  1
  Ta  Ta98  1  0.09966952  0.69666522  0.13183841  1
  Ta  Ta99  1  0.69622417  0.29037459  0.61408980  1
  Ta  Ta100  1  0.38800518  0.81001146  0.49879410  1
  Ta  Ta101  1  0.20327322  0.18434878  -0.01081442  1
  Ta  Ta102  1  0.80419500  -0.00621485  0.50250615  1
  Ta  Ta103  1  0.19064906  0.79351455  0.26063098  1
  Ta  Ta104  1  0.70061110  0.50830083  0.62033112  1
  Ta  Ta105  1  0.09008075  0.89435531  0.36945965  1
  Ta  Ta106  1  0.50221006  0.31213256  0.11917684  1
  Ta  Ta107  1  0.49499427  0.70325501  0.11779814  1
  Ta  Ta108  1  0.90094953  0.49444934  0.12958415  1
  Ta  Ta109  1  0.01645034  -0.00484799  0.24566270  1
  Ta  Ta110  1  0.00638859  0.19127810  0.74397985  1
  Ta  Ta111  1  0.09769158  0.50376338  0.13448768  1
  Ta  Ta112  1  -0.01235515  0.59032813  0.74915003  1
  Ta  Ta113  1  0.39113330  0.02736138  0.25035234  1
  Ta  Ta114  1  0.07382634  0.69732341  0.62511634  1
  Ta  Ta115  1  0.79474821  0.18307186  0.50026013  1
  Ta  Ta116  1  0.39691482  0.41885848  0.00976428  1
  Ta  Ta117  1  0.80028041  0.19813222  0.00221237  1
  Ta  Ta118  1  0.49856838  0.50992450  0.12633409  1
  Ta  Ta119  1  0.90090069  0.29966386  0.12407569  1
  Ti  Ti120  1  0.69131295  0.29100967  0.88251003  1
  Ti  Ti121  1  0.70890808  0.72154886  0.36641886  1
  Ti  Ti122  1  0.60386231  0.20203190  0.74765256  1
  Ti  Ti123  1  0.02544105  -0.00667984  0.75140332  1
  Ti  Ti124  1  0.68728179  0.90131952  0.87223259  1
  Ti  Ti125  1  0.69284199  0.49734214  0.87604822  1
  Ti  Ti126  1  0.50403479  0.12046376  0.10865610  1
  Ti  Ti127  1  0.79291773  -0.00801095  0.74883124  1
  Ti  Ti128  1  -0.01870941  0.78126849  0.48733226  1
  Ti  Ti129  1  0.68255899  0.28500539  0.38055186  1
  Ti  Ti130  1  0.90340725  0.69026007  0.87049275  1
  Ti  Ti131  1  -0.00422953  0.79086792  0.25628252  1
  Ti  Ti132  1  0.09767731  0.49605741  0.61659310  1
  Ti  Ti133  1  0.90465290  0.08960651  0.36717407  1
  Ti  Ti134  1  0.69955318  0.10392299  0.12124961  1
  Ti  Ti135  1  0.90504340  0.49862209  0.39484512  1
  Ti  Ti136  1  0.50045490  0.31832105  0.63139573  1
  Ti  Ti137  1  0.01504772  -0.00726474  0.00325892  1
  Ti  Ti138  1  0.40849937  0.01552318  0.76126666  1
  Ti  Ti139  1  0.09825141  0.49292328  0.86768299  1
  Ti  Ti140  1  0.11627726  0.08079127  0.12354411  1
  Ti  Ti141  1  0.48655178  0.93158563  0.38861394  1
  Ti  Ti142  1  0.78878650  -0.00739550  0.24146222  1
  Ti  Ti143  1  0.50665320  0.31096490  0.87382861  1
  Ti  Ti144  1  0.30469580  0.29089714  0.12625457  1
  Ti  Ti145  1  0.12427298  0.07827211  0.62993540  1
  Ti  Ti146  1  0.00302906  0.40147274  0.74436846  1
  Ti  Ti147  1  0.68500738  0.50822010  0.37461634  1
  Ti  Ti148  1  0.50360367  0.12603045  0.62814699  1
  Ti  Ti149  1  0.41315422  0.20192749  0.76195209  1
  Ti  Ti150  1  0.29748517  0.50608207  0.13801164  1
  Ti  Ti151  1  0.59141039  0.40261456  -0.00235459  1
  Ti  Ti152  1  0.18256153  0.79636461  0.73757691  1
  Ti  Ti153  1  0.68719961  0.69880298  0.87971413  1
  Ti  Ti154  1  0.49768762  0.91314898  0.88428433  1
  Ti  Ti155  1  0.40141031  0.40218318  0.49351948  1
  Ti  Ti156  1  0.42219223  0.21137734  0.50457869  1
  Ti  Ti157  1  0.59466128  0.60658104  0.25241706  1
  Ti  Ti158  1  0.58671157  0.21228217  0.24906483  1
  Ti  Ti159  1  0.08814120  0.68750512  0.87301403  1
  Mo  Mo160  1  0.40687891  0.00608157  -0.00701218  1
  Mo  Mo161  1  0.01074512  0.19139448  0.24607354  1
  Mo  Mo162  1  0.89882160  0.70245719  0.37438139  1
  Mo  Mo163  1  0.28745148  0.70903399  0.37501035  1
  Mo  Mo164  1  0.40600004  0.40760183  0.74887538  1
  Mo  Mo165  1  0.00677886  0.39230782  0.50918525  1
  Mo  Mo166  1  0.31638258  0.88875487  0.87303517  1
  Mo  Mo167  1  0.31506527  0.09536293  0.88796086  1
  Mo  Mo168  1  0.00032580  0.59242894  0.00082043  1
  Mo  Mo169  1  0.10061011  0.89048200  0.63414780  1
  Mo  Mo170  1  -0.00194144  0.77873483  0.75516985  1
  Mo  Mo171  1  0.28886571  0.91115082  0.61033175  1
  Mo  Mo172  1  0.49839510  0.50148232  0.62800231  1
  Mo  Mo173  1  0.49836678  0.30826756  0.37091802  1
  Mo  Mo174  1  0.31748019  0.09697718  0.37574610  1
  Mo  Mo175  1  0.69360020  0.90826523  0.11777755  1
  Mo  Mo176  1  0.60874304  0.21117389  0.00230245  1
  Mo  Mo177  1  0.10485712  0.08970885  0.87613465  1
  Mo  Mo178  1  0.90811162  0.50234237  0.86603060  1
  Mo  Mo179  1  0.19783849  -0.00060552  0.50873904  1
  Mo  Mo180  1  0.32764874  0.09110245  0.63257109  1
  Mo  Mo181  1  0.69369418  0.70316450  0.63172558  1
  Mo  Mo182  1  0.19927136  0.59881108  0.25344740  1
  Mo  Mo183  1  0.41275556  0.20155127  0.23324919  1
  Mo  Mo184  1  0.19298059  0.40347293  0.74406761  1
  Mo  Mo185  1  0.00167651  0.60209255  0.49415268  1
  Mo  Mo186  1  0.79327261  0.81016408  0.50082151  1
  Mo  Mo187  1  0.28709122  0.90638193  0.13103446  1
  Mo  Mo188  1  0.20007733  0.78690735  0.00308982  1
  Mo  Mo189  1  0.49875879  0.50206749  0.36323878  1
  Mo  Mo190  1  0.11096750  0.28948062  0.37399416  1
  Mo  Mo191  1  0.79958376  0.80168751  0.24466830  1
  Mo  Mo192  1  0.39630616  0.61141665  0.75079355  1
  Mo  Mo193  1  0.39429947  0.02671974  0.50213671  1
  Mo  Mo194  1  0.20544878  -0.01324722  0.24032098  1
  Mo  Mo195  1  0.60548627  0.21158250  0.50160995  1
  Mo  Mo196  1  0.10528442  0.88942171  0.13221457  1
  Mo  Mo197  1  0.29811578  0.51660682  0.87178804  1
  Mo  Mo198  1  0.09890215  0.70147563  0.37525011  1
  Mo  Mo199  1  0.69999376  0.09752547  0.62792079  1
