# generated using pymatgen
data_HfZrTaTiMo
_symmetry_space_group_name_H-M   'P 1'
_cell_length_a   15.21569683
_cell_length_b   15.20733115
_cell_length_c   16.84191016
_cell_angle_alpha   90.01841007
_cell_angle_beta   89.99009155
_cell_angle_gamma   89.97855261
_symmetry_Int_Tables_number   1
_chemical_formula_structural   HfZrTaTiMo
_chemical_formula_sum   'Hf40 Zr40 Ta40 Ti40 Mo40'
_cell_volume   3897.05142484
_cell_formula_units_Z   40
loop_
 _symmetry_equiv_pos_site_id
 _symmetry_equiv_pos_as_xyz
  1  'x, y, z'
loop_
 _atom_site_type_symbol
 _atom_site_label
 _atom_site_symmetry_multiplicity
 _atom_site_fract_x
 _atom_site_fract_y
 _atom_site_fract_z
 _atom_site_occupancy
  Hf  Hf0  1  0.88455013  0.31749414  0.86475213  1
  Hf  Hf1  1  -0.01187803  0.40402541  -0.00688174  1
  Hf  Hf2  1  0.51535893  0.29949958  0.86953651  1
  Hf  Hf3  1  -0.01506864  0.18382781  -0.00169795  1
  Hf  Hf4  1  0.80936725  0.80017084  0.75320057  1
  Hf  Hf5  1  0.78281765  0.40412548  0.50114247  1
  Hf  Hf6  1  0.79653125  0.60656543  0.75476443  1
  Hf  Hf7  1  0.29398173  0.90014271  0.14065452  1
  Hf  Hf8  1  0.68940897  0.68135204  0.89680188  1
  Hf  Hf9  1  0.88933268  0.49681038  0.36840512  1
  Hf  Hf10  1  0.02320848  -0.00440919  0.48267489  1
  Hf  Hf11  1  0.90388028  0.49705191  0.13733817  1
  Hf  Hf12  1  0.30533356  0.10174732  0.12163556  1
  Hf  Hf13  1  0.48426995  0.89802922  0.62455698  1
  Hf  Hf14  1  0.57948451  -0.00233547  -0.00939720  1
  Hf  Hf15  1  0.69400331  0.71159127  0.35590323  1
  Hf  Hf16  1  0.60187109  0.79251432  0.76027846  1
  Hf  Hf17  1  0.58735828  -0.00209026  0.49428143  1
  Hf  Hf18  1  0.20258193  0.81038195  0.75162593  1
  Hf  Hf19  1  0.37295734  0.00194015  0.75578951  1
  Hf  Hf20  1  0.30509520  0.71340580  0.61533282  1
  Hf  Hf21  1  0.89954579  0.09253541  0.14340391  1
  Hf  Hf22  1  0.31154195  0.29461306  0.62668427  1
  Hf  Hf23  1  -0.00577308  0.80006610  0.26263699  1
  Hf  Hf24  1  0.30662771  0.91013201  0.35270896  1
  Hf  Hf25  1  0.59594262  0.79495654  0.49211324  1
  Hf  Hf26  1  0.79594688  0.00091270  0.49892086  1
  Hf  Hf27  1  0.61560973  0.39309472  0.00645873  1
  Hf  Hf28  1  0.30714983  0.30823036  0.37760694  1
  Hf  Hf29  1  0.90135129  0.70281675  0.11759405  1
  Hf  Hf30  1  0.00198560  0.39213968  0.51097322  1
  Hf  Hf31  1  0.20800835  0.39464037  0.50893737  1
  Hf  Hf32  1  0.09203078  0.29419661  0.86415406  1
  Hf  Hf33  1  0.68904011  0.30047321  0.36454298  1
  Hf  Hf34  1  0.17593413  -0.01846360  0.01319281  1
  Hf  Hf35  1  0.39024946  0.00347752  0.48768732  1
  Hf  Hf36  1  -0.00208256  0.59974467  0.48547070  1
  Hf  Hf37  1  0.01585927  0.19576647  0.51326066  1
  Hf  Hf38  1  0.51080548  0.29984487  0.64425504  1
  Hf  Hf39  1  0.91544488  0.90232015  0.61896987  1
  Zr  Zr40  1  0.89163482  0.11959197  0.85290616  1
  Zr  Zr41  1  0.30435277  0.50539402  0.11649900  1
  Zr  Zr42  1  0.18673349  0.19580883  0.00007841  1
  Zr  Zr43  1  0.79102339  -0.00469265  0.75529499  1
  Zr  Zr44  1  0.80336882  0.02524774  -0.00309413  1
  Zr  Zr45  1  0.89913183  0.29777524  0.37644991  1
  Zr  Zr46  1  0.19920960  0.61082108  0.49039409  1
  Zr  Zr47  1  0.09673887  0.29447925  0.12826235  1
  Zr  Zr48  1  0.08893306  0.07459014  0.85839228  1
  Zr  Zr49  1  0.89058014  0.50316816  0.62691724  1
  Zr  Zr50  1  0.30680797  0.70038967  0.36500374  1
  Zr  Zr51  1  0.41248786  0.20676817  0.49110435  1
  Zr  Zr52  1  0.30654657  0.70197347  0.89002134  1
  Zr  Zr53  1  0.39447753  0.40559162  0.76315019  1
  Zr  Zr54  1  0.71180521  0.47570249  0.86688730  1
  Zr  Zr55  1  0.71181875  0.30690044  0.64323612  1
  Zr  Zr56  1  0.91983816  0.91494718  0.88836892  1
  Zr  Zr57  1  0.10106970  0.49866306  0.12510856  1
  Zr  Zr58  1  0.19855058  0.40017220  -0.01571980  1
  Zr  Zr59  1  0.10763007  0.51078111  0.62719570  1
  Zr  Zr60  1  0.30971702  0.30203880  0.11879141  1
  Zr  Zr61  1  0.68388857  0.50305840  0.35325384  1
  Zr  Zr62  1  0.60764887  0.20051964  0.49686382  1
  Zr  Zr63  1  0.10653185  0.70275680  0.12886946  1
  Zr  Zr64  1  0.90554104  0.70448822  0.62062433  1
  Zr  Zr65  1  0.69172744  0.89514312  0.62809432  1
  Zr  Zr66  1  0.29608782  0.09185602  0.89804137  1
  Zr  Zr67  1  0.90029226  0.71124781  0.89435715  1
  Zr  Zr68  1  0.70558558  0.90265514  0.11144762  1
  Zr  Zr69  1  0.00445244  0.79650278  0.47338848  1
  Zr  Zr70  1  0.68874637  0.10034423  0.63777764  1
  Zr  Zr71  1  0.79871677  0.57532844  0.00745056  1
  Zr  Zr72  1  0.90033876  0.09976012  0.37165938  1
  Zr  Zr73  1  0.21665087  0.18787889  0.74735381  1
  Zr  Zr74  1  0.40630131  0.59202316  0.49346777  1
  Zr  Zr75  1  0.70298031  0.88504420  0.89703033  1
  Zr  Zr76  1  0.40219002  0.80496762  0.75823695  1
  Zr  Zr77  1  0.30705666  0.50814458  0.88457450  1
  Zr  Zr78  1  0.59626664  0.59047421  0.49075358  1
  Zr  Zr79  1  0.89293634  0.29099247  0.12971390  1
  Ta  Ta80  1  0.78507124  0.19129495  0.25241757  1
  Ta  Ta81  1  0.69789417  0.69548078  0.62378896  1
  Ta  Ta82  1  0.42033603  0.40259733  -0.00293310  1
  Ta  Ta83  1  0.58317851  0.18514036  0.25464759  1
  Ta  Ta84  1  0.40218133  0.81133265  0.01662794  1
  Ta  Ta85  1  0.78875295  0.60738811  0.49603795  1
  Ta  Ta86  1  0.11418451  0.07352483  0.63203919  1
  Ta  Ta87  1  0.10416499  0.71679782  0.62161670  1
  Ta  Ta88  1  0.79340795  0.39345169  0.24121638  1
  Ta  Ta89  1  0.79418620  0.79942298  0.49418599  1
  Ta  Ta90  1  0.57662335  -0.00818405  0.77137573  1
  Ta  Ta91  1  0.50356520  0.69460803  0.34843717  1
  Ta  Ta92  1  0.10477148  0.70707559  0.88111364  1
  Ta  Ta93  1  0.69037642  0.08579805  0.36787167  1
  Ta  Ta94  1  0.00253724  0.40174176  0.73700531  1
  Ta  Ta95  1  0.50576413  0.69480596  0.62684211  1
  Ta  Ta96  1  0.00641834  0.39457166  0.25908967  1
  Ta  Ta97  1  0.90841074  0.90383985  0.12387352  1
  Ta  Ta98  1  0.68251439  0.28890309  0.13834640  1
  Ta  Ta99  1  0.40576259  0.80307131  0.48424686  1
  Ta  Ta100  1  0.00575942  0.59895940  0.26502053  1
  Ta  Ta101  1  0.20673225  0.60639438  0.74930582  1
  Ta  Ta102  1  0.02080830  0.81642960  0.00860902  1
  Ta  Ta103  1  0.48463296  0.10079271  0.63876469  1
  Ta  Ta104  1  0.19909470  0.82263364  0.48150370  1
  Ta  Ta105  1  0.51658471  0.51623164  0.87643976  1
  Ta  Ta106  1  0.01064484  0.61693250  0.75439705  1
  Ta  Ta107  1  0.49887595  0.50024545  0.63650732  1
  Ta  Ta108  1  0.48646991  0.10785457  0.87909014  1
  Ta  Ta109  1  0.50065324  0.91155368  0.13709070  1
  Ta  Ta110  1  0.79506965  0.80290034  0.23820695  1
  Ta  Ta111  1  0.20044649  0.59406255  0.25723758  1
  Ta  Ta112  1  0.52050700  0.90026424  0.34846413  1
  Ta  Ta113  1  0.20530915  0.39862257  0.25303367  1
  Ta  Ta114  1  0.58577174  0.78324010  0.01875149  1
  Ta  Ta115  1  0.68514444  0.50570864  0.63743306  1
  Ta  Ta116  1  0.41653003  0.02438912  0.25020823  1
  Ta  Ta117  1  0.19730697  0.39989583  0.74950303  1
  Ta  Ta118  1  0.90207420  0.10062898  0.63025855  1
  Ta  Ta119  1  0.10593813  0.48775980  0.37408303  1
  Ti  Ti120  1  0.20743289  0.18170560  0.50617337  1
  Ti  Ti121  1  0.49953553  0.70591787  0.88611125  1
  Ti  Ti122  1  0.29344026  0.89727463  0.89531169  1
  Ti  Ti123  1  0.40880449  0.79744572  0.23964009  1
  Ti  Ti124  1  0.68632123  0.10948773  0.86789635  1
  Ti  Ti125  1  0.29378419  0.10708262  0.36361090  1
  Ti  Ti126  1  0.40653091  0.60973752  0.75162397  1
  Ti  Ti127  1  0.70130310  0.28813930  0.84523858  1
  Ti  Ti128  1  0.30144347  0.70001641  0.12798895  1
  Ti  Ti129  1  0.50116681  0.11655717  0.11078426  1
  Ti  Ti130  1  0.20139257  0.20181649  0.25028929  1
  Ti  Ti131  1  0.00852788  0.60060429  -0.00630603  1
  Ti  Ti132  1  0.10150562  0.50714784  0.86479687  1
  Ti  Ti133  1  0.69261618  0.69205622  0.12534513  1
  Ti  Ti134  1  0.79808322  0.60350516  0.24133305  1
  Ti  Ti135  1  0.49156148  0.48043560  0.35742679  1
  Ti  Ti136  1  0.68893358  0.49479322  0.13923108  1
  Ti  Ti137  1  0.88602952  0.69725432  0.36896385  1
  Ti  Ti138  1  0.09282121  0.90639383  0.15204841  1
  Ti  Ti139  1  0.79101147  -0.00681618  0.25190031  1
  Ti  Ti140  1  0.69206995  0.10344523  0.12204413  1
  Ti  Ti141  1  0.30527494  0.49619315  0.37104052  1
  Ti  Ti142  1  0.19866002  0.60788464  0.00012713  1
  Ti  Ti143  1  0.10884597  0.29186156  0.37618411  1
  Ti  Ti144  1  0.00518684  0.19631627  0.26058793  1
  Ti  Ti145  1  0.88362704  0.90012075  0.36952455  1
  Ti  Ti146  1  0.30851596  0.50565134  0.62858128  1
  Ti  Ti147  1  0.27824478  0.91738205  0.61202864  1
  Ti  Ti148  1  0.40593809  0.21823480  0.25419252  1
  Ti  Ti149  1  0.00570505  0.20566524  0.72619674  1
  Ti  Ti150  1  0.09493879  0.09141734  0.14391878  1
  Ti  Ti151  1  0.77673066  0.22321537  -0.00334160  1
  Ti  Ti152  1  0.40326369  0.58842946  0.24008793  1
  Ti  Ti153  1  0.80545921  0.20118008  0.50651209  1
  Ti  Ti154  1  0.19505131  0.79449251  0.26024588  1
  Ti  Ti155  1  0.31354649  0.28871180  0.88212265  1
  Ti  Ti156  1  0.57809482  0.39772059  0.49958774  1
  Ti  Ti157  1  0.91203114  0.50950768  0.86220378  1
  Ti  Ti158  1  0.42729219  0.60850379  0.01637834  1
  Ti  Ti159  1  0.01138265  0.81419393  0.75362713  1
  Mo  Mo160  1  0.81064651  0.40793221  0.74220414  1
  Mo  Mo161  1  0.10925978  0.90874939  0.35194597  1
  Mo  Mo162  1  0.70459789  0.90023702  0.36691073  1
  Mo  Mo163  1  0.80192485  0.79621874  0.01979214  1
  Mo  Mo164  1  0.59972665  0.40868927  0.75404348  1
  Mo  Mo165  1  0.80788749  0.20234984  0.73821722  1
  Mo  Mo166  1  0.39565207  -0.00437572  0.01188353  1
  Mo  Mo167  1  0.49904847  0.29458006  0.12039482  1
  Mo  Mo168  1  0.00175355  0.00648023  0.01320673  1
  Mo  Mo169  1  0.11267834  0.11197318  0.36649909  1
  Mo  Mo170  1  0.59321931  0.59774175  0.23667419  1
  Mo  Mo171  1  0.60711879  0.00735884  0.23934093  1
  Mo  Mo172  1  0.58258347  0.38829160  0.23746550  1
  Mo  Mo173  1  0.90719613  0.29567842  0.62437501  1
  Mo  Mo174  1  0.49491812  0.09961478  0.36929982  1
  Mo  Mo175  1  0.00292212  -0.00606108  0.73859417  1
  Mo  Mo176  1  0.39247715  0.40126834  0.24612853  1
  Mo  Mo177  1  0.50083948  0.30624547  0.36962062  1
  Mo  Mo178  1  0.41362365  0.20501837  0.00100309  1
  Mo  Mo179  1  0.40162548  0.19529958  0.75671704  1
  Mo  Mo180  1  0.79899512  0.39204253  0.02314068  1
  Mo  Mo181  1  0.59369131  0.58965735  0.01664332  1
  Mo  Mo182  1  0.40826573  0.40975406  0.50534537  1
  Mo  Mo183  1  0.30547873  0.09378773  0.61909996  1
  Mo  Mo184  1  0.49604493  0.69867521  0.14141611  1
  Mo  Mo185  1  0.10526892  0.88886050  0.61528288  1
  Mo  Mo186  1  0.20193730  0.01166511  0.24572066  1
  Mo  Mo187  1  0.10430111  0.88927453  0.87973018  1
  Mo  Mo188  1  0.10253962  0.69611479  0.36692159  1
  Mo  Mo189  1  0.50148936  0.49049190  0.12943096  1
  Mo  Mo190  1  0.48601619  0.89579757  0.88806191  1
  Mo  Mo191  1  0.59240567  0.60554700  0.75295993  1
  Mo  Mo192  1  0.00005671  -0.00085196  0.26687270  1
  Mo  Mo193  1  0.59751452  0.18478060  0.75417080  1
  Mo  Mo194  1  0.60875749  0.19411718  -0.00563058  1
  Mo  Mo195  1  0.60148204  0.80140262  0.22951663  1
  Mo  Mo196  1  0.19649282  -0.01446831  0.75247300  1
  Mo  Mo197  1  0.20407852  0.79404683  0.01201029  1
  Mo  Mo198  1  0.11138743  0.29561488  0.63410267  1
  Mo  Mo199  1  0.20147585  0.00891785  0.48692342  1
