# generated using pymatgen
data_HfZrTaTiMo
_symmetry_space_group_name_H-M   'P 1'
_cell_length_a   15.19967110
_cell_length_b   15.23640561
_cell_length_c   16.83358016
_cell_angle_alpha   90.03343777
_cell_angle_beta   89.95933236
_cell_angle_gamma   90.08409430
_symmetry_Int_Tables_number   1
_chemical_formula_structural   HfZrTaTiMo
_chemical_formula_sum   'Hf40 Zr40 Ta40 Ti40 Mo40'
_cell_volume   3898.45527886
_cell_formula_units_Z   40
loop_
 _symmetry_equiv_pos_site_id
 _symmetry_equiv_pos_as_xyz
  1  'x, y, z'
loop_
 _atom_site_type_symbol
 _atom_site_label
 _atom_site_symmetry_multiplicity
 _atom_site_fract_x
 _atom_site_fract_y
 _atom_site_fract_z
 _atom_site_occupancy
  Hf  Hf0  1  0.69757906  0.70056385  0.35980550  1
  Hf  Hf1  1  0.10041042  0.70056992  0.62023406  1
  Hf  Hf2  1  0.49835497  0.29986458  0.61885188  1
  Hf  Hf3  1  0.10452810  0.49789919  0.88512862  1
  Hf  Hf4  1  0.20494598  0.00790358  0.01598838  1
  Hf  Hf5  1  0.51274103  0.70307403  0.62173383  1
  Hf  Hf6  1  0.81608417  0.38074501  0.22841207  1
  Hf  Hf7  1  0.49381721  0.09473779  0.86433100  1
  Hf  Hf8  1  0.71564564  0.30198523  0.38065538  1
  Hf  Hf9  1  0.70405624  0.28544516  0.87168681  1
  Hf  Hf10  1  0.49196838  0.29003633  0.86934552  1
  Hf  Hf11  1  0.09759165  0.90539923  0.86818875  1
  Hf  Hf12  1  0.71404772  0.90647164  0.14529971  1
  Hf  Hf13  1  -0.01442567  0.60228912  0.00612608  1
  Hf  Hf14  1  0.29791133  0.50170202  0.61196422  1
  Hf  Hf15  1  0.01582934  0.59692227  0.24268330  1
  Hf  Hf16  1  0.40010991  0.60054934  0.75778537  1
  Hf  Hf17  1  0.59611164  -0.01543511  0.49811726  1
  Hf  Hf18  1  0.01010716  0.80888513  0.24545107  1
  Hf  Hf19  1  0.30595954  0.92293826  0.87438105  1
  Hf  Hf20  1  0.50622647  0.30492040  0.39049878  1
  Hf  Hf21  1  0.08927273  0.28941892  0.60549413  1
  Hf  Hf22  1  0.30641819  0.71084110  0.61246852  1
  Hf  Hf23  1  0.70415185  0.49497974  0.86867106  1
  Hf  Hf24  1  0.61056232  0.80026768  0.00293631  1
  Hf  Hf25  1  0.80095267  0.80147855  0.48724651  1
  Hf  Hf26  1  0.12534204  0.50433918  0.10723046  1
  Hf  Hf27  1  0.79739319  0.57734084  0.25680848  1
  Hf  Hf28  1  0.90876516  0.69856061  0.36647113  1
  Hf  Hf29  1  0.07880883  0.30965312  0.38690462  1
  Hf  Hf30  1  0.00463971  0.59590003  0.49601785  1
  Hf  Hf31  1  0.50895657  0.49907674  0.11794905  1
  Hf  Hf32  1  0.60113909  -0.01438507  0.73774488  1
  Hf  Hf33  1  -0.00466273  -0.02634159  0.02301908  1
  Hf  Hf34  1  0.20329881  0.81775783  0.49244289  1
  Hf  Hf35  1  0.60567276  0.58759174  0.48438882  1
  Hf  Hf36  1  0.70661451  0.50286102  0.11103610  1
  Hf  Hf37  1  0.81474179  0.80575544  -0.00367110  1
  Hf  Hf38  1  0.09146065  0.70518609  0.88726950  1
  Hf  Hf39  1  0.11226753  0.29839446  0.88324947  1
  Zr  Zr40  1  0.89474946  0.50206929  0.64568967  1
  Zr  Zr41  1  0.20065363  0.20935274  0.01965723  1
  Zr  Zr42  1  0.61106497  0.39319376  0.25097540  1
  Zr  Zr43  1  -0.01053284  0.18797689  0.01372279  1
  Zr  Zr44  1  0.37800953  -0.00952515  0.49907218  1
  Zr  Zr45  1  0.89287938  0.91890627  0.86848114  1
  Zr  Zr46  1  0.20466770  0.80977187  0.75121998  1
  Zr  Zr47  1  0.40005412  0.21197180  0.25993026  1
  Zr  Zr48  1  0.51081132  0.50478018  0.63156260  1
  Zr  Zr49  1  0.09210984  0.49461371  0.63251287  1
  Zr  Zr50  1  0.20242762  0.37699924  0.74468735  1
  Zr  Zr51  1  0.90891709  0.47330424  0.37605427  1
  Zr  Zr52  1  0.89702646  0.70670553  0.62262020  1
  Zr  Zr53  1  0.20535626  0.60243886  0.75653356  1
  Zr  Zr54  1  0.70700372  0.08900272  0.61841991  1
  Zr  Zr55  1  0.31352073  0.10190833  0.13871319  1
  Zr  Zr56  1  0.69339657  0.28022201  0.10870759  1
  Zr  Zr57  1  0.48829040  0.70179018  0.13687587  1
  Zr  Zr58  1  0.40491776  0.60942046  -0.01116113  1
  Zr  Zr59  1  0.41330986  -0.00237218  0.26803524  1
  Zr  Zr60  1  0.00830491  0.20667447  0.74967706  1
  Zr  Zr61  1  0.49351380  0.29573216  0.11862401  1
  Zr  Zr62  1  0.01261299  0.39841224  0.22691227  1
  Zr  Zr63  1  0.29356063  0.30296940  0.39202213  1
  Zr  Zr64  1  0.50965957  0.90310274  0.87641100  1
  Zr  Zr65  1  0.91094858  0.10897529  0.61452301  1
  Zr  Zr66  1  0.39695933  0.39444329  0.74693923  1
  Zr  Zr67  1  0.68743329  0.70097789  0.14458997  1
  Zr  Zr68  1  0.40753388  0.80402867  0.75218900  1
  Zr  Zr69  1  0.08959817  0.09547637  0.88049196  1
  Zr  Zr70  1  0.89211877  0.10695455  0.37822798  1
  Zr  Zr71  1  0.90525217  0.49482245  0.86422160  1
  Zr  Zr72  1  0.10004658  0.90795236  0.62920297  1
  Zr  Zr73  1  0.20482174  0.81179474  -0.00080098  1
  Zr  Zr74  1  0.18843462  0.21353619  0.24666434  1
  Zr  Zr75  1  0.87265192  0.08291596  0.13567896  1
  Zr  Zr76  1  0.31767855  0.51213264  0.12252319  1
  Zr  Zr77  1  0.88788423  0.70196757  0.13621125  1
  Zr  Zr78  1  0.09016412  0.10203430  0.36671262  1
  Zr  Zr79  1  0.70657814  0.68633454  0.62330246  1
  Ta  Ta80  1  -0.00022598  0.80985207  0.48870333  1
  Ta  Ta81  1  0.69780600  0.88007467  0.62122339  1
  Ta  Ta82  1  0.29906514  0.48811221  0.88620081  1
  Ta  Ta83  1  0.88947991  0.90437652  0.62888234  1
  Ta  Ta84  1  0.69609144  0.10405512  0.39035893  1
  Ta  Ta85  1  0.90304543  0.29564151  0.87435044  1
  Ta  Ta86  1  0.38743142  0.00520518  0.72910400  1
  Ta  Ta87  1  0.80378685  0.40205674  0.51433665  1
  Ta  Ta88  1  0.70352453  0.90541475  0.36450166  1
  Ta  Ta89  1  0.40727774  0.80305441  0.47902212  1
  Ta  Ta90  1  0.38094672  0.19521892  0.73451240  1
  Ta  Ta91  1  -0.01427177  0.79995748  0.75197251  1
  Ta  Ta92  1  0.00357939  0.38977887  0.01491855  1
  Ta  Ta93  1  0.20847381  0.41534647  0.25773903  1
  Ta  Ta94  1  0.59568180  0.19343920  0.73476083  1
  Ta  Ta95  1  0.00254351  -0.00401457  0.49979378  1
  Ta  Ta96  1  0.31171431  0.89268406  0.13643951  1
  Ta  Ta97  1  0.60700307  0.20186050  0.51277183  1
  Ta  Ta98  1  0.40480405  0.60474269  0.49388074  1
  Ta  Ta99  1  0.29558387  0.11837309  0.87295658  1
  Ta  Ta100  1  0.49838264  0.10627038  0.39687655  1
  Ta  Ta101  1  0.58448117  0.58231125  0.26604480  1
  Ta  Ta102  1  0.28526480  0.69474443  0.38287208  1
  Ta  Ta103  1  0.49455513  0.89190062  0.61906797  1
  Ta  Ta104  1  0.30666627  0.50561381  0.38229267  1
  Ta  Ta105  1  0.50504929  0.90589063  0.12813412  1
  Ta  Ta106  1  0.59514000  0.19024820  0.25884863  1
  Ta  Ta107  1  0.38841061  0.79697880  0.26755508  1
  Ta  Ta108  1  0.60088050  0.39683263  -0.01262328  1
  Ta  Ta109  1  0.78007140  0.19133404  0.24799125  1
  Ta  Ta110  1  0.10568818  0.70830379  0.11294766  1
  Ta  Ta111  1  -0.00899346  0.00653618  0.74300538  1
  Ta  Ta112  1  0.81131707  0.39620045  0.00262929  1
  Ta  Ta113  1  0.29610582  0.32286334  0.13122944  1
  Ta  Ta114  1  0.50421136  0.49532217  0.87192242  1
  Ta  Ta115  1  0.28924256  0.09738497  0.38102538  1
  Ta  Ta116  1  0.48843856  0.09937227  0.61236979  1
  Ta  Ta117  1  -0.02137927  0.20875168  0.23654945  1
  Ta  Ta118  1  0.51344799  0.70200114  0.87229528  1
  Ta  Ta119  1  0.29353966  0.70453487  0.12580717  1
  Ti  Ti120  1  0.39944280  0.39109322  -0.00694153  1
  Ti  Ti121  1  0.20903473  0.60846268  0.25231702  1
  Ti  Ti122  1  0.79419559  0.18712258  -0.00726680  1
  Ti  Ti123  1  0.60558581  0.00004187  0.00237355  1
  Ti  Ti124  1  0.51098789  0.09798790  0.12551195  1
  Ti  Ti125  1  0.29357468  0.28434841  0.59972821  1
  Ti  Ti126  1  0.80783835  0.21836465  0.51147608  1
  Ti  Ti127  1  0.18785928  0.41188718  0.49802846  1
  Ti  Ti128  1  0.60507106  0.01004117  0.26100447  1
  Ti  Ti129  1  0.60795245  0.60805280  0.76060185  1
  Ti  Ti130  1  0.40676141  0.80915025  0.00122865  1
  Ti  Ti131  1  0.80027815  0.19811425  0.74256464  1
  Ti  Ti132  1  0.10138631  0.90612706  0.37089902  1
  Ti  Ti133  1  0.70465743  0.49125396  0.64439565  1
  Ti  Ti134  1  0.80422815  -0.00844244  0.49480427  1
  Ti  Ti135  1  0.60698242  0.38857732  0.75140817  1
  Ti  Ti136  1  0.59679152  0.79326813  0.48457942  1
  Ti  Ti137  1  0.48925650  0.68996726  0.36689694  1
  Ti  Ti138  1  0.09257173  0.09204706  0.14261152  1
  Ti  Ti139  1  0.70585727  0.08175526  0.85983837  1
  Ti  Ti140  1  0.59596484  0.18559363  -0.00953742  1
  Ti  Ti141  1  0.19856696  0.02588831  0.74155413  1
  Ti  Ti142  1  0.40600536  0.00301948  0.00779112  1
  Ti  Ti143  1  0.79922347  0.58842852  0.48781472  1
  Ti  Ti144  1  0.40816867  0.40754006  0.50138987  1
  Ti  Ti145  1  0.40942081  0.41814799  0.25977558  1
  Ti  Ti146  1  0.39660794  0.19596686  0.00124664  1
  Ti  Ti147  1  0.19854259  -0.01096289  0.24682687  1
  Ti  Ti148  1  0.19953413  0.79574339  0.25606920  1
  Ti  Ti149  1  0.80313473  0.62222431  0.76746247  1
  Ti  Ti150  1  0.78887083  0.00098709  -0.00268111  1
  Ti  Ti151  1  0.30156190  0.70641408  0.88130144  1
  Ti  Ti152  1  0.00235564  0.60963985  0.75760346  1
  Ti  Ti153  1  0.79482210  0.60861901  -0.01365593  1
  Ti  Ti154  1  0.60473445  0.60019069  -0.01189107  1
  Ti  Ti155  1  0.58375096  0.81125517  0.26097899  1
  Ti  Ti156  1  0.90253111  0.90973799  0.35834076  1
  Ti  Ti157  1  0.78389833  0.81277085  0.76315705  1
  Ti  Ti158  1  0.11273294  0.51542645  0.37758679  1
  Ti  Ti159  1  0.61662066  0.40050825  0.50807918  1
  Mo  Mo160  1  0.20686563  0.60820405  -0.00859243  1
  Mo  Mo161  1  0.70198335  0.30164183  0.63136416  1
  Mo  Mo162  1  0.39315409  0.60189017  0.26167412  1
  Mo  Mo163  1  0.29159051  0.90026324  0.36106538  1
  Mo  Mo164  1  0.90179471  0.49897988  0.11133795  1
  Mo  Mo165  1  0.30601620  0.29330780  0.87837622  1
  Mo  Mo166  1  0.60723696  0.79244782  0.74912237  1
  Mo  Mo167  1  0.10592752  0.09942316  0.61432354  1
  Mo  Mo168  1  0.70225304  0.70459250  0.87621332  1
  Mo  Mo169  1  0.90072545  0.70795738  0.87115488  1
  Mo  Mo170  1  0.20557126  0.19697539  0.74328917  1
  Mo  Mo171  1  0.79239973  0.00670847  0.26585544  1
  Mo  Mo172  1  0.00170111  0.00125445  0.24242382  1
  Mo  Mo173  1  0.70173129  0.49095996  0.37828556  1
  Mo  Mo174  1  0.88082463  0.11274527  0.86843266  1
  Mo  Mo175  1  -0.00774557  0.20107048  0.49856633  1
  Mo  Mo176  1  0.28394515  0.10268605  0.61078351  1
  Mo  Mo177  1  0.80028185  0.38489923  0.74948261  1
  Mo  Mo178  1  0.10492156  0.29977869  0.12607063  1
  Mo  Mo179  1  0.11565561  0.89784222  0.13596000  1
  Mo  Mo180  1  0.39924422  0.19865487  0.50190015  1
  Mo  Mo181  1  0.80043935  0.00097210  0.74138095  1
  Mo  Mo182  1  0.50481869  0.89581404  0.37490127  1
  Mo  Mo183  1  0.10203730  0.70352686  0.37775049  1
  Mo  Mo184  1  0.69701714  0.90507499  0.87700161  1
  Mo  Mo185  1  -0.01258915  0.40085643  0.50276728  1
  Mo  Mo186  1  0.20226504  0.60195991  0.49799927  1
  Mo  Mo187  1  0.18624246  0.00119901  0.49319497  1
  Mo  Mo188  1  0.89411890  0.28873316  0.11110884  1
  Mo  Mo189  1  0.68011168  0.09179597  0.12323096  1
  Mo  Mo190  1  0.21032938  0.40166599  0.00065585  1
  Mo  Mo191  1  0.19433752  0.19019750  0.49138548  1
  Mo  Mo192  1  0.79972390  0.80100764  0.26464834  1
  Mo  Mo193  1  0.00188121  0.39752070  0.75947528  1
  Mo  Mo194  1  0.30300342  0.90370252  0.62521394  1
  Mo  Mo195  1  0.89551642  0.31012786  0.63546467  1
  Mo  Mo196  1  -0.00090427  0.80034738  0.01068686  1
  Mo  Mo197  1  0.89706409  0.28947661  0.37290791  1
  Mo  Mo198  1  0.49728891  0.49379200  0.38263208  1
  Mo  Mo199  1  0.90021068  0.89504923  0.14498090  1
