# generated using pymatgen
data_HfZrTaTiMo
_symmetry_space_group_name_H-M   'P 1'
_cell_length_a   15.17229699
_cell_length_b   15.19560904
_cell_length_c   16.79591472
_cell_angle_alpha   89.96893362
_cell_angle_beta   89.99972084
_cell_angle_gamma   89.97989642
_symmetry_Int_Tables_number   1
_chemical_formula_structural   HfZrTaTiMo
_chemical_formula_sum   'Hf40 Zr40 Ta40 Ti40 Mo40'
_cell_volume   3872.33584997
_cell_formula_units_Z   40
loop_
 _symmetry_equiv_pos_site_id
 _symmetry_equiv_pos_as_xyz
  1  'x, y, z'
loop_
 _atom_site_type_symbol
 _atom_site_label
 _atom_site_symmetry_multiplicity
 _atom_site_fract_x
 _atom_site_fract_y
 _atom_site_fract_z
 _atom_site_occupancy
  Hf  Hf0  1  0.29379861  0.09669046  0.62370631  1
  Hf  Hf1  1  0.50162201  0.10169165  0.13561846  1
  Hf  Hf2  1  0.39701334  0.21433486  0.26316654  1
  Hf  Hf3  1  0.20879214  0.40676012  0.00334451  1
  Hf  Hf4  1  0.88178662  0.70841355  0.36082785  1
  Hf  Hf5  1  0.49291807  0.88618523  0.86130800  1
  Hf  Hf6  1  0.89915293  0.30972251  0.62338068  1
  Hf  Hf7  1  -0.01584007  0.80505736  0.50386375  1
  Hf  Hf8  1  0.27316312  0.09542062  0.36485334  1
  Hf  Hf9  1  0.40871027  0.19607743  0.00010962  1
  Hf  Hf10  1  0.77967117  0.21424330  0.74891367  1
  Hf  Hf11  1  0.00888885  0.21410166  0.76416981  1
  Hf  Hf12  1  0.17427270  -0.00311931  0.23718637  1
  Hf  Hf13  1  0.58731717  0.58939129  -0.00821801  1
  Hf  Hf14  1  0.20793693  0.79202617  0.00754339  1
  Hf  Hf15  1  0.88713089  0.90868986  0.37613926  1
  Hf  Hf16  1  0.29413530  0.10358450  0.13595637  1
  Hf  Hf17  1  0.51499515  0.88257233  0.36659901  1
  Hf  Hf18  1  0.20776972  0.59310033  0.26164044  1
  Hf  Hf19  1  0.00537261  0.01119315  0.51239161  1
  Hf  Hf20  1  0.30998615  0.51171188  0.87659191  1
  Hf  Hf21  1  0.42060619  0.79210198  0.50940269  1
  Hf  Hf22  1  0.59320600  0.39904762  0.26506417  1
  Hf  Hf23  1  0.41949958  0.38550965  0.47912168  1
  Hf  Hf24  1  0.31470181  0.30666788  0.88365019  1
  Hf  Hf25  1  0.01867955  0.61121233  0.74935797  1
  Hf  Hf26  1  0.30846779  0.30136598  0.62100271  1
  Hf  Hf27  1  0.39207206  -0.00922984  -0.00300363  1
  Hf  Hf28  1  0.00126671  0.81943873  0.24563829  1
  Hf  Hf29  1  0.80203253  0.60976046  0.50528784  1
  Hf  Hf30  1  0.88322723  0.90105408  0.86691270  1
  Hf  Hf31  1  0.69000386  0.50393822  0.13286091  1
  Hf  Hf32  1  0.08973172  0.70612770  0.37341304  1
  Hf  Hf33  1  0.19980564  -0.00616398  0.00343260  1
  Hf  Hf34  1  0.29204182  0.70171577  0.86309633  1
  Hf  Hf35  1  0.39228956  0.58629591  0.51371593  1
  Hf  Hf36  1  0.77335135  0.80242965  0.51432846  1
  Hf  Hf37  1  0.08871103  0.49793787  0.37149461  1
  Hf  Hf38  1  0.32543536  0.70053604  0.36829850  1
  Hf  Hf39  1  0.38877170  0.00540892  0.75390662  1
  Zr  Zr40  1  0.91006869  0.70655704  0.88527361  1
  Zr  Zr41  1  0.49043479  0.07789075  0.36753418  1
  Zr  Zr42  1  0.21530517  0.40031701  0.48502326  1
  Zr  Zr43  1  0.89652534  0.51027461  0.35850737  1
  Zr  Zr44  1  0.90527595  0.50435410  0.88250616  1
  Zr  Zr45  1  0.49878205  0.10166890  0.62024743  1
  Zr  Zr46  1  0.50945129  0.09617704  0.87327885  1
  Zr  Zr47  1  0.12013925  0.50874399  0.61482420  1
  Zr  Zr48  1  -0.00753479  0.38983233  0.23549275  1
  Zr  Zr49  1  0.09358807  0.27542727  0.38237682  1
  Zr  Zr50  1  0.60165545  -0.00600419  0.00468812  1
  Zr  Zr51  1  0.09748891  0.50145912  0.12293852  1
  Zr  Zr52  1  0.88824105  0.10205151  0.86124323  1
  Zr  Zr53  1  0.80357919  0.00231260  0.23738098  1
  Zr  Zr54  1  0.69698430  0.52669133  0.36859542  1
  Zr  Zr55  1  0.30945498  0.30469237  0.11818550  1
  Zr  Zr56  1  0.91156677  0.10542694  0.37726483  1
  Zr  Zr57  1  0.60382971  0.78543360  -0.01130349  1
  Zr  Zr58  1  0.61640572  0.19485654  0.26212304  1
  Zr  Zr59  1  0.89597423  0.30703950  0.37737963  1
  Zr  Zr60  1  0.59886007  0.62709539  0.51587928  1
  Zr  Zr61  1  0.20754418  0.40585624  0.75435023  1
  Zr  Zr62  1  0.28754664  0.69569359  0.62930133  1
  Zr  Zr63  1  0.10211195  0.69961921  0.12999083  1
  Zr  Zr64  1  0.20102690  0.37934499  0.25305380  1
  Zr  Zr65  1  -0.00635933  0.19971301  -0.01115670  1
  Zr  Zr66  1  0.80162037  0.19572681  0.50445344  1
  Zr  Zr67  1  0.08980902  0.87561177  0.87536908  1
  Zr  Zr68  1  -0.00309858  -0.00383199  -0.01036686  1
  Zr  Zr69  1  0.51543908  0.47470218  0.62048704  1
  Zr  Zr70  1  0.49810297  0.88415940  0.13431657  1
  Zr  Zr71  1  0.10618927  0.10118502  0.64362756  1
  Zr  Zr72  1  0.20993259  0.81546972  0.49275080  1
  Zr  Zr73  1  0.89893082  0.10279040  0.64183747  1
  Zr  Zr74  1  0.67983023  0.30980196  0.60851247  1
  Zr  Zr75  1  0.00571905  0.40957682  0.75085337  1
  Zr  Zr76  1  0.58892228  0.20022756  0.48252786  1
  Zr  Zr77  1  0.41314359  0.21206769  0.75588308  1
  Zr  Zr78  1  0.78842210  0.60773966  0.00061641  1
  Zr  Zr79  1  0.53557244  0.30361552  0.89357589  1
  Ta  Ta80  1  0.10158965  0.89943080  0.63025980  1
  Ta  Ta81  1  0.39944174  0.59065859  0.73289755  1
  Ta  Ta82  1  0.89175523  0.90171884  0.64024992  1
  Ta  Ta83  1  0.89811530  0.70372867  0.12385187  1
  Ta  Ta84  1  0.10869486  0.52142897  0.89314116  1
  Ta  Ta85  1  0.31304701  0.90582042  0.35815279  1
  Ta  Ta86  1  0.49103281  0.68606416  0.85654925  1
  Ta  Ta87  1  0.69630697  0.48458316  0.87540017  1
  Ta  Ta88  1  0.69091264  0.09025867  0.63182785  1
  Ta  Ta89  1  0.42002748  0.41937064  0.00490844  1
  Ta  Ta90  1  0.10020165  0.91856617  0.37952539  1
  Ta  Ta91  1  0.39671080  0.61294477  0.00399729  1
  Ta  Ta92  1  0.20233620  0.19202743  -0.01302254  1
  Ta  Ta93  1  0.79475522  0.39840847  0.00762411  1
  Ta  Ta94  1  0.20595959  0.80281878  0.25691355  1
  Ta  Ta95  1  0.29023411  0.89916353  0.86250713  1
  Ta  Ta96  1  0.10203863  0.28530695  0.10938077  1
  Ta  Ta97  1  0.39460924  0.41021989  0.26754906  1
  Ta  Ta98  1  0.51287497  0.30797800  0.12255135  1
  Ta  Ta99  1  0.49600740  0.89617233  0.64041547  1
  Ta  Ta100  1  0.38846118  -0.01263563  0.50172297  1
  Ta  Ta101  1  0.60764159  0.58696397  0.74985538  1
  Ta  Ta102  1  0.00901669  0.18545104  0.23692256  1
  Ta  Ta103  1  0.90603871  0.90242553  0.11374600  1
  Ta  Ta104  1  0.88896424  0.31233886  0.87857238  1
  Ta  Ta105  1  0.79438001  0.41111712  0.74877998  1
  Ta  Ta106  1  0.10105533  0.31189258  0.88975279  1
  Ta  Ta107  1  0.79367562  -0.00654128  0.51474771  1
  Ta  Ta108  1  0.18356324  0.78997381  0.74620128  1
  Ta  Ta109  1  0.79168571  0.00351287  0.00141759  1
  Ta  Ta110  1  -0.00154114  0.40434817  0.50542628  1
  Ta  Ta111  1  0.10471517  0.29718875  0.61749064  1
  Ta  Ta112  1  0.09322660  0.70622331  0.61127873  1
  Ta  Ta113  1  0.61217372  -0.01309938  0.24300141  1
  Ta  Ta114  1  0.30795244  0.51135569  0.12852601  1
  Ta  Ta115  1  0.70164778  0.29666212  0.12390275  1
  Ta  Ta116  1  0.38652040  0.19424425  0.48325638  1
  Ta  Ta117  1  0.70555430  0.07471904  0.38113955  1
  Ta  Ta118  1  0.31659705  0.70384677  0.14132316  1
  Ta  Ta119  1  0.90292762  0.50823839  0.62684817  1
  Ti  Ti120  1  0.79849872  0.41465424  0.49867990  1
  Ti  Ti121  1  0.20027866  0.60408577  0.48346018  1
  Ti  Ti122  1  -0.00424203  0.60174243  0.50095748  1
  Ti  Ti123  1  -0.00570547  0.40555092  0.00668418  1
  Ti  Ti124  1  0.68951445  0.89871497  0.64477220  1
  Ti  Ti125  1  0.89692338  0.29497429  0.11760666  1
  Ti  Ti126  1  0.79540461  0.39587910  0.24231040  1
  Ti  Ti127  1  0.11233397  0.09057545  0.86658899  1
  Ti  Ti128  1  0.41085168  0.40027797  0.74467878  1
  Ti  Ti129  1  0.69394409  0.10295131  0.86816716  1
  Ti  Ti130  1  0.30253243  0.89534166  0.14181791  1
  Ti  Ti131  1  0.70292654  0.30731778  0.38318140  1
  Ti  Ti132  1  0.59619769  0.78507625  0.74932380  1
  Ti  Ti133  1  0.80137573  0.60164994  0.75573907  1
  Ti  Ti134  1  0.49342028  0.50234921  0.13728197  1
  Ti  Ti135  1  0.78889200  0.20050465  -0.00589773  1
  Ti  Ti136  1  0.70268837  0.10355068  0.12175664  1
  Ti  Ti137  1  0.69207785  0.90471199  0.85974785  1
  Ti  Ti138  1  0.50055384  0.49419277  0.86649527  1
  Ti  Ti139  1  0.89341663  0.69966197  0.63156111  1
  Ti  Ti140  1  0.49562710  0.51550384  0.37451902  1
  Ti  Ti141  1  -0.00732892  0.79720374  0.74136241  1
  Ti  Ti142  1  0.40225513  0.79587694  -0.00167465  1
  Ti  Ti143  1  0.71056970  0.50545491  0.62586258  1
  Ti  Ti144  1  0.89696752  0.10548607  0.11802780  1
  Ti  Ti145  1  0.29299156  0.89993317  0.63730487  1
  Ti  Ti146  1  0.59986555  -0.02143258  0.50423889  1
  Ti  Ti147  1  0.21074469  0.19944646  0.76840239  1
  Ti  Ti148  1  0.60668673  0.37844628  0.75053463  1
  Ti  Ti149  1  0.89794276  0.51031182  0.12963592  1
  Ti  Ti150  1  0.63011028  0.79096892  0.24077744  1
  Ti  Ti151  1  0.19022574  0.18395609  0.50020342  1
  Ti  Ti152  1  0.79063593  0.79112766  0.75122589  1
  Ti  Ti153  1  0.50810608  0.69007816  0.13598167  1
  Ti  Ti154  1  0.79320557  0.80891574  0.00176216  1
  Ti  Ti155  1  0.80756681  0.20446679  0.24924307  1
  Ti  Ti156  1  0.00357018  -0.00764168  0.75396857  1
  Ti  Ti157  1  0.78280882  0.62738365  0.23513575  1
  Ti  Ti158  1  0.52340618  0.69611162  0.36337766  1
  Ti  Ti159  1  0.09004024  0.09380965  0.11333990  1
  Mo  Mo160  1  0.00112697  0.59911001  0.01018468  1
  Mo  Mo161  1  0.39436027  0.79634795  0.74277895  1
  Mo  Mo162  1  0.79912327  0.81075358  0.23192406  1
  Mo  Mo163  1  0.29664550  0.09830750  0.87755183  1
  Mo  Mo164  1  0.10168201  0.69454055  0.88667560  1
  Mo  Mo165  1  0.70635305  0.89953322  0.11653478  1
  Mo  Mo166  1  0.39794740  -0.00387549  0.24687259  1
  Mo  Mo167  1  0.20583230  -0.00487232  0.50135196  1
  Mo  Mo168  1  0.59709107  0.80907379  0.51729543  1
  Mo  Mo169  1  0.09102675  0.09265812  0.37592945  1
  Mo  Mo170  1  0.41161612  0.59656139  0.25063435  1
  Mo  Mo171  1  0.70050455  0.89733538  0.37556180  1
  Mo  Mo172  1  0.69612143  0.70543662  0.11697336  1
  Mo  Mo173  1  0.71147935  0.29873679  0.88121712  1
  Mo  Mo174  1  0.59706122  0.60511282  0.24696306  1
  Mo  Mo175  1  -0.00948567  0.60632077  0.24606459  1
  Mo  Mo176  1  -0.00797003  0.79554400  0.00993454  1
  Mo  Mo177  1  0.30757385  0.49191757  0.62443187  1
  Mo  Mo178  1  0.21374264  0.60435833  0.01080078  1
  Mo  Mo179  1  0.19406256  -0.00796189  0.75874032  1
  Mo  Mo180  1  0.50020816  0.69784953  0.64686151  1
  Mo  Mo181  1  -0.00649639  0.00484596  0.23837977  1
  Mo  Mo182  1  0.49950235  0.29391882  0.61841333  1
  Mo  Mo183  1  0.70178448  0.69707197  0.64895952  1
  Mo  Mo184  1  0.69523890  0.72313443  0.37231112  1
  Mo  Mo185  1  0.59936575  -0.00435221  0.75008265  1
  Mo  Mo186  1  0.29643983  0.29071304  0.37773909  1
  Mo  Mo187  1  0.69704231  0.69649404  0.85649884  1
  Mo  Mo188  1  0.19679988  0.59907691  0.74915347  1
  Mo  Mo189  1  0.00512580  0.20907750  0.51309231  1
  Mo  Mo190  1  0.10079325  0.89629358  0.11806287  1
  Mo  Mo191  1  0.60988891  0.41198062  0.47679018  1
  Mo  Mo192  1  0.61568225  0.19570525  0.01365468  1
  Mo  Mo193  1  0.18737100  0.19842229  0.23848456  1
  Mo  Mo194  1  0.30229040  0.50297563  0.37244138  1
  Mo  Mo195  1  0.60146546  0.19860699  0.74507285  1
  Mo  Mo196  1  0.50557300  0.29759832  0.36722736  1
  Mo  Mo197  1  0.41208108  0.79566096  0.25003135  1
  Mo  Mo198  1  0.78851084  -0.00388473  0.74553085  1
  Mo  Mo199  1  0.60767229  0.40543529  0.01055863  1
