# generated using pymatgen
data_HfZrTaTiMo
_symmetry_space_group_name_H-M   'P 1'
_cell_length_a   15.19943202
_cell_length_b   15.18549623
_cell_length_c   16.79209070
_cell_angle_alpha   90.10698807
_cell_angle_beta   89.99801990
_cell_angle_gamma   90.03810225
_symmetry_Int_Tables_number   1
_chemical_formula_structural   HfZrTaTiMo
_chemical_formula_sum   'Hf40 Zr40 Ta40 Ti40 Mo40'
_cell_volume   3875.79024647
_cell_formula_units_Z   40
loop_
 _symmetry_equiv_pos_site_id
 _symmetry_equiv_pos_as_xyz
  1  'x, y, z'
loop_
 _atom_site_type_symbol
 _atom_site_label
 _atom_site_symmetry_multiplicity
 _atom_site_fract_x
 _atom_site_fract_y
 _atom_site_fract_z
 _atom_site_occupancy
  Hf  Hf0  1  0.70435333  0.32095727  0.89430581  1
  Hf  Hf1  1  0.42041977  0.79586563  0.51337085  1
  Hf  Hf2  1  0.80022988  0.40311438  0.24291144  1
  Hf  Hf3  1  0.70515634  0.29080917  0.11478131  1
  Hf  Hf4  1  0.26928310  0.49351580  0.11121097  1
  Hf  Hf5  1  0.20038262  0.00566562  0.24240775  1
  Hf  Hf6  1  0.30727913  0.09269874  0.10642917  1
  Hf  Hf7  1  0.10280704  0.27459787  0.37274362  1
  Hf  Hf8  1  0.09746197  0.50207350  0.62889808  1
  Hf  Hf9  1  0.11346724  0.89871603  0.10556996  1
  Hf  Hf10  1  0.09141360  0.70246543  0.38453426  1
  Hf  Hf11  1  0.88834860  0.48990420  0.87982088  1
  Hf  Hf12  1  0.20853056  -0.01134845  0.74657354  1
  Hf  Hf13  1  0.67673523  0.51444714  0.63173209  1
  Hf  Hf14  1  0.69336209  0.51545462  0.36461645  1
  Hf  Hf15  1  0.59431022  0.61010780  -0.02252696  1
  Hf  Hf16  1  0.81852084  0.81111240  0.74947459  1
  Hf  Hf17  1  0.80564921  0.19647405  0.25120453  1
  Hf  Hf18  1  0.88594126  0.08213286  0.63531989  1
  Hf  Hf19  1  0.48680625  0.48209385  0.88066669  1
  Hf  Hf20  1  0.78593507  0.60678332  0.76717414  1
  Hf  Hf21  1  0.20098950  0.38128794  0.51086972  1
  Hf  Hf22  1  0.89705722  0.51082023  0.11988111  1
  Hf  Hf23  1  0.59497717  0.20830969  0.49225782  1
  Hf  Hf24  1  0.70334700  0.91917294  0.63870290  1
  Hf  Hf25  1  0.59374564  0.01504138  0.75688321  1
  Hf  Hf26  1  0.93720438  0.09832986  0.36879347  1
  Hf  Hf27  1  0.88794025  0.50912047  0.63355352  1
  Hf  Hf28  1  0.30189271  0.69607462  0.11227268  1
  Hf  Hf29  1  0.59337040  0.21829503  0.76770657  1
  Hf  Hf30  1  0.58669702  0.39692333  0.23755702  1
  Hf  Hf31  1  0.90820842  0.29647623  0.89150348  1
  Hf  Hf32  1  0.00064097  0.61150830  0.75615604  1
  Hf  Hf33  1  0.78203319  0.41029410  0.49539662  1
  Hf  Hf34  1  0.70171673  0.08642102  0.11616774  1
  Hf  Hf35  1  0.80861016  0.81200339  0.51114800  1
  Hf  Hf36  1  0.31997428  0.07241763  0.61874579  1
  Hf  Hf37  1  -0.00155295  0.59713645  -0.00441116  1
  Hf  Hf38  1  0.40231813  0.59159913  0.74889906  1
  Hf  Hf39  1  0.10292736  0.08933395  0.89514603  1
  Zr  Zr40  1  0.10191354  0.90504865  0.37228211  1
  Zr  Zr41  1  0.10796880  0.29484283  0.87499718  1
  Zr  Zr42  1  0.91073999  0.51382624  0.36646127  1
  Zr  Zr43  1  0.20876931  0.79752321  0.24607145  1
  Zr  Zr44  1  0.89548101  0.70984913  0.37048458  1
  Zr  Zr45  1  0.00160207  -0.01871754  0.75443891  1
  Zr  Zr46  1  0.90646538  0.30565259  0.37074279  1
  Zr  Zr47  1  0.01254657  0.40603078  0.23968295  1
  Zr  Zr48  1  0.19392612  0.79473889  0.75134635  1
  Zr  Zr49  1  0.28693566  0.49455227  0.87952001  1
  Zr  Zr50  1  0.79538964  0.19932738  0.76663199  1
  Zr  Zr51  1  0.88454445  0.29950669  0.63156354  1
  Zr  Zr52  1  -0.00319369  0.39921216  0.50976044  1
  Zr  Zr53  1  0.68616305  0.30420839  0.36596862  1
  Zr  Zr54  1  0.20531125  0.39165245  0.74042264  1
  Zr  Zr55  1  0.47795813  0.50890263  0.11994391  1
  Zr  Zr56  1  0.69230720  0.71331237  0.12027772  1
  Zr  Zr57  1  0.57715172  0.39015941  0.01139586  1
  Zr  Zr58  1  0.79237210  0.00897462  0.48740392  1
  Zr  Zr59  1  0.52056952  0.89983320  0.11912764  1
  Zr  Zr60  1  0.19565973  0.18349759  0.52169748  1
  Zr  Zr61  1  0.41739419  0.78911649  0.25470935  1
  Zr  Zr62  1  0.31203272  0.48910424  0.62112715  1
  Zr  Zr63  1  0.20161965  0.18727446  0.73781554  1
  Zr  Zr64  1  0.68974900  0.51071629  0.12202785  1
  Zr  Zr65  1  0.30232663  0.90595647  0.89108391  1
  Zr  Zr66  1  0.79811981  0.19919705  0.48650587  1
  Zr  Zr67  1  0.31239175  0.90180492  0.39309948  1
  Zr  Zr68  1  0.67789977  0.31097899  0.62409568  1
  Zr  Zr69  1  0.40158520  0.19734357  0.24668455  1
  Zr  Zr70  1  0.80945571  0.00675296  0.25100141  1
  Zr  Zr71  1  0.00205017  -0.01177639  0.51232597  1
  Zr  Zr72  1  0.00616798  0.19376731  0.52421134  1
  Zr  Zr73  1  0.79716184  0.61462817  0.50472191  1
  Zr  Zr74  1  0.18425557  0.58834761  0.25988137  1
  Zr  Zr75  1  0.30501585  0.69201553  0.39097235  1
  Zr  Zr76  1  0.59509186  0.62108230  0.49825160  1
  Zr  Zr77  1  0.40525816  -0.00613504  0.24966754  1
  Zr  Zr78  1  0.79741264  0.81613209  0.23382660  1
  Zr  Zr79  1  0.38723653  0.39765125  0.24491730  1
  Ta  Ta80  1  0.91223445  0.89573766  0.36804673  1
  Ta  Ta81  1  0.01020654  0.19340536  0.22582442  1
  Ta  Ta82  1  0.49881691  0.70056775  0.11699664  1
  Ta  Ta83  1  0.68637575  0.72383279  0.36678388  1
  Ta  Ta84  1  0.90797733  0.90051165  0.89128605  1
  Ta  Ta85  1  0.29995045  0.69812659  0.61803416  1
  Ta  Ta86  1  0.41158572  0.58567710  0.50955243  1
  Ta  Ta87  1  0.50462923  0.11626319  0.62393368  1
  Ta  Ta88  1  0.21383011  0.21855854  0.00500309  1
  Ta  Ta89  1  0.69552043  0.89068707  0.86177076  1
  Ta  Ta90  1  0.40329166  0.19105979  0.75294070  1
  Ta  Ta91  1  0.49609925  0.09384237  0.37803949  1
  Ta  Ta92  1  0.41833652  0.79336664  -0.01014317  1
  Ta  Ta93  1  0.29026263  0.09941976  0.38301992  1
  Ta  Ta94  1  0.79182151  0.60857457  -0.01477530  1
  Ta  Ta95  1  0.10155380  0.68543912  0.11677640  1
  Ta  Ta96  1  0.40124138  0.19703744  0.49583711  1
  Ta  Ta97  1  0.10369145  0.69983162  0.61468250  1
  Ta  Ta98  1  0.90848954  0.10220674  0.89534055  1
  Ta  Ta99  1  0.90448583  0.71142169  0.88098095  1
  Ta  Ta100  1  -0.00040850  0.79793391  0.22718158  1
  Ta  Ta101  1  0.30076828  0.48666166  0.38971231  1
  Ta  Ta102  1  0.20230644  0.19947518  0.23799283  1
  Ta  Ta103  1  -0.00640164  0.39200610  0.74745316  1
  Ta  Ta104  1  0.10276446  0.10285500  0.10318333  1
  Ta  Ta105  1  0.09342665  0.49691791  0.86850418  1
  Ta  Ta106  1  0.78851364  -0.00207756  -0.01558038  1
  Ta  Ta107  1  0.49185783  0.50589869  0.37188410  1
  Ta  Ta108  1  0.31433084  0.89399118  0.10163338  1
  Ta  Ta109  1  0.00220721  0.18989631  0.74522106  1
  Ta  Ta110  1  0.20101677  0.38992321  0.25792316  1
  Ta  Ta111  1  0.79888072  0.61522028  0.24404423  1
  Ta  Ta112  1  0.48743385  0.09547377  0.88241841  1
  Ta  Ta113  1  0.58218280  0.62018004  0.25393089  1
  Ta  Ta114  1  0.60462791  0.18703311  -0.01263094  1
  Ta  Ta115  1  0.30219459  0.10626387  0.88838861  1
  Ta  Ta116  1  0.30450452  0.70152101  0.87971215  1
  Ta  Ta117  1  0.52369387  0.89328090  0.38099908  1
  Ta  Ta118  1  0.10723264  0.70038433  0.88736603  1
  Ta  Ta119  1  0.41393259  0.21196712  0.00703631  1
  Ti  Ti120  1  0.50697418  0.71182201  0.85252816  1
  Ti  Ti121  1  0.78550404  0.40219597  0.75310442  1
  Ti  Ti122  1  0.59759689  -0.00877304  -0.01735617  1
  Ti  Ti123  1  0.69509881  0.11387270  0.62779330  1
  Ti  Ti124  1  0.49034951  0.30841178  0.37602869  1
  Ti  Ti125  1  0.91643958  0.71618162  0.62943978  1
  Ti  Ti126  1  0.59845005  0.18858940  0.25224232  1
  Ti  Ti127  1  0.09417155  0.88354429  0.62272097  1
  Ti  Ti128  1  0.59196432  0.00513377  0.50390425  1
  Ti  Ti129  1  0.70599791  0.90531612  0.37516912  1
  Ti  Ti130  1  -0.00448657  0.60420187  0.50656300  1
  Ti  Ti131  1  0.32328244  0.28687828  0.62514582  1
  Ti  Ti132  1  0.01094601  0.40126713  0.00715750  1
  Ti  Ti133  1  0.29877496  0.29129827  0.38081933  1
  Ti  Ti134  1  0.50938410  0.09831194  0.11685344  1
  Ti  Ti135  1  0.80137954  0.00818882  0.77602128  1
  Ti  Ti136  1  0.39522487  0.59897788  -0.00997286  1
  Ti  Ti137  1  0.38717661  0.59791110  0.25433164  1
  Ti  Ti138  1  0.48922276  0.91723870  0.63450448  1
  Ti  Ti139  1  0.10256108  0.49045610  0.38823742  1
  Ti  Ti140  1  0.90267158  0.10576214  0.09999630  1
  Ti  Ti141  1  0.20002027  -0.01254832  0.51176140  1
  Ti  Ti142  1  0.50966681  0.69350094  0.64440673  1
  Ti  Ti143  1  0.20111648  0.60308285  0.74937457  1
  Ti  Ti144  1  0.89387411  0.91013998  0.10701028  1
  Ti  Ti145  1  0.61164247  0.81275858  0.51560736  1
  Ti  Ti146  1  -0.00524190  0.79436975  0.01310917  1
  Ti  Ti147  1  0.58730609  0.41397129  0.75774590  1
  Ti  Ti148  1  0.00354550  -0.00142677  0.22911551  1
  Ti  Ti149  1  0.79493954  0.80250829  -0.00202717  1
  Ti  Ti150  1  0.60752846  0.80245156  -0.01456358  1
  Ti  Ti151  1  0.11269801  0.30978000  0.11907157  1
  Ti  Ti152  1  0.49549179  0.89793576  0.86212742  1
  Ti  Ti153  1  0.60843771  -0.00509111  0.25282661  1
  Ti  Ti154  1  0.31808387  0.30134207  0.87440389  1
  Ti  Ti155  1  0.20023515  0.59494889  0.50127298  1
  Ti  Ti156  1  0.09906376  0.88997649  0.89718896  1
  Ti  Ti157  1  0.69677095  0.71260241  0.64371725  1
  Ti  Ti158  1  0.90330749  0.29781890  0.10761667  1
  Ti  Ti159  1  0.39368786  0.80983161  0.74037045  1
  Mo  Mo160  1  0.11184896  0.09321940  0.36857696  1
  Mo  Mo161  1  0.89721482  0.70684326  0.11351164  1
  Mo  Mo162  1  0.69148155  0.50323489  0.87699075  1
  Mo  Mo163  1  0.60194665  0.80904712  0.25078646  1
  Mo  Mo164  1  0.18817205  0.39913378  -0.00869465  1
  Mo  Mo165  1  0.59518145  0.80653630  0.73904017  1
  Mo  Mo166  1  -0.00515530  -0.00613690  0.00578801  1
  Mo  Mo167  1  0.09306024  0.49842339  0.12387276  1
  Mo  Mo168  1  0.40919297  0.38053836  0.74910027  1
  Mo  Mo169  1  0.20644363  0.00219202  -0.00116623  1
  Mo  Mo170  1  0.41443052  0.00017790  0.49550329  1
  Mo  Mo171  1  0.49336867  0.30808108  0.62442688  1
  Mo  Mo172  1  0.20137082  0.79680408  0.50965602  1
  Mo  Mo173  1  0.30123066  0.88427932  0.61613790  1
  Mo  Mo174  1  0.00847530  0.20706697  0.01452067  1
  Mo  Mo175  1  0.50379509  0.28134428  0.12941336  1
  Mo  Mo176  1  0.20551088  0.79127208  -0.00158510  1
  Mo  Mo177  1  0.29735335  0.29764263  0.12429789  1
  Mo  Mo178  1  0.49237543  0.29285857  0.87835360  1
  Mo  Mo179  1  0.70122970  0.71336840  0.87140723  1
  Mo  Mo180  1  0.10156889  0.08291510  0.63763898  1
  Mo  Mo181  1  0.40031165  0.00075170  0.75402952  1
  Mo  Mo182  1  0.37891690  0.38440464  0.00914686  1
  Mo  Mo183  1  0.01083675  0.79714503  0.76027577  1
  Mo  Mo184  1  0.59477908  0.60273991  0.76673228  1
  Mo  Mo185  1  0.67784290  0.09042098  0.36804566  1
  Mo  Mo186  1  0.40656766  0.38885194  0.49337582  1
  Mo  Mo187  1  0.50047584  0.70080617  0.38079815  1
  Mo  Mo188  1  0.69832604  0.09819917  0.88201776  1
  Mo  Mo189  1  0.50324371  0.49502015  0.62887550  1
  Mo  Mo190  1  0.41626941  0.00072539  -0.00122616  1
  Mo  Mo191  1  0.00079000  0.79523364  0.50206643  1
  Mo  Mo192  1  0.80288712  0.40987953  0.01107128  1
  Mo  Mo193  1  0.89858411  0.89804700  0.63001120  1
  Mo  Mo194  1  0.80173914  0.19824600  -0.00342562  1
  Mo  Mo195  1  0.19359045  0.60059584  -0.00995745  1
  Mo  Mo196  1  0.70000196  0.90944385  0.11024202  1
  Mo  Mo197  1  -0.00640163  0.61640831  0.23670780  1
  Mo  Mo198  1  0.57586804  0.41878929  0.49422735  1
  Mo  Mo199  1  0.09765239  0.29623680  0.64213958  1
