# generated using pymatgen
data_HfZrTaTiMo
_symmetry_space_group_name_H-M   'P 1'
_cell_length_a   15.19895286
_cell_length_b   15.21899302
_cell_length_c   16.84733429
_cell_angle_alpha   89.97518525
_cell_angle_beta   89.98090475
_cell_angle_gamma   89.87826834
_symmetry_Int_Tables_number   1
_chemical_formula_structural   HfZrTaTiMo
_chemical_formula_sum   'Hf40 Zr40 Ta40 Ti40 Mo40'
_cell_volume   3896.99397554
_cell_formula_units_Z   40
loop_
 _symmetry_equiv_pos_site_id
 _symmetry_equiv_pos_as_xyz
  1  'x, y, z'
loop_
 _atom_site_type_symbol
 _atom_site_label
 _atom_site_symmetry_multiplicity
 _atom_site_fract_x
 _atom_site_fract_y
 _atom_site_fract_z
 _atom_site_occupancy
  Hf  Hf0  1  0.29940833  0.91714408  0.13844853  1
  Hf  Hf1  1  0.81090275  0.79356016  0.25775584  1
  Hf  Hf2  1  0.08434471  0.70528996  0.13125417  1
  Hf  Hf3  1  0.09651044  0.10928921  0.35735959  1
  Hf  Hf4  1  0.28113719  0.70204558  0.86582470  1
  Hf  Hf5  1  0.90882173  0.49520793  0.37498245  1
  Hf  Hf6  1  0.79030066  -0.00350351  0.24434991  1
  Hf  Hf7  1  0.19599580  0.38617049  0.74363780  1
  Hf  Hf8  1  0.18788266  0.42000917  0.50494785  1
  Hf  Hf9  1  0.89945689  0.10776881  0.63782988  1
  Hf  Hf10  1  0.78491810  0.60703524  -0.00525378  1
  Hf  Hf11  1  0.09265041  0.70028822  0.36884995  1
  Hf  Hf12  1  0.90952027  0.91155605  0.62443330  1
  Hf  Hf13  1  0.21423632  0.19412063  0.02171179  1
  Hf  Hf14  1  0.29474164  0.69553564  0.36576716  1
  Hf  Hf15  1  0.30179018  0.71277650  0.62234576  1
  Hf  Hf16  1  0.70319836  0.70389037  0.61867092  1
  Hf  Hf17  1  0.81062964  0.39646307  0.00021515  1
  Hf  Hf18  1  0.50273099  0.89588346  0.60890430  1
  Hf  Hf19  1  0.38927382  0.00435930  0.74901772  1
  Hf  Hf20  1  0.12346421  0.90966992  0.87319921  1
  Hf  Hf21  1  0.49594705  0.89167340  0.11097751  1
  Hf  Hf22  1  0.59969351  0.40835491  0.00580913  1
  Hf  Hf23  1  0.71238615  0.28776527  0.12900886  1
  Hf  Hf24  1  0.29740992  0.32593630  0.35235230  1
  Hf  Hf25  1  0.30044676  0.91488756  0.60608645  1
  Hf  Hf26  1  0.90660367  0.69901057  0.62365369  1
  Hf  Hf27  1  0.60838720  0.79374795  0.25508066  1
  Hf  Hf28  1  0.09597886  0.31401522  0.35929512  1
  Hf  Hf29  1  0.31018532  0.11488117  0.35741747  1
  Hf  Hf30  1  0.59240444  0.40167834  0.49379472  1
  Hf  Hf31  1  0.31146604  0.90372272  0.88791265  1
  Hf  Hf32  1  0.80336628  0.39539085  0.75435261  1
  Hf  Hf33  1  0.50820584  0.69134448  0.61634804  1
  Hf  Hf34  1  0.60818717  0.80512537  0.75088907  1
  Hf  Hf35  1  0.50285634  0.29568966  0.14150535  1
  Hf  Hf36  1  0.38271955  0.20143092  0.74678892  1
  Hf  Hf37  1  0.20800215  0.21809135  0.49276705  1
  Hf  Hf38  1  0.59171614  0.20312707  0.76388549  1
  Hf  Hf39  1  0.29988291  0.48964218  0.87192043  1
  Zr  Zr40  1  0.51017046  0.09362196  0.62216500  1
  Zr  Zr41  1  0.59717629  0.18100539  0.49142460  1
  Zr  Zr42  1  0.69613327  0.51689222  0.13584595  1
  Zr  Zr43  1  0.70470779  0.29875659  0.36832578  1
  Zr  Zr44  1  0.11586539  0.68568293  0.63252322  1
  Zr  Zr45  1  0.10606664  0.09354624  0.61947509  1
  Zr  Zr46  1  0.40596717  0.60386220  0.00462952  1
  Zr  Zr47  1  0.60642449  0.17521429  0.25188828  1
  Zr  Zr48  1  0.09643305  0.90920109  0.37641171  1
  Zr  Zr49  1  0.39645391  0.39059544  0.01302452  1
  Zr  Zr50  1  0.00510417  0.21115703  0.00820433  1
  Zr  Zr51  1  0.69041780  0.50775388  0.86933195  1
  Zr  Zr52  1  0.19743079  0.60058122  0.01062494  1
  Zr  Zr53  1  0.01385476  0.79583559  0.76509966  1
  Zr  Zr54  1  0.40320123  0.80673315  0.74759188  1
  Zr  Zr55  1  0.80533252  0.20424187  0.50377656  1
  Zr  Zr56  1  -0.00753847  0.38703391  0.50656127  1
  Zr  Zr57  1  0.39873456  0.58735331  0.49470976  1
  Zr  Zr58  1  0.80960124  0.39988192  0.24318612  1
  Zr  Zr59  1  -0.01728942  0.60713181  0.24876140  1
  Zr  Zr60  1  0.01115041  0.79863189  0.50519809  1
  Zr  Zr61  1  0.80777543  0.80708916  0.76285169  1
  Zr  Zr62  1  0.90359238  0.28448273  0.36170943  1
  Zr  Zr63  1  0.60801329  0.76346638  0.00282050  1
  Zr  Zr64  1  0.59051938  0.40222856  0.74377004  1
  Zr  Zr65  1  0.50776780  0.89857502  0.90217911  1
  Zr  Zr66  1  0.48864870  0.28627558  0.36740737  1
  Zr  Zr67  1  0.50143995  0.68402447  0.86789616  1
  Zr  Zr68  1  0.47372784  0.10984247  0.89336599  1
  Zr  Zr69  1  0.10385473  0.49835094  0.87781985  1
  Zr  Zr70  1  0.00016808  0.80026474  -0.01935072  1
  Zr  Zr71  1  0.09056577  0.90470398  0.12347621  1
  Zr  Zr72  1  0.11470392  0.89776493  0.63058996  1
  Zr  Zr73  1  0.79940234  0.00156883  0.76717248  1
  Zr  Zr74  1  0.69349336  0.08791306  0.10353388  1
  Zr  Zr75  1  0.70830750  0.88441046  0.10853951  1
  Zr  Zr76  1  0.40534807  0.58859128  0.74403685  1
  Zr  Zr77  1  0.19449217  0.80636262  0.24920716  1
  Zr  Zr78  1  0.60050286  0.00078735  0.76394942  1
  Zr  Zr79  1  0.69577115  0.28976805  0.62587094  1
  Ta  Ta80  1  0.01426204  0.01404699  0.76741828  1
  Ta  Ta81  1  0.90759313  0.10931524  0.88050403  1
  Ta  Ta82  1  0.80557784  0.59362564  0.50265145  1
  Ta  Ta83  1  0.31084013  0.70791998  0.13637041  1
  Ta  Ta84  1  0.00331027  0.58757640  0.75167561  1
  Ta  Ta85  1  0.89552409  0.09653483  0.11373188  1
  Ta  Ta86  1  0.79719251  0.20203540  0.77065762  1
  Ta  Ta87  1  0.69319304  0.09954377  0.89642572  1
  Ta  Ta88  1  0.39687118  0.80213295  0.48134699  1
  Ta  Ta89  1  -0.01590687  -0.00265000  0.24466971  1
  Ta  Ta90  1  0.30550323  0.91243714  0.36877832  1
  Ta  Ta91  1  0.70066084  0.90009996  0.38567646  1
  Ta  Ta92  1  0.89719831  0.69991202  0.39018856  1
  Ta  Ta93  1  0.00561226  0.40536929  0.01267314  1
  Ta  Ta94  1  0.21010580  0.80275046  0.01055677  1
  Ta  Ta95  1  0.87813311  0.70522027  0.11713843  1
  Ta  Ta96  1  0.30300780  0.28965511  0.88256065  1
  Ta  Ta97  1  0.70138805  0.91445624  0.61608259  1
  Ta  Ta98  1  0.48801040  0.09223019  0.11919928  1
  Ta  Ta99  1  0.70541084  0.69589374  0.38733193  1
  Ta  Ta100  1  0.80097991  0.00922658  0.50335079  1
  Ta  Ta101  1  0.90324387  0.49500225  0.87571991  1
  Ta  Ta102  1  0.38153448  0.38973434  0.50581992  1
  Ta  Ta103  1  0.28578777  0.50485586  0.63195315  1
  Ta  Ta104  1  -0.00963158  0.59944604  -0.00002375  1
  Ta  Ta105  1  0.58459329  0.21011964  -0.00361082  1
  Ta  Ta106  1  0.90089029  0.49861143  0.62688710  1
  Ta  Ta107  1  0.89992589  0.50948016  0.12180863  1
  Ta  Ta108  1  0.41307440  0.80739298  0.26169352  1
  Ta  Ta109  1  0.19841395  0.39219891  0.02193167  1
  Ta  Ta110  1  0.70723390  0.08876362  0.37304497  1
  Ta  Ta111  1  0.00383744  0.18721642  0.49757615  1
  Ta  Ta112  1  0.39466443  0.38783920  0.74128382  1
  Ta  Ta113  1  0.01041889  0.58510315  0.50038873  1
  Ta  Ta114  1  0.19692975  0.21358735  0.23216872  1
  Ta  Ta115  1  0.49422003  0.50445203  0.14045115  1
  Ta  Ta116  1  0.80203462  0.59738792  0.74504921  1
  Ta  Ta117  1  0.89837703  0.90523154  0.38488253  1
  Ta  Ta118  1  0.10347342  0.09172318  0.13624585  1
  Ta  Ta119  1  0.48274223  0.29186646  0.61310213  1
  Ti  Ti120  1  0.80082235  0.80504442  0.50098172  1
  Ti  Ti121  1  0.49643865  0.49243542  0.61988485  1
  Ti  Ti122  1  -0.00051317  0.21027258  0.76324526  1
  Ti  Ti123  1  0.30646556  0.11261647  0.60769061  1
  Ti  Ti124  1  0.80470925  0.20407697  -0.01186659  1
  Ti  Ti125  1  0.48150033  0.48986717  0.36731574  1
  Ti  Ti126  1  0.80940972  -0.00695495  -0.01687464  1
  Ti  Ti127  1  0.37507054  0.01582104  0.01100022  1
  Ti  Ti128  1  0.50718781  0.69119640  0.13580586  1
  Ti  Ti129  1  0.09531247  0.29139921  0.62620021  1
  Ti  Ti130  1  -0.00053846  0.39544382  0.74946993  1
  Ti  Ti131  1  0.70721773  0.50332876  0.37276991  1
  Ti  Ti132  1  0.00874001  0.00917379  -0.01008459  1
  Ti  Ti133  1  0.10488849  0.29568201  0.88131845  1
  Ti  Ti134  1  0.69577895  0.50617415  0.62390578  1
  Ti  Ti135  1  0.90148996  0.89804569  0.11400960  1
  Ti  Ti136  1  0.27298862  0.09626974  0.88018348  1
  Ti  Ti137  1  0.90466480  0.68569819  0.86868945  1
  Ti  Ti138  1  0.69413632  0.30176715  0.88151448  1
  Ti  Ti139  1  0.12114603  0.50783245  0.35404630  1
  Ti  Ti140  1  0.60444626  0.59347881  0.49050192  1
  Ti  Ti141  1  0.10228734  0.50760866  0.13041874  1
  Ti  Ti142  1  0.59857383  0.40361914  0.25796470  1
  Ti  Ti143  1  0.58569900  -0.01695969  0.25470092  1
  Ti  Ti144  1  0.90074425  0.29870220  0.63254145  1
  Ti  Ti145  1  0.19082341  0.18610280  0.75033628  1
  Ti  Ti146  1  -0.01226552  0.20048835  0.22781798  1
  Ti  Ti147  1  0.20068478  0.60822694  0.49543009  1
  Ti  Ti148  1  0.39280682  0.59623400  0.25270795  1
  Ti  Ti149  1  0.69843320  0.69573798  0.86039876  1
  Ti  Ti150  1  0.49647581  0.48548960  0.87280486  1
  Ti  Ti151  1  0.20108207  0.00910086  0.48513316  1
  Ti  Ti152  1  0.50208795  0.69607658  0.37714666  1
  Ti  Ti153  1  0.00663740  0.39795991  0.22673084  1
  Ti  Ti154  1  0.90138224  0.09336644  0.37291203  1
  Ti  Ti155  1  0.80709860  0.80104255  -0.02524609  1
  Ti  Ti156  1  0.79502983  0.40428889  0.50526264  1
  Ti  Ti157  1  0.59959282  0.59959566  0.26528228  1
  Ti  Ti158  1  0.60059673  0.80051217  0.49044011  1
  Ti  Ti159  1  0.41592610  0.01189128  0.48218650  1
  Mo  Mo160  1  0.20055172  0.60355382  0.23702368  1
  Mo  Mo161  1  0.10323212  0.11201309  0.87832235  1
  Mo  Mo162  1  0.09794236  0.30418842  0.12935187  1
  Mo  Mo163  1  0.09146676  0.49457516  0.63198102  1
  Mo  Mo164  1  0.21160397  0.01156068  0.74744981  1
  Mo  Mo165  1  0.89871559  0.29910919  0.12569814  1
  Mo  Mo166  1  0.61068178  -0.00722557  0.49506521  1
  Mo  Mo167  1  0.70305586  0.89983891  0.89271998  1
  Mo  Mo168  1  0.59542075  0.00223747  -0.00209820  1
  Mo  Mo169  1  0.19967037  0.41452276  0.22785421  1
  Mo  Mo170  1  0.21334727  0.80814922  0.75131068  1
  Mo  Mo171  1  0.38974966  0.79398924  0.01116720  1
  Mo  Mo172  1  0.69869294  0.69358268  0.13736625  1
  Mo  Mo173  1  0.39541632  0.20036844  0.49668178  1
  Mo  Mo174  1  -0.01634001  0.81224011  0.25067338  1
  Mo  Mo175  1  -0.00472019  0.00921301  0.49654120  1
  Mo  Mo176  1  0.40419945  0.41113298  0.24433366  1
  Mo  Mo177  1  0.70775837  0.09676403  0.63267732  1
  Mo  Mo178  1  0.59030597  0.58706849  0.00417487  1
  Mo  Mo179  1  0.19370446  0.00310007  0.00816774  1
  Mo  Mo180  1  0.19675334  0.59628477  0.74956256  1
  Mo  Mo181  1  0.19593432  0.01045962  0.25755366  1
  Mo  Mo182  1  0.40143179  0.19867627  0.23792648  1
  Mo  Mo183  1  0.21453148  0.80495972  0.48527327  1
  Mo  Mo184  1  0.50145641  0.08326904  0.36865172  1
  Mo  Mo185  1  0.60906548  0.59607088  0.73494193  1
  Mo  Mo186  1  0.30051849  0.51032695  0.13210186  1
  Mo  Mo187  1  0.81167101  0.17659629  0.24322539  1
  Mo  Mo188  1  0.41272525  -0.00102889  0.25572901  1
  Mo  Mo189  1  0.50434967  0.89153742  0.38215865  1
  Mo  Mo190  1  0.39437399  0.20376693  0.01474149  1
  Mo  Mo191  1  0.29345172  0.50389309  0.37050302  1
  Mo  Mo192  1  0.30257460  0.10099750  0.14679698  1
  Mo  Mo193  1  0.79173561  0.60248621  0.26604800  1
  Mo  Mo194  1  0.09938019  0.69389471  0.87283988  1
  Mo  Mo195  1  0.30415609  0.30903058  0.14388490  1
  Mo  Mo196  1  0.29078277  0.29914034  0.62286188  1
  Mo  Mo197  1  0.90944823  0.30569484  0.87352850  1
  Mo  Mo198  1  0.48716636  0.30700872  0.87733371  1
  Mo  Mo199  1  0.91149364  0.91059442  0.87813275  1
