# generated using pymatgen
data_HfZrTaTiMo
_symmetry_space_group_name_H-M   'P 1'
_cell_length_a   15.22195449
_cell_length_b   15.21641611
_cell_length_c   16.83798383
_cell_angle_alpha   89.98687334
_cell_angle_beta   90.01471375
_cell_angle_gamma   90.06240371
_symmetry_Int_Tables_number   1
_chemical_formula_structural   HfZrTaTiMo
_chemical_formula_sum   'Hf40 Zr40 Ta40 Ti40 Mo40'
_cell_volume   3900.07177898
_cell_formula_units_Z   40
loop_
 _symmetry_equiv_pos_site_id
 _symmetry_equiv_pos_as_xyz
  1  'x, y, z'
loop_
 _atom_site_type_symbol
 _atom_site_label
 _atom_site_symmetry_multiplicity
 _atom_site_fract_x
 _atom_site_fract_y
 _atom_site_fract_z
 _atom_site_occupancy
  Hf  Hf0  1  0.70760629  0.69666193  0.62841731  1
  Hf  Hf1  1  0.59630708  0.79780404  0.75427609  1
  Hf  Hf2  1  0.90835204  0.70295530  0.88588118  1
  Hf  Hf3  1  0.90090535  0.30673761  0.85949746  1
  Hf  Hf4  1  0.59676429  0.59022335  0.76011739  1
  Hf  Hf5  1  0.91050643  0.88966024  0.11147207  1
  Hf  Hf6  1  0.19550038  -0.02710297  0.73845914  1
  Hf  Hf7  1  0.29611462  0.30812820  0.36942082  1
  Hf  Hf8  1  0.37934430  0.00792476  0.25959782  1
  Hf  Hf9  1  0.30621097  0.50371188  0.87565155  1
  Hf  Hf10  1  0.19087725  0.38979095  -0.01128148  1
  Hf  Hf11  1  0.29768062  0.89671702  0.87604909  1
  Hf  Hf12  1  0.00764485  0.02486711  0.00349402  1
  Hf  Hf13  1  0.49658846  0.69327654  0.35842215  1
  Hf  Hf14  1  0.58562104  0.20663499  0.01072538  1
  Hf  Hf15  1  0.50290097  0.90199400  0.35701444  1
  Hf  Hf16  1  0.08538167  0.29552931  0.11942624  1
  Hf  Hf17  1  0.08542347  0.10532100  0.38449831  1
  Hf  Hf18  1  0.50196424  0.11143287  0.63343048  1
  Hf  Hf19  1  0.00463764  0.81458225  0.74632085  1
  Hf  Hf20  1  0.49820483  0.89831935  0.61645841  1
  Hf  Hf21  1  0.29635894  0.29869157  0.85519478  1
  Hf  Hf22  1  0.29782659  0.10034581  0.63159783  1
  Hf  Hf23  1  0.88662396  0.09974462  0.36945851  1
  Hf  Hf24  1  0.80249733  0.40380071  0.50442555  1
  Hf  Hf25  1  0.59851636  0.40259197  0.49571286  1
  Hf  Hf26  1  0.80686948  0.57813041  0.76385619  1
  Hf  Hf27  1  0.80803489  -0.01187272  0.23388466  1
  Hf  Hf28  1  0.70572409  0.30566889  0.89073890  1
  Hf  Hf29  1  0.09089418  0.09906478  0.84821628  1
  Hf  Hf30  1  0.19192888  0.79960297  0.00065270  1
  Hf  Hf31  1  0.39803212  0.79497643  0.00706337  1
  Hf  Hf32  1  0.29665221  0.09816142  0.85541506  1
  Hf  Hf33  1  0.08551018  0.08889507  0.63542482  1
  Hf  Hf34  1  -0.02500795  0.59379237  0.24191207  1
  Hf  Hf35  1  0.10340428  0.90553209  0.12621402  1
  Hf  Hf36  1  0.69565229  0.29673154  0.63060227  1
  Hf  Hf37  1  0.59401613  0.00100219  0.02524782  1
  Hf  Hf38  1  0.29545443  0.90228379  0.13792380  1
  Hf  Hf39  1  0.48633217  0.11830499  0.15261536  1
  Zr  Zr40  1  0.30864284  0.49494843  0.11637146  1
  Zr  Zr41  1  0.82062557  0.41260049  0.24710344  1
  Zr  Zr42  1  0.68578658  0.10598454  0.34497666  1
  Zr  Zr43  1  0.08377540  0.68220247  0.37836401  1
  Zr  Zr44  1  0.70034331  0.10438736  0.88834930  1
  Zr  Zr45  1  0.38476742  0.19687086  -0.00190463  1
  Zr  Zr46  1  0.50854649  0.50329444  0.36660951  1
  Zr  Zr47  1  0.70190208  0.89845479  0.88437772  1
  Zr  Zr48  1  0.39820768  0.00329227  0.01319868  1
  Zr  Zr49  1  0.89806210  0.68233279  0.10042703  1
  Zr  Zr50  1  0.59470279  0.80318279  0.00954056  1
  Zr  Zr51  1  -0.00688019  0.80797534  0.26142981  1
  Zr  Zr52  1  0.21750887  0.39442667  0.51677871  1
  Zr  Zr53  1  0.91574774  0.51589953  0.39372048  1
  Zr  Zr54  1  0.71002589  0.12047320  0.14320987  1
  Zr  Zr55  1  0.91627850  0.30485421  0.37878214  1
  Zr  Zr56  1  0.81275306  -0.00540681  0.75178612  1
  Zr  Zr57  1  0.39568577  0.22129944  0.49963579  1
  Zr  Zr58  1  0.11054804  0.47449642  0.38247763  1
  Zr  Zr59  1  0.49741140  0.31970192  0.63577272  1
  Zr  Zr60  1  -0.01038509  0.19896141  0.51704212  1
  Zr  Zr61  1  0.29376548  0.69834973  0.14216349  1
  Zr  Zr62  1  0.71075075  0.31701496  0.11578864  1
  Zr  Zr63  1  0.32867478  0.50594201  0.62849799  1
  Zr  Zr64  1  -0.01671733  0.77738060  0.49970316  1
  Zr  Zr65  1  0.39105055  0.79901232  0.74495071  1
  Zr  Zr66  1  0.01251742  0.39837583  0.52902299  1
  Zr  Zr67  1  0.29502485  0.27970451  0.12969960  1
  Zr  Zr68  1  0.59804443  0.20016640  0.49156744  1
  Zr  Zr69  1  0.40341545  0.00600924  0.49036454  1
  Zr  Zr70  1  0.60758351  0.00726577  0.49285853  1
  Zr  Zr71  1  0.49319630  0.68619853  0.14257490  1
  Zr  Zr72  1  0.18899535  0.58803070  0.24882024  1
  Zr  Zr73  1  0.60821509  0.00209005  0.74784327  1
  Zr  Zr74  1  0.19435537  0.59681464  0.00274207  1
  Zr  Zr75  1  0.80390249  0.79433008  0.75683668  1
  Zr  Zr76  1  0.49021897  0.68399191  0.61690938  1
  Zr  Zr77  1  0.71536862  0.88951734  0.36870814  1
  Zr  Zr78  1  0.60145320  0.79467665  0.49179496  1
  Zr  Zr79  1  0.80221865  0.01065667  0.01684869  1
  Ta  Ta80  1  0.20651042  0.59962855  0.49967767  1
  Ta  Ta81  1  0.19414134  0.00169584  0.50031251  1
  Ta  Ta82  1  0.50098196  0.30113664  0.87181304  1
  Ta  Ta83  1  0.50419794  0.30451024  0.35980576  1
  Ta  Ta84  1  0.18084248  0.19068254  -0.01188932  1
  Ta  Ta85  1  0.28625090  0.10760207  0.38460443  1
  Ta  Ta86  1  0.29834493  0.69638019  0.87700205  1
  Ta  Ta87  1  0.29212727  0.89598935  0.38202577  1
  Ta  Ta88  1  0.09534407  0.29853226  0.84606720  1
  Ta  Ta89  1  0.49248217  0.69574337  0.88314792  1
  Ta  Ta90  1  0.08722312  0.70596744  0.12636525  1
  Ta  Ta91  1  0.79691094  0.78050725  0.23111216  1
  Ta  Ta92  1  0.41023359  0.39680885  0.23875176  1
  Ta  Ta93  1  0.49607559  0.09940677  0.87047480  1
  Ta  Ta94  1  0.10459864  0.69727479  0.86701707  1
  Ta  Ta95  1  0.69779260  0.68846149  0.11100066  1
  Ta  Ta96  1  0.18575428  -0.00017605  0.26698473  1
  Ta  Ta97  1  -0.01488770  0.41696542  0.73760483  1
  Ta  Ta98  1  0.90254222  0.90224306  0.61143320  1
  Ta  Ta99  1  0.42193717  0.41443933  0.76202001  1
  Ta  Ta100  1  0.70537151  0.30803359  0.36158749  1
  Ta  Ta101  1  0.40453834  -0.00620272  0.74594761  1
  Ta  Ta102  1  0.70819314  0.89895546  0.61628278  1
  Ta  Ta103  1  0.60914322  0.59614790  0.50052960  1
  Ta  Ta104  1  0.30321308  0.30082170  0.65271564  1
  Ta  Ta105  1  0.71442981  0.51993205  0.37338233  1
  Ta  Ta106  1  0.11812201  0.50904079  0.64537311  1
  Ta  Ta107  1  0.19229859  0.80378513  0.26652416  1
  Ta  Ta108  1  0.61438551  0.41818310  0.24131518  1
  Ta  Ta109  1  0.86255560  0.70152364  0.37022829  1
  Ta  Ta110  1  0.31582599  0.50482514  0.37592053  1
  Ta  Ta111  1  0.19104631  0.20509130  0.51183282  1
  Ta  Ta112  1  0.09890677  0.89154798  0.60568459  1
  Ta  Ta113  1  0.51308521  0.49639379  0.11100048  1
  Ta  Ta114  1  0.49806003  0.89468311  0.15378940  1
  Ta  Ta115  1  0.79085301  0.19878681  0.75000508  1
  Ta  Ta116  1  0.49724361  0.90504161  0.87662817  1
  Ta  Ta117  1  0.90186968  0.10998738  0.86971990  1
  Ta  Ta118  1  0.78999118  0.20035392  0.49828275  1
  Ta  Ta119  1  0.09911065  0.50003568  0.85162989  1
  Ti  Ti120  1  0.10516368  0.29629161  0.65538700  1
  Ti  Ti121  1  0.10249395  0.69810955  0.62162094  1
  Ti  Ti122  1  0.61415813  0.79380241  0.24445793  1
  Ti  Ti123  1  -0.00368464  0.39178345  -0.01316620  1
  Ti  Ti124  1  0.70402480  0.49797976  0.62662127  1
  Ti  Ti125  1  0.80332402  0.00343185  0.49982568  1
  Ti  Ti126  1  0.09093094  0.49927507  0.12040466  1
  Ti  Ti127  1  0.49308091  0.11520106  0.35228388  1
  Ti  Ti128  1  0.89016988  0.09711153  0.62897625  1
  Ti  Ti129  1  0.19217467  0.19488030  0.25731921  1
  Ti  Ti130  1  0.09452267  0.89865684  0.88055135  1
  Ti  Ti131  1  0.30089755  0.69251053  0.36535483  1
  Ti  Ti132  1  0.09232101  0.90313403  0.39286493  1
  Ti  Ti133  1  0.19940108  0.78385248  0.74408778  1
  Ti  Ti134  1  0.90829077  0.91026941  0.89064433  1
  Ti  Ti135  1  0.39212883  0.78599770  0.48912074  1
  Ti  Ti136  1  0.90188137  0.90126877  0.38621105  1
  Ti  Ti137  1  0.61753920  0.40556431  0.76237511  1
  Ti  Ti138  1  0.51157237  0.49969377  0.89728542  1
  Ti  Ti139  1  0.69515218  0.68579705  0.89176785  1
  Ti  Ti140  1  0.40911094  0.39009139  0.00045784  1
  Ti  Ti141  1  0.20060862  0.39293064  0.24461016  1
  Ti  Ti142  1  -0.00117982  0.61189518  0.73961816  1
  Ti  Ti143  1  0.00543461  0.58673280  -0.01218324  1
  Ti  Ti144  1  0.01348212  0.39753737  0.24779485  1
  Ti  Ti145  1  0.29666481  0.89092397  0.60645758  1
  Ti  Ti146  1  0.59761305  0.20503960  0.76030226  1
  Ti  Ti147  1  0.79664348  0.79912491  0.00186344  1
  Ti  Ti148  1  0.81319806  0.61475488  0.51171170  1
  Ti  Ti149  1  0.70370986  0.09878312  0.62343226  1
  Ti  Ti150  1  0.40260452  0.60590824  0.75674954  1
  Ti  Ti151  1  0.70644375  0.50897476  0.09715813  1
  Ti  Ti152  1  0.10741252  0.10568316  0.13046394  1
  Ti  Ti153  1  0.88952245  0.30026257  0.64047096  1
  Ti  Ti154  1  0.19831668  0.79111581  0.48872906  1
  Ti  Ti155  1  0.00128653  0.00709305  0.24578650  1
  Ti  Ti156  1  0.29241554  0.69667289  0.61609516  1
  Ti  Ti157  1  0.20405183  0.00827550  -0.00197883  1
  Ti  Ti158  1  -0.00517222  0.20484814  0.25037631  1
  Ti  Ti159  1  0.89861580  0.48387334  0.10553521  1
  Mo  Mo160  1  0.89870766  0.50915077  0.62289916  1
  Mo  Mo161  1  -0.00920945  -0.01146517  0.74986111  1
  Mo  Mo162  1  0.61542248  0.59789555  0.23955455  1
  Mo  Mo163  1  0.59676388  0.60265154  -0.00482844  1
  Mo  Mo164  1  0.40960735  0.20010634  0.75473510  1
  Mo  Mo165  1  0.83354767  0.20689548  0.00352964  1
  Mo  Mo166  1  0.01091242  0.59119100  0.52904810  1
  Mo  Mo167  1  0.40236020  0.59844087  -0.00533032  1
  Mo  Mo168  1  0.40051456  0.59944733  0.49338832  1
  Mo  Mo169  1  0.91912702  0.11913366  0.13371411  1
  Mo  Mo170  1  0.70327110  0.49552765  0.89081433  1
  Mo  Mo171  1  0.19839295  0.19430905  0.74103942  1
  Mo  Mo172  1  0.69206432  0.69289867  0.37161229  1
  Mo  Mo173  1  0.20723813  0.61115657  0.74857809  1
  Mo  Mo174  1  0.80357245  0.59163252  -0.01890952  1
  Mo  Mo175  1  0.39969263  0.58554171  0.24813524  1
  Mo  Mo176  1  0.59759236  -0.00352127  0.23717124  1
  Mo  Mo177  1  -0.00677710  -0.00486196  0.50023135  1
  Mo  Mo178  1  0.90337856  0.70072003  0.63383914  1
  Mo  Mo179  1  0.00779073  0.80084520  -0.00877516  1
  Mo  Mo180  1  0.52033289  0.50322594  0.62853641  1
  Mo  Mo181  1  0.10731703  0.29022692  0.37464798  1
  Mo  Mo182  1  0.38402974  0.20667776  0.26199649  1
  Mo  Mo183  1  0.27555292  0.09430921  0.13329257  1
  Mo  Mo184  1  0.80709123  0.21280451  0.25326204  1
  Mo  Mo185  1  -0.01517853  0.19972230  0.73469157  1
  Mo  Mo186  1  0.79497824  0.80124989  0.50412775  1
  Mo  Mo187  1  0.40665666  0.40485318  0.49826278  1
  Mo  Mo188  1  0.00713293  0.20930426  -0.01148855  1
  Mo  Mo189  1  0.78656047  0.59309301  0.23729208  1
  Mo  Mo190  1  0.20440552  0.40748010  0.74898161  1
  Mo  Mo191  1  0.70049488  0.88926039  0.13009749  1
  Mo  Mo192  1  0.59749033  0.39984805  -0.00213145  1
  Mo  Mo193  1  0.49787237  0.31093717  0.13128934  1
  Mo  Mo194  1  0.59147890  0.22989424  0.24345412  1
  Mo  Mo195  1  0.81269361  0.40392571  -0.00368790  1
  Mo  Mo196  1  0.90407387  0.29564667  0.12266716  1
  Mo  Mo197  1  0.79272670  0.40013012  0.74508893  1
  Mo  Mo198  1  0.38666814  0.79921533  0.26366505  1
  Mo  Mo199  1  0.91373093  0.49822099  0.87524034  1
