# generated using pymatgen
data_HfZrTaTiMo
_symmetry_space_group_name_H-M   'P 1'
_cell_length_a   15.19775729
_cell_length_b   15.19691104
_cell_length_c   16.80040421
_cell_angle_alpha   89.98808129
_cell_angle_beta   90.01077126
_cell_angle_gamma   89.96723859
_symmetry_Int_Tables_number   1
_chemical_formula_structural   HfZrTaTiMo
_chemical_formula_sum   'Hf40 Zr40 Ta40 Ti40 Mo40'
_cell_volume   3880.20318889
_cell_formula_units_Z   40
loop_
 _symmetry_equiv_pos_site_id
 _symmetry_equiv_pos_as_xyz
  1  'x, y, z'
loop_
 _atom_site_type_symbol
 _atom_site_label
 _atom_site_symmetry_multiplicity
 _atom_site_fract_x
 _atom_site_fract_y
 _atom_site_fract_z
 _atom_site_occupancy
  Hf  Hf0  1  0.47898080  0.30509596  0.38223952  1
  Hf  Hf1  1  0.89987525  0.48264507  0.61958189  1
  Hf  Hf2  1  0.59681310  0.19906773  0.49735997  1
  Hf  Hf3  1  0.00670161  0.60894009  0.73171737  1
  Hf  Hf4  1  0.79966437  0.80374440  0.26359382  1
  Hf  Hf5  1  0.11278288  0.09549192  0.11992928  1
  Hf  Hf6  1  0.49220571  0.30987616  0.61617548  1
  Hf  Hf7  1  0.17557767  0.20942006  0.25297535  1
  Hf  Hf8  1  0.88674535  0.27490080  0.11902874  1
  Hf  Hf9  1  0.49349152  0.50262689  0.13954332  1
  Hf  Hf10  1  0.91014977  0.49074039  0.10844008  1
  Hf  Hf11  1  0.38277269  0.18176776  0.50777067  1
  Hf  Hf12  1  0.41186504  0.80341227  0.26124676  1
  Hf  Hf13  1  0.08204851  0.90316405  0.12497585  1
  Hf  Hf14  1  0.89986613  0.10080237  0.61622354  1
  Hf  Hf15  1  0.78094973  0.39568894  0.75481153  1
  Hf  Hf16  1  0.58098835  0.20933872  0.24237494  1
  Hf  Hf17  1  0.28231881  0.30226012  0.11559178  1
  Hf  Hf18  1  0.39639370  0.18839927  0.73621328  1
  Hf  Hf19  1  0.80391289  0.81425620  0.00994170  1
  Hf  Hf20  1  0.29648412  0.89122063  0.87496451  1
  Hf  Hf21  1  0.29702801  0.90123465  0.61385454  1
  Hf  Hf22  1  0.60244113  0.00685563  0.49554823  1
  Hf  Hf23  1  0.40571715  0.59616467  0.74628754  1
  Hf  Hf24  1  0.39256915  0.79273429  0.74620302  1
  Hf  Hf25  1  0.60324178  0.80099784  0.00728268  1
  Hf  Hf26  1  0.69134762  0.50235721  0.61614438  1
  Hf  Hf27  1  0.40699497  0.80435770  0.01509880  1
  Hf  Hf28  1  0.59346885  0.19600879  0.01894374  1
  Hf  Hf29  1  0.20182949  0.80535567  0.26430522  1
  Hf  Hf30  1  0.27843749  0.29612629  0.61857187  1
  Hf  Hf31  1  0.19107550  0.41057377  0.24940087  1
  Hf  Hf32  1  0.01213882  0.59237537  0.51276529  1
  Hf  Hf33  1  0.41634745  0.58376037  0.48516571  1
  Hf  Hf34  1  0.80220006  0.20041359  0.74735301  1
  Hf  Hf35  1  0.11727932  0.71168893  0.87467408  1
  Hf  Hf36  1  0.69441471  0.50723482  0.13829702  1
  Hf  Hf37  1  0.60003333  0.80411903  0.74271145  1
  Hf  Hf38  1  0.20745906  0.61572347  0.74075380  1
  Hf  Hf39  1  0.30502382  0.92760143  0.14390418  1
  Zr  Zr40  1  0.09565803  0.90290282  0.88521008  1
  Zr  Zr41  1  0.40213896  -0.01355108  0.47832245  1
  Zr  Zr42  1  0.81168592  0.60621446  0.25667904  1
  Zr  Zr43  1  0.21555441  0.60183185  -0.00699834  1
  Zr  Zr44  1  0.21083168  0.80628128  0.01723553  1
  Zr  Zr45  1  0.19668736  0.19932896  0.76033927  1
  Zr  Zr46  1  0.70748819  0.90473325  0.61930130  1
  Zr  Zr47  1  0.71214309  0.10989766  0.14322389  1
  Zr  Zr48  1  0.80719613  0.60035265  0.74838487  1
  Zr  Zr49  1  0.90610444  0.90198809  0.86761697  1
  Zr  Zr50  1  0.80526954  0.39680116  0.24816831  1
  Zr  Zr51  1  0.81061535  0.79276912  0.74565352  1
  Zr  Zr52  1  0.82891985  -0.00165250  0.25433302  1
  Zr  Zr53  1  0.09075877  0.50128898  0.88352970  1
  Zr  Zr54  1  0.70004490  0.10794030  0.88210832  1
  Zr  Zr55  1  0.90677255  0.90246206  0.60882864  1
  Zr  Zr56  1  0.01468951  0.58455429  0.24864277  1
  Zr  Zr57  1  0.80343405  0.38490952  0.49262334  1
  Zr  Zr58  1  0.69723716  0.90706214  0.87323198  1
  Zr  Zr59  1  0.60897579  0.60398426  0.75039369  1
  Zr  Zr60  1  0.92069541  0.69929421  0.88790520  1
  Zr  Zr61  1  0.91399783  0.70937403  0.12115730  1
  Zr  Zr62  1  0.37469704  0.18989486  0.24500309  1
  Zr  Zr63  1  0.39778160  -0.00124557  0.74620266  1
  Zr  Zr64  1  0.81446624  0.01555254  0.01602605  1
  Zr  Zr65  1  0.11333158  0.68554799  0.13310452  1
  Zr  Zr66  1  0.59854166  0.21936726  0.74468915  1
  Zr  Zr67  1  0.30222789  0.48936237  0.87083816  1
  Zr  Zr68  1  -0.00709904  0.39016363  0.75376342  1
  Zr  Zr69  1  0.30983327  0.70110011  0.60158374  1
  Zr  Zr70  1  0.69754264  0.50425863  0.36680125  1
  Zr  Zr71  1  0.09812266  0.70079634  0.38215116  1
  Zr  Zr72  1  0.48264230  0.29494354  0.87914528  1
  Zr  Zr73  1  0.89366446  0.49158832  0.89239756  1
  Zr  Zr74  1  0.29097517  0.51015393  0.12996505  1
  Zr  Zr75  1  0.58557123  0.40167206  0.01186521  1
  Zr  Zr76  1  0.78689016  0.60673446  0.00604895  1
  Zr  Zr77  1  0.58855733  0.41349638  0.48687270  1
  Zr  Zr78  1  0.59323303  0.01607420  0.73735985  1
  Zr  Zr79  1  0.50014237  0.70499239  0.87843609  1
  Ta  Ta80  1  0.39730680  0.39086939  0.24782318  1
  Ta  Ta81  1  0.40952631  0.60176888  0.00034008  1
  Ta  Ta82  1  0.09918681  0.09092257  0.88048325  1
  Ta  Ta83  1  0.39714882  0.00481884  0.00160750  1
  Ta  Ta84  1  0.27914869  0.29868014  0.38627392  1
  Ta  Ta85  1  0.70561293  0.70196176  0.60558532  1
  Ta  Ta86  1  0.00003659  0.19470956  0.75090926  1
  Ta  Ta87  1  0.68862545  0.49910541  0.88078191  1
  Ta  Ta88  1  0.50239774  0.49513467  0.87433155  1
  Ta  Ta89  1  0.90734540  0.09545370  0.86958871  1
  Ta  Ta90  1  0.39545645  0.60175828  0.26841237  1
  Ta  Ta91  1  0.09095104  0.29547347  0.88888179  1
  Ta  Ta92  1  0.91802902  0.48676304  0.38075906  1
  Ta  Ta93  1  -0.01320910  0.21437377  0.50474964  1
  Ta  Ta94  1  0.21380135  0.81280753  0.47613785  1
  Ta  Ta95  1  0.51148426  0.69802345  0.60590758  1
  Ta  Ta96  1  0.08206274  0.30713904  0.38216013  1
  Ta  Ta97  1  0.10567898  0.90695861  0.59725703  1
  Ta  Ta98  1  0.10565024  0.49583316  0.37922287  1
  Ta  Ta99  1  0.89773078  0.28931740  0.36636051  1
  Ta  Ta100  1  -0.00936243  0.17807317  -0.00048007  1
  Ta  Ta101  1  0.10750324  0.10556917  0.61316702  1
  Ta  Ta102  1  0.69771935  0.09778331  0.35881968  1
  Ta  Ta103  1  0.80453563  0.59909511  0.49227508  1
  Ta  Ta104  1  0.91935295  0.90072537  0.39484381  1
  Ta  Ta105  1  0.60213536  0.80616576  0.49117929  1
  Ta  Ta106  1  0.02777475  0.80545389  0.72750472  1
  Ta  Ta107  1  0.20580357  0.19339819  -0.01214287  1
  Ta  Ta108  1  -0.00379354  0.81442141  0.26152724  1
  Ta  Ta109  1  0.00513083  0.38044954  0.24163122  1
  Ta  Ta110  1  0.18883149  0.40440860  0.50308706  1
  Ta  Ta111  1  0.19083650  -0.00723323  0.74223743  1
  Ta  Ta112  1  0.69306791  0.29318140  0.36054613  1
  Ta  Ta113  1  0.49081733  0.07489330  0.13833732  1
  Ta  Ta114  1  0.49678482  0.89157939  0.61204726  1
  Ta  Ta115  1  0.30300703  0.48896131  0.37759311  1
  Ta  Ta116  1  0.88896531  0.28716991  0.88972500  1
  Ta  Ta117  1  0.20772820  0.01653176  0.48273879  1
  Ta  Ta118  1  0.68923257  0.90440352  0.14113516  1
  Ta  Ta119  1  0.49762120  0.50142497  0.62698207  1
  Ti  Ti120  1  0.68878531  0.30823798  0.13749490  1
  Ti  Ti121  1  0.49983316  0.90860063  0.87666620  1
  Ti  Ti122  1  0.39817920  0.19503251  0.01325481  1
  Ti  Ti123  1  0.20369367  0.01389992  0.27287296  1
  Ti  Ti124  1  0.69546608  0.70673506  0.13743146  1
  Ti  Ti125  1  0.11312030  0.49437501  0.62880601  1
  Ti  Ti126  1  0.59469608  0.61123712  0.25886847  1
  Ti  Ti127  1  0.30752983  0.48911873  0.62030212  1
  Ti  Ti128  1  0.19704263  0.39559107  0.75463890  1
  Ti  Ti129  1  0.00572975  0.00308890  0.73903746  1
  Ti  Ti130  1  0.08142962  0.30308130  0.62251373  1
  Ti  Ti131  1  0.69900533  0.10692273  0.62107105  1
  Ti  Ti132  1  0.80340072  0.00313462  0.74626960  1
  Ti  Ti133  1  -0.01340905  0.18070646  0.24719228  1
  Ti  Ti134  1  0.30272808  0.09670868  0.87777830  1
  Ti  Ti135  1  0.49593218  0.09952145  0.36147790  1
  Ti  Ti136  1  0.80294342  0.80077916  0.48756724  1
  Ti  Ti137  1  0.90742288  0.69556607  0.38532392  1
  Ti  Ti138  1  0.38913766  0.39932726  0.00287555  1
  Ti  Ti139  1  0.50899044  0.69945499  0.38221761  1
  Ti  Ti140  1  0.59302002  -0.00496355  0.01048414  1
  Ti  Ti141  1  0.49958476  0.09811979  0.88295335  1
  Ti  Ti142  1  0.90395383  0.10205536  0.38357937  1
  Ti  Ti143  1  0.69808414  0.70761347  0.38133769  1
  Ti  Ti144  1  0.68790196  0.30577350  0.88347449  1
  Ti  Ti145  1  0.20899776  0.59822850  0.49756928  1
  Ti  Ti146  1  0.50688670  0.70328247  0.13607374  1
  Ti  Ti147  1  0.70543164  0.70202049  0.87783720  1
  Ti  Ti148  1  0.31209063  0.69816925  0.13931747  1
  Ti  Ti149  1  0.09195682  0.11101488  0.38713715  1
  Ti  Ti150  1  0.79716715  0.00328565  0.48544589  1
  Ti  Ti151  1  0.70171090  0.30423038  0.61883126  1
  Ti  Ti152  1  0.10018832  0.48326135  0.09733759  1
  Ti  Ti153  1  0.08620984  0.29760685  0.10184427  1
  Ti  Ti154  1  0.79029043  0.19486901  0.49222784  1
  Ti  Ti155  1  0.78423019  0.39051924  0.00576546  1
  Ti  Ti156  1  0.90528488  0.70552934  0.60939767  1
  Ti  Ti157  1  0.52485170  0.90131189  0.36205660  1
  Ti  Ti158  1  0.59507624  0.60371440  0.00391330  1
  Ti  Ti159  1  0.39709483  0.39114713  0.75029367  1
  Mo  Mo160  1  0.80107177  0.19804678  0.26025000  1
  Mo  Mo161  1  0.92178516  0.08771914  0.12960497  1
  Mo  Mo162  1  0.21131623  0.00610034  -0.00227748  1
  Mo  Mo163  1  0.00471153  0.01314928  0.49381489  1
  Mo  Mo164  1  0.79228427  0.20407287  -0.00194547  1
  Mo  Mo165  1  0.18167786  0.20559481  0.49913159  1
  Mo  Mo166  1  0.60848227  0.60783657  0.49231662  1
  Mo  Mo167  1  0.20000574  0.80762079  0.73838667  1
  Mo  Mo168  1  0.01966771  0.00100493  0.26851206  1
  Mo  Mo169  1  0.29162608  0.11242249  0.37402143  1
  Mo  Mo170  1  0.19918835  0.38804148  -0.00868495  1
  Mo  Mo171  1  0.11290350  0.71177108  0.60540133  1
  Mo  Mo172  1  0.90124649  0.90146768  0.13453904  1
  Mo  Mo173  1  0.30732990  0.69986674  0.87477394  1
  Mo  Mo174  1  0.48293815  0.29678559  0.12276226  1
  Mo  Mo175  1  0.41204918  0.79801685  0.47772568  1
  Mo  Mo176  1  0.29457519  0.29518300  0.87935467  1
  Mo  Mo177  1  0.30695977  0.69817553  0.38555187  1
  Mo  Mo178  1  0.00160695  0.39865395  0.50367032  1
  Mo  Mo179  1  0.40354706  0.00141316  0.26760007  1
  Mo  Mo180  1  0.10195045  0.91195738  0.38729813  1
  Mo  Mo181  1  -0.00851144  0.38438448  -0.00051294  1
  Mo  Mo182  1  0.00199659  -0.00530923  -0.00098292  1
  Mo  Mo183  1  0.38435554  0.40007956  0.50165708  1
  Mo  Mo184  1  0.49850666  0.49756466  0.35475271  1
  Mo  Mo185  1  0.00667886  0.59975147  0.00398046  1
  Mo  Mo186  1  0.28717016  0.08932108  0.62344946  1
  Mo  Mo187  1  0.60743843  0.79481835  0.25838864  1
  Mo  Mo188  1  0.50713002  0.89808541  0.13529523  1
  Mo  Mo189  1  0.89260196  0.29006119  0.62691914  1
  Mo  Mo190  1  0.60449953  -0.00282659  0.25640169  1
  Mo  Mo191  1  0.30519793  0.90669098  0.36144438  1
  Mo  Mo192  1  0.21417004  0.60564389  0.27107910  1
  Mo  Mo193  1  0.50139104  0.09285023  0.61838139  1
  Mo  Mo194  1  0.71119359  0.90315328  0.38051029  1
  Mo  Mo195  1  0.00060510  0.79604521  0.00473760  1
  Mo  Mo196  1  0.58913932  0.39991957  0.25242898  1
  Mo  Mo197  1  0.00578662  0.79661994  0.50573183  1
  Mo  Mo198  1  0.58819388  0.40802692  0.75209874  1
  Mo  Mo199  1  0.29854282  0.10221740  0.12145613  1
