# generated using pymatgen
data_HfZrTaTiMo
_symmetry_space_group_name_H-M   'P 1'
_cell_length_a   15.21491732
_cell_length_b   15.21799345
_cell_length_c   16.85987698
_cell_angle_alpha   89.91401567
_cell_angle_beta   89.97469820
_cell_angle_gamma   90.02158226
_symmetry_Int_Tables_number   1
_chemical_formula_structural   HfZrTaTiMo
_chemical_formula_sum   'Hf40 Zr40 Ta40 Ti40 Mo40'
_cell_volume   3903.73949650
_cell_formula_units_Z   40
loop_
 _symmetry_equiv_pos_site_id
 _symmetry_equiv_pos_as_xyz
  1  'x, y, z'
loop_
 _atom_site_type_symbol
 _atom_site_label
 _atom_site_symmetry_multiplicity
 _atom_site_fract_x
 _atom_site_fract_y
 _atom_site_fract_z
 _atom_site_occupancy
  Hf  Hf0  1  0.50843315  0.71085906  0.87969323  1
  Hf  Hf1  1  0.39904886  0.60109030  0.76263495  1
  Hf  Hf2  1  0.71467576  0.91617627  0.13773824  1
  Hf  Hf3  1  0.49845730  0.31663653  0.37011070  1
  Hf  Hf4  1  0.28601599  0.07920666  0.37893326  1
  Hf  Hf5  1  0.00413096  0.00640821  0.73853928  1
  Hf  Hf6  1  0.20620343  0.58299138  -0.01336075  1
  Hf  Hf7  1  0.70530020  0.30988581  0.13632720  1
  Hf  Hf8  1  0.69925326  0.10569468  0.35558067  1
  Hf  Hf9  1  0.79252300  0.59952704  0.49521011  1
  Hf  Hf10  1  0.09406271  0.69851034  0.88036465  1
  Hf  Hf11  1  0.21335940  0.60650885  0.24906418  1
  Hf  Hf12  1  0.60830648  0.40476987  0.50373898  1
  Hf  Hf13  1  0.31594138  0.90864699  0.87641796  1
  Hf  Hf14  1  0.70664118  0.72263841  0.88721534  1
  Hf  Hf15  1  0.10072891  0.31985809  0.88097993  1
  Hf  Hf16  1  0.71199689  0.89931461  0.36435374  1
  Hf  Hf17  1  0.61353151  0.80403013  0.49842012  1
  Hf  Hf18  1  0.80691861  0.00359115  0.49856840  1
  Hf  Hf19  1  0.10944086  0.49438726  0.12979041  1
  Hf  Hf20  1  0.39567216  -0.02482843  0.49758606  1
  Hf  Hf21  1  0.39265999  0.18243791  0.74354056  1
  Hf  Hf22  1  0.70183455  0.31320978  0.35505407  1
  Hf  Hf23  1  0.38267946  0.39355011  0.75801807  1
  Hf  Hf24  1  0.80101128  0.59993886  0.24203548  1
  Hf  Hf25  1  0.70244221  0.91213278  0.62097805  1
  Hf  Hf26  1  0.60595639  0.79024389  0.24131888  1
  Hf  Hf27  1  0.10398331  0.69848984  0.62587116  1
  Hf  Hf28  1  0.89482218  0.49556103  0.11496004  1
  Hf  Hf29  1  0.37642187  0.39987737  -0.01328494  1
  Hf  Hf30  1  0.89530185  0.28215360  0.87496266  1
  Hf  Hf31  1  0.41159038  0.00554815  0.00919984  1
  Hf  Hf32  1  0.39123741  0.19977949  0.49634159  1
  Hf  Hf33  1  0.48899320  0.31068712  0.12239437  1
  Hf  Hf34  1  0.89711976  0.68818556  0.88447312  1
  Hf  Hf35  1  0.39601924  0.42531049  0.24419457  1
  Hf  Hf36  1  0.28625728  0.49990431  0.62297211  1
  Hf  Hf37  1  0.29538769  0.88416466  0.11269480  1
  Hf  Hf38  1  -0.02002055  0.19863547  0.51126750  1
  Hf  Hf39  1  0.00398072  -0.01408389  0.24462667  1
  Zr  Zr40  1  0.51246334  0.49479137  0.87901523  1
  Zr  Zr41  1  0.89900225  0.89158660  0.87049374  1
  Zr  Zr42  1  0.88731155  0.08556959  0.13781014  1
  Zr  Zr43  1  0.39662006  0.60276277  -0.02078374  1
  Zr  Zr44  1  0.79541399  -0.00031696  0.75533462  1
  Zr  Zr45  1  0.21497108  0.80581595  0.25753437  1
  Zr  Zr46  1  0.18781219  0.01238927  0.00307067  1
  Zr  Zr47  1  0.92255448  0.89580333  0.38226796  1
  Zr  Zr48  1  0.49883571  0.08076927  0.61887263  1
  Zr  Zr49  1  0.29701576  0.10721350  0.12519798  1
  Zr  Zr50  1  0.18655845  0.39896928  0.49353668  1
  Zr  Zr51  1  0.07755125  0.52173292  0.36412485  1
  Zr  Zr52  1  0.07973433  0.29221143  0.38253496  1
  Zr  Zr53  1  0.71080328  0.50202955  0.62693376  1
  Zr  Zr54  1  0.81485951  0.41236925  0.76124393  1
  Zr  Zr55  1  0.01561261  0.78150773  0.23993933  1
  Zr  Zr56  1  0.49596443  0.09339325  0.37122761  1
  Zr  Zr57  1  0.50202575  0.28128886  0.87523324  1
  Zr  Zr58  1  0.38353345  0.21156494  0.25999328  1
  Zr  Zr59  1  0.08362626  0.07597816  0.38600729  1
  Zr  Zr60  1  0.61763041  0.38677907  0.75829287  1
  Zr  Zr61  1  0.30579269  0.70425138  0.63241437  1
  Zr  Zr62  1  0.61731615  0.00327496  0.00466624  1
  Zr  Zr63  1  -0.00595510  0.17799888  0.00556609  1
  Zr  Zr64  1  0.51018641  0.29259509  0.63023887  1
  Zr  Zr65  1  -0.01823409  0.39542248  0.24661575  1
  Zr  Zr66  1  0.18729585  0.18941521  0.51031943  1
  Zr  Zr67  1  0.19962086  0.38914246  0.26604960  1
  Zr  Zr68  1  0.58971054  0.19488495  0.01581439  1
  Zr  Zr69  1  0.18682347  0.20907028  0.74106193  1
  Zr  Zr70  1  0.18167097  0.19038937  0.25334167  1
  Zr  Zr71  1  0.30231702  0.50398413  0.38538101  1
  Zr  Zr72  1  0.00203679  0.79355842  0.74365389  1
  Zr  Zr73  1  0.11133344  0.89676786  0.87724600  1
  Zr  Zr74  1  0.33197211  0.70165626  0.38518361  1
  Zr  Zr75  1  0.78104750  0.20533192  0.50156431  1
  Zr  Zr76  1  0.61148941  0.60723162  0.75343422  1
  Zr  Zr77  1  0.69705070  0.12147871  0.86340210  1
  Zr  Zr78  1  0.18746524  0.58539216  0.75897926  1
  Zr  Zr79  1  0.40191935  0.40355380  0.50418041  1
  Ta  Ta80  1  0.42263260  0.81262795  0.74612931  1
  Ta  Ta81  1  0.11890010  0.70100343  0.11042333  1
  Ta  Ta82  1  0.81566746  0.00893962  -0.01362200  1
  Ta  Ta83  1  0.49587962  0.51005205  0.63207995  1
  Ta  Ta84  1  0.58543837  0.61228121  0.50816920  1
  Ta  Ta85  1  0.19313786  0.60981629  0.49975025  1
  Ta  Ta86  1  0.19528044  -0.00910971  0.24279469  1
  Ta  Ta87  1  0.39104536  -0.02023053  0.24875718  1
  Ta  Ta88  1  0.80594546  0.81192441  0.01577288  1
  Ta  Ta89  1  0.89438323  0.69441772  0.62526377  1
  Ta  Ta90  1  0.49450976  0.51825891  0.10824389  1
  Ta  Ta91  1  0.49533225  0.88165313  0.36854823  1
  Ta  Ta92  1  0.70468305  0.69648638  0.11265415  1
  Ta  Ta93  1  0.00105042  0.79924989  0.01034706  1
  Ta  Ta94  1  0.48891938  0.08684719  0.87010895  1
  Ta  Ta95  1  0.29154520  0.10863815  0.87662900  1
  Ta  Ta96  1  0.88656921  0.31014356  0.63012648  1
  Ta  Ta97  1  0.68824410  0.50958328  0.37003723  1
  Ta  Ta98  1  0.81894544  0.79736257  0.23688643  1
  Ta  Ta99  1  -0.00800225  0.60372747  0.50548874  1
  Ta  Ta100  1  0.78794641  0.19589533  0.00412911  1
  Ta  Ta101  1  0.29168133  0.71830335  0.86445254  1
  Ta  Ta102  1  0.91841032  0.49064741  0.89260464  1
  Ta  Ta103  1  0.12172808  0.90168597  0.62827553  1
  Ta  Ta104  1  0.09175521  0.29317408  0.11737479  1
  Ta  Ta105  1  0.71848808  0.51473736  0.89786513  1
  Ta  Ta106  1  0.59056163  0.20870951  0.24231395  1
  Ta  Ta107  1  0.58620337  -0.00510852  0.75245729  1
  Ta  Ta108  1  0.42582074  0.78372303  0.51520050  1
  Ta  Ta109  1  0.80429538  0.40127221  0.49599684  1
  Ta  Ta110  1  0.28279968  0.31607938  0.12067604  1
  Ta  Ta111  1  -0.01245822  0.58349344  0.74497251  1
  Ta  Ta112  1  0.20722298  0.00533428  0.75141683  1
  Ta  Ta113  1  0.91013401  0.69071975  0.37258314  1
  Ta  Ta114  1  0.69332433  0.50505280  0.10643308  1
  Ta  Ta115  1  0.08628359  0.10614481  0.86871692  1
  Ta  Ta116  1  0.89292871  0.10401779  0.36260160  1
  Ta  Ta117  1  0.51707465  0.89867549  0.88105612  1
  Ta  Ta118  1  0.81636244  0.79392011  0.49852853  1
  Ta  Ta119  1  0.50015194  0.52598552  0.37562556  1
  Ti  Ti120  1  0.88542989  0.49788885  0.36827095  1
  Ti  Ti121  1  0.49701750  0.09739361  0.14189405  1
  Ti  Ti122  1  0.70496489  0.69828696  0.36935914  1
  Ti  Ti123  1  0.29411092  0.29928096  0.62378065  1
  Ti  Ti124  1  0.60214544  0.00250179  0.49098118  1
  Ti  Ti125  1  0.58952752  0.60477687  0.23671503  1
  Ti  Ti126  1  0.19766071  0.21075080  -0.00321898  1
  Ti  Ti127  1  0.59461125  0.20069234  0.49449692  1
  Ti  Ti128  1  0.00470983  0.59411835  0.00874033  1
  Ti  Ti129  1  -0.01330238  0.20361336  0.74051861  1
  Ti  Ti130  1  0.01391635  0.80148141  0.50691429  1
  Ti  Ti131  1  0.80220588  0.39081681  -0.00500350  1
  Ti  Ti132  1  0.10412044  0.71096655  0.38548905  1
  Ti  Ti133  1  0.90119526  0.88969998  0.62526470  1
  Ti  Ti134  1  0.01352639  0.40381830  0.74283522  1
  Ti  Ti135  1  0.00925574  -0.00249566  0.52272895  1
  Ti  Ti136  1  0.28489409  0.08433123  0.61994975  1
  Ti  Ti137  1  0.59045630  -0.00411369  0.25128620  1
  Ti  Ti138  1  0.60260331  0.80577799  0.01442502  1
  Ti  Ti139  1  0.09790548  0.90265550  0.11120972  1
  Ti  Ti140  1  0.89351630  0.29334805  0.12345294  1
  Ti  Ti141  1  0.60381719  0.39699712  -0.00330247  1
  Ti  Ti142  1  0.88569238  0.10278655  0.63202676  1
  Ti  Ti143  1  -0.00610951  0.19356124  0.24213070  1
  Ti  Ti144  1  0.38767606  0.20122152  -0.00236901  1
  Ti  Ti145  1  0.88890264  0.29907246  0.36730643  1
  Ti  Ti146  1  0.70538362  0.70966536  0.62680562  1
  Ti  Ti147  1  0.69001990  0.11911672  0.63885537  1
  Ti  Ti148  1  -0.01366464  0.41114775  0.50373329  1
  Ti  Ti149  1  0.80415893  0.60947593  0.75315461  1
  Ti  Ti150  1  0.31629680  0.68203362  0.11714273  1
  Ti  Ti151  1  0.21908501  0.81460320  0.49599575  1
  Ti  Ti152  1  0.41133807  0.78277436  0.24026544  1
  Ti  Ti153  1  0.31376836  0.89968301  0.63781304  1
  Ti  Ti154  1  0.70025191  0.10745445  0.14676756  1
  Ti  Ti155  1  0.59632532  0.42036734  0.24031509  1
  Ti  Ti156  1  0.61777463  0.80970369  0.74735249  1
  Ti  Ti157  1  0.08967039  0.31008656  0.62138221  1
  Ti  Ti158  1  0.40309727  0.79826015  0.00013058  1
  Ti  Ti159  1  0.50094028  0.89664987  0.12877370  1
  Mo  Mo160  1  0.79715801  0.79356533  0.74038928  1
  Mo  Mo161  1  0.00126498  0.60550406  0.24193654  1
  Mo  Mo162  1  0.30160136  0.29349642  0.37890532  1
  Mo  Mo163  1  0.31163885  0.89318385  0.37556035  1
  Mo  Mo164  1  0.50350794  0.70696634  0.11011815  1
  Mo  Mo165  1  0.20906389  0.79013193  0.00179225  1
  Mo  Mo166  1  0.79291794  0.21445215  0.74056509  1
  Mo  Mo167  1  0.09026004  0.09766047  0.62828792  1
  Mo  Mo168  1  -0.00415258  0.39095091  0.01131184  1
  Mo  Mo169  1  0.30307634  0.50124363  0.12436312  1
  Mo  Mo170  1  0.08784696  0.50073124  0.61544039  1
  Mo  Mo171  1  0.70181347  0.31131280  0.88856385  1
  Mo  Mo172  1  0.39605909  -0.00491841  0.74987993  1
  Mo  Mo173  1  0.90504485  0.89345206  0.12128910  1
  Mo  Mo174  1  0.78913212  0.41121759  0.24640861  1
  Mo  Mo175  1  0.90464222  0.10029750  0.86685249  1
  Mo  Mo176  1  0.08657956  0.50079739  0.87763817  1
  Mo  Mo177  1  0.69696826  0.90120838  0.87884231  1
  Mo  Mo178  1  0.60492430  0.60508354  0.00056621  1
  Mo  Mo179  1  0.19049676  0.39588943  0.00364854  1
  Mo  Mo180  1  0.29231907  0.28854861  0.87537044  1
  Mo  Mo181  1  0.19011753  0.39582811  0.74040796  1
  Mo  Mo182  1  0.90781967  0.69520509  0.11544579  1
  Mo  Mo183  1  0.41318835  0.61043510  0.24144479  1
  Mo  Mo184  1  0.80192801  -0.00736312  0.25941999  1
  Mo  Mo185  1  0.59804890  0.19174718  0.75061094  1
  Mo  Mo186  1  0.21200038  0.80737436  0.75007332  1
  Mo  Mo187  1  -0.00631361  -0.00904286  -0.00226680  1
  Mo  Mo188  1  0.90522090  0.50093439  0.62174246  1
  Mo  Mo189  1  0.09738983  0.09745529  0.12812137  1
  Mo  Mo190  1  0.51373050  0.70110766  0.63861071  1
  Mo  Mo191  1  0.50971896  0.89227869  0.62462707  1
  Mo  Mo192  1  0.20013116  -0.01444639  0.51104650  1
  Mo  Mo193  1  0.80820266  0.60505317  0.00637257  1
  Mo  Mo194  1  0.80532528  0.20809646  0.24889611  1
  Mo  Mo195  1  0.40546187  0.59996088  0.51331206  1
  Mo  Mo196  1  0.70284264  0.29840691  0.62334964  1
  Mo  Mo197  1  0.52280186  0.69745522  0.37357969  1
  Mo  Mo198  1  0.28067159  0.48431920  0.86202646  1
  Mo  Mo199  1  0.11475297  0.89679334  0.38669018  1
