# generated using pymatgen
data_HfZrTaTiMo
_symmetry_space_group_name_H-M   'P 1'
_cell_length_a   15.22623549
_cell_length_b   15.21695312
_cell_length_c   16.82368194
_cell_angle_alpha   90.02800081
_cell_angle_beta   90.00429745
_cell_angle_gamma   89.95264163
_symmetry_Int_Tables_number   1
_chemical_formula_structural   HfZrTaTiMo
_chemical_formula_sum   'Hf40 Zr40 Ta40 Ti40 Mo40'
_cell_volume   3897.99333839
_cell_formula_units_Z   40
loop_
 _symmetry_equiv_pos_site_id
 _symmetry_equiv_pos_as_xyz
  1  'x, y, z'
loop_
 _atom_site_type_symbol
 _atom_site_label
 _atom_site_symmetry_multiplicity
 _atom_site_fract_x
 _atom_site_fract_y
 _atom_site_fract_z
 _atom_site_occupancy
  Hf  Hf0  1  0.59909632  0.61018375  0.23368625  1
  Hf  Hf1  1  0.50021698  0.29255895  0.39121693  1
  Hf  Hf2  1  -0.01083902  0.79857253  0.24222497  1
  Hf  Hf3  1  0.89748819  0.49432246  0.62340500  1
  Hf  Hf4  1  0.68145719  0.29731975  0.13699132  1
  Hf  Hf5  1  0.78258226  0.79217574  0.22737835  1
  Hf  Hf6  1  0.00398431  0.19103156  0.50500220  1
  Hf  Hf7  1  0.89191770  0.10346583  0.87124385  1
  Hf  Hf8  1  0.70887449  0.30389979  0.62414843  1
  Hf  Hf9  1  0.11875882  0.88544922  0.64126051  1
  Hf  Hf10  1  0.11192185  0.30249720  0.38113217  1
  Hf  Hf11  1  0.80295177  0.19512476  0.25503730  1
  Hf  Hf12  1  0.80338372  -0.01463281  0.25049064  1
  Hf  Hf13  1  0.20421329  0.20790470  -0.00470822  1
  Hf  Hf14  1  0.90665729  0.89417456  0.38495810  1
  Hf  Hf15  1  0.78678145  0.80315757  0.00967293  1
  Hf  Hf16  1  0.29435713  0.69512235  0.37801793  1
  Hf  Hf17  1  0.40483751  0.59456401  0.24951233  1
  Hf  Hf18  1  0.39834614  0.39807458  0.25439440  1
  Hf  Hf19  1  0.00466060  0.41926743  0.25623193  1
  Hf  Hf20  1  0.59389894  0.80609377  0.75833400  1
  Hf  Hf21  1  0.88758683  0.69639345  0.61350738  1
  Hf  Hf22  1  0.42144293  0.18119558  0.74419108  1
  Hf  Hf23  1  0.00522158  0.19791490  -0.00023495  1
  Hf  Hf24  1  0.28056306  0.90036733  0.38608632  1
  Hf  Hf25  1  0.60462541  0.40370041  -0.01296192  1
  Hf  Hf26  1  0.19589830  -0.00679421  0.24633479  1
  Hf  Hf27  1  0.90762631  0.29561232  0.37702897  1
  Hf  Hf28  1  0.60149883  0.41625905  0.49442742  1
  Hf  Hf29  1  0.80324045  0.40673137  0.76470154  1
  Hf  Hf30  1  0.39406616  0.79983778  0.24670199  1
  Hf  Hf31  1  0.28533908  0.70824562  0.62699786  1
  Hf  Hf32  1  0.18928058  0.60135450  0.50824247  1
  Hf  Hf33  1  0.30771916  0.29612409  0.12110206  1
  Hf  Hf34  1  0.32414264  0.08915898  0.86883297  1
  Hf  Hf35  1  0.30268755  0.49601929  0.11674664  1
  Hf  Hf36  1  0.50309536  0.29317157  0.86452427  1
  Hf  Hf37  1  0.49078527  0.90816679  0.88924959  1
  Hf  Hf38  1  0.80485075  0.39743322  -0.00868386  1
  Hf  Hf39  1  0.78033687  0.00899508  0.74632065  1
  Zr  Zr40  1  0.39713953  0.40328204  0.51430597  1
  Zr  Zr41  1  0.69479301  0.09386216  0.13641719  1
  Zr  Zr42  1  0.40920539  0.79539749  0.49892036  1
  Zr  Zr43  1  0.78735472  0.58977772  0.48473850  1
  Zr  Zr44  1  0.11746441  0.09866510  0.85757731  1
  Zr  Zr45  1  0.90723898  0.30344306  0.13521199  1
  Zr  Zr46  1  0.10869471  0.31234017  0.61726427  1
  Zr  Zr47  1  0.90671777  0.69688693  0.38598549  1
  Zr  Zr48  1  0.30223662  0.29285465  0.38672405  1
  Zr  Zr49  1  0.51347312  0.29294943  0.62392248  1
  Zr  Zr50  1  0.02733279  0.39543246  -0.00855604  1
  Zr  Zr51  1  0.68161056  0.92068110  0.60479046  1
  Zr  Zr52  1  0.89988770  0.89825524  0.88028384  1
  Zr  Zr53  1  0.91740257  0.51807278  0.11122879  1
  Zr  Zr54  1  0.58842168  0.80832856  0.22987536  1
  Zr  Zr55  1  -0.00624950  0.78652981  0.74587708  1
  Zr  Zr56  1  0.00862061  -0.00646041  -0.00427896  1
  Zr  Zr57  1  0.40766570  0.40309159  -0.00796403  1
  Zr  Zr58  1  0.28717856  0.69568118  0.11992423  1
  Zr  Zr59  1  0.80249250  0.19856697  0.00907453  1
  Zr  Zr60  1  -0.00601114  0.00026998  0.74157016  1
  Zr  Zr61  1  0.90076299  0.30011563  0.61788394  1
  Zr  Zr62  1  0.69063494  0.50986208  0.62766209  1
  Zr  Zr63  1  0.40670401  0.40867851  0.74268604  1
  Zr  Zr64  1  0.79353756  0.40591919  0.27035681  1
  Zr  Zr65  1  0.41086128  0.00901770  0.49402071  1
  Zr  Zr66  1  0.40459734  -0.00196890  0.25729964  1
  Zr  Zr67  1  0.39956022  0.79411278  0.75185479  1
  Zr  Zr68  1  0.20081355  0.40440859  0.75612443  1
  Zr  Zr69  1  0.88972642  0.89333190  0.61009921  1
  Zr  Zr70  1  0.18093213  0.80121798  -0.00363946  1
  Zr  Zr71  1  0.78720740  0.80496695  0.75975859  1
  Zr  Zr72  1  0.68159614  0.71602755  0.61160406  1
  Zr  Zr73  1  0.70151809  0.49768613  0.12802008  1
  Zr  Zr74  1  0.80048048  0.01904387  0.49102782  1
  Zr  Zr75  1  0.02641036  -0.00649972  0.51030926  1
  Zr  Zr76  1  0.81642035  0.60336637  0.25203658  1
  Zr  Zr77  1  0.10684701  0.10276291  0.13096864  1
  Zr  Zr78  1  0.10895559  0.08957374  0.36985779  1
  Zr  Zr79  1  0.78619651  0.60850186  0.76611503  1
  Ta  Ta80  1  -0.00473109  0.59246624  0.75152698  1
  Ta  Ta81  1  0.12392267  0.10047553  0.64167029  1
  Ta  Ta82  1  0.31233014  0.09616361  0.12228946  1
  Ta  Ta83  1  0.68830848  0.89621855  0.38210823  1
  Ta  Ta84  1  0.29396358  0.89887117  0.87400187  1
  Ta  Ta85  1  0.90733791  0.50690984  0.88318016  1
  Ta  Ta86  1  0.29319381  0.90291917  0.12229031  1
  Ta  Ta87  1  0.18763580  0.79456448  0.24452103  1
  Ta  Ta88  1  0.57876688  0.60518920  0.75746768  1
  Ta  Ta89  1  0.31460235  0.09022481  0.63380448  1
  Ta  Ta90  1  0.10059844  0.51295121  0.37682566  1
  Ta  Ta91  1  0.21174849  0.00130939  -0.00003521  1
  Ta  Ta92  1  0.38998458  0.80259752  0.00428920  1
  Ta  Ta93  1  0.30115790  0.90538189  0.62320295  1
  Ta  Ta94  1  0.40150230  0.59542848  0.50807174  1
  Ta  Ta95  1  0.48527477  0.69313786  0.89237137  1
  Ta  Ta96  1  0.19280373  0.59626909  0.25148000  1
  Ta  Ta97  1  0.29496340  0.49703402  0.38418329  1
  Ta  Ta98  1  0.30059267  0.28504037  0.62650211  1
  Ta  Ta99  1  0.41384173  0.20140117  0.24720529  1
  Ta  Ta100  1  0.00381907  0.40312346  0.75777162  1
  Ta  Ta101  1  0.60170609  0.20107560  -0.00480425  1
  Ta  Ta102  1  0.58539461  0.01072656  0.75424573  1
  Ta  Ta103  1  0.00656298  0.41323508  0.49278707  1
  Ta  Ta104  1  0.90055718  0.69809961  0.89373345  1
  Ta  Ta105  1  0.19548374  0.58827048  -0.00928299  1
  Ta  Ta106  1  0.78568155  0.60005229  -0.00636196  1
  Ta  Ta107  1  0.08017831  0.68855065  0.11896835  1
  Ta  Ta108  1  0.21245487  0.18222698  0.50798010  1
  Ta  Ta109  1  0.11302874  0.50006405  0.12183108  1
  Ta  Ta110  1  0.09111540  0.69473022  0.87492702  1
  Ta  Ta111  1  0.70854407  0.28837763  0.86941824  1
  Ta  Ta112  1  0.58183242  0.40243512  0.25711766  1
  Ta  Ta113  1  0.41277563  0.19236467  -0.00104569  1
  Ta  Ta114  1  0.29798563  0.29329380  0.86806141  1
  Ta  Ta115  1  0.11294337  0.30907863  0.13403338  1
  Ta  Ta116  1  0.60629992  0.41051084  0.76323063  1
  Ta  Ta117  1  0.00847062  0.20874854  0.74639298  1
  Ta  Ta118  1  0.79288764  0.00314650  0.00680262  1
  Ta  Ta119  1  0.91189467  0.29900621  0.87070449  1
  Ti  Ti120  1  0.62021086  0.19112124  0.74974148  1
  Ti  Ti121  1  0.79609240  0.20349718  0.49314665  1
  Ti  Ti122  1  0.30720743  0.10648984  0.37692175  1
  Ti  Ti123  1  0.60384038  0.17891806  0.50591882  1
  Ti  Ti124  1  0.02094800  0.78928454  0.50904233  1
  Ti  Ti125  1  0.59656787  -0.00205498  0.25230721  1
  Ti  Ti126  1  0.69473602  0.09946380  0.36730951  1
  Ti  Ti127  1  0.09346283  0.89805258  0.12328405  1
  Ti  Ti128  1  0.80631821  0.20200762  0.74806302  1
  Ti  Ti129  1  0.48976272  0.91532906  0.11333064  1
  Ti  Ti130  1  0.80050834  0.40119245  0.48054538  1
  Ti  Ti131  1  0.31141819  0.50847497  0.87814296  1
  Ti  Ti132  1  0.89522809  0.10449303  0.62671567  1
  Ti  Ti133  1  0.21505393  0.20280177  0.24869260  1
  Ti  Ti134  1  0.28455523  0.49544454  0.62275228  1
  Ti  Ti135  1  0.58053352  0.61113870  0.49828555  1
  Ti  Ti136  1  0.00073643  0.59655519  0.50797056  1
  Ti  Ti137  1  0.10146303  0.71223242  0.37429929  1
  Ti  Ti138  1  0.68022001  0.69914560  0.89059980  1
  Ti  Ti139  1  0.19090508  0.60511648  0.74806831  1
  Ti  Ti140  1  0.67721199  0.51259011  0.36621693  1
  Ti  Ti141  1  0.58133247  0.59409384  0.01003679  1
  Ti  Ti142  1  0.20313726  0.40268739  0.25454021  1
  Ti  Ti143  1  0.50465824  0.11336032  0.12899589  1
  Ti  Ti144  1  0.59588373  0.01036519  0.00266796  1
  Ti  Ti145  1  0.10631579  0.50064421  0.87361211  1
  Ti  Ti146  1  0.29096727  0.69824239  0.87591811  1
  Ti  Ti147  1  0.50873267  0.10044639  0.37228276  1
  Ti  Ti148  1  0.91234759  0.09448889  0.36593953  1
  Ti  Ti149  1  0.90166159  0.89929056  0.11703722  1
  Ti  Ti150  1  0.69513979  0.71134419  0.38028597  1
  Ti  Ti151  1  0.39467929  0.59827250  0.74145132  1
  Ti  Ti152  1  0.10621954  0.89469763  0.85914126  1
  Ti  Ti153  1  0.01197406  0.19620187  0.25012576  1
  Ti  Ti154  1  0.69035792  0.29239475  0.37248436  1
  Ti  Ti155  1  0.49782269  0.89892553  0.62293333  1
  Ti  Ti156  1  0.69064210  0.91332432  0.88554021  1
  Ti  Ti157  1  0.50591257  0.70143306  0.37198395  1
  Ti  Ti158  1  0.90991393  0.09052158  0.13381708  1
  Ti  Ti159  1  0.59100253  0.79688153  0.01805722  1
  Mo  Mo160  1  0.40076633  0.00309275  0.00945360  1
  Mo  Mo161  1  0.21722942  -0.00861129  0.75264745  1
  Mo  Mo162  1  0.68899608  0.90949151  0.11670772  1
  Mo  Mo163  1  0.50267092  0.29833031  0.12355229  1
  Mo  Mo164  1  0.19785471  0.40215028  0.50491380  1
  Mo  Mo165  1  0.20829199  0.39943116  -0.01551423  1
  Mo  Mo166  1  0.89890679  0.70200122  0.10515788  1
  Mo  Mo167  1  0.19208930  0.80304840  0.50156576  1
  Mo  Mo168  1  0.01474708  0.60963350  0.25125667  1
  Mo  Mo169  1  0.20387173  0.00006631  0.50728954  1
  Mo  Mo170  1  0.79458208  0.80110075  0.49115800  1
  Mo  Mo171  1  0.39383157  0.60419569  -0.00235033  1
  Mo  Mo172  1  0.40462755  0.19234419  0.51233364  1
  Mo  Mo173  1  0.70215735  0.11514610  0.62198335  1
  Mo  Mo174  1  0.58904166  0.80222404  0.49033200  1
  Mo  Mo175  1  0.49861345  0.51092577  0.87023345  1
  Mo  Mo176  1  -0.00451439  -0.00407373  0.24363683  1
  Mo  Mo177  1  0.09224175  0.68823880  0.63410894  1
  Mo  Mo178  1  0.51920882  0.08528269  0.62181341  1
  Mo  Mo179  1  0.50245253  0.89606105  0.36929160  1
  Mo  Mo180  1  0.49868088  0.51375728  0.62935767  1
  Mo  Mo181  1  -0.00398374  0.79863619  0.00342523  1
  Mo  Mo182  1  0.21417249  0.19991433  0.74531363  1
  Mo  Mo183  1  0.48662355  0.69572576  0.10464352  1
  Mo  Mo184  1  0.09745683  0.88582819  0.37379097  1
  Mo  Mo185  1  0.59755227  0.00249493  0.48486612  1
  Mo  Mo186  1  0.49322229  0.51052566  0.37792339  1
  Mo  Mo187  1  0.20158916  0.79002070  0.76630200  1
  Mo  Mo188  1  0.00559194  0.59910806  -0.01021967  1
  Mo  Mo189  1  0.69213979  0.69604458  0.10676141  1
  Mo  Mo190  1  0.50112621  0.49040403  0.12596531  1
  Mo  Mo191  1  0.09432538  0.50757905  0.63146500  1
  Mo  Mo192  1  0.49512085  0.69557844  0.62701900  1
  Mo  Mo193  1  0.59339943  0.19934383  0.26021015  1
  Mo  Mo194  1  0.41165337  -0.01437008  0.74472062  1
  Mo  Mo195  1  0.69631535  0.09829053  0.88004145  1
  Mo  Mo196  1  0.51484188  0.09957386  0.88174614  1
  Mo  Mo197  1  0.69348088  0.50642670  0.87903314  1
  Mo  Mo198  1  0.10521221  0.29677463  0.86321026  1
  Mo  Mo199  1  0.90872894  0.49943503  0.38349397  1
