# generated using pymatgen
data_HfZrTaTiMo
_symmetry_space_group_name_H-M   'P 1'
_cell_length_a   15.20695680
_cell_length_b   15.20783967
_cell_length_c   16.81702390
_cell_angle_alpha   89.98872074
_cell_angle_beta   90.01572750
_cell_angle_gamma   89.95612817
_symmetry_Int_Tables_number   1
_chemical_formula_structural   HfZrTaTiMo
_chemical_formula_sum   'Hf40 Zr40 Ta40 Ti40 Mo40'
_cell_volume   3889.18701116
_cell_formula_units_Z   40
loop_
 _symmetry_equiv_pos_site_id
 _symmetry_equiv_pos_as_xyz
  1  'x, y, z'
loop_
 _atom_site_type_symbol
 _atom_site_label
 _atom_site_symmetry_multiplicity
 _atom_site_fract_x
 _atom_site_fract_y
 _atom_site_fract_z
 _atom_site_occupancy
  Hf  Hf0  1  0.10497437  0.28532114  0.12471433  1
  Hf  Hf1  1  0.50620395  0.28696511  0.63035630  1
  Hf  Hf2  1  0.79071427  0.60026942  0.50579604  1
  Hf  Hf3  1  0.59407181  0.59960159  0.50221358  1
  Hf  Hf4  1  0.19976825  0.00243612  0.26094953  1
  Hf  Hf5  1  0.09593068  0.11217954  0.61715976  1
  Hf  Hf6  1  0.30775744  0.90692843  0.10842743  1
  Hf  Hf7  1  0.80455568  0.60196184  0.74656404  1
  Hf  Hf8  1  -0.00833910  0.00893889  0.50373334  1
  Hf  Hf9  1  0.01480025  0.39339338  0.49064133  1
  Hf  Hf10  1  0.79166008  0.21433426  0.75846430  1
  Hf  Hf11  1  0.69422339  0.10103213  0.37652341  1
  Hf  Hf12  1  0.19839315  0.21676409  0.48421318  1
  Hf  Hf13  1  0.60404468  0.58469600  0.75989103  1
  Hf  Hf14  1  0.69796065  0.30506124  0.61905497  1
  Hf  Hf15  1  0.40371679  -0.00094366  0.23944784  1
  Hf  Hf16  1  0.89686943  0.30159885  0.87815362  1
  Hf  Hf17  1  0.10058065  0.89903215  0.86485341  1
  Hf  Hf18  1  0.20083297  0.19619109  0.75246309  1
  Hf  Hf19  1  0.89996094  0.51379806  0.88163005  1
  Hf  Hf20  1  0.90175346  0.91665966  0.85609467  1
  Hf  Hf21  1  -0.00166497  0.81405447  -0.00367739  1
  Hf  Hf22  1  0.80896886  0.41463009  0.23827761  1
  Hf  Hf23  1  0.80075777  0.40066435  0.49697554  1
  Hf  Hf24  1  0.59225745  0.59855427  0.24435130  1
  Hf  Hf25  1  0.79864762  0.20326608  0.25049515  1
  Hf  Hf26  1  0.19894780  0.79591765  0.72680124  1
  Hf  Hf27  1  0.69755935  0.89606721  0.85845250  1
  Hf  Hf28  1  0.50610118  0.49001998  0.63142819  1
  Hf  Hf29  1  0.40026156  0.79373270  0.52460824  1
  Hf  Hf30  1  0.49957476  0.90219303  0.37326591  1
  Hf  Hf31  1  0.21054032  0.59619337  0.23816171  1
  Hf  Hf32  1  0.31294254  0.50224909  0.37150013  1
  Hf  Hf33  1  0.38718318  0.40441010  0.22573663  1
  Hf  Hf34  1  0.10927938  0.29149584  0.88502425  1
  Hf  Hf35  1  0.81054995  -0.00455824  0.25655415  1
  Hf  Hf36  1  0.09784711  0.70049263  0.39086199  1
  Hf  Hf37  1  0.79406792  -0.00091602  0.51179275  1
  Hf  Hf38  1  0.70228906  0.88967462  0.37306901  1
  Hf  Hf39  1  0.60554555  0.38146006  0.76953621  1
  Zr  Zr40  1  0.88734083  0.70183189  0.12567841  1
  Zr  Zr41  1  0.91802331  0.50187272  0.61705966  1
  Zr  Zr42  1  0.41446645  0.19085768  0.50441333  1
  Zr  Zr43  1  0.39844970  0.79711224  0.74353943  1
  Zr  Zr44  1  0.48172919  0.70158807  0.37145053  1
  Zr  Zr45  1  0.71432004  0.89813785  0.12593579  1
  Zr  Zr46  1  0.20842124  0.40702184  0.76275919  1
  Zr  Zr47  1  0.00054449  0.39925606  0.00349334  1
  Zr  Zr48  1  0.21058641  0.40583126  0.01395327  1
  Zr  Zr49  1  0.81022925  0.00742961  -0.00478260  1
  Zr  Zr50  1  0.41043400  0.79067469  -0.01175772  1
  Zr  Zr51  1  0.90845128  0.29079555  0.62364088  1
  Zr  Zr52  1  0.01347458  0.60400332  0.74940946  1
  Zr  Zr53  1  0.09617971  0.09642361  0.13673441  1
  Zr  Zr54  1  0.60074060  0.39838983  0.23472077  1
  Zr  Zr55  1  0.39745999  0.39671997  0.49838534  1
  Zr  Zr56  1  0.29492042  0.89676741  0.88281441  1
  Zr  Zr57  1  0.21860340  0.79881706  0.25220247  1
  Zr  Zr58  1  0.08912471  0.50124196  0.12927616  1
  Zr  Zr59  1  0.38170369  -0.00336650  0.74298214  1
  Zr  Zr60  1  0.70530896  0.29682855  0.11454776  1
  Zr  Zr61  1  0.40094667  0.20444711  0.76022126  1
  Zr  Zr62  1  0.20731725  0.21373837  0.26378421  1
  Zr  Zr63  1  0.28918383  0.09691077  0.89357101  1
  Zr  Zr64  1  0.68059508  0.90196623  0.64690516  1
  Zr  Zr65  1  0.48571226  0.29367941  0.36215449  1
  Zr  Zr66  1  0.30443245  0.89312483  0.39129854  1
  Zr  Zr67  1  0.10687685  0.67715380  0.59984093  1
  Zr  Zr68  1  0.31237408  0.09934044  0.38318627  1
  Zr  Zr69  1  0.00481073  0.40010593  0.75657036  1
  Zr  Zr70  1  0.11399070  0.49242479  0.37070328  1
  Zr  Zr71  1  0.90252333  0.09875341  0.13274688  1
  Zr  Zr72  1  0.60796438  0.19098477  -0.00103591  1
  Zr  Zr73  1  0.09648989  0.90592475  0.13119177  1
  Zr  Zr74  1  0.09434999  0.71055305  0.12992359  1
  Zr  Zr75  1  -0.01392120  0.59795575  0.25526802  1
  Zr  Zr76  1  0.68808179  0.29964169  0.37666631  1
  Zr  Zr77  1  0.58826433  0.00346531  0.50524821  1
  Zr  Zr78  1  0.88620370  0.70863136  0.38550114  1
  Zr  Zr79  1  0.68633980  0.71004647  0.11784784  1
  Ta  Ta80  1  0.59426388  0.61571521  -0.01099655  1
  Ta  Ta81  1  0.50739382  0.50912000  0.10661279  1
  Ta  Ta82  1  0.39346341  0.59142991  0.75105671  1
  Ta  Ta83  1  0.70803877  0.51647653  0.10380382  1
  Ta  Ta84  1  0.68805982  0.70067733  0.37295173  1
  Ta  Ta85  1  0.60312107  0.00079628  0.23886490  1
  Ta  Ta86  1  0.78717813  0.60632846  0.25273991  1
  Ta  Ta87  1  0.29135426  0.50096901  0.62317439  1
  Ta  Ta88  1  0.10400028  0.90250960  0.39659719  1
  Ta  Ta89  1  -0.00804923  0.80845459  0.51388106  1
  Ta  Ta90  1  0.40213628  0.40238089  0.76123502  1
  Ta  Ta91  1  0.79389631  0.41380167  0.74993489  1
  Ta  Ta92  1  0.31121852  0.29999091  0.89607097  1
  Ta  Ta93  1  0.80532392  0.40264804  0.00861277  1
  Ta  Ta94  1  0.00313566  0.80298445  0.72802693  1
  Ta  Ta95  1  0.10363456  0.70380493  0.87514636  1
  Ta  Ta96  1  0.90673055  0.71376611  0.87036935  1
  Ta  Ta97  1  0.89775479  0.70421618  0.61661832  1
  Ta  Ta98  1  0.29890878  0.30489066  0.62740647  1
  Ta  Ta99  1  0.70019689  0.49512485  0.89591367  1
  Ta  Ta100  1  0.50613802  0.49851832  0.37001718  1
  Ta  Ta101  1  0.69967462  0.50390985  0.37133921  1
  Ta  Ta102  1  0.20187497  0.61029407  0.00915100  1
  Ta  Ta103  1  0.60380487  -0.01084446  -0.00461807  1
  Ta  Ta104  1  0.10961536  0.30985561  0.62525794  1
  Ta  Ta105  1  0.70064384  0.09651918  0.85974525  1
  Ta  Ta106  1  -0.00571642  0.81625695  0.26431592  1
  Ta  Ta107  1  0.79932896  0.79932186  -0.01352909  1
  Ta  Ta108  1  0.68945907  0.11049679  0.64138034  1
  Ta  Ta109  1  0.59289367  0.18664075  0.22982494  1
  Ta  Ta110  1  0.40573689  0.40004074  0.01072034  1
  Ta  Ta111  1  0.69565707  0.69706366  0.63410126  1
  Ta  Ta112  1  0.00394895  0.38425867  0.25305265  1
  Ta  Ta113  1  0.10810806  0.51507709  0.88819253  1
  Ta  Ta114  1  0.49525872  0.49738782  0.89003601  1
  Ta  Ta115  1  0.49846590  0.08993669  0.87843222  1
  Ta  Ta116  1  0.50813434  0.69752344  0.64031537  1
  Ta  Ta117  1  0.51141447  0.89304084  0.11599311  1
  Ta  Ta118  1  0.50691918  0.08876154  0.64344724  1
  Ta  Ta119  1  -0.00025999  0.17709274  -0.00887485  1
  Ti  Ti120  1  0.70628157  0.69824008  0.87388002  1
  Ti  Ti121  1  0.20061984  0.79459001  0.00263891  1
  Ti  Ti122  1  0.88612247  0.10182463  0.63497002  1
  Ti  Ti123  1  0.89876657  0.29724170  0.37052573  1
  Ti  Ti124  1  0.39775042  0.61393437  0.23479175  1
  Ti  Ti125  1  0.38999414  0.60031016  0.00595465  1
  Ti  Ti126  1  -0.00406251  0.19958041  0.47976248  1
  Ti  Ti127  1  0.29877864  0.11198712  0.10447855  1
  Ti  Ti128  1  0.50608106  0.29717648  0.89211786  1
  Ti  Ti129  1  0.80715842  0.80053811  0.74216026  1
  Ti  Ti130  1  0.29105343  0.69622897  0.39120569  1
  Ti  Ti131  1  0.59413015  0.80093563  0.24921178  1
  Ti  Ti132  1  0.39981667  0.59767960  0.51185992  1
  Ti  Ti133  1  0.39856339  0.19802620  0.23447514  1
  Ti  Ti134  1  0.49578381  0.08978666  0.10902255  1
  Ti  Ti135  1  0.17396860  0.00508653  0.00055692  1
  Ti  Ti136  1  0.90994099  0.29444824  0.12307464  1
  Ti  Ti137  1  0.30308166  0.50344235  0.88387932  1
  Ti  Ti138  1  0.18832824  -0.00462562  0.73080292  1
  Ti  Ti139  1  -0.00039602  0.19565469  0.75377321  1
  Ti  Ti140  1  0.29337431  0.69166856  0.87356939  1
  Ti  Ti141  1  0.50514751  0.10087282  0.36633780  1
  Ti  Ti142  1  0.49558996  0.29232839  0.11284037  1
  Ti  Ti143  1  -0.00390311  -0.00237152  0.72633749  1
  Ti  Ti144  1  -0.00532240  0.61047487  0.00121223  1
  Ti  Ti145  1  0.90170296  0.50253864  0.37985179  1
  Ti  Ti146  1  0.08385811  0.08811570  0.86668019  1
  Ti  Ti147  1  0.39609561  -0.00721379  0.52177619  1
  Ti  Ti148  1  0.50343902  0.89706475  0.87143453  1
  Ti  Ti149  1  0.49167761  0.70777029  0.12169421  1
  Ti  Ti150  1  0.50251992  0.69686035  0.86443465  1
  Ti  Ti151  1  0.59749281  0.79753211  0.50787093  1
  Ti  Ti152  1  0.90077292  0.90326976  0.38221582  1
  Ti  Ti153  1  0.78953038  0.80502067  0.51485205  1
  Ti  Ti154  1  0.59935743  0.40177679  0.49596507  1
  Ti  Ti155  1  0.90897719  0.89894413  0.13246201  1
  Ti  Ti156  1  0.79913713  0.19380064  0.49848919  1
  Ti  Ti157  1  0.29517768  0.10596629  0.61772926  1
  Ti  Ti158  1  0.20480911  0.59931537  0.74948892  1
  Ti  Ti159  1  0.80592881  0.19661648  -0.00856224  1
  Mo  Mo160  1  0.80029517  0.00973313  0.74184997  1
  Mo  Mo161  1  0.28954427  0.90461427  0.61353646  1
  Mo  Mo162  1  0.20102094  0.00548482  0.50929431  1
  Mo  Mo163  1  0.60438687  0.80090245  -0.01661866  1
  Mo  Mo164  1  0.00419066  -0.00028114  0.27937397  1
  Mo  Mo165  1  0.30601249  0.29007160  0.10974638  1
  Mo  Mo166  1  0.29666364  0.31569018  0.36619821  1
  Mo  Mo167  1  0.20801659  0.39895151  0.50114205  1
  Mo  Mo168  1  0.80250129  0.79632539  0.25764246  1
  Mo  Mo169  1  0.30587388  0.70598761  0.11870901  1
  Mo  Mo170  1  0.21269416  0.59219959  0.49586115  1
  Mo  Mo171  1  -0.00591125  0.59576920  0.49039032  1
  Mo  Mo172  1  0.41324138  -0.00024372  0.00075223  1
  Mo  Mo173  1  0.09466709  0.30003005  0.36657982  1
  Mo  Mo174  1  0.11334631  0.48637508  0.61700103  1
  Mo  Mo175  1  0.58783587  -0.00080862  0.76069142  1
  Mo  Mo176  1  0.20216066  0.40083042  0.23623644  1
  Mo  Mo177  1  0.69401667  0.09255674  0.12426222  1
  Mo  Mo178  1  -0.00377853  0.19672022  0.27160025  1
  Mo  Mo179  1  -0.00265577  -0.00005335  -0.00525594  1
  Mo  Mo180  1  0.09623349  0.09470653  0.38104910  1
  Mo  Mo181  1  0.09768185  0.90178781  0.60849724  1
  Mo  Mo182  1  0.69953660  0.49789362  0.62860629  1
  Mo  Mo183  1  0.59967508  0.40428430  0.00151579  1
  Mo  Mo184  1  0.41022900  0.80301158  0.24042139  1
  Mo  Mo185  1  0.30703405  0.50961609  0.11949418  1
  Mo  Mo186  1  0.59609239  0.19695596  0.76870906  1
  Mo  Mo187  1  0.49934166  0.89598798  0.63234403  1
  Mo  Mo188  1  0.59962228  0.78534885  0.76092070  1
  Mo  Mo189  1  0.89440777  0.10238019  0.37798423  1
  Mo  Mo190  1  0.70491589  0.30425310  0.89128741  1
  Mo  Mo191  1  0.80340456  0.60909328  -0.01015130  1
  Mo  Mo192  1  0.90507366  0.10472968  0.86010669  1
  Mo  Mo193  1  0.89502497  0.49913733  0.12308915  1
  Mo  Mo194  1  0.40363683  0.19845449  0.00033192  1
  Mo  Mo195  1  0.89236160  0.90118994  0.63295854  1
  Mo  Mo196  1  0.60762037  0.19571322  0.50500564  1
  Mo  Mo197  1  0.19331953  0.19420464  -0.00340777  1
  Mo  Mo198  1  0.20010009  0.80205813  0.51255316  1
  Mo  Mo199  1  0.30544198  0.68575895  0.62493793  1
