# generated using pymatgen
data_HfZrTaTiMo
_symmetry_space_group_name_H-M   'P 1'
_cell_length_a   15.21089009
_cell_length_b   15.20736708
_cell_length_c   16.86060519
_cell_angle_alpha   89.99925480
_cell_angle_beta   89.95827518
_cell_angle_gamma   90.01943985
_symmetry_Int_Tables_number   1
_chemical_formula_structural   HfZrTaTiMo
_chemical_formula_sum   'Hf40 Zr40 Ta40 Ti40 Mo40'
_cell_volume   3900.15328480
_cell_formula_units_Z   40
loop_
 _symmetry_equiv_pos_site_id
 _symmetry_equiv_pos_as_xyz
  1  'x, y, z'
loop_
 _atom_site_type_symbol
 _atom_site_label
 _atom_site_symmetry_multiplicity
 _atom_site_fract_x
 _atom_site_fract_y
 _atom_site_fract_z
 _atom_site_occupancy
  Hf  Hf0  1  0.71028324  0.10838288  0.36620118  1
  Hf  Hf1  1  0.21494966  -0.01352768  -0.00019419  1
  Hf  Hf2  1  0.59171644  0.80439151  0.50025521  1
  Hf  Hf3  1  0.38844939  0.79953662  0.23663849  1
  Hf  Hf4  1  0.78567901  0.19765450  -0.00225673  1
  Hf  Hf5  1  0.90928875  0.31253926  0.87782770  1
  Hf  Hf6  1  0.80325116  0.59964371  0.24305448  1
  Hf  Hf7  1  0.59213741  0.81486870  0.01080565  1
  Hf  Hf8  1  0.60826990  0.00159752  0.50881919  1
  Hf  Hf9  1  0.20266880  0.39207614  0.25448089  1
  Hf  Hf10  1  0.09848275  0.30648929  0.11215173  1
  Hf  Hf11  1  0.38136316  0.58779754  0.00320144  1
  Hf  Hf12  1  0.72344151  0.50681908  0.60965158  1
  Hf  Hf13  1  0.92363012  0.10401123  0.37297081  1
  Hf  Hf14  1  0.10114743  0.69354810  0.64102745  1
  Hf  Hf15  1  0.09093437  0.70155715  0.38115713  1
  Hf  Hf16  1  0.60779426  0.02009607  -0.00013962  1
  Hf  Hf17  1  0.59309847  0.59616508  0.24904795  1
  Hf  Hf18  1  0.80887506  0.20913289  0.50207167  1
  Hf  Hf19  1  0.88092276  0.69136045  0.62930102  1
  Hf  Hf20  1  -0.03076280  0.58098332  0.75544050  1
  Hf  Hf21  1  0.50494585  0.49285443  0.88428489  1
  Hf  Hf22  1  0.70880831  0.10266055  0.14095217  1
  Hf  Hf23  1  0.27324034  0.68874301  0.12767508  1
  Hf  Hf24  1  -0.01175804  0.79960267  0.76045280  1
  Hf  Hf25  1  0.70267004  0.11101783  0.62931888  1
  Hf  Hf26  1  0.90399871  0.91911599  0.10751646  1
  Hf  Hf27  1  0.39928255  0.58851997  0.24784313  1
  Hf  Hf28  1  0.49174764  0.69505602  0.89175996  1
  Hf  Hf29  1  0.40068226  -0.00858367  0.50115780  1
  Hf  Hf30  1  0.11462283  0.28900068  0.89362939  1
  Hf  Hf31  1  0.29063078  0.68848183  0.37248559  1
  Hf  Hf32  1  0.10242209  0.68545756  0.85742329  1
  Hf  Hf33  1  0.88438045  0.30754091  0.36224701  1
  Hf  Hf34  1  0.40185041  0.76831435  0.75352051  1
  Hf  Hf35  1  0.10498528  0.48578922  0.86657129  1
  Hf  Hf36  1  0.09125493  0.28051142  0.37814395  1
  Hf  Hf37  1  0.59501978  0.79938978  0.24275794  1
  Hf  Hf38  1  -0.00658831  0.58718806  -0.00645019  1
  Hf  Hf39  1  0.81045143  -0.00349783  0.50364309  1
  Zr  Zr40  1  0.40841433  0.38858507  0.24634943  1
  Zr  Zr41  1  -0.00561737  0.81086508  0.50622251  1
  Zr  Zr42  1  0.18558518  0.18051939  0.24529781  1
  Zr  Zr43  1  0.29834461  0.88440125  0.37578118  1
  Zr  Zr44  1  0.68906816  0.10830612  0.86275627  1
  Zr  Zr45  1  0.31226655  0.08198116  0.12639446  1
  Zr  Zr46  1  0.00568389  0.79327389  -0.01581499  1
  Zr  Zr47  1  0.50713678  0.90623883  0.86677093  1
  Zr  Zr48  1  0.89793103  0.31116557  0.63103029  1
  Zr  Zr49  1  0.61204661  0.79736215  0.74633861  1
  Zr  Zr50  1  0.59744193  0.40776079  0.25203353  1
  Zr  Zr51  1  -0.00426539  0.39734434  0.49790228  1
  Zr  Zr52  1  -0.02027837  0.59861656  0.50005944  1
  Zr  Zr53  1  0.70284678  0.69929287  0.37333347  1
  Zr  Zr54  1  0.08905085  0.90966122  0.37187944  1
  Zr  Zr55  1  0.89694246  0.10066657  0.87739753  1
  Zr  Zr56  1  0.51361732  0.49949916  0.61419870  1
  Zr  Zr57  1  0.49615135  0.89420714  0.63362081  1
  Zr  Zr58  1  0.59409337  0.21098896  0.26117783  1
  Zr  Zr59  1  0.00733420  0.00724590  0.75490996  1
  Zr  Zr60  1  0.31174631  0.90716265  0.86012742  1
  Zr  Zr61  1  0.10350130  0.49072941  0.63841680  1
  Zr  Zr62  1  0.30037451  0.90520088  0.64186766  1
  Zr  Zr63  1  0.81141039  0.40433976  0.00018607  1
  Zr  Zr64  1  0.10583320  0.88238170  0.11763957  1
  Zr  Zr65  1  0.70408114  0.70246880  0.11657569  1
  Zr  Zr66  1  0.69366293  0.70367483  0.89347392  1
  Zr  Zr67  1  0.10155533  0.90370744  0.63578920  1
  Zr  Zr68  1  0.70889144  0.48531142  0.38752328  1
  Zr  Zr69  1  0.70905760  0.90162562  0.36018938  1
  Zr  Zr70  1  0.30314316  0.28410216  0.11747679  1
  Zr  Zr71  1  0.58710835  0.21280571  0.74077190  1
  Zr  Zr72  1  0.49737352  0.31517407  0.40042407  1
  Zr  Zr73  1  0.49928863  0.92192256  0.13195571  1
  Zr  Zr74  1  0.19018671  0.01171193  0.50474445  1
  Zr  Zr75  1  0.21966493  0.38006141  0.75099775  1
  Zr  Zr76  1  0.29309295  0.09478752  0.37325609  1
  Zr  Zr77  1  0.19507800  0.59115893  0.50416907  1
  Zr  Zr78  1  0.79642215  -0.00592015  0.74104461  1
  Zr  Zr79  1  0.49216266  0.30203603  0.60813178  1
  Ta  Ta80  1  0.62062700  0.40779339  0.75436600  1
  Ta  Ta81  1  0.70808273  0.90914746  0.13812484  1
  Ta  Ta82  1  0.48806017  0.70637283  0.37885875  1
  Ta  Ta83  1  0.69383500  0.50096435  0.10795259  1
  Ta  Ta84  1  0.20336613  0.79481651  0.76033735  1
  Ta  Ta85  1  0.41465075  0.40247116  0.75189353  1
  Ta  Ta86  1  0.41815850  0.38774225  0.01035062  1
  Ta  Ta87  1  0.20888391  0.78562011  -0.01891577  1
  Ta  Ta88  1  0.09562563  0.09285381  0.10145688  1
  Ta  Ta89  1  0.29766712  0.29253180  0.39422732  1
  Ta  Ta90  1  0.17427994  0.77939699  0.24708581  1
  Ta  Ta91  1  -0.01002025  0.20216799  0.00803600  1
  Ta  Ta92  1  0.79481985  0.22478357  0.75335367  1
  Ta  Ta93  1  0.59359694  0.00470845  0.73756619  1
  Ta  Ta94  1  0.31206863  0.49686494  0.62617334  1
  Ta  Ta95  1  0.68961212  0.30259598  0.12274242  1
  Ta  Ta96  1  0.10848463  0.50922449  0.12804699  1
  Ta  Ta97  1  0.82523391  0.00363399  0.25068258  1
  Ta  Ta98  1  0.68940334  0.69894559  0.61505431  1
  Ta  Ta99  1  0.30630919  0.48728276  0.38015748  1
  Ta  Ta100  1  0.01329364  0.61397482  0.24628730  1
  Ta  Ta101  1  0.80804703  0.42118482  0.76112040  1
  Ta  Ta102  1  0.30271311  0.69479569  0.62299889  1
  Ta  Ta103  1  0.89156660  0.29985656  0.12880482  1
  Ta  Ta104  1  0.48485189  0.10530048  0.86494684  1
  Ta  Ta105  1  0.90686142  0.50334979  0.12896423  1
  Ta  Ta106  1  0.50069582  0.10045520  0.38291789  1
  Ta  Ta107  1  0.89172042  0.90170907  0.88619562  1
  Ta  Ta108  1  0.10490389  0.27914560  0.61930899  1
  Ta  Ta109  1  0.91093444  0.71075099  0.12695305  1
  Ta  Ta110  1  0.59034483  0.59905897  0.75129114  1
  Ta  Ta111  1  0.01619639  0.00785145  0.23896828  1
  Ta  Ta112  1  0.10161864  0.49761310  0.36689950  1
  Ta  Ta113  1  0.50197332  0.90333101  0.36892372  1
  Ta  Ta114  1  0.38206467  0.21250375  0.74884247  1
  Ta  Ta115  1  0.10407651  0.09702984  0.89478975  1
  Ta  Ta116  1  0.21724699  0.41131397  -0.00197917  1
  Ta  Ta117  1  0.79873093  0.79903484  0.50117265  1
  Ta  Ta118  1  0.70324171  0.50884884  0.89368047  1
  Ta  Ta119  1  -0.00206721  0.40649605  0.24616705  1
  Ti  Ti120  1  0.19300787  0.59717735  -0.00940621  1
  Ti  Ti121  1  0.48360980  0.10532847  0.62259201  1
  Ti  Ti122  1  0.40871909  0.00345395  0.25852900  1
  Ti  Ti123  1  0.00429078  0.20218278  0.75673126  1
  Ti  Ti124  1  0.28849485  0.11075894  0.62588454  1
  Ti  Ti125  1  0.19242674  0.18335587  0.75302384  1
  Ti  Ti126  1  0.41086674  -0.00211556  -0.00314852  1
  Ti  Ti127  1  0.89562351  0.89815031  0.62949208  1
  Ti  Ti128  1  0.10382566  0.90418629  0.87298154  1
  Ti  Ti129  1  0.39708298  0.19938395  0.25891058  1
  Ti  Ti130  1  0.89699276  0.72333214  0.36071818  1
  Ti  Ti131  1  0.49535031  0.68657847  0.11258355  1
  Ti  Ti132  1  0.59936375  0.60015117  0.48848980  1
  Ti  Ti133  1  0.29970496  0.48895940  0.12988760  1
  Ti  Ti134  1  0.91034279  0.11224036  0.63324686  1
  Ti  Ti135  1  0.00046304  0.01584327  0.51136076  1
  Ti  Ti136  1  -0.01080346  0.19596048  0.23039324  1
  Ti  Ti137  1  0.39944749  0.59982924  0.49419080  1
  Ti  Ti138  1  0.31458718  0.30151845  0.88727870  1
  Ti  Ti139  1  0.69794867  0.31704329  0.61401804  1
  Ti  Ti140  1  0.50658675  0.29854089  0.87223889  1
  Ti  Ti141  1  0.60408047  0.20133583  0.49809263  1
  Ti  Ti142  1  0.88093920  0.69170014  0.88049161  1
  Ti  Ti143  1  0.40418666  0.18993702  -0.00282309  1
  Ti  Ti144  1  0.38735027  0.80534269  0.01273805  1
  Ti  Ti145  1  0.20435982  0.79935198  0.50879904  1
  Ti  Ti146  1  0.77533372  0.60372983  0.75649233  1
  Ti  Ti147  1  0.00462315  0.38885785  0.74830272  1
  Ti  Ti148  1  0.50611209  0.11732337  0.13325139  1
  Ti  Ti149  1  0.79858337  0.80855155  0.00288496  1
  Ti  Ti150  1  0.90319059  0.51259656  0.36442480  1
  Ti  Ti151  1  0.58896847  0.21582107  -0.00270495  1
  Ti  Ti152  1  0.49357968  0.69098077  0.61640372  1
  Ti  Ti153  1  0.20856961  -0.01964691  0.23824390  1
  Ti  Ti154  1  0.29600373  0.10814488  0.87565203  1
  Ti  Ti155  1  0.30113190  0.29665246  0.60511085  1
  Ti  Ti156  1  0.79262831  0.39890732  0.23839773  1
  Ti  Ti157  1  0.79596561  0.79860244  0.75267395  1
  Ti  Ti158  1  0.19785750  0.39682562  0.49952999  1
  Ti  Ti159  1  0.70460901  0.90864914  0.87758148  1
  Mo  Mo160  1  0.70883739  0.89104603  0.62099092  1
  Mo  Mo161  1  0.89512052  0.50445166  0.88014258  1
  Mo  Mo162  1  -0.01310498  0.81086433  0.24672900  1
  Mo  Mo163  1  0.90105386  0.90645056  0.37160098  1
  Mo  Mo164  1  0.49512536  0.51579114  0.38795176  1
  Mo  Mo165  1  0.38753890  0.40985983  0.50150919  1
  Mo  Mo166  1  0.29812922  0.68964475  0.87769550  1
  Mo  Mo167  1  0.09924456  0.09707085  0.36685709  1
  Mo  Mo168  1  0.69650863  0.31323952  0.87115140  1
  Mo  Mo169  1  0.09826256  0.10605423  0.63336763  1
  Mo  Mo170  1  0.80454363  0.61185328  0.48740675  1
  Mo  Mo171  1  0.40391081  0.58628208  0.75055235  1
  Mo  Mo172  1  0.59787167  0.00642649  0.25612168  1
  Mo  Mo173  1  0.80365940  0.60891002  0.01357633  1
  Mo  Mo174  1  0.19596563  0.58561587  0.25557456  1
  Mo  Mo175  1  0.39413739  0.18915223  0.50027013  1
  Mo  Mo176  1  0.19573397  0.20137821  0.50185322  1
  Mo  Mo177  1  0.20231556  0.00969980  0.76179391  1
  Mo  Mo178  1  0.70146182  0.29729334  0.38393349  1
  Mo  Mo179  1  0.79230828  -0.00243747  -0.00083378  1
  Mo  Mo180  1  0.60710563  0.39959637  0.49904161  1
  Mo  Mo181  1  0.59041806  0.59423022  0.00987422  1
  Mo  Mo182  1  0.00941957  0.40364055  0.01070036  1
  Mo  Mo183  1  0.00239388  0.19054274  0.50534254  1
  Mo  Mo184  1  0.20690960  0.19580154  -0.00022916  1
  Mo  Mo185  1  0.50306662  0.28850226  0.12198672  1
  Mo  Mo186  1  0.39895037  0.03163697  0.74363727  1
  Mo  Mo187  1  0.90387204  0.10548345  0.12030366  1
  Mo  Mo188  1  0.23179894  0.59849999  0.75194500  1
  Mo  Mo189  1  0.30023588  0.88584376  0.12482992  1
  Mo  Mo190  1  0.09318652  0.69031920  0.11706445  1
  Mo  Mo191  1  0.81151205  0.80755465  0.23874380  1
  Mo  Mo192  1  0.90029685  0.49939416  0.62853009  1
  Mo  Mo193  1  0.30549892  0.48792338  0.87546401  1
  Mo  Mo194  1  0.39553258  0.78803087  0.50175321  1
  Mo  Mo195  1  0.60767908  0.38876923  -0.00431791  1
  Mo  Mo196  1  0.00251018  0.00045730  -0.01139644  1
  Mo  Mo197  1  0.80396504  0.20880095  0.24319718  1
  Mo  Mo198  1  0.50300904  0.49575280  0.11137740  1
  Mo  Mo199  1  0.81055156  0.40681568  0.49671563  1
