# generated using pymatgen
data_HfZrTaTiMo
_symmetry_space_group_name_H-M   'P 1'
_cell_length_a   15.20914506
_cell_length_b   15.22693656
_cell_length_c   16.85182999
_cell_angle_alpha   89.99474110
_cell_angle_beta   89.95658016
_cell_angle_gamma   89.98201272
_symmetry_Int_Tables_number   1
_chemical_formula_structural   HfZrTaTiMo
_chemical_formula_sum   'Hf40 Zr40 Ta40 Ti40 Mo40'
_cell_volume   3902.69185263
_cell_formula_units_Z   40
loop_
 _symmetry_equiv_pos_site_id
 _symmetry_equiv_pos_as_xyz
  1  'x, y, z'
loop_
 _atom_site_type_symbol
 _atom_site_label
 _atom_site_symmetry_multiplicity
 _atom_site_fract_x
 _atom_site_fract_y
 _atom_site_fract_z
 _atom_site_occupancy
  Hf  Hf0  1  0.00724499  0.80818214  0.49291075  1
  Hf  Hf1  1  0.39937214  0.60962765  0.75157843  1
  Hf  Hf2  1  0.60359963  0.01616362  0.24774563  1
  Hf  Hf3  1  0.61570341  -0.01309952  -0.00716175  1
  Hf  Hf4  1  0.09204417  0.50697018  0.60967587  1
  Hf  Hf5  1  0.89270014  0.89634624  0.11919350  1
  Hf  Hf6  1  0.39029258  0.82057437  0.75101296  1
  Hf  Hf7  1  0.08611488  0.89131728  0.87982820  1
  Hf  Hf8  1  0.29766503  0.70770748  0.88164999  1
  Hf  Hf9  1  0.49055530  0.49567033  0.13303682  1
  Hf  Hf10  1  0.71207990  0.70350505  0.36606572  1
  Hf  Hf11  1  0.50564320  0.71620113  0.88693690  1
  Hf  Hf12  1  0.30098449  0.32244654  0.13023333  1
  Hf  Hf13  1  0.11220403  0.49539452  0.11600252  1
  Hf  Hf14  1  0.20068340  0.40412940  0.75032928  1
  Hf  Hf15  1  0.70419199  0.29474282  0.63719393  1
  Hf  Hf16  1  0.18070840  0.60375714  0.75801605  1
  Hf  Hf17  1  0.10309458  0.09882386  0.62565219  1
  Hf  Hf18  1  -0.00453002  0.00875615  0.49616682  1
  Hf  Hf19  1  -0.00262629  0.00185114  0.25182169  1
  Hf  Hf20  1  0.81362209  0.60849523  0.00422784  1
  Hf  Hf21  1  0.60800544  0.60512026  0.00330239  1
  Hf  Hf22  1  0.60646538  0.20982760  0.50131351  1
  Hf  Hf23  1  0.40266381  0.19564386  0.25430861  1
  Hf  Hf24  1  0.88594868  0.90628660  0.86443263  1
  Hf  Hf25  1  0.49781038  0.10464559  0.61861333  1
  Hf  Hf26  1  0.81218090  0.59774955  0.23391373  1
  Hf  Hf27  1  0.30905123  0.09398372  0.87900259  1
  Hf  Hf28  1  0.59693887  0.78708644  0.49783033  1
  Hf  Hf29  1  0.19825738  0.19499657  0.49651810  1
  Hf  Hf30  1  0.50555308  0.31074926  0.62803552  1
  Hf  Hf31  1  0.49295629  0.70560752  0.12536032  1
  Hf  Hf32  1  -0.00073725  0.79264808  0.25319883  1
  Hf  Hf33  1  0.28376496  0.89478917  0.61712044  1
  Hf  Hf34  1  0.91555270  0.69583642  0.63755703  1
  Hf  Hf35  1  0.20575209  -0.01117264  0.47356487  1
  Hf  Hf36  1  0.50549102  0.50971317  0.62171811  1
  Hf  Hf37  1  0.10157660  0.70391726  0.11449300  1
  Hf  Hf38  1  0.50397727  0.09387075  0.11688524  1
  Hf  Hf39  1  -0.01238076  0.17546682  0.00012049  1
  Zr  Zr40  1  0.40276049  0.39242192  -0.00711977  1
  Zr  Zr41  1  0.89921413  0.30110422  0.88141000  1
  Zr  Zr42  1  0.20466135  0.20439825  0.00211229  1
  Zr  Zr43  1  0.09198796  0.90113184  0.63898396  1
  Zr  Zr44  1  0.30038304  0.50778523  0.61405957  1
  Zr  Zr45  1  0.10011276  0.90111435  0.11448382  1
  Zr  Zr46  1  0.78191527  0.81517568  -0.00738766  1
  Zr  Zr47  1  0.40524009  -0.02708094  -0.01040644  1
  Zr  Zr48  1  0.18827397  0.20833249  0.24232843  1
  Zr  Zr49  1  -0.00326213  0.41900647  0.75769633  1
  Zr  Zr50  1  0.41218203  0.40041048  0.48433192  1
  Zr  Zr51  1  0.70410392  0.72331497  0.13359325  1
  Zr  Zr52  1  0.29897521  0.09328950  0.11866017  1
  Zr  Zr53  1  -0.00615515  0.38604953  0.24885623  1
  Zr  Zr54  1  0.91011979  0.68733019  0.37839434  1
  Zr  Zr55  1  0.58042506  0.00322853  0.75551279  1
  Zr  Zr56  1  0.59127521  0.79410559  0.73709396  1
  Zr  Zr57  1  0.89943925  0.90115328  0.65246687  1
  Zr  Zr58  1  0.60125288  -0.00595723  0.51090617  1
  Zr  Zr59  1  0.30441438  0.88743461  0.13508204  1
  Zr  Zr60  1  0.19432726  0.41096647  0.26407021  1
  Zr  Zr61  1  0.11789386  0.70433038  0.60890163  1
  Zr  Zr62  1  0.88799057  0.90392233  0.37128468  1
  Zr  Zr63  1  0.80243528  0.59404296  0.50223419  1
  Zr  Zr64  1  0.30421430  0.29452736  0.62175353  1
  Zr  Zr65  1  0.01062899  0.58794581  0.24482304  1
  Zr  Zr66  1  0.41075722  0.19296553  0.75800313  1
  Zr  Zr67  1  0.69932784  0.29996030  0.87151095  1
  Zr  Zr68  1  0.19574689  0.19406881  0.75365658  1
  Zr  Zr69  1  0.38903685  0.80986840  0.48072017  1
  Zr  Zr70  1  0.08892027  0.11798226  0.36725589  1
  Zr  Zr71  1  0.79845155  0.80447289  0.51389176  1
  Zr  Zr72  1  0.79167746  0.20408314  0.24169391  1
  Zr  Zr73  1  0.09879760  0.29908777  0.88160189  1
  Zr  Zr74  1  0.80802424  0.59182724  0.75764751  1
  Zr  Zr75  1  0.79395776  0.39092146  0.49918860  1
  Zr  Zr76  1  0.51320810  0.29389056  0.12946086  1
  Zr  Zr77  1  0.70236826  0.10314988  0.37864119  1
  Zr  Zr78  1  0.59620841  0.59708956  0.25828338  1
  Zr  Zr79  1  0.39253792  0.59301945  0.00295807  1
  Ta  Ta80  1  0.81342306  0.19105294  0.75056643  1
  Ta  Ta81  1  0.19351511  0.39262952  0.49136836  1
  Ta  Ta82  1  0.70177733  0.90517156  0.37617089  1
  Ta  Ta83  1  0.91125782  0.70183704  0.87066449  1
  Ta  Ta84  1  0.70554238  0.30778417  0.37331574  1
  Ta  Ta85  1  0.70959720  0.10961327  0.11116081  1
  Ta  Ta86  1  0.40380964  0.40722366  0.75649620  1
  Ta  Ta87  1  0.50467620  0.90798657  0.37372546  1
  Ta  Ta88  1  0.70234210  0.50232356  0.88189324  1
  Ta  Ta89  1  0.50284573  0.50243203  0.87455254  1
  Ta  Ta90  1  0.40143456  0.40653588  0.26792821  1
  Ta  Ta91  1  0.20595958  0.40951631  -0.00578221  1
  Ta  Ta92  1  0.11307684  0.69146902  0.38965260  1
  Ta  Ta93  1  0.71944726  0.09297854  0.88174153  1
  Ta  Ta94  1  0.49524403  0.09983828  0.38123854  1
  Ta  Ta95  1  0.20120714  -0.00023958  0.26125608  1
  Ta  Ta96  1  0.51109967  0.89247225  0.13034021  1
  Ta  Ta97  1  0.20214289  0.79907693  0.26886996  1
  Ta  Ta98  1  0.69456648  0.49350613  0.62892441  1
  Ta  Ta99  1  0.60407406  0.19908043  -0.01006858  1
  Ta  Ta100  1  -0.00699170  0.21063879  0.50330342  1
  Ta  Ta101  1  0.20779019  -0.00802588  0.76470328  1
  Ta  Ta102  1  0.60520634  0.58037505  0.48046918  1
  Ta  Ta103  1  0.09374199  0.30346235  0.62445958  1
  Ta  Ta104  1  0.69541547  0.68475464  0.62942405  1
  Ta  Ta105  1  0.60845496  0.39325141  0.25294886  1
  Ta  Ta106  1  0.79777592  0.00668747  0.51871104  1
  Ta  Ta107  1  0.60337145  0.81178844  0.25916639  1
  Ta  Ta108  1  0.69965916  0.49000149  0.12141664  1
  Ta  Ta109  1  0.90616834  0.30066831  0.63494187  1
  Ta  Ta110  1  0.60113568  0.59617458  0.75696107  1
  Ta  Ta111  1  0.30600948  0.08303352  0.62539784  1
  Ta  Ta112  1  0.29439790  0.50090845  0.87096822  1
  Ta  Ta113  1  0.08867082  0.50311719  0.39322173  1
  Ta  Ta114  1  0.29612334  0.29424971  0.37471850  1
  Ta  Ta115  1  0.09246061  0.09340831  0.12385992  1
  Ta  Ta116  1  0.40571494  0.79216906  0.26694493  1
  Ta  Ta117  1  0.89699841  0.49465415  0.62406194  1
  Ta  Ta118  1  0.59947113  0.40673651  0.75765472  1
  Ta  Ta119  1  0.41301680  0.60938090  0.47848702  1
  Ti  Ti120  1  0.80679709  0.19465152  0.50995891  1
  Ti  Ti121  1  0.30537058  0.70002253  0.61345484  1
  Ti  Ti122  1  0.09277285  0.69807983  0.89366478  1
  Ti  Ti123  1  0.70672903  0.70374977  0.86786740  1
  Ti  Ti124  1  0.30406378  0.30443220  0.87183369  1
  Ti  Ti125  1  0.07992740  0.50632183  0.89570656  1
  Ti  Ti126  1  0.79843878  0.40158979  0.75560010  1
  Ti  Ti127  1  0.29293174  0.50674785  0.38578262  1
  Ti  Ti128  1  -0.00897650  0.39662983  0.49734679  1
  Ti  Ti129  1  0.19284198  0.79687432  0.75917606  1
  Ti  Ti130  1  0.79666668  -0.00235084  0.23981769  1
  Ti  Ti131  1  -0.01332743  0.19858484  0.23286476  1
  Ti  Ti132  1  0.69693826  0.89572723  0.63582234  1
  Ti  Ti133  1  0.79661718  0.40031875  0.00164400  1
  Ti  Ti134  1  0.61108614  0.19179084  0.75800990  1
  Ti  Ti135  1  0.29823918  0.69173264  0.13177774  1
  Ti  Ti136  1  0.59972796  0.40025659  -0.00273475  1
  Ti  Ti137  1  0.40124665  -0.00554111  0.25469542  1
  Ti  Ti138  1  0.39463278  0.59926183  0.26816658  1
  Ti  Ti139  1  0.88511386  0.29178468  0.10905515  1
  Ti  Ti140  1  0.41002608  0.19727194  -0.00761304  1
  Ti  Ti141  1  0.49631316  0.69892055  0.61729288  1
  Ti  Ti142  1  0.18658490  0.00445612  -0.01323828  1
  Ti  Ti143  1  0.00276830  0.02614004  0.76434016  1
  Ti  Ti144  1  0.90362546  0.10525614  0.63163244  1
  Ti  Ti145  1  0.39427071  0.19088837  0.49017125  1
  Ti  Ti146  1  0.20533143  0.60383999  0.25534725  1
  Ti  Ti147  1  0.21129247  0.80657393  -0.00131235  1
  Ti  Ti148  1  0.47831475  0.90812036  0.61653319  1
  Ti  Ti149  1  0.90963182  0.49093619  0.10929687  1
  Ti  Ti150  1  0.80033829  0.39928973  0.23928191  1
  Ti  Ti151  1  0.20333522  0.59966831  -0.00028458  1
  Ti  Ti152  1  0.89110119  0.48889618  0.37291099  1
  Ti  Ti153  1  0.08843604  0.30051073  0.10893967  1
  Ti  Ti154  1  0.78604779  0.00815992  0.74295725  1
  Ti  Ti155  1  0.90350417  0.29092201  0.37378008  1
  Ti  Ti156  1  0.50981733  0.29679185  0.37114466  1
  Ti  Ti157  1  0.68590502  0.88931716  0.85782439  1
  Ti  Ti158  1  0.50202730  0.29883259  0.87075987  1
  Ti  Ti159  1  0.88913880  0.10401989  0.37681624  1
  Mo  Mo160  1  0.00842847  0.77978980  0.75965466  1
  Mo  Mo161  1  0.89575179  0.50140870  0.89166852  1
  Mo  Mo162  1  0.09773195  0.89760652  0.36666627  1
  Mo  Mo163  1  0.20229654  0.80034078  0.47741527  1
  Mo  Mo164  1  0.90934103  0.70314134  0.11939460  1
  Mo  Mo165  1  0.28887690  0.89428358  0.87875276  1
  Mo  Mo166  1  0.00686230  0.59888225  0.75906734  1
  Mo  Mo167  1  0.69879778  0.30809620  0.11619194  1
  Mo  Mo168  1  0.79691072  0.80883470  0.24890059  1
  Mo  Mo169  1  0.30128433  0.51213574  0.13662874  1
  Mo  Mo170  1  -0.00334062  0.59209218  0.49910848  1
  Mo  Mo171  1  0.49445657  0.90106166  0.87217612  1
  Mo  Mo172  1  0.39781886  0.00935479  0.49223209  1
  Mo  Mo173  1  0.39160411  -0.00019386  0.75187891  1
  Mo  Mo174  1  0.70965576  0.49198402  0.36072028  1
  Mo  Mo175  1  0.69478641  0.91617816  0.13013954  1
  Mo  Mo176  1  0.00205967  0.59745629  0.00667971  1
  Mo  Mo177  1  0.79136873  0.79552590  0.75061884  1
  Mo  Mo178  1  0.30708158  0.90613447  0.35655438  1
  Mo  Mo179  1  0.58931900  0.80959522  -0.00090247  1
  Mo  Mo180  1  0.60680073  0.40175880  0.49291329  1
  Mo  Mo181  1  0.09893937  0.09405538  0.87648106  1
  Mo  Mo182  1  0.70797342  0.09981596  0.63058451  1
  Mo  Mo183  1  -0.00376314  -0.00647007  -0.00744752  1
  Mo  Mo184  1  0.30561645  0.10516974  0.36476140  1
  Mo  Mo185  1  0.39549074  0.79300942  0.01000874  1
  Mo  Mo186  1  0.60019127  0.20610458  0.25488401  1
  Mo  Mo187  1  0.50777055  0.70052157  0.37229055  1
  Mo  Mo188  1  0.90179381  0.09583952  0.12795144  1
  Mo  Mo189  1  0.30167213  0.69456516  0.36963700  1
  Mo  Mo190  1  -0.01529361  0.78738321  -0.00107359  1
  Mo  Mo191  1  -0.00093129  0.39429138  0.00779372  1
  Mo  Mo192  1  0.00125630  0.20461196  0.74505304  1
  Mo  Mo193  1  0.09033827  0.30750562  0.38417523  1
  Mo  Mo194  1  0.79431458  0.20185358  0.00189706  1
  Mo  Mo195  1  0.90002422  0.09876196  0.86734144  1
  Mo  Mo196  1  0.50328170  0.49188732  0.36728505  1
  Mo  Mo197  1  0.51214206  0.10605776  0.88395374  1
  Mo  Mo198  1  0.21257318  0.59550856  0.49519135  1
  Mo  Mo199  1  0.81743254  0.01865991  0.00280021  1
