# generated using pymatgen
data_HfZrTaTiMo
_symmetry_space_group_name_H-M   'P 1'
_cell_length_a   15.20536998
_cell_length_b   15.21269401
_cell_length_c   16.84407268
_cell_angle_alpha   90.02787421
_cell_angle_beta   89.97954811
_cell_angle_gamma   89.96522263
_symmetry_Int_Tables_number   1
_chemical_formula_structural   HfZrTaTiMo
_chemical_formula_sum   'Hf40 Zr40 Ta40 Ti40 Mo40'
_cell_volume   3896.27919541
_cell_formula_units_Z   40
loop_
 _symmetry_equiv_pos_site_id
 _symmetry_equiv_pos_as_xyz
  1  'x, y, z'
loop_
 _atom_site_type_symbol
 _atom_site_label
 _atom_site_symmetry_multiplicity
 _atom_site_fract_x
 _atom_site_fract_y
 _atom_site_fract_z
 _atom_site_occupancy
  Hf  Hf0  1  0.88929774  0.50636332  0.13317420  1
  Hf  Hf1  1  0.38885045  0.18963354  0.49357470  1
  Hf  Hf2  1  0.90252984  0.49606543  0.61769077  1
  Hf  Hf3  1  0.60300618  0.20185387  0.24804970  1
  Hf  Hf4  1  0.49695033  0.68352945  0.88711639  1
  Hf  Hf5  1  0.72022093  0.89589500  0.13149015  1
  Hf  Hf6  1  0.31502990  0.69569287  0.36796381  1
  Hf  Hf7  1  0.41429698  0.39186400  0.00391110  1
  Hf  Hf8  1  0.79242604  0.59854892  0.74647470  1
  Hf  Hf9  1  0.57685084  0.00498022  0.76634872  1
  Hf  Hf10  1  0.90545456  0.50103909  0.87580888  1
  Hf  Hf11  1  0.19527169  0.02619818  0.74483174  1
  Hf  Hf12  1  0.02079278  0.20157360  0.75415868  1
  Hf  Hf13  1  0.69930303  0.11813392  0.86149038  1
  Hf  Hf14  1  0.48937657  0.50046655  0.37511755  1
  Hf  Hf15  1  0.89943820  0.90070599  0.87540042  1
  Hf  Hf16  1  0.91878338  0.09567870  0.62914180  1
  Hf  Hf17  1  0.80401596  0.60246264  0.00239532  1
  Hf  Hf18  1  0.48169251  0.10645085  0.63117813  1
  Hf  Hf19  1  0.58925452  0.41228932  0.73527653  1
  Hf  Hf20  1  0.10761773  0.91498555  0.13955934  1
  Hf  Hf21  1  0.90211707  0.10170004  0.12763493  1
  Hf  Hf22  1  0.29285028  0.89707212  0.86473586  1
  Hf  Hf23  1  0.69217846  0.91101691  0.37095359  1
  Hf  Hf24  1  0.39909815  0.38923368  0.51158775  1
  Hf  Hf25  1  0.49268084  0.10562286  0.12991705  1
  Hf  Hf26  1  0.90140741  0.29749332  0.38175805  1
  Hf  Hf27  1  0.20430122  0.39788382  0.23286453  1
  Hf  Hf28  1  0.69322614  0.49952291  0.86838928  1
  Hf  Hf29  1  0.79860150  0.79561401  0.74402072  1
  Hf  Hf30  1  0.79968606  0.19764955  0.50191654  1
  Hf  Hf31  1  0.20519393  0.00354651  0.49814321  1
  Hf  Hf32  1  0.00748982  0.60243046  0.74465396  1
  Hf  Hf33  1  0.29111886  0.50126004  0.38150482  1
  Hf  Hf34  1  0.20669494  0.79655021  0.01474346  1
  Hf  Hf35  1  0.69605364  0.69042028  0.12801864  1
  Hf  Hf36  1  0.80445341  0.79752023  0.49012143  1
  Hf  Hf37  1  0.28911759  0.89643714  0.63576823  1
  Hf  Hf38  1  0.50683694  0.08896088  0.37145647  1
  Hf  Hf39  1  0.39633535  -0.00248699  -0.00061165  1
  Zr  Zr40  1  0.10678215  0.30337584  0.60970709  1
  Zr  Zr41  1  0.39339563  0.38220545  0.73101220  1
  Zr  Zr42  1  0.29303681  0.68741103  0.88248108  1
  Zr  Zr43  1  -0.00454754  0.80615646  0.01406460  1
  Zr  Zr44  1  0.10481779  0.30882642  0.88919758  1
  Zr  Zr45  1  0.60724641  0.01121134  -0.00253122  1
  Zr  Zr46  1  0.00620482  0.40409037  0.24651160  1
  Zr  Zr47  1  0.48346476  0.70008675  0.11456597  1
  Zr  Zr48  1  0.59626111  0.57268988  0.00706260  1
  Zr  Zr49  1  0.68821374  0.09651616  0.63398586  1
  Zr  Zr50  1  0.90607910  0.10538152  0.87419346  1
  Zr  Zr51  1  0.09921522  0.91119846  0.87369414  1
  Zr  Zr52  1  0.59682590  0.21427206  0.00099837  1
  Zr  Zr53  1  0.00316677  0.01104233  0.00950664  1
  Zr  Zr54  1  0.69251709  0.50076264  0.38319394  1
  Zr  Zr55  1  0.50263407  0.90106808  0.62305076  1
  Zr  Zr56  1  0.90107596  0.49986075  0.37594887  1
  Zr  Zr57  1  0.70037240  0.89938565  0.88262979  1
  Zr  Zr58  1  0.50815905  0.89529855  0.11704691  1
  Zr  Zr59  1  0.90735339  0.70303582  0.61316868  1
  Zr  Zr60  1  0.29766266  0.09666962  0.36070532  1
  Zr  Zr61  1  0.90475676  0.90429063  0.35670328  1
  Zr  Zr62  1  0.39469432  0.78726773  0.50657254  1
  Zr  Zr63  1  0.00359139  0.80665476  0.74607020  1
  Zr  Zr64  1  0.39263042  0.78024838  0.74484811  1
  Zr  Zr65  1  0.90756056  0.29562001  0.62279471  1
  Zr  Zr66  1  0.02391564  0.79678353  0.25999034  1
  Zr  Zr67  1  0.21009215  0.60606258  0.74275146  1
  Zr  Zr68  1  0.68950993  0.69567668  0.61476928  1
  Zr  Zr69  1  0.00290464  0.20512039  0.24785233  1
  Zr  Zr70  1  0.59741828  0.78842951  0.75325347  1
  Zr  Zr71  1  0.69840134  0.29372381  0.64007025  1
  Zr  Zr72  1  0.19461477  0.20206794  0.23557885  1
  Zr  Zr73  1  0.79701962  -0.00298255  0.50371428  1
  Zr  Zr74  1  0.59567915  0.79237806  0.25555479  1
  Zr  Zr75  1  0.01174383  0.60429046  0.49485154  1
  Zr  Zr76  1  0.21649854  0.40565517  0.02238938  1
  Zr  Zr77  1  0.11582650  0.50986275  0.88624308  1
  Zr  Zr78  1  0.80419833  -0.00314560  0.74246686  1
  Zr  Zr79  1  0.89890325  0.71402490  0.14802813  1
  Ta  Ta80  1  0.37446280  0.58723049  0.01297160  1
  Ta  Ta81  1  0.09765232  0.70700259  0.88051791  1
  Ta  Ta82  1  0.78605818  0.39936497  0.00048113  1
  Ta  Ta83  1  -0.00808584  0.40504915  0.00908403  1
  Ta  Ta84  1  0.59806299  0.39821125  0.25215353  1
  Ta  Ta85  1  0.01391456  0.81114857  0.48415433  1
  Ta  Ta86  1  0.69776862  0.30936087  0.12472760  1
  Ta  Ta87  1  0.00663403  0.00159332  0.48838226  1
  Ta  Ta88  1  0.89563931  0.30268706  0.87737783  1
  Ta  Ta89  1  0.69980526  0.30635178  0.86119947  1
  Ta  Ta90  1  0.19218915  0.60198377  0.23740207  1
  Ta  Ta91  1  0.00841135  0.40553925  0.75035982  1
  Ta  Ta92  1  0.20653625  0.00844633  0.00414131  1
  Ta  Ta93  1  0.59183017  0.19932977  0.49906362  1
  Ta  Ta94  1  0.69350086  0.29969674  0.38070667  1
  Ta  Ta95  1  0.79445692  0.20520663  0.24843228  1
  Ta  Ta96  1  0.19862992  0.40091882  0.74109763  1
  Ta  Ta97  1  0.29986985  0.50921125  0.60950695  1
  Ta  Ta98  1  0.70272917  0.69679704  0.88153855  1
  Ta  Ta99  1  0.09087660  0.91346744  0.62446236  1
  Ta  Ta100  1  0.11935844  0.71576393  0.61578674  1
  Ta  Ta101  1  0.38752610  0.19747006  0.00132985  1
  Ta  Ta102  1  0.79149356  0.39565601  0.25095063  1
  Ta  Ta103  1  0.79245650  0.40004271  0.50449823  1
  Ta  Ta104  1  0.00510056  0.60988627  0.00659100  1
  Ta  Ta105  1  0.89455962  0.30287977  0.11888029  1
  Ta  Ta106  1  0.29839503  0.89642298  0.36640753  1
  Ta  Ta107  1  0.49074341  0.89052594  0.37339628  1
  Ta  Ta108  1  0.90019690  0.10054168  0.37026310  1
  Ta  Ta109  1  0.79087259  0.59978956  0.25667605  1
  Ta  Ta110  1  0.11284488  0.11432111  0.88751416  1
  Ta  Ta111  1  0.79910029  0.01172323  0.24639639  1
  Ta  Ta112  1  0.48850647  0.89045978  0.88396230  1
  Ta  Ta113  1  0.70163994  0.10487733  0.37695279  1
  Ta  Ta114  1  0.49623305  0.28709745  0.86484110  1
  Ta  Ta115  1  0.90195984  0.69640410  0.36512971  1
  Ta  Ta116  1  0.59436691  0.39302093  0.51154605  1
  Ta  Ta117  1  0.28854518  0.30568134  0.37743625  1
  Ta  Ta118  1  0.59566543  0.80230531  0.48961000  1
  Ta  Ta119  1  0.40145428  -0.01286496  0.24618937  1
  Ti  Ti120  1  0.49357818  0.67925255  0.62258660  1
  Ti  Ti121  1  0.69288199  0.89928771  0.61754685  1
  Ti  Ti122  1  0.40237083  -0.00827210  0.49722028  1
  Ti  Ti123  1  0.39622862  0.60083036  0.23931203  1
  Ti  Ti124  1  0.90687096  0.90041761  0.61689686  1
  Ti  Ti125  1  0.11175846  0.11232533  0.61056475  1
  Ti  Ti126  1  0.30658485  0.48870483  0.87183814  1
  Ti  Ti127  1  0.10761624  0.50454709  0.61299258  1
  Ti  Ti128  1  0.58663365  0.60295736  0.49419052  1
  Ti  Ti129  1  0.31357098  0.89143206  0.12993648  1
  Ti  Ti130  1  0.80363577  0.80133404  0.00250238  1
  Ti  Ti131  1  0.29344824  0.08853303  0.13391024  1
  Ti  Ti132  1  0.49587054  0.29901824  0.37325912  1
  Ti  Ti133  1  0.39820496  0.39700305  0.24601196  1
  Ti  Ti134  1  0.09340858  0.51118148  0.12312734  1
  Ti  Ti135  1  0.11547263  0.69266185  0.37611453  1
  Ti  Ti136  1  0.09848090  0.10186786  0.37453379  1
  Ti  Ti137  1  0.49481260  0.48710214  0.87426813  1
  Ti  Ti138  1  0.00788233  0.39534476  0.49186708  1
  Ti  Ti139  1  0.60413154  0.79491112  -0.00300998  1
  Ti  Ti140  1  0.79916634  0.20179307  0.00273845  1
  Ti  Ti141  1  0.49776683  0.30207299  0.13034239  1
  Ti  Ti142  1  0.90092989  0.70164316  0.87639311  1
  Ti  Ti143  1  0.50425075  0.49128237  0.13180382  1
  Ti  Ti144  1  0.80235509  0.00225794  0.01086207  1
  Ti  Ti145  1  0.41271438  0.58044733  0.74339128  1
  Ti  Ti146  1  0.79783861  0.59904809  0.49529918  1
  Ti  Ti147  1  0.80964855  0.39882750  0.74672307  1
  Ti  Ti148  1  0.39556674  0.20844975  0.25070276  1
  Ti  Ti149  1  0.21781354  0.79865225  0.24460609  1
  Ti  Ti150  1  0.29769883  0.29374745  0.86974153  1
  Ti  Ti151  1  0.69300697  0.50649241  0.61810758  1
  Ti  Ti152  1  0.10724504  0.49352204  0.37748428  1
  Ti  Ti153  1  0.19680418  0.20149247  0.02152323  1
  Ti  Ti154  1  0.59360376  0.59269872  0.25080479  1
  Ti  Ti155  1  0.69663816  0.69883419  0.37359598  1
  Ti  Ti156  1  0.60537395  0.00520145  0.23964958  1
  Ti  Ti157  1  0.29459053  0.27049690  0.62476570  1
  Ti  Ti158  1  0.19831803  0.80407452  0.49054036  1
  Ti  Ti159  1  0.30354936  0.10554082  0.87365563  1
  Mo  Mo160  1  0.21033399  0.21612634  0.75423454  1
  Mo  Mo161  1  0.10453341  0.10467318  0.11745341  1
  Mo  Mo162  1  0.50698878  0.69304355  0.37385242  1
  Mo  Mo163  1  0.79762219  0.79840528  0.26588925  1
  Mo  Mo164  1  0.69643394  0.49294428  0.13637094  1
  Mo  Mo165  1  0.48654921  0.10240635  0.87834639  1
  Mo  Mo166  1  0.00592973  0.00772816  0.74524064  1
  Mo  Mo167  1  0.90135472  0.90698930  0.14910825  1
  Mo  Mo168  1  0.39365362  -0.00409964  0.76137603  1
  Mo  Mo169  1  0.11529481  0.90724070  0.36701580  1
  Mo  Mo170  1  0.31615922  0.28838119  0.12760785  1
  Mo  Mo171  1  0.20099335  0.40440192  0.50386601  1
  Mo  Mo172  1  0.58780982  0.60084091  0.75381170  1
  Mo  Mo173  1  0.29997859  0.69706767  0.62011430  1
  Mo  Mo174  1  0.00606497  0.18793509  0.48722196  1
  Mo  Mo175  1  0.60150150  0.39205750  -0.00433801  1
  Mo  Mo176  1  0.19804453  0.20231399  0.48788477  1
  Mo  Mo177  1  0.20694985  0.61212562  0.50169111  1
  Mo  Mo178  1  0.10103726  0.69843101  0.12956474  1
  Mo  Mo179  1  -0.00201471  0.21297359  0.00298340  1
  Mo  Mo180  1  0.40116987  0.79774318  0.25288907  1
  Mo  Mo181  1  0.20096948  -0.00447578  0.25220346  1
  Mo  Mo182  1  0.19090287  0.60342516  0.02207083  1
  Mo  Mo183  1  0.10894712  0.30385378  0.38562980  1
  Mo  Mo184  1  0.39016729  0.18259360  0.75620364  1
  Mo  Mo185  1  0.40530559  0.59516033  0.50085614  1
  Mo  Mo186  1  0.58754774  0.20849465  0.75475016  1
  Mo  Mo187  1  0.70546090  0.10826195  0.12533364  1
  Mo  Mo188  1  0.31268285  0.50197577  0.13710744  1
  Mo  Mo189  1  0.00753021  0.59745585  0.26086509  1
  Mo  Mo190  1  0.80760288  0.21068213  0.75703550  1
  Mo  Mo191  1  0.29354974  0.09538031  0.62169368  1
  Mo  Mo192  1  0.09185676  0.30330259  0.10888314  1
  Mo  Mo193  1  0.49756153  0.29050436  0.62341355  1
  Mo  Mo194  1  0.59015727  -0.00100579  0.49655948  1
  Mo  Mo195  1  0.00636408  0.01139462  0.25395561  1
  Mo  Mo196  1  0.50207975  0.50276508  0.61334543  1
  Mo  Mo197  1  0.18829003  0.79979035  0.74793103  1
  Mo  Mo198  1  0.29736242  0.70138426  0.13295785  1
  Mo  Mo199  1  0.39919053  0.79727690  -0.00592627  1
