# generated using pymatgen
data_HfZrTaTiMo
_symmetry_space_group_name_H-M   'P 1'
_cell_length_a   15.21639828
_cell_length_b   15.20667901
_cell_length_c   16.84157748
_cell_angle_alpha   89.92531581
_cell_angle_beta   89.89861838
_cell_angle_gamma   90.01857461
_symmetry_Int_Tables_number   1
_chemical_formula_structural   HfZrTaTiMo
_chemical_formula_sum   'Hf40 Zr40 Ta40 Ti40 Mo40'
_cell_volume   3896.97788735
_cell_formula_units_Z   40
loop_
 _symmetry_equiv_pos_site_id
 _symmetry_equiv_pos_as_xyz
  1  'x, y, z'
loop_
 _atom_site_type_symbol
 _atom_site_label
 _atom_site_symmetry_multiplicity
 _atom_site_fract_x
 _atom_site_fract_y
 _atom_site_fract_z
 _atom_site_occupancy
  Hf  Hf0  1  0.70953394  0.10526128  0.88241048  1
  Hf  Hf1  1  0.29999103  0.10264954  0.63215594  1
  Hf  Hf2  1  0.08753532  0.49416906  0.12165502  1
  Hf  Hf3  1  0.52370632  0.09656780  0.36652243  1
  Hf  Hf4  1  0.10091246  0.29251905  0.10441298  1
  Hf  Hf5  1  0.29736127  0.89940158  0.63831892  1
  Hf  Hf6  1  -0.00168105  0.00251871  0.24479230  1
  Hf  Hf7  1  0.39814678  0.39912007  0.23321994  1
  Hf  Hf8  1  0.69896424  0.70156245  0.86498803  1
  Hf  Hf9  1  0.39895862  0.21248599  0.49978382  1
  Hf  Hf10  1  0.29303325  0.52311481  0.11547393  1
  Hf  Hf11  1  0.19178012  0.20762197  0.75239783  1
  Hf  Hf12  1  0.90299619  0.11871424  0.11565765  1
  Hf  Hf13  1  0.38464940  0.79102946  -0.00959132  1
  Hf  Hf14  1  -0.00671301  -0.01468334  0.49553796  1
  Hf  Hf15  1  -0.00831135  0.78266662  0.25181341  1
  Hf  Hf16  1  0.09636164  0.29963892  0.88068643  1
  Hf  Hf17  1  -0.01196992  0.79157452  -0.00772218  1
  Hf  Hf18  1  0.19474003  0.19827192  0.50931312  1
  Hf  Hf19  1  0.19988844  0.19302921  0.24202353  1
  Hf  Hf20  1  0.70800032  0.49412286  0.60521653  1
  Hf  Hf21  1  0.61166714  0.20411019  0.74647113  1
  Hf  Hf22  1  0.20942416  0.39760614  0.50613756  1
  Hf  Hf23  1  0.59612742  0.82862949  0.50970061  1
  Hf  Hf24  1  0.60593835  0.60448376  0.01371948  1
  Hf  Hf25  1  0.71383678  0.30768794  0.87533967  1
  Hf  Hf26  1  0.00222720  0.59051617  0.76477982  1
  Hf  Hf27  1  0.60965603  0.40670546  0.00701634  1
  Hf  Hf28  1  0.08606256  0.09552082  0.62401912  1
  Hf  Hf29  1  0.70885833  0.30641047  0.13606960  1
  Hf  Hf30  1  -0.01338743  0.80180466  0.75554717  1
  Hf  Hf31  1  0.29942881  0.08863585  0.11444058  1
  Hf  Hf32  1  0.70436998  0.89630495  0.87399706  1
  Hf  Hf33  1  0.69181855  0.30294287  0.36475090  1
  Hf  Hf34  1  0.50021543  0.50303408  0.60283689  1
  Hf  Hf35  1  0.10920446  0.68923728  0.11704581  1
  Hf  Hf36  1  0.80041864  -0.00755032  0.01524512  1
  Hf  Hf37  1  0.20731514  -0.01532711  0.49724429  1
  Hf  Hf38  1  0.49698422  0.30474053  0.36915426  1
  Hf  Hf39  1  0.40035296  0.19733559  0.24446519  1
  Zr  Zr40  1  0.28701361  0.71499094  0.36858799  1
  Zr  Zr41  1  0.49340528  0.10478875  0.11148100  1
  Zr  Zr42  1  0.50881937  0.70768387  0.38323472  1
  Zr  Zr43  1  0.49512593  0.30506152  0.62962665  1
  Zr  Zr44  1  0.60302506  -0.00529816  0.00989842  1
  Zr  Zr45  1  0.29630112  0.69374310  0.63231865  1
  Zr  Zr46  1  0.88500732  0.90363164  0.62284694  1
  Zr  Zr47  1  0.79484585  -0.00809068  0.24268333  1
  Zr  Zr48  1  0.10477362  0.88006170  0.36657542  1
  Zr  Zr49  1  0.19074159  0.00689990  0.76666928  1
  Zr  Zr50  1  0.80684461  0.20176461  0.25850945  1
  Zr  Zr51  1  0.31021120  0.49825258  0.37504598  1
  Zr  Zr52  1  0.41512450  -0.00455120  0.49853351  1
  Zr  Zr53  1  0.89844843  0.10282113  0.38265520  1
  Zr  Zr54  1  0.60631087  -0.00465425  0.75045396  1
  Zr  Zr55  1  0.39953233  0.38838093  0.01645665  1
  Zr  Zr56  1  0.10282698  0.89417123  0.12622502  1
  Zr  Zr57  1  0.50842759  0.30244157  0.87301849  1
  Zr  Zr58  1  0.50567592  0.89402806  0.88597571  1
  Zr  Zr59  1  0.39732803  0.61450914  0.24892288  1
  Zr  Zr60  1  0.80495768  0.60167859  -0.00620253  1
  Zr  Zr61  1  0.09046984  0.69553230  0.63556729  1
  Zr  Zr62  1  0.19611355  0.39537521  0.23932348  1
  Zr  Zr63  1  0.81461322  0.41839379  0.26199155  1
  Zr  Zr64  1  0.30597098  0.09372308  0.37132544  1
  Zr  Zr65  1  0.50574912  0.69027228  0.88249405  1
  Zr  Zr66  1  0.61645556  0.60908713  0.24940603  1
  Zr  Zr67  1  0.19734377  0.79465269  0.77219161  1
  Zr  Zr68  1  0.21147792  -0.00732217  -0.01963238  1
  Zr  Zr69  1  0.50144413  0.09061905  0.63147506  1
  Zr  Zr70  1  0.39766647  0.58611335  0.75346522  1
  Zr  Zr71  1  0.70840286  0.71216123  0.61619259  1
  Zr  Zr72  1  -0.00172272  -0.00396903  0.00127012  1
  Zr  Zr73  1  0.60031587  0.60358181  0.73670934  1
  Zr  Zr74  1  0.08956239  0.29850968  0.38291198  1
  Zr  Zr75  1  -0.00835213  0.58669745  0.25902420  1
  Zr  Zr76  1  0.91270283  0.49482266  0.61833527  1
  Zr  Zr77  1  0.51430679  0.49905695  0.38625379  1
  Zr  Zr78  1  0.10773979  0.49917409  0.37377622  1
  Zr  Zr79  1  0.09937544  0.09611996  0.37682913  1
  Ta  Ta80  1  0.49886184  0.49405803  0.88065466  1
  Ta  Ta81  1  0.77333829  0.00239654  0.49306973  1
  Ta  Ta82  1  0.59568153  0.00060742  0.23290439  1
  Ta  Ta83  1  0.88745695  0.87328794  0.13131315  1
  Ta  Ta84  1  0.09381236  0.89761662  0.62955665  1
  Ta  Ta85  1  0.89682015  0.51203273  0.12080826  1
  Ta  Ta86  1  0.19946212  0.41035761  -0.00962581  1
  Ta  Ta87  1  0.69786640  0.11170088  0.12335562  1
  Ta  Ta88  1  0.48745446  0.89651882  0.11970904  1
  Ta  Ta89  1  0.39678265  -0.00196910  0.76906717  1
  Ta  Ta90  1  0.50771386  0.50326001  0.13080994  1
  Ta  Ta91  1  0.88819099  0.48652791  0.86580822  1
  Ta  Ta92  1  0.38408089  0.80757885  0.50162924  1
  Ta  Ta93  1  0.29884169  0.88318348  0.12461724  1
  Ta  Ta94  1  0.00680511  0.59412833  -0.02135204  1
  Ta  Ta95  1  0.78952078  0.20820961  0.50024231  1
  Ta  Ta96  1  0.60739992  0.18706745  0.50471641  1
  Ta  Ta97  1  0.30584270  0.49284279  0.62406972  1
  Ta  Ta98  1  0.01388128  0.60184549  0.49998557  1
  Ta  Ta99  1  0.68100349  0.91146106  0.36736463  1
  Ta  Ta100  1  0.90816951  0.31793726  0.11801619  1
  Ta  Ta101  1  -0.00807811  0.40709341  -0.01248091  1
  Ta  Ta102  1  0.18518162  0.79385133  0.50559327  1
  Ta  Ta103  1  0.10273070  0.10000377  0.11483513  1
  Ta  Ta104  1  0.11470757  0.49545113  0.63283827  1
  Ta  Ta105  1  0.87946049  0.88280890  0.37660693  1
  Ta  Ta106  1  0.70726069  0.51387599  0.39539283  1
  Ta  Ta107  1  0.81787171  0.61951213  0.50229138  1
  Ta  Ta108  1  0.69588879  0.50178114  0.86570272  1
  Ta  Ta109  1  0.79964869  0.39275396  0.74189834  1
  Ta  Ta110  1  0.40563226  0.79721372  0.75679768  1
  Ta  Ta111  1  0.71345657  0.71816484  0.38519598  1
  Ta  Ta112  1  0.00270414  0.21324433  0.24478621  1
  Ta  Ta113  1  0.30690340  0.30728611  0.87124448  1
  Ta  Ta114  1  0.39723519  0.19784553  0.76001650  1
  Ta  Ta115  1  0.20266649  0.60228117  0.50403508  1
  Ta  Ta116  1  0.60318674  0.40790388  0.74227877  1
  Ta  Ta117  1  0.49541808  0.10216092  0.88689310  1
  Ta  Ta118  1  0.90571830  0.49295551  0.39991760  1
  Ta  Ta119  1  0.19299307  0.79297372  -0.02168484  1
  Ti  Ti120  1  -0.01622395  0.00837120  0.75335247  1
  Ti  Ti121  1  0.59989406  0.80636867  0.23810088  1
  Ti  Ti122  1  0.08427544  0.90432395  0.87254654  1
  Ti  Ti123  1  0.89906944  0.10589702  0.88392582  1
  Ti  Ti124  1  0.89932136  0.28944020  0.88042403  1
  Ti  Ti125  1  0.29998105  0.30949916  0.64010415  1
  Ti  Ti126  1  0.71083670  0.09622428  0.62789051  1
  Ti  Ti127  1  0.60957697  0.79663114  0.02044671  1
  Ti  Ti128  1  0.80905578  0.19758695  0.74235437  1
  Ti  Ti129  1  0.73415209  0.70462077  0.13678802  1
  Ti  Ti130  1  0.60984538  0.37963472  0.50512628  1
  Ti  Ti131  1  0.19982329  0.59303461  0.77510416  1
  Ti  Ti132  1  0.79167674  0.81111691  0.74366639  1
  Ti  Ti133  1  -0.00940944  0.19973999  0.74771170  1
  Ti  Ti134  1  0.20906009  0.41170332  0.76191616  1
  Ti  Ti135  1  0.59342094  0.80459034  0.73297884  1
  Ti  Ti136  1  0.20558803  -0.01567884  0.24990737  1
  Ti  Ti137  1  0.48183694  0.70063798  0.12019273  1
  Ti  Ti138  1  0.21652597  0.20492663  -0.00662650  1
  Ti  Ti139  1  0.79547686  0.79663020  0.00176755  1
  Ti  Ti140  1  0.29584592  0.30166183  0.37324299  1
  Ti  Ti141  1  0.08883382  0.10885017  0.88527374  1
  Ti  Ti142  1  0.90625382  0.30583319  0.39308828  1
  Ti  Ti143  1  0.08775797  0.30446038  0.62433510  1
  Ti  Ti144  1  -0.01544887  0.78380118  0.50003436  1
  Ti  Ti145  1  0.60558771  0.20819892  0.00177250  1
  Ti  Ti146  1  0.88916200  0.70042705  0.86713394  1
  Ti  Ti147  1  0.21047346  0.60602847  -0.02743697  1
  Ti  Ti148  1  0.00115021  0.39241768  0.75436462  1
  Ti  Ti149  1  0.89558838  0.29785852  0.61188596  1
  Ti  Ti150  1  0.51478862  0.29752049  0.13347512  1
  Ti  Ti151  1  0.88859774  0.91024106  0.87019135  1
  Ti  Ti152  1  0.70822146  0.50320495  0.13731489  1
  Ti  Ti153  1  0.80235200  0.40457277  0.00108876  1
  Ti  Ti154  1  0.39469323  0.60642417  0.49742862  1
  Ti  Ti155  1  0.80399524  0.59882451  0.74076359  1
  Ti  Ti156  1  0.48903287  0.89687943  0.36343418  1
  Ti  Ti157  1  0.49392396  0.70606331  0.61249910  1
  Ti  Ti158  1  0.89504084  0.10414759  0.61478595  1
  Ti  Ti159  1  0.39773491  -0.01150379  0.24787695  1
  Mo  Mo160  1  0.29392083  0.70632545  0.12146698  1
  Mo  Mo161  1  0.00868691  0.39776509  0.51332942  1
  Mo  Mo162  1  0.60245953  0.19789462  0.24011810  1
  Mo  Mo163  1  0.39778008  0.39767021  0.49948927  1
  Mo  Mo164  1  0.30361997  0.69493108  0.86876326  1
  Mo  Mo165  1  0.10055598  0.49175880  0.87173204  1
  Mo  Mo166  1  0.09684993  0.69446288  0.38274050  1
  Mo  Mo167  1  0.30788924  0.49613504  0.88627524  1
  Mo  Mo168  1  0.69420248  0.89152945  0.13105754  1
  Mo  Mo169  1  0.60042613  0.00586790  0.50419643  1
  Mo  Mo170  1  0.00072957  0.20358394  -0.00369826  1
  Mo  Mo171  1  0.30458005  0.89789781  0.36888336  1
  Mo  Mo172  1  0.81066397  0.01302486  0.75398136  1
  Mo  Mo173  1  0.89919528  0.69948246  0.63113133  1
  Mo  Mo174  1  0.19292716  0.61083468  0.24620868  1
  Mo  Mo175  1  0.39597649  -0.00558758  -0.01117953  1
  Mo  Mo176  1  0.60031723  0.40851566  0.24502378  1
  Mo  Mo177  1  0.20475419  0.78766969  0.24229681  1
  Mo  Mo178  1  0.40844243  0.80901838  0.24260567  1
  Mo  Mo179  1  0.79994095  0.21047346  0.00289818  1
  Mo  Mo180  1  0.39966502  0.19706314  -0.00868712  1
  Mo  Mo181  1  0.69482682  0.91472372  0.63176272  1
  Mo  Mo182  1  0.40032315  0.39909569  0.75390798  1
  Mo  Mo183  1  -0.01064128  0.20038873  0.51270932  1
  Mo  Mo184  1  0.80766442  0.61065796  0.26713649  1
  Mo  Mo185  1  0.48793938  0.89169590  0.63530937  1
  Mo  Mo186  1  0.30159394  0.29226959  0.11434705  1
  Mo  Mo187  1  0.79000239  0.78926506  0.25636770  1
  Mo  Mo188  1  0.70685726  0.29372291  0.62609758  1
  Mo  Mo189  1  0.40329809  0.59280601  0.00128242  1
  Mo  Mo190  1  0.80058591  0.81446208  0.49888156  1
  Mo  Mo191  1  -0.00728386  0.38978569  0.24812888  1
  Mo  Mo192  1  0.30256667  0.11161457  0.87580961  1
  Mo  Mo193  1  0.90812642  0.69071484  0.11976069  1
  Mo  Mo194  1  0.90197002  0.69439234  0.38231566  1
  Mo  Mo195  1  0.69833573  0.09993243  0.37216168  1
  Mo  Mo196  1  0.60705393  0.61176629  0.49990860  1
  Mo  Mo197  1  0.80045856  0.39779753  0.49311798  1
  Mo  Mo198  1  0.30210552  0.89928444  0.86669672  1
  Mo  Mo199  1  0.09090573  0.69918296  0.87708080  1
