# generated using pymatgen
data_HfZrTaTiMo
_symmetry_space_group_name_H-M   'P 1'
_cell_length_a   15.20681939
_cell_length_b   15.22353415
_cell_length_c   16.83299014
_cell_angle_alpha   90.02463278
_cell_angle_beta   89.97159848
_cell_angle_gamma   89.94574633
_symmetry_Int_Tables_number   1
_chemical_formula_structural   HfZrTaTiMo
_chemical_formula_sum   'Hf40 Zr40 Ta40 Ti40 Mo40'
_cell_volume   3896.86045724
_cell_formula_units_Z   40
loop_
 _symmetry_equiv_pos_site_id
 _symmetry_equiv_pos_as_xyz
  1  'x, y, z'
loop_
 _atom_site_type_symbol
 _atom_site_label
 _atom_site_symmetry_multiplicity
 _atom_site_fract_x
 _atom_site_fract_y
 _atom_site_fract_z
 _atom_site_occupancy
  Hf  Hf0  1  0.09125234  0.49139318  0.63068960  1
  Hf  Hf1  1  0.09114709  0.48152252  0.12168853  1
  Hf  Hf2  1  0.70913766  0.70085483  0.88680693  1
  Hf  Hf3  1  0.79597652  0.00828257  -0.02169925  1
  Hf  Hf4  1  0.30048409  0.50334677  0.63233175  1
  Hf  Hf5  1  0.28583141  0.70437404  0.61834343  1
  Hf  Hf6  1  0.40080890  0.40756085  0.49440575  1
  Hf  Hf7  1  0.29245528  0.09248132  0.86209579  1
  Hf  Hf8  1  0.21216767  0.80378461  0.25532368  1
  Hf  Hf9  1  0.09050020  0.10532533  0.12292490  1
  Hf  Hf10  1  0.40710791  0.80996098  -0.00699111  1
  Hf  Hf11  1  0.69307018  0.11184607  0.62931661  1
  Hf  Hf12  1  0.40341065  0.20474529  0.25428712  1
  Hf  Hf13  1  0.70069326  0.69185820  0.37458421  1
  Hf  Hf14  1  0.78912401  0.60069146  0.51481453  1
  Hf  Hf15  1  -0.00443476  0.59126559  0.50335958  1
  Hf  Hf16  1  0.39169375  0.00613401  0.26703848  1
  Hf  Hf17  1  0.19181947  0.61169961  0.75196142  1
  Hf  Hf18  1  0.59942661  0.39873338  0.24734190  1
  Hf  Hf19  1  0.08780099  0.49527426  0.87655000  1
  Hf  Hf20  1  0.40613264  0.40605366  -0.00181583  1
  Hf  Hf21  1  -0.00457733  0.80836221  0.24012452  1
  Hf  Hf22  1  0.00173125  0.40274081  0.26825111  1
  Hf  Hf23  1  0.80461912  0.40752948  0.50859068  1
  Hf  Hf24  1  0.19927490  0.59671861  -0.00014840  1
  Hf  Hf25  1  0.10099228  0.10425440  0.87639671  1
  Hf  Hf26  1  0.30115918  0.09272734  0.61839907  1
  Hf  Hf27  1  0.28624186  0.09673953  0.13252599  1
  Hf  Hf28  1  0.90537784  0.90838085  0.38985142  1
  Hf  Hf29  1  0.40456736  0.20337122  0.50040735  1
  Hf  Hf30  1  0.72079063  0.29957670  0.88229673  1
  Hf  Hf31  1  0.80887978  0.18933472  0.24799216  1
  Hf  Hf32  1  0.79782285  0.80337159  0.23939852  1
  Hf  Hf33  1  0.70196217  0.08216952  0.12339641  1
  Hf  Hf34  1  0.40650694  -0.01416871  0.74448673  1
  Hf  Hf35  1  0.00655353  -0.00804302  0.75435732  1
  Hf  Hf36  1  0.29655316  0.30175706  0.63124792  1
  Hf  Hf37  1  0.82801201  0.39774500  0.00512109  1
  Hf  Hf38  1  0.70315509  0.30461393  0.63352728  1
  Hf  Hf39  1  0.10804976  0.91373822  0.12780146  1
  Zr  Zr40  1  0.70980928  0.29055327  0.11588439  1
  Zr  Zr41  1  -0.01009721  0.00885343  -0.00866848  1
  Zr  Zr42  1  0.68572046  0.49865914  0.10244461  1
  Zr  Zr43  1  0.19774445  0.38377524  0.26398835  1
  Zr  Zr44  1  0.69960759  0.90168534  0.39079195  1
  Zr  Zr45  1  0.39590256  0.60000160  0.01356663  1
  Zr  Zr46  1  0.68305563  0.69630249  0.63376528  1
  Zr  Zr47  1  0.89939505  0.28918138  0.37829936  1
  Zr  Zr48  1  0.50555803  0.68419745  0.88247231  1
  Zr  Zr49  1  0.29951546  0.89664022  0.60237328  1
  Zr  Zr50  1  0.59128626  0.80603659  0.75939305  1
  Zr  Zr51  1  0.11121465  0.08629641  0.37945901  1
  Zr  Zr52  1  0.59726777  0.60676574  0.24187499  1
  Zr  Zr53  1  0.41165143  0.39904876  0.75745796  1
  Zr  Zr54  1  0.50846834  0.91846472  0.12256312  1
  Zr  Zr55  1  0.87664932  0.50550454  0.36841495  1
  Zr  Zr56  1  0.08571409  0.70425837  0.88147673  1
  Zr  Zr57  1  0.69579898  0.91030436  0.61751831  1
  Zr  Zr58  1  0.38129805  0.20208439  0.00364659  1
  Zr  Zr59  1  0.11197925  0.69169450  0.13183124  1
  Zr  Zr60  1  0.59926115  0.00524084  0.75648851  1
  Zr  Zr61  1  0.10198816  0.68643627  0.36445654  1
  Zr  Zr62  1  0.41057212  0.80712678  0.25816193  1
  Zr  Zr63  1  0.01772821  0.20210869  0.25850721  1
  Zr  Zr64  1  0.89924957  0.70725728  0.37551559  1
  Zr  Zr65  1  0.90949892  0.90778011  0.61950562  1
  Zr  Zr66  1  0.80907922  0.80050603  0.74759948  1
  Zr  Zr67  1  0.60506191  0.18830429  0.00219908  1
  Zr  Zr68  1  0.19861591  0.39807650  0.48858540  1
  Zr  Zr69  1  0.69942113  0.30909754  0.37089502  1
  Zr  Zr70  1  0.51236292  0.70956675  0.11687304  1
  Zr  Zr71  1  0.38873778  0.79489010  0.75053625  1
  Zr  Zr72  1  0.49323217  0.50545484  0.36572295  1
  Zr  Zr73  1  0.49669214  0.10100118  0.88055783  1
  Zr  Zr74  1  0.89720613  0.11255991  0.63871817  1
  Zr  Zr75  1  -0.00520624  0.79852579  0.01625887  1
  Zr  Zr76  1  0.29317493  0.28893197  0.85941785  1
  Zr  Zr77  1  0.20302094  0.38303816  -0.00860261  1
  Zr  Zr78  1  0.50762477  0.50517452  0.62832478  1
  Zr  Zr79  1  0.42548563  0.19354370  0.73636513  1
  Ta  Ta80  1  0.30380094  0.90091687  0.12552563  1
  Ta  Ta81  1  0.09802173  0.89117570  0.39374996  1
  Ta  Ta82  1  -0.01109242  0.21793540  -0.00211986  1
  Ta  Ta83  1  0.90976715  0.31001493  0.63313946  1
  Ta  Ta84  1  0.59924210  0.19213879  0.24748616  1
  Ta  Ta85  1  0.69635483  0.50653769  0.89254741  1
  Ta  Ta86  1  -0.01449318  0.59706249  0.74557904  1
  Ta  Ta87  1  0.10135518  0.87222699  0.60652876  1
  Ta  Ta88  1  0.59460941  0.79109206  0.49989954  1
  Ta  Ta89  1  0.91411507  0.70317692  0.62734430  1
  Ta  Ta90  1  -0.01279753  0.00596805  0.25285651  1
  Ta  Ta91  1  0.79335947  0.59418671  0.74919260  1
  Ta  Ta92  1  0.81067125  0.40836009  0.75366391  1
  Ta  Ta93  1  0.29152245  0.49632042  0.13532161  1
  Ta  Ta94  1  0.50328824  0.30700784  0.12120761  1
  Ta  Ta95  1  0.59940410  0.00399285  0.26113065  1
  Ta  Ta96  1  0.28921165  0.91257038  0.39254264  1
  Ta  Ta97  1  0.60489798  0.40460754  0.49426111  1
  Ta  Ta98  1  0.38538627  0.60874227  0.23559558  1
  Ta  Ta99  1  0.30429914  0.50793519  0.86685280  1
  Ta  Ta100  1  0.60998851  0.40631778  0.76701249  1
  Ta  Ta101  1  0.89574793  0.50212296  0.87743947  1
  Ta  Ta102  1  0.08483053  0.29418418  0.86231586  1
  Ta  Ta103  1  0.29179142  0.70404517  0.87447213  1
  Ta  Ta104  1  0.79848283  0.20517321  0.50262994  1
  Ta  Ta105  1  0.29516622  0.89839122  0.87463568  1
  Ta  Ta106  1  0.59098847  0.59656637  0.49357663  1
  Ta  Ta107  1  0.70010494  0.10636456  0.38408732  1
  Ta  Ta108  1  0.79729490  -0.00087806  0.25807577  1
  Ta  Ta109  1  0.19449503  0.19621524  0.50443772  1
  Ta  Ta110  1  0.79799097  0.60076616  0.22677150  1
  Ta  Ta111  1  0.20938757  0.80270909  0.00617718  1
  Ta  Ta112  1  0.00367658  0.39316142  0.49147420  1
  Ta  Ta113  1  -0.01010353  0.59783807  0.23764421  1
  Ta  Ta114  1  0.80219767  0.79630719  0.51225336  1
  Ta  Ta115  1  0.39442408  0.60508743  0.49585791  1
  Ta  Ta116  1  0.60566865  0.81234763  0.25514900  1
  Ta  Ta117  1  0.90716562  0.88465093  0.87003227  1
  Ta  Ta118  1  0.10839886  0.89687156  0.87781839  1
  Ta  Ta119  1  0.19729015  0.59632558  0.49789653  1
  Ti  Ti120  1  0.49060929  0.69899200  0.62229078  1
  Ti  Ti121  1  0.60125472  -0.01965597  -0.02167962  1
  Ti  Ti122  1  0.69515549  0.89495782  0.11822475  1
  Ti  Ti123  1  0.39842838  0.00142308  -0.00262439  1
  Ti  Ti124  1  0.29781262  0.28415950  0.37528998  1
  Ti  Ti125  1  0.91920553  0.30088930  0.13141089  1
  Ti  Ti126  1  0.80382724  0.80866823  0.00180002  1
  Ti  Ti127  1  0.11249314  0.29084390  0.11979353  1
  Ti  Ti128  1  0.39974572  0.40330555  0.24595974  1
  Ti  Ti129  1  0.50937252  0.09339107  0.60383126  1
  Ti  Ti130  1  0.50261044  0.90672448  0.39016991  1
  Ti  Ti131  1  0.49563665  0.10569511  0.12496953  1
  Ti  Ti132  1  0.28829690  0.51153331  0.36174884  1
  Ti  Ti133  1  0.50694613  0.10278300  0.38795074  1
  Ti  Ti134  1  0.18793431  0.18681981  0.73588124  1
  Ti  Ti135  1  0.51588829  0.30031856  0.61976347  1
  Ti  Ti136  1  -0.00318996  0.19246925  0.49928031  1
  Ti  Ti137  1  0.70108053  0.11311228  0.85996651  1
  Ti  Ti138  1  0.50019382  0.90082151  0.60345982  1
  Ti  Ti139  1  -0.02224285  0.58944323  0.01777661  1
  Ti  Ti140  1  0.80005818  0.40505126  0.23680004  1
  Ti  Ti141  1  0.19796721  -0.01977125  0.73836514  1
  Ti  Ti142  1  0.09522233  0.08267599  0.61559460  1
  Ti  Ti143  1  0.19318463  0.39930152  0.75476949  1
  Ti  Ti144  1  0.89785897  0.13174034  0.85849488  1
  Ti  Ti145  1  0.49936748  0.70329110  0.37292325  1
  Ti  Ti146  1  0.20646542  0.00237353  -0.00245395  1
  Ti  Ti147  1  0.80716073  0.01535395  0.50047721  1
  Ti  Ti148  1  0.70433902  0.70470143  0.10350177  1
  Ti  Ti149  1  0.29815340  0.29667112  0.13232697  1
  Ti  Ti150  1  0.40860783  0.60062053  0.75459696  1
  Ti  Ti151  1  0.50386830  0.29846150  0.37620354  1
  Ti  Ti152  1  0.88915889  0.92291713  0.12289485  1
  Ti  Ti153  1  0.30151865  0.69801787  0.37787300  1
  Ti  Ti154  1  0.69441320  0.49871068  0.63446784  1
  Ti  Ti155  1  0.51362169  0.30140035  0.88219098  1
  Ti  Ti156  1  0.09346622  0.29027460  0.62901684  1
  Ti  Ti157  1  0.40145440  0.79400202  0.49001647  1
  Ti  Ti158  1  0.89942865  0.69053466  0.87867399  1
  Ti  Ti159  1  0.80101630  0.00100055  0.76505533  1
  Mo  Mo160  1  0.30443746  0.10160969  0.38762510  1
  Mo  Mo161  1  0.01346055  0.79487946  0.75229565  1
  Mo  Mo162  1  0.50391091  0.49576929  0.87562383  1
  Mo  Mo163  1  0.60292957  0.21066842  0.49615820  1
  Mo  Mo164  1  0.59791365  0.59758373  0.00306540  1
  Mo  Mo165  1  0.19477940  -0.00017130  0.50972253  1
  Mo  Mo166  1  0.80000285  0.20895702  0.74981248  1
  Mo  Mo167  1  0.19970615  0.59062803  0.24803811  1
  Mo  Mo168  1  0.89463704  0.70550157  0.12362108  1
  Mo  Mo169  1  0.09704158  0.69460340  0.62066365  1
  Mo  Mo170  1  0.80806262  0.60704381  0.00939116  1
  Mo  Mo171  1  0.18907941  0.19451682  -0.00233243  1
  Mo  Mo172  1  0.91152159  0.30944906  0.86213717  1
  Mo  Mo173  1  0.19416305  -0.00416498  0.25600780  1
  Mo  Mo174  1  0.89440616  0.49954670  0.63002138  1
  Mo  Mo175  1  0.10501620  0.29174811  0.39143048  1
  Mo  Mo176  1  0.49587402  0.89993367  0.87918084  1
  Mo  Mo177  1  0.60280138  0.59167755  0.75704651  1
  Mo  Mo178  1  0.81658074  0.19165802  0.00128727  1
  Mo  Mo179  1  0.71006206  0.90097175  0.87330447  1
  Mo  Mo180  1  0.00918942  0.19880581  0.73877656  1
  Mo  Mo181  1  0.40459332  0.00076232  0.48758383  1
  Mo  Mo182  1  0.29983633  0.70905708  0.12568854  1
  Mo  Mo183  1  0.00698527  0.39805502  0.00170907  1
  Mo  Mo184  1  0.48775328  0.49114070  0.13449529  1
  Mo  Mo185  1  0.89745634  0.49448357  0.13550598  1
  Mo  Mo186  1  0.00224264  0.00257177  0.50660799  1
  Mo  Mo187  1  0.89576866  0.10421412  0.12442494  1
  Mo  Mo188  1  -0.00059882  0.79043958  0.49930978  1
  Mo  Mo189  1  0.59686357  0.39768938  -0.01134151  1
  Mo  Mo190  1  0.18799559  0.80782808  0.75101734  1
  Mo  Mo191  1  0.69612020  0.50450211  0.37261558  1
  Mo  Mo192  1  0.21323427  0.19032604  0.25715195  1
  Mo  Mo193  1  0.60193478  0.00603557  0.49676316  1
  Mo  Mo194  1  0.59978518  0.21637934  0.75451713  1
  Mo  Mo195  1  0.89473079  0.09471210  0.38385320  1
  Mo  Mo196  1  0.61260524  0.80788688  -0.01062528  1
  Mo  Mo197  1  0.09550596  0.50176698  0.37587180  1
  Mo  Mo198  1  0.00153557  0.40177113  0.74743694  1
  Mo  Mo199  1  0.20314931  0.78556462  0.48339856  1
