# generated using pymatgen
data_HfZrTaTiMo
_symmetry_space_group_name_H-M   'P 1'
_cell_length_a   15.20999984
_cell_length_b   15.20220857
_cell_length_c   16.84217711
_cell_angle_alpha   90.01617028
_cell_angle_beta   89.96153496
_cell_angle_gamma   89.94369745
_symmetry_Int_Tables_number   1
_chemical_formula_structural   HfZrTaTiMo
_chemical_formula_sum   'Hf40 Zr40 Ta40 Ti40 Mo40'
_cell_volume   3894.33942354
_cell_formula_units_Z   40
loop_
 _symmetry_equiv_pos_site_id
 _symmetry_equiv_pos_as_xyz
  1  'x, y, z'
loop_
 _atom_site_type_symbol
 _atom_site_label
 _atom_site_symmetry_multiplicity
 _atom_site_fract_x
 _atom_site_fract_y
 _atom_site_fract_z
 _atom_site_occupancy
  Hf  Hf0  1  0.30651759  0.49216407  0.12706152  1
  Hf  Hf1  1  0.60123982  0.79761720  0.74017663  1
  Hf  Hf2  1  0.31066291  0.07570350  0.12215248  1
  Hf  Hf3  1  0.60062750  0.41759514  0.75091040  1
  Hf  Hf4  1  0.89701201  0.90947071  0.12096265  1
  Hf  Hf5  1  0.29743205  0.88783186  0.87211759  1
  Hf  Hf6  1  0.69992164  0.70255206  0.15049103  1
  Hf  Hf7  1  0.70117345  0.29609887  0.38495667  1
  Hf  Hf8  1  0.42466331  0.18209178  0.23421949  1
  Hf  Hf9  1  0.01238567  0.20973289  0.48887765  1
  Hf  Hf10  1  0.39506706  0.79360895  0.00344635  1
  Hf  Hf11  1  0.91076547  0.49329165  0.87224276  1
  Hf  Hf12  1  0.09967326  0.30253355  0.13604272  1
  Hf  Hf13  1  0.79396109  0.79678506  -0.00292908  1
  Hf  Hf14  1  0.20212926  0.58403614  0.26942971  1
  Hf  Hf15  1  0.11334936  0.89135948  0.38089695  1
  Hf  Hf16  1  0.29720858  0.28382256  0.35100896  1
  Hf  Hf17  1  0.41025894  -0.01148988  0.76321075  1
  Hf  Hf18  1  0.19379413  0.79406163  0.24069908  1
  Hf  Hf19  1  0.68064727  0.92054748  0.36710981  1
  Hf  Hf20  1  -0.00174731  0.58596630  0.49269420  1
  Hf  Hf21  1  0.18084878  0.39667785  0.75776767  1
  Hf  Hf22  1  0.41187634  0.59150112  0.75094581  1
  Hf  Hf23  1  -0.00273134  0.79229188  -0.00311513  1
  Hf  Hf24  1  0.79894764  0.60568102  0.73912124  1
  Hf  Hf25  1  0.28113089  0.68357319  0.86941737  1
  Hf  Hf26  1  0.61062298  0.61084816  0.48486934  1
  Hf  Hf27  1  0.49259572  0.09497070  0.63080486  1
  Hf  Hf28  1  0.01309940  0.01207132  -0.00612295  1
  Hf  Hf29  1  0.40698050  0.59294392  -0.00500645  1
  Hf  Hf30  1  -0.00631039  -0.00251484  0.25742697  1
  Hf  Hf31  1  0.80515386  0.38822554  0.01014443  1
  Hf  Hf32  1  -0.00255681  0.80110795  0.74930363  1
  Hf  Hf33  1  0.08245484  0.48961403  0.62401967  1
  Hf  Hf34  1  0.60196020  0.82467168  0.50938993  1
  Hf  Hf35  1  0.30120205  0.89845896  0.63397957  1
  Hf  Hf36  1  0.60281875  0.60417005  0.00424851  1
  Hf  Hf37  1  0.58681866  0.80011664  0.00289479  1
  Hf  Hf38  1  0.30051440  0.72268688  0.37984993  1
  Hf  Hf39  1  0.21954687  0.00344008  0.49162072  1
  Zr  Zr40  1  0.18706089  0.39897196  0.48753715  1
  Zr  Zr41  1  0.19014210  0.78938289  0.00449582  1
  Zr  Zr42  1  0.09781385  0.89903494  0.62012303  1
  Zr  Zr43  1  0.38161125  0.18438286  0.76488715  1
  Zr  Zr44  1  0.59456289  0.21129173  -0.00957171  1
  Zr  Zr45  1  0.70630051  0.50749321  0.87413655  1
  Zr  Zr46  1  0.52081927  0.08965797  0.38003501  1
  Zr  Zr47  1  0.29152418  0.28628849  0.62980480  1
  Zr  Zr48  1  0.11931256  0.10689275  0.35123143  1
  Zr  Zr49  1  0.70014678  0.49725845  0.13370604  1
  Zr  Zr50  1  0.41807711  -0.02168288  0.50487185  1
  Zr  Zr51  1  0.49809832  0.70030791  0.61627171  1
  Zr  Zr52  1  0.29785074  0.48684973  0.87846283  1
  Zr  Zr53  1  0.12336239  0.10461927  0.62643469  1
  Zr  Zr54  1  0.81070205  0.20804404  0.74302751  1
  Zr  Zr55  1  0.40745661  0.38277956  -0.00365550  1
  Zr  Zr56  1  0.49354976  0.69191129  0.14591391  1
  Zr  Zr57  1  0.89565614  0.11324105  0.11874845  1
  Zr  Zr58  1  0.71926895  0.71626377  0.35813785  1
  Zr  Zr59  1  0.10020907  0.30717758  0.34656303  1
  Zr  Zr60  1  0.28927256  0.50170530  0.62741685  1
  Zr  Zr61  1  0.59254672  0.21200994  0.75475257  1
  Zr  Zr62  1  0.91635668  0.10192505  0.62526509  1
  Zr  Zr63  1  0.88346170  0.10595481  0.37420302  1
  Zr  Zr64  1  -0.00338193  0.00176080  0.48815147  1
  Zr  Zr65  1  0.50412997  0.48925234  0.60548737  1
  Zr  Zr66  1  0.81634382  0.59931863  0.00488759  1
  Zr  Zr67  1  0.39360621  0.59753683  0.48664162  1
  Zr  Zr68  1  0.69350989  0.90862283  0.12141944  1
  Zr  Zr69  1  0.70266362  0.09344248  0.63929092  1
  Zr  Zr70  1  0.40506198  0.38390514  0.76112374  1
  Zr  Zr71  1  0.89144153  0.50702921  0.36393372  1
  Zr  Zr72  1  -0.01635792  0.79274034  0.49597215  1
  Zr  Zr73  1  0.10299968  0.52872593  0.89430515  1
  Zr  Zr74  1  0.69336040  0.90597854  0.87853121  1
  Zr  Zr75  1  0.00564074  0.01014698  0.76342558  1
  Zr  Zr76  1  0.89712260  0.70110439  0.14664685  1
  Zr  Zr77  1  0.08265086  0.31182263  0.89224206  1
  Zr  Zr78  1  0.80148865  0.20262641  0.51207352  1
  Zr  Zr79  1  0.50324988  0.28970969  0.37827430  1
  Ta  Ta80  1  0.39535111  0.18694360  -0.00279330  1
  Ta  Ta81  1  0.21042737  0.20085077  0.49067045  1
  Ta  Ta82  1  0.20786157  0.01533237  0.76747066  1
  Ta  Ta83  1  0.59044737  0.02409871  0.23230803  1
  Ta  Ta84  1  0.59788597  0.58817891  0.26944654  1
  Ta  Ta85  1  0.80651339  0.61788640  0.50215848  1
  Ta  Ta86  1  0.89620670  0.31209357  0.37482630  1
  Ta  Ta87  1  0.70125775  0.10590063  0.10682821  1
  Ta  Ta88  1  0.90248397  0.11229868  0.88592992  1
  Ta  Ta89  1  0.70669480  0.50822163  0.61187603  1
  Ta  Ta90  1  0.19638660  0.59862937  0.48405539  1
  Ta  Ta91  1  0.10185471  0.90510905  0.12707636  1
  Ta  Ta92  1  0.29245966  0.68559243  0.12946171  1
  Ta  Ta93  1  0.89610268  0.90551542  0.88150769  1
  Ta  Ta94  1  0.09412565  0.29617241  0.62625135  1
  Ta  Ta95  1  0.90662123  0.69576837  0.86921398  1
  Ta  Ta96  1  0.70431969  0.30497356  0.87334837  1
  Ta  Ta97  1  0.38831576  0.38395114  0.48926291  1
  Ta  Ta98  1  0.27997156  0.27809201  0.88538963  1
  Ta  Ta99  1  0.80138837  0.80463155  0.75103716  1
  Ta  Ta100  1  0.39024256  0.18406869  0.49976196  1
  Ta  Ta101  1  0.50303885  0.48971897  0.38131199  1
  Ta  Ta102  1  0.90899665  0.32565619  0.61636001  1
  Ta  Ta103  1  0.20430193  -0.00384787  -0.00427277  1
  Ta  Ta104  1  0.59810697  0.19565737  0.51318242  1
  Ta  Ta105  1  0.78650875  0.01325867  0.24949726  1
  Ta  Ta106  1  0.40340871  0.40252805  0.25412063  1
  Ta  Ta107  1  -0.00417776  0.80378705  0.25891560  1
  Ta  Ta108  1  0.19182770  0.18886481  0.01440725  1
  Ta  Ta109  1  0.60106599  0.38884688  0.25272313  1
  Ta  Ta110  1  0.70072156  0.70084343  0.86873083  1
  Ta  Ta111  1  0.50313433  0.71196849  0.36865484  1
  Ta  Ta112  1  0.80319446  0.40344707  0.73928823  1
  Ta  Ta113  1  0.71166078  0.10498847  0.87956034  1
  Ta  Ta114  1  0.01087958  0.60015943  0.74501182  1
  Ta  Ta115  1  0.10909316  0.69278337  0.61670463  1
  Ta  Ta116  1  0.40104111  0.79209313  0.75281722  1
  Ta  Ta117  1  0.59635434  0.40713121  -0.00869847  1
  Ta  Ta118  1  0.78502799  -0.01217779  0.50197242  1
  Ta  Ta119  1  0.10584748  0.51114491  0.12211662  1
  Ti  Ti120  1  0.09231532  0.69376446  0.12912330  1
  Ti  Ti121  1  0.21807593  -0.01449186  0.24697177  1
  Ti  Ti122  1  0.50450933  0.49432847  0.13610259  1
  Ti  Ti123  1  0.38676029  0.80980183  0.23973039  1
  Ti  Ti124  1  0.70099853  0.29492971  0.12270589  1
  Ti  Ti125  1  0.50614850  0.09510301  0.87780924  1
  Ti  Ti126  1  0.89254689  0.30182378  0.87339251  1
  Ti  Ti127  1  0.00518932  0.60540707  0.26065734  1
  Ti  Ti128  1  0.78604888  0.20470821  0.24869170  1
  Ti  Ti129  1  0.31796320  0.08638216  0.35778233  1
  Ti  Ti130  1  -0.01749194  0.20731738  0.24635746  1
  Ti  Ti131  1  0.87854788  0.88906362  0.37386158  1
  Ti  Ti132  1  0.48118467  0.91484615  0.12697960  1
  Ti  Ti133  1  0.48172685  0.89494966  0.36461440  1
  Ti  Ti134  1  0.20041022  0.39387955  0.01022699  1
  Ti  Ti135  1  0.01185288  0.21324989  0.75724300  1
  Ti  Ti136  1  0.80019094  0.39408885  0.24431042  1
  Ti  Ti137  1  0.69469030  0.31829014  0.61250052  1
  Ti  Ti138  1  0.09395211  0.69864129  0.38055875  1
  Ti  Ti139  1  0.70260196  0.48964652  0.38178521  1
  Ti  Ti140  1  0.90279823  0.69877967  0.62616212  1
  Ti  Ti141  1  0.40677115  -0.01068884  -0.01443824  1
  Ti  Ti142  1  0.49494411  0.29898333  0.61333878  1
  Ti  Ti143  1  0.50683170  0.69545585  0.86702959  1
  Ti  Ti144  1  0.09996226  0.89666967  0.87299395  1
  Ti  Ti145  1  0.80701655  -0.00223665  0.75659184  1
  Ti  Ti146  1  0.39998056  0.59648114  0.26763147  1
  Ti  Ti147  1  0.10258779  0.09688244  0.13927992  1
  Ti  Ti148  1  0.50707336  0.29976064  0.12645933  1
  Ti  Ti149  1  0.59367542  0.00256106  -0.00264896  1
  Ti  Ti150  1  0.58761721  0.81748262  0.24514902  1
  Ti  Ti151  1  0.90495334  0.50682981  0.13904734  1
  Ti  Ti152  1  0.30301325  0.28968307  0.13268623  1
  Ti  Ti153  1  -0.00950335  0.21787947  0.01068866  1
  Ti  Ti154  1  0.00277818  0.41279775  0.24411135  1
  Ti  Ti155  1  0.29538417  0.70251111  0.61798213  1
  Ti  Ti156  1  -0.00483261  0.41403409  0.02050588  1
  Ti  Ti157  1  0.88497500  0.89890175  0.62232520  1
  Ti  Ti158  1  0.19337453  0.78986009  0.74839147  1
  Ti  Ti159  1  0.60329452  -0.00490360  0.75651762  1
  Mo  Mo160  1  0.50337975  0.89860846  0.63830512  1
  Mo  Mo161  1  0.69768115  0.10649836  0.37625598  1
  Mo  Mo162  1  0.60027685  0.39795810  0.50197401  1
  Mo  Mo163  1  0.80118732  0.41441350  0.50256123  1
  Mo  Mo164  1  0.20934525  0.18826651  0.22543743  1
  Mo  Mo165  1  0.40815351  -0.01193739  0.24790937  1
  Mo  Mo166  1  0.19801763  0.60562668  0.73788417  1
  Mo  Mo167  1  0.39837284  0.79999761  0.50095120  1
  Mo  Mo168  1  0.60920707  0.00943941  0.51278765  1
  Mo  Mo169  1  0.49560874  0.30207523  0.87681344  1
  Mo  Mo170  1  -0.00021587  0.60513579  0.01167449  1
  Mo  Mo171  1  0.61512638  0.20218056  0.23689395  1
  Mo  Mo172  1  0.20709661  0.39857113  0.23758216  1
  Mo  Mo173  1  0.09325743  0.70536652  0.86802640  1
  Mo  Mo174  1  0.09683517  0.49856267  0.36909068  1
  Mo  Mo175  1  0.89661734  0.31038891  0.13794435  1
  Mo  Mo176  1  0.70834848  0.90277684  0.63785753  1
  Mo  Mo177  1  0.50963572  0.50617864  0.87542176  1
  Mo  Mo178  1  0.29846034  0.09389550  0.62665009  1
  Mo  Mo179  1  0.80226058  0.00754099  -0.00976415  1
  Mo  Mo180  1  0.20268688  0.79219855  0.50784847  1
  Mo  Mo181  1  0.79544529  0.80076438  0.50549508  1
  Mo  Mo182  1  0.29925055  0.09108074  0.89504702  1
  Mo  Mo183  1  0.80237446  0.82353214  0.24864991  1
  Mo  Mo184  1  0.89537585  0.50739965  0.62290388  1
  Mo  Mo185  1  0.90326384  0.70555327  0.36235036  1
  Mo  Mo186  1  0.50755846  0.09546025  0.10498070  1
  Mo  Mo187  1  0.10848313  0.11723354  0.88335657  1
  Mo  Mo188  1  0.20236890  0.59961340  0.01382139  1
  Mo  Mo189  1  0.30270130  0.90133049  0.37131460  1
  Mo  Mo190  1  0.29480237  0.89008771  0.11771237  1
  Mo  Mo191  1  -0.01204780  0.39841012  0.75217761  1
  Mo  Mo192  1  0.50030776  0.89039745  0.87481013  1
  Mo  Mo193  1  0.80116717  0.20749894  -0.00647152  1
  Mo  Mo194  1  0.79469977  0.59050675  0.25318849  1
  Mo  Mo195  1  0.60448887  0.60533657  0.74585949  1
  Mo  Mo196  1  -0.00684059  0.39526934  0.48937401  1
  Mo  Mo197  1  0.71291154  0.70709240  0.61873594  1
  Mo  Mo198  1  0.18800138  0.19578580  0.76256885  1
  Mo  Mo199  1  0.30607067  0.48788708  0.37277419  1
