# generated using pymatgen
data_HfZrTaTiMo
_symmetry_space_group_name_H-M   'P 1'
_cell_length_a   15.21756798
_cell_length_b   15.21338217
_cell_length_c   16.80341798
_cell_angle_alpha   90.03279278
_cell_angle_beta   89.94689694
_cell_angle_gamma   90.07882284
_symmetry_Int_Tables_number   1
_chemical_formula_structural   HfZrTaTiMo
_chemical_formula_sum   'Hf40 Zr40 Ta40 Ti40 Mo40'
_cell_volume   3890.16469129
_cell_formula_units_Z   40
loop_
 _symmetry_equiv_pos_site_id
 _symmetry_equiv_pos_as_xyz
  1  'x, y, z'
loop_
 _atom_site_type_symbol
 _atom_site_label
 _atom_site_symmetry_multiplicity
 _atom_site_fract_x
 _atom_site_fract_y
 _atom_site_fract_z
 _atom_site_occupancy
  Hf  Hf0  1  0.91633982  0.28937941  0.37676602  1
  Hf  Hf1  1  0.40265419  -0.00011564  0.73387166  1
  Hf  Hf2  1  0.81199545  0.61525201  0.26165612  1
  Hf  Hf3  1  0.31134870  0.48864442  0.62454225  1
  Hf  Hf4  1  0.80300855  0.40758456  0.49330479  1
  Hf  Hf5  1  0.30950161  0.69848523  0.38797182  1
  Hf  Hf6  1  0.19801954  0.80018532  0.01289216  1
  Hf  Hf7  1  -0.00100217  -0.00189332  0.23855112  1
  Hf  Hf8  1  0.89677140  0.89815672  0.87093106  1
  Hf  Hf9  1  0.70960072  0.10437281  0.13125634  1
  Hf  Hf10  1  0.50444506  0.50265513  0.63856364  1
  Hf  Hf11  1  0.31498963  0.48909391  0.39410697  1
  Hf  Hf12  1  0.20329364  0.60245733  0.26130123  1
  Hf  Hf13  1  0.40763239  -0.01553434  0.01712782  1
  Hf  Hf14  1  0.30383682  0.31364701  0.11655669  1
  Hf  Hf15  1  0.11162988  0.11396687  0.88972476  1
  Hf  Hf16  1  0.39496515  0.78494142  0.00285028  1
  Hf  Hf17  1  0.79100657  0.59839219  -0.01020337  1
  Hf  Hf18  1  0.79338294  0.19670597  0.50511206  1
  Hf  Hf19  1  0.21927890  0.40496984  0.24770013  1
  Hf  Hf20  1  0.29241476  0.09775371  0.36478121  1
  Hf  Hf21  1  0.69210698  0.50363390  0.12821423  1
  Hf  Hf22  1  0.79168477  0.00154450  0.74781941  1
  Hf  Hf23  1  0.69870759  0.69927500  0.13274339  1
  Hf  Hf24  1  0.20920385  0.00735721  0.74898615  1
  Hf  Hf25  1  0.59157518  0.79876879  -0.00094835  1
  Hf  Hf26  1  0.29824821  0.48899119  0.86497206  1
  Hf  Hf27  1  0.81096000  0.60918562  0.49033832  1
  Hf  Hf28  1  0.11039860  0.49197506  0.11639403  1
  Hf  Hf29  1  0.89355089  0.30280908  0.62873583  1
  Hf  Hf30  1  0.00153148  0.59907057  -0.01298089  1
  Hf  Hf31  1  0.39521095  0.79866954  0.75130726  1
  Hf  Hf32  1  -0.01058966  0.79155558  0.24121765  1
  Hf  Hf33  1  0.68548197  0.91072202  0.11965608  1
  Hf  Hf34  1  0.89625937  0.69725389  0.85433615  1
  Hf  Hf35  1  0.61010165  0.19953496  -0.00454365  1
  Hf  Hf36  1  0.59710756  0.40276123  -0.00924842  1
  Hf  Hf37  1  0.60742755  0.61430838  0.50138271  1
  Hf  Hf38  1  0.30539502  0.69805029  0.61171582  1
  Hf  Hf39  1  0.19866932  0.20771199  0.74374603  1
  Zr  Zr40  1  0.69884907  0.29784266  0.37152877  1
  Zr  Zr41  1  -0.00637176  0.01393547  0.75365677  1
  Zr  Zr42  1  0.58365123  0.18788499  0.49899880  1
  Zr  Zr43  1  0.09573352  0.68656070  0.12768832  1
  Zr  Zr44  1  0.30551520  0.89664041  0.38154475  1
  Zr  Zr45  1  0.09593601  0.89746701  0.63514704  1
  Zr  Zr46  1  0.79905664  0.79371790  0.00104123  1
  Zr  Zr47  1  0.59854967  0.39629891  0.50817437  1
  Zr  Zr48  1  0.78955265  0.00917594  -0.01163666  1
  Zr  Zr49  1  0.09173946  0.69921502  0.63800480  1
  Zr  Zr50  1  0.70145628  0.49836259  0.85332422  1
  Zr  Zr51  1  0.57889118  0.40592426  0.25371818  1
  Zr  Zr52  1  0.20875263  0.00090452  0.01075890  1
  Zr  Zr53  1  0.91281439  0.50668907  0.64358987  1
  Zr  Zr54  1  0.69479237  0.72154595  0.36911712  1
  Zr  Zr55  1  0.89971124  0.08295240  0.38069680  1
  Zr  Zr56  1  0.48930606  0.09526933  0.87273437  1
  Zr  Zr57  1  0.38403417  0.20561058  0.50938655  1
  Zr  Zr58  1  0.80407264  0.38563530  -0.01839959  1
  Zr  Zr59  1  0.09752365  0.90100225  0.86885221  1
  Zr  Zr60  1  0.41519416  0.00707444  0.51016708  1
  Zr  Zr61  1  0.00957743  0.39831288  0.49709585  1
  Zr  Zr62  1  0.40174654  -0.01412749  0.24266087  1
  Zr  Zr63  1  0.90994617  0.30130971  0.11515801  1
  Zr  Zr64  1  0.01856842  0.39279595  0.25514714  1
  Zr  Zr65  1  0.10397583  0.71088416  0.86130899  1
  Zr  Zr66  1  0.90560028  0.51388030  0.12242279  1
  Zr  Zr67  1  0.79283887  0.20693010  0.75703206  1
  Zr  Zr68  1  0.10925198  0.49109424  0.63700576  1
  Zr  Zr69  1  0.21484206  0.60737795  0.75366537  1
  Zr  Zr70  1  0.71092366  0.50446111  0.63930553  1
  Zr  Zr71  1  0.20299985  0.81746990  0.23834645  1
  Zr  Zr72  1  0.40007579  0.19387581  0.00569999  1
  Zr  Zr73  1  0.19221150  0.59753089  0.49719694  1
  Zr  Zr74  1  0.58932843  0.19595988  0.26266100  1
  Zr  Zr75  1  0.47852158  0.50016131  0.11593106  1
  Zr  Zr76  1  0.51282918  0.71063489  0.62354214  1
  Zr  Zr77  1  0.09714915  0.91494488  0.37720014  1
  Zr  Zr78  1  0.70444122  0.29972366  0.13296867  1
  Zr  Zr79  1  0.81127688  0.40670819  0.25935969  1
  Ta  Ta80  1  0.00415982  0.19250779  0.50739135  1
  Ta  Ta81  1  0.90804955  0.49129588  0.85843236  1
  Ta  Ta82  1  0.49999619  0.29800478  0.86210051  1
  Ta  Ta83  1  -0.00178727  0.60296526  0.48437362  1
  Ta  Ta84  1  0.39700975  0.20811026  0.24786481  1
  Ta  Ta85  1  0.30074328  0.89966659  0.87454404  1
  Ta  Ta86  1  0.40182093  0.39856815  -0.01855838  1
  Ta  Ta87  1  0.89591060  0.69945079  0.63941664  1
  Ta  Ta88  1  0.90081658  0.10764980  0.11319054  1
  Ta  Ta89  1  0.59709454  -0.00506283  0.73928264  1
  Ta  Ta90  1  0.00618110  0.19408768  0.24273288  1
  Ta  Ta91  1  0.69484859  0.08562891  0.37794815  1
  Ta  Ta92  1  0.29429334  0.27940056  0.88020161  1
  Ta  Ta93  1  0.49938557  0.50920405  0.38619005  1
  Ta  Ta94  1  0.19078754  0.20608739  0.24141112  1
  Ta  Ta95  1  0.89176354  0.90780783  0.12064175  1
  Ta  Ta96  1  0.49891700  0.89940766  0.87565068  1
  Ta  Ta97  1  0.51118655  0.09095191  0.12678695  1
  Ta  Ta98  1  0.68715840  0.90093178  0.87447293  1
  Ta  Ta99  1  0.50339208  0.49401757  0.85530074  1
  Ta  Ta100  1  0.00013147  -0.00232705  0.00625310  1
  Ta  Ta101  1  -0.00168886  0.20309720  0.75399294  1
  Ta  Ta102  1  0.69524310  0.50853453  0.37108916  1
  Ta  Ta103  1  -0.00474263  0.80077589  0.01304869  1
  Ta  Ta104  1  0.79784438  0.81998656  0.24339299  1
  Ta  Ta105  1  0.41048868  0.60564016  0.76158432  1
  Ta  Ta106  1  0.28931356  0.29499723  0.37322160  1
  Ta  Ta107  1  0.40074888  0.58621652  0.25380064  1
  Ta  Ta108  1  0.19981956  0.00973293  0.50987387  1
  Ta  Ta109  1  0.89186906  0.88956982  0.38164794  1
  Ta  Ta110  1  0.29764049  0.10208702  0.13826773  1
  Ta  Ta111  1  0.19085457  0.19906631  0.50866551  1
  Ta  Ta112  1  -0.01095742  0.79492066  0.50353148  1
  Ta  Ta113  1  0.60397356  -0.00456925  0.25481160  1
  Ta  Ta114  1  0.51599874  0.90544737  0.38068203  1
  Ta  Ta115  1  0.19244277  0.80748518  0.50060875  1
  Ta  Ta116  1  0.79026313  0.80190903  0.51521880  1
  Ta  Ta117  1  0.59068892  0.19335806  0.73957840  1
  Ta  Ta118  1  0.00197666  0.59421859  0.27510872  1
  Ta  Ta119  1  0.77833109  0.79721539  0.74191891  1
  Ti  Ti120  1  0.89604160  0.89706048  0.63103143  1
  Ti  Ti121  1  0.41540454  0.80401881  0.50355096  1
  Ti  Ti122  1  0.81032245  0.18731387  0.25799241  1
  Ti  Ti123  1  0.20312304  0.40215739  -0.00841889  1
  Ti  Ti124  1  0.69183446  0.09779383  0.62191010  1
  Ti  Ti125  1  0.58831326  0.80590872  0.24617203  1
  Ti  Ti126  1  0.09877306  0.30112636  0.62978954  1
  Ti  Ti127  1  0.89951855  0.09912004  0.62373587  1
  Ti  Ti128  1  0.09401868  0.10148763  0.62590112  1
  Ti  Ti129  1  0.40190988  0.59529813  -0.02393495  1
  Ti  Ti130  1  0.40155374  0.78574614  0.24290944  1
  Ti  Ti131  1  0.79283687  -0.00841925  0.51350027  1
  Ti  Ti132  1  0.10093550  0.49665412  0.86621819  1
  Ti  Ti133  1  0.09847324  0.10485274  0.11498174  1
  Ti  Ti134  1  0.68929135  0.10064340  0.87034790  1
  Ti  Ti135  1  0.39014866  0.19323648  0.73829325  1
  Ti  Ti136  1  0.49805210  0.70584336  0.37876750  1
  Ti  Ti137  1  0.39061983  0.38302013  0.75261884  1
  Ti  Ti138  1  0.49014779  0.30021423  0.62975312  1
  Ti  Ti139  1  0.30544231  0.67721956  0.12486545  1
  Ti  Ti140  1  0.09834531  0.11177707  0.37428301  1
  Ti  Ti141  1  0.70678292  0.90681696  0.37752927  1
  Ti  Ti142  1  0.47796963  0.30961000  0.38064546  1
  Ti  Ti143  1  0.20957946  0.38150626  0.50371231  1
  Ti  Ti144  1  0.50066111  0.69165091  0.12788154  1
  Ti  Ti145  1  0.21248285  0.60182366  -0.01246810  1
  Ti  Ti146  1  0.10235700  0.29374979  0.10247607  1
  Ti  Ti147  1  0.90557249  0.11469268  0.88980642  1
  Ti  Ti148  1  -0.00172783  -0.00398170  0.50727572  1
  Ti  Ti149  1  0.59439953  0.80935025  0.75306911  1
  Ti  Ti150  1  0.29987838  0.89597818  0.61640249  1
  Ti  Ti151  1  0.09826319  0.71429474  0.37659031  1
  Ti  Ti152  1  0.59216357  0.60659340  0.25768333  1
  Ti  Ti153  1  0.10849086  0.48477205  0.38047881  1
  Ti  Ti154  1  0.61067376  0.62538401  0.75680858  1
  Ti  Ti155  1  0.50035775  0.29786473  0.12422058  1
  Ti  Ti156  1  0.09298506  0.30449550  0.88872116  1
  Ti  Ti157  1  0.00583042  0.38626937  0.75927697  1
  Ti  Ti158  1  0.61272903  0.37818541  0.74135924  1
  Ti  Ti159  1  0.59128227  0.60502354  -0.01769924  1
  Mo  Mo160  1  0.90495164  0.50084717  0.37574885  1
  Mo  Mo161  1  0.60340969  0.81941525  0.49946164  1
  Mo  Mo162  1  0.89630470  0.70109691  0.12600139  1
  Mo  Mo163  1  0.61044696  -0.00135996  0.50221846  1
  Mo  Mo164  1  0.30391537  0.70315546  0.87841620  1
  Mo  Mo165  1  0.69091634  0.29190911  0.86718280  1
  Mo  Mo166  1  0.28885143  0.09833754  0.62117592  1
  Mo  Mo167  1  0.19005180  0.01766420  0.23716818  1
  Mo  Mo168  1  0.40483556  0.39451244  0.50604257  1
  Mo  Mo169  1  0.90736705  0.29768332  0.87473930  1
  Mo  Mo170  1  0.50469105  0.70118627  0.87106002  1
  Mo  Mo171  1  0.30007326  0.50742845  0.11047496  1
  Mo  Mo172  1  0.79799172  0.60279493  0.75442473  1
  Mo  Mo173  1  0.29202597  0.30370276  0.62968988  1
  Mo  Mo174  1  0.59309599  0.00246169  -0.00250222  1
  Mo  Mo175  1  0.69533468  0.89878044  0.62732973  1
  Mo  Mo176  1  0.09194137  0.90667944  0.12113225  1
  Mo  Mo177  1  0.00393699  0.59512592  0.75916651  1
  Mo  Mo178  1  0.30107547  0.89114684  0.13076572  1
  Mo  Mo179  1  0.50627526  0.90248718  0.62104592  1
  Mo  Mo180  1  0.41435832  0.60077813  0.50165336  1
  Mo  Mo181  1  0.50084389  0.10457947  0.63205535  1
  Mo  Mo182  1  0.79948959  -0.00007507  0.25112056  1
  Mo  Mo183  1  0.70592873  0.70291368  0.62561737  1
  Mo  Mo184  1  0.69293087  0.29436588  0.62527189  1
  Mo  Mo185  1  0.40130957  0.39668974  0.25272538  1
  Mo  Mo186  1  0.49602516  0.09775082  0.36701190  1
  Mo  Mo187  1  0.11164864  0.28731961  0.37665067  1
  Mo  Mo188  1  0.19771646  0.38850497  0.76074828  1
  Mo  Mo189  1  0.20456170  0.20360318  0.00678398  1
  Mo  Mo190  1  0.80403366  0.39288181  0.75782576  1
  Mo  Mo191  1  0.69284343  0.70967125  0.87270258  1
  Mo  Mo192  1  0.50072861  0.88578099  0.13263945  1
  Mo  Mo193  1  0.90402667  0.71393154  0.37897784  1
  Mo  Mo194  1  0.01025296  0.40607851  -0.01321447  1
  Mo  Mo195  1  0.80066601  0.19852288  -0.01405972  1
  Mo  Mo196  1  0.21408083  0.81209168  0.74802281  1
  Mo  Mo197  1  0.30409199  0.09637009  0.87576414  1
  Mo  Mo198  1  0.00069734  0.20094478  0.00177167  1
  Mo  Mo199  1  -0.01454190  0.80612643  0.74046695  1
