# generated using pymatgen
data_HfZrTaTiMo
_symmetry_space_group_name_H-M   'P 1'
_cell_length_a   15.21897969
_cell_length_b   15.21301485
_cell_length_c   16.86920015
_cell_angle_alpha   90.00849334
_cell_angle_beta   89.97483671
_cell_angle_gamma   90.00573644
_symmetry_Int_Tables_number   1
_chemical_formula_structural   HfZrTaTiMo
_chemical_formula_sum   'Hf40 Zr40 Ta40 Ti40 Mo40'
_cell_volume   3905.66751094
_cell_formula_units_Z   40
loop_
 _symmetry_equiv_pos_site_id
 _symmetry_equiv_pos_as_xyz
  1  'x, y, z'
loop_
 _atom_site_type_symbol
 _atom_site_label
 _atom_site_symmetry_multiplicity
 _atom_site_fract_x
 _atom_site_fract_y
 _atom_site_fract_z
 _atom_site_occupancy
  Hf  Hf0  1  0.31514698  0.28287925  0.88359706  1
  Hf  Hf1  1  0.37814730  0.59113911  0.49308039  1
  Hf  Hf2  1  0.49476861  0.90747638  0.12001491  1
  Hf  Hf3  1  0.00599448  0.40454212  0.49193550  1
  Hf  Hf4  1  0.11041111  0.10224560  0.61129053  1
  Hf  Hf5  1  0.90410837  0.10249674  0.12588481  1
  Hf  Hf6  1  0.61000452  0.81126461  -0.01685642  1
  Hf  Hf7  1  0.20165476  0.19882293  0.74873618  1
  Hf  Hf8  1  0.18962713  0.60426666  0.75217836  1
  Hf  Hf9  1  -0.01474996  0.79684342  0.00385123  1
  Hf  Hf10  1  0.91191863  0.91094077  0.37296467  1
  Hf  Hf11  1  0.38749621  0.60234496  -0.00414693  1
  Hf  Hf12  1  0.58154061  0.80609033  0.25343353  1
  Hf  Hf13  1  0.28407519  0.69424211  0.15124024  1
  Hf  Hf14  1  0.19250060  -0.02234256  0.48375388  1
  Hf  Hf15  1  0.90191206  0.71059172  0.13846842  1
  Hf  Hf16  1  0.50064314  0.49667529  0.60371783  1
  Hf  Hf17  1  0.20664119  0.40153470  0.49818931  1
  Hf  Hf18  1  0.39763183  0.17885587  0.73939247  1
  Hf  Hf19  1  0.71519175  0.51084247  0.87223663  1
  Hf  Hf20  1  0.09166544  0.09829322  0.37795548  1
  Hf  Hf21  1  0.60737558  0.60370598  0.25621594  1
  Hf  Hf22  1  0.21415097  -0.01537189  0.74262891  1
  Hf  Hf23  1  0.90244924  0.70603366  0.39250931  1
  Hf  Hf24  1  0.59786994  0.01562701  -0.00644115  1
  Hf  Hf25  1  0.70173142  0.90391833  0.12899723  1
  Hf  Hf26  1  0.08399242  0.69405882  0.87725624  1
  Hf  Hf27  1  0.90193796  0.10271229  0.88258836  1
  Hf  Hf28  1  0.59654996  0.21342921  0.74751602  1
  Hf  Hf29  1  0.90445548  0.51397295  0.13640506  1
  Hf  Hf30  1  0.29734756  0.09895332  0.37226118  1
  Hf  Hf31  1  0.80255954  -0.01274115  -0.00417738  1
  Hf  Hf32  1  0.37487795  0.80284669  0.75525790  1
  Hf  Hf33  1  0.50062333  0.09983598  0.61044954  1
  Hf  Hf34  1  0.69817781  0.69927738  0.12192658  1
  Hf  Hf35  1  0.00316748  0.20022733  0.74662160  1
  Hf  Hf36  1  0.57991073  0.40454704  0.24068195  1
  Hf  Hf37  1  0.10830794  0.30484768  0.88605170  1
  Hf  Hf38  1  0.79612164  0.01366221  0.50013386  1
  Hf  Hf39  1  0.62018653  0.19791988  0.49540583  1
  Zr  Zr40  1  0.79152994  0.79886901  0.26551000  1
  Zr  Zr41  1  0.19453163  0.78169375  0.01148497  1
  Zr  Zr42  1  0.90308600  0.30772848  0.62526443  1
  Zr  Zr43  1  0.68832698  0.90689034  0.37768072  1
  Zr  Zr44  1  0.38470223  0.58685037  0.74469042  1
  Zr  Zr45  1  0.00611493  0.40394846  0.74840381  1
  Zr  Zr46  1  0.29985078  0.49590126  0.14137566  1
  Zr  Zr47  1  0.50230776  0.32213397  0.39075816  1
  Zr  Zr48  1  0.78479511  0.41088790  0.24607621  1
  Zr  Zr49  1  0.90451328  0.30381263  0.36155301  1
  Zr  Zr50  1  0.89204810  0.87620653  0.86705938  1
  Zr  Zr51  1  0.50045875  0.48915050  0.87592464  1
  Zr  Zr52  1  0.40990695  0.20468550  0.25987568  1
  Zr  Zr53  1  0.09938020  0.88600660  0.13754879  1
  Zr  Zr54  1  0.47911437  0.91771897  0.87050584  1
  Zr  Zr55  1  0.90389280  0.30499401  0.13154554  1
  Zr  Zr56  1  0.69813554  0.30892724  0.88114047  1
  Zr  Zr57  1  0.60477107  0.40621139  0.01607508  1
  Zr  Zr58  1  0.60178561  0.61063525  0.74163014  1
  Zr  Zr59  1  0.90100621  0.11239983  0.36930543  1
  Zr  Zr60  1  0.49686840  0.70204205  0.87292130  1
  Zr  Zr61  1  0.00684255  0.79315314  0.73567516  1
  Zr  Zr62  1  0.90695365  0.69536955  0.59783036  1
  Zr  Zr63  1  0.00805217  -0.00384377  0.74078111  1
  Zr  Zr64  1  0.89823316  0.30936085  0.88342039  1
  Zr  Zr65  1  0.40327768  -0.02245532  0.48191827  1
  Zr  Zr66  1  0.49532254  0.90129848  0.63159988  1
  Zr  Zr67  1  0.48735637  0.70738495  0.11551947  1
  Zr  Zr68  1  0.59382417  0.01378298  0.75779407  1
  Zr  Zr69  1  0.68285601  0.49700786  0.39403442  1
  Zr  Zr70  1  0.10762036  0.09437280  0.88029541  1
  Zr  Zr71  1  0.40317135  0.38654582  0.00936455  1
  Zr  Zr72  1  0.29718491  0.28836535  0.60904952  1
  Zr  Zr73  1  0.61761282  0.40904793  0.73553500  1
  Zr  Zr74  1  0.20875746  0.18430682  0.01713355  1
  Zr  Zr75  1  0.79680008  -0.00671369  0.75052240  1
  Zr  Zr76  1  0.10196519  0.51184431  0.61835139  1
  Zr  Zr77  1  0.48790732  0.70894634  0.61400643  1
  Zr  Zr78  1  0.40694093  0.38328528  0.74582606  1
  Zr  Zr79  1  0.49811971  0.71321009  0.39664163  1
  Ta  Ta80  1  0.79805088  0.20648172  0.75009446  1
  Ta  Ta81  1  0.60873740  0.60463593  -0.00505913  1
  Ta  Ta82  1  0.00258134  0.59728290  0.00776475  1
  Ta  Ta83  1  0.01203221  -0.00063327  0.00849314  1
  Ta  Ta84  1  0.27671516  0.69493194  0.61748616  1
  Ta  Ta85  1  0.51755504  0.09676464  0.37692187  1
  Ta  Ta86  1  0.29613814  0.29774768  0.37652157  1
  Ta  Ta87  1  0.29101043  0.88288711  0.61382050  1
  Ta  Ta88  1  0.61770046  0.81003695  0.75584574  1
  Ta  Ta89  1  0.70709597  0.10852916  0.62866100  1
  Ta  Ta90  1  0.41474771  0.59336404  0.26321706  1
  Ta  Ta91  1  0.30074751  0.49041210  0.35899045  1
  Ta  Ta92  1  0.69926058  0.70814210  0.60731292  1
  Ta  Ta93  1  0.49053492  0.12468205  0.88341488  1
  Ta  Ta94  1  0.80361587  0.41811559  0.01442437  1
  Ta  Ta95  1  0.31126518  0.28656049  0.13514166  1
  Ta  Ta96  1  0.80378944  0.60454641  0.73802576  1
  Ta  Ta97  1  0.40973838  -0.01071701  0.26159835  1
  Ta  Ta98  1  0.30677560  0.07657569  0.87975220  1
  Ta  Ta99  1  0.00617807  0.19972597  0.01005825  1
  Ta  Ta100  1  0.20875779  0.40182667  0.74199306  1
  Ta  Ta101  1  0.20212680  0.38460640  0.24880963  1
  Ta  Ta102  1  0.72456465  0.71601777  0.87124652  1
  Ta  Ta103  1  0.01636288  0.41641026  0.25483327  1
  Ta  Ta104  1  0.80948300  0.20743758  0.50095133  1
  Ta  Ta105  1  0.11073049  0.89370815  0.87947559  1
  Ta  Ta106  1  0.50482424  0.29892377  0.60331015  1
  Ta  Ta107  1  0.10652428  0.29214856  0.36754580  1
  Ta  Ta108  1  0.20175853  -0.01380947  0.25948644  1
  Ta  Ta109  1  0.89898834  0.10334020  0.62156830  1
  Ta  Ta110  1  0.79463597  0.01019557  0.24979655  1
  Ta  Ta111  1  0.20854004  -0.01683956  0.01233733  1
  Ta  Ta112  1  0.90700158  0.50975520  0.87846379  1
  Ta  Ta113  1  0.90367023  0.51081885  0.37670780  1
  Ta  Ta114  1  0.29258338  0.69399715  0.35729169  1
  Ta  Ta115  1  0.70114846  0.11054860  0.87909850  1
  Ta  Ta116  1  0.49842830  0.11042455  0.12908778  1
  Ta  Ta117  1  0.80889300  0.61491214  0.00057829  1
  Ta  Ta118  1  0.18893569  0.58468168  0.00673292  1
  Ta  Ta119  1  -0.00922904  0.59749107  0.74448111  1
  Ti  Ti120  1  0.39198004  0.00946777  0.00986685  1
  Ti  Ti121  1  0.30528534  0.88813156  0.14384164  1
  Ti  Ti122  1  0.30336095  0.08408923  0.14189980  1
  Ti  Ti123  1  0.39951184  0.19697154  0.48831065  1
  Ti  Ti124  1  0.09346435  0.68999804  0.36666252  1
  Ti  Ti125  1  0.00730520  0.40706230  0.00928727  1
  Ti  Ti126  1  0.30397741  0.08452067  0.60352972  1
  Ti  Ti127  1  0.10028758  0.49641488  0.87811082  1
  Ti  Ti128  1  0.18685401  0.59825168  0.48537529  1
  Ti  Ti129  1  0.89505904  0.50210669  0.61280129  1
  Ti  Ti130  1  0.00590988  0.79754813  0.25651609  1
  Ti  Ti131  1  0.89935354  0.89699685  0.62030123  1
  Ti  Ti132  1  0.01013121  0.20845947  0.50683608  1
  Ti  Ti133  1  0.19977842  0.39540489  0.01625869  1
  Ti  Ti134  1  0.69734313  0.69771121  0.40726067  1
  Ti  Ti135  1  0.50273720  0.51372382  0.12157301  1
  Ti  Ti136  1  0.19587520  0.78995732  0.47948595  1
  Ti  Ti137  1  0.70957407  0.50908948  0.60623385  1
  Ti  Ti138  1  0.60123734  0.01205262  0.25104830  1
  Ti  Ti139  1  0.89739423  0.90556403  0.13587414  1
  Ti  Ti140  1  0.38144717  0.81338879  -0.00770560  1
  Ti  Ti141  1  0.60895601  0.20106214  0.25160364  1
  Ti  Ti142  1  0.69882313  0.90216244  0.62231845  1
  Ti  Ti143  1  0.28799595  0.48799429  0.88126104  1
  Ti  Ti144  1  0.70509375  0.29480453  0.37182223  1
  Ti  Ti145  1  0.80043042  0.39836940  0.49272288  1
  Ti  Ti146  1  0.28348530  0.70125941  0.87749621  1
  Ti  Ti147  1  0.71128186  0.30820367  0.62225625  1
  Ti  Ti148  1  -0.00111254  -0.00921409  0.50853954  1
  Ti  Ti149  1  0.69688763  0.29954917  0.12545422  1
  Ti  Ti150  1  0.10119969  0.29603851  0.13159552  1
  Ti  Ti151  1  0.00786233  0.01158813  0.24238435  1
  Ti  Ti152  1  0.60455734  -0.00264165  0.50015274  1
  Ti  Ti153  1  0.19098111  0.18667775  0.24116965  1
  Ti  Ti154  1  0.58788713  0.21264140  0.00528222  1
  Ti  Ti155  1  0.79533232  0.20508504  0.00579471  1
  Ti  Ti156  1  0.79733666  0.81592406  0.49982535  1
  Ti  Ti157  1  0.69782200  0.10575365  0.12219112  1
  Ti  Ti158  1  0.79899631  0.60430441  0.26325684  1
  Ti  Ti159  1  0.79541084  0.19883515  0.24389259  1
  Mo  Mo160  1  0.10557200  0.88700100  0.61380840  1
  Mo  Mo161  1  0.19459758  0.79525612  0.74960498  1
  Mo  Mo162  1  0.50113437  0.90407227  0.37342016  1
  Mo  Mo163  1  0.50388710  0.29568515  0.13302375  1
  Mo  Mo164  1  0.89628531  0.68570541  0.86825010  1
  Mo  Mo165  1  0.39807568  0.40135448  0.24740383  1
  Mo  Mo166  1  0.01337912  0.20757459  0.23978996  1
  Mo  Mo167  1  0.01660182  0.81220743  0.49810825  1
  Mo  Mo168  1  0.80044137  0.79937521  0.00463715  1
  Mo  Mo169  1  0.19366840  0.79328624  0.26157251  1
  Mo  Mo170  1  0.59852259  0.60530868  0.50913398  1
  Mo  Mo171  1  0.28883981  0.89574692  0.88403256  1
  Mo  Mo172  1  0.59769227  0.81432224  0.50713523  1
  Mo  Mo173  1  0.40424016  0.18703332  0.01439809  1
  Mo  Mo174  1  0.10496582  0.29809147  0.62427233  1
  Mo  Mo175  1  0.09780910  0.48988624  0.12535327  1
  Mo  Mo176  1  0.10638096  0.09256617  0.12839892  1
  Mo  Mo177  1  -0.00481247  0.60429554  0.26109077  1
  Mo  Mo178  1  0.80869538  0.41778542  0.74282974  1
  Mo  Mo179  1  0.18155123  0.58270375  0.26011190  1
  Mo  Mo180  1  0.49277448  0.50609369  0.38824439  1
  Mo  Mo181  1  0.19939720  0.19364277  0.49208214  1
  Mo  Mo182  1  0.79585737  0.79237932  0.72925861  1
  Mo  Mo183  1  0.00696302  0.59983925  0.48822584  1
  Mo  Mo184  1  0.69949644  0.90575044  0.87084582  1
  Mo  Mo185  1  0.80094777  0.59545064  0.49859765  1
  Mo  Mo186  1  0.30149113  0.88320598  0.36071327  1
  Mo  Mo187  1  0.29823726  0.50205258  0.62730300  1
  Mo  Mo188  1  0.70018429  0.51339462  0.12217363  1
  Mo  Mo189  1  0.39590143  0.39768650  0.49715318  1
  Mo  Mo190  1  0.10499135  0.49520435  0.37472784  1
  Mo  Mo191  1  0.08953702  0.67582421  0.14167223  1
  Mo  Mo192  1  0.37969992  0.79475782  0.49721665  1
  Mo  Mo193  1  0.09518296  0.89228138  0.36075070  1
  Mo  Mo194  1  0.39011402  0.00380499  0.74401502  1
  Mo  Mo195  1  0.39577553  0.79908099  0.25267461  1
  Mo  Mo196  1  0.61152132  0.39492201  0.51166527  1
  Mo  Mo197  1  0.70360695  0.10911241  0.36675199  1
  Mo  Mo198  1  0.50196785  0.29740917  0.87567043  1
  Mo  Mo199  1  0.10468329  0.70740130  0.61037674  1
