# generated using pymatgen
data_HfZrTaTiMo
_symmetry_space_group_name_H-M   'P 1'
_cell_length_a   15.22044267
_cell_length_b   15.20360021
_cell_length_c   16.84415252
_cell_angle_alpha   90.06179574
_cell_angle_beta   89.99146818
_cell_angle_gamma   89.98256514
_symmetry_Int_Tables_number   1
_chemical_formula_structural   HfZrTaTiMo
_chemical_formula_sum   'Hf40 Zr40 Ta40 Ti40 Mo40'
_cell_volume   3897.82747092
_cell_formula_units_Z   40
loop_
 _symmetry_equiv_pos_site_id
 _symmetry_equiv_pos_as_xyz
  1  'x, y, z'
loop_
 _atom_site_type_symbol
 _atom_site_label
 _atom_site_symmetry_multiplicity
 _atom_site_fract_x
 _atom_site_fract_y
 _atom_site_fract_z
 _atom_site_occupancy
  Hf  Hf0  1  0.50647279  0.68604265  0.11532791  1
  Hf  Hf1  1  0.69394264  0.09791129  0.38396402  1
  Hf  Hf2  1  0.39258660  -0.00765481  0.24950826  1
  Hf  Hf3  1  0.80514156  0.00636625  -0.01101940  1
  Hf  Hf4  1  -0.00327495  0.21237616  0.26859301  1
  Hf  Hf5  1  0.90432171  0.90068862  0.37992024  1
  Hf  Hf6  1  0.48957064  0.47495859  0.11181629  1
  Hf  Hf7  1  0.08543931  0.51012520  0.87032218  1
  Hf  Hf8  1  0.00951240  0.01158918  0.49939837  1
  Hf  Hf9  1  0.20963903  0.00617311  -0.02409479  1
  Hf  Hf10  1  0.20955436  0.39514175  0.25130538  1
  Hf  Hf11  1  0.00517043  0.21803653  0.49338608  1
  Hf  Hf12  1  0.69960875  0.90223170  0.11977095  1
  Hf  Hf13  1  0.60555684  0.58849056  0.74703089  1
  Hf  Hf14  1  0.10198157  0.90734421  0.62460320  1
  Hf  Hf15  1  0.00091534  0.01059070  0.26154397  1
  Hf  Hf16  1  0.59678596  0.79812071  0.73385493  1
  Hf  Hf17  1  0.20422630  0.80405495  0.50046637  1
  Hf  Hf18  1  0.11744466  0.11435877  0.63236423  1
  Hf  Hf19  1  0.21172245  0.81503047  0.25234148  1
  Hf  Hf20  1  -0.00381886  0.39962153  0.00473124  1
  Hf  Hf21  1  0.09912344  0.30333880  0.13116869  1
  Hf  Hf22  1  0.28720315  0.49409853  0.62794904  1
  Hf  Hf23  1  0.91484923  0.69575918  0.86534161  1
  Hf  Hf24  1  -0.00518732  0.59924242  0.50171568  1
  Hf  Hf25  1  0.72055052  0.49036218  0.62187215  1
  Hf  Hf26  1  0.00761874  -0.00064521  0.76270756  1
  Hf  Hf27  1  0.41641175  0.79252862  0.52253482  1
  Hf  Hf28  1  0.61330954  0.58451872  -0.01394608  1
  Hf  Hf29  1  0.39390162  0.36964652  0.51067577  1
  Hf  Hf30  1  0.09540879  0.71062050  0.36876884  1
  Hf  Hf31  1  0.39672356  0.59407786  0.51110499  1
  Hf  Hf32  1  0.68850557  0.29874541  0.11963627  1
  Hf  Hf33  1  0.50421021  0.88768130  0.11356286  1
  Hf  Hf34  1  0.30054886  0.91319061  0.62985858  1
  Hf  Hf35  1  0.68848005  0.50537704  0.13773506  1
  Hf  Hf36  1  0.09099418  0.71786952  0.13669988  1
  Hf  Hf37  1  0.70846633  0.70219806  0.86922321  1
  Hf  Hf38  1  0.20388046  0.80111206  -0.01543075  1
  Hf  Hf39  1  0.00330427  0.02706723  -0.02165336  1
  Zr  Zr40  1  0.89013055  0.70643192  0.38161254  1
  Zr  Zr41  1  0.39346907  0.37560921  0.74007327  1
  Zr  Zr42  1  0.29193588  0.50278356  0.86252984  1
  Zr  Zr43  1  0.41173295  0.58497291  0.24843963  1
  Zr  Zr44  1  0.80516782  0.80326170  -0.00004040  1
  Zr  Zr45  1  0.50323142  0.48114471  0.62539559  1
  Zr  Zr46  1  0.90460241  0.11468136  0.63910995  1
  Zr  Zr47  1  0.49437840  0.09781161  0.12185809  1
  Zr  Zr48  1  0.20486449  0.41579624  0.00954595  1
  Zr  Zr49  1  0.40877360  0.00767651  0.50494757  1
  Zr  Zr50  1  0.30821250  0.48702808  0.37863592  1
  Zr  Zr51  1  0.89654406  0.50576206  0.36433835  1
  Zr  Zr52  1  0.68692526  0.29904216  0.38159960  1
  Zr  Zr53  1  0.60273039  0.61220695  0.51843620  1
  Zr  Zr54  1  0.91679742  0.90558913  0.12761509  1
  Zr  Zr55  1  0.31044256  0.70134429  0.37350318  1
  Zr  Zr56  1  0.11446943  0.92130599  0.12084980  1
  Zr  Zr57  1  0.80662504  0.79988762  0.24339441  1
  Zr  Zr58  1  0.80565800  0.00705005  0.51160664  1
  Zr  Zr59  1  0.50102591  0.47454959  0.87440349  1
  Zr  Zr60  1  0.60423561  -0.00635489  0.25030088  1
  Zr  Zr61  1  0.81278937  0.19494198  -0.00212283  1
  Zr  Zr62  1  0.21663430  0.01770885  0.76943694  1
  Zr  Zr63  1  0.50089163  0.27059336  0.88483577  1
  Zr  Zr64  1  0.00890879  0.80429607  -0.01572325  1
  Zr  Zr65  1  0.49163125  0.10702855  0.36886473  1
  Zr  Zr66  1  -0.02498599  0.40050042  0.73376803  1
  Zr  Zr67  1  0.81524036  0.60533012  0.01276479  1
  Zr  Zr68  1  0.29291129  0.29458219  0.87866307  1
  Zr  Zr69  1  0.70147624  0.88938252  0.39457877  1
  Zr  Zr70  1  0.18788442  0.38525523  0.49311615  1
  Zr  Zr71  1  0.69835197  0.30574137  0.88195553  1
  Zr  Zr72  1  0.19444797  0.80499810  0.76490957  1
  Zr  Zr73  1  0.49656412  0.70001229  0.87583364  1
  Zr  Zr74  1  0.38238824  0.58553011  -0.00131120  1
  Zr  Zr75  1  0.18059536  0.19856165  -0.00241361  1
  Zr  Zr76  1  0.88131118  0.49878196  0.87120739  1
  Zr  Zr77  1  0.79735524  0.39001213  0.25784102  1
  Zr  Zr78  1  0.50453800  0.88674446  0.38116940  1
  Zr  Zr79  1  0.79369710  0.40848797  0.00922548  1
  Ta  Ta80  1  0.90234028  0.28868067  0.12944643  1
  Ta  Ta81  1  0.60517645  0.00325991  -0.00652674  1
  Ta  Ta82  1  0.69573630  0.69679720  0.38305094  1
  Ta  Ta83  1  0.69686992  0.90309086  0.87001546  1
  Ta  Ta84  1  0.10674891  0.91043224  0.38073208  1
  Ta  Ta85  1  0.61010565  0.37286273  0.74014891  1
  Ta  Ta86  1  0.10220351  0.50759236  0.36735908  1
  Ta  Ta87  1  0.80786802  0.40459279  0.49162910  1
  Ta  Ta88  1  0.69479142  0.70409195  0.12101277  1
  Ta  Ta89  1  0.60220081  -0.00061961  0.74744363  1
  Ta  Ta90  1  0.18761962  0.61174396  0.00427857  1
  Ta  Ta91  1  0.79496888  0.21301122  0.51170441  1
  Ta  Ta92  1  0.20018474  0.01434976  0.25754661  1
  Ta  Ta93  1  0.39838771  0.60504940  0.73942569  1
  Ta  Ta94  1  0.09755459  0.70214200  0.62321471  1
  Ta  Ta95  1  0.40182759  0.80204841  0.74070719  1
  Ta  Ta96  1  0.12143267  0.12107900  0.37847740  1
  Ta  Ta97  1  0.69963738  0.90163316  0.61690596  1
  Ta  Ta98  1  0.80311008  0.00797605  0.25194769  1
  Ta  Ta99  1  -0.00097549  0.79741226  0.74646821  1
  Ta  Ta100  1  0.29884721  0.69875583  0.12543705  1
  Ta  Ta101  1  0.80267864  0.80487130  0.74012593  1
  Ta  Ta102  1  0.28595960  0.09857107  0.12752627  1
  Ta  Ta103  1  0.09552681  0.50346580  0.62314876  1
  Ta  Ta104  1  0.51040622  0.49042745  0.38730759  1
  Ta  Ta105  1  0.31215977  0.29538834  0.12119950  1
  Ta  Ta106  1  0.20393595  0.60084061  0.24617003  1
  Ta  Ta107  1  0.90809631  0.49981039  0.14321021  1
  Ta  Ta108  1  0.58727641  0.40310500  0.25549484  1
  Ta  Ta109  1  0.08217886  0.29711935  0.86612333  1
  Ta  Ta110  1  0.19451935  0.60049821  0.50015394  1
  Ta  Ta111  1  0.59083471  0.20943164  0.24652012  1
  Ta  Ta112  1  0.18268907  0.39720495  0.74714591  1
  Ta  Ta113  1  0.60094242  0.78021917  0.25103429  1
  Ta  Ta114  1  0.70224326  0.10296529  0.12487067  1
  Ta  Ta115  1  0.31738675  0.12295886  0.63233648  1
  Ta  Ta116  1  0.79597040  0.19286087  0.25022206  1
  Ta  Ta117  1  0.39855023  0.79576081  -0.00135309  1
  Ta  Ta118  1  0.32782756  0.90206394  0.87359852  1
  Ta  Ta119  1  -0.00289958  0.80578154  0.50976477  1
  Ti  Ti120  1  0.78876881  0.23052966  0.73292522  1
  Ti  Ti121  1  0.50055251  0.08117564  0.87887497  1
  Ti  Ti122  1  -0.00423460  0.40456917  0.49734067  1
  Ti  Ti123  1  0.50906240  0.69062612  0.37807936  1
  Ti  Ti124  1  0.30717437  0.90335234  0.11520633  1
  Ti  Ti125  1  0.21180520  0.01909623  0.49547988  1
  Ti  Ti126  1  0.40647105  0.79231791  0.24372943  1
  Ti  Ti127  1  0.29329792  0.26463196  0.36549825  1
  Ti  Ti128  1  0.00446464  0.40462982  0.25850559  1
  Ti  Ti129  1  0.78920877  0.60763756  0.24641268  1
  Ti  Ti130  1  0.90021849  0.90042727  0.62831473  1
  Ti  Ti131  1  0.30357807  0.90727711  0.38173237  1
  Ti  Ti132  1  0.69328826  0.50874484  0.37877005  1
  Ti  Ti133  1  0.80639239  0.59804056  0.74167928  1
  Ti  Ti134  1  0.49240224  0.26324244  0.63378484  1
  Ti  Ti135  1  -0.00497555  0.61393483  0.24741200  1
  Ti  Ti136  1  0.89445155  0.90108651  0.86401424  1
  Ti  Ti137  1  0.00326169  0.60308508  0.01364082  1
  Ti  Ti138  1  0.29126867  0.69987328  0.63082962  1
  Ti  Ti139  1  0.48956269  0.29683204  0.37729127  1
  Ti  Ti140  1  0.30004193  0.69745211  0.86817252  1
  Ti  Ti141  1  0.09617892  0.30103658  0.63106306  1
  Ti  Ti142  1  0.58276494  0.19044094  0.50716639  1
  Ti  Ti143  1  0.19101634  0.60470546  0.74649670  1
  Ti  Ti144  1  0.68966120  0.10851114  0.62945455  1
  Ti  Ti145  1  0.08023186  0.11125639  0.12773171  1
  Ti  Ti146  1  0.79453471  0.00365946  0.74841327  1
  Ti  Ti147  1  0.50009529  0.28734773  0.10445164  1
  Ti  Ti148  1  0.89032691  0.69845380  0.61903153  1
  Ti  Ti149  1  0.38914806  0.17624144  -0.00136001  1
  Ti  Ti150  1  0.51125862  0.89209662  0.88337195  1
  Ti  Ti151  1  0.41805522  -0.00050965  0.74634213  1
  Ti  Ti152  1  0.60166553  0.38720880  0.50795968  1
  Ti  Ti153  1  0.69532755  0.10700307  0.86362918  1
  Ti  Ti154  1  0.89648747  0.30175948  0.86860064  1
  Ti  Ti155  1  0.40647590  0.37858782  0.24979226  1
  Ti  Ti156  1  0.90182615  0.12240850  0.85056315  1
  Ti  Ti157  1  0.89318570  0.11131766  0.38360657  1
  Ti  Ti158  1  0.10307868  0.51076753  0.13655795  1
  Ti  Ti159  1  -0.00042158  0.60421895  0.73318913  1
  Mo  Mo160  1  0.60179456  0.59584202  0.25936285  1
  Mo  Mo161  1  0.19914752  0.19693157  0.23910388  1
  Mo  Mo162  1  0.71073152  0.70133677  0.63178919  1
  Mo  Mo163  1  0.89492877  0.29985365  0.38535107  1
  Mo  Mo164  1  0.90258488  0.69236905  0.13441697  1
  Mo  Mo165  1  0.29291755  0.49954318  0.13171806  1
  Mo  Mo166  1  0.39407385  0.19784496  0.49951407  1
  Mo  Mo167  1  0.21231329  0.20103134  0.50226331  1
  Mo  Mo168  1  0.09698410  0.90050521  0.86921339  1
  Mo  Mo169  1  0.30106982  0.09518655  0.36968319  1
  Mo  Mo170  1  0.90380600  0.50831689  0.61659939  1
  Mo  Mo171  1  0.69748171  0.49825576  0.85770824  1
  Mo  Mo172  1  0.50655149  0.09184524  0.62849133  1
  Mo  Mo173  1  0.79738610  0.60003326  0.49830052  1
  Mo  Mo174  1  0.40227492  0.17945100  0.75983143  1
  Mo  Mo175  1  0.59554836  0.39251999  -0.00174768  1
  Mo  Mo176  1  0.40149069  -0.01003590  -0.00134030  1
  Mo  Mo177  1  0.20191265  0.21336716  0.75591049  1
  Mo  Mo178  1  0.49531134  0.69382820  0.63716520  1
  Mo  Mo179  1  0.10113815  0.11794221  0.86075302  1
  Mo  Mo180  1  0.10400308  0.68947370  0.86746157  1
  Mo  Mo181  1  0.60301874  0.18486696  0.74993615  1
  Mo  Mo182  1  -0.00890563  0.20807914  -0.00378235  1
  Mo  Mo183  1  0.39420653  0.38396926  0.00068202  1
  Mo  Mo184  1  0.88855195  0.31444823  0.61208417  1
  Mo  Mo185  1  0.78815249  0.40463200  0.74638218  1
  Mo  Mo186  1  0.39651524  0.20357260  0.23897016  1
  Mo  Mo187  1  0.10260190  0.31213676  0.36966670  1
  Mo  Mo188  1  -0.00278535  0.20871357  0.74421223  1
  Mo  Mo189  1  0.89769256  0.10402868  0.13259132  1
  Mo  Mo190  1  0.60493635  0.18199486  -0.00028632  1
  Mo  Mo191  1  0.60234458  0.00322434  0.51387994  1
  Mo  Mo192  1  0.50540500  0.90394087  0.62753811  1
  Mo  Mo193  1  0.28344463  0.29120098  0.63439246  1
  Mo  Mo194  1  0.80135124  0.79200890  0.51848609  1
  Mo  Mo195  1  0.60533182  0.79887595  -0.00681839  1
  Mo  Mo196  1  0.60386271  0.79918268  0.51898339  1
  Mo  Mo197  1  0.31927293  0.10374864  0.87289380  1
  Mo  Mo198  1  0.68682882  0.29670070  0.61238060  1
  Mo  Mo199  1  0.00945909  0.81037455  0.25806302  1
