# generated using pymatgen
data_HfZrTaTiMo
_symmetry_space_group_name_H-M   'P 1'
_cell_length_a   15.17410334
_cell_length_b   15.18959636
_cell_length_c   16.80397842
_cell_angle_alpha   89.94708933
_cell_angle_beta   90.00713646
_cell_angle_gamma   90.13374766
_symmetry_Int_Tables_number   1
_chemical_formula_structural   HfZrTaTiMo
_chemical_formula_sum   'Hf40 Zr40 Ta40 Ti40 Mo40'
_cell_volume   3873.11162819
_cell_formula_units_Z   40
loop_
 _symmetry_equiv_pos_site_id
 _symmetry_equiv_pos_as_xyz
  1  'x, y, z'
loop_
 _atom_site_type_symbol
 _atom_site_label
 _atom_site_symmetry_multiplicity
 _atom_site_fract_x
 _atom_site_fract_y
 _atom_site_fract_z
 _atom_site_occupancy
  Hf  Hf0  1  0.69811220  0.09170417  0.86764852  1
  Hf  Hf1  1  0.60476146  -0.00050977  0.27227525  1
  Hf  Hf2  1  0.70775888  0.88926567  0.87222085  1
  Hf  Hf3  1  0.59873915  0.19210139  0.49384492  1
  Hf  Hf4  1  0.21365617  0.81756609  0.74622536  1
  Hf  Hf5  1  0.38751623  -0.02797915  0.48645430  1
  Hf  Hf6  1  0.70000393  0.30729982  0.38662776  1
  Hf  Hf7  1  0.79297030  0.18609175  -0.00138426  1
  Hf  Hf8  1  0.30634961  0.91417418  0.89723254  1
  Hf  Hf9  1  0.90464781  0.68663068  0.38853731  1
  Hf  Hf10  1  0.40880517  0.59529515  0.50683991  1
  Hf  Hf11  1  0.09227060  0.31502110  0.11638475  1
  Hf  Hf12  1  0.39460547  0.60047419  0.00561031  1
  Hf  Hf13  1  0.91577584  0.51929206  0.86117979  1
  Hf  Hf14  1  0.30219437  0.49456831  0.63265597  1
  Hf  Hf15  1  0.50055393  0.88143116  0.87608317  1
  Hf  Hf16  1  0.19876367  0.61796090  0.25816788  1
  Hf  Hf17  1  0.79575106  0.81476172  0.73061215  1
  Hf  Hf18  1  0.80213710  0.61539198  0.00038461  1
  Hf  Hf19  1  0.08758007  0.51568620  0.37692676  1
  Hf  Hf20  1  -0.02413206  0.41860999  0.50249746  1
  Hf  Hf21  1  0.79020111  0.00607876  0.48556092  1
  Hf  Hf22  1  0.09451132  0.69617504  0.86256090  1
  Hf  Hf23  1  0.90776570  0.50160287  0.11515557  1
  Hf  Hf24  1  0.70242218  0.09529753  0.62023767  1
  Hf  Hf25  1  0.90228899  0.29240026  0.87839401  1
  Hf  Hf26  1  0.60400769  -0.01866186  0.74217565  1
  Hf  Hf27  1  0.11058264  0.71987089  0.61777883  1
  Hf  Hf28  1  0.08926393  0.50119655  0.64108762  1
  Hf  Hf29  1  0.79742197  0.61186517  0.73153460  1
  Hf  Hf30  1  0.80255487  0.58888264  0.51920828  1
  Hf  Hf31  1  0.79919928  0.40027215  0.24615712  1
  Hf  Hf32  1  0.19007703  0.39951102  0.24690005  1
  Hf  Hf33  1  0.49380526  0.30140684  0.37307051  1
  Hf  Hf34  1  0.89637388  0.72162202  0.86844679  1
  Hf  Hf35  1  0.19076772  0.78393693  0.00871685  1
  Hf  Hf36  1  0.79673521  0.40244785  0.75418564  1
  Hf  Hf37  1  0.40389138  -0.02171452  0.26043233  1
  Hf  Hf38  1  0.79756964  0.19704068  0.74676764  1
  Hf  Hf39  1  0.20308714  0.42105704  0.00022955  1
  Zr  Zr40  1  0.39443373  -0.01094354  0.74851993  1
  Zr  Zr41  1  0.79953862  -0.00699019  0.27077723  1
  Zr  Zr42  1  0.30862750  0.70986617  0.87598635  1
  Zr  Zr43  1  0.60529530  0.78489798  0.48307731  1
  Zr  Zr44  1  0.59435857  -0.00360611  0.00682893  1
  Zr  Zr45  1  0.79300044  0.19611151  0.25479236  1
  Zr  Zr46  1  0.32310901  0.88807146  0.11493995  1
  Zr  Zr47  1  0.49054556  0.48315270  0.86269217  1
  Zr  Zr48  1  0.09462658  0.89827518  0.87774539  1
  Zr  Zr49  1  0.49821713  0.08510141  0.61517338  1
  Zr  Zr50  1  0.91883594  0.69864148  0.12959579  1
  Zr  Zr51  1  0.01052934  0.79683233  0.26343017  1
  Zr  Zr52  1  0.28065492  0.28683803  0.37158084  1
  Zr  Zr53  1  0.39653620  0.18978644  0.25110712  1
  Zr  Zr54  1  0.70179154  0.50807091  0.37548937  1
  Zr  Zr55  1  0.89904010  0.30090384  0.11333155  1
  Zr  Zr56  1  0.18418802  0.39551790  0.50214406  1
  Zr  Zr57  1  0.60512792  0.78793528  0.01128139  1
  Zr  Zr58  1  0.29588396  0.50812856  0.85788950  1
  Zr  Zr59  1  0.68659272  0.29160399  0.12220239  1
  Zr  Zr60  1  0.51050751  0.48546222  0.63689818  1
  Zr  Zr61  1  0.69224717  0.31165639  0.61454769  1
  Zr  Zr62  1  0.30579371  0.49952375  0.37419654  1
  Zr  Zr63  1  0.80284022  -0.00686298  0.00981318  1
  Zr  Zr64  1  0.28930916  0.28916951  0.62941631  1
  Zr  Zr65  1  0.31825564  0.30216499  0.86751485  1
  Zr  Zr66  1  0.19182391  0.00538717  0.01487271  1
  Zr  Zr67  1  0.00264094  0.02023849  0.49837108  1
  Zr  Zr68  1  0.40222652  0.38700126  0.01312204  1
  Zr  Zr69  1  0.01469369  0.22615637  0.49765519  1
  Zr  Zr70  1  0.60602317  0.60533486  0.23266539  1
  Zr  Zr71  1  0.29964332  0.09084678  0.61674119  1
  Zr  Zr72  1  0.68898178  0.51102349  0.86998820  1
  Zr  Zr73  1  0.20539047  0.20237327  -0.00200642  1
  Zr  Zr74  1  0.00342522  0.00537771  0.25987182  1
  Zr  Zr75  1  0.09845697  0.31013179  0.87642654  1
  Zr  Zr76  1  0.59497718  0.59586652  0.01337237  1
  Zr  Zr77  1  0.08031622  0.09751304  0.87620731  1
  Zr  Zr78  1  0.79485052  0.40396247  -0.01377019  1
  Zr  Zr79  1  0.10650060  0.11960140  0.62513023  1
  Ta  Ta80  1  0.60485501  0.58845744  0.51046173  1
  Ta  Ta81  1  0.59320442  0.38958541  0.00041078  1
  Ta  Ta82  1  0.40033984  0.39940751  0.23989980  1
  Ta  Ta83  1  0.20260455  0.00130842  0.24103606  1
  Ta  Ta84  1  0.20936073  0.60982362  0.50694706  1
  Ta  Ta85  1  0.81341096  0.59827067  0.24779322  1
  Ta  Ta86  1  0.59301360  -0.01469337  0.48012644  1
  Ta  Ta87  1  0.58931541  0.19286311  0.74957294  1
  Ta  Ta88  1  0.20603793  0.61412561  0.73499686  1
  Ta  Ta89  1  0.70359001  0.49758932  0.12192799  1
  Ta  Ta90  1  0.50336721  0.67754413  0.36904446  1
  Ta  Ta91  1  -0.00374058  0.00415474  0.73094302  1
  Ta  Ta92  1  0.90715670  0.31194892  0.63277413  1
  Ta  Ta93  1  0.28723555  0.08362060  0.37398095  1
  Ta  Ta94  1  0.90215497  0.90637617  0.60363548  1
  Ta  Ta95  1  0.90440523  0.91850050  0.86970383  1
  Ta  Ta96  1  0.00715537  0.60730960  0.51439596  1
  Ta  Ta97  1  0.89678046  0.89826981  0.13667795  1
  Ta  Ta98  1  0.11666142  0.72030557  0.39725207  1
  Ta  Ta99  1  0.50876297  0.68866086  0.86585895  1
  Ta  Ta100  1  -0.00903440  0.80669914  0.00482027  1
  Ta  Ta101  1  0.79496625  0.78963094  0.26202051  1
  Ta  Ta102  1  -0.00151233  0.81552247  0.73478637  1
  Ta  Ta103  1  0.00233181  0.22014142  0.25385348  1
  Ta  Ta104  1  0.19631196  0.00662473  0.75417058  1
  Ta  Ta105  1  0.40952007  0.61445220  0.73710440  1
  Ta  Ta106  1  -0.00459570  0.20237621  0.74434349  1
  Ta  Ta107  1  0.48957617  0.28812637  0.62269017  1
  Ta  Ta108  1  0.10971293  0.12372717  0.36705639  1
  Ta  Ta109  1  0.40320483  0.39061607  0.50152334  1
  Ta  Ta110  1  0.50480070  0.49040189  0.37178641  1
  Ta  Ta111  1  0.09782542  0.53056661  0.12598901  1
  Ta  Ta112  1  0.90193871  0.09887512  0.13690217  1
  Ta  Ta113  1  0.49061000  0.87208590  0.61902395  1
  Ta  Ta114  1  0.59754557  0.80088552  0.26568958  1
  Ta  Ta115  1  0.90704712  0.88883310  0.39604660  1
  Ta  Ta116  1  0.90352584  0.11757375  0.37577552  1
  Ta  Ta117  1  0.11659627  0.91584724  0.38701408  1
  Ta  Ta118  1  0.69621581  0.88992021  0.14065475  1
  Ta  Ta119  1  0.30627882  0.09763635  0.12843666  1
  Ti  Ti120  1  0.59400479  0.38183842  0.75507645  1
  Ti  Ti121  1  0.39616944  0.78245482  0.26638752  1
  Ti  Ti122  1  0.89966571  0.31635734  0.37586831  1
  Ti  Ti123  1  -0.00910129  0.00083208  0.01352126  1
  Ti  Ti124  1  0.29510482  0.69092775  0.12352625  1
  Ti  Ti125  1  0.00638602  0.42444134  -0.01036235  1
  Ti  Ti126  1  0.09701240  0.11150993  0.13364851  1
  Ti  Ti127  1  0.90512482  0.71220726  0.61398879  1
  Ti  Ti128  1  0.40178138  0.59531944  0.24527145  1
  Ti  Ti129  1  0.68497705  0.29346029  0.87716455  1
  Ti  Ti130  1  0.20047160  0.19422999  0.76448622  1
  Ti  Ti131  1  0.29600321  0.29292446  0.13027264  1
  Ti  Ti132  1  0.10285412  0.51119664  0.85591768  1
  Ti  Ti133  1  0.80033859  0.80455900  0.01072535  1
  Ti  Ti134  1  0.49046718  0.72107192  0.13268039  1
  Ti  Ti135  1  0.38887792  0.19256536  0.49247603  1
  Ti  Ti136  1  0.31782087  0.72065534  0.62241604  1
  Ti  Ti137  1  0.39680037  0.78404883  0.47938976  1
  Ti  Ti138  1  0.09230075  0.89791089  0.12933690  1
  Ti  Ti139  1  0.69283298  0.70272935  0.86305202  1
  Ti  Ti140  1  0.50083866  0.08833658  0.12913069  1
  Ti  Ti141  1  0.69386041  0.89126670  0.60762235  1
  Ti  Ti142  1  0.49603119  0.28462945  0.12976422  1
  Ti  Ti143  1  0.20695282  0.80891258  0.24750232  1
  Ti  Ti144  1  0.40110155  0.18393642  -0.00168399  1
  Ti  Ti145  1  0.81368292  0.00435472  0.73730409  1
  Ti  Ti146  1  0.59646405  0.39541667  0.24280179  1
  Ti  Ti147  1  -0.00716565  0.41965048  0.25322913  1
  Ti  Ti148  1  0.48737564  0.09129771  0.87584119  1
  Ti  Ti149  1  0.69518263  0.09278714  0.13206147  1
  Ti  Ti150  1  0.11277446  0.91309706  0.60821379  1
  Ti  Ti151  1  0.58663192  0.19309952  -0.00385327  1
  Ti  Ti152  1  0.49198593  0.09606464  0.38035543  1
  Ti  Ti153  1  -0.00576369  0.18921194  0.00349690  1
  Ti  Ti154  1  0.40157404  0.19346472  0.75492143  1
  Ti  Ti155  1  0.19580082  0.39328014  0.74911550  1
  Ti  Ti156  1  0.81471087  0.20869441  0.50416182  1
  Ti  Ti157  1  0.29579351  0.50134379  0.13143494  1
  Ti  Ti158  1  0.49933205  0.49013777  0.12798762  1
  Ti  Ti159  1  0.59828795  0.19422522  0.25977408  1
  Mo  Mo160  1  0.60351512  0.60049150  0.73997388  1
  Mo  Mo161  1  0.28783490  0.88236364  0.36540018  1
  Mo  Mo162  1  0.30433166  0.69144021  0.37688685  1
  Mo  Mo163  1  0.29864018  0.10012006  0.87319974  1
  Mo  Mo164  1  0.80333656  0.79704019  0.50730484  1
  Mo  Mo165  1  -0.00184767  0.39984693  0.75716422  1
  Mo  Mo166  1  0.89493786  0.50127465  0.37433437  1
  Mo  Mo167  1  0.90016154  0.09420838  0.87101927  1
  Mo  Mo168  1  0.19163871  0.19426549  0.23583134  1
  Mo  Mo169  1  0.00519251  0.60197185  0.25895148  1
  Mo  Mo170  1  0.59773246  0.78481646  0.73902965  1
  Mo  Mo171  1  0.79681349  0.39695209  0.50693394  1
  Mo  Mo172  1  0.71153528  0.70227403  0.13449586  1
  Mo  Mo173  1  0.20028878  0.01042764  0.49343616  1
  Mo  Mo174  1  0.41095794  0.79329708  0.00666684  1
  Mo  Mo175  1  0.89603688  0.10903188  0.61988100  1
  Mo  Mo176  1  0.69725918  0.10797469  0.38612233  1
  Mo  Mo177  1  0.69126364  0.70448386  0.62438057  1
  Mo  Mo178  1  0.29720296  0.89576942  0.62166739  1
  Mo  Mo179  1  0.10791244  0.71165636  0.13034144  1
  Mo  Mo180  1  0.00093185  0.61836780  0.73277313  1
  Mo  Mo181  1  0.20122851  0.20257151  0.49343086  1
  Mo  Mo182  1  0.22022026  0.81349380  0.50282645  1
  Mo  Mo183  1  0.69943680  0.49561845  0.62972478  1
  Mo  Mo184  1  0.01899781  0.61358921  -0.00634155  1
  Mo  Mo185  1  0.50448551  0.69732270  0.62008420  1
  Mo  Mo186  1  0.89956057  0.50388897  0.64211274  1
  Mo  Mo187  1  0.19515047  0.59671438  0.00061470  1
  Mo  Mo188  1  0.51035448  0.27904607  0.87657052  1
  Mo  Mo189  1  0.70590342  0.69102015  0.37392176  1
  Mo  Mo190  1  0.51067713  0.89917067  0.13813755  1
  Mo  Mo191  1  0.58821652  0.40290529  0.49752071  1
  Mo  Mo192  1  0.09773478  0.30811577  0.64089404  1
  Mo  Mo193  1  0.40912983  0.00979309  0.00599701  1
  Mo  Mo194  1  0.70745099  0.88787934  0.38004308  1
  Mo  Mo195  1  0.08688711  0.31243019  0.36469440  1
  Mo  Mo196  1  0.40619234  0.79821778  0.74877246  1
  Mo  Mo197  1  0.40320433  0.38446401  0.74424559  1
  Mo  Mo198  1  0.00855894  0.80692600  0.50068334  1
  Mo  Mo199  1  0.49586656  0.88508991  0.37387501  1
