# generated using pymatgen
data_HfZrTaTiMo
_symmetry_space_group_name_H-M   'P 1'
_cell_length_a   15.18988080
_cell_length_b   15.18558420
_cell_length_c   16.81113885
_cell_angle_alpha   90.03298439
_cell_angle_beta   89.95857051
_cell_angle_gamma   89.91328482
_symmetry_Int_Tables_number   1
_chemical_formula_structural   HfZrTaTiMo
_chemical_formula_sum   'Hf40 Zr40 Ta40 Ti40 Mo40'
_cell_volume   3877.77245886
_cell_formula_units_Z   40
loop_
 _symmetry_equiv_pos_site_id
 _symmetry_equiv_pos_as_xyz
  1  'x, y, z'
loop_
 _atom_site_type_symbol
 _atom_site_label
 _atom_site_symmetry_multiplicity
 _atom_site_fract_x
 _atom_site_fract_y
 _atom_site_fract_z
 _atom_site_occupancy
  Hf  Hf0  1  0.38303474  0.20762325  0.24802394  1
  Hf  Hf1  1  0.70682723  0.90773852  0.36824519  1
  Hf  Hf2  1  0.89633238  0.09583624  0.62648916  1
  Hf  Hf3  1  0.10895721  0.89488088  0.35613906  1
  Hf  Hf4  1  0.48286954  0.91112119  0.63058698  1
  Hf  Hf5  1  0.69858897  0.70599642  0.37183153  1
  Hf  Hf6  1  0.80819978  0.59777052  0.74865981  1
  Hf  Hf7  1  0.50062825  0.91380664  0.36946646  1
  Hf  Hf8  1  0.61011759  0.80911377  0.74236204  1
  Hf  Hf9  1  0.11570915  0.10918258  0.36011130  1
  Hf  Hf10  1  0.10628958  0.50079288  0.86008981  1
  Hf  Hf11  1  0.28827033  0.50992568  0.38227889  1
  Hf  Hf12  1  0.79253255  0.18629537  0.49909804  1
  Hf  Hf13  1  0.21669409  0.79713690  0.48753975  1
  Hf  Hf14  1  0.08155337  0.51434059  0.63899189  1
  Hf  Hf15  1  0.78552166  0.39329195  0.75654561  1
  Hf  Hf16  1  0.39550262  0.59019124  0.75626829  1
  Hf  Hf17  1  0.81792776  -0.00203453  0.23572244  1
  Hf  Hf18  1  0.28689895  0.29332626  0.38511121  1
  Hf  Hf19  1  0.90115977  0.07720840  0.87761794  1
  Hf  Hf20  1  0.49112327  0.29196993  0.37640337  1
  Hf  Hf21  1  0.01095096  0.20656532  0.51013004  1
  Hf  Hf22  1  0.48316303  0.30357565  0.11717206  1
  Hf  Hf23  1  0.80929341  0.79390021  0.73808310  1
  Hf  Hf24  1  0.09452519  0.30080263  0.12142536  1
  Hf  Hf25  1  0.30227440  0.89920898  0.89108147  1
  Hf  Hf26  1  0.10115986  0.10556296  0.12737156  1
  Hf  Hf27  1  0.69619648  0.08923329  0.86928244  1
  Hf  Hf28  1  0.89565093  0.50247872  0.88526894  1
  Hf  Hf29  1  0.22203673  -0.00419889  0.23390315  1
  Hf  Hf30  1  0.70650003  0.69715782  0.60937685  1
  Hf  Hf31  1  0.90104474  0.29963478  0.37639418  1
  Hf  Hf32  1  0.19457966  0.39413325  0.25600833  1
  Hf  Hf33  1  0.59489377  0.20231349  0.75562995  1
  Hf  Hf34  1  0.80985456  0.60163534  0.25525787  1
  Hf  Hf35  1  0.69237898  0.29055654  0.62690582  1
  Hf  Hf36  1  0.11491383  0.09190013  0.63736206  1
  Hf  Hf37  1  0.59066961  0.39586311  0.49149306  1
  Hf  Hf38  1  0.28872192  0.32279093  0.10671514  1
  Hf  Hf39  1  0.20581466  0.58328676  0.00197137  1
  Zr  Zr40  1  0.28590986  0.32157678  0.86511729  1
  Zr  Zr41  1  0.89959577  0.29389555  0.11416978  1
  Zr  Zr42  1  0.69039826  0.49874318  0.62409545  1
  Zr  Zr43  1  0.79837104  0.20031826  0.24875927  1
  Zr  Zr44  1  -0.00081860  0.61126910  0.00826502  1
  Zr  Zr45  1  0.30862674  0.11964728  0.10502566  1
  Zr  Zr46  1  0.42883895  0.00852897  0.22799954  1
  Zr  Zr47  1  0.32455080  0.08489483  0.37845054  1
  Zr  Zr48  1  0.01359831  0.77859530  0.73905298  1
  Zr  Zr49  1  0.18754977  0.78705356  0.01803074  1
  Zr  Zr50  1  0.59326531  0.61325409  0.00436546  1
  Zr  Zr51  1  0.42592519  0.00279287  0.00601321  1
  Zr  Zr52  1  0.69551003  0.51001299  0.12991376  1
  Zr  Zr53  1  0.61708508  0.00329737  0.00748818  1
  Zr  Zr54  1  0.29752750  0.29377877  0.64000824  1
  Zr  Zr55  1  0.49648234  0.70031028  0.63120186  1
  Zr  Zr56  1  0.80524845  0.80589398  0.49789817  1
  Zr  Zr57  1  0.91175928  0.88302335  0.88296847  1
  Zr  Zr58  1  0.59202221  0.40161483  0.25512915  1
  Zr  Zr59  1  0.57865976  0.41431192  -0.00176666  1
  Zr  Zr60  1  0.90399729  0.08901892  0.37754678  1
  Zr  Zr61  1  0.32690821  0.87713134  0.11036557  1
  Zr  Zr62  1  0.58638357  0.80831881  0.00351326  1
  Zr  Zr63  1  0.71485481  0.89428677  0.88109815  1
  Zr  Zr64  1  -0.00298403  0.18462039  0.75671880  1
  Zr  Zr65  1  0.18134806  0.39715886  0.50349983  1
  Zr  Zr66  1  0.68691916  0.29578587  0.12091071  1
  Zr  Zr67  1  0.29530316  0.50731746  0.61505406  1
  Zr  Zr68  1  0.47815250  0.71233667  0.14093735  1
  Zr  Zr69  1  0.79577407  0.40557208  0.00212428  1
  Zr  Zr70  1  0.21713264  -0.00882162  0.49983285  1
  Zr  Zr71  1  0.47993173  0.30779009  0.88060646  1
  Zr  Zr72  1  0.79276347  0.39820349  0.49364046  1
  Zr  Zr73  1  0.59504331  0.60277771  0.48686061  1
  Zr  Zr74  1  0.10382985  0.30777247  0.65600538  1
  Zr  Zr75  1  0.09266451  0.29961895  0.86137461  1
  Zr  Zr76  1  0.90622369  0.89877551  0.61754080  1
  Zr  Zr77  1  0.01162016  -0.00539651  0.49894721  1
  Zr  Zr78  1  0.19342437  0.62481601  0.74966911  1
  Zr  Zr79  1  0.69269445  0.29830484  0.88439427  1
  Ta  Ta80  1  0.70009144  0.09811416  0.12874781  1
  Ta  Ta81  1  0.90597208  0.50412645  0.12420872  1
  Ta  Ta82  1  0.80046684  0.19406143  0.75267429  1
  Ta  Ta83  1  0.58830512  0.81248750  0.50248051  1
  Ta  Ta84  1  0.19516087  -0.00190044  0.00979845  1
  Ta  Ta85  1  0.00299239  -0.01626919  0.01893956  1
  Ta  Ta86  1  0.40460618  0.18953925  0.50809821  1
  Ta  Ta87  1  0.39193682  0.40938804  0.25659847  1
  Ta  Ta88  1  0.70763088  0.69990279  0.87788020  1
  Ta  Ta89  1  0.60577290  0.00663342  0.50435088  1
  Ta  Ta90  1  0.68906015  0.51249500  0.87602772  1
  Ta  Ta91  1  0.49319621  0.30352620  0.62644991  1
  Ta  Ta92  1  -0.01046149  0.40501065  0.24989193  1
  Ta  Ta93  1  0.50588541  0.91473076  0.85919588  1
  Ta  Ta94  1  0.21509497  -0.00391720  0.75713773  1
  Ta  Ta95  1  0.20397400  0.19236222  0.50825427  1
  Ta  Ta96  1  0.91135152  0.88996141  0.37212342  1
  Ta  Ta97  1  0.69330671  0.70987998  0.14081468  1
  Ta  Ta98  1  0.69276848  0.29161367  0.36861778  1
  Ta  Ta99  1  0.30866393  0.10494122  0.88779166  1
  Ta  Ta100  1  0.20772820  0.79017351  0.23553330  1
  Ta  Ta101  1  0.79632792  0.17729566  0.00102960  1
  Ta  Ta102  1  0.02107779  0.79029250  0.49830144  1
  Ta  Ta103  1  0.10237116  0.89721347  0.88267320  1
  Ta  Ta104  1  0.49252363  0.49815553  0.61856808  1
  Ta  Ta105  1  0.31752092  0.08507746  0.62824838  1
  Ta  Ta106  1  0.80041005  0.40180709  0.25137161  1
  Ta  Ta107  1  0.30121425  0.72076775  0.62277435  1
  Ta  Ta108  1  0.80887987  0.78619993  0.01836432  1
  Ta  Ta109  1  0.10228484  0.69119861  0.35794942  1
  Ta  Ta110  1  0.91299541  0.68250925  0.60865189  1
  Ta  Ta111  1  0.89538897  0.30127552  0.62879564  1
  Ta  Ta112  1  0.47796577  0.51013924  0.13346404  1
  Ta  Ta113  1  0.89039730  0.49715016  0.61600771  1
  Ta  Ta114  1  0.89397243  0.28931885  0.88419731  1
  Ta  Ta115  1  0.90180561  0.50311601  0.37911804  1
  Ta  Ta116  1  0.39202091  0.62298562  0.49206943  1
  Ta  Ta117  1  0.50526502  0.10488955  0.63124513  1
  Ta  Ta118  1  0.19045796  0.20479813  -0.01544681  1
  Ta  Ta119  1  0.50069107  0.70674530  0.86491448  1
  Ti  Ti120  1  0.00179308  0.59550129  0.49213027  1
  Ti  Ti121  1  0.10619146  0.08354197  0.87700519  1
  Ti  Ti122  1  0.39551515  0.19219138  0.75433188  1
  Ti  Ti123  1  0.39898118  0.60589314  -0.00666554  1
  Ti  Ti124  1  0.70643031  0.89542991  0.13245955  1
  Ti  Ti125  1  0.57974649  0.41232980  0.75604849  1
  Ti  Ti126  1  0.19926498  0.81372134  0.74743940  1
  Ti  Ti127  1  -0.00470091  0.79313808  0.23699618  1
  Ti  Ti128  1  0.59130998  0.60438494  0.25694657  1
  Ti  Ti129  1  0.38880164  0.80789700  0.75870698  1
  Ti  Ti130  1  0.58546271  0.18777388  0.24792319  1
  Ti  Ti131  1  0.39516823  0.39990799  0.49921811  1
  Ti  Ti132  1  0.89814850  0.69660506  0.88261644  1
  Ti  Ti133  1  0.70069784  0.49889320  0.37057957  1
  Ti  Ti134  1  -0.00175184  0.19844721  0.24678322  1
  Ti  Ti135  1  0.18789825  0.61048128  0.50055016  1
  Ti  Ti136  1  0.09211340  0.29994623  0.37216036  1
  Ti  Ti137  1  0.09016405  0.50124705  0.36863381  1
  Ti  Ti138  1  0.01033727  0.40001051  -0.00489084  1
  Ti  Ti139  1  0.59702047  0.19638360  0.49942692  1
  Ti  Ti140  1  0.29675336  0.51308951  0.13789458  1
  Ti  Ti141  1  0.58191747  0.19006552  -0.00399194  1
  Ti  Ti142  1  0.00658290  -0.00953624  0.23350706  1
  Ti  Ti143  1  0.60170425  0.60154471  0.75270675  1
  Ti  Ti144  1  0.09749740  0.68413675  0.14448573  1
  Ti  Ti145  1  0.29466694  0.70182193  0.87737724  1
  Ti  Ti146  1  0.09025378  0.70844417  0.88218585  1
  Ti  Ti147  1  0.49322620  0.71485678  0.36342670  1
  Ti  Ti148  1  0.79539097  -0.01088313  0.74435441  1
  Ti  Ti149  1  0.69864697  0.08546053  0.63157713  1
  Ti  Ti150  1  0.48652221  0.50944119  0.37486240  1
  Ti  Ti151  1  0.01337076  -0.02220734  0.74643641  1
  Ti  Ti152  1  -0.02352252  0.40753264  0.75325060  1
  Ti  Ti153  1  0.30386690  0.70417247  0.35595142  1
  Ti  Ti154  1  0.80872015  0.79924123  0.24624521  1
  Ti  Ti155  1  0.10102640  0.49551421  0.13284063  1
  Ti  Ti156  1  -0.00510551  0.40125316  0.50499127  1
  Ti  Ti157  1  0.91013697  0.69972169  0.37780387  1
  Ti  Ti158  1  0.69060884  0.09767525  0.36848817  1
  Ti  Ti159  1  -0.00228324  0.18439897  -0.00730761  1
  Mo  Mo160  1  0.79172189  0.60614404  0.00337745  1
  Mo  Mo161  1  0.19774025  0.59389686  0.25110833  1
  Mo  Mo162  1  0.51628205  0.10738155  0.38009268  1
  Mo  Mo163  1  0.39886122  0.59775483  0.26483536  1
  Mo  Mo164  1  0.90575756  0.88821654  0.12499883  1
  Mo  Mo165  1  0.00363014  0.79716390  0.01639169  1
  Mo  Mo166  1  0.21001391  0.17405386  0.76706290  1
  Mo  Mo167  1  0.69549871  0.90757212  0.61689914  1
  Mo  Mo168  1  0.30634590  0.50697424  0.87550482  1
  Mo  Mo169  1  0.40128541  0.78635781  -0.02195944  1
  Mo  Mo170  1  0.41673879  -0.00383530  0.50227285  1
  Mo  Mo171  1  0.30085838  0.68257782  0.13161009  1
  Mo  Mo172  1  0.49776736  0.51428626  0.87233075  1
  Mo  Mo173  1  0.21594602  0.43030757  0.74328328  1
  Mo  Mo174  1  0.19388140  0.20470952  0.24944031  1
  Mo  Mo175  1  0.90672408  0.09823345  0.11888629  1
  Mo  Mo176  1  0.40470337  0.80228170  0.49147897  1
  Mo  Mo177  1  0.37953663  0.43184816  0.00110586  1
  Mo  Mo178  1  0.39953378  0.00808981  0.76229818  1
  Mo  Mo179  1  0.89333160  0.69439957  0.13272926  1
  Mo  Mo180  1  0.10627113  0.89520128  0.13971983  1
  Mo  Mo181  1  0.60546185  0.80519830  0.25088862  1
  Mo  Mo182  1  0.60370578  0.00344385  0.74293699  1
  Mo  Mo183  1  0.52789570  0.90120237  0.14058666  1
  Mo  Mo184  1  0.18475187  0.40772489  -0.00020744  1
  Mo  Mo185  1  0.11982722  0.89053368  0.62567480  1
  Mo  Mo186  1  0.30080619  0.89937857  0.63127900  1
  Mo  Mo187  1  0.80970146  0.59842500  0.48543333  1
  Mo  Mo188  1  0.49784139  0.10151839  0.86867746  1
  Mo  Mo189  1  0.39686158  0.80781853  0.25564272  1
  Mo  Mo190  1  0.51380867  0.11702680  0.12209763  1
  Mo  Mo191  1  0.61898761  0.00667888  0.24397883  1
  Mo  Mo192  1  0.79344331  0.00126903  0.49532043  1
  Mo  Mo193  1  -0.00074083  0.59556822  0.25075436  1
  Mo  Mo194  1  0.40707066  0.40171203  0.74168322  1
  Mo  Mo195  1  0.30994062  0.89081049  0.36069825  1
  Mo  Mo196  1  0.81264272  -0.00587182  0.02057610  1
  Mo  Mo197  1  0.39631012  0.21316062  -0.00811164  1
  Mo  Mo198  1  -0.01395614  0.60365521  0.75306964  1
  Mo  Mo199  1  0.10611018  0.69974903  0.61091310  1
