# generated using pymatgen
data_HfZrTaTiMo
_symmetry_space_group_name_H-M   'P 1'
_cell_length_a   15.21357480
_cell_length_b   15.21379393
_cell_length_c   16.82536462
_cell_angle_alpha   89.99830797
_cell_angle_beta   90.00804700
_cell_angle_gamma   89.86861110
_symmetry_Int_Tables_number   1
_chemical_formula_structural   HfZrTaTiMo
_chemical_formula_sum   'Hf40 Zr40 Ta40 Ti40 Mo40'
_cell_volume   3894.32454574
_cell_formula_units_Z   40
loop_
 _symmetry_equiv_pos_site_id
 _symmetry_equiv_pos_as_xyz
  1  'x, y, z'
loop_
 _atom_site_type_symbol
 _atom_site_label
 _atom_site_symmetry_multiplicity
 _atom_site_fract_x
 _atom_site_fract_y
 _atom_site_fract_z
 _atom_site_occupancy
  Hf  Hf0  1  0.00543929  0.01789148  0.48880952  1
  Hf  Hf1  1  0.20581009  0.00751497  0.49646268  1
  Hf  Hf2  1  0.81146752  0.58076130  0.25334202  1
  Hf  Hf3  1  0.20879692  0.60260842  0.26810764  1
  Hf  Hf4  1  0.39435352  0.38968405  0.24768289  1
  Hf  Hf5  1  0.29033315  0.30482423  0.38202818  1
  Hf  Hf6  1  0.60057102  0.79191642  0.49729997  1
  Hf  Hf7  1  0.01160156  0.20658025  0.76440941  1
  Hf  Hf8  1  0.81683295  -0.00845294  0.73815712  1
  Hf  Hf9  1  0.89228823  0.11358704  0.35661327  1
  Hf  Hf10  1  0.49830795  0.89628860  0.37003655  1
  Hf  Hf11  1  0.10817543  0.12274303  0.62725865  1
  Hf  Hf12  1  0.70478267  0.88867900  0.87662351  1
  Hf  Hf13  1  -0.01837651  0.41488979  0.25748588  1
  Hf  Hf14  1  0.30055336  0.69883000  0.86246477  1
  Hf  Hf15  1  -0.00425524  0.22182367  0.23911783  1
  Hf  Hf16  1  0.51823359  0.10054959  0.88539625  1
  Hf  Hf17  1  0.39294253  0.40658636  0.73666646  1
  Hf  Hf18  1  0.10405408  0.68728336  0.86522183  1
  Hf  Hf19  1  0.89826369  0.91396940  0.88131967  1
  Hf  Hf20  1  0.70559320  0.48104109  0.12193150  1
  Hf  Hf21  1  0.40410671  -0.00596104  0.49803795  1
  Hf  Hf22  1  0.60532694  -0.00287250  0.50263875  1
  Hf  Hf23  1  0.49877703  0.68314342  0.12605736  1
  Hf  Hf24  1  0.80005598  0.38960891  -0.01513369  1
  Hf  Hf25  1  0.91258381  0.11405264  0.61914919  1
  Hf  Hf26  1  0.70607110  0.89435196  0.36471725  1
  Hf  Hf27  1  0.40044504  -0.00463334  0.75749001  1
  Hf  Hf28  1  0.61102467  -0.00529582  0.74388112  1
  Hf  Hf29  1  0.09245101  0.09898884  0.89722036  1
  Hf  Hf30  1  0.80900956  -0.00368675  0.50059341  1
  Hf  Hf31  1  0.50327402  0.30532184  0.88588899  1
  Hf  Hf32  1  0.61047434  0.20050261  0.50612924  1
  Hf  Hf33  1  0.50823521  0.89181833  0.87658314  1
  Hf  Hf34  1  -0.01158985  0.39882337  0.75839721  1
  Hf  Hf35  1  0.60150859  0.39072658  0.24630912  1
  Hf  Hf36  1  0.71701832  0.87679337  0.62513884  1
  Hf  Hf37  1  0.61072132  0.20348917  0.74582352  1
  Hf  Hf38  1  0.27110839  0.29215754  0.62225089  1
  Hf  Hf39  1  0.88997629  0.70845210  0.61300061  1
  Zr  Zr40  1  0.29386575  0.32204886  0.88588759  1
  Zr  Zr41  1  0.91370206  0.68770442  0.12433146  1
  Zr  Zr42  1  0.00217170  0.79763250  0.25756559  1
  Zr  Zr43  1  -0.01023819  0.80750969  0.74376562  1
  Zr  Zr44  1  0.70296402  0.69627714  0.88516419  1
  Zr  Zr45  1  0.49937790  0.50140312  0.38029948  1
  Zr  Zr46  1  0.29845984  0.09965245  0.35777598  1
  Zr  Zr47  1  0.29449749  0.50805924  0.12645819  1
  Zr  Zr48  1  0.50391038  0.10063642  0.63012919  1
  Zr  Zr49  1  0.10780964  0.90012231  0.12810648  1
  Zr  Zr50  1  0.60751954  0.59759620  0.50956886  1
  Zr  Zr51  1  0.29622784  0.09330454  0.63554160  1
  Zr  Zr52  1  0.70081916  0.68413492  0.12866857  1
  Zr  Zr53  1  0.50706872  0.11789633  0.12860573  1
  Zr  Zr54  1  0.38609755  0.59458013  -0.00699969  1
  Zr  Zr55  1  0.39262108  0.20710959  0.75609979  1
  Zr  Zr56  1  0.18306965  0.40351500  0.74344575  1
  Zr  Zr57  1  0.10793545  0.91204200  0.36932654  1
  Zr  Zr58  1  0.79005218  0.40108961  0.76260704  1
  Zr  Zr59  1  0.18005960  0.40838391  0.25072946  1
  Zr  Zr60  1  0.20617976  0.79767167  0.25658646  1
  Zr  Zr61  1  0.09611951  0.70344170  0.61442960  1
  Zr  Zr62  1  0.49963287  0.29221854  0.38070868  1
  Zr  Zr63  1  0.20935117  0.79786402  -0.00322911  1
  Zr  Zr64  1  0.81242683  0.20167304  0.75945917  1
  Zr  Zr65  1  0.09970916  0.10360150  0.12217950  1
  Zr  Zr66  1  0.69279314  0.10288178  0.35972040  1
  Zr  Zr67  1  0.90334253  0.49082394  0.61776544  1
  Zr  Zr68  1  0.39208026  0.19561588  0.50341268  1
  Zr  Zr69  1  0.59885631  -0.00981050  0.23401386  1
  Zr  Zr70  1  0.60611827  0.58603796  0.74397552  1
  Zr  Zr71  1  0.41064207  -0.00881426  0.00721114  1
  Zr  Zr72  1  0.39626037  0.59674793  0.73829784  1
  Zr  Zr73  1  0.50618339  0.69949431  0.87481800  1
  Zr  Zr74  1  0.89728928  0.70437726  0.87853564  1
  Zr  Zr75  1  0.29184936  0.10366970  0.88898634  1
  Zr  Zr76  1  -0.02617283  0.00637702  0.02031068  1
  Zr  Zr77  1  0.01424411  0.60026169  0.26607979  1
  Zr  Zr78  1  0.00436069  0.79587024  0.00331466  1
  Zr  Zr79  1  0.20564010  0.21571130  0.23359042  1
  Ta  Ta80  1  0.10004022  0.91350475  0.62298934  1
  Ta  Ta81  1  0.79956776  0.81336426  0.02303779  1
  Ta  Ta82  1  0.10596941  0.70173924  0.39899214  1
  Ta  Ta83  1  0.20057646  0.81162850  0.74572514  1
  Ta  Ta84  1  0.70833420  0.29662422  0.37229335  1
  Ta  Ta85  1  0.59791722  0.78583359  0.24486543  1
  Ta  Ta86  1  0.20762795  0.59800378  0.50525428  1
  Ta  Ta87  1  0.80269778  0.60526170  0.74360086  1
  Ta  Ta88  1  0.17832953  0.40688970  0.50428629  1
  Ta  Ta89  1  0.62389594  -0.00382001  0.01987349  1
  Ta  Ta90  1  0.39189498  0.40661044  0.51504037  1
  Ta  Ta91  1  0.87931527  0.31088856  0.12527532  1
  Ta  Ta92  1  0.40096542  0.80194746  0.74274059  1
  Ta  Ta93  1  0.31399968  0.70345898  0.38855934  1
  Ta  Ta94  1  0.71901695  0.08350745  0.88225584  1
  Ta  Ta95  1  0.80897322  0.59000438  0.00151595  1
  Ta  Ta96  1  0.30350534  0.70383105  0.12862369  1
  Ta  Ta97  1  0.79994480  0.17806564  0.01061617  1
  Ta  Ta98  1  0.59962406  0.58492246  -0.00234820  1
  Ta  Ta99  1  0.40121496  0.20829013  0.00668179  1
  Ta  Ta100  1  0.80373085  0.39852885  0.49511055  1
  Ta  Ta101  1  -0.00522041  0.81445110  0.49395287  1
  Ta  Ta102  1  0.39382051  -0.00376234  0.23743185  1
  Ta  Ta103  1  0.00818016  0.00655688  0.75135413  1
  Ta  Ta104  1  0.69413797  0.28165819  0.88944186  1
  Ta  Ta105  1  0.19328103  0.21738016  0.01450262  1
  Ta  Ta106  1  0.50081043  0.89249359  0.62792151  1
  Ta  Ta107  1  0.70421804  0.49133502  0.37089890  1
  Ta  Ta108  1  0.89634759  0.69870233  0.38533199  1
  Ta  Ta109  1  0.29769161  0.09812290  0.11829568  1
  Ta  Ta110  1  0.40556473  0.79588890  0.24696248  1
  Ta  Ta111  1  0.29827612  0.89910058  0.87398503  1
  Ta  Ta112  1  0.40184142  0.60506084  0.51185036  1
  Ta  Ta113  1  0.30203626  0.90159197  0.12634474  1
  Ta  Ta114  1  -0.00429357  0.40735868  0.00361717  1
  Ta  Ta115  1  0.60968469  0.39794851  0.50708553  1
  Ta  Ta116  1  0.30004893  0.70867562  0.62213368  1
  Ta  Ta117  1  0.80261927  0.79522177  0.24649397  1
  Ta  Ta118  1  0.69690123  0.68669994  0.36079821  1
  Ta  Ta119  1  0.48817035  0.49162607  0.87888801  1
  Ti  Ti120  1  0.10571263  0.90355670  0.87812009  1
  Ti  Ti121  1  0.01263994  0.58947151  -0.00125643  1
  Ti  Ti122  1  0.59944591  0.80252787  0.02005740  1
  Ti  Ti123  1  0.11684976  0.68328466  0.12240488  1
  Ti  Ti124  1  0.29853650  0.89933768  0.62864735  1
  Ti  Ti125  1  -0.01336200  0.21503641  0.00956384  1
  Ti  Ti126  1  0.30529848  0.89836732  0.36896514  1
  Ti  Ti127  1  0.49377336  0.10298763  0.35575798  1
  Ti  Ti128  1  0.68739135  0.49217127  0.88040701  1
  Ti  Ti129  1  0.40742103  0.59727828  0.25520118  1
  Ti  Ti130  1  0.49958668  0.48538747  0.11606234  1
  Ti  Ti131  1  0.90523285  0.50841165  0.87434070  1
  Ti  Ti132  1  0.00477880  0.59176290  0.74350029  1
  Ti  Ti133  1  -0.00111354  0.00521706  0.24189034  1
  Ti  Ti134  1  0.30152660  0.50289243  0.38791411  1
  Ti  Ti135  1  0.50599844  0.49442263  0.61922365  1
  Ti  Ti136  1  0.00408475  0.58284663  0.49107292  1
  Ti  Ti137  1  0.67815073  0.28341717  0.11283698  1
  Ti  Ti138  1  0.80481386  -0.00188932  0.22829006  1
  Ti  Ti139  1  0.19006988  0.42633409  0.00261738  1
  Ti  Ti140  1  0.20555854  0.80814036  0.50112336  1
  Ti  Ti141  1  0.90009724  0.90509886  0.36353225  1
  Ti  Ti142  1  0.50440000  0.70382037  0.62747171  1
  Ti  Ti143  1  0.79782476  0.79556756  0.48642886  1
  Ti  Ti144  1  0.40132950  0.79986334  0.50651672  1
  Ti  Ti145  1  0.50069724  0.30077376  0.62107944  1
  Ti  Ti146  1  0.17231125  0.20846453  0.48699794  1
  Ti  Ti147  1  0.09621366  0.30942629  0.89066211  1
  Ti  Ti148  1  0.79336782  0.59517659  0.49842539  1
  Ti  Ti149  1  0.81446167  0.20768741  0.49691643  1
  Ti  Ti150  1  0.19841118  0.59410952  0.73169998  1
  Ti  Ti151  1  0.71845314  0.30566932  0.62211758  1
  Ti  Ti152  1  0.30607676  0.30893237  0.11302214  1
  Ti  Ti153  1  0.10049642  0.11374156  0.35541971  1
  Ti  Ti154  1  0.50263506  0.69472768  0.37132968  1
  Ti  Ti155  1  0.40552212  0.79752727  0.00564777  1
  Ti  Ti156  1  0.19390807  0.00868429  0.75812820  1
  Ti  Ti157  1  0.71182670  0.10290703  0.62304884  1
  Ti  Ti158  1  0.59860246  0.39516474  0.74362380  1
  Ti  Ti159  1  0.61016103  0.78799937  0.74235081  1
  Mo  Mo160  1  0.07257528  0.30734265  0.61749288  1
  Mo  Mo161  1  0.59623792  0.39832519  -0.00030545  1
  Mo  Mo162  1  0.70499315  0.69008860  0.62501206  1
  Mo  Mo163  1  0.60646550  0.19150703  -0.00357921  1
  Mo  Mo164  1  0.08936842  0.51052589  0.12346436  1
  Mo  Mo165  1  0.40052478  0.20358019  0.23417862  1
  Mo  Mo166  1  -0.00465976  0.38768826  0.48618187  1
  Mo  Mo167  1  0.70161223  0.88941651  0.13679013  1
  Mo  Mo168  1  0.70215977  0.48936538  0.62462681  1
  Mo  Mo169  1  0.09313479  0.31833650  0.11038074  1
  Mo  Mo170  1  0.89893302  0.49784811  0.11641812  1
  Mo  Mo171  1  0.90183458  0.89669148  0.14240309  1
  Mo  Mo172  1  0.27967445  0.50914008  0.87132623  1
  Mo  Mo173  1  0.18799625  0.20335840  0.76265633  1
  Mo  Mo174  1  0.89474371  0.11111073  0.14353943  1
  Mo  Mo175  1  0.59570883  0.59106840  0.25303974  1
  Mo  Mo176  1  0.09925587  0.50043182  0.87448738  1
  Mo  Mo177  1  0.09566244  0.50191927  0.61713394  1
  Mo  Mo178  1  0.59038800  0.20741498  0.25132954  1
  Mo  Mo179  1  0.49696189  0.31036097  0.11070402  1
  Mo  Mo180  1  0.79956787  0.79299187  0.74832321  1
  Mo  Mo181  1  0.19139926  0.60553377  -0.00102628  1
  Mo  Mo182  1  0.70480694  0.10434120  0.13498040  1
  Mo  Mo183  1  0.09030128  0.30083267  0.37512597  1
  Mo  Mo184  1  0.79805748  0.39081099  0.25265071  1
  Mo  Mo185  1  0.89348379  0.50448238  0.39144663  1
  Mo  Mo186  1  0.90279744  0.29633670  0.62096391  1
  Mo  Mo187  1  0.90330378  0.29224381  0.89167994  1
  Mo  Mo188  1  0.39276526  0.40257710  0.00081375  1
  Mo  Mo189  1  0.78572640  0.20928007  0.23535930  1
  Mo  Mo190  1  0.91547883  0.90344494  0.61508630  1
  Mo  Mo191  1  0.10563038  0.50147954  0.38895516  1
  Mo  Mo192  1  0.29543794  0.50266176  0.61317357  1
  Mo  Mo193  1  0.20463719  0.00156765  -0.00272009  1
  Mo  Mo194  1  -0.00160119  0.21031349  0.48149204  1
  Mo  Mo195  1  0.49665893  0.88697392  0.12637626  1
  Mo  Mo196  1  0.79662177  -0.00522120  0.01959294  1
  Mo  Mo197  1  0.20391773  0.00424235  0.24907155  1
  Mo  Mo198  1  0.89947985  0.10131257  0.88152352  1
  Mo  Mo199  1  0.88626373  0.30498041  0.36855748  1
