# generated using pymatgen
data_HfZrTaTiMo
_symmetry_space_group_name_H-M   'P 1'
_cell_length_a   15.21054752
_cell_length_b   15.21157115
_cell_length_c   16.85817545
_cell_angle_alpha   89.91826847
_cell_angle_beta   90.01492424
_cell_angle_gamma   89.84851830
_symmetry_Int_Tables_number   1
_chemical_formula_structural   HfZrTaTiMo
_chemical_formula_sum   'Hf40 Zr40 Ta40 Ti40 Mo40'
_cell_volume   3900.56495776
_cell_formula_units_Z   40
loop_
 _symmetry_equiv_pos_site_id
 _symmetry_equiv_pos_as_xyz
  1  'x, y, z'
loop_
 _atom_site_type_symbol
 _atom_site_label
 _atom_site_symmetry_multiplicity
 _atom_site_fract_x
 _atom_site_fract_y
 _atom_site_fract_z
 _atom_site_occupancy
  Hf  Hf0  1  0.71514916  0.29249705  0.88416499  1
  Hf  Hf1  1  0.01069971  0.59804183  0.74598382  1
  Hf  Hf2  1  0.48643388  0.89880682  0.38128868  1
  Hf  Hf3  1  0.69767860  0.47754558  0.12600490  1
  Hf  Hf4  1  0.60592889  0.59365367  0.49272312  1
  Hf  Hf5  1  0.39927145  0.80774348  -0.00524204  1
  Hf  Hf6  1  0.00501811  0.60516239  0.25147870  1
  Hf  Hf7  1  0.89973132  0.48580453  0.11371499  1
  Hf  Hf8  1  0.40318542  0.39703959  0.75898714  1
  Hf  Hf9  1  0.88769388  0.10777648  0.12099317  1
  Hf  Hf10  1  0.21005145  0.39367458  0.50351766  1
  Hf  Hf11  1  0.78233283  0.79997291  0.48896683  1
  Hf  Hf12  1  0.18438095  0.79097013  0.74009530  1
  Hf  Hf13  1  0.29508430  0.68374389  0.85671807  1
  Hf  Hf14  1  0.58791970  0.20657709  0.52161423  1
  Hf  Hf15  1  0.70067692  0.48913809  0.62787567  1
  Hf  Hf16  1  0.89427533  0.90423710  0.88812845  1
  Hf  Hf17  1  0.11487744  0.10621963  0.11902073  1
  Hf  Hf18  1  0.39541274  0.20074457  -0.00990807  1
  Hf  Hf19  1  0.41279432  0.60783735  0.49841523  1
  Hf  Hf20  1  0.21286109  0.00294430  -0.00526253  1
  Hf  Hf21  1  0.27481574  0.30732984  0.87605498  1
  Hf  Hf22  1  0.30058361  0.70269045  0.12821152  1
  Hf  Hf23  1  0.20265720  0.60500101  0.51174902  1
  Hf  Hf24  1  0.81898600  -0.00630864  0.50417158  1
  Hf  Hf25  1  0.69283675  0.89408316  0.13396102  1
  Hf  Hf26  1  0.20027800  0.60948039  0.25964610  1
  Hf  Hf27  1  0.19497615  0.39763109  0.26305159  1
  Hf  Hf28  1  0.41635314  0.00545857  0.51573887  1
  Hf  Hf29  1  0.80362656  0.59872448  0.75742340  1
  Hf  Hf30  1  0.61992948  0.20028140  0.24308708  1
  Hf  Hf31  1  0.70035773  0.09426294  0.87278318  1
  Hf  Hf32  1  0.00989576  0.38224661  0.75169720  1
  Hf  Hf33  1  0.08106381  0.91800046  0.61611266  1
  Hf  Hf34  1  0.40832590  0.61673315  0.26433322  1
  Hf  Hf35  1  0.49205640  0.91753810  0.12197563  1
  Hf  Hf36  1  0.09146714  0.69236317  0.88306071  1
  Hf  Hf37  1  0.50896729  0.91027300  0.63515524  1
  Hf  Hf38  1  0.80535256  0.39517770  0.75619073  1
  Hf  Hf39  1  0.59419743  0.60959439  -0.00879182  1
  Zr  Zr40  1  0.91552179  0.49295328  0.88576709  1
  Zr  Zr41  1  -0.01641798  0.81520896  0.49642055  1
  Zr  Zr42  1  0.79002679  0.58544772  -0.00850280  1
  Zr  Zr43  1  0.18370969  0.00154207  0.75087743  1
  Zr  Zr44  1  0.10741401  0.49541396  0.12566373  1
  Zr  Zr45  1  0.30353028  0.09006769  0.37532649  1
  Zr  Zr46  1  0.30124241  0.09899517  0.64230316  1
  Zr  Zr47  1  0.90130656  0.10576093  0.36618270  1
  Zr  Zr48  1  0.20376436  0.58685490  0.00128609  1
  Zr  Zr49  1  0.69803979  0.69487334  0.13258905  1
  Zr  Zr50  1  0.48953701  0.71459468  0.85750076  1
  Zr  Zr51  1  0.39426063  0.20701471  0.51068002  1
  Zr  Zr52  1  0.10862481  0.90204501  0.38259360  1
  Zr  Zr53  1  0.70242896  0.09871883  0.38716946  1
  Zr  Zr54  1  -0.00345099  0.21005738  0.24280780  1
  Zr  Zr55  1  0.80385621  0.19678920  0.73394339  1
  Zr  Zr56  1  0.89898333  0.89649744  0.12508913  1
  Zr  Zr57  1  0.30634329  0.89340985  0.85589842  1
  Zr  Zr58  1  0.81029673  0.58764667  0.49456353  1
  Zr  Zr59  1  0.50166728  0.70119927  0.63792435  1
  Zr  Zr60  1  0.49568739  0.50232102  0.12342563  1
  Zr  Zr61  1  -0.01488610  0.40405873  0.26244383  1
  Zr  Zr62  1  0.50994941  0.30512047  0.10985618  1
  Zr  Zr63  1  0.09474884  0.29444867  0.38830308  1
  Zr  Zr64  1  0.17248454  0.21157367  0.74147478  1
  Zr  Zr65  1  -0.01041986  0.81390075  0.75071604  1
  Zr  Zr66  1  0.50810439  0.10607328  0.38018921  1
  Zr  Zr67  1  0.41342851  0.19599872  0.24171701  1
  Zr  Zr68  1  0.30276981  0.50322023  0.38310994  1
  Zr  Zr69  1  0.90408280  0.11477947  0.88713017  1
  Zr  Zr70  1  0.68126061  0.08167440  0.61978961  1
  Zr  Zr71  1  0.69789707  0.69434701  0.36479403  1
  Zr  Zr72  1  0.60040900  0.58844046  0.25698522  1
  Zr  Zr73  1  0.80548411  -0.01039335  0.74112648  1
  Zr  Zr74  1  0.30056739  0.73465509  0.39229046  1
  Zr  Zr75  1  0.28889505  0.30198829  0.11928562  1
  Zr  Zr76  1  0.39866522  0.59983551  -0.00118980  1
  Zr  Zr77  1  0.89273472  0.70577474  0.62240503  1
  Zr  Zr78  1  0.89972444  0.69313042  0.11654440  1
  Zr  Zr79  1  0.21249709  -0.00806211  0.24391970  1
  Ta  Ta80  1  0.69624009  0.90195432  0.36030275  1
  Ta  Ta81  1  0.20637271  -0.00165746  0.50666632  1
  Ta  Ta82  1  0.79334136  0.21141955  0.51453644  1
  Ta  Ta83  1  0.31240897  0.29609361  0.37515273  1
  Ta  Ta84  1  0.70060960  0.70427134  0.87466479  1
  Ta  Ta85  1  0.38682774  0.82170531  0.24976168  1
  Ta  Ta86  1  0.49685820  0.11152859  0.85600993  1
  Ta  Ta87  1  0.30304877  0.89379634  0.63291943  1
  Ta  Ta88  1  0.29867368  0.10582969  0.85977355  1
  Ta  Ta89  1  0.40566114  0.39902794  0.25749558  1
  Ta  Ta90  1  0.20308102  0.20074944  0.25318995  1
  Ta  Ta91  1  0.09941640  0.70910247  0.11590003  1
  Ta  Ta92  1  0.60264672  0.39995757  0.76917420  1
  Ta  Ta93  1  0.89979833  0.70164378  0.88686852  1
  Ta  Ta94  1  0.10122369  0.11431791  0.88915049  1
  Ta  Ta95  1  0.58783971  0.00354860  0.24779248  1
  Ta  Ta96  1  0.90364306  0.30387401  0.61746133  1
  Ta  Ta97  1  0.19729033  0.80190802  -0.00402401  1
  Ta  Ta98  1  0.30786668  0.30412320  0.63201138  1
  Ta  Ta99  1  0.60147146  0.40720763  -0.02295502  1
  Ta  Ta100  1  0.00808822  0.80136316  0.25026183  1
  Ta  Ta101  1  0.78669699  -0.00335361  0.00333545  1
  Ta  Ta102  1  0.60334620  0.59458341  0.76061867  1
  Ta  Ta103  1  0.41929837  0.39731761  0.50575813  1
  Ta  Ta104  1  0.59942179  0.38510868  0.25932256  1
  Ta  Ta105  1  0.40961863  0.00697155  -0.02056811  1
  Ta  Ta106  1  0.01859748  0.39068043  0.00082710  1
  Ta  Ta107  1  0.90833016  0.69517482  0.37198341  1
  Ta  Ta108  1  0.12202680  0.48493227  0.87485323  1
  Ta  Ta109  1  0.58056659  0.79918831  0.25710014  1
  Ta  Ta110  1  0.50114200  0.71634036  0.12518231  1
  Ta  Ta111  1  0.09441060  0.90614986  0.88237040  1
  Ta  Ta112  1  0.61060253  0.80751290  0.75760018  1
  Ta  Ta113  1  0.00791034  -0.00509424  0.23803431  1
  Ta  Ta114  1  0.80997915  0.57617497  0.25658654  1
  Ta  Ta115  1  0.90795763  0.49489549  0.62516301  1
  Ta  Ta116  1  0.08949347  0.51082690  0.39258000  1
  Ta  Ta117  1  0.71490540  0.46979663  0.37441549  1
  Ta  Ta118  1  0.09890918  0.70400999  0.39097155  1
  Ta  Ta119  1  0.79621265  0.79754614  0.75699888  1
  Ti  Ti120  1  -0.01080033  0.19763902  0.49318404  1
  Ti  Ti121  1  0.00170797  0.80242253  0.00328801  1
  Ti  Ti122  1  0.59790604  0.81437750  -0.01344615  1
  Ti  Ti123  1  0.30520566  0.49646834  0.13447200  1
  Ti  Ti124  1  0.69506266  0.69482201  0.63103244  1
  Ti  Ti125  1  0.59293439  0.00018055  -0.01297345  1
  Ti  Ti126  1  -0.02018347  0.40534856  0.49000380  1
  Ti  Ti127  1  0.60997648  0.38999726  0.49943477  1
  Ti  Ti128  1  0.78763896  0.79895234  -0.00209398  1
  Ti  Ti129  1  0.50699485  0.48884969  0.37771088  1
  Ti  Ti130  1  0.92231377  0.09713441  0.61826127  1
  Ti  Ti131  1  0.10176950  0.09655685  0.37249034  1
  Ti  Ti132  1  0.09224784  0.49554833  0.61023617  1
  Ti  Ti133  1  0.08949044  0.29682193  0.60688227  1
  Ti  Ti134  1  0.19688940  0.19193859  0.50475171  1
  Ti  Ti135  1  0.89880090  0.90425985  0.35636682  1
  Ti  Ti136  1  0.39268435  0.40847627  -0.01681563  1
  Ti  Ti137  1  0.59277096  0.21633005  0.74348565  1
  Ti  Ti138  1  0.19215228  0.80289049  0.24653781  1
  Ti  Ti139  1  0.60004205  0.00007977  0.76020223  1
  Ti  Ti140  1  0.80530873  0.79060050  0.25331213  1
  Ti  Ti141  1  -0.00105636  0.02105585  0.75571770  1
  Ti  Ti142  1  0.09279539  0.70372109  0.60975422  1
  Ti  Ti143  1  0.79168282  0.00932993  0.24435329  1
  Ti  Ti144  1  0.50590829  0.49617448  0.63418203  1
  Ti  Ti145  1  0.19896539  0.40665285  0.73306936  1
  Ti  Ti146  1  0.71732584  0.28805695  0.10568724  1
  Ti  Ti147  1  0.70243661  0.88317495  0.62222748  1
  Ti  Ti148  1  0.32265384  0.09295966  0.12301356  1
  Ti  Ti149  1  0.48876049  0.50955128  0.86846031  1
  Ti  Ti150  1  0.31527108  0.50051762  0.62383162  1
  Ti  Ti151  1  0.68630975  0.09397341  0.11438259  1
  Ti  Ti152  1  0.00579940  -0.00092475  0.01021081  1
  Ti  Ti153  1  0.20250415  0.58826395  0.73249358  1
  Ti  Ti154  1  0.79658293  0.36666667  0.25034235  1
  Ti  Ti155  1  0.58488978  0.79557987  0.49412987  1
  Ti  Ti156  1  0.29492310  0.90108807  0.11693769  1
  Ti  Ti157  1  0.59749268  0.19453276  -0.00662928  1
  Ti  Ti158  1  0.00215190  0.21082372  0.01359878  1
  Ti  Ti159  1  0.30492506  0.70259279  0.62872507  1
  Mo  Mo160  1  0.39665702  0.21034675  0.75856527  1
  Mo  Mo161  1  0.49152257  0.11409747  0.66033961  1
  Mo  Mo162  1  0.79526750  0.19702533  0.24325501  1
  Mo  Mo163  1  0.40368965  0.00289397  0.75637709  1
  Mo  Mo164  1  0.79730528  0.39261058  0.50683610  1
  Mo  Mo165  1  0.19897427  0.80477275  0.52294142  1
  Mo  Mo166  1  0.79564719  0.18940628  0.00247220  1
  Mo  Mo167  1  0.40546636  -0.00137803  0.24755508  1
  Mo  Mo168  1  0.00169744  0.59868124  0.50304057  1
  Mo  Mo169  1  0.29842267  0.90809899  0.38699696  1
  Mo  Mo170  1  0.50515920  0.91209302  0.86429666  1
  Mo  Mo171  1  -0.00439990  0.19558540  0.74229071  1
  Mo  Mo172  1  0.89547309  0.30324922  0.11542187  1
  Mo  Mo173  1  0.69658928  0.28974781  0.38092818  1
  Mo  Mo174  1  0.10331244  0.89523011  0.11808537  1
  Mo  Mo175  1  0.50709143  0.10140452  0.11188712  1
  Mo  Mo176  1  0.87354919  0.30392917  0.38708088  1
  Mo  Mo177  1  0.20649380  0.39197714  0.00361752  1
  Mo  Mo178  1  0.08453824  0.29701532  0.87936949  1
  Mo  Mo179  1  0.91156098  0.29382879  0.88451771  1
  Mo  Mo180  1  0.19543183  0.19873383  -0.00120539  1
  Mo  Mo181  1  0.39765733  0.80665324  0.51951079  1
  Mo  Mo182  1  0.69739999  0.50057635  0.87184368  1
  Mo  Mo183  1  0.49851291  0.70353214  0.37712658  1
  Mo  Mo184  1  0.50355915  0.31940679  0.63408568  1
  Mo  Mo185  1  0.09724931  0.29912239  0.13032442  1
  Mo  Mo186  1  0.89906073  0.49839931  0.37437907  1
  Mo  Mo187  1  0.69757541  0.30412854  0.63431940  1
  Mo  Mo188  1  0.50264342  0.30631306  0.37660649  1
  Mo  Mo189  1  0.69927965  0.89740669  0.87953239  1
  Mo  Mo190  1  0.09564290  0.11052688  0.60913775  1
  Mo  Mo191  1  0.80696168  0.38501831  -0.00367340  1
  Mo  Mo192  1  0.00575928  0.60064322  -0.00120418  1
  Mo  Mo193  1  0.89024515  0.90739616  0.62605760  1
  Mo  Mo194  1  0.39894932  0.80080906  0.73699355  1
  Mo  Mo195  1  0.62098319  -0.03075773  0.49325975  1
  Mo  Mo196  1  0.39699799  0.59122872  0.73875289  1
  Mo  Mo197  1  0.00740442  0.01588281  0.48932023  1
  Mo  Mo198  1  0.50332408  0.30213418  0.88573599  1
  Mo  Mo199  1  0.29532161  0.49954794  0.86187136  1
