# generated using pymatgen
data_HfZrTaTiMo
_symmetry_space_group_name_H-M   'P 1'
_cell_length_a   15.22322526
_cell_length_b   15.20320830
_cell_length_c   16.84278958
_cell_angle_alpha   90.05594149
_cell_angle_beta   90.08595681
_cell_angle_gamma   90.01694652
_symmetry_Int_Tables_number   1
_chemical_formula_structural   HfZrTaTiMo
_chemical_formula_sum   'Hf40 Zr40 Ta40 Ti40 Mo40'
_cell_volume   3898.12020889
_cell_formula_units_Z   40
loop_
 _symmetry_equiv_pos_site_id
 _symmetry_equiv_pos_as_xyz
  1  'x, y, z'
loop_
 _atom_site_type_symbol
 _atom_site_label
 _atom_site_symmetry_multiplicity
 _atom_site_fract_x
 _atom_site_fract_y
 _atom_site_fract_z
 _atom_site_occupancy
  Hf  Hf0  1  0.60230691  0.80140718  0.49947044  1
  Hf  Hf1  1  0.49797466  0.49782526  0.38035463  1
  Hf  Hf2  1  0.10418017  0.69725593  0.12230529  1
  Hf  Hf3  1  0.20618200  -0.01832588  0.00042692  1
  Hf  Hf4  1  0.82289155  0.41274599  0.26173391  1
  Hf  Hf5  1  0.11225404  0.69907039  0.88094842  1
  Hf  Hf6  1  0.30111521  0.10401889  0.36888429  1
  Hf  Hf7  1  0.70814909  0.30789584  0.12805398  1
  Hf  Hf8  1  0.80734417  0.80723026  0.74864731  1
  Hf  Hf9  1  0.70397727  0.09184654  0.10893067  1
  Hf  Hf10  1  0.29477916  0.90311018  0.36294685  1
  Hf  Hf11  1  0.69155021  0.29264575  0.62632335  1
  Hf  Hf12  1  0.00906461  0.39951146  0.72877337  1
  Hf  Hf13  1  0.69754658  0.88670220  0.12776961  1
  Hf  Hf14  1  0.80217276  -0.00318151  0.25751342  1
  Hf  Hf15  1  0.19108114  0.19601002  0.23810360  1
  Hf  Hf16  1  -0.00177988  -0.00014855  0.25230670  1
  Hf  Hf17  1  0.80975213  -0.00012191  0.48899558  1
  Hf  Hf18  1  0.38741559  0.20419660  0.01713635  1
  Hf  Hf19  1  -0.00645219  0.20324132  0.26314861  1
  Hf  Hf20  1  0.10471845  0.49496068  0.86908492  1
  Hf  Hf21  1  0.69364801  0.70099367  0.63474287  1
  Hf  Hf22  1  0.59300187  0.19166310  0.22976796  1
  Hf  Hf23  1  0.90260778  0.50465908  0.86223914  1
  Hf  Hf24  1  0.39109845  0.80477473  0.49854340  1
  Hf  Hf25  1  0.49746669  0.91243117  0.37031773  1
  Hf  Hf26  1  0.60060951  -0.02533647  -0.00824359  1
  Hf  Hf27  1  0.01241826  0.19092213  0.72792335  1
  Hf  Hf28  1  0.59306599  0.81274889  0.75491730  1
  Hf  Hf29  1  0.80116590  0.40478524  0.50713643  1
  Hf  Hf30  1  0.01317512  -0.01346573  0.73446834  1
  Hf  Hf31  1  0.69265466  0.50531653  0.62976015  1
  Hf  Hf32  1  0.48738217  0.71260436  0.87813250  1
  Hf  Hf33  1  0.90742597  0.70406355  0.87444408  1
  Hf  Hf34  1  0.09621039  0.89363908  0.12371464  1
  Hf  Hf35  1  0.49435813  0.29486715  0.37299153  1
  Hf  Hf36  1  0.61853320  0.62481933  0.24189518  1
  Hf  Hf37  1  0.00933637  0.19209936  0.51557487  1
  Hf  Hf38  1  0.79947660  0.00658845  0.75464006  1
  Hf  Hf39  1  0.18120316  0.18885886  0.00866135  1
  Zr  Zr40  1  0.39171053  0.80804489  0.74495898  1
  Zr  Zr41  1  0.91462054  0.49098435  0.12508312  1
  Zr  Zr42  1  0.19404772  0.79958126  0.74624938  1
  Zr  Zr43  1  0.59985062  0.41315389  0.00558997  1
  Zr  Zr44  1  0.10562696  0.28970500  0.86626146  1
  Zr  Zr45  1  0.39953576  0.60962820  0.00889419  1
  Zr  Zr46  1  0.19668651  0.80160376  0.49188219  1
  Zr  Zr47  1  0.69858468  0.50514101  0.86018305  1
  Zr  Zr48  1  -0.00110046  0.59275200  0.25377628  1
  Zr  Zr49  1  0.40835211  0.19014453  0.50649107  1
  Zr  Zr50  1  0.81802897  0.60931195  0.51785520  1
  Zr  Zr51  1  0.58330487  0.39377270  0.74640475  1
  Zr  Zr52  1  0.50775864  0.69881044  0.37955386  1
  Zr  Zr53  1  0.48906281  0.91732005  0.62337312  1
  Zr  Zr54  1  0.10052544  0.69624601  0.61139046  1
  Zr  Zr55  1  0.20899257  0.59138777  0.00805682  1
  Zr  Zr56  1  0.70638778  0.52807678  0.38307007  1
  Zr  Zr57  1  0.07441702  0.30108600  0.12421445  1
  Zr  Zr58  1  0.69399745  0.10500858  0.62119908  1
  Zr  Zr59  1  0.49478250  0.50720880  0.87780115  1
  Zr  Zr60  1  0.48676403  0.50198388  0.61673193  1
  Zr  Zr61  1  0.91393060  0.10639130  0.11663078  1
  Zr  Zr62  1  0.69544495  0.30524762  0.37603641  1
  Zr  Zr63  1  0.39079491  0.21205204  0.23191911  1
  Zr  Zr64  1  0.49889450  0.51386493  0.13331975  1
  Zr  Zr65  1  0.91127127  0.10492809  0.87160644  1
  Zr  Zr66  1  0.48762659  0.30239472  0.88507969  1
  Zr  Zr67  1  0.80486927  0.40877387  -0.00646340  1
  Zr  Zr68  1  0.69888246  0.91031017  0.62033452  1
  Zr  Zr69  1  0.81484942  0.21169456  -0.00072296  1
  Zr  Zr70  1  0.90698232  0.29896311  0.38875216  1
  Zr  Zr71  1  0.50220562  0.10751719  0.89084406  1
  Zr  Zr72  1  0.69515812  0.28941387  0.86907374  1
  Zr  Zr73  1  0.80387965  0.61305692  0.01149147  1
  Zr  Zr74  1  0.30521284  0.10031237  0.86834923  1
  Zr  Zr75  1  0.10596865  0.09359187  0.38917932  1
  Zr  Zr76  1  0.00177949  0.40741338  0.51703158  1
  Zr  Zr77  1  0.68945709  0.10376855  0.37451839  1
  Zr  Zr78  1  0.69728953  0.69743887  0.86730084  1
  Zr  Zr79  1  0.59887697  0.40713919  0.24920666  1
  Ta  Ta80  1  0.20862225  0.40129457  0.73571759  1
  Ta  Ta81  1  0.80313980  0.19910439  0.24908642  1
  Ta  Ta82  1  0.30129654  0.48861898  0.14141147  1
  Ta  Ta83  1  0.11412360  0.50895435  0.61815507  1
  Ta  Ta84  1  0.89067741  0.28875607  0.62994810  1
  Ta  Ta85  1  0.13723652  0.08663823  0.61698130  1
  Ta  Ta86  1  0.49172038  0.69552521  0.61727291  1
  Ta  Ta87  1  -0.00177300  0.38635050  -0.01126310  1
  Ta  Ta88  1  0.29687732  0.30190341  0.37993340  1
  Ta  Ta89  1  0.00365744  0.59170121  0.00287207  1
  Ta  Ta90  1  0.29590602  0.68904455  0.61926480  1
  Ta  Ta91  1  0.59299686  0.00070504  0.76783223  1
  Ta  Ta92  1  -0.00224871  0.80008934  0.73978952  1
  Ta  Ta93  1  0.00992722  -0.01557073  0.51149870  1
  Ta  Ta94  1  0.20368203  0.59583259  0.25762522  1
  Ta  Ta95  1  0.11243420  0.30050336  0.38647186  1
  Ta  Ta96  1  0.19720431  -0.00608810  0.24115293  1
  Ta  Ta97  1  0.58497672  0.01707133  0.49517038  1
  Ta  Ta98  1  0.70560428  0.09314664  0.88924330  1
  Ta  Ta99  1  0.19527914  0.39478060  0.25394480  1
  Ta  Ta100  1  0.59193507  0.39595995  0.50442901  1
  Ta  Ta101  1  0.29476891  0.49390471  0.37428782  1
  Ta  Ta102  1  0.40369961  0.00377032  0.23282610  1
  Ta  Ta103  1  0.89280547  0.69245544  0.37532472  1
  Ta  Ta104  1  0.80157435  0.39945062  0.73914888  1
  Ta  Ta105  1  0.10792816  0.08553157  0.86541070  1
  Ta  Ta106  1  0.00418531  0.60638634  0.74069450  1
  Ta  Ta107  1  0.79744715  0.78366747  0.24927467  1
  Ta  Ta108  1  0.78623170  0.81193589  -0.00840556  1
  Ta  Ta109  1  0.29571021  0.50047683  0.86900387  1
  Ta  Ta110  1  0.49105333  0.31087773  0.11909880  1
  Ta  Ta111  1  -0.01379061  0.79429559  0.50363511  1
  Ta  Ta112  1  0.09217357  0.89236310  0.37182314  1
  Ta  Ta113  1  0.38418559  0.60390887  0.48902917  1
  Ta  Ta114  1  -0.00988813  0.79505095  0.24853286  1
  Ta  Ta115  1  0.38042936  0.60277620  0.75049870  1
  Ta  Ta116  1  0.29378798  0.08759109  0.12402205  1
  Ta  Ta117  1  0.00667270  0.00489974  -0.00163179  1
  Ta  Ta118  1  0.90216283  0.30028416  0.85121495  1
  Ta  Ta119  1  0.69898479  0.89306113  0.37407032  1
  Ti  Ti120  1  0.60263662  0.62616089  0.01679118  1
  Ti  Ti121  1  0.40198734  0.79563230  0.25103898  1
  Ti  Ti122  1  0.90264134  0.90528697  0.88181341  1
  Ti  Ti123  1  0.89558689  0.09140340  0.62440003  1
  Ti  Ti124  1  0.89353279  0.89653302  0.11724861  1
  Ti  Ti125  1  0.59948217  0.80734037  0.25501309  1
  Ti  Ti126  1  0.29697097  0.29275313  0.62194659  1
  Ti  Ti127  1  0.29849533  0.88441361  0.13278938  1
  Ti  Ti128  1  0.30086758  0.89201943  0.87430169  1
  Ti  Ti129  1  0.38501985  0.40800765  0.00299673  1
  Ti  Ti130  1  0.29800619  0.30423279  0.86959310  1
  Ti  Ti131  1  0.80334179  0.80359970  0.50498317  1
  Ti  Ti132  1  0.90184986  0.89136099  0.37520968  1
  Ti  Ti133  1  0.39071291  0.39649150  0.74519603  1
  Ti  Ti134  1  0.39899182  0.60182970  0.25811666  1
  Ti  Ti135  1  0.19421642  0.78880796  0.25938782  1
  Ti  Ti136  1  0.20405751  0.39695793  0.50709796  1
  Ti  Ti137  1  0.71059627  0.51255421  0.13253859  1
  Ti  Ti138  1  0.32602658  0.09525890  0.64599035  1
  Ti  Ti139  1  0.39684499  0.80609200  0.00540767  1
  Ti  Ti140  1  0.27977550  0.91564445  0.62752496  1
  Ti  Ti141  1  0.59323331  0.18771938  0.75348840  1
  Ti  Ti142  1  0.40055837  -0.00641127  0.01085954  1
  Ti  Ti143  1  0.57902171  0.60564970  0.74798319  1
  Ti  Ti144  1  0.38702181  0.00218781  0.50102456  1
  Ti  Ti145  1  -0.00509320  0.79736808  0.00381656  1
  Ti  Ti146  1  0.10660228  0.49220168  0.12738149  1
  Ti  Ti147  1  0.29692413  0.50513252  0.61829076  1
  Ti  Ti148  1  0.21133375  0.19873794  0.74243583  1
  Ti  Ti149  1  0.49434179  0.28541518  0.62755605  1
  Ti  Ti150  1  0.49411287  0.10220195  0.36573212  1
  Ti  Ti151  1  0.59598107  -0.00012394  0.24180969  1
  Ti  Ti152  1  0.09765626  0.49495931  0.38370497  1
  Ti  Ti153  1  0.09811052  0.89377789  0.88010700  1
  Ti  Ti154  1  0.30613874  0.69815873  0.13823379  1
  Ti  Ti155  1  0.39430996  0.39577943  0.50283356  1
  Ti  Ti156  1  0.20136854  0.39241207  0.00510589  1
  Ti  Ti157  1  0.49696011  0.89334157  0.12739988  1
  Ti  Ti158  1  0.09570366  0.69305952  0.38141233  1
  Ti  Ti159  1  0.80054550  0.19553866  0.49501880  1
  Mo  Mo160  1  0.50466147  0.10042612  0.63476105  1
  Mo  Mo161  1  0.90527605  0.50354293  0.63821584  1
  Mo  Mo162  1  0.01592788  0.39811596  0.26598249  1
  Mo  Mo163  1  0.00463952  0.60097089  0.49247235  1
  Mo  Mo164  1  0.48657493  0.90586408  0.87928975  1
  Mo  Mo165  1  0.38825987  0.40676089  0.25505017  1
  Mo  Mo166  1  0.40252066  0.21272879  0.74596135  1
  Mo  Mo167  1  0.89975320  0.09131147  0.38172924  1
  Mo  Mo168  1  0.20090050  0.59277863  0.74663240  1
  Mo  Mo169  1  0.59645970  0.20522278  0.49889934  1
  Mo  Mo170  1  0.20167802  0.59148263  0.48473418  1
  Mo  Mo171  1  0.50101717  0.09292235  0.11011167  1
  Mo  Mo172  1  0.09952245  0.08750215  0.12424080  1
  Mo  Mo173  1  0.21436956  0.79339072  0.00152314  1
  Mo  Mo174  1  0.90778033  0.71637378  0.11755211  1
  Mo  Mo175  1  0.49627679  0.72028518  0.13399362  1
  Mo  Mo176  1  0.80084657  0.20031365  0.74945889  1
  Mo  Mo177  1  0.29717048  0.69533210  0.36035800  1
  Mo  Mo178  1  0.20771351  -0.00446263  0.75681373  1
  Mo  Mo179  1  0.29737339  0.69906423  0.87822796  1
  Mo  Mo180  1  0.28786285  0.30883910  0.12094173  1
  Mo  Mo181  1  0.58884866  0.79483425  0.00017261  1
  Mo  Mo182  1  0.11540617  0.29476831  0.62128916  1
  Mo  Mo183  1  0.81151695  0.60111953  0.73626063  1
  Mo  Mo184  1  0.59680592  0.19741947  0.02111479  1
  Mo  Mo185  1  0.70954871  0.71334740  0.38106262  1
  Mo  Mo186  1  0.40311641  0.00172458  0.75964284  1
  Mo  Mo187  1  0.70273077  0.70898717  0.11993629  1
  Mo  Mo188  1  0.59639134  0.60243946  0.50681271  1
  Mo  Mo189  1  0.90173760  0.89897635  0.61870294  1
  Mo  Mo190  1  0.10253879  0.89870482  0.61930073  1
  Mo  Mo191  1  0.89757648  0.30169842  0.13301064  1
  Mo  Mo192  1  0.90104235  0.70380240  0.63013889  1
  Mo  Mo193  1  0.91215664  0.50859490  0.38123399  1
  Mo  Mo194  1  0.80942231  -0.00790857  -0.00844659  1
  Mo  Mo195  1  0.81022434  0.61093275  0.24138069  1
  Mo  Mo196  1  0.21067362  0.20384088  0.50998248  1
  Mo  Mo197  1  0.70307622  0.90168029  0.87268473  1
  Mo  Mo198  1  0.21037964  -0.00132446  0.49789616  1
  Mo  Mo199  1  0.00397936  0.20094627  -0.01309704  1
