# generated using pymatgen
data_HfZrTaTiMo
_symmetry_space_group_name_H-M   'P 1'
_cell_length_a   15.20415844
_cell_length_b   15.21243031
_cell_length_c   16.86767985
_cell_angle_alpha   89.98826215
_cell_angle_beta   89.95905238
_cell_angle_gamma   89.90192464
_symmetry_Int_Tables_number   1
_chemical_formula_structural   HfZrTaTiMo
_chemical_formula_sum   'Hf40 Zr40 Ta40 Ti40 Mo40'
_cell_volume   3901.35600040
_cell_formula_units_Z   40
loop_
 _symmetry_equiv_pos_site_id
 _symmetry_equiv_pos_as_xyz
  1  'x, y, z'
loop_
 _atom_site_type_symbol
 _atom_site_label
 _atom_site_symmetry_multiplicity
 _atom_site_fract_x
 _atom_site_fract_y
 _atom_site_fract_z
 _atom_site_occupancy
  Hf  Hf0  1  0.90884183  0.09009348  0.86256560  1
  Hf  Hf1  1  0.80778023  0.59605589  0.49911999  1
  Hf  Hf2  1  0.58229759  0.19386411  0.00829160  1
  Hf  Hf3  1  0.39672187  0.39315011  -0.00006111  1
  Hf  Hf4  1  0.40835801  0.81128267  -0.01145649  1
  Hf  Hf5  1  0.69525024  0.07763161  0.11777990  1
  Hf  Hf6  1  0.69023514  0.30093884  0.89295809  1
  Hf  Hf7  1  0.10510828  0.30293654  0.12530273  1
  Hf  Hf8  1  0.80409676  0.78968255  -0.01015472  1
  Hf  Hf9  1  0.29329138  0.50903502  0.35952353  1
  Hf  Hf10  1  0.30247575  0.70214476  0.87155111  1
  Hf  Hf11  1  0.80909186  0.39006164  0.49359022  1
  Hf  Hf12  1  0.29918017  0.49340263  0.86672043  1
  Hf  Hf13  1  0.71187758  0.69629810  0.36925079  1
  Hf  Hf14  1  0.10025084  0.50427839  0.63693209  1
  Hf  Hf15  1  -0.00942356  0.60303364  -0.00477528  1
  Hf  Hf16  1  0.70286621  0.69520922  0.64628448  1
  Hf  Hf17  1  0.08239676  0.09377863  0.38885756  1
  Hf  Hf18  1  0.41533608  0.79925071  0.50728910  1
  Hf  Hf19  1  0.49723070  0.10412619  0.38432138  1
  Hf  Hf20  1  -0.01492040  0.40802463  0.25048077  1
  Hf  Hf21  1  0.50626938  0.50659583  0.62758464  1
  Hf  Hf22  1  0.07862149  0.30483062  0.61435552  1
  Hf  Hf23  1  0.70588958  0.48274276  0.63278048  1
  Hf  Hf24  1  0.59275460  -0.01069422  -0.01674259  1
  Hf  Hf25  1  0.09189598  0.90138791  0.11739245  1
  Hf  Hf26  1  0.49470140  0.51562357  0.36980337  1
  Hf  Hf27  1  0.61175718  0.38024959  0.49384627  1
  Hf  Hf28  1  0.10652087  0.89403315  0.38567424  1
  Hf  Hf29  1  -0.00384548  0.79802731  0.24713271  1
  Hf  Hf30  1  0.09694517  0.70846703  0.86279992  1
  Hf  Hf31  1  0.50687176  0.09364279  0.62298651  1
  Hf  Hf32  1  0.40712956  0.39323634  0.75086901  1
  Hf  Hf33  1  0.39851736  -0.00259737  0.74925874  1
  Hf  Hf34  1  -0.00017777  0.00603373  0.24680725  1
  Hf  Hf35  1  0.20234856  0.19469325  0.50372648  1
  Hf  Hf36  1  0.19653620  0.40234956  0.49304947  1
  Hf  Hf37  1  0.08868814  0.91523646  0.86943472  1
  Hf  Hf38  1  0.09328227  0.49753726  0.86745307  1
  Hf  Hf39  1  0.88226734  0.09605428  0.64025490  1
  Zr  Zr40  1  0.60019383  0.60526065  0.49914961  1
  Zr  Zr41  1  0.81631123  0.80058294  0.51484942  1
  Zr  Zr42  1  0.40472046  0.82777192  0.25957340  1
  Zr  Zr43  1  0.41035211  0.80407272  0.75098449  1
  Zr  Zr44  1  0.79646784  0.00426794  0.26129245  1
  Zr  Zr45  1  0.30113205  0.49821409  0.63947456  1
  Zr  Zr46  1  0.31121463  0.70445696  0.37838404  1
  Zr  Zr47  1  0.20303842  0.59423311  0.00047288  1
  Zr  Zr48  1  0.52174417  0.69892945  0.87199671  1
  Zr  Zr49  1  0.29375321  0.49827771  0.13808136  1
  Zr  Zr50  1  0.68834963  0.89014699  0.38202328  1
  Zr  Zr51  1  0.58166170  -0.00371732  0.25706995  1
  Zr  Zr52  1  0.20367489  0.79730443  0.24533721  1
  Zr  Zr53  1  0.11207455  0.11031258  0.87305457  1
  Zr  Zr54  1  0.39568653  0.40976672  0.49927345  1
  Zr  Zr55  1  0.70843801  0.48682412  0.36001003  1
  Zr  Zr56  1  0.90651801  0.49193290  0.62425307  1
  Zr  Zr57  1  0.59938135  0.19927049  0.23612807  1
  Zr  Zr58  1  0.51135813  0.29365533  0.62562174  1
  Zr  Zr59  1  0.70809191  0.68961535  0.13075961  1
  Zr  Zr60  1  0.50280299  0.50540126  0.12649745  1
  Zr  Zr61  1  0.29299049  0.28427060  0.86355318  1
  Zr  Zr62  1  0.69453694  0.88353533  0.85281761  1
  Zr  Zr63  1  0.80092585  0.18803496  0.00717392  1
  Zr  Zr64  1  0.49744162  0.91384394  0.11891192  1
  Zr  Zr65  1  0.71051436  0.91445326  0.63827377  1
  Zr  Zr66  1  0.80754879  -0.01442155  -0.01560275  1
  Zr  Zr67  1  0.90490107  0.30033779  0.89342037  1
  Zr  Zr68  1  0.19709799  0.80206402  -0.00171757  1
  Zr  Zr69  1  0.50196162  0.30254398  0.36993545  1
  Zr  Zr70  1  0.08580213  0.29841328  0.38434740  1
  Zr  Zr71  1  0.80067778  0.20104463  0.22951842  1
  Zr  Zr72  1  -0.00347522  0.20059600  0.24242922  1
  Zr  Zr73  1  0.21276695  0.60481243  0.51046504  1
  Zr  Zr74  1  -0.02055836  0.39870914  0.75882394  1
  Zr  Zr75  1  0.29682050  0.91598462  0.11927095  1
  Zr  Zr76  1  0.79791198  0.02467174  0.49135773  1
  Zr  Zr77  1  0.10614774  0.69644097  0.37803395  1
  Zr  Zr78  1  0.38766952  -0.00020155  0.49477479  1
  Zr  Zr79  1  0.90647735  0.89876198  0.38220450  1
  Ta  Ta80  1  0.61387469  0.38730394  0.75572547  1
  Ta  Ta81  1  0.09877315  0.71084310  0.63306209  1
  Ta  Ta82  1  0.90607316  0.70383824  0.12395264  1
  Ta  Ta83  1  0.20160863  0.02023685  0.73548804  1
  Ta  Ta84  1  0.49257869  0.10766049  0.86457549  1
  Ta  Ta85  1  0.89012562  0.90404918  0.12341202  1
  Ta  Ta86  1  0.51080473  0.49384092  0.88086045  1
  Ta  Ta87  1  0.48798841  0.29915900  0.12793030  1
  Ta  Ta88  1  0.51612607  0.71668884  0.37696618  1
  Ta  Ta89  1  0.59985585  0.79547834  0.24431119  1
  Ta  Ta90  1  0.59667121  -0.00847501  0.50206788  1
  Ta  Ta91  1  0.91034050  0.69367268  0.64657066  1
  Ta  Ta92  1  0.21051296  0.20121723  0.00672462  1
  Ta  Ta93  1  0.19540898  0.39278233  0.00063099  1
  Ta  Ta94  1  0.29087467  0.91565704  0.87097231  1
  Ta  Ta95  1  0.78673557  0.21203531  0.75802194  1
  Ta  Ta96  1  0.70054967  0.88682691  0.12520976  1
  Ta  Ta97  1  0.70032510  0.49814150  0.12179621  1
  Ta  Ta98  1  0.40987827  0.60246183  -0.00210103  1
  Ta  Ta99  1  0.80268419  0.41384292  0.00305260  1
  Ta  Ta100  1  0.11454928  0.09694308  0.12383348  1
  Ta  Ta101  1  0.10274452  0.69167547  0.12426437  1
  Ta  Ta102  1  0.38665275  0.18869541  0.73772022  1
  Ta  Ta103  1  0.10051682  0.30145299  0.87876250  1
  Ta  Ta104  1  0.90090076  0.69728364  0.85297824  1
  Ta  Ta105  1  0.19144056  0.39387428  0.25859589  1
  Ta  Ta106  1  0.69685249  0.49847732  0.87916316  1
  Ta  Ta107  1  0.08984603  0.50505066  0.37358899  1
  Ta  Ta108  1  0.20320266  0.18961886  0.25936657  1
  Ta  Ta109  1  0.88163565  0.29484925  0.37099248  1
  Ta  Ta110  1  0.30373128  0.90556375  0.62604948  1
  Ta  Ta111  1  0.20293752  0.81694519  0.74033024  1
  Ta  Ta112  1  0.39650425  0.20522023  0.50779392  1
  Ta  Ta113  1  0.70814746  0.68511111  0.85293842  1
  Ta  Ta114  1  0.41204184  0.59955395  0.75692382  1
  Ta  Ta115  1  0.00248145  0.60316860  0.50260108  1
  Ta  Ta116  1  0.31057232  0.70122264  0.12248869  1
  Ta  Ta117  1  0.90565118  0.30971471  0.10699144  1
  Ta  Ta118  1  0.00229769  0.19965186  0.74585277  1
  Ta  Ta119  1  0.20396850  0.80977277  0.51623922  1
  Ti  Ti120  1  0.60160717  0.39565866  0.24431207  1
  Ti  Ti121  1  0.89848493  0.50701016  0.11847461  1
  Ti  Ti122  1  0.29688584  0.29530022  0.13683251  1
  Ti  Ti123  1  0.81844776  0.59221669  0.25114694  1
  Ti  Ti124  1  0.20436471  0.60888618  0.74725466  1
  Ti  Ti125  1  0.09418361  0.49790407  0.12542887  1
  Ti  Ti126  1  0.91859381  0.89312698  0.64976761  1
  Ti  Ti127  1  -0.00904757  0.81020325  -0.00506089  1
  Ti  Ti128  1  0.39934436  0.39644446  0.25109513  1
  Ti  Ti129  1  0.60386963  0.60158052  0.25011739  1
  Ti  Ti130  1  -0.00336872  -0.01735904  0.51750107  1
  Ti  Ti131  1  0.79633031  0.39429782  0.23620421  1
  Ti  Ti132  1  -0.03497949  0.19435585  0.50076623  1
  Ti  Ti133  1  0.39473715  0.01561821  -0.01505332  1
  Ti  Ti134  1  0.00586053  0.60119037  0.24559215  1
  Ti  Ti135  1  0.69197394  0.31140188  0.10740255  1
  Ti  Ti136  1  0.49831020  0.29633341  0.87376929  1
  Ti  Ti137  1  0.01104528  0.18946839  0.00958239  1
  Ti  Ti138  1  0.30887899  0.10246954  0.13033283  1
  Ti  Ti139  1  0.80320063  0.79771482  0.24910732  1
  Ti  Ti140  1  0.39663542  0.19102074  0.25126367  1
  Ti  Ti141  1  0.59394008  -0.00092101  0.75248392  1
  Ti  Ti142  1  0.30288708  0.29440237  0.37144608  1
  Ti  Ti143  1  0.31072846  0.69868217  0.63010981  1
  Ti  Ti144  1  0.79390808  0.60274441  -0.00781449  1
  Ti  Ti145  1  0.69586516  0.09841865  0.86346808  1
  Ti  Ti146  1  0.20012259  0.01242087  -0.00286363  1
  Ti  Ti147  1  0.91191261  0.69367589  0.37601544  1
  Ti  Ti148  1  0.28595574  0.29903581  0.63366496  1
  Ti  Ti149  1  0.50854316  0.70241863  0.63220015  1
  Ti  Ti150  1  0.39227436  0.19666351  0.00199879  1
  Ti  Ti151  1  0.50625988  0.70376922  0.11868945  1
  Ti  Ti152  1  0.88027649  0.29530743  0.62835254  1
  Ti  Ti153  1  0.90155193  0.89257925  0.84563510  1
  Ti  Ti154  1  0.40632820  0.62132362  0.24399186  1
  Ti  Ti155  1  0.81027704  0.57403696  0.75763216  1
  Ti  Ti156  1  0.60983044  0.78801930  -0.00081883  1
  Ti  Ti157  1  0.08961426  0.10145003  0.62174979  1
  Ti  Ti158  1  0.21048875  -0.00030441  0.26290510  1
  Ti  Ti159  1  0.19717382  0.00181603  0.50958395  1
  Mo  Mo160  1  0.69667304  0.11608468  0.37597613  1
  Mo  Mo161  1  0.70279503  0.28536402  0.63012448  1
  Mo  Mo162  1  0.38200289  0.01852693  0.26669015  1
  Mo  Mo163  1  0.80692290  0.79440468  0.74444736  1
  Mo  Mo164  1  0.79434223  0.39140594  0.76135375  1
  Mo  Mo165  1  0.19179548  0.38988596  0.74965669  1
  Mo  Mo166  1  0.49927757  0.89751815  0.38066057  1
  Mo  Mo167  1  0.69991001  0.29121307  0.36223209  1
  Mo  Mo168  1  0.10470833  0.90767994  0.62383644  1
  Mo  Mo169  1  0.29113377  0.10751952  0.37694140  1
  Mo  Mo170  1  0.19536231  0.59733941  0.23754457  1
  Mo  Mo171  1  0.29925516  0.10102098  0.87276436  1
  Mo  Mo172  1  0.90692278  0.50587673  0.37210152  1
  Mo  Mo173  1  0.60051426  0.58603232  0.75096037  1
  Mo  Mo174  1  0.00524473  0.40464848  0.00413200  1
  Mo  Mo175  1  0.01122378  0.80281768  0.74967064  1
  Mo  Mo176  1  0.29230823  0.90508296  0.38895297  1
  Mo  Mo177  1  0.79984360  0.00678420  0.75900298  1
  Mo  Mo178  1  0.61219925  0.18454590  0.49685198  1
  Mo  Mo179  1  0.00539921  0.79214485  0.51413315  1
  Mo  Mo180  1  0.91306098  0.09158363  0.11320958  1
  Mo  Mo181  1  0.69057080  0.11241187  0.63993006  1
  Mo  Mo182  1  0.40741971  0.60702321  0.50391962  1
  Mo  Mo183  1  0.18881759  0.20659762  0.73257861  1
  Mo  Mo184  1  0.00161893  0.00259267  0.00726361  1
  Mo  Mo185  1  0.59943079  0.79943033  0.74109093  1
  Mo  Mo186  1  0.00878970  0.00469703  0.73755494  1
  Mo  Mo187  1  0.78263868  0.20777422  0.50123115  1
  Mo  Mo188  1  0.88699562  0.50764093  0.88341294  1
  Mo  Mo189  1  0.60623891  0.80344833  0.51275964  1
  Mo  Mo190  1  0.60487409  0.59935565  0.00066584  1
  Mo  Mo191  1  0.89680310  0.11095965  0.37899414  1
  Mo  Mo192  1  0.59125281  0.19646301  0.76083997  1
  Mo  Mo193  1  0.00320286  0.60132879  0.75329568  1
  Mo  Mo194  1  0.48212025  0.10351089  0.12094473  1
  Mo  Mo195  1  -0.00560886  0.40695455  0.49070227  1
  Mo  Mo196  1  0.51215662  0.89457252  0.62463491  1
  Mo  Mo197  1  0.29796474  0.10588359  0.62127746  1
  Mo  Mo198  1  0.49630529  0.90624971  0.87659188  1
  Mo  Mo199  1  0.59530944  0.40193095  0.00497798  1
