# generated using pymatgen
data_HfZrTaTiMo
_symmetry_space_group_name_H-M   'P 1'
_cell_length_a   15.22039426
_cell_length_b   15.19981090
_cell_length_c   16.85019008
_cell_angle_alpha   90.03161691
_cell_angle_beta   90.09582857
_cell_angle_gamma   89.95160817
_symmetry_Int_Tables_number   1
_chemical_formula_structural   HfZrTaTiMo
_chemical_formula_sum   'Hf40 Zr40 Ta40 Ti40 Mo40'
_cell_volume   3898.23542197
_cell_formula_units_Z   40
loop_
 _symmetry_equiv_pos_site_id
 _symmetry_equiv_pos_as_xyz
  1  'x, y, z'
loop_
 _atom_site_type_symbol
 _atom_site_label
 _atom_site_symmetry_multiplicity
 _atom_site_fract_x
 _atom_site_fract_y
 _atom_site_fract_z
 _atom_site_occupancy
  Hf  Hf0  1  0.29161986  0.50059925  0.62313627  1
  Hf  Hf1  1  0.88998516  0.49937731  0.87504607  1
  Hf  Hf2  1  0.48554788  0.70536596  0.12609447  1
  Hf  Hf3  1  0.39725209  0.59547079  0.75619503  1
  Hf  Hf4  1  0.50302923  0.29895474  0.13685464  1
  Hf  Hf5  1  0.79379745  0.22936934  -0.00579052  1
  Hf  Hf6  1  0.39504519  0.01037404  -0.00353254  1
  Hf  Hf7  1  0.18730566  0.79950361  0.49623837  1
  Hf  Hf8  1  0.21987914  0.00202295  0.24350267  1
  Hf  Hf9  1  0.29064938  0.30099207  0.63577663  1
  Hf  Hf10  1  0.70723310  0.88811810  0.87216611  1
  Hf  Hf11  1  -0.01505534  0.40026869  -0.00324259  1
  Hf  Hf12  1  0.29568538  0.09027964  0.39607536  1
  Hf  Hf13  1  0.38407597  0.21267679  0.00709024  1
  Hf  Hf14  1  0.60774628  0.38966664  0.00420056  1
  Hf  Hf15  1  0.41993968  0.77698035  0.49021427  1
  Hf  Hf16  1  0.80540487  0.60195531  0.00778018  1
  Hf  Hf17  1  0.71350326  0.89601607  0.11930278  1
  Hf  Hf18  1  0.81576057  0.00786136  -0.01650768  1
  Hf  Hf19  1  0.81039998  0.79764837  0.74101580  1
  Hf  Hf20  1  0.30013208  0.50410466  0.88577012  1
  Hf  Hf21  1  0.29574433  0.10307794  0.86039767  1
  Hf  Hf22  1  0.11628680  0.90179712  0.35853630  1
  Hf  Hf23  1  0.50561695  0.91409980  0.12548765  1
  Hf  Hf24  1  0.40117970  0.20163584  0.51410321  1
  Hf  Hf25  1  0.59604630  0.17806773  0.25569816  1
  Hf  Hf26  1  0.59675826  0.58885918  0.01587033  1
  Hf  Hf27  1  0.60432638  0.79158740  0.00615459  1
  Hf  Hf28  1  0.79146916  0.00658521  0.25639540  1
  Hf  Hf29  1  0.81395925  0.00340896  0.75473384  1
  Hf  Hf30  1  0.58578570  0.19829522  -0.00225407  1
  Hf  Hf31  1  0.49172360  0.50805360  0.37827107  1
  Hf  Hf32  1  0.07843700  0.69677660  0.35191429  1
  Hf  Hf33  1  0.81208326  0.80703919  0.50327074  1
  Hf  Hf34  1  0.49092986  0.51906468  0.60924927  1
  Hf  Hf35  1  0.01437407  0.02208894  0.24774205  1
  Hf  Hf36  1  0.49949902  0.09317769  0.39161648  1
  Hf  Hf37  1  0.28402595  0.69186525  0.36991519  1
  Hf  Hf38  1  0.71430909  0.10018102  0.61907983  1
  Hf  Hf39  1  0.28963459  0.72227384  0.87073986  1
  Zr  Zr40  1  0.29602834  0.89360727  0.12079105  1
  Zr  Zr41  1  0.91553104  0.11888054  0.12465290  1
  Zr  Zr42  1  0.90773051  0.90907367  0.12756682  1
  Zr  Zr43  1  0.60441906  0.59349688  0.24576437  1
  Zr  Zr44  1  0.30532496  0.69775130  0.62565897  1
  Zr  Zr45  1  0.68263873  0.70009706  0.39060587  1
  Zr  Zr46  1  0.79601529  0.59824911  0.73557322  1
  Zr  Zr47  1  0.60403695  0.20648081  0.73408603  1
  Zr  Zr48  1  0.69156474  0.50231442  0.60425089  1
  Zr  Zr49  1  0.48567464  0.89053713  0.86244983  1
  Zr  Zr50  1  0.08494859  0.28787236  0.11362235  1
  Zr  Zr51  1  -0.00000476  0.40703768  0.24072182  1
  Zr  Zr52  1  0.69574610  0.10134577  0.11880746  1
  Zr  Zr53  1  0.28701908  0.29436358  0.38040553  1
  Zr  Zr54  1  0.80961839  0.59976781  0.25971032  1
  Zr  Zr55  1  0.01822106  -0.00696632  0.50046192  1
  Zr  Zr56  1  0.69965234  0.29230272  0.39073450  1
  Zr  Zr57  1  0.81943483  0.60192916  0.49523277  1
  Zr  Zr58  1  0.59633112  -0.00254953  0.73994458  1
  Zr  Zr59  1  -0.01049627  0.19144046  -0.02301175  1
  Zr  Zr60  1  0.70828589  0.69634621  0.87486740  1
  Zr  Zr61  1  0.30795165  0.30270131  0.85834577  1
  Zr  Zr62  1  0.28893359  0.09676597  0.62562983  1
  Zr  Zr63  1  0.18231712  0.19880996  0.23561562  1
  Zr  Zr64  1  0.68580358  0.50177768  0.86977943  1
  Zr  Zr65  1  0.60360274  0.80471442  0.24747297  1
  Zr  Zr66  1  0.69886712  0.11208347  0.86680471  1
  Zr  Zr67  1  0.38355478  0.19354352  0.24201241  1
  Zr  Zr68  1  0.80181436  0.21171179  0.25105094  1
  Zr  Zr69  1  0.82148945  0.39134978  0.50678226  1
  Zr  Zr70  1  0.38578459  0.60038501  0.24570135  1
  Zr  Zr71  1  -0.00117931  0.59683545  0.75669369  1
  Zr  Zr72  1  0.50033926  0.69230370  0.87720982  1
  Zr  Zr73  1  0.90034831  0.10595230  0.38428521  1
  Zr  Zr74  1  -0.00023412  0.21701008  0.51218972  1
  Zr  Zr75  1  0.59823179  0.00031066  -0.01431169  1
  Zr  Zr76  1  0.18945084  0.40901186  0.75293970  1
  Zr  Zr77  1  0.67781738  0.70571019  0.60908242  1
  Zr  Zr78  1  0.29366738  0.89816275  0.61407203  1
  Zr  Zr79  1  0.70518464  0.90970431  0.38614704  1
  Ta  Ta80  1  0.58569702  0.39412214  0.49667890  1
  Ta  Ta81  1  0.59507005  0.19923597  0.51773784  1
  Ta  Ta82  1  0.10242919  0.70344191  0.62633499  1
  Ta  Ta83  1  0.50309045  0.30556056  0.86093032  1
  Ta  Ta84  1  0.10751177  0.11805443  0.38375889  1
  Ta  Ta85  1  0.59088940  -0.00682164  0.52138937  1
  Ta  Ta86  1  0.11262676  0.08793045  0.88115466  1
  Ta  Ta87  1  0.00901939  -0.01067670  0.76818835  1
  Ta  Ta88  1  0.09746683  0.31115720  0.37436206  1
  Ta  Ta89  1  0.90908065  0.30905853  0.37391866  1
  Ta  Ta90  1  0.39174918  0.80716114  0.25692759  1
  Ta  Ta91  1  0.11744912  0.07938223  0.09244182  1
  Ta  Ta92  1  0.41623290  0.00346958  0.25042708  1
  Ta  Ta93  1  0.69499647  0.49611760  0.39221001  1
  Ta  Ta94  1  0.91478073  0.10431992  0.63249066  1
  Ta  Ta95  1  0.50654687  0.89930488  0.37818126  1
  Ta  Ta96  1  0.01009216  0.61173143  0.00309521  1
  Ta  Ta97  1  0.91480117  0.71174961  0.12689874  1
  Ta  Ta98  1  0.92040049  0.90272451  0.63160677  1
  Ta  Ta99  1  0.70573656  0.30240131  0.61660116  1
  Ta  Ta100  1  0.00709291  -0.01998412  -0.02088416  1
  Ta  Ta101  1  0.69861699  0.09913934  0.40256348  1
  Ta  Ta102  1  0.10045866  0.88613139  0.12253890  1
  Ta  Ta103  1  0.49772266  0.87909492  0.63263933  1
  Ta  Ta104  1  0.81098782  0.79590224  0.25910828  1
  Ta  Ta105  1  0.31272626  0.90119676  0.38601403  1
  Ta  Ta106  1  0.39260773  0.39882289  0.24876732  1
  Ta  Ta107  1  0.71273787  0.47949657  0.13035200  1
  Ta  Ta108  1  0.79848180  0.39829259  0.73583675  1
  Ta  Ta109  1  0.91524394  0.89319838  0.36521295  1
  Ta  Ta110  1  0.70319128  0.31491502  0.86118623  1
  Ta  Ta111  1  0.48952232  0.11024271  0.86235376  1
  Ta  Ta112  1  0.20504523  0.38781335  0.00363311  1
  Ta  Ta113  1  0.29738424  0.50150064  0.11726214  1
  Ta  Ta114  1  0.10147160  0.49960938  0.88970366  1
  Ta  Ta115  1  0.91484389  0.70261681  0.62421582  1
  Ta  Ta116  1  0.38992245  0.40184168  0.49640961  1
  Ta  Ta117  1  0.49547445  0.31497804  0.62896181  1
  Ta  Ta118  1  0.10708010  0.29250831  0.87553607  1
  Ta  Ta119  1  0.18976291  0.61099772  0.75787614  1
  Ti  Ti120  1  0.60319503  0.39376312  0.26100803  1
  Ti  Ti121  1  0.90936297  0.71628743  0.88560244  1
  Ti  Ti122  1  -0.00082002  0.79647504  0.49856924  1
  Ti  Ti123  1  0.20212390  0.61164072  0.00301435  1
  Ti  Ti124  1  0.59439117  0.61037513  0.74425879  1
  Ti  Ti125  1  0.00352519  0.18995699  0.76331624  1
  Ti  Ti126  1  0.09653163  0.50535907  0.62595046  1
  Ti  Ti127  1  0.01630343  0.79687190  0.75627870  1
  Ti  Ti128  1  0.09552973  0.28884465  0.64054201  1
  Ti  Ti129  1  0.91837476  0.51005547  0.37245773  1
  Ti  Ti130  1  0.39498725  -0.00632470  0.74534684  1
  Ti  Ti131  1  0.40578976  0.40437407  0.00762714  1
  Ti  Ti132  1  0.70334105  0.89628095  0.62562080  1
  Ti  Ti133  1  0.11188338  0.70002108  0.14169559  1
  Ti  Ti134  1  0.10513512  0.50315044  0.36427550  1
  Ti  Ti135  1  -0.00601127  0.39066264  0.75824440  1
  Ti  Ti136  1  0.81445405  0.20846417  0.75158622  1
  Ti  Ti137  1  0.38345855  0.80063404  -0.00005116  1
  Ti  Ti138  1  0.91250241  0.49546967  0.62724909  1
  Ti  Ti139  1  0.11364196  0.87217274  0.88534840  1
  Ti  Ti140  1  0.59476999  0.41207265  0.73878509  1
  Ti  Ti141  1  0.49560974  0.48923625  0.87516113  1
  Ti  Ti142  1  0.19480039  -0.01897516  0.75487242  1
  Ti  Ti143  1  0.49178371  0.29887530  0.37414095  1
  Ti  Ti144  1  0.10372067  0.50471117  0.11698085  1
  Ti  Ti145  1  0.18936115  0.39184809  0.50631639  1
  Ti  Ti146  1  0.00975277  0.41355358  0.50270396  1
  Ti  Ti147  1  0.71437406  0.69802478  0.12766580  1
  Ti  Ti148  1  0.50019134  0.49333354  0.13430447  1
  Ti  Ti149  1  0.87528085  0.32202420  0.12960307  1
  Ti  Ti150  1  0.10217049  0.08684952  0.63214106  1
  Ti  Ti151  1  0.40662617  0.19621424  0.73493625  1
  Ti  Ti152  1  0.00818352  0.60572332  0.49988073  1
  Ti  Ti153  1  0.81641781  0.00053404  0.50972410  1
  Ti  Ti154  1  0.20292631  0.40077184  0.23552084  1
  Ti  Ti155  1  0.79375407  0.40798702  0.26596077  1
  Ti  Ti156  1  0.19285733  0.59108246  0.49734880  1
  Ti  Ti157  1  0.39705280  0.60222474  0.00641223  1
  Ti  Ti158  1  0.28564961  0.48932383  0.37350128  1
  Ti  Ti159  1  0.90551294  0.51140777  0.12588499  1
  Mo  Mo160  1  0.00180539  0.80765963  0.24383971  1
  Mo  Mo161  1  0.79647432  0.40616919  -0.00050268  1
  Mo  Mo162  1  0.20093493  0.19661330  -0.00226715  1
  Mo  Mo163  1  0.90621500  0.09858021  0.86477011  1
  Mo  Mo164  1  0.69631390  0.30596169  0.13765548  1
  Mo  Mo165  1  0.90707055  0.29759965  0.64574713  1
  Mo  Mo166  1  0.60046798  0.00259323  0.25764234  1
  Mo  Mo167  1  0.89701962  0.30476707  0.85757992  1
  Mo  Mo168  1  0.49293627  0.09782824  0.12502324  1
  Mo  Mo169  1  0.00154060  0.79392734  0.00246355  1
  Mo  Mo170  1  0.40577602  -0.01265715  0.50683598  1
  Mo  Mo171  1  0.18815570  0.79005743  0.00618237  1
  Mo  Mo172  1  0.49419924  0.09446960  0.62418418  1
  Mo  Mo173  1  0.59823053  0.80878078  0.50026727  1
  Mo  Mo174  1  0.90175346  0.70566893  0.37507678  1
  Mo  Mo175  1  0.81207276  0.79739050  0.00477695  1
  Mo  Mo176  1  0.80612794  0.19526791  0.51128972  1
  Mo  Mo177  1  0.18394922  0.19166033  0.75007398  1
  Mo  Mo178  1  0.09590884  0.89377088  0.63204860  1
  Mo  Mo179  1  0.29423556  0.31304309  0.12383605  1
  Mo  Mo180  1  -0.00352737  0.21323670  0.26266690  1
  Mo  Mo181  1  0.20537122  -0.01407487  -0.01102563  1
  Mo  Mo182  1  0.19289728  0.58128025  0.24135112  1
  Mo  Mo183  1  0.90778001  0.88994591  0.87123791  1
  Mo  Mo184  1  0.30144722  0.09904933  0.11840857  1
  Mo  Mo185  1  0.49218851  0.70081736  0.63306983  1
  Mo  Mo186  1  0.39523848  0.80529995  0.74852944  1
  Mo  Mo187  1  0.29229548  0.69699612  0.12172078  1
  Mo  Mo188  1  0.38018721  0.59147419  0.48682994  1
  Mo  Mo189  1  0.00043554  0.59886954  0.23525979  1
  Mo  Mo190  1  0.40905836  0.40232788  0.74777299  1
  Mo  Mo191  1  0.19156318  0.80282357  0.74596049  1
  Mo  Mo192  1  0.19547164  -0.00041461  0.49816553  1
  Mo  Mo193  1  0.49072921  0.70648832  0.36024303  1
  Mo  Mo194  1  0.18724357  0.20296351  0.50900764  1
  Mo  Mo195  1  0.09851060  0.68988903  0.87860288  1
  Mo  Mo196  1  0.29170020  0.90758035  0.87407241  1
  Mo  Mo197  1  0.57301341  0.60958881  0.48694898  1
  Mo  Mo198  1  0.60111883  0.79573126  0.74572632  1
  Mo  Mo199  1  0.20895964  0.79411455  0.24981186  1
