# generated using pymatgen
data_HfZrTaTiMo
_symmetry_space_group_name_H-M   'P 1'
_cell_length_a   15.21696301
_cell_length_b   15.21655722
_cell_length_c   16.84742667
_cell_angle_alpha   89.99331938
_cell_angle_beta   90.01117953
_cell_angle_gamma   89.86217030
_symmetry_Int_Tables_number   1
_chemical_formula_structural   HfZrTaTiMo
_chemical_formula_sum   'Hf40 Zr40 Ta40 Ti40 Mo40'
_cell_volume   3901.00669235
_cell_formula_units_Z   40
loop_
 _symmetry_equiv_pos_site_id
 _symmetry_equiv_pos_as_xyz
  1  'x, y, z'
loop_
 _atom_site_type_symbol
 _atom_site_label
 _atom_site_symmetry_multiplicity
 _atom_site_fract_x
 _atom_site_fract_y
 _atom_site_fract_z
 _atom_site_occupancy
  Hf  Hf0  1  -0.00674428  -0.00718419  -0.01582891  1
  Hf  Hf1  1  0.70967323  0.51455248  0.61584743  1
  Hf  Hf2  1  0.31263441  0.28927935  0.37590977  1
  Hf  Hf3  1  0.40135957  0.41230915  0.24787130  1
  Hf  Hf4  1  0.90213567  0.49947045  0.39378831  1
  Hf  Hf5  1  0.69982001  0.89750719  0.87911744  1
  Hf  Hf6  1  -0.01913259  0.58310844  0.24084332  1
  Hf  Hf7  1  0.48489108  0.09727299  0.36582889  1
  Hf  Hf8  1  0.78888454  0.19789535  0.75626667  1
  Hf  Hf9  1  0.09830945  0.29623374  0.62412277  1
  Hf  Hf10  1  0.70399970  0.53955198  0.37313837  1
  Hf  Hf11  1  0.20703542  0.19780220  0.74696477  1
  Hf  Hf12  1  0.61579960  0.41162543  0.01210402  1
  Hf  Hf13  1  0.58627742  0.21555702  0.49150830  1
  Hf  Hf14  1  0.49835501  0.90231143  0.87950540  1
  Hf  Hf15  1  0.28574933  0.10023951  0.39087305  1
  Hf  Hf16  1  0.90131599  0.49329927  0.88459665  1
  Hf  Hf17  1  0.28967635  0.09393944  0.60448040  1
  Hf  Hf18  1  0.38819775  -0.00887864  0.24364029  1
  Hf  Hf19  1  0.30680524  0.31218872  0.87483927  1
  Hf  Hf20  1  0.20035123  0.59600764  0.24433120  1
  Hf  Hf21  1  0.29320855  0.69100993  0.86896226  1
  Hf  Hf22  1  0.79181857  0.79936955  0.26104240  1
  Hf  Hf23  1  0.40453833  0.61787527  0.25915972  1
  Hf  Hf24  1  0.11023327  0.28852786  0.38006365  1
  Hf  Hf25  1  0.10203230  0.71047691  0.12657723  1
  Hf  Hf26  1  0.32138673  0.28659795  0.61748972  1
  Hf  Hf27  1  0.19865753  0.38943013  0.24374000  1
  Hf  Hf28  1  0.41361556  0.38782725  0.74602982  1
  Hf  Hf29  1  0.70246674  0.31023287  0.61168353  1
  Hf  Hf30  1  0.39711387  0.00497304  0.01370270  1
  Hf  Hf31  1  0.41895121  0.39227750  0.49346521  1
  Hf  Hf32  1  0.80994422  -0.00026364  0.75531156  1
  Hf  Hf33  1  0.80674809  0.19524142  -0.00256090  1
  Hf  Hf34  1  0.29572426  0.50920162  0.38005366  1
  Hf  Hf35  1  0.90799461  0.08254799  0.13262825  1
  Hf  Hf36  1  0.39568270  0.79103038  -0.00672430  1
  Hf  Hf37  1  0.80009573  0.60456989  0.75629861  1
  Hf  Hf38  1  0.09022160  0.71613374  0.87315985  1
  Hf  Hf39  1  -0.01349296  0.19566509  0.74579779  1
  Zr  Zr40  1  0.50995375  0.30206512  0.13903966  1
  Zr  Zr41  1  0.58623214  -0.00963315  0.50124508  1
  Zr  Zr42  1  0.19289357  -0.01537449  0.74639544  1
  Zr  Zr43  1  0.30086662  0.69444573  0.62313645  1
  Zr  Zr44  1  0.60024424  0.00036533  0.74258679  1
  Zr  Zr45  1  0.71615803  0.31023801  0.14193810  1
  Zr  Zr46  1  0.50457484  0.89545751  0.12188307  1
  Zr  Zr47  1  0.18860645  0.00690990  -0.00003395  1
  Zr  Zr48  1  -0.00375350  0.61248046  0.00200614  1
  Zr  Zr49  1  0.28530664  0.89236486  0.12300602  1
  Zr  Zr50  1  0.08468839  0.08070422  0.61791943  1
  Zr  Zr51  1  0.81201208  0.39379542  0.75214346  1
  Zr  Zr52  1  0.60469965  0.42451125  0.48005488  1
  Zr  Zr53  1  0.58006362  0.21294479  0.74464933  1
  Zr  Zr54  1  0.50374695  0.10510128  0.88264727  1
  Zr  Zr55  1  0.42286751  0.80089996  0.51694997  1
  Zr  Zr56  1  0.18280168  0.00378862  0.25998617  1
  Zr  Zr57  1  0.01220972  0.37796618  -0.00490760  1
  Zr  Zr58  1  0.69711768  0.10588303  0.13631008  1
  Zr  Zr59  1  0.40283121  0.80473394  0.74234557  1
  Zr  Zr60  1  0.87489759  0.48879563  0.10580657  1
  Zr  Zr61  1  0.22025657  0.79434422  0.27011415  1
  Zr  Zr62  1  0.79896014  -0.00151507  0.26400766  1
  Zr  Zr63  1  0.10241773  0.67618762  0.38459080  1
  Zr  Zr64  1  0.69501093  0.10542441  0.61143092  1
  Zr  Zr65  1  0.78320750  0.60403808  -0.00523596  1
  Zr  Zr66  1  0.88556633  0.68924834  0.38648179  1
  Zr  Zr67  1  0.09353172  0.48859721  0.12035898  1
  Zr  Zr68  1  0.77884367  0.80296080  0.49575865  1
  Zr  Zr69  1  0.88731662  0.10438907  0.60647889  1
  Zr  Zr70  1  0.12318563  0.49820497  0.87970912  1
  Zr  Zr71  1  0.01577369  0.18391640  0.26064563  1
  Zr  Zr72  1  -0.00226466  0.60575466  0.75380316  1
  Zr  Zr73  1  0.20477000  0.40067825  0.50508547  1
  Zr  Zr74  1  0.30186441  0.10221048  0.87517311  1
  Zr  Zr75  1  0.40150965  0.58812652  0.74940004  1
  Zr  Zr76  1  0.00139703  0.79769059  0.26549737  1
  Zr  Zr77  1  0.91419057  0.29374328  0.13673682  1
  Zr  Zr78  1  0.91361901  0.49741087  0.61494691  1
  Zr  Zr79  1  0.39443642  0.21219942  0.01773644  1
  Ta  Ta80  1  0.00462587  0.80229733  0.49573412  1
  Ta  Ta81  1  0.68758646  0.11272434  0.36871986  1
  Ta  Ta82  1  0.50011025  0.49704071  0.87750279  1
  Ta  Ta83  1  0.58925543  0.60376403  -0.00257167  1
  Ta  Ta84  1  0.59978125  0.60349775  0.74835828  1
  Ta  Ta85  1  0.90649787  0.30600228  0.37451135  1
  Ta  Ta86  1  0.90796812  0.28581322  0.87807279  1
  Ta  Ta87  1  0.20368235  0.79468450  0.49616512  1
  Ta  Ta88  1  -0.00662843  -0.01204822  0.27718239  1
  Ta  Ta89  1  0.59378192  0.79447914  0.24426596  1
  Ta  Ta90  1  0.09103350  0.69485336  0.61673527  1
  Ta  Ta91  1  0.19616828  0.59440120  0.73957653  1
  Ta  Ta92  1  0.80554149  0.80044440  0.74278287  1
  Ta  Ta93  1  0.39646219  0.00833207  0.74372547  1
  Ta  Ta94  1  0.11656299  0.27423115  0.12807606  1
  Ta  Ta95  1  0.07480131  0.91137367  0.13042293  1
  Ta  Ta96  1  0.71177356  0.89623080  0.11965112  1
  Ta  Ta97  1  0.79245699  0.00059414  0.47898464  1
  Ta  Ta98  1  0.71081273  0.31033909  0.36200866  1
  Ta  Ta99  1  0.69664794  0.70629173  0.86936745  1
  Ta  Ta100  1  0.50973296  0.29802751  0.34918017  1
  Ta  Ta101  1  0.21938086  0.39613497  0.01154274  1
  Ta  Ta102  1  0.60725245  0.40936025  0.75117802  1
  Ta  Ta103  1  0.90648583  0.90368001  0.61433833  1
  Ta  Ta104  1  0.29021205  0.89546227  0.87443825  1
  Ta  Ta105  1  0.50437664  0.88733797  0.36807381  1
  Ta  Ta106  1  0.50861269  0.30768107  0.88706344  1
  Ta  Ta107  1  0.81267800  0.42138362  0.25746029  1
  Ta  Ta108  1  0.47996711  0.11065455  0.61656933  1
  Ta  Ta109  1  0.60414637  0.42758456  0.25474696  1
  Ta  Ta110  1  0.49880276  0.69112231  0.12200374  1
  Ta  Ta111  1  0.80332219  -0.00722060  -0.00372837  1
  Ta  Ta112  1  0.00910538  0.39883324  0.50312359  1
  Ta  Ta113  1  0.41322621  0.59431338  0.49962513  1
  Ta  Ta114  1  0.89229930  0.70019207  0.60999095  1
  Ta  Ta115  1  0.50750274  0.69899608  0.87248949  1
  Ta  Ta116  1  0.20963932  0.60337381  0.00669830  1
  Ta  Ta117  1  0.31376999  0.89705371  0.38956689  1
  Ta  Ta118  1  -0.00826702  -0.00823031  0.47731486  1
  Ta  Ta119  1  0.08951111  0.10295216  0.86536895  1
  Ti  Ti120  1  0.01295941  0.39959859  0.75316675  1
  Ti  Ti121  1  -0.00085499  0.80530094  0.73538212  1
  Ti  Ti122  1  0.69989294  0.30362223  0.88166351  1
  Ti  Ti123  1  0.00891636  0.18298315  -0.00188263  1
  Ti  Ti124  1  0.20831357  0.40586912  0.74324934  1
  Ti  Ti125  1  0.30618599  0.49428743  0.62018670  1
  Ti  Ti126  1  0.70273496  0.90017047  0.62489676  1
  Ti  Ti127  1  0.18687234  0.80587398  -0.00300711  1
  Ti  Ti128  1  0.18995761  0.79746291  0.73989421  1
  Ti  Ti129  1  -0.00132316  -0.01109111  0.75738755  1
  Ti  Ti130  1  0.60629074  0.79511001  0.00311340  1
  Ti  Ti131  1  0.69383968  0.49851369  0.87394407  1
  Ti  Ti132  1  0.00164959  0.19505227  0.49224403  1
  Ti  Ti133  1  0.89108189  0.11233419  0.37878426  1
  Ti  Ti134  1  0.39817727  0.59366688  -0.00572734  1
  Ti  Ti135  1  0.29971801  0.90395590  0.61442254  1
  Ti  Ti136  1  0.70059562  0.10041504  0.88256210  1
  Ti  Ti137  1  0.10664085  0.29608529  0.86828590  1
  Ti  Ti138  1  0.30478500  0.70234189  0.12273939  1
  Ti  Ti139  1  0.60052582  -0.00699823  0.25012898  1
  Ti  Ti140  1  0.19643977  0.59258392  0.51172015  1
  Ti  Ti141  1  0.90675932  0.88158176  0.86914992  1
  Ti  Ti142  1  -0.00926932  0.80525277  0.00372074  1
  Ti  Ti143  1  0.89090935  0.71083078  0.13007990  1
  Ti  Ti144  1  0.18268913  -0.01678183  0.49336549  1
  Ti  Ti145  1  0.80544636  0.79886259  -0.00039981  1
  Ti  Ti146  1  0.60259800  0.79754105  0.73731795  1
  Ti  Ti147  1  0.60590130  0.63220567  0.51119953  1
  Ti  Ti148  1  0.89203769  0.29754439  0.59991706  1
  Ti  Ti149  1  0.50799175  0.69737865  0.37947354  1
  Ti  Ti150  1  0.60729310  0.00621276  0.01012435  1
  Ti  Ti151  1  0.09185259  0.48641163  0.36915568  1
  Ti  Ti152  1  0.50032859  0.10536094  0.14225832  1
  Ti  Ti153  1  0.69615348  0.69723264  0.12661552  1
  Ti  Ti154  1  0.19420670  0.20355105  -0.00509611  1
  Ti  Ti155  1  0.31091258  0.50738991  0.12343523  1
  Ti  Ti156  1  0.50904938  0.49903179  0.62365981  1
  Ti  Ti157  1  0.27950749  0.11815064  0.13294814  1
  Ti  Ti158  1  0.60313898  0.20245555  0.00643655  1
  Ti  Ti159  1  0.40984709  0.41058856  0.00942113  1
  Mo  Mo160  1  0.59842557  0.80517488  0.51251112  1
  Mo  Mo161  1  0.68356930  0.90721540  0.37056068  1
  Mo  Mo162  1  0.80251618  0.39827088  0.48953324  1
  Mo  Mo163  1  0.89686392  0.09405836  0.87443826  1
  Mo  Mo164  1  0.09524346  0.88650348  0.61500190  1
  Mo  Mo165  1  0.79538511  0.60505390  0.50714765  1
  Mo  Mo166  1  0.10590528  0.89194494  0.38193992  1
  Mo  Mo167  1  0.01006252  0.59758732  0.50683351  1
  Mo  Mo168  1  0.70264628  0.70786876  0.63810791  1
  Mo  Mo169  1  0.89607737  0.89219269  0.12465724  1
  Mo  Mo170  1  0.60276378  0.20131731  0.25591887  1
  Mo  Mo171  1  0.80109056  0.38764883  -0.01788611  1
  Mo  Mo172  1  0.40226067  0.19462862  0.75050771  1
  Mo  Mo173  1  0.39235106  0.19753812  0.23895913  1
  Mo  Mo174  1  0.88844417  0.71261825  0.87575336  1
  Mo  Mo175  1  0.00075276  0.39465414  0.25087217  1
  Mo  Mo176  1  0.40518169  0.79863929  0.25671490  1
  Mo  Mo177  1  0.31180619  0.69837714  0.39868102  1
  Mo  Mo178  1  0.79635262  0.20631032  0.47625527  1
  Mo  Mo179  1  0.09425320  0.09470993  0.12391128  1
  Mo  Mo180  1  0.39493198  -0.00661224  0.50008692  1
  Mo  Mo181  1  0.49763314  0.51105959  0.12100171  1
  Mo  Mo182  1  0.80495343  0.20677152  0.26718204  1
  Mo  Mo183  1  0.21178365  0.19408825  0.25177399  1
  Mo  Mo184  1  0.79180733  0.60669981  0.24038665  1
  Mo  Mo185  1  0.40774376  0.19641876  0.49207874  1
  Mo  Mo186  1  0.59678135  0.61229337  0.24715993  1
  Mo  Mo187  1  0.19110547  0.19766232  0.50895326  1
  Mo  Mo188  1  0.50043223  0.50984855  0.37618387  1
  Mo  Mo189  1  0.30123885  0.30671351  0.12327568  1
  Mo  Mo190  1  0.51205274  0.69130503  0.63250510  1
  Mo  Mo191  1  0.51166328  0.30813444  0.62245220  1
  Mo  Mo192  1  0.49998640  0.90992364  0.63763478  1
  Mo  Mo193  1  0.89399545  0.89645650  0.38510779  1
  Mo  Mo194  1  0.10104429  0.89447181  0.86961182  1
  Mo  Mo195  1  0.11082730  0.49842961  0.63375780  1
  Mo  Mo196  1  0.30385166  0.49768649  0.88159812  1
  Mo  Mo197  1  0.68689705  0.51830116  0.13808816  1
  Mo  Mo198  1  0.67806804  0.71996851  0.37403800  1
  Mo  Mo199  1  0.09487218  0.09722017  0.39099264  1
