# generated using pymatgen
data_HfZrTaTiMo
_symmetry_space_group_name_H-M   'P 1'
_cell_length_a   15.20922636
_cell_length_b   15.20879609
_cell_length_c   16.87153136
_cell_angle_alpha   90.00256690
_cell_angle_beta   90.00168688
_cell_angle_gamma   89.93646321
_symmetry_Int_Tables_number   1
_chemical_formula_structural   HfZrTaTiMo
_chemical_formula_sum   'Hf40 Zr40 Ta40 Ti40 Mo40'
_cell_volume   3902.61937837
_cell_formula_units_Z   40
loop_
 _symmetry_equiv_pos_site_id
 _symmetry_equiv_pos_as_xyz
  1  'x, y, z'
loop_
 _atom_site_type_symbol
 _atom_site_label
 _atom_site_symmetry_multiplicity
 _atom_site_fract_x
 _atom_site_fract_y
 _atom_site_fract_z
 _atom_site_occupancy
  Hf  Hf0  1  0.20194743  -0.01586303  0.23188943  1
  Hf  Hf1  1  0.29562775  0.30593575  0.12720707  1
  Hf  Hf2  1  0.19785960  -0.00680925  0.00490767  1
  Hf  Hf3  1  0.20959584  -0.00658490  0.50548613  1
  Hf  Hf4  1  0.41290757  0.38587171  0.49427561  1
  Hf  Hf5  1  -0.00999279  -0.00813316  0.76165066  1
  Hf  Hf6  1  0.79351535  0.61414024  0.23767834  1
  Hf  Hf7  1  0.00536712  0.58668019  -0.00703150  1
  Hf  Hf8  1  0.48554815  0.12156731  0.62246768  1
  Hf  Hf9  1  0.62003319  0.81260364  0.24559864  1
  Hf  Hf10  1  0.20620633  0.59885742  -0.00350621  1
  Hf  Hf11  1  0.69888739  0.50094416  0.87163238  1
  Hf  Hf12  1  0.87061957  0.09018578  0.87181442  1
  Hf  Hf13  1  0.20380211  0.40052414  0.50168937  1
  Hf  Hf14  1  0.29827531  0.10676193  0.88678371  1
  Hf  Hf15  1  0.80316453  0.38989106  0.00520983  1
  Hf  Hf16  1  0.29998039  0.50015331  0.36330817  1
  Hf  Hf17  1  0.20060427  0.20461437  0.75243965  1
  Hf  Hf18  1  0.89909340  0.70423225  0.88363026  1
  Hf  Hf19  1  0.08370424  0.09452134  0.11485649  1
  Hf  Hf20  1  -0.00706945  0.60222856  0.75370560  1
  Hf  Hf21  1  0.69286316  0.71018316  0.88380262  1
  Hf  Hf22  1  0.69962911  0.29293905  0.86506633  1
  Hf  Hf23  1  0.88091881  0.50489455  0.62302365  1
  Hf  Hf24  1  0.29217746  0.09358819  0.36952513  1
  Hf  Hf25  1  0.69416074  0.30723641  0.37258550  1
  Hf  Hf26  1  0.18826410  0.19915780  0.23860525  1
  Hf  Hf27  1  0.69746279  0.52060263  0.36402865  1
  Hf  Hf28  1  0.08696872  0.70079442  0.61383294  1
  Hf  Hf29  1  0.50693288  0.30551932  0.13501037  1
  Hf  Hf30  1  0.09736370  0.50260497  0.61854938  1
  Hf  Hf31  1  0.58939319  -0.01130260  0.52207282  1
  Hf  Hf32  1  0.48589383  0.51440249  0.13586803  1
  Hf  Hf33  1  0.90368597  0.10654802  0.61922896  1
  Hf  Hf34  1  0.71766992  0.88771278  0.38720762  1
  Hf  Hf35  1  0.59211859  0.18613573  0.26394765  1
  Hf  Hf36  1  0.60480517  0.80821855  0.73742067  1
  Hf  Hf37  1  0.79465922  0.59876717  0.00732291  1
  Hf  Hf38  1  0.90704803  0.48793255  0.12921521  1
  Hf  Hf39  1  0.31641216  0.09151090  0.11821361  1
  Zr  Zr40  1  0.20245294  -0.00452349  0.75749745  1
  Zr  Zr41  1  0.80985896  0.78983778  0.73699798  1
  Zr  Zr42  1  0.01170833  0.00246150  0.50036446  1
  Zr  Zr43  1  0.41962228  0.20605642  -0.00582505  1
  Zr  Zr44  1  -0.00344518  0.38575747  0.74407219  1
  Zr  Zr45  1  0.41131724  0.80354999  0.24765061  1
  Zr  Zr46  1  0.31170915  0.90471514  0.37246676  1
  Zr  Zr47  1  0.30642342  0.69086531  0.13103486  1
  Zr  Zr48  1  0.91487481  0.70522868  0.11900081  1
  Zr  Zr49  1  0.21335429  0.40652010  0.73515355  1
  Zr  Zr50  1  -0.00119371  0.39440057  0.48832301  1
  Zr  Zr51  1  0.31301554  0.70559762  0.37403119  1
  Zr  Zr52  1  0.10070997  0.10061347  0.63337384  1
  Zr  Zr53  1  0.68241401  0.49544694  0.13149938  1
  Zr  Zr54  1  -0.00672649  0.80310395  0.48575883  1
  Zr  Zr55  1  0.80461309  -0.01483667  0.51014716  1
  Zr  Zr56  1  0.10809659  0.88076072  0.88090567  1
  Zr  Zr57  1  0.79471218  0.18672551  0.25524456  1
  Zr  Zr58  1  0.50571466  0.71965326  0.10839952  1
  Zr  Zr59  1  0.00110328  0.38561972  0.26566614  1
  Zr  Zr60  1  0.29832773  0.69991306  0.87089835  1
  Zr  Zr61  1  0.51237153  0.90050868  0.37704911  1
  Zr  Zr62  1  0.31714267  0.89159184  0.88307826  1
  Zr  Zr63  1  0.10881386  0.28997156  0.89572436  1
  Zr  Zr64  1  0.39406633  0.41476536  -0.00336213  1
  Zr  Zr65  1  -0.02223232  0.19127297  -0.00627135  1
  Zr  Zr66  1  0.31639196  0.28765486  0.62149024  1
  Zr  Zr67  1  0.00366068  0.59891034  0.27114512  1
  Zr  Zr68  1  0.29799436  0.29148716  0.37228899  1
  Zr  Zr69  1  0.51581190  0.93563664  0.12902512  1
  Zr  Zr70  1  0.10892807  0.50023248  0.13336256  1
  Zr  Zr71  1  0.71991585  0.91138324  0.86699576  1
  Zr  Zr72  1  0.59233874  0.39068324  -0.00910355  1
  Zr  Zr73  1  0.69393976  0.31927331  0.63065187  1
  Zr  Zr74  1  0.01692409  0.80028818  0.25490707  1
  Zr  Zr75  1  0.40467245  0.59290610  0.50460288  1
  Zr  Zr76  1  0.79332156  0.40868069  0.49279486  1
  Zr  Zr77  1  0.49997345  0.69392674  0.62818220  1
  Zr  Zr78  1  0.69889117  0.12036918  0.61367652  1
  Zr  Zr79  1  0.10404631  0.49218149  0.86877364  1
  Ta  Ta80  1  0.80935575  0.80783158  0.24130337  1
  Ta  Ta81  1  0.08860396  0.30124327  0.11030325  1
  Ta  Ta82  1  0.59529245  0.41843644  0.49903479  1
  Ta  Ta83  1  0.79872634  0.39429197  0.24968832  1
  Ta  Ta84  1  0.39169675  0.58862256  0.74193945  1
  Ta  Ta85  1  0.48722583  0.10043847  0.39269080  1
  Ta  Ta86  1  0.19216069  0.60151609  0.48792372  1
  Ta  Ta87  1  0.09040306  0.08759777  0.36374839  1
  Ta  Ta88  1  0.80119627  0.20475609  0.74744424  1
  Ta  Ta89  1  0.78701344  -0.00182887  0.01122253  1
  Ta  Ta90  1  -0.02019565  -0.01921362  -0.00777195  1
  Ta  Ta91  1  0.91228383  0.91976005  0.35724229  1
  Ta  Ta92  1  0.50387318  0.50544678  0.36500323  1
  Ta  Ta93  1  0.77207486  0.18796913  0.00552795  1
  Ta  Ta94  1  0.89634183  0.28874073  0.12449232  1
  Ta  Ta95  1  0.40427401  0.60596282  -0.01022155  1
  Ta  Ta96  1  0.89287900  0.48921257  0.87198234  1
  Ta  Ta97  1  0.50385847  0.48621532  0.63395500  1
  Ta  Ta98  1  0.89607799  0.11101512  0.38664884  1
  Ta  Ta99  1  0.59824372  0.00821552  0.73331610  1
  Ta  Ta100  1  0.20451420  0.79836908  0.50360591  1
  Ta  Ta101  1  -0.00878603  0.19185627  0.24707945  1
  Ta  Ta102  1  0.10588231  0.89446532  0.63104406  1
  Ta  Ta103  1  0.69694085  0.28817286  0.13314318  1
  Ta  Ta104  1  0.91378833  0.88742568  0.62778180  1
  Ta  Ta105  1  0.40805738  0.81210429  0.51162918  1
  Ta  Ta106  1  0.00921160  0.79424773  0.75495153  1
  Ta  Ta107  1  0.87468109  0.71065373  0.37550059  1
  Ta  Ta108  1  0.58717982  0.62239708  0.25307174  1
  Ta  Ta109  1  0.51782022  0.91071832  0.87296154  1
  Ta  Ta110  1  0.39990593  0.19283371  0.24994373  1
  Ta  Ta111  1  0.18872058  0.19298888  0.49834718  1
  Ta  Ta112  1  0.59001892  0.60265895  -0.00856629  1
  Ta  Ta113  1  0.89362464  0.29267260  0.61917319  1
  Ta  Ta114  1  0.11461626  0.89723368  0.36787515  1
  Ta  Ta115  1  0.58163406  0.22411162  0.49229333  1
  Ta  Ta116  1  -0.01299679  0.59967962  0.48197318  1
  Ta  Ta117  1  0.40692926  0.00380277  0.75298731  1
  Ta  Ta118  1  0.20309982  0.79001177  0.74008186  1
  Ta  Ta119  1  -0.00544406  0.19488803  0.76186638  1
  Ti  Ti120  1  0.19890154  0.40141350  0.00458605  1
  Ti  Ti121  1  0.09074460  0.28012520  0.38012038  1
  Ti  Ti122  1  0.90897700  0.91027916  0.13531060  1
  Ti  Ti123  1  0.09039257  0.28896985  0.61805644  1
  Ti  Ti124  1  0.59755212  0.40206267  0.75483848  1
  Ti  Ti125  1  0.49360206  0.50407113  0.86555190  1
  Ti  Ti126  1  0.30138380  0.49842741  0.86792382  1
  Ti  Ti127  1  0.09323191  0.09532181  0.88680920  1
  Ti  Ti128  1  0.31044626  0.88236514  0.10717437  1
  Ti  Ti129  1  0.30734280  0.89810312  0.62957419  1
  Ti  Ti130  1  0.40233827  0.79972628  0.74311392  1
  Ti  Ti131  1  0.29400560  0.69415980  0.62016641  1
  Ti  Ti132  1  0.30648427  0.30471695  0.87744406  1
  Ti  Ti133  1  0.40961602  0.39597361  0.25930029  1
  Ti  Ti134  1  0.49567838  0.71140552  0.87362433  1
  Ti  Ti135  1  0.40784524  0.38681937  0.75208073  1
  Ti  Ti136  1  0.69936524  0.71448659  0.11077707  1
  Ti  Ti137  1  0.61064334  0.83062031  0.00049637  1
  Ti  Ti138  1  0.81553997  0.81550831  0.00910380  1
  Ti  Ti139  1  0.79012417  0.59607413  0.74961397  1
  Ti  Ti140  1  0.42498097  0.00195324  -0.00874573  1
  Ti  Ti141  1  0.59432893  0.60367785  0.75384360  1
  Ti  Ti142  1  0.29739179  0.50236594  0.14524717  1
  Ti  Ti143  1  0.88368799  0.09332079  0.12483022  1
  Ti  Ti144  1  0.67501714  0.10048727  0.86596059  1
  Ti  Ti145  1  0.19345607  0.61578368  0.26773504  1
  Ti  Ti146  1  0.19813232  0.60386256  0.74418915  1
  Ti  Ti147  1  0.78532033  -0.00159470  0.24881831  1
  Ti  Ti148  1  0.60625604  0.79292422  0.51655361  1
  Ti  Ti149  1  0.19056620  0.39809140  0.25739636  1
  Ti  Ti150  1  0.89641024  0.30025401  0.87528766  1
  Ti  Ti151  1  0.79260103  -0.00304621  0.72734759  1
  Ti  Ti152  1  0.61471300  0.60492779  0.50293978  1
  Ti  Ti153  1  0.79448051  0.77729345  0.52457286  1
  Ti  Ti154  1  0.69358945  0.09377557  0.39667943  1
  Ti  Ti155  1  0.89062491  0.49985018  0.37096711  1
  Ti  Ti156  1  0.01505841  0.79118477  -0.00330520  1
  Ti  Ti157  1  0.11512543  0.70111776  0.12546195  1
  Ti  Ti158  1  0.29965766  0.09551294  0.62583368  1
  Ti  Ti159  1  0.10073690  0.88751584  0.11700520  1
  Mo  Mo160  1  0.89444480  0.29513700  0.37224863  1
  Mo  Mo161  1  0.10444219  0.49845938  0.37930640  1
  Mo  Mo162  1  0.79940285  0.60566831  0.49631737  1
  Mo  Mo163  1  0.50093794  0.09945430  0.86270908  1
  Mo  Mo164  1  0.61276010  0.00960702  0.26671512  1
  Mo  Mo165  1  0.60164730  0.40608310  0.25110025  1
  Mo  Mo166  1  0.49788314  0.30448002  0.36676777  1
  Mo  Mo167  1  0.69281103  0.71061420  0.37824286  1
  Mo  Mo168  1  0.60781026  0.02303235  -0.00524810  1
  Mo  Mo169  1  0.59068596  0.20542169  0.74833835  1
  Mo  Mo170  1  0.41743867  0.80617530  -0.00686500  1
  Mo  Mo171  1  0.30502523  0.50704463  0.62218860  1
  Mo  Mo172  1  0.50666697  0.11274646  0.12777318  1
  Mo  Mo173  1  0.40483917  0.60036041  0.25759436  1
  Mo  Mo174  1  0.89889765  0.89527939  0.87833553  1
  Mo  Mo175  1  0.39924228  0.19902594  0.76461896  1
  Mo  Mo176  1  0.20492539  0.79193436  0.00904242  1
  Mo  Mo177  1  0.90604960  0.69290231  0.62175115  1
  Mo  Mo178  1  0.20334107  0.80103149  0.24098939  1
  Mo  Mo179  1  0.70252466  0.68234057  0.63017647  1
  Mo  Mo180  1  0.51994408  0.69876817  0.38744515  1
  Mo  Mo181  1  0.68579480  0.51156626  0.63446265  1
  Mo  Mo182  1  0.68393754  0.09185906  0.12950057  1
  Mo  Mo183  1  -0.00704835  0.39542203  0.00015931  1
  Mo  Mo184  1  0.71369490  0.90454224  0.12445798  1
  Mo  Mo185  1  -0.00790739  0.00773891  0.24596084  1
  Mo  Mo186  1  0.39617736  -0.00171028  0.51124938  1
  Mo  Mo187  1  0.60045456  0.19729606  -0.00139366  1
  Mo  Mo188  1  0.20091477  0.20265158  0.01274365  1
  Mo  Mo189  1  0.49155674  0.90374889  0.63453270  1
  Mo  Mo190  1  0.41603258  0.01748439  0.25232692  1
  Mo  Mo191  1  0.38972082  0.19305224  0.49530237  1
  Mo  Mo192  1  0.10335087  0.69485658  0.86967481  1
  Mo  Mo193  1  0.49948020  0.29893230  0.86035255  1
  Mo  Mo194  1  0.70299895  0.89628303  0.62787966  1
  Mo  Mo195  1  0.79621210  0.20571355  0.49329041  1
  Mo  Mo196  1  -0.00145965  0.20168144  0.49439987  1
  Mo  Mo197  1  0.10256161  0.70425381  0.38646884  1
  Mo  Mo198  1  0.50692116  0.30165208  0.63140341  1
  Mo  Mo199  1  0.80401110  0.40103943  0.75328419  1
