# generated using pymatgen
data_HfZrTaTiMo
_symmetry_space_group_name_H-M   'P 1'
_cell_length_a   15.21577190
_cell_length_b   15.21633725
_cell_length_c   16.81587178
_cell_angle_alpha   90.02793769
_cell_angle_beta   89.97828684
_cell_angle_gamma   90.03383151
_symmetry_Int_Tables_number   1
_chemical_formula_structural   HfZrTaTiMo
_chemical_formula_sum   'Hf40 Zr40 Ta40 Ti40 Mo40'
_cell_volume   3893.34906810
_cell_formula_units_Z   40
loop_
 _symmetry_equiv_pos_site_id
 _symmetry_equiv_pos_as_xyz
  1  'x, y, z'
loop_
 _atom_site_type_symbol
 _atom_site_label
 _atom_site_symmetry_multiplicity
 _atom_site_fract_x
 _atom_site_fract_y
 _atom_site_fract_z
 _atom_site_occupancy
  Hf  Hf0  1  0.38577844  0.80966137  0.74738706  1
  Hf  Hf1  1  0.29099705  0.68705406  0.35595241  1
  Hf  Hf2  1  0.40280751  0.20291186  0.51106869  1
  Hf  Hf3  1  0.70525827  0.11111259  0.11215294  1
  Hf  Hf4  1  -0.00789236  0.60189583  0.50135782  1
  Hf  Hf5  1  0.70248225  0.90551418  0.36713961  1
  Hf  Hf6  1  0.09067127  0.88704839  0.88086257  1
  Hf  Hf7  1  -0.00250697  0.39245180  0.76526596  1
  Hf  Hf8  1  0.48701018  0.91362138  0.87494184  1
  Hf  Hf9  1  0.00984235  0.00981301  0.75097707  1
  Hf  Hf10  1  0.39256909  0.58722759  0.49347203  1
  Hf  Hf11  1  0.10402209  0.28920611  0.62384442  1
  Hf  Hf12  1  0.00268890  0.60612155  -0.00300617  1
  Hf  Hf13  1  0.19758022  -0.00983346  0.26697858  1
  Hf  Hf14  1  0.19746048  0.39985451  -0.00691563  1
  Hf  Hf15  1  0.30557116  0.31083631  0.63723605  1
  Hf  Hf16  1  0.10114878  0.29340608  0.11956881  1
  Hf  Hf17  1  0.91523165  0.11078026  0.89888725  1
  Hf  Hf18  1  0.88536804  0.49834647  0.87628201  1
  Hf  Hf19  1  0.79086233  0.79797851  0.49825977  1
  Hf  Hf20  1  0.91143240  0.11295701  0.11163026  1
  Hf  Hf21  1  0.29868304  0.50192053  0.12091887  1
  Hf  Hf22  1  0.59673030  0.60039172  0.50349317  1
  Hf  Hf23  1  0.62202692  0.20910253  0.74857305  1
  Hf  Hf24  1  0.19041594  0.79209233  0.49577731  1
  Hf  Hf25  1  0.60145339  0.41273327  0.00226632  1
  Hf  Hf26  1  0.00265561  0.60116556  0.75928279  1
  Hf  Hf27  1  0.40545599  0.41327320  0.25550306  1
  Hf  Hf28  1  0.29964887  0.69740644  0.13186153  1
  Hf  Hf29  1  0.79073295  0.39025680  0.74754245  1
  Hf  Hf30  1  0.59546116  0.59865674  0.74775039  1
  Hf  Hf31  1  0.40826041  0.61150094  -0.01122247  1
  Hf  Hf32  1  0.10137434  0.90964272  0.61813590  1
  Hf  Hf33  1  0.70043726  0.50025457  0.62652729  1
  Hf  Hf34  1  0.89229042  0.31505895  0.11912665  1
  Hf  Hf35  1  0.90348681  0.50434449  0.36822048  1
  Hf  Hf36  1  0.81555138  -0.00083950  0.75927893  1
  Hf  Hf37  1  0.38271987  0.79417954  0.50729113  1
  Hf  Hf38  1  0.09231297  0.48931280  0.62578785  1
  Hf  Hf39  1  0.79811803  0.78320155  0.01234967  1
  Zr  Zr40  1  0.30841384  0.49043103  0.87204048  1
  Zr  Zr41  1  0.59840349  0.19947849  0.24400117  1
  Zr  Zr42  1  0.90817143  0.30538628  0.62051614  1
  Zr  Zr43  1  0.87825597  0.70170464  0.63826301  1
  Zr  Zr44  1  0.59516479  0.00947268  0.74887500  1
  Zr  Zr45  1  0.69737461  0.49493628  0.36560491  1
  Zr  Zr46  1  0.00588364  -0.00460423  0.24956656  1
  Zr  Zr47  1  0.41773469  0.19261963  0.74592493  1
  Zr  Zr48  1  0.18928483  0.19011302  0.48875976  1
  Zr  Zr49  1  0.89623973  0.09513139  0.38092818  1
  Zr  Zr50  1  0.80541755  0.00663376  0.23885968  1
  Zr  Zr51  1  0.31795022  0.09732983  0.36918259  1
  Zr  Zr52  1  0.60427149  0.39349497  0.24883944  1
  Zr  Zr53  1  0.11633563  0.08784337  0.89153579  1
  Zr  Zr54  1  0.19554373  0.60034507  0.50166253  1
  Zr  Zr55  1  0.80233991  0.40042452  0.49645709  1
  Zr  Zr56  1  -0.00097621  0.79995869  0.24246432  1
  Zr  Zr57  1  0.90148363  0.71226277  0.87097771  1
  Zr  Zr58  1  0.21479515  -0.01327454  0.48184516  1
  Zr  Zr59  1  0.59506469  -0.00051216  0.24092021  1
  Zr  Zr60  1  0.89465332  0.92104503  0.60622646  1
  Zr  Zr61  1  0.50296311  0.90223272  0.62680377  1
  Zr  Zr62  1  0.22241974  0.19408638  -0.00249412  1
  Zr  Zr63  1  0.48613752  0.48917863  0.63071937  1
  Zr  Zr64  1  0.80305104  0.20158902  0.49939973  1
  Zr  Zr65  1  0.72398344  0.09426735  0.62605011  1
  Zr  Zr66  1  0.48702764  0.89968601  0.37944083  1
  Zr  Zr67  1  0.69701486  0.69501742  0.35808154  1
  Zr  Zr68  1  0.29043718  0.50401199  0.64148445  1
  Zr  Zr69  1  0.69331299  0.89566424  0.12142453  1
  Zr  Zr70  1  0.30261080  0.30506334  0.37055490  1
  Zr  Zr71  1  0.70664612  0.69223098  0.85898762  1
  Zr  Zr72  1  0.19411220  0.79311547  0.75027102  1
  Zr  Zr73  1  0.70575593  0.10233580  0.88467463  1
  Zr  Zr74  1  0.40393586  -0.00259025  0.24131844  1
  Zr  Zr75  1  0.59298648  0.79503486  0.49919198  1
  Zr  Zr76  1  0.69682205  0.89042955  0.87514458  1
  Zr  Zr77  1  -0.00156157  0.20445874  0.25916599  1
  Zr  Zr78  1  0.50974117  0.52514697  0.12823025  1
  Zr  Zr79  1  0.58257999  0.79008919  0.00558556  1
  Ta  Ta80  1  0.68706981  0.68170457  0.14021774  1
  Ta  Ta81  1  0.61184812  0.00467527  0.50601807  1
  Ta  Ta82  1  0.72474972  0.49514228  0.14105095  1
  Ta  Ta83  1  0.80214371  -0.00483223  0.00515819  1
  Ta  Ta84  1  0.19937780  0.60549359  -0.01716160  1
  Ta  Ta85  1  0.90085146  0.90349370  0.89151812  1
  Ta  Ta86  1  0.19320699  0.60162341  0.77267960  1
  Ta  Ta87  1  0.39164448  0.00940405  0.00706433  1
  Ta  Ta88  1  0.30639717  0.29734957  0.13377148  1
  Ta  Ta89  1  0.48888330  0.69621086  0.63415152  1
  Ta  Ta90  1  0.89456842  0.70209126  0.36746364  1
  Ta  Ta91  1  0.18665157  0.79448687  0.00200669  1
  Ta  Ta92  1  0.28249755  0.90380669  0.12009066  1
  Ta  Ta93  1  0.79931912  0.79723103  0.24017186  1
  Ta  Ta94  1  0.11700879  0.08684195  0.11917279  1
  Ta  Ta95  1  0.20261654  0.39934205  0.49181237  1
  Ta  Ta96  1  0.19939145  0.18942478  0.75476105  1
  Ta  Ta97  1  0.38925646  0.61226098  0.76092783  1
  Ta  Ta98  1  0.50724822  0.30097596  0.38463442  1
  Ta  Ta99  1  0.69814866  0.10617899  0.37556993  1
  Ta  Ta100  1  0.60722921  0.20307022  0.50891281  1
  Ta  Ta101  1  0.29276245  0.09454018  0.62474776  1
  Ta  Ta102  1  0.51026128  0.10346227  0.38639469  1
  Ta  Ta103  1  0.09379335  0.28971379  0.88419845  1
  Ta  Ta104  1  0.19646352  0.40297804  0.24777384  1
  Ta  Ta105  1  0.30215722  0.10547624  0.13402545  1
  Ta  Ta106  1  0.51199690  0.30264098  0.62352663  1
  Ta  Ta107  1  -0.01234255  0.81288247  0.74417469  1
  Ta  Ta108  1  0.59366353  0.20736577  -0.00468081  1
  Ta  Ta109  1  0.58291429  0.79294533  0.24138269  1
  Ta  Ta110  1  0.10872852  0.50353771  0.36797412  1
  Ta  Ta111  1  0.71485906  0.30632209  0.89200458  1
  Ta  Ta112  1  0.21178862  -0.00523484  0.74714086  1
  Ta  Ta113  1  0.00695821  0.19796614  0.75501972  1
  Ta  Ta114  1  0.09740556  0.50293544  0.12247030  1
  Ta  Ta115  1  0.70337278  0.30281847  0.11146326  1
  Ta  Ta116  1  0.58744123  0.00661485  0.00126184  1
  Ta  Ta117  1  0.09472481  0.69667245  0.63141704  1
  Ta  Ta118  1  0.30575695  0.29224794  0.86230555  1
  Ta  Ta119  1  0.00185060  0.40433475  0.24929228  1
  Ti  Ti120  1  0.93322257  0.11092238  0.60961935  1
  Ti  Ti121  1  0.48398832  0.89502276  0.11599886  1
  Ti  Ti122  1  0.00349496  0.59837306  0.24274190  1
  Ti  Ti123  1  0.59547860  0.39708071  0.49636907  1
  Ti  Ti124  1  0.79337798  0.60436890  0.50113974  1
  Ti  Ti125  1  0.40721991  0.00104542  0.51180310  1
  Ti  Ti126  1  0.39237053  0.80116181  0.24607397  1
  Ti  Ti127  1  0.40028439  0.39128948  -0.00008123  1
  Ti  Ti128  1  0.50246643  0.49951131  0.87117062  1
  Ti  Ti129  1  0.49914877  0.71115617  0.86343273  1
  Ti  Ti130  1  0.01999052  0.01214328  0.48311082  1
  Ti  Ti131  1  0.40884246  0.20171778  -0.00576955  1
  Ti  Ti132  1  0.60893733  0.60568969  -0.00495931  1
  Ti  Ti133  1  0.90129500  0.89495603  0.38067802  1
  Ti  Ti134  1  0.49674928  0.30318386  0.11898184  1
  Ti  Ti135  1  0.50151276  0.30384283  0.87497146  1
  Ti  Ti136  1  0.90507138  0.89417993  0.11547602  1
  Ti  Ti137  1  0.79609328  0.58472705  0.01007588  1
  Ti  Ti138  1  -0.00319696  0.79739222  0.49863898  1
  Ti  Ti139  1  0.19047257  0.39504035  0.76643580  1
  Ti  Ti140  1  0.19074718  0.80177494  0.25330769  1
  Ti  Ti141  1  0.01498443  -0.01437281  0.01475341  1
  Ti  Ti142  1  0.49348413  0.68445006  0.36207971  1
  Ti  Ti143  1  -0.00742259  0.40237892  -0.00718355  1
  Ti  Ti144  1  0.31887353  0.09255317  0.87032461  1
  Ti  Ti145  1  0.39596106  0.00609414  0.73744070  1
  Ti  Ti146  1  0.00502619  0.22491623  0.47251002  1
  Ti  Ti147  1  0.82134946  0.20214216  0.75441562  1
  Ti  Ti148  1  0.10206404  0.69933909  0.12575749  1
  Ti  Ti149  1  0.38401817  0.80394604  -0.00232737  1
  Ti  Ti150  1  0.59518310  0.39485805  0.75580811  1
  Ti  Ti151  1  0.28875996  0.90493389  0.88510530  1
  Ti  Ti152  1  0.69641710  0.49905602  0.87089045  1
  Ti  Ti153  1  0.40843620  0.20523208  0.24973557  1
  Ti  Ti154  1  0.89371793  0.68255409  0.13147320  1
  Ti  Ti155  1  0.08678251  0.69817489  0.36705803  1
  Ti  Ti156  1  0.70368412  0.88571031  0.63664919  1
  Ti  Ti157  1  0.49596272  0.10823767  0.11697751  1
  Ti  Ti158  1  0.89913314  0.50304908  0.62886697  1
  Ti  Ti159  1  0.19637784  0.19842084  0.25599668  1
  Mo  Mo160  1  0.59257874  0.79799745  0.74490298  1
  Mo  Mo161  1  0.59229121  0.59721086  0.25340377  1
  Mo  Mo162  1  0.10132442  0.10354363  0.36999747  1
  Mo  Mo163  1  0.10494014  0.10029427  0.62605236  1
  Mo  Mo164  1  0.40895662  0.39727564  0.76134428  1
  Mo  Mo165  1  0.10302565  0.89326773  0.12196799  1
  Mo  Mo166  1  0.29533157  0.49670574  0.36929765  1
  Mo  Mo167  1  0.80878984  0.38832468  0.25507385  1
  Mo  Mo168  1  0.90074098  0.29645759  0.88553732  1
  Mo  Mo169  1  0.09951552  0.31335255  0.36850735  1
  Mo  Mo170  1  0.69743630  0.28914517  0.37518306  1
  Mo  Mo171  1  0.01392719  0.40513126  0.48725768  1
  Mo  Mo172  1  0.91141134  0.50259513  0.12645600  1
  Mo  Mo173  1  0.18645998  0.59444381  0.24306739  1
  Mo  Mo174  1  0.79748612  0.59278578  0.74688885  1
  Mo  Mo175  1  0.21155214  -0.00943375  0.00131217  1
  Mo  Mo176  1  0.29709915  0.90368983  0.62578760  1
  Mo  Mo177  1  0.01430226  0.20563648  0.00919263  1
  Mo  Mo178  1  0.79252473  0.21517948  0.25526020  1
  Mo  Mo179  1  0.09723901  0.49487968  0.88203787  1
  Mo  Mo180  1  0.49300574  0.70852524  0.12763326  1
  Mo  Mo181  1  0.80039356  -0.00447353  0.49402596  1
  Mo  Mo182  1  0.69468864  0.30468398  0.62741640  1
  Mo  Mo183  1  0.79703213  0.41211738  -0.00043184  1
  Mo  Mo184  1  0.80305679  0.20734924  -0.00196871  1
  Mo  Mo185  1  0.30048364  0.88320281  0.36972497  1
  Mo  Mo186  1  0.89364659  0.30917568  0.36631560  1
  Mo  Mo187  1  0.39916967  0.60431512  0.25412768  1
  Mo  Mo188  1  -0.00558212  0.79604502  0.01686427  1
  Mo  Mo189  1  0.29430002  0.69432613  0.63172318  1
  Mo  Mo190  1  0.49793161  0.10735729  0.88437024  1
  Mo  Mo191  1  0.08751347  0.88846072  0.38267416  1
  Mo  Mo192  1  0.40211721  0.39758355  0.49416863  1
  Mo  Mo193  1  0.50588376  0.10270989  0.61338460  1
  Mo  Mo194  1  0.09762136  0.70199940  0.87710398  1
  Mo  Mo195  1  0.68503766  0.70591405  0.63821033  1
  Mo  Mo196  1  0.49386994  0.49550320  0.38204333  1
  Mo  Mo197  1  0.30045406  0.71102995  0.88450477  1
  Mo  Mo198  1  0.80913515  0.59963856  0.24463442  1
  Mo  Mo199  1  0.80030158  0.81071396  0.74821947  1
