# generated using pymatgen
data_HfZrTaTiMo
_symmetry_space_group_name_H-M   'P 1'
_cell_length_a   15.22089755
_cell_length_b   15.22262522
_cell_length_c   16.82022931
_cell_angle_alpha   90.04621520
_cell_angle_beta   90.01990671
_cell_angle_gamma   89.97358603
_symmetry_Int_Tables_number   1
_chemical_formula_structural   HfZrTaTiMo
_chemical_formula_sum   'Hf40 Zr40 Ta40 Ti40 Mo40'
_cell_volume   3897.27917321
_cell_formula_units_Z   40
loop_
 _symmetry_equiv_pos_site_id
 _symmetry_equiv_pos_as_xyz
  1  'x, y, z'
loop_
 _atom_site_type_symbol
 _atom_site_label
 _atom_site_symmetry_multiplicity
 _atom_site_fract_x
 _atom_site_fract_y
 _atom_site_fract_z
 _atom_site_occupancy
  Hf  Hf0  1  0.80108328  0.60927362  0.26703640  1
  Hf  Hf1  1  0.09308239  0.90208277  0.62760627  1
  Hf  Hf2  1  0.90808479  0.51683877  0.63463759  1
  Hf  Hf3  1  0.11316868  0.49849150  0.61805422  1
  Hf  Hf4  1  0.40365538  0.00213393  0.51001278  1
  Hf  Hf5  1  0.50413381  0.70039208  0.11093227  1
  Hf  Hf6  1  0.19477368  0.01433067  0.50315231  1
  Hf  Hf7  1  0.00063919  0.39524574  0.25996506  1
  Hf  Hf8  1  0.88847679  0.29934727  0.62952322  1
  Hf  Hf9  1  0.48633899  0.90620427  0.10526588  1
  Hf  Hf10  1  0.10195121  0.28414971  0.63158854  1
  Hf  Hf11  1  0.69479223  0.89124721  0.11931467  1
  Hf  Hf12  1  0.29339364  0.31064005  0.62733866  1
  Hf  Hf13  1  0.00101297  0.60041655  0.24620705  1
  Hf  Hf14  1  0.50918887  0.49888419  0.61488293  1
  Hf  Hf15  1  0.80335174  -0.00002750  -0.00632390  1
  Hf  Hf16  1  0.79971115  0.40436592  0.26635103  1
  Hf  Hf17  1  0.27085876  0.10824203  0.64778323  1
  Hf  Hf18  1  0.60819706  0.38832476  0.74505125  1
  Hf  Hf19  1  0.69360250  0.29608672  0.12140962  1
  Hf  Hf20  1  -0.00945720  0.39973383  -0.01235273  1
  Hf  Hf21  1  -0.00087352  0.39785222  0.50563940  1
  Hf  Hf22  1  0.39921447  0.79428103  0.75942354  1
  Hf  Hf23  1  0.60488597  0.00987237  0.75011671  1
  Hf  Hf24  1  0.89513061  0.28986695  0.85278419  1
  Hf  Hf25  1  0.89258115  0.09501843  0.38055119  1
  Hf  Hf26  1  0.29841314  0.70191451  0.38104077  1
  Hf  Hf27  1  0.70218400  0.90887144  0.36941051  1
  Hf  Hf28  1  0.90622346  0.10750133  0.11401307  1
  Hf  Hf29  1  0.30564167  0.50405723  0.11988377  1
  Hf  Hf30  1  0.30299480  0.49867714  0.39061582  1
  Hf  Hf31  1  0.39648674  -0.00237160  0.24429073  1
  Hf  Hf32  1  0.29322183  0.29727473  0.38536396  1
  Hf  Hf33  1  0.40296563  0.60507556  0.75225714  1
  Hf  Hf34  1  0.40295911  0.40805876  0.74526256  1
  Hf  Hf35  1  0.00194572  0.00054151  0.23734623  1
  Hf  Hf36  1  0.29847384  0.10005505  0.37005412  1
  Hf  Hf37  1  0.19623968  0.39207058  -0.00994798  1
  Hf  Hf38  1  0.30107057  0.28780263  0.12103990  1
  Hf  Hf39  1  0.29596340  0.90288548  0.63504534  1
  Zr  Zr40  1  0.80230352  0.58652225  -0.00783576  1
  Zr  Zr41  1  0.88619578  0.89903119  0.63359473  1
  Zr  Zr42  1  0.40533419  0.80524554  0.50803697  1
  Zr  Zr43  1  0.90620159  0.88770392  0.87962040  1
  Zr  Zr44  1  0.50869704  0.50540622  0.87620379  1
  Zr  Zr45  1  0.39647488  0.79155632  0.24123501  1
  Zr  Zr46  1  0.80339482  0.00790589  0.75460986  1
  Zr  Zr47  1  0.09559808  0.49512409  0.11390865  1
  Zr  Zr48  1  0.59090324  0.01089703  -0.00871394  1
  Zr  Zr49  1  0.29162708  0.90657082  0.89449045  1
  Zr  Zr50  1  0.10388030  0.90164681  0.37109678  1
  Zr  Zr51  1  0.49811441  0.12412322  0.12252997  1
  Zr  Zr52  1  0.19785602  0.39592757  0.25139058  1
  Zr  Zr53  1  0.71034293  0.49943866  0.62517543  1
  Zr  Zr54  1  0.20241707  0.80766509  0.22720841  1
  Zr  Zr55  1  0.20727291  0.60554413  0.24317180  1
  Zr  Zr56  1  0.60389162  0.59575100  0.26381843  1
  Zr  Zr57  1  0.90713204  0.89291909  0.37126555  1
  Zr  Zr58  1  0.19952621  0.60973364  0.75781611  1
  Zr  Zr59  1  0.80008222  0.20164997  0.25509908  1
  Zr  Zr60  1  0.79230540  0.81471858  0.50147019  1
  Zr  Zr61  1  0.10182734  0.71383799  0.89798820  1
  Zr  Zr62  1  0.51210877  0.28886903  0.87798093  1
  Zr  Zr63  1  0.50440681  0.49827733  0.12307837  1
  Zr  Zr64  1  0.59850071  0.39223284  0.25544818  1
  Zr  Zr65  1  0.60448981  0.79681438  0.25188826  1
  Zr  Zr66  1  0.60892224  -0.00835254  0.51260962  1
  Zr  Zr67  1  0.79999747  0.39207137  -0.00820598  1
  Zr  Zr68  1  0.70184561  0.10264998  0.11856945  1
  Zr  Zr69  1  0.60423389  0.40626939  -0.00067210  1
  Zr  Zr70  1  0.90744421  0.68370342  0.87415422  1
  Zr  Zr71  1  0.39832094  0.00039320  0.75536867  1
  Zr  Zr72  1  0.30592285  0.29537270  0.86555089  1
  Zr  Zr73  1  0.09501647  0.10538705  0.37099012  1
  Zr  Zr74  1  0.80960962  0.61799244  0.49094749  1
  Zr  Zr75  1  0.69320645  0.89103854  0.87653633  1
  Zr  Zr76  1  0.19267420  0.80060572  0.50459307  1
  Zr  Zr77  1  0.39211821  0.19242134  0.51464522  1
  Zr  Zr78  1  0.08449279  0.69605344  0.37965110  1
  Zr  Zr79  1  0.19363724  0.80818883  0.75850432  1
  Ta  Ta80  1  0.69801179  0.10271270  0.38148364  1
  Ta  Ta81  1  0.50267081  0.09620361  0.37375446  1
  Ta  Ta82  1  0.59776886  0.00608544  0.24982143  1
  Ta  Ta83  1  0.50956129  0.71143221  0.88603803  1
  Ta  Ta84  1  0.68803072  0.29149688  0.61041076  1
  Ta  Ta85  1  -0.00391030  0.78514067  0.74583213  1
  Ta  Ta86  1  -0.00066172  0.79709402  0.22828238  1
  Ta  Ta87  1  0.40281099  0.39642165  0.25393510  1
  Ta  Ta88  1  0.09710579  0.70089054  0.10493252  1
  Ta  Ta89  1  0.50264542  0.69755632  0.38212235  1
  Ta  Ta90  1  0.30253684  0.90413420  0.37447433  1
  Ta  Ta91  1  0.49520881  0.29376180  0.38241503  1
  Ta  Ta92  1  0.09948818  0.90978783  0.10093231  1
  Ta  Ta93  1  0.70115511  0.12278888  0.88229718  1
  Ta  Ta94  1  0.40920660  0.60463726  0.50331517  1
  Ta  Ta95  1  0.50414673  0.49292933  0.38894343  1
  Ta  Ta96  1  0.90225703  0.30245749  0.12419186  1
  Ta  Ta97  1  0.91366251  0.50712596  0.38545544  1
  Ta  Ta98  1  0.09452819  0.29343566  0.86050208  1
  Ta  Ta99  1  0.10702827  0.10887647  0.11753766  1
  Ta  Ta100  1  0.59415290  0.19570138  0.49871533  1
  Ta  Ta101  1  0.60261187  0.79015319  0.50254231  1
  Ta  Ta102  1  0.89802388  0.89500701  0.11573869  1
  Ta  Ta103  1  0.09803257  0.29659082  0.38952468  1
  Ta  Ta104  1  0.49840702  0.89990070  0.37473625  1
  Ta  Ta105  1  0.08782610  0.50790132  0.87638419  1
  Ta  Ta106  1  0.30184934  0.50655951  0.61228600  1
  Ta  Ta107  1  0.29813610  0.50554543  0.88228321  1
  Ta  Ta108  1  0.19981430  0.18856713  -0.01775313  1
  Ta  Ta109  1  0.69637833  0.29837541  0.39314265  1
  Ta  Ta110  1  0.90025966  0.29419864  0.39057277  1
  Ta  Ta111  1  0.89584317  0.49722737  0.12898920  1
  Ta  Ta112  1  0.39918080  0.39617636  0.00015105  1
  Ta  Ta113  1  0.41299535  0.20392337  0.73867158  1
  Ta  Ta114  1  0.19810563  0.40879164  0.75947038  1
  Ta  Ta115  1  0.70292696  0.69229886  0.86094932  1
  Ta  Ta116  1  0.90866354  0.10031512  0.88192852  1
  Ta  Ta117  1  0.70870335  0.50436088  0.13031738  1
  Ta  Ta118  1  0.29661173  0.69518692  0.62043761  1
  Ta  Ta119  1  0.71070853  0.70797687  0.64009467  1
  Ti  Ti120  1  0.20210966  -0.00008275  0.23629776  1
  Ti  Ti121  1  0.00725667  -0.00724118  0.75617719  1
  Ti  Ti122  1  0.78205243  0.19567284  0.73830731  1
  Ti  Ti123  1  0.79764244  -0.00191022  0.24077277  1
  Ti  Ti124  1  0.40597791  0.59403448  0.25482064  1
  Ti  Ti125  1  0.70567025  0.30349553  0.87027599  1
  Ti  Ti126  1  0.19687935  0.19800384  0.24540885  1
  Ti  Ti127  1  0.40067246  0.20491777  0.25063555  1
  Ti  Ti128  1  0.61307729  0.60007199  0.49264800  1
  Ti  Ti129  1  0.00539167  0.40247017  0.74674297  1
  Ti  Ti130  1  0.61371344  0.60466010  -0.00656599  1
  Ti  Ti131  1  0.00340626  0.20232769  -0.00861923  1
  Ti  Ti132  1  -0.01170400  -0.00582030  0.50795323  1
  Ti  Ti133  1  0.79451805  0.40576349  0.49306910  1
  Ti  Ti134  1  0.09431635  0.29217809  0.11926508  1
  Ti  Ti135  1  0.09119318  0.91222138  0.89976942  1
  Ti  Ti136  1  0.89834709  0.69305630  0.11492024  1
  Ti  Ti137  1  0.00196823  0.20561890  0.24978130  1
  Ti  Ti138  1  0.60301627  0.60171848  0.75021279  1
  Ti  Ti139  1  0.49493484  0.89931549  0.88797645  1
  Ti  Ti140  1  0.00158713  0.17685228  0.74512721  1
  Ti  Ti141  1  0.40202072  0.60274858  -0.00750504  1
  Ti  Ti142  1  0.49414645  0.10440114  0.87219642  1
  Ti  Ti143  1  0.40957798  0.39368677  0.50682827  1
  Ti  Ti144  1  0.59928165  0.80036369  0.74795071  1
  Ti  Ti145  1  0.59534044  0.20076426  0.26089899  1
  Ti  Ti146  1  0.89019775  0.49261665  0.84813488  1
  Ti  Ti147  1  -0.01590804  0.78353146  0.51005819  1
  Ti  Ti148  1  0.20597546  0.60253389  -0.00334563  1
  Ti  Ti149  1  0.29899749  0.08793233  0.11349270  1
  Ti  Ti150  1  0.50659738  0.89432344  0.63278474  1
  Ti  Ti151  1  0.10958369  0.49843848  0.39405247  1
  Ti  Ti152  1  0.70441717  0.69358568  0.12244409  1
  Ti  Ti153  1  0.09001950  0.68903502  0.62103824  1
  Ti  Ti154  1  -0.00476466  0.18536275  0.51117131  1
  Ti  Ti155  1  0.51552686  0.11087642  0.63152181  1
  Ti  Ti156  1  0.50777561  0.69802990  0.62426518  1
  Ti  Ti157  1  0.79387555  0.78764625  -0.00058021  1
  Ti  Ti158  1  0.80764092  0.79764558  0.24762710  1
  Ti  Ti159  1  0.39929065  0.19476614  -0.00576630  1
  Mo  Mo160  1  0.80012725  0.39056369  0.74416849  1
  Mo  Mo161  1  -0.00118880  0.59040405  0.00738862  1
  Mo  Mo162  1  0.30554002  0.69984311  0.10319417  1
  Mo  Mo163  1  0.39239702  0.01516752  -0.01162643  1
  Mo  Mo164  1  0.00367627  0.60303262  0.49912389  1
  Mo  Mo165  1  0.18539092  0.20253028  0.50257773  1
  Mo  Mo166  1  0.79520780  0.79570850  0.75307908  1
  Mo  Mo167  1  0.80864423  0.20508454  -0.00718583  1
  Mo  Mo168  1  0.60388174  0.20909061  -0.00455462  1
  Mo  Mo169  1  0.30982160  0.69800057  0.89320442  1
  Mo  Mo170  1  0.90436240  0.70849407  0.36724826  1
  Mo  Mo171  1  0.90481248  0.10094679  0.62477914  1
  Mo  Mo172  1  0.20369864  0.80114185  0.01375474  1
  Mo  Mo173  1  0.70559641  0.50141634  0.85545772  1
  Mo  Mo174  1  0.79874419  0.59883742  0.75285178  1
  Mo  Mo175  1  0.29991160  0.10646629  0.85908693  1
  Mo  Mo176  1  0.59940563  0.39870756  0.49568223  1
  Mo  Mo177  1  0.60477891  0.19433197  0.74485247  1
  Mo  Mo178  1  -0.01076287  0.80017370  0.01478582  1
  Mo  Mo179  1  0.60619312  0.79171658  -0.00283781  1
  Mo  Mo180  1  0.19901687  0.01295316  -0.00050522  1
  Mo  Mo181  1  0.90271492  0.70129578  0.63610227  1
  Mo  Mo182  1  0.20493029  0.60298488  0.50414072  1
  Mo  Mo183  1  0.01119992  0.59542910  0.75145596  1
  Mo  Mo184  1  0.20292370  0.39587605  0.50020743  1
  Mo  Mo185  1  0.17939360  0.00533223  0.76475548  1
  Mo  Mo186  1  0.09612215  0.09764214  0.87443962  1
  Mo  Mo187  1  0.70351603  0.49830280  0.38966708  1
  Mo  Mo188  1  0.69562117  0.71015110  0.37893899  1
  Mo  Mo189  1  0.50200386  0.29820395  0.62119172  1
  Mo  Mo190  1  0.71095725  0.10230190  0.61514611  1
  Mo  Mo191  1  0.68857002  0.89560700  0.63594030  1
  Mo  Mo192  1  0.80191098  0.01356489  0.50768242  1
  Mo  Mo193  1  0.40012646  0.79649463  -0.00574467  1
  Mo  Mo194  1  0.08289373  0.09194523  0.62887888  1
  Mo  Mo195  1  0.79957805  0.20097674  0.50122362  1
  Mo  Mo196  1  0.00091199  0.00892160  0.00436480  1
  Mo  Mo197  1  0.19411678  0.20149635  0.76391189  1
  Mo  Mo198  1  0.48876088  0.30162551  0.12466226  1
  Mo  Mo199  1  0.29630104  0.90728029  0.10395892  1
