# generated using pymatgen
data_HfZrTaTiMo
_symmetry_space_group_name_H-M   'P 1'
_cell_length_a   15.21487707
_cell_length_b   15.21141995
_cell_length_c   16.86776431
_cell_angle_alpha   89.98904007
_cell_angle_beta   90.03856360
_cell_angle_gamma   90.04888485
_symmetry_Int_Tables_number   1
_chemical_formula_structural   HfZrTaTiMo
_chemical_formula_sum   'Hf40 Zr40 Ta40 Ti40 Mo40'
_cell_volume   3903.87104937
_cell_formula_units_Z   40
loop_
 _symmetry_equiv_pos_site_id
 _symmetry_equiv_pos_as_xyz
  1  'x, y, z'
loop_
 _atom_site_type_symbol
 _atom_site_label
 _atom_site_symmetry_multiplicity
 _atom_site_fract_x
 _atom_site_fract_y
 _atom_site_fract_z
 _atom_site_occupancy
  Hf  Hf0  1  0.11600728  0.08896740  0.13327281  1
  Hf  Hf1  1  0.39890020  -0.01495833  0.74694881  1
  Hf  Hf2  1  0.69436443  0.50890115  0.88265163  1
  Hf  Hf3  1  0.19468745  -0.00377964  0.74121470  1
  Hf  Hf4  1  0.79288458  0.81948198  -0.01401836  1
  Hf  Hf5  1  0.50345828  0.09075746  0.87938647  1
  Hf  Hf6  1  0.29835345  0.70419287  0.12740509  1
  Hf  Hf7  1  0.11254791  0.28889466  0.86601562  1
  Hf  Hf8  1  0.80258847  -0.00348552  0.50389927  1
  Hf  Hf9  1  0.79946366  0.22410932  0.50561352  1
  Hf  Hf10  1  0.80727836  0.79812551  0.75374286  1
  Hf  Hf11  1  -0.00372093  -0.00046569  0.25258152  1
  Hf  Hf12  1  0.28065790  0.50596921  0.39614377  1
  Hf  Hf13  1  0.10280009  0.50352965  0.86317442  1
  Hf  Hf14  1  0.91387603  0.30882587  0.65241811  1
  Hf  Hf15  1  0.20767427  0.20721052  0.49968770  1
  Hf  Hf16  1  0.28081963  0.09612016  0.87466493  1
  Hf  Hf17  1  0.00070186  0.40379260  0.00093312  1
  Hf  Hf18  1  0.69522651  0.10688346  0.62347657  1
  Hf  Hf19  1  0.49953489  0.70523267  0.62135951  1
  Hf  Hf20  1  0.69412753  0.89059705  0.61725089  1
  Hf  Hf21  1  0.50407060  0.88739498  0.87614618  1
  Hf  Hf22  1  0.40542278  0.39486884  0.51015391  1
  Hf  Hf23  1  0.20706264  0.61465032  0.73448170  1
  Hf  Hf24  1  0.87830099  0.50098556  0.38101703  1
  Hf  Hf25  1  -0.00799280  0.60435295  0.24723511  1
  Hf  Hf26  1  0.41105833  0.21593316  0.00400138  1
  Hf  Hf27  1  0.29274719  0.88207477  0.87720960  1
  Hf  Hf28  1  0.77718241  0.60307791  0.74074241  1
  Hf  Hf29  1  0.52318078  0.11058252  0.12101046  1
  Hf  Hf30  1  0.00412803  0.19722589  0.00278451  1
  Hf  Hf31  1  0.88361709  0.89226451  0.36586506  1
  Hf  Hf32  1  0.20387163  0.61144673  -0.00391477  1
  Hf  Hf33  1  -0.00316180  0.79825879  0.48614384  1
  Hf  Hf34  1  0.09522654  0.91455061  0.87775352  1
  Hf  Hf35  1  -0.00781067  0.59959032  -0.00044519  1
  Hf  Hf36  1  0.41541858  0.20842215  0.24721159  1
  Hf  Hf37  1  0.90821855  0.88676085  0.62081941  1
  Hf  Hf38  1  0.20583409  -0.00524726  0.27137291  1
  Hf  Hf39  1  0.28632383  0.90999941  0.12215905  1
  Zr  Zr40  1  0.88633793  0.29365624  0.12384031  1
  Zr  Zr41  1  -0.00744720  -0.00695155  0.01167006  1
  Zr  Zr42  1  0.62126047  0.19971153  -0.01822922  1
  Zr  Zr43  1  0.67915342  0.29051017  0.12654662  1
  Zr  Zr44  1  0.91572203  0.09091374  0.86839797  1
  Zr  Zr45  1  0.89276557  0.10414056  0.37601858  1
  Zr  Zr46  1  0.49756727  0.88889486  0.12206298  1
  Zr  Zr47  1  0.30772224  0.30844423  0.86760541  1
  Zr  Zr48  1  0.39396499  0.62062060  0.26996670  1
  Zr  Zr49  1  0.10644384  0.09812697  0.61578164  1
  Zr  Zr50  1  0.80013819  0.39418140  -0.00546143  1
  Zr  Zr51  1  0.88028297  0.70112295  0.11784265  1
  Zr  Zr52  1  -0.00568657  0.41317354  0.23930799  1
  Zr  Zr53  1  0.39937333  0.18984574  0.74959997  1
  Zr  Zr54  1  -0.00988521  0.61603025  0.74461380  1
  Zr  Zr55  1  0.78710618  0.18984627  0.25101471  1
  Zr  Zr56  1  0.10291770  0.11252627  0.36958533  1
  Zr  Zr57  1  0.40488415  0.40913024  0.73400198  1
  Zr  Zr58  1  0.49695116  0.49450659  0.12682847  1
  Zr  Zr59  1  0.20626442  0.40214739  0.00139448  1
  Zr  Zr60  1  0.47927341  0.68847437  0.86790509  1
  Zr  Zr61  1  -0.00666260  0.40412223  0.50729538  1
  Zr  Zr62  1  0.51172705  0.50122553  0.38518371  1
  Zr  Zr63  1  0.40544724  -0.01360539  0.49000967  1
  Zr  Zr64  1  0.60876218  0.19836846  0.75998410  1
  Zr  Zr65  1  0.88027284  0.90715999  0.14042997  1
  Zr  Zr66  1  0.40502117  -0.00589116  0.25564598  1
  Zr  Zr67  1  0.90225607  0.09826303  0.62776286  1
  Zr  Zr68  1  0.61564127  0.00521231  0.24650296  1
  Zr  Zr69  1  0.51718952  0.29283678  0.63014997  1
  Zr  Zr70  1  0.50170842  0.69354650  0.12296731  1
  Zr  Zr71  1  0.68771114  0.88851221  0.38453007  1
  Zr  Zr72  1  0.11028214  0.31489373  0.36857827  1
  Zr  Zr73  1  0.11216703  0.30183749  0.12989356  1
  Zr  Zr74  1  0.20442229  0.79194464  0.26337133  1
  Zr  Zr75  1  0.39552743  0.40816833  0.26075232  1
  Zr  Zr76  1  0.70739195  0.51382989  0.11223677  1
  Zr  Zr77  1  0.69933456  0.31587245  0.37439951  1
  Zr  Zr78  1  0.00187412  0.20836698  0.50245197  1
  Zr  Zr79  1  0.39289985  0.00588772  0.00594553  1
  Ta  Ta80  1  0.30544484  0.08956649  0.61468089  1
  Ta  Ta81  1  0.20469600  0.41032250  0.24826177  1
  Ta  Ta82  1  0.09648859  0.71250126  0.61315439  1
  Ta  Ta83  1  -0.00079030  0.20253309  0.24249008  1
  Ta  Ta84  1  0.50770234  0.10681243  0.37621996  1
  Ta  Ta85  1  0.60931299  0.42280927  0.74411003  1
  Ta  Ta86  1  0.08911870  0.50646195  0.38256071  1
  Ta  Ta87  1  0.29615709  0.29013020  0.62846023  1
  Ta  Ta88  1  0.49738665  0.49977673  0.87291898  1
  Ta  Ta89  1  0.30962594  0.10788902  0.37933463  1
  Ta  Ta90  1  0.60358495  -0.00939131  0.74989830  1
  Ta  Ta91  1  0.89495418  0.49786280  0.86329692  1
  Ta  Ta92  1  0.80652165  0.19468671  0.75847878  1
  Ta  Ta93  1  0.21283235  0.18734719  0.01141292  1
  Ta  Ta94  1  0.00807610  -0.00619528  0.48663355  1
  Ta  Ta95  1  0.78705356  0.61047112  0.25091463  1
  Ta  Ta96  1  0.19162240  0.59579909  0.25377953  1
  Ta  Ta97  1  -0.00015126  0.79314719  0.26277701  1
  Ta  Ta98  1  0.50223861  0.08850555  0.62379220  1
  Ta  Ta99  1  0.69879287  0.68917134  0.38980690  1
  Ta  Ta100  1  0.60426341  0.60087621  0.51168256  1
  Ta  Ta101  1  0.90199163  0.30641521  0.36385283  1
  Ta  Ta102  1  0.20199921  -0.01222849  0.48133379  1
  Ta  Ta103  1  0.49667854  0.71931945  0.39470916  1
  Ta  Ta104  1  0.59655743  0.78342092  0.25714977  1
  Ta  Ta105  1  0.10952930  0.69033591  0.38944523  1
  Ta  Ta106  1  0.62039888  -0.01689913  -0.00127386  1
  Ta  Ta107  1  0.73376212  0.08508316  0.10639152  1
  Ta  Ta108  1  0.69514425  0.10255675  0.38658983  1
  Ta  Ta109  1  0.40236831  0.41375832  -0.00323543  1
  Ta  Ta110  1  0.59486707  0.39218955  0.25300389  1
  Ta  Ta111  1  0.68624697  0.70487837  0.87538697  1
  Ta  Ta112  1  0.62084809  0.40614900  0.51271480  1
  Ta  Ta113  1  0.20187224  0.40495138  0.73396402  1
  Ta  Ta114  1  0.30854414  0.51760675  0.86823288  1
  Ta  Ta115  1  0.60223619  0.79024919  0.74685891  1
  Ta  Ta116  1  0.91037397  0.30045889  0.86153076  1
  Ta  Ta117  1  0.40807175  0.19504054  0.50257679  1
  Ta  Ta118  1  -0.00280556  0.79661742  -0.00743379  1
  Ta  Ta119  1  0.79700201  -0.00740288  0.75131218  1
  Ti  Ti120  1  0.71266670  0.30530090  0.86441576  1
  Ti  Ti121  1  0.49560515  0.89585797  0.62630457  1
  Ti  Ti122  1  0.37519236  0.78652340  0.74135059  1
  Ti  Ti123  1  0.71226762  0.08597316  0.87608598  1
  Ti  Ti124  1  0.31260608  0.30819636  0.12669177  1
  Ti  Ti125  1  0.79282905  0.41512837  0.24189997  1
  Ti  Ti126  1  0.02318140  0.19025036  0.74946546  1
  Ti  Ti127  1  0.59937743  0.79269405  -0.00179101  1
  Ti  Ti128  1  0.28966672  0.70353317  0.59963821  1
  Ti  Ti129  1  0.40106939  0.59403751  0.72890294  1
  Ti  Ti130  1  0.79634052  0.59378648  0.51806622  1
  Ti  Ti131  1  0.38881032  0.78264252  -0.00485846  1
  Ti  Ti132  1  0.29496920  0.88931206  0.61398330  1
  Ti  Ti133  1  0.30971721  0.30097009  0.37864844  1
  Ti  Ti134  1  0.88994398  0.69473247  0.37864065  1
  Ti  Ti135  1  0.08951660  0.50047496  0.63406725  1
  Ti  Ti136  1  0.19419941  0.40614459  0.52376914  1
  Ti  Ti137  1  0.10969529  0.71315523  0.87007416  1
  Ti  Ti138  1  0.10788280  0.89620415  0.61340207  1
  Ti  Ti139  1  0.18751785  0.80701329  0.00361863  1
  Ti  Ti140  1  0.09135389  0.88786636  0.12916131  1
  Ti  Ti141  1  0.89149947  0.69658440  0.88097694  1
  Ti  Ti142  1  0.50904338  0.31171384  0.86545739  1
  Ti  Ti143  1  0.71864209  0.31576459  0.63985002  1
  Ti  Ti144  1  0.88889612  0.49681747  0.63903246  1
  Ti  Ti145  1  0.21721424  0.20456665  0.24671167  1
  Ti  Ti146  1  0.01242057  0.80452272  0.75057866  1
  Ti  Ti147  1  0.59042959  0.39580071  -0.00349468  1
  Ti  Ti148  1  0.59359445  0.00007939  0.49890809  1
  Ti  Ti149  1  0.29875451  0.50810106  0.12536388  1
  Ti  Ti150  1  0.69718446  0.88146092  0.13359255  1
  Ti  Ti151  1  0.60391653  0.59411000  0.25551252  1
  Ti  Ti152  1  0.31581222  0.86944499  0.38071549  1
  Ti  Ti153  1  0.10231122  0.51011044  0.12371474  1
  Ti  Ti154  1  0.09561059  0.70367598  0.12651577  1
  Ti  Ti155  1  -0.00881607  0.60012438  0.51139994  1
  Ti  Ti156  1  -0.00278833  -0.00813652  0.74539746  1
  Ti  Ti157  1  0.39720580  0.59874167  0.50683763  1
  Ti  Ti158  1  0.59649354  0.20648853  0.49808900  1
  Ti  Ti159  1  0.59169952  0.60253908  -0.00094410  1
  Mo  Mo160  1  0.28787204  0.69820539  0.86956394  1
  Mo  Mo161  1  0.70233660  0.70325535  0.61388700  1
  Mo  Mo162  1  0.09511068  0.89563935  0.37295265  1
  Mo  Mo163  1  0.58746604  0.60225538  0.74431602  1
  Mo  Mo164  1  0.19894177  0.80217837  0.49062027  1
  Mo  Mo165  1  0.50206886  0.30620617  0.12015202  1
  Mo  Mo166  1  0.90353072  0.69596886  0.61967375  1
  Mo  Mo167  1  0.78702474  0.78605004  0.25561549  1
  Mo  Mo168  1  0.79568816  0.60974433  -0.01530577  1
  Mo  Mo169  1  0.89597744  0.50490318  0.12293806  1
  Mo  Mo170  1  0.68915471  0.70643106  0.12262203  1
  Mo  Mo171  1  0.90346072  0.89148448  0.86392047  1
  Mo  Mo172  1  0.79109770  -0.00406454  0.25304943  1
  Mo  Mo173  1  0.29749904  0.69188334  0.39657853  1
  Mo  Mo174  1  0.79955218  0.78094938  0.50512081  1
  Mo  Mo175  1  0.80352214  0.40519185  0.50916966  1
  Mo  Mo176  1  0.20552593  0.19769549  0.73782377  1
  Mo  Mo177  1  0.59510380  0.20395259  0.26296320  1
  Mo  Mo178  1  0.40361074  0.79981399  0.25584234  1
  Mo  Mo179  1  0.80946577  0.19651517  -0.02333025  1
  Mo  Mo180  1  0.00729280  0.40708992  0.75697935  1
  Mo  Mo181  1  0.29578742  0.50419620  0.61249897  1
  Mo  Mo182  1  0.19654059  0.80336684  0.73901546  1
  Mo  Mo183  1  0.19369695  -0.00203264  0.00575829  1
  Mo  Mo184  1  0.69425728  0.89835244  0.86414239  1
  Mo  Mo185  1  0.70030125  0.50033402  0.62836272  1
  Mo  Mo186  1  0.59363432  0.80385646  0.50348969  1
  Mo  Mo187  1  0.39477940  0.59449627  -0.00174178  1
  Mo  Mo188  1  0.80194359  0.00180156  -0.01365281  1
  Mo  Mo189  1  0.30418195  0.11238910  0.12972604  1
  Mo  Mo190  1  0.10622470  0.30398161  0.63924365  1
  Mo  Mo191  1  0.18226406  0.59446159  0.51836778  1
  Mo  Mo192  1  0.39821554  0.79695493  0.50898948  1
  Mo  Mo193  1  0.70045252  0.50880495  0.37537277  1
  Mo  Mo194  1  0.50391976  0.50301760  0.61540615  1
  Mo  Mo195  1  0.10648664  0.10283676  0.87753058  1
  Mo  Mo196  1  0.50256531  0.89900740  0.37244239  1
  Mo  Mo197  1  0.50114474  0.29661297  0.38836384  1
  Mo  Mo198  1  0.79964531  0.40119325  0.76270382  1
  Mo  Mo199  1  0.90549041  0.10342847  0.12734422  1
