# generated using pymatgen
data_HfZrTaTiMo
_symmetry_space_group_name_H-M   'P 1'
_cell_length_a   15.20880890
_cell_length_b   15.21402167
_cell_length_c   16.86401739
_cell_angle_alpha   89.98202770
_cell_angle_beta   89.94022224
_cell_angle_gamma   90.09851927
_symmetry_Int_Tables_number   1
_chemical_formula_structural   HfZrTaTiMo
_chemical_formula_sum   'Hf40 Zr40 Ta40 Ti40 Mo40'
_cell_volume   3902.10880485
_cell_formula_units_Z   40
loop_
 _symmetry_equiv_pos_site_id
 _symmetry_equiv_pos_as_xyz
  1  'x, y, z'
loop_
 _atom_site_type_symbol
 _atom_site_label
 _atom_site_symmetry_multiplicity
 _atom_site_fract_x
 _atom_site_fract_y
 _atom_site_fract_z
 _atom_site_occupancy
  Hf  Hf0  1  0.78864552  0.38805839  0.25104152  1
  Hf  Hf1  1  0.81144830  0.02559500  0.76609012  1
  Hf  Hf2  1  0.29292221  0.09548241  0.87077673  1
  Hf  Hf3  1  0.10711300  0.30818539  0.12467303  1
  Hf  Hf4  1  0.01346806  0.20567071  0.24799130  1
  Hf  Hf5  1  0.81148743  0.00674372  0.49026234  1
  Hf  Hf6  1  0.29276505  0.70991765  0.36883289  1
  Hf  Hf7  1  0.50489177  0.30452722  0.61929037  1
  Hf  Hf8  1  0.38596708  0.40992003  0.73763309  1
  Hf  Hf9  1  0.00581558  0.40520970  0.73562551  1
  Hf  Hf10  1  0.60475485  0.61771679  -0.00449759  1
  Hf  Hf11  1  0.50976396  0.30589394  0.37404750  1
  Hf  Hf12  1  0.19586208  0.39791940  0.26077726  1
  Hf  Hf13  1  0.92062297  0.70144315  0.86456216  1
  Hf  Hf14  1  0.17747168  0.60332653  0.26721979  1
  Hf  Hf15  1  0.89774934  0.50132834  0.86897678  1
  Hf  Hf16  1  0.61595289  0.19272137  0.49197650  1
  Hf  Hf17  1  0.21471691  0.18824878  0.24659748  1
  Hf  Hf18  1  0.10856670  0.90915105  0.60603038  1
  Hf  Hf19  1  0.91331824  0.09697624  0.36206109  1
  Hf  Hf20  1  0.38895172  0.60031384  0.01176909  1
  Hf  Hf21  1  0.88585417  0.70095723  0.13248213  1
  Hf  Hf22  1  0.11018781  0.30459554  0.86567481  1
  Hf  Hf23  1  0.39649097  0.17994610  0.50498267  1
  Hf  Hf24  1  0.60768387  0.79705964  0.48847668  1
  Hf  Hf25  1  0.57948511  0.61141310  0.76074016  1
  Hf  Hf26  1  0.39363894  0.39050277  0.25058218  1
  Hf  Hf27  1  0.09301507  0.51722670  0.86714200  1
  Hf  Hf28  1  0.61772993  0.19252690  0.75860796  1
  Hf  Hf29  1  0.50718302  0.29411854  0.12307732  1
  Hf  Hf30  1  0.70604861  0.89298569  0.11376671  1
  Hf  Hf31  1  0.68674827  0.71019454  0.62735899  1
  Hf  Hf32  1  0.90063080  0.50290460  0.12798126  1
  Hf  Hf33  1  0.50054238  0.09888293  0.88828009  1
  Hf  Hf34  1  0.61572770  0.20430280  0.25380531  1
  Hf  Hf35  1  0.49337582  0.09310014  0.37150834  1
  Hf  Hf36  1  0.10835769  0.51356598  0.12309528  1
  Hf  Hf37  1  0.50656189  0.90052743  0.36427302  1
  Hf  Hf38  1  0.50800845  0.88112328  0.62999258  1
  Hf  Hf39  1  0.39067114  0.40893094  0.50363658  1
  Zr  Zr40  1  0.71803539  0.27727957  0.62144283  1
  Zr  Zr41  1  0.10831077  0.89867541  0.38039055  1
  Zr  Zr42  1  0.81369024  0.82327919  0.76866696  1
  Zr  Zr43  1  0.49732941  0.51233107  0.37114696  1
  Zr  Zr44  1  0.00386239  0.19731716  0.00851210  1
  Zr  Zr45  1  0.61110504  -0.00619040  0.77311155  1
  Zr  Zr46  1  0.29460317  0.28506534  0.38792095  1
  Zr  Zr47  1  0.89654058  0.72555651  0.62124441  1
  Zr  Zr48  1  0.29280769  0.87551413  0.88982655  1
  Zr  Zr49  1  0.29185774  0.29105720  0.61707845  1
  Zr  Zr50  1  0.49725369  0.70427566  0.35163604  1
  Zr  Zr51  1  0.60704233  0.41424307  0.50085264  1
  Zr  Zr52  1  0.60809889  0.79829953  0.78269614  1
  Zr  Zr53  1  0.50555796  0.50115637  0.13042581  1
  Zr  Zr54  1  0.80372123  0.38832405  0.74686536  1
  Zr  Zr55  1  0.51209243  0.08851746  0.62758733  1
  Zr  Zr56  1  0.69006975  0.50436440  0.63225415  1
  Zr  Zr57  1  0.59077215  0.39579952  0.75302439  1
  Zr  Zr58  1  0.10122466  0.29927104  0.61948027  1
  Zr  Zr59  1  0.27906809  0.69811102  0.12802738  1
  Zr  Zr60  1  0.70250741  0.50423803  0.87265898  1
  Zr  Zr61  1  0.70648846  0.28965729  0.10966899  1
  Zr  Zr62  1  0.00557497  0.40587855  -0.00408870  1
  Zr  Zr63  1  0.89697411  0.29746248  0.37995103  1
  Zr  Zr64  1  0.28947494  0.49293371  0.87501924  1
  Zr  Zr65  1  0.40088965  -0.01971367  0.75695232  1
  Zr  Zr66  1  0.21058255  -0.00972819  0.23223494  1
  Zr  Zr67  1  0.38288422  0.59337679  0.23836368  1
  Zr  Zr68  1  0.77414122  0.60582999  0.49348877  1
  Zr  Zr69  1  0.08635686  0.09642392  0.86453678  1
  Zr  Zr70  1  0.20678187  0.60966812  0.74735299  1
  Zr  Zr71  1  0.48845597  0.49954657  0.88175003  1
  Zr  Zr72  1  -0.00452095  0.80075435  0.00168235  1
  Zr  Zr73  1  -0.00708322  0.60845421  0.50678898  1
  Zr  Zr74  1  0.19224611  0.00206179  0.01409525  1
  Zr  Zr75  1  0.40226883  0.19794184  0.74851604  1
  Zr  Zr76  1  0.71504779  0.91340540  0.62443171  1
  Zr  Zr77  1  0.88460395  0.10341249  0.13827455  1
  Zr  Zr78  1  -0.00049461  -0.00228410  0.01903438  1
  Zr  Zr79  1  0.88706308  0.50014084  0.38235033  1
  Ta  Ta80  1  0.49409608  0.88760157  0.90398365  1
  Ta  Ta81  1  0.18843963  0.17010656  0.50336118  1
  Ta  Ta82  1  0.70207281  0.50263624  0.12521606  1
  Ta  Ta83  1  0.08623990  0.71003085  0.13146536  1
  Ta  Ta84  1  0.39645459  0.19922633  0.00179183  1
  Ta  Ta85  1  0.70929450  0.10052108  0.36639915  1
  Ta  Ta86  1  0.00198001  0.40892667  0.25441688  1
  Ta  Ta87  1  0.60420252  -0.00320869  0.24014761  1
  Ta  Ta88  1  0.30167902  0.87785938  0.62924101  1
  Ta  Ta89  1  0.60048696  0.40362680  -0.00183836  1
  Ta  Ta90  1  0.78901577  0.80103905  0.26271548  1
  Ta  Ta91  1  0.70145429  0.29702772  0.89179577  1
  Ta  Ta92  1  0.28449272  0.07706249  0.63195507  1
  Ta  Ta93  1  0.11674860  0.70981822  0.61738430  1
  Ta  Ta94  1  0.89762233  0.28707715  0.87855985  1
  Ta  Ta95  1  0.40162827  0.77061324  0.75934683  1
  Ta  Ta96  1  0.19533447  0.59904535  0.49735145  1
  Ta  Ta97  1  0.90174932  0.30478062  0.13003236  1
  Ta  Ta98  1  0.80467915  0.40135652  0.00039689  1
  Ta  Ta99  1  0.01419512  -0.00317148  0.23626430  1
  Ta  Ta100  1  0.09400154  0.89246736  0.87531111  1
  Ta  Ta101  1  0.31808221  0.68631981  0.61629453  1
  Ta  Ta102  1  -0.00904517  0.18755428  0.50531139  1
  Ta  Ta103  1  0.50446467  0.71382709  0.13222630  1
  Ta  Ta104  1  -0.02312054  0.19721590  0.74280449  1
  Ta  Ta105  1  0.20754325  0.20237001  0.00534280  1
  Ta  Ta106  1  0.40489421  0.00492648  0.22911854  1
  Ta  Ta107  1  0.29115303  0.49997135  0.38558887  1
  Ta  Ta108  1  -0.00842726  0.60261245  0.26214794  1
  Ta  Ta109  1  0.48148911  0.53327234  0.61457597  1
  Ta  Ta110  1  0.90491331  0.90229759  0.35938944  1
  Ta  Ta111  1  0.90117518  0.89009920  0.14497084  1
  Ta  Ta112  1  0.39768020  -0.01544343  0.50741756  1
  Ta  Ta113  1  0.18785713  -0.01896828  0.75016869  1
  Ta  Ta114  1  0.79829557  0.61382282  0.74765090  1
  Ta  Ta115  1  0.39060129  0.81725122  0.23424937  1
  Ta  Ta116  1  0.02332222  0.81215970  0.74341163  1
  Ta  Ta117  1  0.40429552  0.79441856  0.49687821  1
  Ta  Ta118  1  0.39433098  0.39203014  0.00749137  1
  Ta  Ta119  1  0.31098519  0.91160091  0.37134727  1
  Ti  Ti120  1  0.60625209  -0.00305511  -0.00281798  1
  Ti  Ti121  1  0.30383282  0.29842923  0.12409563  1
  Ti  Ti122  1  0.27156010  0.49590631  0.61640322  1
  Ti  Ti123  1  0.91740443  0.92581264  0.62199538  1
  Ti  Ti124  1  -0.00531888  0.81208766  0.49223327  1
  Ti  Ti125  1  0.68326631  0.49561930  0.35973479  1
  Ti  Ti126  1  0.80294679  0.60398646  -0.00227377  1
  Ti  Ti127  1  0.90047608  0.70507867  0.37321046  1
  Ti  Ti128  1  0.50857443  0.10019021  0.11518132  1
  Ti  Ti129  1  0.50613075  0.89850601  0.11334155  1
  Ti  Ti130  1  0.79425521  0.59889646  0.25594956  1
  Ti  Ti131  1  0.00012380  0.61040607  0.72608185  1
  Ti  Ti132  1  0.50019264  0.29793337  0.88548773  1
  Ti  Ti133  1  0.09739652  0.29554781  0.39288993  1
  Ti  Ti134  1  0.69726010  0.09754242  0.11346891  1
  Ti  Ti135  1  0.40503863  0.18987834  0.24455596  1
  Ti  Ti136  1  0.79434005  0.79566412  -0.01661095  1
  Ti  Ti137  1  0.81391285  -0.00405792  -0.00684861  1
  Ti  Ti138  1  0.11415005  0.09158007  0.37543077  1
  Ti  Ti139  1  0.00946962  0.79441749  0.26036252  1
  Ti  Ti140  1  0.20816577  0.40327730  0.00218165  1
  Ti  Ti141  1  0.80062378  0.38972808  0.50510752  1
  Ti  Ti142  1  0.89180919  0.50135571  0.62169443  1
  Ti  Ti143  1  0.68638786  0.69644314  0.35995281  1
  Ti  Ti144  1  0.30403543  0.29634658  0.87334850  1
  Ti  Ti145  1  0.29674224  0.88890687  0.11010231  1
  Ti  Ti146  1  0.79337119  -0.00271598  0.25184295  1
  Ti  Ti147  1  0.20912663  0.79781402  0.49629450  1
  Ti  Ti148  1  0.71460744  0.11264765  0.89913438  1
  Ti  Ti149  1  0.18824930  0.61626277  -0.00989768  1
  Ti  Ti150  1  0.69369412  0.70006107  0.13384501  1
  Ti  Ti151  1  0.19488697  0.19713207  0.74318926  1
  Ti  Ti152  1  0.08936424  0.49433606  0.38803750  1
  Ti  Ti153  1  0.79973020  0.80904408  0.47769925  1
  Ti  Ti154  1  0.60636318  -0.00354324  0.49417598  1
  Ti  Ti155  1  0.39569800  0.00174853  0.01264848  1
  Ti  Ti156  1  0.08434164  0.09210252  0.63293523  1
  Ti  Ti157  1  0.00001269  0.40281638  0.51324079  1
  Ti  Ti158  1  -0.00156138  0.60754128  0.00021482  1
  Ti  Ti159  1  0.88052596  0.11507244  0.62236747  1
  Mo  Mo160  1  0.79867772  0.20282477  0.75912510  1
  Mo  Mo161  1  0.70390037  0.30542340  0.37956634  1
  Mo  Mo162  1  0.18967584  0.79263817  0.00167188  1
  Mo  Mo163  1  0.80711171  0.19861020  0.00202352  1
  Mo  Mo164  1  0.91176900  0.91063182  0.87662848  1
  Mo  Mo165  1  0.39653107  0.59780308  0.75066165  1
  Mo  Mo166  1  0.28735284  0.48586875  0.11974108  1
  Mo  Mo167  1  0.60465030  0.79947889  -0.00371263  1
  Mo  Mo168  1  0.19664771  0.80148353  0.25317264  1
  Mo  Mo169  1  0.60241437  0.81098484  0.24085183  1
  Mo  Mo170  1  0.19821205  0.39152511  0.75014775  1
  Mo  Mo171  1  0.11229670  0.71130695  0.86915959  1
  Mo  Mo172  1  0.80073755  0.19369662  0.25008824  1
  Mo  Mo173  1  0.90434799  0.10417958  0.88292408  1
  Mo  Mo174  1  0.60308943  0.40477106  0.24649205  1
  Mo  Mo175  1  0.01016080  0.01265440  0.49547120  1
  Mo  Mo176  1  0.39128730  0.60868494  0.49123633  1
  Mo  Mo177  1  0.71311234  0.69700523  0.87578479  1
  Mo  Mo178  1  0.80357091  0.19642983  0.49125066  1
  Mo  Mo179  1  0.59563598  0.60986801  0.49380812  1
  Mo  Mo180  1  0.10575164  0.10544572  0.12832248  1
  Mo  Mo181  1  0.21564815  -0.00407149  0.49966443  1
  Mo  Mo182  1  0.20897653  0.80100753  0.74332852  1
  Mo  Mo183  1  0.48582856  0.70325030  0.89113049  1
  Mo  Mo184  1  0.30401778  0.08639249  0.37520496  1
  Mo  Mo185  1  0.18648345  0.39864215  0.48853404  1
  Mo  Mo186  1  -0.00310646  -0.00422068  0.74480361  1
  Mo  Mo187  1  0.10076823  0.88564092  0.13433491  1
  Mo  Mo188  1  0.49852898  0.70746326  0.62290573  1
  Mo  Mo189  1  0.30326618  0.69638315  0.88514429  1
  Mo  Mo190  1  0.40093483  0.79702566  0.01990457  1
  Mo  Mo191  1  0.70391654  0.90750872  0.36964383  1
  Mo  Mo192  1  0.31524551  0.10518670  0.11694222  1
  Mo  Mo193  1  0.70269403  0.08712034  0.62219400  1
  Mo  Mo194  1  0.90390540  0.30022647  0.61490762  1
  Mo  Mo195  1  0.59620691  0.19660289  -0.00480169  1
  Mo  Mo196  1  0.08957621  0.70176647  0.38886845  1
  Mo  Mo197  1  0.09783216  0.50986956  0.62081760  1
  Mo  Mo198  1  0.60964371  0.60476773  0.23811644  1
  Mo  Mo199  1  0.70541933  0.90867262  0.89981529  1
