# generated using pymatgen
data_HfZrTaTiMo
_symmetry_space_group_name_H-M   'P 1'
_cell_length_a   15.21181273
_cell_length_b   15.20749749
_cell_length_c   16.85279339
_cell_angle_alpha   90.04493974
_cell_angle_beta   89.96087827
_cell_angle_gamma   89.96092417
_symmetry_Int_Tables_number   1
_chemical_formula_structural   HfZrTaTiMo
_chemical_formula_sum   'Hf40 Zr40 Ta40 Ti40 Mo40'
_cell_volume   3898.61441320
_cell_formula_units_Z   40
loop_
 _symmetry_equiv_pos_site_id
 _symmetry_equiv_pos_as_xyz
  1  'x, y, z'
loop_
 _atom_site_type_symbol
 _atom_site_label
 _atom_site_symmetry_multiplicity
 _atom_site_fract_x
 _atom_site_fract_y
 _atom_site_fract_z
 _atom_site_occupancy
  Hf  Hf0  1  0.80110969  0.79680843  0.24102474  1
  Hf  Hf1  1  0.81767559  0.60457499  0.50102073  1
  Hf  Hf2  1  0.79939574  0.38769715  0.25019389  1
  Hf  Hf3  1  0.18673256  0.00534916  0.75442236  1
  Hf  Hf4  1  0.40436999  0.80515823  0.74761735  1
  Hf  Hf5  1  0.67708850  0.90749186  0.36286721  1
  Hf  Hf6  1  0.90225609  0.69379229  0.88243660  1
  Hf  Hf7  1  0.10389569  0.89681197  0.61503745  1
  Hf  Hf8  1  0.11867622  0.69964248  0.36152787  1
  Hf  Hf9  1  0.42847540  0.60213460  0.24462572  1
  Hf  Hf10  1  0.90225593  0.10509897  0.12340809  1
  Hf  Hf11  1  0.47934414  0.90419230  0.11360779  1
  Hf  Hf12  1  0.31469855  0.70329028  0.36399911  1
  Hf  Hf13  1  0.60357640  0.00047542  0.76874955  1
  Hf  Hf14  1  -0.00908411  0.21238167  0.49553076  1
  Hf  Hf15  1  0.28762258  0.11678915  0.86795265  1
  Hf  Hf16  1  0.09728192  0.09162514  0.13000142  1
  Hf  Hf17  1  0.30183258  0.28907399  0.36183977  1
  Hf  Hf18  1  0.80218650  0.59588746  0.24958693  1
  Hf  Hf19  1  0.49896481  0.49058540  0.62423409  1
  Hf  Hf20  1  0.70369859  0.69841787  0.88539176  1
  Hf  Hf21  1  0.10689391  0.70197004  0.87862970  1
  Hf  Hf22  1  0.40879550  0.60991341  0.01224892  1
  Hf  Hf23  1  0.28355579  0.90583893  0.12796677  1
  Hf  Hf24  1  0.19593401  0.18617076  0.25396226  1
  Hf  Hf25  1  0.29304325  0.49559222  0.34873953  1
  Hf  Hf26  1  0.50924620  0.92675064  0.63206574  1
  Hf  Hf27  1  0.31436761  0.31022997  0.88411960  1
  Hf  Hf28  1  0.29987635  0.90150212  0.62458816  1
  Hf  Hf29  1  0.29696346  0.90100326  0.87260190  1
  Hf  Hf30  1  0.69628392  0.69408426  0.11752378  1
  Hf  Hf31  1  0.69539294  0.28963542  0.37623997  1
  Hf  Hf32  1  0.10837080  0.70493368  0.14508355  1
  Hf  Hf33  1  0.70097102  0.49695521  0.87432806  1
  Hf  Hf34  1  0.61279287  0.59737902  0.50748867  1
  Hf  Hf35  1  0.20287975  0.60315587  0.01689112  1
  Hf  Hf36  1  0.88861656  0.08841563  0.62945794  1
  Hf  Hf37  1  0.49645577  0.10900061  0.37419836  1
  Hf  Hf38  1  0.78656488  0.19209438  0.75887835  1
  Hf  Hf39  1  0.31760440  0.49161347  0.13777050  1
  Zr  Zr40  1  0.89835294  0.29952958  0.63527537  1
  Zr  Zr41  1  0.38986419  0.00155234  0.26210629  1
  Zr  Zr42  1  0.01059589  0.80708267  0.00713133  1
  Zr  Zr43  1  0.12455329  0.48980303  0.61932023  1
  Zr  Zr44  1  0.69082243  0.90504552  0.11369675  1
  Zr  Zr45  1  0.77947229  0.19363341  0.51220704  1
  Zr  Zr46  1  0.91226071  0.49665949  0.13074041  1
  Zr  Zr47  1  0.60514571  0.82010582  0.49928180  1
  Zr  Zr48  1  -0.00034088  0.78531044  0.49241708  1
  Zr  Zr49  1  0.38340791  0.40702317  0.49382185  1
  Zr  Zr50  1  0.11024132  0.69104712  0.61311631  1
  Zr  Zr51  1  0.09419858  0.32412612  0.37085931  1
  Zr  Zr52  1  0.00922831  0.18535836  0.75878157  1
  Zr  Zr53  1  0.80185900  0.00028285  -0.00048255  1
  Zr  Zr54  1  0.39758684  0.00705470  0.49156883  1
  Zr  Zr55  1  0.30534116  0.11484148  0.63735719  1
  Zr  Zr56  1  0.20410778  0.40018135  0.01274991  1
  Zr  Zr57  1  0.00373974  0.39536735  -0.00321869  1
  Zr  Zr58  1  0.49292591  0.30560689  0.12940082  1
  Zr  Zr59  1  0.39093338  0.59168983  0.74668619  1
  Zr  Zr60  1  0.90622806  0.89672905  0.87855268  1
  Zr  Zr61  1  0.88235666  0.88085481  0.61952264  1
  Zr  Zr62  1  0.50203811  0.70095845  0.86992912  1
  Zr  Zr63  1  0.58117449  0.79791216  0.24286380  1
  Zr  Zr64  1  0.58395047  0.20428057  0.74031946  1
  Zr  Zr65  1  -0.00227581  0.78828587  0.74353600  1
  Zr  Zr66  1  0.91583018  0.48072669  0.36781120  1
  Zr  Zr67  1  0.61136935  0.60421760  0.73707931  1
  Zr  Zr68  1  0.69526480  0.29412786  0.12036383  1
  Zr  Zr69  1  0.88148554  0.10458358  0.37558731  1
  Zr  Zr70  1  0.79453110  0.20166136  -0.01487846  1
  Zr  Zr71  1  0.81369054  0.60172167  0.73283442  1
  Zr  Zr72  1  0.01105164  0.39884688  0.75632166  1
  Zr  Zr73  1  0.11174538  0.29261253  0.62089408  1
  Zr  Zr74  1  0.88550069  0.89338221  0.37620014  1
  Zr  Zr75  1  0.50054995  0.71094673  0.62159647  1
  Zr  Zr76  1  -0.00971452  -0.00063475  0.49621556  1
  Zr  Zr77  1  0.90600315  0.50004601  0.87340697  1
  Zr  Zr78  1  0.59490742  0.38812813  0.50244574  1
  Zr  Zr79  1  0.79002358  0.00354909  0.23719225  1
  Ta  Ta80  1  0.29953488  0.29243421  0.13926421  1
  Ta  Ta81  1  0.58657570  0.01508494  -0.01193485  1
  Ta  Ta82  1  0.02061005  0.58005819  0.48407577  1
  Ta  Ta83  1  0.79050649  0.19621144  0.24519234  1
  Ta  Ta84  1  0.49536197  0.30482826  0.36522158  1
  Ta  Ta85  1  0.21091905  0.80094673  0.00330518  1
  Ta  Ta86  1  0.11563917  0.50113039  0.87545657  1
  Ta  Ta87  1  0.22069054  0.40449766  0.75757018  1
  Ta  Ta88  1  0.91159047  0.69095317  0.36271465  1
  Ta  Ta89  1  0.38642573  0.00935415  -0.00586489  1
  Ta  Ta90  1  0.30442032  0.09914191  0.12363110  1
  Ta  Ta91  1  0.79627229  0.40213869  -0.00078580  1
  Ta  Ta92  1  0.48362056  0.10852643  0.86982365  1
  Ta  Ta93  1  0.76669498  -0.01066537  0.50445303  1
  Ta  Ta94  1  0.20214335  0.19614272  0.01000411  1
  Ta  Ta95  1  0.80706228  0.59459939  0.01040868  1
  Ta  Ta96  1  0.20520509  0.60030281  0.75324356  1
  Ta  Ta97  1  0.18013625  -0.00094155  -0.00978869  1
  Ta  Ta98  1  0.78479835  0.80207013  0.75608303  1
  Ta  Ta99  1  0.58248981  0.79489844  0.00365584  1
  Ta  Ta100  1  0.59343076  0.41294887  0.25704965  1
  Ta  Ta101  1  0.60068996  0.58942827  0.00188697  1
  Ta  Ta102  1  0.61257130  0.59975828  0.25739576  1
  Ta  Ta103  1  0.59231733  0.39637418  -0.00331935  1
  Ta  Ta104  1  0.80492740  0.39855879  0.50205693  1
  Ta  Ta105  1  0.69623315  0.49307866  0.12271276  1
  Ta  Ta106  1  0.10169150  0.09783596  0.61412784  1
  Ta  Ta107  1  0.09927566  0.10387846  0.38331149  1
  Ta  Ta108  1  0.69197344  0.89234945  0.88953117  1
  Ta  Ta109  1  0.09212021  0.29452959  0.13355755  1
  Ta  Ta110  1  0.71714422  0.72101980  0.61761945  1
  Ta  Ta111  1  0.69930892  0.49917614  0.37930975  1
  Ta  Ta112  1  0.20142596  0.79343300  0.75031083  1
  Ta  Ta113  1  0.18696951  -0.00901871  0.26948084  1
  Ta  Ta114  1  0.49698834  0.49116505  0.87492931  1
  Ta  Ta115  1  0.51268388  0.70174792  0.38334915  1
  Ta  Ta116  1  0.11840199  0.28952742  0.87397658  1
  Ta  Ta117  1  0.00913138  0.19136507  -0.01102583  1
  Ta  Ta118  1  -0.00302469  -0.00880111  0.74788201  1
  Ta  Ta119  1  0.91650435  0.49871921  0.61652761  1
  Ti  Ti120  1  0.31513893  0.71649401  0.14116260  1
  Ti  Ti121  1  0.29902891  0.31823593  0.62500784  1
  Ti  Ti122  1  -0.00228733  0.00554354  0.26473308  1
  Ti  Ti123  1  0.91278692  0.69890963  0.13183351  1
  Ti  Ti124  1  0.60233720  0.40119258  0.74548224  1
  Ti  Ti125  1  0.59072754  0.19823186  0.24517203  1
  Ti  Ti126  1  0.39820833  0.80336451  0.49683801  1
  Ti  Ti127  1  0.69103170  0.30046618  0.87471001  1
  Ti  Ti128  1  0.19736852  -0.00277413  0.48855053  1
  Ti  Ti129  1  0.10764815  0.49854458  0.15419916  1
  Ti  Ti130  1  0.28852989  0.89051233  0.37848725  1
  Ti  Ti131  1  0.09583250  0.90332462  0.13175081  1
  Ti  Ti132  1  0.49227695  0.90099076  0.88050550  1
  Ti  Ti133  1  0.90085270  0.29584897  0.11913244  1
  Ti  Ti134  1  0.67940902  0.10662089  0.11519343  1
  Ti  Ti135  1  0.01279136  0.59568734  0.74544721  1
  Ti  Ti136  1  0.21741947  0.58782669  0.48919356  1
  Ti  Ti137  1  0.79461377  -0.00463738  0.76077112  1
  Ti  Ti138  1  0.40980709  0.39056418  0.74602301  1
  Ti  Ti139  1  0.40707880  0.59923176  0.49475917  1
  Ti  Ti140  1  0.80475034  0.79583148  0.01032072  1
  Ti  Ti141  1  0.40741102  0.20282969  0.00708692  1
  Ti  Ti142  1  0.79365363  0.40228712  0.74296250  1
  Ti  Ti143  1  0.90333471  0.09426003  0.87495340  1
  Ti  Ti144  1  0.50117467  0.30150271  0.88011572  1
  Ti  Ti145  1  0.58730302  0.18374636  0.52022899  1
  Ti  Ti146  1  0.40375217  0.20889070  0.50645718  1
  Ti  Ti147  1  0.00852295  0.59698089  0.00574121  1
  Ti  Ti148  1  0.30706015  0.50554017  0.88691283  1
  Ti  Ti149  1  0.89896664  0.30139569  0.87090326  1
  Ti  Ti150  1  0.68665695  0.09873511  0.37089087  1
  Ti  Ti151  1  -0.01561490  0.20874465  0.26162090  1
  Ti  Ti152  1  0.30266521  0.70020792  0.87962055  1
  Ti  Ti153  1  0.20933298  0.20081621  0.49284461  1
  Ti  Ti154  1  0.69186905  0.30472136  0.62649806  1
  Ti  Ti155  1  0.29888211  0.69608439  0.61470534  1
  Ti  Ti156  1  0.58430436  0.00912289  0.23793353  1
  Ti  Ti157  1  0.71233289  0.70499908  0.37914598  1
  Ti  Ti158  1  0.01022424  0.81538056  0.26002426  1
  Ti  Ti159  1  0.91087889  0.90397224  0.12697604  1
  Mo  Mo160  1  0.59427687  0.01403933  0.49807044  1
  Mo  Mo161  1  0.48534845  0.89220823  0.37419195  1
  Mo  Mo162  1  0.59161960  0.19800663  -0.01245304  1
  Mo  Mo163  1  0.00354044  0.60398258  0.25532284  1
  Mo  Mo164  1  0.41017524  0.39569845  0.25698589  1
  Mo  Mo165  1  0.19383221  0.40877354  0.49049030  1
  Mo  Mo166  1  0.50755506  0.50773861  0.38079199  1
  Mo  Mo167  1  0.10591856  0.50791030  0.35361170  1
  Mo  Mo168  1  -0.00139060  0.39030898  0.23817439  1
  Mo  Mo169  1  0.09389812  0.09575269  0.87896115  1
  Mo  Mo170  1  0.40185662  0.19337411  0.24548866  1
  Mo  Mo171  1  0.40142866  0.00848664  0.76298333  1
  Mo  Mo172  1  0.20021542  0.39063651  0.23576289  1
  Mo  Mo173  1  0.50208275  0.70103242  0.12077116  1
  Mo  Mo174  1  0.68685272  0.08438113  0.63171287  1
  Mo  Mo175  1  0.20681208  0.81198462  0.24931749  1
  Mo  Mo176  1  0.49453309  0.10109311  0.11887561  1
  Mo  Mo177  1  0.71465268  0.48713328  0.62181012  1
  Mo  Mo178  1  0.30347073  0.50795256  0.62260878  1
  Mo  Mo179  1  0.10297535  0.89663359  0.87066755  1
  Mo  Mo180  1  0.60934238  0.80644555  0.75535196  1
  Mo  Mo181  1  0.21406411  0.79916548  0.49763568  1
  Mo  Mo182  1  0.21242348  0.60359489  0.23563930  1
  Mo  Mo183  1  0.28968644  0.10138499  0.38478969  1
  Mo  Mo184  1  0.39202431  0.80605811  -0.00327051  1
  Mo  Mo185  1  0.09950451  0.90203216  0.38082892  1
  Mo  Mo186  1  0.70103745  0.90794578  0.63402542  1
  Mo  Mo187  1  0.51730327  0.50219008  0.12313779  1
  Mo  Mo188  1  0.49021932  0.10260232  0.63348939  1
  Mo  Mo189  1  0.19863374  0.21574545  0.74857343  1
  Mo  Mo190  1  0.39061730  0.21715705  0.74994239  1
  Mo  Mo191  1  0.79619713  0.79544194  0.48813753  1
  Mo  Mo192  1  0.40885091  0.40586391  -0.00105451  1
  Mo  Mo193  1  -0.00238074  0.40373057  0.50172436  1
  Mo  Mo194  1  0.48377501  0.29416197  0.62304023  1
  Mo  Mo195  1  0.40133529  0.80638792  0.25870278  1
  Mo  Mo196  1  0.00158118  0.00368167  0.00185470  1
  Mo  Mo197  1  0.90675457  0.68890651  0.61979594  1
  Mo  Mo198  1  0.88820147  0.29499517  0.37453870  1
  Mo  Mo199  1  0.69498186  0.09861032  0.87920566  1
