# generated using pymatgen
data_HfZrTaTiMo
_symmetry_space_group_name_H-M   'P 1'
_cell_length_a   15.20988557
_cell_length_b   15.18804267
_cell_length_c   16.77898058
_cell_angle_alpha   90.09366756
_cell_angle_beta   90.00636379
_cell_angle_gamma   90.13027345
_symmetry_Int_Tables_number   1
_chemical_formula_structural   HfZrTaTiMo
_chemical_formula_sum   'Hf40 Zr40 Ta40 Ti40 Mo40'
_cell_volume   3876.07008200
_cell_formula_units_Z   40
loop_
 _symmetry_equiv_pos_site_id
 _symmetry_equiv_pos_as_xyz
  1  'x, y, z'
loop_
 _atom_site_type_symbol
 _atom_site_label
 _atom_site_symmetry_multiplicity
 _atom_site_fract_x
 _atom_site_fract_y
 _atom_site_fract_z
 _atom_site_occupancy
  Hf  Hf0  1  0.30486414  0.50122643  0.85680216  1
  Hf  Hf1  1  0.90571654  0.10060364  0.12679685  1
  Hf  Hf2  1  0.61522017  0.59176633  0.74338280  1
  Hf  Hf3  1  0.91528847  0.71917939  0.61360415  1
  Hf  Hf4  1  0.21092685  0.19968729  0.74081786  1
  Hf  Hf5  1  0.19195729  0.00290311  0.50625884  1
  Hf  Hf6  1  0.49276807  0.09038299  0.88700777  1
  Hf  Hf7  1  0.09543532  0.09593417  0.86339032  1
  Hf  Hf8  1  0.59960346  0.59472366  0.01328976  1
  Hf  Hf9  1  0.59541237  0.39342135  0.48849578  1
  Hf  Hf10  1  0.60332129  0.59525670  0.47884819  1
  Hf  Hf11  1  0.21047375  0.81027518  0.49897678  1
  Hf  Hf12  1  0.29209114  0.30471446  0.11937442  1
  Hf  Hf13  1  0.68822154  0.28323453  0.62373495  1
  Hf  Hf14  1  0.51204824  0.29660456  0.89176517  1
  Hf  Hf15  1  0.08846561  0.69813452  0.85338186  1
  Hf  Hf16  1  0.30905208  0.71343282  0.36336320  1
  Hf  Hf17  1  0.70894800  0.70392588  0.14181465  1
  Hf  Hf18  1  0.10200340  0.30001397  0.86944534  1
  Hf  Hf19  1  0.30186934  0.51813737  0.64057340  1
  Hf  Hf20  1  0.79348738  0.79949486  0.75484153  1
  Hf  Hf21  1  0.59601385  0.38206065  0.75286328  1
  Hf  Hf22  1  0.48528345  0.89134454  0.61468041  1
  Hf  Hf23  1  0.59234435  0.78732486  0.47874137  1
  Hf  Hf24  1  0.48910287  0.29337083  0.36742410  1
  Hf  Hf25  1  0.49544128  0.49784266  0.62495638  1
  Hf  Hf26  1  0.31631026  0.31952329  0.62306703  1
  Hf  Hf27  1  0.69474029  0.87962070  0.62253289  1
  Hf  Hf28  1  0.69899655  0.09681333  0.35053275  1
  Hf  Hf29  1  0.89582601  0.09103214  0.36242151  1
  Hf  Hf30  1  0.89747556  0.51070748  0.86715845  1
  Hf  Hf31  1  -0.00363303  0.59860352  -0.00246130  1
  Hf  Hf32  1  0.18972012  0.20839614  0.25048053  1
  Hf  Hf33  1  0.79392473  0.40339518  0.74446303  1
  Hf  Hf34  1  0.18983809  0.80509708  -0.01191461  1
  Hf  Hf35  1  0.72397800  0.30597358  0.37197616  1
  Hf  Hf36  1  0.69643923  0.09952425  0.87173410  1
  Hf  Hf37  1  0.29510614  0.91418819  0.87695562  1
  Hf  Hf38  1  0.19428100  0.40871774  -0.00212438  1
  Hf  Hf39  1  0.90392382  0.29988044  0.87005431  1
  Zr  Zr40  1  0.59547366  -0.00603176  0.49206934  1
  Zr  Zr41  1  0.70271168  0.07938467  0.64493355  1
  Zr  Zr42  1  0.61591332  0.40701881  0.00450850  1
  Zr  Zr43  1  0.69734682  0.89550146  0.35012958  1
  Zr  Zr44  1  0.90813642  0.69071649  0.37385313  1
  Zr  Zr45  1  0.88628123  0.89355573  0.13350906  1
  Zr  Zr46  1  0.28792601  0.51272714  0.13934735  1
  Zr  Zr47  1  0.60037991  0.19963445  0.23384491  1
  Zr  Zr48  1  0.10758952  0.70394095  0.12911037  1
  Zr  Zr49  1  0.60694827  0.41178386  0.25250407  1
  Zr  Zr50  1  0.72470697  0.31104251  0.13068140  1
  Zr  Zr51  1  0.41609778  0.82122079  0.76598550  1
  Zr  Zr52  1  0.60848307  0.60135592  0.27135867  1
  Zr  Zr53  1  0.60873488  0.19041975  0.02061426  1
  Zr  Zr54  1  0.30278393  0.69664450  0.85458623  1
  Zr  Zr55  1  0.81223910  0.60234705  0.72876992  1
  Zr  Zr56  1  0.09268250  0.09096244  0.63694707  1
  Zr  Zr57  1  0.08893432  0.11368971  0.38165561  1
  Zr  Zr58  1  0.30657891  0.71302352  0.14361117  1
  Zr  Zr59  1  0.90138408  0.47662605  0.39972612  1
  Zr  Zr60  1  0.30130778  0.10624386  0.37907228  1
  Zr  Zr61  1  0.28465109  0.90632261  0.11845274  1
  Zr  Zr62  1  0.40046512  0.60699583  0.00580074  1
  Zr  Zr63  1  0.60144787  0.18744880  0.48712006  1
  Zr  Zr64  1  0.21991840  0.60087726  0.49499455  1
  Zr  Zr65  1  0.90409785  0.67538292  0.13846908  1
  Zr  Zr66  1  0.80018756  0.60414878  0.50488557  1
  Zr  Zr67  1  0.19720621  0.21577695  0.51478212  1
  Zr  Zr68  1  0.39632130  0.40210870  0.24744361  1
  Zr  Zr69  1  0.11320391  0.69554816  0.63033290  1
  Zr  Zr70  1  0.42216311  0.21222663  0.74613122  1
  Zr  Zr71  1  0.19652427  0.60382297  -0.00469264  1
  Zr  Zr72  1  0.80564677  0.18244802  0.50768399  1
  Zr  Zr73  1  0.49023531  0.89696167  0.11282037  1
  Zr  Zr74  1  0.00532751  0.79440092  0.25087924  1
  Zr  Zr75  1  0.33090331  0.71387429  0.63521699  1
  Zr  Zr76  1  0.40076886  0.18511895  0.23300103  1
  Zr  Zr77  1  -0.02367247  -0.00594407  0.50749710  1
  Zr  Zr78  1  0.31036292  0.30407079  0.88075036  1
  Zr  Zr79  1  0.58408214  -0.02080791  0.75975625  1
  Ta  Ta80  1  -0.00518038  0.40776324  0.72873177  1
  Ta  Ta81  1  0.40740129  0.20367331  0.50473659  1
  Ta  Ta82  1  0.10031984  0.49682401  0.60942783  1
  Ta  Ta83  1  -0.00828343  0.39444154  0.25314229  1
  Ta  Ta84  1  0.50226444  0.50301937  0.86848765  1
  Ta  Ta85  1  0.07892405  0.49772712  0.13228118  1
  Ta  Ta86  1  0.09438612  0.29956283  0.12087707  1
  Ta  Ta87  1  0.80859657  0.19751734  -0.00649749  1
  Ta  Ta88  1  0.31185616  0.09774581  0.62042966  1
  Ta  Ta89  1  -0.00710920  0.80460847  -0.00280899  1
  Ta  Ta90  1  0.00995033  0.00248091  0.24803339  1
  Ta  Ta91  1  -0.00726143  -0.00243788  -0.00537871  1
  Ta  Ta92  1  0.29581045  0.10835590  0.88065745  1
  Ta  Ta93  1  0.89921527  0.09517261  0.86356052  1
  Ta  Ta94  1  0.57222503  -0.00405496  0.23772860  1
  Ta  Ta95  1  0.70345251  0.48855828  0.60722792  1
  Ta  Ta96  1  0.09536073  0.50097889  0.85753451  1
  Ta  Ta97  1  0.79834943  0.79512846  -0.00425656  1
  Ta  Ta98  1  0.79786927  -0.00433949  -0.00495055  1
  Ta  Ta99  1  0.79504452  0.59117732  0.00330620  1
  Ta  Ta100  1  0.10002189  0.70226131  0.38693143  1
  Ta  Ta101  1  0.19617532  0.19628182  0.00154843  1
  Ta  Ta102  1  0.91371567  0.30361139  0.11565814  1
  Ta  Ta103  1  -0.00683657  0.20888079  0.52491666  1
  Ta  Ta104  1  0.09246944  0.90532627  0.37923377  1
  Ta  Ta105  1  0.70650535  0.68413750  0.88001435  1
  Ta  Ta106  1  0.09604373  0.31413759  0.38675139  1
  Ta  Ta107  1  0.09543595  0.50147748  0.39240725  1
  Ta  Ta108  1  0.19492946  0.40054685  0.74362055  1
  Ta  Ta109  1  0.41724704  0.61979813  0.48727371  1
  Ta  Ta110  1  0.40920785  0.41597961  0.01128699  1
  Ta  Ta111  1  0.50319714  0.10338330  0.62532821  1
  Ta  Ta112  1  0.60472124  0.79097037  0.00372381  1
  Ta  Ta113  1  0.51315741  0.69938200  0.87728152  1
  Ta  Ta114  1  0.80321704  0.80833366  0.49009565  1
  Ta  Ta115  1  0.50303637  0.70200354  0.14329863  1
  Ta  Ta116  1  0.00383180  0.19487832  -0.00469001  1
  Ta  Ta117  1  0.19758309  0.81974392  0.26294238  1
  Ta  Ta118  1  0.91656602  0.28443806  0.38144345  1
  Ta  Ta119  1  0.08180334  0.88791039  0.63457911  1
  Ti  Ti120  1  0.89093165  0.09705578  0.65378754  1
  Ti  Ti121  1  0.18388342  0.00754396  -0.00417593  1
  Ti  Ti122  1  0.89998061  0.70603633  0.87258939  1
  Ti  Ti123  1  0.39003211  0.01332662  0.75028782  1
  Ti  Ti124  1  0.82035343  0.20698843  0.24399834  1
  Ti  Ti125  1  0.59864259  0.78100476  0.74926554  1
  Ti  Ti126  1  0.39249854  -0.00656957  0.49664950  1
  Ti  Ti127  1  0.09148886  0.90876352  0.12263742  1
  Ti  Ti128  1  0.69585374  0.89458224  0.13744830  1
  Ti  Ti129  1  0.28988179  0.30980179  0.38311141  1
  Ti  Ti130  1  0.29192992  0.90692621  0.63115067  1
  Ti  Ti131  1  0.18316102  0.40830120  0.25477215  1
  Ti  Ti132  1  0.89545150  0.90156172  0.87019834  1
  Ti  Ti133  1  0.09935693  0.10196543  0.12449605  1
  Ti  Ti134  1  0.19892858  -0.00170613  0.74732403  1
  Ti  Ti135  1  -0.00217464  0.40261019  -0.00305064  1
  Ti  Ti136  1  0.80420788  0.40345792  -0.00994383  1
  Ti  Ti137  1  0.69108069  0.88798669  0.88052259  1
  Ti  Ti138  1  0.29639072  0.50032943  0.36852216  1
  Ti  Ti139  1  0.40639740  0.83028930  0.25830360  1
  Ti  Ti140  1  0.39066886  0.00336510  0.00079434  1
  Ti  Ti141  1  0.60474734  -0.01045637  0.00737668  1
  Ti  Ti142  1  0.70888474  0.08422366  0.13260689  1
  Ti  Ti143  1  0.18326979  0.60543689  0.26274684  1
  Ti  Ti144  1  0.39908025  0.19969488  0.01299617  1
  Ti  Ti145  1  0.89638004  0.89635843  0.36068301  1
  Ti  Ti146  1  0.40195830  0.79801308  -0.00884532  1
  Ti  Ti147  1  0.78845049  -0.00800644  0.49546822  1
  Ti  Ti148  1  0.39470990  0.41581869  0.48918943  1
  Ti  Ti149  1  -0.00185940  0.21091660  0.73758315  1
  Ti  Ti150  1  0.19800316  0.80828128  0.74998389  1
  Ti  Ti151  1  0.50038450  0.31084440  0.12049088  1
  Ti  Ti152  1  0.29291615  0.09656365  0.11940242  1
  Ti  Ti153  1  0.89060991  0.91111141  0.63878590  1
  Ti  Ti154  1  0.80650169  0.56863365  0.26241258  1
  Ti  Ti155  1  0.08278140  0.89963777  0.86116794  1
  Ti  Ti156  1  0.41105921  0.59673621  0.26062232  1
  Ti  Ti157  1  0.49103108  0.08664283  0.36889634  1
  Ti  Ti158  1  0.78884896  0.20634821  0.75889794  1
  Ti  Ti159  1  0.20251932  0.00497615  0.25374172  1
  Mo  Mo160  1  0.00146706  0.80990790  0.49261281  1
  Mo  Mo161  1  0.49934051  0.70959258  0.35533590  1
  Mo  Mo162  1  0.48550400  0.90567112  0.37420460  1
  Mo  Mo163  1  0.42340535  0.60976305  0.75312650  1
  Mo  Mo164  1  0.71548146  0.70111360  0.36235203  1
  Mo  Mo165  1  0.00543299  0.20616687  0.24601582  1
  Mo  Mo166  1  0.00940083  0.60267534  0.50434573  1
  Mo  Mo167  1  0.69504496  0.70125233  0.61670138  1
  Mo  Mo168  1  0.49561636  0.09437513  0.10768505  1
  Mo  Mo169  1  -0.00895042  0.80191101  0.75300551  1
  Mo  Mo170  1  0.19538189  0.59582567  0.74355114  1
  Mo  Mo171  1  0.49879314  0.50743468  0.13062184  1
  Mo  Mo172  1  0.00559509  0.38956535  0.52029414  1
  Mo  Mo173  1  0.80878129  0.38192973  0.51971720  1
  Mo  Mo174  1  0.79469262  -0.00881717  0.76697704  1
  Mo  Mo175  1  0.40715480  0.40773114  0.75374758  1
  Mo  Mo176  1  0.50367842  0.89527825  0.90150248  1
  Mo  Mo177  1  0.29361807  0.91380836  0.37304913  1
  Mo  Mo178  1  0.10509131  0.30481380  0.63110255  1
  Mo  Mo179  1  0.70942534  0.49197165  0.39050499  1
  Mo  Mo180  1  0.50055106  0.29917756  0.61314021  1
  Mo  Mo181  1  0.71077188  0.29647889  0.88019047  1
  Mo  Mo182  1  0.70103541  0.49958402  0.87509410  1
  Mo  Mo183  1  0.48658822  0.49859813  0.38008087  1
  Mo  Mo184  1  0.79934048  -0.00018386  0.23916969  1
  Mo  Mo185  1  0.00078289  0.59326993  0.73814910  1
  Mo  Mo186  1  0.20885598  0.40624147  0.49668135  1
  Mo  Mo187  1  0.59865936  0.19160219  0.75411079  1
  Mo  Mo188  1  0.01135300  0.57755446  0.26041285  1
  Mo  Mo189  1  0.79847952  0.78787590  0.25658026  1
  Mo  Mo190  1  0.89321047  0.29232522  0.63883047  1
  Mo  Mo191  1  0.38755067  0.00432209  0.24430368  1
  Mo  Mo192  1  0.81171253  0.39531602  0.25416448  1
  Mo  Mo193  1  0.40046461  0.80634895  0.49064281  1
  Mo  Mo194  1  0.51793932  0.70169344  0.62074638  1
  Mo  Mo195  1  0.59126476  0.80177594  0.25067396  1
  Mo  Mo196  1  0.90570821  0.49760359  0.60757518  1
  Mo  Mo197  1  0.89137752  0.48317222  0.12397836  1
  Mo  Mo198  1  -0.00711109  -0.00491092  0.75194679  1
  Mo  Mo199  1  0.71829946  0.50834315  0.13061248  1
