# generated using pymatgen
data_HfZrTaTiMo
_symmetry_space_group_name_H-M   'P 1'
_cell_length_a   15.21315975
_cell_length_b   15.20660326
_cell_length_c   16.83644909
_cell_angle_alpha   89.95109575
_cell_angle_beta   90.01324644
_cell_angle_gamma   90.06684894
_symmetry_Int_Tables_number   1
_chemical_formula_structural   HfZrTaTiMo
_chemical_formula_sum   'Hf40 Zr40 Ta40 Ti40 Mo40'
_cell_volume   3894.94811762
_cell_formula_units_Z   40
loop_
 _symmetry_equiv_pos_site_id
 _symmetry_equiv_pos_as_xyz
  1  'x, y, z'
loop_
 _atom_site_type_symbol
 _atom_site_label
 _atom_site_symmetry_multiplicity
 _atom_site_fract_x
 _atom_site_fract_y
 _atom_site_fract_z
 _atom_site_occupancy
  Hf  Hf0  1  0.50593746  0.30578888  0.12349658  1
  Hf  Hf1  1  0.90432218  0.90958166  0.38371455  1
  Hf  Hf2  1  0.70547673  0.08948933  0.13105043  1
  Hf  Hf3  1  0.20724254  0.60159995  0.24983545  1
  Hf  Hf4  1  -0.00993096  0.62013586  0.25544411  1
  Hf  Hf5  1  0.49257055  0.09433489  0.90558395  1
  Hf  Hf6  1  -0.00065657  0.78628746  0.73673182  1
  Hf  Hf7  1  0.60017390  0.60310568  -0.01280890  1
  Hf  Hf8  1  0.79208886  0.79516170  -0.02119761  1
  Hf  Hf9  1  0.70822396  0.88443225  0.12575924  1
  Hf  Hf10  1  0.39096377  -0.00462362  0.22737117  1
  Hf  Hf11  1  0.27962431  0.70919763  0.87300395  1
  Hf  Hf12  1  0.80380094  0.61041302  0.76368463  1
  Hf  Hf13  1  0.41714437  0.19720945  0.75732253  1
  Hf  Hf14  1  0.10101888  0.11677112  0.64682034  1
  Hf  Hf15  1  0.50081132  0.09354471  0.37144080  1
  Hf  Hf16  1  0.61320941  0.37676877  0.75597560  1
  Hf  Hf17  1  0.91976150  0.30324803  0.64268896  1
  Hf  Hf18  1  -0.00618247  0.40050631  0.00744562  1
  Hf  Hf19  1  -0.01442812  0.60449423  0.49549654  1
  Hf  Hf20  1  0.30600592  0.70837535  0.37675085  1
  Hf  Hf21  1  0.00273158  -0.01565452  0.74303849  1
  Hf  Hf22  1  0.68358391  0.10626090  0.63104649  1
  Hf  Hf23  1  0.38340401  -0.00954482  0.75493171  1
  Hf  Hf24  1  0.21011216  0.42264041  0.75661262  1
  Hf  Hf25  1  0.01759514  0.39920813  0.50274331  1
  Hf  Hf26  1  0.81275003  0.20143588  0.23941292  1
  Hf  Hf27  1  0.19292485  0.80365223  0.25139641  1
  Hf  Hf28  1  0.12212142  0.29569639  0.35633341  1
  Hf  Hf29  1  0.60309951  -0.01112489  0.49527715  1
  Hf  Hf30  1  0.90049540  0.50942672  0.12924323  1
  Hf  Hf31  1  0.28968779  0.10343501  0.37301534  1
  Hf  Hf32  1  0.80284058  0.19336878  0.49842529  1
  Hf  Hf33  1  0.80229456  0.39859090  0.49980193  1
  Hf  Hf34  1  0.89022807  0.71391549  0.11762132  1
  Hf  Hf35  1  0.39071872  0.21408648  0.48877628  1
  Hf  Hf36  1  0.80612998  0.21125977  0.00960353  1
  Hf  Hf37  1  0.40389759  0.19124786  0.23346348  1
  Hf  Hf38  1  0.30764576  0.31197815  0.63180838  1
  Hf  Hf39  1  0.28045096  0.88882361  0.11090214  1
  Zr  Zr40  1  0.00408559  0.20242083  0.50279011  1
  Zr  Zr41  1  0.88801986  0.09840769  0.64671109  1
  Zr  Zr42  1  0.18408871  0.00004084  0.24401980  1
  Zr  Zr43  1  0.52108309  0.29081727  0.61452647  1
  Zr  Zr44  1  0.41459436  0.40600155  0.76468297  1
  Zr  Zr45  1  0.77881367  0.21716166  0.75541208  1
  Zr  Zr46  1  0.50474904  0.30274623  0.36613806  1
  Zr  Zr47  1  0.39494177  0.58921454  0.49379959  1
  Zr  Zr48  1  0.00034926  0.20288634  -0.00758099  1
  Zr  Zr49  1  0.49243759  0.09439489  0.61225632  1
  Zr  Zr50  1  0.30155405  0.30174134  0.11032965  1
  Zr  Zr51  1  0.61218085  0.39832076  0.00358311  1
  Zr  Zr52  1  0.49147255  0.89373334  0.36672488  1
  Zr  Zr53  1  0.71064448  0.08980384  0.36034482  1
  Zr  Zr54  1  0.68744608  0.11109979  0.88360446  1
  Zr  Zr55  1  0.70228902  0.69203558  0.62551779  1
  Zr  Zr56  1  0.10533847  0.09511142  0.86294550  1
  Zr  Zr57  1  0.48712204  0.89482626  0.89356300  1
  Zr  Zr58  1  0.09687772  0.30068873  0.13658610  1
  Zr  Zr59  1  0.89473627  0.51306830  0.62573511  1
  Zr  Zr60  1  0.22425845  0.39799358  0.49873270  1
  Zr  Zr61  1  0.30857047  0.30513452  0.89305603  1
  Zr  Zr62  1  0.30261463  0.09995583  0.89578275  1
  Zr  Zr63  1  0.19396828  0.59732997  0.49465672  1
  Zr  Zr64  1  0.29415383  0.09783716  0.62764827  1
  Zr  Zr65  1  0.39497193  0.79132389  0.74996461  1
  Zr  Zr66  1  0.60830539  0.79672974  0.77090387  1
  Zr  Zr67  1  0.69721831  0.88179831  0.36942728  1
  Zr  Zr68  1  0.49980187  0.49069708  0.61395510  1
  Zr  Zr69  1  0.30916249  0.50638432  0.11774648  1
  Zr  Zr70  1  0.50340304  0.89348018  0.62614598  1
  Zr  Zr71  1  0.69917643  0.51730981  0.12731732  1
  Zr  Zr72  1  0.59038390  0.58635241  0.75807957  1
  Zr  Zr73  1  -0.00222648  0.00037509  0.52245987  1
  Zr  Zr74  1  0.09528302  0.49510005  0.35998508  1
  Zr  Zr75  1  0.91291689  0.48233945  0.86950252  1
  Zr  Zr76  1  0.08832685  0.71993729  0.38536591  1
  Zr  Zr77  1  0.90731920  0.89334026  0.87149060  1
  Zr  Zr78  1  0.91136419  0.29741963  0.36636846  1
  Zr  Zr79  1  0.18811930  0.41340843  -0.00496294  1
  Ta  Ta80  1  0.78161208  -0.01056699  0.76148929  1
  Ta  Ta81  1  0.08634537  0.31495057  0.85755361  1
  Ta  Ta82  1  0.40232501  0.80101673  0.50422172  1
  Ta  Ta83  1  0.08479589  0.09686974  0.37502965  1
  Ta  Ta84  1  0.31487583  0.51989834  0.89033072  1
  Ta  Ta85  1  0.80205159  0.00238685  -0.00782886  1
  Ta  Ta86  1  0.41270819  0.60117597  0.25610119  1
  Ta  Ta87  1  0.38928991  0.77765506  0.01127265  1
  Ta  Ta88  1  0.80117582  0.79162504  0.25089561  1
  Ta  Ta89  1  0.50037524  0.69500672  0.61656219  1
  Ta  Ta90  1  0.70565963  0.49053565  0.87694705  1
  Ta  Ta91  1  0.59808083  0.79002976  -0.00736383  1
  Ta  Ta92  1  0.29857467  0.70326803  0.61941768  1
  Ta  Ta93  1  0.78794680  0.60581005  0.26679205  1
  Ta  Ta94  1  0.51476513  0.28817764  0.89528190  1
  Ta  Ta95  1  0.11111184  0.52492535  0.87337092  1
  Ta  Ta96  1  0.39751408  0.40233293  0.25006428  1
  Ta  Ta97  1  -0.01105368  0.82233984  0.24717221  1
  Ta  Ta98  1  0.09797535  0.70977876  0.12629118  1
  Ta  Ta99  1  0.50077940  0.88845504  0.11532994  1
  Ta  Ta100  1  0.19340463  0.00677077  0.50160694  1
  Ta  Ta101  1  0.19210545  0.20503355  0.50314066  1
  Ta  Ta102  1  0.51136574  0.70376052  0.38033874  1
  Ta  Ta103  1  0.78757237  0.59750057  0.48253311  1
  Ta  Ta104  1  0.20248076  0.81633407  0.50874074  1
  Ta  Ta105  1  0.20395636  0.62202099  0.00994749  1
  Ta  Ta106  1  0.09919567  0.69951354  0.61479808  1
  Ta  Ta107  1  0.28976227  0.90185963  0.89704700  1
  Ta  Ta108  1  0.58909777  0.00549280  0.76061371  1
  Ta  Ta109  1  0.80481731  0.59877791  -0.01586680  1
  Ta  Ta110  1  0.79905331  -0.00740197  0.50982644  1
  Ta  Ta111  1  0.61261928  0.20291727  0.48565668  1
  Ta  Ta112  1  -0.00519864  -0.00059371  -0.01200996  1
  Ta  Ta113  1  0.89631533  0.10552356  0.86283513  1
  Ta  Ta114  1  0.50520782  0.50007140  0.37437591  1
  Ta  Ta115  1  0.91351970  0.08547528  0.12074258  1
  Ta  Ta116  1  0.07127028  0.90228841  0.11348338  1
  Ta  Ta117  1  0.00796031  0.61004801  -0.00257452  1
  Ta  Ta118  1  0.00924147  0.59862687  0.74618558  1
  Ta  Ta119  1  0.40101705  0.79012028  0.23553092  1
  Ti  Ti120  1  0.19175214  0.20314725  -0.00059773  1
  Ti  Ti121  1  0.60298116  0.60251014  0.25772670  1
  Ti  Ti122  1  0.80215356  0.80014466  0.75785161  1
  Ti  Ti123  1  0.59223807  -0.00698764  0.23832421  1
  Ti  Ti124  1  0.89116470  0.49811147  0.36646442  1
  Ti  Ti125  1  0.70429486  0.30467269  0.36381927  1
  Ti  Ti126  1  0.60988692  0.19824974  0.02223950  1
  Ti  Ti127  1  0.18885790  0.00123824  0.00450405  1
  Ti  Ti128  1  0.10053772  0.50944749  0.13320841  1
  Ti  Ti129  1  0.20825849  0.21066142  0.75937601  1
  Ti  Ti130  1  0.79583939  0.40264952  0.24414155  1
  Ti  Ti131  1  0.19692036  0.81908172  0.73629950  1
  Ti  Ti132  1  0.60119373  0.78402548  0.24089158  1
  Ti  Ti133  1  0.30316315  0.48417230  0.36301693  1
  Ti  Ti134  1  0.10986124  0.49680888  0.62811314  1
  Ti  Ti135  1  0.60723405  0.59793944  0.49377677  1
  Ti  Ti136  1  0.20928099  0.19335198  0.23675971  1
  Ti  Ti137  1  -0.00652476  0.39855199  0.24157457  1
  Ti  Ti138  1  0.10230405  0.09676806  0.11987432  1
  Ti  Ti139  1  0.09782187  0.90798582  0.38225729  1
  Ti  Ti140  1  0.80009229  0.40816092  0.74296852  1
  Ti  Ti141  1  0.80304750  0.39794393  0.00924255  1
  Ti  Ti142  1  0.82430838  -0.01090595  0.24607401  1
  Ti  Ti143  1  0.29567612  0.90235073  0.37314387  1
  Ti  Ti144  1  0.49797724  0.50167210  0.12443410  1
  Ti  Ti145  1  0.60652623  0.19968397  0.24095936  1
  Ti  Ti146  1  0.61232935  0.40336406  0.49256487  1
  Ti  Ti147  1  0.19909759  0.61833478  0.74044152  1
  Ti  Ti148  1  0.60594571  -0.01158887  0.00913230  1
  Ti  Ti149  1  0.88787477  0.71534405  0.38015349  1
  Ti  Ti150  1  0.38767734  0.59385408  0.74093846  1
  Ti  Ti151  1  0.50538612  0.68917249  0.12304932  1
  Ti  Ti152  1  0.69892573  0.89770635  0.62986738  1
  Ti  Ti153  1  0.38586232  -0.00797236  0.49786238  1
  Ti  Ti154  1  0.10792251  0.88526026  0.88012362  1
  Ti  Ti155  1  0.60499288  0.40725432  0.24771736  1
  Ti  Ti156  1  0.79277785  0.79685831  0.50802300  1
  Ti  Ti157  1  0.47988069  0.68166226  0.87804807  1
  Ti  Ti158  1  0.00381826  0.18244234  0.24736292  1
  Ti  Ti159  1  -0.01035502  0.80949242  0.52556781  1
  Mo  Mo160  1  0.70580626  0.30449098  0.13946285  1
  Mo  Mo161  1  -0.00220473  0.20446508  0.76469564  1
  Mo  Mo162  1  0.90205400  0.09402966  0.37509085  1
  Mo  Mo163  1  0.29943601  0.90045872  0.61870085  1
  Mo  Mo164  1  0.49982086  0.49171540  0.87848173  1
  Mo  Mo165  1  0.09476250  0.70346039  0.86963422  1
  Mo  Mo166  1  0.01128520  0.41118976  0.74366920  1
  Mo  Mo167  1  0.20432956  0.40423766  0.24279532  1
  Mo  Mo168  1  0.69327460  0.90694947  0.87988025  1
  Mo  Mo169  1  0.69587175  0.69887965  0.37999314  1
  Mo  Mo170  1  0.40542605  0.60312380  0.00221624  1
  Mo  Mo171  1  0.89736188  0.30116829  0.86436632  1
  Mo  Mo172  1  0.71079228  0.30640181  0.88533637  1
  Mo  Mo173  1  0.29207374  0.09895499  0.10606224  1
  Mo  Mo174  1  0.70712416  0.31029265  0.61526006  1
  Mo  Mo175  1  -0.00186637  0.00238026  0.24898499  1
  Mo  Mo176  1  0.69751714  0.48987314  0.62054015  1
  Mo  Mo177  1  0.11324197  0.30597622  0.64645685  1
  Mo  Mo178  1  0.40841971  0.40163398  0.48531738  1
  Mo  Mo179  1  0.00094225  0.79650234  -0.00340415  1
  Mo  Mo180  1  0.20181388  -0.00914940  0.75891043  1
  Mo  Mo181  1  0.39600798  -0.00820739  0.02335839  1
  Mo  Mo182  1  0.50556831  0.09077928  0.11450795  1
  Mo  Mo183  1  0.10887206  0.90277096  0.62434014  1
  Mo  Mo184  1  0.59007449  0.19347427  0.76084843  1
  Mo  Mo185  1  0.30058895  0.51202678  0.62855265  1
  Mo  Mo186  1  0.41281301  0.40611623  -0.00808340  1
  Mo  Mo187  1  0.91281307  0.68997471  0.87688827  1
  Mo  Mo188  1  0.87829056  0.89231540  0.63341558  1
  Mo  Mo189  1  0.30119821  0.29704860  0.35662785  1
  Mo  Mo190  1  0.89257696  0.90565487  0.11303879  1
  Mo  Mo191  1  0.69510505  0.69897338  0.12429267  1
  Mo  Mo192  1  0.90150312  0.30227191  0.13504197  1
  Mo  Mo193  1  0.69658526  0.49231905  0.36586714  1
  Mo  Mo194  1  0.89578305  0.70239463  0.61746325  1
  Mo  Mo195  1  0.40781266  0.19782906  0.02076287  1
  Mo  Mo196  1  0.30333373  0.69851686  0.13436449  1
  Mo  Mo197  1  0.60049922  0.78896692  0.50539479  1
  Mo  Mo198  1  0.18331673  0.79809615  0.00294929  1
  Mo  Mo199  1  0.69951129  0.69591851  0.87035818  1
