# generated using pymatgen
data_HfZrTaTiMo
_symmetry_space_group_name_H-M   'P 1'
_cell_length_a   15.21099197
_cell_length_b   15.20410012
_cell_length_c   16.88023066
_cell_angle_alpha   90.01427594
_cell_angle_beta   90.08779817
_cell_angle_gamma   89.87296268
_symmetry_Int_Tables_number   1
_chemical_formula_structural   HfZrTaTiMo
_chemical_formula_sum   'Hf40 Zr40 Ta40 Ti40 Mo40'
_cell_volume   3903.86727659
_cell_formula_units_Z   40
loop_
 _symmetry_equiv_pos_site_id
 _symmetry_equiv_pos_as_xyz
  1  'x, y, z'
loop_
 _atom_site_type_symbol
 _atom_site_label
 _atom_site_symmetry_multiplicity
 _atom_site_fract_x
 _atom_site_fract_y
 _atom_site_fract_z
 _atom_site_occupancy
  Hf  Hf0  1  0.49775909  0.30158989  0.88033882  1
  Hf  Hf1  1  0.89328383  0.09946396  0.37255076  1
  Hf  Hf2  1  0.00074824  -0.00990905  0.49749155  1
  Hf  Hf3  1  -0.03003103  0.59261974  0.50806522  1
  Hf  Hf4  1  0.81944431  0.41763582  0.49785435  1
  Hf  Hf5  1  0.39322515  0.20179672  0.50412806  1
  Hf  Hf6  1  0.69709409  0.29552777  0.63847419  1
  Hf  Hf7  1  -0.02176516  0.00041293  0.74043469  1
  Hf  Hf8  1  0.41629509  0.40260564  0.23854636  1
  Hf  Hf9  1  0.39955985  0.19652064  0.24456753  1
  Hf  Hf10  1  0.48554094  0.68829502  0.60798215  1
  Hf  Hf11  1  0.82215247  0.18215822  0.76181108  1
  Hf  Hf12  1  0.11252029  0.30570927  0.37375346  1
  Hf  Hf13  1  0.88698566  0.67566007  0.13784079  1
  Hf  Hf14  1  0.31198617  0.89618206  0.11456469  1
  Hf  Hf15  1  0.21808464  0.40376005  0.50291907  1
  Hf  Hf16  1  0.61572677  0.40016577  0.50182131  1
  Hf  Hf17  1  0.37901976  0.60018618  0.26175649  1
  Hf  Hf18  1  0.02331989  0.20058708  0.01647647  1
  Hf  Hf19  1  0.82323046  0.19961404  -0.01132037  1
  Hf  Hf20  1  0.21188147  0.80755472  0.25230951  1
  Hf  Hf21  1  0.59456572  -0.01971850  0.24850056  1
  Hf  Hf22  1  0.78242414  0.21223101  0.48606413  1
  Hf  Hf23  1  0.10799895  0.09894501  0.37128828  1
  Hf  Hf24  1  0.60592677  0.78660795  0.49412384  1
  Hf  Hf25  1  0.40627745  0.40345146  0.74411868  1
  Hf  Hf26  1  0.19359322  0.01081665  -0.00232974  1
  Hf  Hf27  1  0.69963088  0.09896330  0.62364031  1
  Hf  Hf28  1  0.21030247  0.40163036  0.73682668  1
  Hf  Hf29  1  0.10750834  0.50130284  0.87215544  1
  Hf  Hf30  1  0.70274102  0.90061464  0.38631642  1
  Hf  Hf31  1  0.10617481  0.90478628  0.12196378  1
  Hf  Hf32  1  0.70999281  0.50468210  0.12167656  1
  Hf  Hf33  1  0.57770296  0.60468334  0.74836458  1
  Hf  Hf34  1  0.19069592  0.59299629  0.00967276  1
  Hf  Hf35  1  0.30795799  0.89381268  0.61110593  1
  Hf  Hf36  1  0.48872807  0.50878024  0.88263359  1
  Hf  Hf37  1  0.60801175  -0.00831117  0.00755458  1
  Hf  Hf38  1  0.19845639  0.79511731  0.75577132  1
  Hf  Hf39  1  0.67705663  0.71359205  0.13518713  1
  Zr  Zr40  1  0.00299004  0.79006986  0.26649203  1
  Zr  Zr41  1  0.51653860  0.28182414  0.38269257  1
  Zr  Zr42  1  0.90212517  0.29136688  0.62687461  1
  Zr  Zr43  1  0.61595790  0.19528700  -0.00248264  1
  Zr  Zr44  1  -0.01656166  0.60468778  -0.00539239  1
  Zr  Zr45  1  0.78854222  0.80084629  0.25346701  1
  Zr  Zr46  1  0.79713321  0.79683834  0.00068024  1
  Zr  Zr47  1  0.29125186  0.72509896  0.38975850  1
  Zr  Zr48  1  -0.00151635  0.40076791  -0.01041342  1
  Zr  Zr49  1  0.49781472  0.09026646  0.12750575  1
  Zr  Zr50  1  0.69750844  0.29337681  0.86342197  1
  Zr  Zr51  1  0.68541605  0.71143202  0.86377214  1
  Zr  Zr52  1  0.19558166  -0.00223721  0.74016906  1
  Zr  Zr53  1  0.20885245  0.40928669  0.24289166  1
  Zr  Zr54  1  0.50640391  0.49366721  0.38014322  1
  Zr  Zr55  1  0.20197049  0.01904218  0.51320190  1
  Zr  Zr56  1  0.68277405  0.11077295  0.36742483  1
  Zr  Zr57  1  0.80399941  -0.00191329  0.02035374  1
  Zr  Zr58  1  0.17449486  0.60553159  0.49211537  1
  Zr  Zr59  1  0.09285484  0.70165309  0.12854566  1
  Zr  Zr60  1  0.19918555  0.20754405  0.73428286  1
  Zr  Zr61  1  0.40972268  0.78989894  0.75229106  1
  Zr  Zr62  1  0.30218921  0.89691033  0.87743349  1
  Zr  Zr63  1  0.58529607  0.60575730  0.00232465  1
  Zr  Zr64  1  0.38958189  0.58505797  0.48221335  1
  Zr  Zr65  1  0.30104137  0.10917125  0.87317001  1
  Zr  Zr66  1  0.69548273  0.71282805  0.63415874  1
  Zr  Zr67  1  0.62693008  0.39631833  0.25502343  1
  Zr  Zr68  1  0.08432598  0.10082237  0.86744584  1
  Zr  Zr69  1  0.41336548  -0.00051070  0.74767010  1
  Zr  Zr70  1  0.71134420  0.50991073  0.63709277  1
  Zr  Zr71  1  0.01147645  0.39873810  0.73936566  1
  Zr  Zr72  1  0.80457887  0.40493643  -0.01926506  1
  Zr  Zr73  1  0.79551922  0.82314561  0.75476575  1
  Zr  Zr74  1  0.30980857  0.51369773  0.62164975  1
  Zr  Zr75  1  0.00805446  -0.00546011  0.25341594  1
  Zr  Zr76  1  -0.00186563  0.20478963  0.49291560  1
  Zr  Zr77  1  0.40550531  0.19427774  -0.00004795  1
  Zr  Zr78  1  0.80145475  0.00000970  0.24240878  1
  Zr  Zr79  1  0.08452141  0.69951321  0.63288769  1
  Ta  Ta80  1  0.49309319  0.89317086  0.39000567  1
  Ta  Ta81  1  0.51627378  0.30536388  0.11795876  1
  Ta  Ta82  1  0.61561434  -0.01648857  0.74522158  1
  Ta  Ta83  1  0.08299467  0.50384709  0.36575199  1
  Ta  Ta84  1  0.19695818  0.79610779  -0.00881861  1
  Ta  Ta85  1  0.21305282  0.00581017  0.25009310  1
  Ta  Ta86  1  0.51128884  0.89866903  0.60999608  1
  Ta  Ta87  1  0.07299983  0.49340085  0.13844692  1
  Ta  Ta88  1  0.69446305  0.50264809  0.86189547  1
  Ta  Ta89  1  0.59771261  0.01039037  0.49760974  1
  Ta  Ta90  1  0.40575951  0.20747072  0.74804288  1
  Ta  Ta91  1  0.90369868  0.11562562  0.13852308  1
  Ta  Ta92  1  0.58519599  0.59577156  0.24572602  1
  Ta  Ta93  1  0.89408421  0.91719412  0.88048093  1
  Ta  Ta94  1  0.41170560  -0.01216471  -0.00793228  1
  Ta  Ta95  1  0.09404685  0.89339813  0.62150160  1
  Ta  Ta96  1  0.48189671  0.08364228  0.37660156  1
  Ta  Ta97  1  0.89933960  0.88334508  0.60956703  1
  Ta  Ta98  1  0.01807236  0.40766394  0.51516567  1
  Ta  Ta99  1  0.30477054  0.29800109  0.11494250  1
  Ta  Ta100  1  0.29271903  0.09628730  0.11848883  1
  Ta  Ta101  1  0.00426053  0.20958014  0.24867975  1
  Ta  Ta102  1  0.11090621  0.29712042  0.87515157  1
  Ta  Ta103  1  0.88508950  0.67232952  0.36642468  1
  Ta  Ta104  1  0.50756744  0.87502947  0.12498445  1
  Ta  Ta105  1  0.80676817  0.39804572  0.75890841  1
  Ta  Ta106  1  0.30988004  0.92614969  0.39169040  1
  Ta  Ta107  1  0.29744604  0.49338696  0.88431713  1
  Ta  Ta108  1  0.90097234  0.51554243  0.85230098  1
  Ta  Ta109  1  -0.00276307  0.80745532  -0.00807227  1
  Ta  Ta110  1  0.51471407  0.08918424  0.87054934  1
  Ta  Ta111  1  0.72034740  0.30097380  0.12169912  1
  Ta  Ta112  1  0.20112466  0.20197527  0.23642516  1
  Ta  Ta113  1  0.90994942  0.31821275  0.13081014  1
  Ta  Ta114  1  0.40818859  0.78304611  -0.00743393  1
  Ta  Ta115  1  0.80317116  0.22580017  0.25971928  1
  Ta  Ta116  1  0.29737870  0.30909703  0.88661339  1
  Ta  Ta117  1  0.29784041  0.68252011  0.88251260  1
  Ta  Ta118  1  0.70515682  0.11046569  0.13676283  1
  Ta  Ta119  1  0.00416010  0.78461183  0.48619692  1
  Ti  Ti120  1  0.89860381  0.89151289  0.38424887  1
  Ti  Ti121  1  0.29482671  0.70342365  0.12030736  1
  Ti  Ti122  1  0.19430445  0.59907353  0.74788218  1
  Ti  Ti123  1  0.19435852  0.39174735  0.01511114  1
  Ti  Ti124  1  0.29612260  0.11571272  0.37512428  1
  Ti  Ti125  1  0.08020090  0.11097100  0.62927768  1
  Ti  Ti126  1  0.09096079  0.90016226  0.87707227  1
  Ti  Ti127  1  0.82235875  0.41688921  0.26221256  1
  Ti  Ti128  1  0.09236766  0.69992255  0.87281361  1
  Ti  Ti129  1  0.59412432  0.40130946  0.74433889  1
  Ti  Ti130  1  0.38444006  0.59948372  0.75259738  1
  Ti  Ti131  1  0.59491938  0.18940734  0.75342206  1
  Ti  Ti132  1  0.79334067  0.60200781  -0.01846872  1
  Ti  Ti133  1  0.88750014  0.08606311  0.60752205  1
  Ti  Ti134  1  0.68932647  0.68520370  0.36711135  1
  Ti  Ti135  1  0.71594470  0.07455516  0.86932391  1
  Ti  Ti136  1  0.18349485  0.60807995  0.25686883  1
  Ti  Ti137  1  0.47919957  0.68681332  0.13153191  1
  Ti  Ti138  1  -0.00628120  0.00542450  0.01139952  1
  Ti  Ti139  1  0.28727817  0.70699840  0.60976015  1
  Ti  Ti140  1  0.31125637  0.10413470  0.63018580  1
  Ti  Ti141  1  0.50498378  0.10213499  0.62467788  1
  Ti  Ti142  1  0.39556510  -0.00925856  0.24841841  1
  Ti  Ti143  1  0.71212128  0.90769954  0.60508002  1
  Ti  Ti144  1  0.88708229  0.68806802  0.63974494  1
  Ti  Ti145  1  -0.00784913  0.79988183  0.76071101  1
  Ti  Ti146  1  0.31382668  0.31146265  0.37176249  1
  Ti  Ti147  1  0.49918817  0.30146366  0.61753884  1
  Ti  Ti148  1  0.40472476  0.40932503  0.01335540  1
  Ti  Ti149  1  0.59783496  0.80221121  -0.00283793  1
  Ti  Ti150  1  0.51715249  0.88941288  0.87181818  1
  Ti  Ti151  1  0.90484918  0.88798430  0.12788455  1
  Ti  Ti152  1  0.49780231  0.69747353  0.37966359  1
  Ti  Ti153  1  0.30620727  0.50854570  0.12040282  1
  Ti  Ti154  1  0.60156921  0.20375812  0.24191949  1
  Ti  Ti155  1  0.80975968  0.77960984  0.49454609  1
  Ti  Ti156  1  0.60498374  0.40401415  0.00169851  1
  Ti  Ti157  1  0.19639076  0.21082724  0.51699224  1
  Ti  Ti158  1  0.11840882  0.89135632  0.38437773  1
  Ti  Ti159  1  0.40950902  0.80232529  0.25576696  1
  Mo  Mo160  1  0.39970902  0.80159130  0.49867953  1
  Mo  Mo161  1  0.48762168  0.70208011  0.87402331  1
  Mo  Mo162  1  0.60723765  0.59660316  0.49894831  1
  Mo  Mo163  1  0.40802411  0.39411924  0.50407395  1
  Mo  Mo164  1  0.71123587  0.31128203  0.37345486  1
  Mo  Mo165  1  0.90412699  0.71183580  0.87009511  1
  Mo  Mo166  1  0.90249520  0.49496583  0.37865803  1
  Mo  Mo167  1  0.58167975  0.78892097  0.26555793  1
  Mo  Mo168  1  0.90163315  0.50989437  0.64831830  1
  Mo  Mo169  1  0.90688233  0.09480413  0.88367587  1
  Mo  Mo170  1  0.71167269  0.51506340  0.37461577  1
  Mo  Mo171  1  0.18751184  0.81202634  0.50368107  1
  Mo  Mo172  1  0.58849913  0.81077475  0.73694001  1
  Mo  Mo173  1  0.50745522  0.49286768  0.61619474  1
  Mo  Mo174  1  0.10267059  0.09949875  0.13574973  1
  Mo  Mo175  1  0.40750262  0.00847672  0.50859176  1
  Mo  Mo176  1  0.80194753  -0.00266490  0.74070245  1
  Mo  Mo177  1  0.31340984  0.29633002  0.62316389  1
  Mo  Mo178  1  0.88805758  0.49300220  0.12136453  1
  Mo  Mo179  1  0.78191125  0.60922629  0.50052445  1
  Mo  Mo180  1  0.78149808  0.58912069  0.25178900  1
  Mo  Mo181  1  0.00527066  0.20071537  0.74877116  1
  Mo  Mo182  1  -0.00233048  0.39231094  0.25517446  1
  Mo  Mo183  1  0.20378894  0.20786863  0.00627247  1
  Mo  Mo184  1  0.08855731  0.69722755  0.37239481  1
  Mo  Mo185  1  0.69380716  0.90718738  0.87734589  1
  Mo  Mo186  1  0.50037587  0.49853888  0.12540574  1
  Mo  Mo187  1  0.69079201  0.89811084  0.13131086  1
  Mo  Mo188  1  0.28504701  0.48904455  0.36546049  1
  Mo  Mo189  1  -0.01298119  0.58364281  0.25317777  1
  Mo  Mo190  1  0.91383192  0.30906679  0.37412754  1
  Mo  Mo191  1  0.00330174  0.60856094  0.75442696  1
  Mo  Mo192  1  0.92084419  0.29630492  0.86470125  1
  Mo  Mo193  1  0.10667263  0.30394358  0.13112837  1
  Mo  Mo194  1  0.59270861  0.19738267  0.50408906  1
  Mo  Mo195  1  0.80205723  -0.00598599  0.49553440  1
  Mo  Mo196  1  0.10537062  0.30150441  0.61453001  1
  Mo  Mo197  1  0.38651528  0.59688783  0.00749329  1
  Mo  Mo198  1  0.10151796  0.50499304  0.62718543  1
  Mo  Mo199  1  0.79795462  0.60785982  0.76256941  1
