# generated using pymatgen
data_HfZrTaTiMo
_symmetry_space_group_name_H-M   'P 1'
_cell_length_a   15.19532420
_cell_length_b   15.19965967
_cell_length_c   16.79499617
_cell_angle_alpha   89.99778406
_cell_angle_beta   90.08465513
_cell_angle_gamma   90.00478677
_symmetry_Int_Tables_number   1
_chemical_formula_structural   HfZrTaTiMo
_chemical_formula_sum   'Hf40 Zr40 Ta40 Ti40 Mo40'
_cell_volume   3879.03115424
_cell_formula_units_Z   40
loop_
 _symmetry_equiv_pos_site_id
 _symmetry_equiv_pos_as_xyz
  1  'x, y, z'
loop_
 _atom_site_type_symbol
 _atom_site_label
 _atom_site_symmetry_multiplicity
 _atom_site_fract_x
 _atom_site_fract_y
 _atom_site_fract_z
 _atom_site_occupancy
  Hf  Hf0  1  0.30549687  0.30962429  0.64040725  1
  Hf  Hf1  1  0.49789085  0.89527059  0.13898636  1
  Hf  Hf2  1  0.80743604  0.00338490  0.01714419  1
  Hf  Hf3  1  0.89592139  0.50425820  0.37155012  1
  Hf  Hf4  1  0.31376716  0.90420012  0.86959385  1
  Hf  Hf5  1  0.38921660  0.00361897  0.49524540  1
  Hf  Hf6  1  0.28868775  0.31303711  0.14503036  1
  Hf  Hf7  1  0.60431320  0.59799103  0.25286341  1
  Hf  Hf8  1  0.00366054  0.18906224  0.50112105  1
  Hf  Hf9  1  0.09213129  0.69047785  0.36683249  1
  Hf  Hf10  1  0.20434314  0.78516712  0.76050353  1
  Hf  Hf11  1  0.29037916  0.10810635  0.14052607  1
  Hf  Hf12  1  0.19960198  0.79713297  0.49050772  1
  Hf  Hf13  1  -0.00141887  0.79002305  -0.01934142  1
  Hf  Hf14  1  0.49725513  0.49991681  0.62085072  1
  Hf  Hf15  1  0.69532283  0.30802817  0.61452696  1
  Hf  Hf16  1  0.21898427  0.19763044  0.49131068  1
  Hf  Hf17  1  0.70324115  0.30831650  0.38541576  1
  Hf  Hf18  1  0.50835703  0.89907420  0.62055127  1
  Hf  Hf19  1  0.31340217  0.28650277  0.35637887  1
  Hf  Hf20  1  0.80504849  0.20523168  0.24771595  1
  Hf  Hf21  1  0.30974279  0.68926423  0.87696542  1
  Hf  Hf22  1  0.77890637  0.19848122  0.74187481  1
  Hf  Hf23  1  0.87374504  0.09605897  0.87167914  1
  Hf  Hf24  1  0.89410530  0.71115305  0.36723991  1
  Hf  Hf25  1  0.90508614  0.89586705  0.64296455  1
  Hf  Hf26  1  0.37642616  0.40546641  0.00363414  1
  Hf  Hf27  1  0.11442183  0.89652240  0.11534538  1
  Hf  Hf28  1  0.50050021  0.29702640  0.63031143  1
  Hf  Hf29  1  0.91225092  0.50243892  0.86719981  1
  Hf  Hf30  1  0.09325171  0.29437615  0.13826219  1
  Hf  Hf31  1  0.60391912  0.00273308  0.00410277  1
  Hf  Hf32  1  0.70856796  0.92200504  0.86536702  1
  Hf  Hf33  1  0.00691946  0.79127997  0.77576116  1
  Hf  Hf34  1  0.69704661  0.88910022  0.13663759  1
  Hf  Hf35  1  0.39499728  0.58908812  0.74334935  1
  Hf  Hf36  1  0.40638716  0.80506193  -0.00073307  1
  Hf  Hf37  1  0.69929109  0.10264195  0.38065271  1
  Hf  Hf38  1  0.07235923  0.90392533  0.38377030  1
  Hf  Hf39  1  0.09914831  0.69679013  0.12794116  1
  Zr  Zr40  1  0.71575668  0.89347152  0.36240351  1
  Zr  Zr41  1  0.51337914  0.49595691  0.11532522  1
  Zr  Zr42  1  0.50893068  0.10376212  0.87621114  1
  Zr  Zr43  1  0.48111798  0.30227074  0.86789587  1
  Zr  Zr44  1  0.59048372  0.21930414  0.25239954  1
  Zr  Zr45  1  0.70645191  0.50836597  0.63400987  1
  Zr  Zr46  1  0.21557613  0.59477363  0.24816187  1
  Zr  Zr47  1  0.19299098  0.00252343  0.26620338  1
  Zr  Zr48  1  0.48786467  0.12285028  0.38385131  1
  Zr  Zr49  1  0.90527653  0.08425174  0.37635186  1
  Zr  Zr50  1  0.68749632  0.28974387  0.88977438  1
  Zr  Zr51  1  0.19551909  0.58777632  0.49275700  1
  Zr  Zr52  1  0.60367825  0.40956166  0.75991967  1
  Zr  Zr53  1  0.30797629  0.71013265  0.12651818  1
  Zr  Zr54  1  0.09632952  0.08999148  0.63049817  1
  Zr  Zr55  1  0.10711267  0.48592028  0.13916950  1
  Zr  Zr56  1  0.61025767  0.02131382  0.74294085  1
  Zr  Zr57  1  0.60973643  0.80258810  0.49482768  1
  Zr  Zr58  1  0.38640148  0.19597602  0.00212097  1
  Zr  Zr59  1  -0.00791409  0.00267459  0.23237227  1
  Zr  Zr60  1  0.00560103  -0.00629141  -0.01149332  1
  Zr  Zr61  1  0.09320756  0.48649211  0.36410746  1
  Zr  Zr62  1  0.27227667  0.30236124  0.85359301  1
  Zr  Zr63  1  0.81248304  -0.00760203  0.51053949  1
  Zr  Zr64  1  0.10130359  0.88763567  0.62264559  1
  Zr  Zr65  1  -0.01207823  0.19931718  0.74746817  1
  Zr  Zr66  1  0.29641988  0.69076937  0.61812082  1
  Zr  Zr67  1  0.21392755  0.01061023  -0.00976403  1
  Zr  Zr68  1  0.80137739  0.60333890  0.50368218  1
  Zr  Zr69  1  0.01432929  0.40225488  0.75039314  1
  Zr  Zr70  1  0.10781129  0.30272049  0.61993098  1
  Zr  Zr71  1  0.68768021  0.31482689  0.11117681  1
  Zr  Zr72  1  -0.00770822  0.79997572  0.24232458  1
  Zr  Zr73  1  0.49439515  0.09899306  0.13382598  1
  Zr  Zr74  1  0.00603459  0.58837674  0.00230572  1
  Zr  Zr75  1  0.30595429  0.89780349  0.62364797  1
  Zr  Zr76  1  0.79783562  0.79757680  -0.01594483  1
  Zr  Zr77  1  0.19998626  -0.00339556  0.75915206  1
  Zr  Zr78  1  -0.01371762  0.19479722  0.00232566  1
  Zr  Zr79  1  0.69642060  0.70578432  0.64055544  1
  Ta  Ta80  1  0.30247413  0.10841117  0.63465627  1
  Ta  Ta81  1  0.49722909  0.10817430  0.61090820  1
  Ta  Ta82  1  0.89640601  0.30787466  0.61883727  1
  Ta  Ta83  1  0.41712203  0.79158676  0.75008993  1
  Ta  Ta84  1  0.89740340  0.49332840  0.12277645  1
  Ta  Ta85  1  0.30466631  0.90573437  0.13089782  1
  Ta  Ta86  1  0.60814419  0.60632328  -0.01650980  1
  Ta  Ta87  1  0.49341684  0.50557981  0.88184024  1
  Ta  Ta88  1  0.49857433  0.90001075  0.37335957  1
  Ta  Ta89  1  0.79331993  0.40625197  0.24901130  1
  Ta  Ta90  1  0.80046816  0.60232476  -0.01813704  1
  Ta  Ta91  1  0.18866296  0.21802846  -0.00182944  1
  Ta  Ta92  1  0.49718139  0.70188510  0.38300739  1
  Ta  Ta93  1  0.69754968  0.10277059  0.13517314  1
  Ta  Ta94  1  0.89332956  0.29965340  0.87944238  1
  Ta  Ta95  1  0.29065305  0.49875521  0.87071757  1
  Ta  Ta96  1  -0.00266908  -0.00504874  0.77109489  1
  Ta  Ta97  1  0.41272599  0.40682935  0.25007812  1
  Ta  Ta98  1  0.19873326  0.79410718  -0.01485123  1
  Ta  Ta99  1  0.49854745  0.70133532  0.61519320  1
  Ta  Ta100  1  0.79774163  0.59706516  0.24655933  1
  Ta  Ta101  1  0.88757850  0.68888224  0.12416448  1
  Ta  Ta102  1  0.60019904  0.79728942  -0.00857535  1
  Ta  Ta103  1  0.80656922  0.20349444  0.50498140  1
  Ta  Ta104  1  0.80646424  0.79674037  0.50827918  1
  Ta  Ta105  1  0.20520910  0.80432798  0.26099399  1
  Ta  Ta106  1  0.10714873  0.11835163  0.86931910  1
  Ta  Ta107  1  0.49886856  0.50500021  0.37837203  1
  Ta  Ta108  1  0.79966881  0.79596318  0.76785894  1
  Ta  Ta109  1  0.21468548  0.58304968  0.01074783  1
  Ta  Ta110  1  0.71015168  0.51010372  0.11029362  1
  Ta  Ta111  1  0.90644155  0.30313100  0.38322209  1
  Ta  Ta112  1  0.31041341  0.69740805  0.37660035  1
  Ta  Ta113  1  -0.00045127  0.19653173  0.25500073  1
  Ta  Ta114  1  0.69239239  0.10646496  0.60559804  1
  Ta  Ta115  1  0.59765526  0.40804197  0.49178284  1
  Ta  Ta116  1  0.51031673  0.89507473  0.86546936  1
  Ta  Ta117  1  0.40823969  0.60333231  0.00326111  1
  Ta  Ta118  1  0.19050078  0.00651524  0.48830450  1
  Ta  Ta119  1  0.39682187  0.39361635  0.49251997  1
  Ti  Ti120  1  0.89865096  0.88526282  0.12033381  1
  Ti  Ti121  1  0.30401121  0.89502081  0.37826371  1
  Ti  Ti122  1  0.09826283  0.10316811  0.12186579  1
  Ti  Ti123  1  0.00107908  0.40569300  0.50500854  1
  Ti  Ti124  1  0.11241546  0.50376804  0.62445874  1
  Ti  Ti125  1  0.69940773  0.69657952  0.12071440  1
  Ti  Ti126  1  0.59860919  0.61677860  0.77055533  1
  Ti  Ti127  1  0.40911750  0.00088220  0.74300792  1
  Ti  Ti128  1  0.20532685  0.39728867  0.49114583  1
  Ti  Ti129  1  0.60642064  0.41055480  0.26008483  1
  Ti  Ti130  1  0.89285214  0.30175160  0.11988957  1
  Ti  Ti131  1  0.70185263  0.69240567  0.37332820  1
  Ti  Ti132  1  -0.01612326  0.39320706  0.25071713  1
  Ti  Ti133  1  0.80178543  0.40652606  -0.00940662  1
  Ti  Ti134  1  0.40559887  -0.00145942  0.00074546  1
  Ti  Ti135  1  0.80678956  0.40927531  0.50139506  1
  Ti  Ti136  1  0.51126306  0.70175511  0.12395370  1
  Ti  Ti137  1  0.59910524  0.00360000  0.25834237  1
  Ti  Ti138  1  0.59832504  0.79128110  0.25861534  1
  Ti  Ti139  1  0.90690299  0.50447109  0.63881763  1
  Ti  Ti140  1  0.30763761  0.11257437  0.85608394  1
  Ti  Ti141  1  0.70561346  0.90167283  0.63679433  1
  Ti  Ti142  1  0.10824289  0.66147712  0.87309291  1
  Ti  Ti143  1  0.60301156  0.60041231  0.49508604  1
  Ti  Ti144  1  0.39900413  0.59528131  0.49897542  1
  Ti  Ti145  1  0.80309954  0.40146401  0.75673425  1
  Ti  Ti146  1  0.00881823  0.39016242  -0.00462820  1
  Ti  Ti147  1  0.60124942  0.00146648  0.49501525  1
  Ti  Ti148  1  0.78762448  0.19566130  0.01080279  1
  Ti  Ti149  1  0.39619169  0.00333184  0.26446322  1
  Ti  Ti150  1  -0.00551105  0.60028283  0.51064078  1
  Ti  Ti151  1  0.89851078  0.69294752  0.64487488  1
  Ti  Ti152  1  0.10178312  0.29365578  0.36753746  1
  Ti  Ti153  1  0.80529557  -0.00541961  0.24007418  1
  Ti  Ti154  1  -0.01177147  0.79582186  0.50514598  1
  Ti  Ti155  1  0.41066217  0.60262623  0.24765059  1
  Ti  Ti156  1  0.49321532  0.29951455  0.11635534  1
  Ti  Ti157  1  0.30609202  0.49485950  0.36889949  1
  Ti  Ti158  1  0.40012404  0.79861400  0.25740664  1
  Ti  Ti159  1  0.09028558  0.69119201  0.63108930  1
  Mo  Mo160  1  0.40112331  0.20241982  0.24149787  1
  Mo  Mo161  1  0.11417982  0.48554998  0.88038850  1
  Mo  Mo162  1  0.50033315  0.31762887  0.37750102  1
  Mo  Mo163  1  0.69789054  0.10889956  0.88397393  1
  Mo  Mo164  1  0.59787438  0.80717421  0.74889973  1
  Mo  Mo165  1  0.89488972  0.10745144  0.12950057  1
  Mo  Mo166  1  0.89428335  0.10116978  0.62929114  1
  Mo  Mo167  1  0.59653142  0.19939397  0.01510088  1
  Mo  Mo168  1  0.39776511  0.20560677  0.50567872  1
  Mo  Mo169  1  0.90089037  0.69008221  0.86621806  1
  Mo  Mo170  1  0.18699665  0.19572315  0.26026525  1
  Mo  Mo171  1  0.89973073  0.90140264  0.86725541  1
  Mo  Mo172  1  0.19191772  0.20048211  0.74577473  1
  Mo  Mo173  1  0.59640862  0.20061849  0.74119551  1
  Mo  Mo174  1  0.80262944  0.59767179  0.76518069  1
  Mo  Mo175  1  0.20129591  0.39748001  0.26543831  1
  Mo  Mo176  1  0.08496667  0.30408762  0.87540394  1
  Mo  Mo177  1  0.70308404  0.49949749  0.88011557  1
  Mo  Mo178  1  0.69999591  0.50385521  0.37732917  1
  Mo  Mo179  1  0.20501841  0.41716647  0.74219473  1
  Mo  Mo180  1  0.09785495  0.10645879  0.37917260  1
  Mo  Mo181  1  0.49929606  0.70287902  0.87471004  1
  Mo  Mo182  1  0.00928279  0.59852399  0.74251785  1
  Mo  Mo183  1  0.60070123  0.20557517  0.49607436  1
  Mo  Mo184  1  0.19089306  0.39936227  0.00255526  1
  Mo  Mo185  1  0.40225774  0.40772510  0.75497091  1
  Mo  Mo186  1  0.29836028  0.09253696  0.36812069  1
  Mo  Mo187  1  0.31180032  0.50409061  0.13255663  1
  Mo  Mo188  1  0.29999392  0.49285641  0.61213302  1
  Mo  Mo189  1  0.69388934  0.70600948  0.86615575  1
  Mo  Mo190  1  0.80699756  0.00660318  0.73302676  1
  Mo  Mo191  1  0.79003961  0.78902997  0.23808692  1
  Mo  Mo192  1  -0.01391398  0.59097863  0.23661163  1
  Mo  Mo193  1  0.19324008  0.59097649  0.74446810  1
  Mo  Mo194  1  0.40231253  0.18902120  0.74575215  1
  Mo  Mo195  1  0.40413879  0.79470001  0.49074263  1
  Mo  Mo196  1  0.10996149  0.90093605  0.88350509  1
  Mo  Mo197  1  0.59259608  0.41213728  -0.00982519  1
  Mo  Mo198  1  0.89220729  0.89187168  0.37552267  1
  Mo  Mo199  1  0.00082640  -0.01023370  0.50814577  1
