# generated using pymatgen
data_HfZrTaTiMo
_symmetry_space_group_name_H-M   'P 1'
_cell_length_a   15.21917100
_cell_length_b   15.21300250
_cell_length_c   16.82263721
_cell_angle_alpha   89.96414112
_cell_angle_beta   89.97178285
_cell_angle_gamma   89.97495500
_symmetry_Int_Tables_number   1
_chemical_formula_structural   HfZrTaTiMo
_chemical_formula_sum   'Hf40 Zr40 Ta40 Ti40 Mo40'
_cell_volume   3894.93158262
_cell_formula_units_Z   40
loop_
 _symmetry_equiv_pos_site_id
 _symmetry_equiv_pos_as_xyz
  1  'x, y, z'
loop_
 _atom_site_type_symbol
 _atom_site_label
 _atom_site_symmetry_multiplicity
 _atom_site_fract_x
 _atom_site_fract_y
 _atom_site_fract_z
 _atom_site_occupancy
  Hf  Hf0  1  0.38999259  0.60829715  0.23042069  1
  Hf  Hf1  1  0.50332280  0.70935349  0.36423220  1
  Hf  Hf2  1  0.30265704  0.90348740  0.87174995  1
  Hf  Hf3  1  0.51339859  0.88161405  0.88978839  1
  Hf  Hf4  1  0.88638212  0.49669654  0.60852039  1
  Hf  Hf5  1  -0.01363683  0.41340820  0.26049370  1
  Hf  Hf6  1  0.88194564  0.50841822  0.87383467  1
  Hf  Hf7  1  0.29212901  0.30251935  0.61804319  1
  Hf  Hf8  1  0.40818624  0.00749695  0.74675511  1
  Hf  Hf9  1  0.60860502  -0.00970432  0.50449727  1
  Hf  Hf10  1  0.40577056  0.40079787  0.24112260  1
  Hf  Hf11  1  0.29584812  0.49072340  0.88102246  1
  Hf  Hf12  1  0.10607144  0.91283155  0.12461989  1
  Hf  Hf13  1  0.19760679  0.59713482  0.74037067  1
  Hf  Hf14  1  0.69128172  0.89103070  0.36081847  1
  Hf  Hf15  1  0.29333752  0.30700327  0.37484904  1
  Hf  Hf16  1  0.40262792  0.60721883  0.50905043  1
  Hf  Hf17  1  0.19657288  0.19991644  0.24455644  1
  Hf  Hf18  1  0.89926832  0.10561693  0.13369033  1
  Hf  Hf19  1  0.81500962  -0.00943951  0.76202110  1
  Hf  Hf20  1  0.10959908  0.49991057  0.37901553  1
  Hf  Hf21  1  0.20989460  0.79830037  0.24664459  1
  Hf  Hf22  1  0.20300227  0.00153127  0.50606383  1
  Hf  Hf23  1  0.31343886  0.11193902  0.88293233  1
  Hf  Hf24  1  0.59373522  0.59610784  0.48846705  1
  Hf  Hf25  1  0.61014788  -0.01355518  0.75228281  1
  Hf  Hf26  1  0.09703895  0.69754293  0.13564370  1
  Hf  Hf27  1  0.39216439  0.59032748  0.74235298  1
  Hf  Hf28  1  0.01802161  0.20973146  0.76930848  1
  Hf  Hf29  1  0.80737770  0.01170201  -0.00492672  1
  Hf  Hf30  1  0.00089612  0.79862192  0.26390032  1
  Hf  Hf31  1  0.71057465  0.69046993  0.37060354  1
  Hf  Hf32  1  0.69556384  0.69364308  0.89815356  1
  Hf  Hf33  1  0.40784401  0.82082687  0.22647663  1
  Hf  Hf34  1  0.60961151  0.18961859  -0.01178424  1
  Hf  Hf35  1  0.88380294  0.31153688  0.13541556  1
  Hf  Hf36  1  0.39545725  0.40995821  0.49856817  1
  Hf  Hf37  1  0.89384552  0.71552836  0.87500194  1
  Hf  Hf38  1  0.81371926  0.59169055  0.24333894  1
  Hf  Hf39  1  0.81029356  0.19405005  0.76435966  1
  Zr  Zr40  1  0.69972480  0.29652497  0.37029326  1
  Zr  Zr41  1  0.20708264  0.22150235  -0.00139932  1
  Zr  Zr42  1  0.00412185  0.80004797  0.00127709  1
  Zr  Zr43  1  0.30935213  0.09429808  0.38230973  1
  Zr  Zr44  1  0.79963982  0.21256271  -0.00739554  1
  Zr  Zr45  1  0.19053562  0.79974294  0.74548477  1
  Zr  Zr46  1  -0.00768401  0.40716088  0.74859093  1
  Zr  Zr47  1  0.00560038  0.00924247  0.76329773  1
  Zr  Zr48  1  0.58482213  -0.00805546  0.24271834  1
  Zr  Zr49  1  0.51350448  0.49488826  0.11228862  1
  Zr  Zr50  1  -0.00858568  0.19305011  0.48667752  1
  Zr  Zr51  1  0.60341013  0.39668741  0.49609240  1
  Zr  Zr52  1  0.80846069  0.00081854  0.50044800  1
  Zr  Zr53  1  0.50573044  0.09176488  0.11673593  1
  Zr  Zr54  1  0.59152575  0.61178228  0.74904564  1
  Zr  Zr55  1  0.10023652  0.10774269  0.62270051  1
  Zr  Zr56  1  0.39947942  0.18769524  0.24538464  1
  Zr  Zr57  1  0.20878595  0.59589610  0.51111541  1
  Zr  Zr58  1  0.08907125  0.29997680  0.13152951  1
  Zr  Zr59  1  0.00265033  0.61906740  0.74522870  1
  Zr  Zr60  1  0.71473835  0.88669808  0.88727635  1
  Zr  Zr61  1  0.49895073  0.29094361  0.62623340  1
  Zr  Zr62  1  0.79436488  0.19859371  0.50261303  1
  Zr  Zr63  1  -0.00783501  0.61848725  0.48477831  1
  Zr  Zr64  1  0.09088020  0.50930055  0.87835496  1
  Zr  Zr65  1  0.70007740  0.66805150  0.11409636  1
  Zr  Zr66  1  0.89497807  0.72705132  0.62342808  1
  Zr  Zr67  1  0.09879775  0.49135290  0.61145438  1
  Zr  Zr68  1  0.20098848  0.80298488  0.50162527  1
  Zr  Zr69  1  0.18899254  0.61101733  0.00144376  1
  Zr  Zr70  1  0.68323275  0.71220844  0.61019437  1
  Zr  Zr71  1  0.59482777  0.19248584  0.76600900  1
  Zr  Zr72  1  0.30099910  0.70639785  0.37392799  1
  Zr  Zr73  1  0.39094500  0.78857159  0.01523637  1
  Zr  Zr74  1  0.49478074  0.67869980  0.90006324  1
  Zr  Zr75  1  0.41987489  0.79228113  0.74875382  1
  Zr  Zr76  1  0.70844103  0.30621311  0.63708870  1
  Zr  Zr77  1  0.49395643  0.47889539  0.88005495  1
  Zr  Zr78  1  -0.00444867  0.40349359  0.00367249  1
  Zr  Zr79  1  0.79163980  0.60472144  0.74186214  1
  Ta  Ta80  1  0.10369469  0.09988740  0.37283728  1
  Ta  Ta81  1  0.39713964  -0.00742469  0.00405580  1
  Ta  Ta82  1  0.29344146  0.09421271  0.11252175  1
  Ta  Ta83  1  0.30667121  0.50581112  0.36698809  1
  Ta  Ta84  1  0.80255389  0.80267361  0.48799895  1
  Ta  Ta85  1  0.21431820  0.20508732  0.75848736  1
  Ta  Ta86  1  0.89925384  0.31406759  0.87568402  1
  Ta  Ta87  1  0.49999920  0.49741879  0.62996600  1
  Ta  Ta88  1  0.30607925  0.90651265  0.62916005  1
  Ta  Ta89  1  0.19472371  0.39214874  0.75365542  1
  Ta  Ta90  1  0.49650437  0.29548515  0.37451848  1
  Ta  Ta91  1  -0.00630822  0.39011394  0.48830845  1
  Ta  Ta92  1  0.78648240  0.41731256  0.00685817  1
  Ta  Ta93  1  0.38511951  0.37897273  0.01285848  1
  Ta  Ta94  1  0.21391113  0.00143194  0.24870991  1
  Ta  Ta95  1  0.20438933  0.00734318  0.74449642  1
  Ta  Ta96  1  0.50854632  0.09743782  0.37966160  1
  Ta  Ta97  1  0.19781708  0.20737254  0.49363802  1
  Ta  Ta98  1  0.00010480  -0.00420917  0.48553435  1
  Ta  Ta99  1  0.88963175  0.90632087  0.35700550  1
  Ta  Ta100  1  0.08491753  0.90306377  0.62266473  1
  Ta  Ta101  1  0.09781697  0.29935840  0.61778859  1
  Ta  Ta102  1  0.70350226  0.09279649  0.35864969  1
  Ta  Ta103  1  0.50195849  0.29118529  0.11917408  1
  Ta  Ta104  1  0.50456396  0.09539981  0.62201540  1
  Ta  Ta105  1  0.87373263  0.50214127  0.39162814  1
  Ta  Ta106  1  0.20287552  0.81001099  0.00343893  1
  Ta  Ta107  1  0.60088036  0.38198342  -0.00603967  1
  Ta  Ta108  1  0.80056618  0.79561853  0.23216217  1
  Ta  Ta109  1  -0.00229997  0.81346104  0.47854303  1
  Ta  Ta110  1  0.90732404  0.29675198  0.62753089  1
  Ta  Ta111  1  0.09728739  0.09948868  0.11679779  1
  Ta  Ta112  1  0.70405234  0.90935367  0.12534187  1
  Ta  Ta113  1  0.80967280  0.79848486  0.02598325  1
  Ta  Ta114  1  0.00983616  0.00649029  0.25683895  1
  Ta  Ta115  1  0.90621575  0.90787884  0.13592164  1
  Ta  Ta116  1  0.60089996  0.57259020  0.25901508  1
  Ta  Ta117  1  0.20377338  0.41132946  0.23864909  1
  Ta  Ta118  1  0.60260972  0.78544491  0.22585571  1
  Ta  Ta119  1  0.10564220  0.90099544  0.87844496  1
  Ti  Ti120  1  0.89342446  0.10026034  0.35732796  1
  Ti  Ti121  1  0.69244934  0.49982389  0.87347053  1
  Ti  Ti122  1  0.31268324  0.90404113  0.37748724  1
  Ti  Ti123  1  0.09842098  0.30103883  0.37010321  1
  Ti  Ti124  1  -0.00378644  0.20204843  0.25689224  1
  Ti  Ti125  1  0.90447115  0.09465058  0.62695828  1
  Ti  Ti126  1  0.00276846  0.60664976  0.26965273  1
  Ti  Ti127  1  0.40585590  0.19647531  0.49774341  1
  Ti  Ti128  1  0.60038459  0.20071646  0.24949291  1
  Ti  Ti129  1  0.00199228  0.00478234  -0.00889091  1
  Ti  Ti130  1  0.19743762  0.41007981  0.01674017  1
  Ti  Ti131  1  0.41388444  0.80595524  0.50753454  1
  Ti  Ti132  1  0.39233694  0.38427280  0.74707682  1
  Ti  Ti133  1  0.11505006  0.10058148  0.88624461  1
  Ti  Ti134  1  -0.01429894  0.82056324  0.75735900  1
  Ti  Ti135  1  0.60020523  0.18870084  0.49778991  1
  Ti  Ti136  1  0.30604774  0.71016667  0.62689040  1
  Ti  Ti137  1  0.40985485  -0.00166738  0.51104312  1
  Ti  Ti138  1  0.68940183  0.29484391  0.13229560  1
  Ti  Ti139  1  0.70281077  0.31395206  0.86432148  1
  Ti  Ti140  1  0.89001925  0.29981265  0.36683372  1
  Ti  Ti141  1  0.70291469  0.09761960  0.63268662  1
  Ti  Ti142  1  0.61046044  -0.00713677  0.00303784  1
  Ti  Ti143  1  0.59808387  0.40437921  0.75000511  1
  Ti  Ti144  1  0.49438802  0.90441661  0.37685763  1
  Ti  Ti145  1  0.69701985  0.50027972  0.62021391  1
  Ti  Ti146  1  0.08927891  0.50665723  0.13600102  1
  Ti  Ti147  1  0.47465948  0.28191143  0.87960919  1
  Ti  Ti148  1  0.38258700  0.58515626  0.01647243  1
  Ti  Ti149  1  0.09298169  0.71108317  0.61673449  1
  Ti  Ti150  1  0.72008049  0.89387514  0.62981143  1
  Ti  Ti151  1  0.00014567  0.20133066  -0.01355770  1
  Ti  Ti152  1  0.51693054  0.88447739  0.62518870  1
  Ti  Ti153  1  0.50725056  0.69038452  0.11057136  1
  Ti  Ti154  1  -0.01829797  0.60367241  0.01048194  1
  Ti  Ti155  1  0.28681048  0.70053521  0.87349192  1
  Ti  Ti156  1  0.30783702  0.10718517  0.62405672  1
  Ti  Ti157  1  0.50416917  0.08495988  0.88465193  1
  Ti  Ti158  1  0.77676348  0.40645041  0.25249603  1
  Ti  Ti159  1  0.11230990  0.90454898  0.37079073  1
  Mo  Mo160  1  0.89323446  0.70760664  0.37530035  1
  Mo  Mo161  1  0.19555864  0.39394021  0.49315073  1
  Mo  Mo162  1  0.90739154  0.90548439  0.62000726  1
  Mo  Mo163  1  0.90974124  0.90141545  0.88837234  1
  Mo  Mo164  1  0.90645108  0.70133774  0.12965493  1
  Mo  Mo165  1  0.10050275  0.71389506  0.87268897  1
  Mo  Mo166  1  0.10876298  0.30828237  0.87888813  1
  Mo  Mo167  1  0.80022972  -0.00145445  0.24566938  1
  Mo  Mo168  1  0.49619348  0.70457846  0.62044021  1
  Mo  Mo169  1  0.28991346  0.49852216  0.12156405  1
  Mo  Mo170  1  0.70564542  0.10630307  0.13983101  1
  Mo  Mo171  1  0.69383153  0.49580974  0.37535477  1
  Mo  Mo172  1  0.29363806  0.69937657  0.12469799  1
  Mo  Mo173  1  0.50839721  0.89422682  0.10810274  1
  Mo  Mo174  1  0.91088527  0.10831035  0.88495414  1
  Mo  Mo175  1  0.30102902  0.29968763  0.13108242  1
  Mo  Mo176  1  0.70323168  0.47561429  0.12900883  1
  Mo  Mo177  1  0.79084281  0.60067636  0.50302766  1
  Mo  Mo178  1  0.40805266  0.19554212  0.00743224  1
  Mo  Mo179  1  0.79099826  0.39979517  0.75186728  1
  Mo  Mo180  1  0.69821314  0.09737942  0.87370566  1
  Mo  Mo181  1  0.81001624  0.59563768  0.00635247  1
  Mo  Mo182  1  0.79156570  0.80472022  0.75237893  1
  Mo  Mo183  1  0.39710578  0.19509364  0.74652050  1
  Mo  Mo184  1  0.60989053  0.57140548  -0.00337984  1
  Mo  Mo185  1  0.59063816  0.38785264  0.25302613  1
  Mo  Mo186  1  0.29768970  0.91126143  0.11800354  1
  Mo  Mo187  1  0.61513721  0.80112407  0.75237031  1
  Mo  Mo188  1  0.30436729  0.30936147  0.87297525  1
  Mo  Mo189  1  0.89981907  0.50435949  0.12901857  1
  Mo  Mo190  1  0.79482213  0.20030814  0.24809664  1
  Mo  Mo191  1  0.39490609  -0.00239538  0.24819133  1
  Mo  Mo192  1  0.10299133  0.70433436  0.37139616  1
  Mo  Mo193  1  0.19661283  0.00467582  -0.00464314  1
  Mo  Mo194  1  0.30440678  0.49058304  0.63370769  1
  Mo  Mo195  1  0.60636109  0.79601569  0.02359199  1
  Mo  Mo196  1  0.49085220  0.49828127  0.36764867  1
  Mo  Mo197  1  0.80428168  0.39379001  0.49869266  1
  Mo  Mo198  1  0.59499684  0.80597337  0.49095992  1
  Mo  Mo199  1  0.19405343  0.59519979  0.25010796  1
