# generated using pymatgen
data_HfZrTaTiMo
_symmetry_space_group_name_H-M   'P 1'
_cell_length_a   15.19648701
_cell_length_b   15.21327643
_cell_length_c   16.84501747
_cell_angle_alpha   90.03193825
_cell_angle_beta   90.00762683
_cell_angle_gamma   90.12061965
_symmetry_Int_Tables_number   1
_chemical_formula_structural   HfZrTaTiMo
_chemical_formula_sum   'Hf40 Zr40 Ta40 Ti40 Mo40'
_cell_volume   3894.36265320
_cell_formula_units_Z   40
loop_
 _symmetry_equiv_pos_site_id
 _symmetry_equiv_pos_as_xyz
  1  'x, y, z'
loop_
 _atom_site_type_symbol
 _atom_site_label
 _atom_site_symmetry_multiplicity
 _atom_site_fract_x
 _atom_site_fract_y
 _atom_site_fract_z
 _atom_site_occupancy
  Hf  Hf0  1  0.37965976  0.40496872  0.77313711  1
  Hf  Hf1  1  0.00285542  0.59815234  0.00577359  1
  Hf  Hf2  1  0.49842905  0.51355250  0.88722056  1
  Hf  Hf3  1  0.91223568  0.89646798  0.87426960  1
  Hf  Hf4  1  0.39351927  0.00573619  0.51679656  1
  Hf  Hf5  1  0.50169462  0.50066031  0.38320550  1
  Hf  Hf6  1  0.30165000  0.90972657  0.12196489  1
  Hf  Hf7  1  0.81695902  0.60102552  0.75715338  1
  Hf  Hf8  1  0.90664612  0.10497363  0.37244747  1
  Hf  Hf9  1  0.31262275  0.09102792  0.87932424  1
  Hf  Hf10  1  0.19563410  0.19995575  0.50037868  1
  Hf  Hf11  1  0.60412096  0.01612866  0.74057252  1
  Hf  Hf12  1  0.70649415  0.90031766  0.61921874  1
  Hf  Hf13  1  0.27844723  0.29745499  0.63205126  1
  Hf  Hf14  1  0.62334464  0.39386918  0.48982863  1
  Hf  Hf15  1  0.80881576  0.20274789  0.00746408  1
  Hf  Hf16  1  0.89085443  0.30272215  0.63316972  1
  Hf  Hf17  1  0.78739803  0.39968031  0.75879466  1
  Hf  Hf18  1  0.81004162  0.20668718  0.25137451  1
  Hf  Hf19  1  0.59438036  0.81266658  0.26233889  1
  Hf  Hf20  1  0.20295756  0.60147684  0.50186740  1
  Hf  Hf21  1  0.80683503  0.61296231  0.00705168  1
  Hf  Hf22  1  0.11974878  0.09943319  0.11626459  1
  Hf  Hf23  1  -0.01038331  0.79507848  0.72626247  1
  Hf  Hf24  1  0.28315757  0.89197732  0.86223897  1
  Hf  Hf25  1  0.17918987  0.39024025  0.77270950  1
  Hf  Hf26  1  0.49118047  0.90064833  0.87554189  1
  Hf  Hf27  1  0.49060072  0.32123340  0.61654776  1
  Hf  Hf28  1  0.39387820  0.19486910  0.23455121  1
  Hf  Hf29  1  0.80408336  -0.01532461  0.00852664  1
  Hf  Hf30  1  0.10223393  0.11872149  0.63579048  1
  Hf  Hf31  1  0.09487334  0.07848426  0.87331781  1
  Hf  Hf32  1  0.51078972  0.10737511  0.88376058  1
  Hf  Hf33  1  0.29020958  0.90394919  0.37497643  1
  Hf  Hf34  1  0.00181146  0.58324058  0.24538196  1
  Hf  Hf35  1  0.31473069  0.70229760  0.63492054  1
  Hf  Hf36  1  0.19517228  -0.00316077  0.52206698  1
  Hf  Hf37  1  0.09907093  0.48295693  0.62652063  1
  Hf  Hf38  1  0.51039339  0.29558909  0.37251264  1
  Hf  Hf39  1  -0.00611915  -0.00251941  0.72798493  1
  Zr  Zr40  1  0.77483204  0.20858093  0.48018584  1
  Zr  Zr41  1  0.00659577  0.00226755  0.25192736  1
  Zr  Zr42  1  0.39834803  0.20216970  0.50902980  1
  Zr  Zr43  1  0.20140143  0.79432870  0.50791940  1
  Zr  Zr44  1  0.39749520  0.41118730  0.25100973  1
  Zr  Zr45  1  0.00050083  0.80131924  0.51739181  1
  Zr  Zr46  1  0.10589994  0.48708603  0.12012262  1
  Zr  Zr47  1  0.20394485  0.40212560  -0.02324691  1
  Zr  Zr48  1  0.31349168  0.49052377  0.61521664  1
  Zr  Zr49  1  0.40140054  -0.00987392  0.24566821  1
  Zr  Zr50  1  0.71592098  0.69311949  0.62193016  1
  Zr  Zr51  1  0.61314458  0.58748385  0.74349605  1
  Zr  Zr52  1  0.58540843  0.39291430  0.75511179  1
  Zr  Zr53  1  0.80169202  0.78953251  0.48405666  1
  Zr  Zr54  1  0.91540516  0.09878623  0.12266582  1
  Zr  Zr55  1  -0.00323457  0.60411231  0.50212450  1
  Zr  Zr56  1  0.10213973  0.70586705  0.36117194  1
  Zr  Zr57  1  0.49743659  0.10344669  0.37239571  1
  Zr  Zr58  1  0.60722157  0.01931280  0.49905252  1
  Zr  Zr59  1  0.27852164  0.29815218  0.11996250  1
  Zr  Zr60  1  0.71248939  0.71355059  0.14531789  1
  Zr  Zr61  1  0.31752559  0.69904276  0.86376651  1
  Zr  Zr62  1  0.10016959  0.49206946  0.37431444  1
  Zr  Zr63  1  0.90175606  0.10102971  0.87743716  1
  Zr  Zr64  1  0.70056904  0.30276862  0.12800311  1
  Zr  Zr65  1  0.09472945  0.89825620  0.12960872  1
  Zr  Zr66  1  0.69863887  0.70373581  0.87817773  1
  Zr  Zr67  1  0.10309242  0.71470943  0.86440317  1
  Zr  Zr68  1  0.29746100  0.69955551  0.13431479  1
  Zr  Zr69  1  0.40003002  0.00838883  0.73288055  1
  Zr  Zr70  1  0.58873861  0.79391036  0.74688903  1
  Zr  Zr71  1  0.59380378  0.61010991  0.01785721  1
  Zr  Zr72  1  0.49246480  0.31567173  0.11615306  1
  Zr  Zr73  1  0.42412951  0.60393916  0.74451613  1
  Zr  Zr74  1  0.29573349  0.30097187  0.37306146  1
  Zr  Zr75  1  -0.01100558  0.20080078  0.50703355  1
  Zr  Zr76  1  0.80638760  0.40808011  0.00065592  1
  Zr  Zr77  1  0.40463723  0.79640789  0.00431437  1
  Zr  Zr78  1  0.70261607  0.90162153  0.87241734  1
  Zr  Zr79  1  0.11030178  0.08981748  0.37643458  1
  Ta  Ta80  1  0.50012187  0.89182499  0.61472253  1
  Ta  Ta81  1  0.59884949  -0.00181794  0.01057306  1
  Ta  Ta82  1  0.49373539  0.30230298  0.89662315  1
  Ta  Ta83  1  0.08559982  0.29237295  0.36905296  1
  Ta  Ta84  1  -0.01047342  0.39550114  0.49822946  1
  Ta  Ta85  1  0.70198611  0.10094672  0.88219444  1
  Ta  Ta86  1  0.89576850  0.30134365  0.86972879  1
  Ta  Ta87  1  0.80071352  -0.00569706  0.74620505  1
  Ta  Ta88  1  -0.01305785  0.79964355  0.00856912  1
  Ta  Ta89  1  0.39227870  0.19799236  0.00732929  1
  Ta  Ta90  1  0.19174194  0.39556599  0.24952259  1
  Ta  Ta91  1  0.80084355  -0.00135743  0.48283887  1
  Ta  Ta92  1  0.20485033  0.59030919  0.75033188  1
  Ta  Ta93  1  0.90448665  0.70268734  0.87583398  1
  Ta  Ta94  1  0.59225884  0.59619953  0.24814564  1
  Ta  Ta95  1  0.69939773  0.50607374  0.13686731  1
  Ta  Ta96  1  0.80063131  0.58245958  0.48814078  1
  Ta  Ta97  1  0.30879461  0.49743763  0.11955254  1
  Ta  Ta98  1  0.18792349  0.79741932  0.00118993  1
  Ta  Ta99  1  -0.00822474  -0.00469269  0.51356847  1
  Ta  Ta100  1  0.49855630  0.09289248  0.11932426  1
  Ta  Ta101  1  0.20756383  0.19637839  0.76912249  1
  Ta  Ta102  1  0.20488753  0.60614800  -0.00380690  1
  Ta  Ta103  1  0.60815930  0.80929665  0.01071758  1
  Ta  Ta104  1  0.68830355  0.28048018  0.62925309  1
  Ta  Ta105  1  0.70055387  0.09658031  0.13563141  1
  Ta  Ta106  1  0.41045328  0.21038640  0.75217239  1
  Ta  Ta107  1  0.68915963  0.29146723  0.88464414  1
  Ta  Ta108  1  0.70280964  0.49736435  0.88543691  1
  Ta  Ta109  1  0.09947418  0.69925104  0.13367982  1
  Ta  Ta110  1  0.60154905  0.00744033  0.25270108  1
  Ta  Ta111  1  0.40248482  0.61090872  0.49041453  1
  Ta  Ta112  1  0.40158260  0.80016493  0.49124503  1
  Ta  Ta113  1  0.19224840  0.19976174  -0.02055029  1
  Ta  Ta114  1  0.90546400  0.89238131  0.36716196  1
  Ta  Ta115  1  0.89273226  0.50161442  0.62196301  1
  Ta  Ta116  1  0.70270802  0.69203312  0.35969204  1
  Ta  Ta117  1  0.88998029  0.88572519  0.14273364  1
  Ta  Ta118  1  0.80732691  0.40432623  0.24682701  1
  Ta  Ta119  1  0.61246238  0.60680278  0.48908513  1
  Ti  Ti120  1  0.51834399  0.12604045  0.62611665  1
  Ti  Ti121  1  0.60171836  0.39909417  0.24856599  1
  Ti  Ti122  1  0.00407001  0.21539247  0.75248578  1
  Ti  Ti123  1  0.08803648  0.51078511  0.87548400  1
  Ti  Ti124  1  0.89775034  0.49013720  0.37091877  1
  Ti  Ti125  1  0.30033143  0.89245576  0.63599359  1
  Ti  Ti126  1  -0.01515502  0.41148663  0.76276209  1
  Ti  Ti127  1  0.21092611  0.59146057  0.25131979  1
  Ti  Ti128  1  0.50852248  0.51046726  0.59899063  1
  Ti  Ti129  1  0.19308138  -0.00801679  0.73953852  1
  Ti  Ti130  1  0.90024147  0.49290386  0.12813054  1
  Ti  Ti131  1  0.40007455  0.60321238  0.25466406  1
  Ti  Ti132  1  0.51100735  0.70519817  0.60720680  1
  Ti  Ti133  1  0.49867477  0.70890744  0.13764415  1
  Ti  Ti134  1  0.19214402  0.19373912  0.24959324  1
  Ti  Ti135  1  0.49887685  0.70043516  0.37464347  1
  Ti  Ti136  1  0.90371605  0.70236784  0.14534718  1
  Ti  Ti137  1  0.79225076  -0.00505148  0.26453889  1
  Ti  Ti138  1  0.09546412  0.90007880  0.37510537  1
  Ti  Ti139  1  0.30002973  0.09805575  0.37190705  1
  Ti  Ti140  1  0.39650566  0.79620921  0.26181680  1
  Ti  Ti141  1  0.30044605  0.50408575  0.37967446  1
  Ti  Ti142  1  0.89783846  0.69147811  0.35580193  1
  Ti  Ti143  1  0.59750013  0.41061169  0.00659790  1
  Ti  Ti144  1  -0.00544920  0.37813033  0.24559263  1
  Ti  Ti145  1  0.78642732  0.19176016  0.75494881  1
  Ti  Ti146  1  0.39606593  0.59480473  0.00605196  1
  Ti  Ti147  1  0.70636203  0.49661937  0.36041069  1
  Ti  Ti148  1  0.87414944  0.09839090  0.61947766  1
  Ti  Ti149  1  0.20207579  -0.00884074  -0.00695580  1
  Ti  Ti150  1  0.00730608  0.59881654  0.74114365  1
  Ti  Ti151  1  0.19274936  0.39325871  0.49504397  1
  Ti  Ti152  1  0.20039190  0.80710020  0.25180873  1
  Ti  Ti153  1  0.70491567  0.48548492  0.61812386  1
  Ti  Ti154  1  0.60294220  0.19801988  0.01208256  1
  Ti  Ti155  1  0.60262673  0.80278157  0.48418176  1
  Ti  Ti156  1  0.08249242  0.28902040  0.11700838  1
  Ti  Ti157  1  0.69852118  0.90299982  0.13559970  1
  Ti  Ti158  1  0.49789342  0.90615859  0.38653743  1
  Ti  Ti159  1  -0.00213502  0.38758908  -0.01173190  1
  Mo  Mo160  1  0.30052057  0.10699685  0.64333288  1
  Mo  Mo161  1  0.70689427  0.10472637  0.62593464  1
  Mo  Mo162  1  0.40389490  0.00055500  0.00445734  1
  Mo  Mo163  1  0.91140638  0.30700188  0.12046026  1
  Mo  Mo164  1  0.39968603  0.40686801  -0.00554866  1
  Mo  Mo165  1  0.88526637  0.90263421  0.61639395  1
  Mo  Mo166  1  0.19594902  0.79868785  0.73371514  1
  Mo  Mo167  1  0.59930446  0.19786231  0.23576956  1
  Mo  Mo168  1  0.49865186  0.51249845  0.12831728  1
  Mo  Mo169  1  0.08420358  0.28796294  0.87449579  1
  Mo  Mo170  1  0.08812086  0.30740378  0.63161561  1
  Mo  Mo171  1  0.69698322  0.90557535  0.37766426  1
  Mo  Mo172  1  0.30439521  0.29059436  0.87908688  1
  Mo  Mo173  1  0.51105882  0.89741638  0.12538339  1
  Mo  Mo174  1  0.09553056  0.89330901  0.87565096  1
  Mo  Mo175  1  0.80670017  0.80336567  0.74654265  1
  Mo  Mo176  1  0.90488026  0.50527194  0.87776295  1
  Mo  Mo177  1  0.00284139  0.79422359  0.25304799  1
  Mo  Mo178  1  0.00979825  0.20548116  0.24822983  1
  Mo  Mo179  1  0.00517385  0.20089416  -0.00834034  1
  Mo  Mo180  1  0.29963028  0.09962507  0.10761479  1
  Mo  Mo181  1  0.59848420  0.20439109  0.49747238  1
  Mo  Mo182  1  0.10149940  0.90227970  0.62512005  1
  Mo  Mo183  1  0.29266957  0.50901639  0.87926321  1
  Mo  Mo184  1  0.69480416  0.10620232  0.35316608  1
  Mo  Mo185  1  0.11112745  0.68973683  0.64019499  1
  Mo  Mo186  1  0.80590327  0.40168461  0.49744935  1
  Mo  Mo187  1  0.80581286  0.79950493  0.00950402  1
  Mo  Mo188  1  0.90114690  0.31154188  0.37361330  1
  Mo  Mo189  1  0.20962273  0.00346676  0.25026055  1
  Mo  Mo190  1  0.60035468  0.20721578  0.75907740  1
  Mo  Mo191  1  0.40784774  0.80656418  0.74189040  1
  Mo  Mo192  1  0.80113224  0.80492975  0.26784454  1
  Mo  Mo193  1  0.89762812  0.68736061  0.62239079  1
  Mo  Mo194  1  0.80281596  0.59211151  0.25346810  1
  Mo  Mo195  1  0.30767576  0.69705006  0.36380218  1
  Mo  Mo196  1  0.39325421  0.40991103  0.49257632  1
  Mo  Mo197  1  0.70030892  0.30826331  0.35200809  1
  Mo  Mo198  1  0.50883877  0.70880682  0.88356889  1
  Mo  Mo199  1  0.00971368  -0.01547109  0.00487376  1
