# generated using pymatgen
data_HfZrTaTiMo
_symmetry_space_group_name_H-M   'P 1'
_cell_length_a   15.20216931
_cell_length_b   15.21218550
_cell_length_c   16.84584287
_cell_angle_alpha   90.05788209
_cell_angle_beta   90.00813115
_cell_angle_gamma   89.94034293
_symmetry_Int_Tables_number   1
_chemical_formula_structural   HfZrTaTiMo
_chemical_formula_sum   'Hf40 Zr40 Ta40 Ti40 Mo40'
_cell_volume   3895.73549215
_cell_formula_units_Z   40
loop_
 _symmetry_equiv_pos_site_id
 _symmetry_equiv_pos_as_xyz
  1  'x, y, z'
loop_
 _atom_site_type_symbol
 _atom_site_label
 _atom_site_symmetry_multiplicity
 _atom_site_fract_x
 _atom_site_fract_y
 _atom_site_fract_z
 _atom_site_occupancy
  Hf  Hf0  1  0.79904797  0.41546650  0.74254585  1
  Hf  Hf1  1  0.40403991  0.19140153  0.01522714  1
  Hf  Hf2  1  -0.00243265  0.58790357  0.48464801  1
  Hf  Hf3  1  0.89784451  0.69687312  0.87575971  1
  Hf  Hf4  1  0.21000800  0.20306368  0.75906881  1
  Hf  Hf5  1  0.51158476  0.89064841  0.62067993  1
  Hf  Hf6  1  0.80211518  0.01027663  0.50688636  1
  Hf  Hf7  1  0.01000832  -0.00705563  0.74397840  1
  Hf  Hf8  1  0.81302356  0.21342917  0.00632045  1
  Hf  Hf9  1  0.00020320  0.00019812  0.24981260  1
  Hf  Hf10  1  0.38021273  0.20572180  0.49549964  1
  Hf  Hf11  1  0.20827309  0.18725759  -0.00056771  1
  Hf  Hf12  1  -0.00073361  0.00408958  0.01125639  1
  Hf  Hf13  1  0.60768441  -0.00589827  0.49783754  1
  Hf  Hf14  1  0.20047430  0.79357864  0.25867793  1
  Hf  Hf15  1  0.79236508  0.61062927  0.25623054  1
  Hf  Hf16  1  0.31626847  0.69999236  0.12210890  1
  Hf  Hf17  1  0.79090725  0.21408394  0.75354142  1
  Hf  Hf18  1  0.70460821  0.10230236  0.36517238  1
  Hf  Hf19  1  0.08855025  0.68701011  0.60778447  1
  Hf  Hf20  1  0.42219692  0.39130161  -0.00054794  1
  Hf  Hf21  1  0.10528092  0.09325393  0.87697337  1
  Hf  Hf22  1  0.39177880  0.80536278  0.76015753  1
  Hf  Hf23  1  0.91278484  0.11008030  0.62063308  1
  Hf  Hf24  1  0.71068107  0.10866987  0.12821625  1
  Hf  Hf25  1  0.48733565  0.90330128  0.36764791  1
  Hf  Hf26  1  0.10169851  0.89297155  0.12588758  1
  Hf  Hf27  1  0.77549394  0.80988919  0.49996166  1
  Hf  Hf28  1  0.50233721  0.87189863  0.13577859  1
  Hf  Hf29  1  -0.00225130  0.58970966  0.25935673  1
  Hf  Hf30  1  0.49766429  0.30775006  0.36937504  1
  Hf  Hf31  1  0.60049970  0.59525162  0.74447875  1
  Hf  Hf32  1  0.60317566  -0.00418388  0.23778507  1
  Hf  Hf33  1  0.70229213  0.30393370  0.37860208  1
  Hf  Hf34  1  0.59210753  0.80345090  0.76869644  1
  Hf  Hf35  1  0.39608305  0.58715672  0.48628049  1
  Hf  Hf36  1  0.28874548  0.69414363  0.61323694  1
  Hf  Hf37  1  0.09642286  0.48583217  0.88156722  1
  Hf  Hf38  1  -0.02114021  0.79023914  0.48588444  1
  Hf  Hf39  1  0.41068659  0.01515564  0.50979774  1
  Zr  Zr40  1  0.00762699  0.38160164  0.49013314  1
  Zr  Zr41  1  0.11977238  0.09728210  0.61907487  1
  Zr  Zr42  1  -0.00994760  0.57961479  0.00971492  1
  Zr  Zr43  1  0.09692228  0.28978639  0.13538892  1
  Zr  Zr44  1  0.58665152  0.61538026  0.26004097  1
  Zr  Zr45  1  0.00216731  0.60037275  0.74931891  1
  Zr  Zr46  1  0.09793172  0.28469506  0.61905909  1
  Zr  Zr47  1  0.29148375  0.70046335  0.38483711  1
  Zr  Zr48  1  0.19557493  0.38571341  0.00111874  1
  Zr  Zr49  1  0.59223157  0.22150746  0.01564744  1
  Zr  Zr50  1  0.01512997  0.39859594  0.74253480  1
  Zr  Zr51  1  0.89312555  0.30301086  0.61816864  1
  Zr  Zr52  1  0.59646940  0.00836655  0.01398282  1
  Zr  Zr53  1  0.79460689  0.60859574  0.01471568  1
  Zr  Zr54  1  0.12321523  0.48497133  0.37637998  1
  Zr  Zr55  1  0.70319202  0.91651322  0.88290574  1
  Zr  Zr56  1  0.21158901  0.57556630  0.74844916  1
  Zr  Zr57  1  0.29792329  0.50178787  0.11505921  1
  Zr  Zr58  1  0.90171593  0.90266154  0.87726020  1
  Zr  Zr59  1  0.10424579  0.89173557  0.60429427  1
  Zr  Zr60  1  0.79764364  0.00826792  0.73731481  1
  Zr  Zr61  1  0.49097554  0.29305678  0.62147475  1
  Zr  Zr62  1  0.59874801  0.58720672  0.50079219  1
  Zr  Zr63  1  0.88842711  0.90917881  0.36994252  1
  Zr  Zr64  1  0.60391956  0.40239560  0.74857006  1
  Zr  Zr65  1  0.48413516  0.69059852  0.62594535  1
  Zr  Zr66  1  0.18774748  0.79200405  0.74863693  1
  Zr  Zr67  1  0.58512382  0.80068225  -0.01738830  1
  Zr  Zr68  1  -0.00081659  0.78566808  0.00575128  1
  Zr  Zr69  1  0.39853882  0.39998835  0.75935136  1
  Zr  Zr70  1  0.80006556  0.61324854  0.49443897  1
  Zr  Zr71  1  0.89332288  0.10392818  0.87897475  1
  Zr  Zr72  1  0.29116460  0.69348764  0.87953044  1
  Zr  Zr73  1  0.21766314  0.00954048  0.48528981  1
  Zr  Zr74  1  0.79412579  0.80033007  0.74268108  1
  Zr  Zr75  1  0.10918559  0.88709907  0.88117276  1
  Zr  Zr76  1  0.10616337  0.68906521  0.13100648  1
  Zr  Zr77  1  0.40108474  -0.00770174  0.01180413  1
  Zr  Zr78  1  0.59644534  0.01020040  0.75050150  1
  Zr  Zr79  1  0.20256270  -0.00596541  0.26091829  1
  Ta  Ta80  1  0.70527510  0.31900746  0.12602330  1
  Ta  Ta81  1  0.67834963  0.71735041  0.12730075  1
  Ta  Ta82  1  0.30544780  0.49296016  0.88716364  1
  Ta  Ta83  1  0.69397051  0.50823100  0.12949746  1
  Ta  Ta84  1  -0.00787376  0.79356106  0.26192085  1
  Ta  Ta85  1  0.59176542  0.20813318  0.75598400  1
  Ta  Ta86  1  0.30174840  0.90132039  0.61892902  1
  Ta  Ta87  1  0.13232792  0.48507087  0.60730431  1
  Ta  Ta88  1  0.79285268  0.80670560  0.01089468  1
  Ta  Ta89  1  0.90040862  0.89353898  0.61860500  1
  Ta  Ta90  1  0.29858155  0.31040932  0.35839221  1
  Ta  Ta91  1  0.10660983  0.09804319  0.12746810  1
  Ta  Ta92  1  0.80894842  0.41285899  0.00887720  1
  Ta  Ta93  1  0.20156192  0.19636625  0.25717985  1
  Ta  Ta94  1  0.91025662  0.51001104  0.61705019  1
  Ta  Ta95  1  0.69091901  0.49482418  0.37277507  1
  Ta  Ta96  1  0.39712549  0.58769753  0.26340859  1
  Ta  Ta97  1  0.00020382  0.19941392  0.76187048  1
  Ta  Ta98  1  0.28763447  0.31361102  0.62784742  1
  Ta  Ta99  1  0.30618818  0.29694662  0.13660591  1
  Ta  Ta100  1  0.59536102  0.40852533  0.24616513  1
  Ta  Ta101  1  0.68556844  0.71469212  0.62233788  1
  Ta  Ta102  1  0.69898452  0.69339905  0.87674893  1
  Ta  Ta103  1  0.08417022  0.48314616  0.13293744  1
  Ta  Ta104  1  0.31727836  0.10146404  0.35882255  1
  Ta  Ta105  1  0.80189249  0.40549144  0.24770270  1
  Ta  Ta106  1  0.59189516  0.60089975  0.00185732  1
  Ta  Ta107  1  0.60291023  0.20954405  0.23793317  1
  Ta  Ta108  1  0.40017705  0.01109984  0.73492183  1
  Ta  Ta109  1  0.68919382  0.11844247  0.61904445  1
  Ta  Ta110  1  0.69961141  0.31691533  0.88792108  1
  Ta  Ta111  1  0.69091201  0.12119933  0.88598625  1
  Ta  Ta112  1  -0.00603841  0.79354587  0.74257938  1
  Ta  Ta113  1  0.90887011  0.31514365  0.87722835  1
  Ta  Ta114  1  0.50427375  0.10481039  0.35866324  1
  Ta  Ta115  1  0.10338440  0.89091726  0.38603597  1
  Ta  Ta116  1  0.69042833  0.30800519  0.60978528  1
  Ta  Ta117  1  0.31291666  0.08326993  0.87199006  1
  Ta  Ta118  1  0.89048347  0.48919083  0.37303087  1
  Ta  Ta119  1  0.30251001  0.89187650  0.13204298  1
  Ti  Ti120  1  0.49662795  0.10902163  0.87592221  1
  Ti  Ti121  1  0.68642525  0.89347785  0.36617729  1
  Ti  Ti122  1  0.90239716  0.29821594  0.37204240  1
  Ti  Ti123  1  0.80706980  0.20985851  0.24575786  1
  Ti  Ti124  1  0.09494952  0.10268863  0.37594620  1
  Ti  Ti125  1  0.00941458  0.21086480  -0.00414612  1
  Ti  Ti126  1  0.40522879  0.40308734  0.49957457  1
  Ti  Ti127  1  0.30220983  0.09214054  0.14164267  1
  Ti  Ti128  1  0.00015290  0.00405271  0.49347393  1
  Ti  Ti129  1  0.79809829  0.60683429  0.73185500  1
  Ti  Ti130  1  0.49813977  0.50541716  0.12426679  1
  Ti  Ti131  1  0.20538316  0.59345371  0.24982399  1
  Ti  Ti132  1  0.39532376  0.80795456  0.49363843  1
  Ti  Ti133  1  0.40740609  0.20268200  0.23994028  1
  Ti  Ti134  1  0.89414013  0.89735068  0.13208094  1
  Ti  Ti135  1  0.20403296  0.40056763  0.24266020  1
  Ti  Ti136  1  0.39928706  0.80115208  -0.01712513  1
  Ti  Ti137  1  0.89411384  0.70403438  0.13666291  1
  Ti  Ti138  1  0.91011780  0.31803265  0.13224815  1
  Ti  Ti139  1  0.91385419  0.11455198  0.12995489  1
  Ti  Ti140  1  0.78869494  0.41632260  0.50584738  1
  Ti  Ti141  1  0.80194194  0.20683619  0.49688407  1
  Ti  Ti142  1  0.58953079  0.19640232  0.49461633  1
  Ti  Ti143  1  0.21416184  -0.00682940  0.74600033  1
  Ti  Ti144  1  0.19062705  0.60005131  -0.00247782  1
  Ti  Ti145  1  0.80414508  0.00330328  0.24095751  1
  Ti  Ti146  1  0.00116933  0.20256950  0.25809911  1
  Ti  Ti147  1  0.20861332  0.79738545  0.00023625  1
  Ti  Ti148  1  0.50775644  0.50087344  0.88044002  1
  Ti  Ti149  1  0.78573923  0.80463042  0.24957996  1
  Ti  Ti150  1  0.89949760  0.10874744  0.37326935  1
  Ti  Ti151  1  0.40642694  0.78380927  0.26029648  1
  Ti  Ti152  1  0.09946884  0.69441487  0.38224093  1
  Ti  Ti153  1  0.31326736  0.29107822  0.87680543  1
  Ti  Ti154  1  0.18849469  0.21514013  0.47696652  1
  Ti  Ti155  1  0.70370401  0.50695049  0.88336462  1
  Ti  Ti156  1  0.40827531  0.60616636  -0.00752784  1
  Ti  Ti157  1  0.20946020  -0.00759031  0.00658284  1
  Ti  Ti158  1  0.89107126  0.50066202  0.87199496  1
  Ti  Ti159  1  0.80212300  0.00381546  0.01322119  1
  Mo  Mo160  1  0.58892865  0.79440148  0.49151329  1
  Mo  Mo161  1  0.30233380  0.90270867  0.37745777  1
  Mo  Mo162  1  0.69263397  0.70903839  0.37452449  1
  Mo  Mo163  1  0.70910347  0.89710500  0.12438105  1
  Mo  Mo164  1  0.40060712  -0.00149968  0.23990344  1
  Mo  Mo165  1  0.51054850  0.29227960  0.87639625  1
  Mo  Mo166  1  -0.01155961  0.38843421  0.00213189  1
  Mo  Mo167  1  -0.00354149  0.39384012  0.26270479  1
  Mo  Mo168  1  0.20170011  0.58893887  0.49965966  1
  Mo  Mo169  1  0.22550735  0.38790356  0.49432246  1
  Mo  Mo170  1  0.50495510  0.10841148  0.62336003  1
  Mo  Mo171  1  0.40764776  0.59443810  0.76192291  1
  Mo  Mo172  1  0.40104878  0.40186140  0.23884778  1
  Mo  Mo173  1  0.61042667  0.41806842  0.00417444  1
  Mo  Mo174  1  0.29999547  0.90732427  0.87553403  1
  Mo  Mo175  1  0.19810937  0.80024657  0.49415053  1
  Mo  Mo176  1  0.89432240  0.70102392  0.62373686  1
  Mo  Mo177  1  0.49147285  0.68847054  0.12359420  1
  Mo  Mo178  1  0.89287113  0.49609017  0.14018070  1
  Mo  Mo179  1  0.59770469  0.39426987  0.49949554  1
  Mo  Mo180  1  0.30833677  0.11297590  0.63239491  1
  Mo  Mo181  1  0.50051427  0.49017720  0.37134068  1
  Mo  Mo182  1  0.49416442  0.49156664  0.62496005  1
  Mo  Mo183  1  0.70533701  0.50138898  0.61985524  1
  Mo  Mo184  1  0.09665396  0.69130052  0.88154735  1
  Mo  Mo185  1  0.10242021  0.29225574  0.35891256  1
  Mo  Mo186  1  0.10005769  0.29049658  0.87600303  1
  Mo  Mo187  1  0.47593308  0.92136137  0.87123718  1
  Mo  Mo188  1  0.49698321  0.10155027  0.14541761  1
  Mo  Mo189  1  0.30903560  0.48887879  0.36564746  1
  Mo  Mo190  1  0.20620340  0.39504229  0.75981751  1
  Mo  Mo191  1  0.49951194  0.70511222  0.38661330  1
  Mo  Mo192  1  0.40237749  0.19452001  0.75466046  1
  Mo  Mo193  1  0.89299836  0.70143919  0.36182597  1
  Mo  Mo194  1  0.69877215  0.90450101  0.62569471  1
  Mo  Mo195  1  -0.00549891  0.18732743  0.48093871  1
  Mo  Mo196  1  0.60014281  0.79596058  0.25835789  1
  Mo  Mo197  1  0.32182720  0.49557077  0.62450837  1
  Mo  Mo198  1  0.49642497  0.68779272  0.86835938  1
  Mo  Mo199  1  0.50158079  0.31296633  0.13825612  1
