# generated using pymatgen
data_HfZrTaTiMo
_symmetry_space_group_name_H-M   'P 1'
_cell_length_a   15.18581750
_cell_length_b   15.19262667
_cell_length_c   16.79249747
_cell_angle_alpha   89.95518270
_cell_angle_beta   90.01886204
_cell_angle_gamma   89.96255541
_symmetry_Int_Tables_number   1
_chemical_formula_structural   HfZrTaTiMo
_chemical_formula_sum   'Hf40 Zr40 Ta40 Ti40 Mo40'
_cell_volume   3874.23610799
_cell_formula_units_Z   40
loop_
 _symmetry_equiv_pos_site_id
 _symmetry_equiv_pos_as_xyz
  1  'x, y, z'
loop_
 _atom_site_type_symbol
 _atom_site_label
 _atom_site_symmetry_multiplicity
 _atom_site_fract_x
 _atom_site_fract_y
 _atom_site_fract_z
 _atom_site_occupancy
  Hf  Hf0  1  0.92403058  0.08102613  0.36879767  1
  Hf  Hf1  1  0.18968542  0.81267186  0.24017448  1
  Hf  Hf2  1  0.31078807  0.31692882  0.12953315  1
  Hf  Hf3  1  0.79502940  -0.00972786  0.75117461  1
  Hf  Hf4  1  -0.00044123  0.79403801  0.50445246  1
  Hf  Hf5  1  0.69959539  0.09187296  0.62881843  1
  Hf  Hf6  1  0.60559855  0.40713195  0.75556686  1
  Hf  Hf7  1  0.58813968  0.00702465  0.24526774  1
  Hf  Hf8  1  0.90627125  0.09925145  0.14093193  1
  Hf  Hf9  1  0.39857648  0.60805291  0.48234486  1
  Hf  Hf10  1  0.80405939  0.60105357  0.00578441  1
  Hf  Hf11  1  0.70495465  0.30635365  0.87651460  1
  Hf  Hf12  1  0.59586261  0.59502622  0.25670589  1
  Hf  Hf13  1  0.39291379  0.80118490  0.48181187  1
  Hf  Hf14  1  0.70067008  0.29804274  0.62053498  1
  Hf  Hf15  1  0.31665435  0.70095285  0.63083839  1
  Hf  Hf16  1  0.28933403  0.30820874  0.86803161  1
  Hf  Hf17  1  0.01109665  0.20092566  0.01000346  1
  Hf  Hf18  1  0.59606661  0.61160617  0.47688157  1
  Hf  Hf19  1  0.49777534  0.30982334  0.63824821  1
  Hf  Hf20  1  0.10774326  0.30527680  0.13231481  1
  Hf  Hf21  1  0.69270503  0.29487255  0.38200705  1
  Hf  Hf22  1  0.90475058  0.09492124  0.87845768  1
  Hf  Hf23  1  0.42033772  0.20689660  0.24175490  1
  Hf  Hf24  1  0.10075326  0.90353405  0.88684414  1
  Hf  Hf25  1  0.01537951  0.60134413  -0.01725959  1
  Hf  Hf26  1  0.38568012  0.01363088  0.49342210  1
  Hf  Hf27  1  0.01671616  0.59358686  0.76692205  1
  Hf  Hf28  1  0.90008477  0.88096044  0.36797192  1
  Hf  Hf29  1  0.39263791  0.80921532  0.24856338  1
  Hf  Hf30  1  0.49788465  0.10268184  0.63579793  1
  Hf  Hf31  1  0.70017743  0.09400460  0.88028057  1
  Hf  Hf32  1  0.19894629  0.79382874  0.75675660  1
  Hf  Hf33  1  0.49783846  0.52638958  0.62689998  1
  Hf  Hf34  1  0.80561046  0.18515529  0.49015781  1
  Hf  Hf35  1  0.48560189  0.49581625  0.12393781  1
  Hf  Hf36  1  0.89557249  0.89751788  0.88007227  1
  Hf  Hf37  1  0.19893312  0.80794091  0.49811554  1
  Hf  Hf38  1  0.00204664  0.79789322  0.75217642  1
  Hf  Hf39  1  0.40564038  0.80675426  0.75887927  1
  Zr  Zr40  1  0.10272895  0.10974779  0.87439360  1
  Zr  Zr41  1  0.02795870  0.18876874  0.49564090  1
  Zr  Zr42  1  0.10659236  0.68924510  0.12646357  1
  Zr  Zr43  1  0.71450696  0.49773194  0.61038069  1
  Zr  Zr44  1  0.28921219  0.50862751  0.62370989  1
  Zr  Zr45  1  0.00170872  0.40873872  0.25743038  1
  Zr  Zr46  1  0.70334673  0.49292663  0.38479493  1
  Zr  Zr47  1  0.89104161  0.89154080  0.61895296  1
  Zr  Zr48  1  0.48409871  0.91912241  0.36526510  1
  Zr  Zr49  1  0.31019784  0.90788106  0.88899536  1
  Zr  Zr50  1  0.79675131  0.39109938  0.24997977  1
  Zr  Zr51  1  0.69639626  0.69771644  0.13135357  1
  Zr  Zr52  1  0.68752791  0.89156012  0.89120497  1
  Zr  Zr53  1  -0.01517606  0.40486704  0.74546296  1
  Zr  Zr54  1  -0.00850413  0.79757930  0.00565479  1
  Zr  Zr55  1  0.68825823  0.89436575  0.61800711  1
  Zr  Zr56  1  0.59361106  0.20177657  0.01270343  1
  Zr  Zr57  1  0.21779360  0.19967496  0.48894403  1
  Zr  Zr58  1  0.30162255  0.10684080  0.86648300  1
  Zr  Zr59  1  0.91062788  0.30356936  0.88190087  1
  Zr  Zr60  1  0.28119551  0.50463047  0.37634906  1
  Zr  Zr61  1  0.49143328  0.08966116  0.88173519  1
  Zr  Zr62  1  0.29810195  0.09998076  0.64442820  1
  Zr  Zr63  1  0.78334129  -0.01303672  0.48003302  1
  Zr  Zr64  1  0.40911758  0.21134062  0.49468182  1
  Zr  Zr65  1  0.01800203  0.19458110  0.25691590  1
  Zr  Zr66  1  0.61607893  0.20310890  0.23508656  1
  Zr  Zr67  1  0.59768362  0.80829697  0.47165164  1
  Zr  Zr68  1  0.89578784  0.67778234  0.62483768  1
  Zr  Zr69  1  0.29865749  0.30116472  0.64248299  1
  Zr  Zr70  1  0.59613115  0.59517625  0.00350705  1
  Zr  Zr71  1  0.81327917  0.20403720  0.74657604  1
  Zr  Zr72  1  0.90648918  0.30259903  0.60753769  1
  Zr  Zr73  1  0.81018522  0.58954705  0.24665745  1
  Zr  Zr74  1  0.48979916  0.89942897  0.61333163  1
  Zr  Zr75  1  0.60414400  0.60365391  0.76209416  1
  Zr  Zr76  1  0.59670876  0.79590341  0.75302228  1
  Zr  Zr77  1  0.79290192  0.77730773  0.75303185  1
  Zr  Zr78  1  0.80027316  0.20075156  0.00894261  1
  Zr  Zr79  1  0.09055464  0.70322351  0.36613955  1
  Ta  Ta80  1  0.28764327  0.70716441  0.36127131  1
  Ta  Ta81  1  0.58286938  -0.00901478  0.75951570  1
  Ta  Ta82  1  0.00117034  0.00369005  0.74605078  1
  Ta  Ta83  1  0.19823372  0.01126299  0.01580132  1
  Ta  Ta84  1  0.17801148  0.40184954  0.74771998  1
  Ta  Ta85  1  0.58611322  0.38982784  0.23996495  1
  Ta  Ta86  1  0.78848920  0.77808524  0.48434828  1
  Ta  Ta87  1  0.21335117  0.59048284  0.76822445  1
  Ta  Ta88  1  0.89963150  0.30863195  0.12251835  1
  Ta  Ta89  1  0.80161471  -0.00770385  0.01282736  1
  Ta  Ta90  1  0.10818054  0.68671418  0.62845044  1
  Ta  Ta91  1  0.18719153  0.01094996  0.23080481  1
  Ta  Ta92  1  0.31687379  0.31224348  0.36297507  1
  Ta  Ta93  1  0.49367457  0.90364045  0.12704819  1
  Ta  Ta94  1  0.19387573  -0.00434815  0.74916572  1
  Ta  Ta95  1  0.19163100  0.39761793  0.50490795  1
  Ta  Ta96  1  0.40214549  0.80113097  0.00919909  1
  Ta  Ta97  1  0.91252572  0.49714861  0.11142606  1
  Ta  Ta98  1  0.20754041  0.21108625  0.00477677  1
  Ta  Ta99  1  0.90555629  0.49702966  0.39861600  1
  Ta  Ta100  1  0.48800084  0.48154091  0.36741658  1
  Ta  Ta101  1  0.08799249  0.91835181  0.37073242  1
  Ta  Ta102  1  0.60182580  0.18730928  0.49842216  1
  Ta  Ta103  1  0.70581177  0.08969162  0.12543893  1
  Ta  Ta104  1  0.10537473  0.49556273  0.11045256  1
  Ta  Ta105  1  0.79408728  -0.00230226  0.25731142  1
  Ta  Ta106  1  0.38745445  0.59911077  0.25248466  1
  Ta  Ta107  1  0.00090443  -0.00056450  0.02072397  1
  Ta  Ta108  1  0.28834503  0.51256563  0.11942020  1
  Ta  Ta109  1  0.39521406  0.40392857  0.50097464  1
  Ta  Ta110  1  0.59933615  0.19748410  0.75846231  1
  Ta  Ta111  1  0.69642619  0.89731103  0.13411373  1
  Ta  Ta112  1  0.49079329  0.70255287  0.13350862  1
  Ta  Ta113  1  0.68571975  0.69138412  0.61456352  1
  Ta  Ta114  1  0.39227618  0.42654857  0.76203232  1
  Ta  Ta115  1  0.09714927  0.90728384  0.62586878  1
  Ta  Ta116  1  0.90727351  0.30225007  0.38711901  1
  Ta  Ta117  1  0.49685377  0.70748472  0.88857720  1
  Ta  Ta118  1  0.18342559  0.00890664  0.50182160  1
  Ta  Ta119  1  0.91314629  0.08845291  0.61751011  1
  Ti  Ti120  1  0.90164746  0.69618159  0.12872453  1
  Ti  Ti121  1  0.00410507  0.59584269  0.24653588  1
  Ti  Ti122  1  0.29702319  0.90426318  0.11678705  1
  Ti  Ti123  1  0.49518271  0.50531583  0.88063662  1
  Ti  Ti124  1  0.11424328  0.30816714  0.36931680  1
  Ti  Ti125  1  0.89547995  0.48953508  0.89002719  1
  Ti  Ti126  1  0.30633908  0.10696048  0.12528410  1
  Ti  Ti127  1  0.91297387  0.49536000  0.59566198  1
  Ti  Ti128  1  0.89783073  0.68166112  0.37657904  1
  Ti  Ti129  1  0.39702747  0.40029343  -0.00949691  1
  Ti  Ti130  1  0.40025854  0.20365512  0.00552854  1
  Ti  Ti131  1  0.30154385  0.69490329  0.88206590  1
  Ti  Ti132  1  0.89184588  0.89793790  0.13508327  1
  Ti  Ti133  1  0.39365224  0.60329848  0.00026933  1
  Ti  Ti134  1  0.59831478  0.39423979  0.00415201  1
  Ti  Ti135  1  0.58630308  0.39490012  0.50078839  1
  Ti  Ti136  1  0.79452336  0.79127919  0.25432514  1
  Ti  Ti137  1  0.20316254  0.41494808  0.24993595  1
  Ti  Ti138  1  0.70168937  0.69390922  0.88679975  1
  Ti  Ti139  1  0.11744545  0.47931396  0.89194267  1
  Ti  Ti140  1  0.80672132  0.19721287  0.25878966  1
  Ti  Ti141  1  0.29915595  0.69747928  0.12412827  1
  Ti  Ti142  1  0.29496501  0.90508357  0.62735595  1
  Ti  Ti143  1  -0.00387487  0.80402535  0.23744667  1
  Ti  Ti144  1  0.59684792  0.79900464  0.25966248  1
  Ti  Ti145  1  0.49399008  0.30089658  0.86908417  1
  Ti  Ti146  1  0.19918381  0.79150797  0.00102583  1
  Ti  Ti147  1  0.79607844  0.79919182  0.01013435  1
  Ti  Ti148  1  0.50478068  0.11462184  0.37253852  1
  Ti  Ti149  1  0.19129510  0.60763665  0.50068487  1
  Ti  Ti150  1  0.27981513  0.92539447  0.36344116  1
  Ti  Ti151  1  0.89578597  0.69289691  0.87382936  1
  Ti  Ti152  1  0.70836754  0.49617074  0.88470068  1
  Ti  Ti153  1  0.09250131  0.50639896  0.38210999  1
  Ti  Ti154  1  0.01981392  0.20546718  0.73795520  1
  Ti  Ti155  1  0.80757461  0.57414511  0.75517714  1
  Ti  Ti156  1  0.59526487  0.79777390  0.01140750  1
  Ti  Ti157  1  0.21673140  0.19770572  0.25806397  1
  Ti  Ti158  1  0.59215905  -0.00620974  0.01300873  1
  Ti  Ti159  1  0.70309144  0.48237855  0.12082688  1
  Mo  Mo160  1  0.00463525  -0.01644150  0.23253893  1
  Mo  Mo161  1  0.11202998  0.10802022  0.12185054  1
  Mo  Mo162  1  0.10082568  0.89821243  0.11191631  1
  Mo  Mo163  1  0.30977634  0.09801407  0.35783287  1
  Mo  Mo164  1  0.10978838  0.70051939  0.87471654  1
  Mo  Mo165  1  0.00164895  -0.00746971  0.50348375  1
  Mo  Mo166  1  0.00326508  0.39859767  0.00255818  1
  Mo  Mo167  1  0.49867129  0.89714312  0.89451375  1
  Mo  Mo168  1  0.20541383  0.39917312  0.00340813  1
  Mo  Mo169  1  0.30626478  0.50176624  0.88219559  1
  Mo  Mo170  1  0.10128432  0.30139966  0.87756772  1
  Mo  Mo171  1  0.50567866  0.30586684  0.37645172  1
  Mo  Mo172  1  0.21022973  0.60284629  -0.01257346  1
  Mo  Mo173  1  0.01509860  0.39538474  0.49130466  1
  Mo  Mo174  1  0.59236473  0.01385052  0.48474528  1
  Mo  Mo175  1  0.41041745  0.21297912  0.75981900  1
  Mo  Mo176  1  0.19165428  0.20662462  0.74888160  1
  Mo  Mo177  1  0.39670510  0.40703876  0.24790296  1
  Mo  Mo178  1  0.80104731  0.60204958  0.49530956  1
  Mo  Mo179  1  0.50081114  0.30816436  0.11192327  1
  Mo  Mo180  1  0.00962141  0.60062104  0.50072435  1
  Mo  Mo181  1  0.49558595  0.09616311  0.11525875  1
  Mo  Mo182  1  0.80165569  0.39088048  0.49386859  1
  Mo  Mo183  1  0.50426024  0.70349990  0.61813875  1
  Mo  Mo184  1  0.79775268  0.40791482  0.75152685  1
  Mo  Mo185  1  0.39949314  -0.00553338  0.74988463  1
  Mo  Mo186  1  0.19260655  0.59945937  0.24659073  1
  Mo  Mo187  1  0.39690312  0.00581399  0.01836794  1
  Mo  Mo188  1  0.12097702  0.09087587  0.36716204  1
  Mo  Mo189  1  0.40456786  0.60969885  0.76427646  1
  Mo  Mo190  1  0.10549887  0.30594850  0.62245331  1
  Mo  Mo191  1  0.69719297  0.89765410  0.35272055  1
  Mo  Mo192  1  0.79498683  0.40313886  0.00961193  1
  Mo  Mo193  1  0.70692411  0.30121349  0.12457594  1
  Mo  Mo194  1  0.70700626  0.70068798  0.35919837  1
  Mo  Mo195  1  0.38219544  0.01072405  0.23691001  1
  Mo  Mo196  1  0.69954399  0.09669192  0.36806481  1
  Mo  Mo197  1  0.48932112  0.69585365  0.35045864  1
  Mo  Mo198  1  0.10221993  0.10014787  0.63335494  1
  Mo  Mo199  1  0.09763286  0.50552538  0.62236549  1
