# generated using pymatgen
data_HfZrTaTiMo
_symmetry_space_group_name_H-M   'P 1'
_cell_length_a   15.17940456
_cell_length_b   15.18461484
_cell_length_c   16.81274370
_cell_angle_alpha   90.01731993
_cell_angle_beta   90.03277211
_cell_angle_gamma   89.89991650
_symmetry_Int_Tables_number   1
_chemical_formula_structural   HfZrTaTiMo
_chemical_formula_sum   'Hf40 Zr40 Ta40 Ti40 Mo40'
_cell_volume   3875.21993548
_cell_formula_units_Z   40
loop_
 _symmetry_equiv_pos_site_id
 _symmetry_equiv_pos_as_xyz
  1  'x, y, z'
loop_
 _atom_site_type_symbol
 _atom_site_label
 _atom_site_symmetry_multiplicity
 _atom_site_fract_x
 _atom_site_fract_y
 _atom_site_fract_z
 _atom_site_occupancy
  Hf  Hf0  1  0.30306426  0.49690353  0.63272023  1
  Hf  Hf1  1  0.20491851  0.40363670  0.50091132  1
  Hf  Hf2  1  0.78385963  0.40187086  0.76143749  1
  Hf  Hf3  1  0.30236779  0.07772062  0.36065905  1
  Hf  Hf4  1  0.40212278  0.39550499  0.49567645  1
  Hf  Hf5  1  0.41333276  0.60763979  -0.00144292  1
  Hf  Hf6  1  0.60643099  -0.00271463  0.49824518  1
  Hf  Hf7  1  0.10072596  0.68761286  0.39425618  1
  Hf  Hf8  1  0.69990606  0.50743592  0.36420736  1
  Hf  Hf9  1  0.59417924  -0.02145764  -0.00116366  1
  Hf  Hf10  1  -0.00956893  0.19733064  0.76359815  1
  Hf  Hf11  1  0.90851237  0.71008041  0.88317523  1
  Hf  Hf12  1  0.89988689  0.70839153  0.60990073  1
  Hf  Hf13  1  0.40896863  0.19411063  0.24339488  1
  Hf  Hf14  1  0.50671772  0.30054934  0.62053894  1
  Hf  Hf15  1  -0.00707184  0.79697246  0.26676935  1
  Hf  Hf16  1  0.49339289  0.90189132  0.86377163  1
  Hf  Hf17  1  0.70903334  0.90450276  0.63968957  1
  Hf  Hf18  1  0.10358090  0.09318570  0.12690440  1
  Hf  Hf19  1  0.40458802  0.20314438  0.75799588  1
  Hf  Hf20  1  0.09659247  0.70572248  0.12434578  1
  Hf  Hf21  1  0.30025733  0.29156367  0.10797600  1
  Hf  Hf22  1  0.10067192  0.50893387  0.63609061  1
  Hf  Hf23  1  0.39696663  0.59278905  0.76181260  1
  Hf  Hf24  1  0.61053093  0.57864317  0.75444776  1
  Hf  Hf25  1  0.30330958  0.49372837  0.88555769  1
  Hf  Hf26  1  0.70919080  0.50038265  0.13465796  1
  Hf  Hf27  1  0.30047183  0.29117024  0.37268998  1
  Hf  Hf28  1  0.09637455  0.10079836  0.62316403  1
  Hf  Hf29  1  0.20162478  0.39403865  0.24998733  1
  Hf  Hf30  1  0.28813734  0.08937287  0.87787077  1
  Hf  Hf31  1  0.49574913  0.50929429  0.36844407  1
  Hf  Hf32  1  0.79254855  -0.00047573  0.24295745  1
  Hf  Hf33  1  -0.00182775  -0.00055810  0.25685640  1
  Hf  Hf34  1  0.38849766  0.00482711  0.74939441  1
  Hf  Hf35  1  0.50383092  0.88986277  0.63873747  1
  Hf  Hf36  1  0.60013498  0.39117318  0.24391801  1
  Hf  Hf37  1  0.78697598  0.81056657  0.48909545  1
  Hf  Hf38  1  0.50548999  0.29283140  0.37475243  1
  Hf  Hf39  1  0.50322247  0.10437835  0.62383525  1
  Zr  Zr40  1  0.50212208  0.29460784  0.89835267  1
  Zr  Zr41  1  0.30712331  0.49664967  0.11352765  1
  Zr  Zr42  1  0.49551359  0.69097853  0.63190644  1
  Zr  Zr43  1  0.69560072  0.69944858  0.63494127  1
  Zr  Zr44  1  0.80597253  0.39976365  0.49920933  1
  Zr  Zr45  1  0.51587929  0.49426184  0.88691707  1
  Zr  Zr46  1  0.09551795  0.11449730  0.38081359  1
  Zr  Zr47  1  0.10218558  0.70015519  0.60604258  1
  Zr  Zr48  1  0.89646776  0.10167590  0.11501939  1
  Zr  Zr49  1  0.91073349  0.51114189  0.38044751  1
  Zr  Zr50  1  0.80185338  0.01587461  0.76278461  1
  Zr  Zr51  1  0.69536947  0.70669185  0.13710724  1
  Zr  Zr52  1  0.20860534  0.19718265  0.50314961  1
  Zr  Zr53  1  0.29845199  0.90331024  0.14367326  1
  Zr  Zr54  1  0.81408226  0.39241573  0.25403496  1
  Zr  Zr55  1  0.10577670  0.30441026  0.64134355  1
  Zr  Zr56  1  -0.00213622  0.20150003  -0.01772356  1
  Zr  Zr57  1  0.88293955  0.10383918  0.37119617  1
  Zr  Zr58  1  0.70223093  0.29593736  0.62778873  1
  Zr  Zr59  1  0.10332434  0.51742069  0.86138797  1
  Zr  Zr60  1  0.41203135  0.80738590  0.00284890  1
  Zr  Zr61  1  0.69603785  0.88490049  0.86194198  1
  Zr  Zr62  1  0.68925230  0.10239499  0.11236782  1
  Zr  Zr63  1  0.58648953  0.78711149  0.48917544  1
  Zr  Zr64  1  0.69012253  0.90669302  0.36259953  1
  Zr  Zr65  1  0.09876645  0.30450662  0.11004715  1
  Zr  Zr66  1  0.89927498  0.30357952  0.11349231  1
  Zr  Zr67  1  0.09634887  0.90005346  0.61947850  1
  Zr  Zr68  1  0.10889676  0.30489887  0.87117347  1
  Zr  Zr69  1  0.78966398  0.80303834  0.00289952  1
  Zr  Zr70  1  0.20305955  0.59447266  0.25979000  1
  Zr  Zr71  1  0.50266150  0.29263743  0.11159992  1
  Zr  Zr72  1  0.29297595  0.70085270  0.11720061  1
  Zr  Zr73  1  0.92508264  0.29890232  0.38531451  1
  Zr  Zr74  1  0.29085145  0.89416487  0.63031290  1
  Zr  Zr75  1  0.28797478  0.69836463  0.62885494  1
  Zr  Zr76  1  -0.00728235  0.81951571  0.48098440  1
  Zr  Zr77  1  0.91268070  0.50531173  0.12603903  1
  Zr  Zr78  1  0.39814299  -0.01070552  0.49921467  1
  Zr  Zr79  1  0.39155102  0.60833201  0.49149105  1
  Ta  Ta80  1  0.61398511  0.40576932  0.01066936  1
  Ta  Ta81  1  0.69512135  0.49985378  0.61788384  1
  Ta  Ta82  1  0.28881352  0.69967042  0.88084790  1
  Ta  Ta83  1  0.10431985  0.90914338  0.86731285  1
  Ta  Ta84  1  0.89362308  0.50593078  0.62706825  1
  Ta  Ta85  1  0.10494842  0.50742735  0.11547742  1
  Ta  Ta86  1  0.60509265  0.19681358  0.49299065  1
  Ta  Ta87  1  0.00134351  0.21109295  0.24556259  1
  Ta  Ta88  1  0.70607979  0.29381315  0.11479666  1
  Ta  Ta89  1  0.19484578  0.19705769  0.24812108  1
  Ta  Ta90  1  0.29809039  0.09450103  0.13178539  1
  Ta  Ta91  1  0.30724098  0.29565748  0.89557391  1
  Ta  Ta92  1  0.01107082  -0.01034779  -0.00207723  1
  Ta  Ta93  1  0.10168017  0.48787372  0.38439986  1
  Ta  Ta94  1  0.70864697  0.28881110  0.37676249  1
  Ta  Ta95  1  0.80421865  0.59676470  0.00413742  1
  Ta  Ta96  1  0.80125325  0.00010367  0.50258299  1
  Ta  Ta97  1  0.89428089  0.10027243  0.62724286  1
  Ta  Ta98  1  0.20555564  0.18929143  0.75436210  1
  Ta  Ta99  1  0.89286860  0.51571068  0.86933670  1
  Ta  Ta100  1  -0.01169075  0.01216206  0.49555249  1
  Ta  Ta101  1  0.80147044  0.00041604  -0.00888297  1
  Ta  Ta102  1  0.90364802  0.70700910  0.12246238  1
  Ta  Ta103  1  0.80286834  0.40269469  -0.01469079  1
  Ta  Ta104  1  -0.00931405  0.61777786  0.74687540  1
  Ta  Ta105  1  0.09744658  0.89707076  0.13446862  1
  Ta  Ta106  1  0.51604408  0.70656182  0.86861496  1
  Ta  Ta107  1  0.71099720  0.68372167  0.86728379  1
  Ta  Ta108  1  0.77859630  0.60645532  0.49396958  1
  Ta  Ta109  1  0.78853334  0.20600514  -0.02895925  1
  Ta  Ta110  1  0.81802695  0.79426785  0.74994834  1
  Ta  Ta111  1  0.60618891  0.40739307  0.49114463  1
  Ta  Ta112  1  0.39136283  0.79277778  0.76177572  1
  Ta  Ta113  1  0.90118639  0.29509292  0.63104144  1
  Ta  Ta114  1  0.41265105  0.39481458  0.75385156  1
  Ta  Ta115  1  0.61580565  0.20272573  0.76867653  1
  Ta  Ta116  1  0.38553530  -0.00062559  0.00203482  1
  Ta  Ta117  1  0.00767951  0.60874388  -0.00249046  1
  Ta  Ta118  1  0.80235168  0.19047394  0.50330166  1
  Ta  Ta119  1  0.00476737  0.80788394  0.74547416  1
  Ti  Ti120  1  0.01374240  0.40235686  0.24978080  1
  Ti  Ti121  1  0.58409376  0.00421058  0.24498117  1
  Ti  Ti122  1  0.61054605  0.61274998  0.00619874  1
  Ti  Ti123  1  0.00018555  -0.00062772  0.75101407  1
  Ti  Ti124  1  0.90972993  0.90013698  0.87937517  1
  Ti  Ti125  1  0.88608439  0.69841495  0.38410388  1
  Ti  Ti126  1  0.19862772  -0.01162081  0.49398221  1
  Ti  Ti127  1  0.19749078  0.17930307  -0.00430547  1
  Ti  Ti128  1  0.29765126  0.09935657  0.62398436  1
  Ti  Ti129  1  0.28741555  0.89440703  0.87004998  1
  Ti  Ti130  1  0.90182491  0.89606721  0.11947870  1
  Ti  Ti131  1  0.49787485  0.09981868  0.88816911  1
  Ti  Ti132  1  0.48608351  0.71673624  0.36685437  1
  Ti  Ti133  1  0.19313642  0.40944314  -0.00374692  1
  Ti  Ti134  1  0.79909905  0.80124098  0.25713461  1
  Ti  Ti135  1  0.00715332  0.39726125  0.51389629  1
  Ti  Ti136  1  0.60980111  0.19162065  0.25290899  1
  Ti  Ti137  1  0.59734302  0.01102019  0.75693708  1
  Ti  Ti138  1  0.49150247  0.08823326  0.11495660  1
  Ti  Ti139  1  0.70082345  0.10692880  0.63173132  1
  Ti  Ti140  1  0.50464146  0.50719728  0.12547347  1
  Ti  Ti141  1  0.18949844  0.81523505  -0.00078737  1
  Ti  Ti142  1  0.39834701  0.40684930  0.24871662  1
  Ti  Ti143  1  0.50715521  0.49596878  0.62071173  1
  Ti  Ti144  1  0.00428522  0.60002009  0.25091143  1
  Ti  Ti145  1  0.20418262  0.79626808  0.26431963  1
  Ti  Ti146  1  0.90220989  0.09388664  0.88165055  1
  Ti  Ti147  1  0.69200237  0.89894691  0.12866438  1
  Ti  Ti148  1  0.50241074  0.09395032  0.37557465  1
  Ti  Ti149  1  0.11579944  0.90738210  0.37204717  1
  Ti  Ti150  1  -0.01211075  0.40712211  0.75371362  1
  Ti  Ti151  1  0.58006471  0.80898409  0.24973385  1
  Ti  Ti152  1  0.79827004  0.20085866  0.24592391  1
  Ti  Ti153  1  0.21992061  0.39371642  0.75630411  1
  Ti  Ti154  1  0.31081382  0.29041517  0.62606210  1
  Ti  Ti155  1  -0.00451082  0.41333310  -0.01601850  1
  Ti  Ti156  1  0.59091286  0.61261082  0.24803889  1
  Ti  Ti157  1  0.39700224  0.61105773  0.24874010  1
  Ti  Ti158  1  0.10389055  0.71499025  0.87579241  1
  Ti  Ti159  1  0.80864436  0.61275599  0.25308185  1
  Mo  Mo160  1  0.19746397  0.60532243  0.75754003  1
  Mo  Mo161  1  0.60238441  0.79541345  0.75173733  1
  Mo  Mo162  1  0.39332516  0.80391347  0.49549735  1
  Mo  Mo163  1  0.00267162  0.80917263  0.00308321  1
  Mo  Mo164  1  0.10157277  0.30187152  0.37537731  1
  Mo  Mo165  1  0.48722198  0.90734085  0.36610253  1
  Mo  Mo166  1  0.68907874  0.10802912  0.37111419  1
  Mo  Mo167  1  0.68935246  0.69737752  0.35605386  1
  Mo  Mo168  1  0.40472227  0.79166065  0.24245588  1
  Mo  Mo169  1  0.59830292  0.59231553  0.49433352  1
  Mo  Mo170  1  0.39354669  0.18395862  0.00424669  1
  Mo  Mo171  1  0.80133564  0.20199626  0.76938632  1
  Mo  Mo172  1  0.89683818  0.90450555  0.37106177  1
  Mo  Mo173  1  0.30181982  0.49968659  0.36722642  1
  Mo  Mo174  1  0.19385950  0.79546885  0.76049848  1
  Mo  Mo175  1  0.60179856  0.19103701  -0.00476190  1
  Mo  Mo176  1  0.30222984  0.69972661  0.37329560  1
  Mo  Mo177  1  0.40382823  0.40275529  0.00846182  1
  Mo  Mo178  1  0.89863962  0.31139399  0.87070144  1
  Mo  Mo179  1  0.19923699  0.58870335  0.49021371  1
  Mo  Mo180  1  0.59129620  0.39325533  0.74899747  1
  Mo  Mo181  1  0.21921322  0.80220296  0.48106464  1
  Mo  Mo182  1  0.19049113  0.00252904  0.74679682  1
  Mo  Mo183  1  0.50535557  0.89964566  0.12810071  1
  Mo  Mo184  1  0.68858280  0.09639411  0.88564836  1
  Mo  Mo185  1  0.81007996  0.59941639  0.74598344  1
  Mo  Mo186  1  0.90079700  0.91094087  0.62777181  1
  Mo  Mo187  1  -0.00640054  0.20578322  0.51480760  1
  Mo  Mo188  1  0.09693581  0.09023988  0.87131479  1
  Mo  Mo189  1  0.69109283  0.30895395  0.87984753  1
  Mo  Mo190  1  0.19740175  -0.01043873  0.00405625  1
  Mo  Mo191  1  0.70301341  0.50486324  0.88660912  1
  Mo  Mo192  1  0.30835500  0.88315532  0.36283240  1
  Mo  Mo193  1  0.19601834  -0.00289323  0.25545461  1
  Mo  Mo194  1  -0.01101566  0.58738412  0.50496958  1
  Mo  Mo195  1  0.59562317  0.78523529  -0.00002698  1
  Mo  Mo196  1  0.19537168  0.60819623  -0.00493453  1
  Mo  Mo197  1  0.41140973  -0.00493620  0.24721959  1
  Mo  Mo198  1  0.49868631  0.69725470  0.13272941  1
  Mo  Mo199  1  0.40769397  0.19239871  0.49811883  1
