# generated using pymatgen
data_HfZrTaTiMo
_symmetry_space_group_name_H-M   'P 1'
_cell_length_a   15.20482065
_cell_length_b   15.20869935
_cell_length_c   16.81075473
_cell_angle_alpha   89.97652444
_cell_angle_beta   90.07558928
_cell_angle_gamma   89.83468327
_symmetry_Int_Tables_number   1
_chemical_formula_structural   HfZrTaTiMo
_chemical_formula_sum   'Hf40 Zr40 Ta40 Ti40 Mo40'
_cell_volume   3887.39225887
_cell_formula_units_Z   40
loop_
 _symmetry_equiv_pos_site_id
 _symmetry_equiv_pos_as_xyz
  1  'x, y, z'
loop_
 _atom_site_type_symbol
 _atom_site_label
 _atom_site_symmetry_multiplicity
 _atom_site_fract_x
 _atom_site_fract_y
 _atom_site_fract_z
 _atom_site_occupancy
  Hf  Hf0  1  0.19829978  0.00012174  0.50606306  1
  Hf  Hf1  1  0.69215130  0.90760925  0.63331378  1
  Hf  Hf2  1  0.10819611  0.89089024  0.63303145  1
  Hf  Hf3  1  0.69546973  0.69454589  0.10022381  1
  Hf  Hf4  1  0.59801571  0.20459265  0.48724961  1
  Hf  Hf5  1  0.39734368  0.00425827  0.00085926  1
  Hf  Hf6  1  0.38941324  0.60485029  0.74262944  1
  Hf  Hf7  1  0.90318923  0.70004172  0.38415855  1
  Hf  Hf8  1  0.01065427  0.40021177  0.25720186  1
  Hf  Hf9  1  0.10582932  0.29687710  0.64182139  1
  Hf  Hf10  1  0.90613379  0.49917436  0.61403305  1
  Hf  Hf11  1  0.70216927  0.29466661  0.62539378  1
  Hf  Hf12  1  0.20406189  0.42137143  0.75391259  1
  Hf  Hf13  1  0.80372975  0.40055628  0.74485099  1
  Hf  Hf14  1  0.60387491  0.40865112  0.00545057  1
  Hf  Hf15  1  0.39756400  0.39134583  0.00752986  1
  Hf  Hf16  1  0.90531826  0.29715040  0.12946028  1
  Hf  Hf17  1  0.29659689  0.90115146  0.12869464  1
  Hf  Hf18  1  0.41788050  0.40045175  0.51502203  1
  Hf  Hf19  1  0.37723549  0.80569165  0.74804096  1
  Hf  Hf20  1  0.11257090  0.10321510  0.86050233  1
  Hf  Hf21  1  0.40916327  0.18664680  0.50380582  1
  Hf  Hf22  1  0.00181869  -0.00314266  0.75092075  1
  Hf  Hf23  1  0.29711435  0.90009890  0.36492227  1
  Hf  Hf24  1  0.19773559  0.20228024  0.49940819  1
  Hf  Hf25  1  0.09781841  0.90634149  0.13159101  1
  Hf  Hf26  1  0.80445412  0.78550295  0.23723363  1
  Hf  Hf27  1  0.80127631  0.39432223  0.49198612  1
  Hf  Hf28  1  0.70342468  0.51113136  0.63009117  1
  Hf  Hf29  1  0.90130898  0.29370157  0.86733680  1
  Hf  Hf30  1  0.80533408  0.18919485  0.49838760  1
  Hf  Hf31  1  0.69505059  0.70155068  0.37144704  1
  Hf  Hf32  1  0.91148671  0.29044091  0.37395269  1
  Hf  Hf33  1  0.09736547  0.29831986  0.86032590  1
  Hf  Hf34  1  0.60473855  0.40188442  0.49843561  1
  Hf  Hf35  1  0.20826391  0.41257626  -0.01007065  1
  Hf  Hf36  1  0.40863235  0.40060505  0.72843357  1
  Hf  Hf37  1  0.30296153  0.31173336  0.38643085  1
  Hf  Hf38  1  0.49201688  0.70034924  0.89267243  1
  Hf  Hf39  1  0.89136583  0.69632378  0.61122650  1
  Zr  Zr40  1  0.39570722  0.77925497  0.24160085  1
  Zr  Zr41  1  0.88948223  0.69656169  0.89762510  1
  Zr  Zr42  1  0.58326985  0.59407472  0.50280593  1
  Zr  Zr43  1  0.48865555  0.49809139  0.87323073  1
  Zr  Zr44  1  0.09454223  0.90393103  0.36914085  1
  Zr  Zr45  1  0.89018599  0.89055829  0.63817281  1
  Zr  Zr46  1  -0.00683801  0.00550754  -0.00273374  1
  Zr  Zr47  1  0.30497489  0.29483380  0.85771044  1
  Zr  Zr48  1  0.89590147  0.89966324  0.36423479  1
  Zr  Zr49  1  0.31893696  0.51123773  0.37980435  1
  Zr  Zr50  1  0.69644322  0.50886128  0.87361259  1
  Zr  Zr51  1  0.80769734  0.19279567  0.25905929  1
  Zr  Zr52  1  0.11238867  0.30139904  0.12216401  1
  Zr  Zr53  1  0.11535654  0.50324246  0.38696324  1
  Zr  Zr54  1  0.09692715  0.50936891  0.12071583  1
  Zr  Zr55  1  0.90245299  0.10128324  0.86633048  1
  Zr  Zr56  1  0.19510104  0.20433145  0.26015848  1
  Zr  Zr57  1  0.48705353  0.68969960  0.37424233  1
  Zr  Zr58  1  0.20804047  0.20099072  0.00077511  1
  Zr  Zr59  1  0.60785424  0.20332705  0.00111526  1
  Zr  Zr60  1  0.70025569  0.07817848  0.37134148  1
  Zr  Zr61  1  -0.00044677  0.77979256  0.76118170  1
  Zr  Zr62  1  0.37480745  0.59408634  0.00565075  1
  Zr  Zr63  1  0.09237541  0.69088479  0.60249670  1
  Zr  Zr64  1  0.69596190  0.90026667  0.14078799  1
  Zr  Zr65  1  0.49942807  0.31193403  0.14273031  1
  Zr  Zr66  1  0.18711879  0.62851567  0.74923120  1
  Zr  Zr67  1  0.50680132  0.90393568  0.36139167  1
  Zr  Zr68  1  0.50387936  0.29168701  0.87008029  1
  Zr  Zr69  1  0.69984974  0.71153027  0.62480905  1
  Zr  Zr70  1  0.58686516  0.80554656  0.76014250  1
  Zr  Zr71  1  0.60113064  0.01393163  0.76325357  1
  Zr  Zr72  1  0.50773493  0.09851541  0.12504199  1
  Zr  Zr73  1  0.59563457  0.81083159  0.50016050  1
  Zr  Zr74  1  0.71374546  0.09434371  0.13353398  1
  Zr  Zr75  1  0.50573725  0.89328707  0.12317677  1
  Zr  Zr76  1  0.28440539  0.50979765  0.60863733  1
  Zr  Zr77  1  0.90269059  0.69210535  0.10438714  1
  Zr  Zr78  1  0.01585653  0.38135292  0.49503888  1
  Zr  Zr79  1  0.89948483  0.50037781  0.87911243  1
  Ta  Ta80  1  0.69423070  0.70770833  0.89391603  1
  Ta  Ta81  1  0.39681886  0.20744262  0.25898549  1
  Ta  Ta82  1  0.90148355  0.50267570  0.37587704  1
  Ta  Ta83  1  0.31496739  0.08169210  0.63040215  1
  Ta  Ta84  1  0.80123728  -0.01720205  0.50188081  1
  Ta  Ta85  1  0.59275071  0.19666930  0.26490769  1
  Ta  Ta86  1  0.79795495  0.18733890  0.74062061  1
  Ta  Ta87  1  0.00012181  0.81092628  0.00119669  1
  Ta  Ta88  1  0.80273599  0.59234953  0.24661763  1
  Ta  Ta89  1  0.62187403  -0.01078636  -0.01252621  1
  Ta  Ta90  1  0.59163301  0.60497349  0.74773818  1
  Ta  Ta91  1  0.00741658  0.17887203  0.50948156  1
  Ta  Ta92  1  0.28702838  0.70082980  0.38109740  1
  Ta  Ta93  1  0.49501620  0.69460205  0.10721923  1
  Ta  Ta94  1  0.10484457  0.89470077  0.87686494  1
  Ta  Ta95  1  0.80910461  0.19620177  0.00478111  1
  Ta  Ta96  1  0.30291330  0.09305260  0.37324222  1
  Ta  Ta97  1  0.59874470  0.40268176  0.73983057  1
  Ta  Ta98  1  0.40743346  -0.00228123  0.76241136  1
  Ta  Ta99  1  0.20427446  0.79855223  0.00553796  1
  Ta  Ta100  1  0.29521418  0.10583151  0.13432057  1
  Ta  Ta101  1  -0.00221785  0.39864971  -0.00351518  1
  Ta  Ta102  1  0.80430757  0.40479979  0.25352231  1
  Ta  Ta103  1  0.79163594  0.59654170  0.48935276  1
  Ta  Ta104  1  -0.00007522  0.60576614  0.25202727  1
  Ta  Ta105  1  0.40079952  0.01041848  0.24702266  1
  Ta  Ta106  1  0.70601273  0.29702833  0.86649906  1
  Ta  Ta107  1  0.91470146  0.08371310  0.38226566  1
  Ta  Ta108  1  0.30380073  0.49525125  0.14008486  1
  Ta  Ta109  1  0.20251437  0.61034010  0.24991584  1
  Ta  Ta110  1  0.70281700  0.30123775  0.13912758  1
  Ta  Ta111  1  0.29801104  0.89775829  0.88622801  1
  Ta  Ta112  1  0.09926283  0.51378424  0.88256685  1
  Ta  Ta113  1  0.30065774  0.28971099  0.62729029  1
  Ta  Ta114  1  0.59418091  0.60662833  0.23744948  1
  Ta  Ta115  1  0.31003066  0.09940171  0.86668945  1
  Ta  Ta116  1  0.00317671  0.79228002  0.24011756  1
  Ta  Ta117  1  0.48220404  0.92097857  0.62387716  1
  Ta  Ta118  1  0.79698734  0.38717789  0.00362058  1
  Ta  Ta119  1  0.79439075  0.83567838  -0.00087864  1
  Ti  Ti120  1  0.09329046  0.70004086  0.89665203  1
  Ti  Ti121  1  0.09885430  0.09436895  0.37240958  1
  Ti  Ti122  1  0.69609604  0.49618338  0.13052723  1
  Ti  Ti123  1  0.89743369  0.91859287  0.13288765  1
  Ti  Ti124  1  0.69906550  0.50373932  0.36276027  1
  Ti  Ti125  1  0.50342297  0.10205230  0.88501401  1
  Ti  Ti126  1  0.10368203  0.70097467  0.11547119  1
  Ti  Ti127  1  0.70200044  0.89178710  0.35711994  1
  Ti  Ti128  1  0.21662089  -0.01298292  0.75130883  1
  Ti  Ti129  1  0.71230850  0.10056275  0.87678587  1
  Ti  Ti130  1  0.39239646  0.81457663  0.50466360  1
  Ti  Ti131  1  0.41382002  0.18840585  0.73483410  1
  Ti  Ti132  1  0.09761963  0.09652167  0.13136152  1
  Ti  Ti133  1  0.69921598  0.09500891  0.61956580  1
  Ti  Ti134  1  0.58288048  0.01001744  0.49935770  1
  Ti  Ti135  1  0.21143705  0.40122964  0.25266213  1
  Ti  Ti136  1  0.89419981  0.49775303  0.11840214  1
  Ti  Ti137  1  0.39723232  0.20027295  0.00708352  1
  Ti  Ti138  1  0.09558956  0.70306809  0.38255352  1
  Ti  Ti139  1  0.20422055  0.79928774  0.49924660  1
  Ti  Ti140  1  0.19809531  0.00538154  -0.00169339  1
  Ti  Ti141  1  0.49163044  0.71171814  0.62666542  1
  Ti  Ti142  1  0.79830609  0.61879919  0.75420409  1
  Ti  Ti143  1  0.69367488  0.30877041  0.36111059  1
  Ti  Ti144  1  0.88737428  0.90117933  0.86631406  1
  Ti  Ti145  1  0.50645281  0.48486334  0.35007798  1
  Ti  Ti146  1  0.10904009  0.09938861  0.63998652  1
  Ti  Ti147  1  0.49805763  0.89706264  0.89029023  1
  Ti  Ti148  1  0.00157012  0.40587324  0.74710359  1
  Ti  Ti149  1  0.90855731  0.28793107  0.62950054  1
  Ti  Ti150  1  -0.00530673  0.59110083  0.74912688  1
  Ti  Ti151  1  0.09621267  0.50031179  0.60841811  1
  Ti  Ti152  1  0.19235269  0.79365461  0.24776086  1
  Ti  Ti153  1  0.89988340  0.09025256  0.62652711  1
  Ti  Ti154  1  0.60108271  0.20326457  0.74610443  1
  Ti  Ti155  1  0.00486023  0.20150711  0.00336904  1
  Ti  Ti156  1  0.28644871  0.70057910  0.88284215  1
  Ti  Ti157  1  -0.01073652  0.81905375  0.50075296  1
  Ti  Ti158  1  0.39025139  0.62072295  0.51558870  1
  Ti  Ti159  1  0.00389791  0.18961926  0.25095782  1
  Mo  Mo160  1  0.39042172  0.80231166  0.00239883  1
  Mo  Mo161  1  0.79634464  0.00452192  0.74521814  1
  Mo  Mo162  1  0.59747095  0.00042273  0.25467475  1
  Mo  Mo163  1  0.39889855  0.39921207  0.25077928  1
  Mo  Mo164  1  0.30262567  0.29901866  0.13122355  1
  Mo  Mo165  1  0.29715143  0.90029308  0.62457925  1
  Mo  Mo166  1  0.80322662  0.00845473  -0.00084763  1
  Mo  Mo167  1  0.51118473  0.09927870  0.62687215  1
  Mo  Mo168  1  0.00089856  0.59522452  0.00402935  1
  Mo  Mo169  1  0.50236071  0.50664360  0.13573537  1
  Mo  Mo170  1  0.28606802  0.69678597  0.12563413  1
  Mo  Mo171  1  0.20294673  0.00535291  0.24921614  1
  Mo  Mo172  1  0.80980493  -0.00321498  0.25390113  1
  Mo  Mo173  1  0.19885117  0.60783824  0.49334691  1
  Mo  Mo174  1  0.29431441  0.71997980  0.61309811  1
  Mo  Mo175  1  0.61226347  0.40423763  0.25096302  1
  Mo  Mo176  1  0.50749444  0.29486285  0.63013462  1
  Mo  Mo177  1  0.59223849  0.59485583  0.00847982  1
  Mo  Mo178  1  0.91278904  0.10295563  0.12605119  1
  Mo  Mo179  1  0.78932896  0.57092962  0.00685357  1
  Mo  Mo180  1  0.50350315  0.51437134  0.62914540  1
  Mo  Mo181  1  0.29508347  0.50648622  0.86583589  1
  Mo  Mo182  1  0.21750035  0.18702338  0.74029035  1
  Mo  Mo183  1  0.59715347  0.80466848  -0.00977084  1
  Mo  Mo184  1  0.50128521  0.30362217  0.36516753  1
  Mo  Mo185  1  0.20869742  0.39358454  0.50892875  1
  Mo  Mo186  1  0.70674453  0.90226808  0.86775867  1
  Mo  Mo187  1  0.19483348  0.80311777  0.76327310  1
  Mo  Mo188  1  0.19558550  0.60416609  -0.00091447  1
  Mo  Mo189  1  0.79007914  0.79798176  0.76858302  1
  Mo  Mo190  1  -0.00322572  0.00419072  0.51285853  1
  Mo  Mo191  1  0.39699448  0.59558631  0.24018168  1
  Mo  Mo192  1  0.79238917  0.80479210  0.49362750  1
  Mo  Mo193  1  0.49233750  0.09950687  0.36895090  1
  Mo  Mo194  1  0.10269972  0.28953742  0.37503669  1
  Mo  Mo195  1  -0.00733543  0.59640940  0.48942563  1
  Mo  Mo196  1  0.00059751  0.19667658  0.73297460  1
  Mo  Mo197  1  0.60001313  0.78761585  0.24607801  1
  Mo  Mo198  1  0.39809269  -0.00318162  0.49576514  1
  Mo  Mo199  1  0.00172065  0.00793903  0.24422517  1
