# generated using pymatgen
data_HfZrTaTiMo
_symmetry_space_group_name_H-M   'P 1'
_cell_length_a   15.21603378
_cell_length_b   15.20502512
_cell_length_c   16.83401365
_cell_angle_alpha   89.94942462
_cell_angle_beta   90.06483247
_cell_angle_gamma   89.84141758
_symmetry_Int_Tables_number   1
_chemical_formula_structural   HfZrTaTiMo
_chemical_formula_sum   'Hf40 Zr40 Ta40 Ti40 Mo40'
_cell_volume   3894.70141856
_cell_formula_units_Z   40
loop_
 _symmetry_equiv_pos_site_id
 _symmetry_equiv_pos_as_xyz
  1  'x, y, z'
loop_
 _atom_site_type_symbol
 _atom_site_label
 _atom_site_symmetry_multiplicity
 _atom_site_fract_x
 _atom_site_fract_y
 _atom_site_fract_z
 _atom_site_occupancy
  Hf  Hf0  1  0.79818940  0.20289831  0.75385189  1
  Hf  Hf1  1  0.70340699  0.30839441  0.61643094  1
  Hf  Hf2  1  0.39545028  0.80349144  -0.01078474  1
  Hf  Hf3  1  0.80218013  0.00312697  0.25284927  1
  Hf  Hf4  1  0.29783994  0.69710988  0.63356563  1
  Hf  Hf5  1  -0.00238006  0.42288469  0.74833268  1
  Hf  Hf6  1  0.50675323  0.71071745  0.12353956  1
  Hf  Hf7  1  0.40279902  0.79610375  0.76383908  1
  Hf  Hf8  1  0.70006177  0.30844879  0.37148116  1
  Hf  Hf9  1  0.50275501  0.30335994  0.36120626  1
  Hf  Hf10  1  0.70870250  0.70135624  0.87440452  1
  Hf  Hf11  1  0.29430162  0.90143937  0.12875444  1
  Hf  Hf12  1  0.39814705  -0.00612154  0.76222734  1
  Hf  Hf13  1  0.11011636  0.51006829  0.87481273  1
  Hf  Hf14  1  0.08105956  0.90214604  0.38234700  1
  Hf  Hf15  1  -0.01623901  0.79539754  0.25560780  1
  Hf  Hf16  1  0.19262324  0.20132230  0.49359389  1
  Hf  Hf17  1  0.79490427  0.00083212  -0.00119230  1
  Hf  Hf18  1  0.90281512  0.49379466  0.12465021  1
  Hf  Hf19  1  0.80996479  0.20502891  0.25284891  1
  Hf  Hf20  1  0.00844006  0.59318611  0.51321294  1
  Hf  Hf21  1  0.90144363  0.29951659  0.62623870  1
  Hf  Hf22  1  0.79786481  -0.00138702  0.51432214  1
  Hf  Hf23  1  0.59310142  0.19095144  0.74549460  1
  Hf  Hf24  1  0.10760926  0.49899166  0.37098608  1
  Hf  Hf25  1  0.68506734  0.90115269  0.12465521  1
  Hf  Hf26  1  0.61345183  0.38746655  0.00237637  1
  Hf  Hf27  1  0.08999127  0.30997628  0.36443251  1
  Hf  Hf28  1  0.28794621  0.68222091  0.87203917  1
  Hf  Hf29  1  0.39788923  0.40108696  0.49849142  1
  Hf  Hf30  1  0.79153400  -0.00489646  0.73943382  1
  Hf  Hf31  1  0.59929397  -0.01230070  0.49000928  1
  Hf  Hf32  1  0.29949067  0.50745751  0.36432794  1
  Hf  Hf33  1  0.49918213  0.09890123  0.36240522  1
  Hf  Hf34  1  0.18046906  0.01153505  0.25520875  1
  Hf  Hf35  1  0.01065623  0.60035046  0.25101961  1
  Hf  Hf36  1  0.08389214  0.91135322  0.12691604  1
  Hf  Hf37  1  0.29557099  0.50011611  0.62746074  1
  Hf  Hf38  1  0.60270314  0.81610410  0.74014426  1
  Hf  Hf39  1  0.28904130  0.10278841  0.63272425  1
  Zr  Zr40  1  0.10442844  0.30433059  0.63289784  1
  Zr  Zr41  1  0.07220425  0.70208719  0.86463464  1
  Zr  Zr42  1  0.10989559  0.90365732  0.62840891  1
  Zr  Zr43  1  0.11345930  0.70469314  0.38627111  1
  Zr  Zr44  1  0.07687413  0.29127125  0.12631228  1
  Zr  Zr45  1  0.40019796  0.39596825  0.00919123  1
  Zr  Zr46  1  0.50897925  0.49814547  0.36146699  1
  Zr  Zr47  1  0.29395645  0.30465865  0.36602295  1
  Zr  Zr48  1  0.30729818  0.89733757  0.61865776  1
  Zr  Zr49  1  0.91812648  0.10122716  0.12081010  1
  Zr  Zr50  1  0.60355460  0.60041873  0.75860399  1
  Zr  Zr51  1  0.79946347  0.21206424  0.00278330  1
  Zr  Zr52  1  0.18476664  0.80573729  -0.00227004  1
  Zr  Zr53  1  0.71567206  0.70389351  0.11754175  1
  Zr  Zr54  1  0.60234450  0.60019194  -0.00317550  1
  Zr  Zr55  1  0.00515952  0.17502130  0.26614502  1
  Zr  Zr56  1  0.09159113  0.90765100  0.85979922  1
  Zr  Zr57  1  0.39660547  0.78482744  0.48591962  1
  Zr  Zr58  1  0.28198990  0.88408879  0.37428034  1
  Zr  Zr59  1  0.61045190  0.61161605  0.25406270  1
  Zr  Zr60  1  0.60081791  0.19850909  0.49847439  1
  Zr  Zr61  1  0.80725578  0.79261703  0.73606419  1
  Zr  Zr62  1  0.30178421  0.27653464  0.87639582  1
  Zr  Zr63  1  -0.00617776  0.01138858  0.51070960  1
  Zr  Zr64  1  0.20148626  0.60005562  0.01066350  1
  Zr  Zr65  1  0.49697518  0.07570049  0.62730127  1
  Zr  Zr66  1  0.39657600  -0.00692695  0.48130477  1
  Zr  Zr67  1  0.88981715  0.89307473  0.12263804  1
  Zr  Zr68  1  0.70834575  0.67519795  0.61749649  1
  Zr  Zr69  1  0.49309649  0.29600456  0.62507737  1
  Zr  Zr70  1  0.39831224  0.39335408  0.22912260  1
  Zr  Zr71  1  0.51241544  0.28741854  0.88748290  1
  Zr  Zr72  1  -0.00122577  0.40124860  -0.00992179  1
  Zr  Zr73  1  0.50858064  0.50767609  0.62595152  1
  Zr  Zr74  1  0.68828191  0.10584116  0.88120175  1
  Zr  Zr75  1  0.61256988  0.39814076  0.75866936  1
  Zr  Zr76  1  0.39123187  0.19396537  0.49254934  1
  Zr  Zr77  1  0.70583277  0.50038354  0.12890228  1
  Zr  Zr78  1  0.81790682  0.61458811  0.26381525  1
  Zr  Zr79  1  0.40505578  0.39858047  0.76325655  1
  Ta  Ta80  1  -0.00431895  0.20184858  0.49114022  1
  Ta  Ta81  1  0.60183383  0.60498912  0.49119510  1
  Ta  Ta82  1  0.89576971  0.31048420  0.86659982  1
  Ta  Ta83  1  0.20563134  0.40931144  0.75737177  1
  Ta  Ta84  1  0.58021001  0.01222655  0.00752840  1
  Ta  Ta85  1  0.20157978  0.00771971  -0.00928449  1
  Ta  Ta86  1  0.30397426  0.70399704  0.12531633  1
  Ta  Ta87  1  0.39110723  -0.00252011  0.25910134  1
  Ta  Ta88  1  0.40006222  0.60666530  0.24203801  1
  Ta  Ta89  1  0.80931294  0.19628229  0.49360355  1
  Ta  Ta90  1  0.60712641  0.41492563  0.49987351  1
  Ta  Ta91  1  0.40065022  0.79774340  0.25705595  1
  Ta  Ta92  1  0.00278190  0.00115761  -0.01124395  1
  Ta  Ta93  1  0.59694849  0.80209746  0.51038116  1
  Ta  Ta94  1  0.29983930  0.09607962  0.12472809  1
  Ta  Ta95  1  0.20273705  0.39299997  0.00982586  1
  Ta  Ta96  1  0.19284621  0.40249080  0.22633617  1
  Ta  Ta97  1  0.10603547  0.11085101  0.87087532  1
  Ta  Ta98  1  0.81502118  0.40295501  0.25966150  1
  Ta  Ta99  1  0.10307985  0.30226446  0.86867694  1
  Ta  Ta100  1  0.48623419  0.10162592  0.87576006  1
  Ta  Ta101  1  0.87991617  0.89251387  0.38572436  1
  Ta  Ta102  1  0.20616477  0.20222420  0.23968846  1
  Ta  Ta103  1  0.29675887  0.29659446  0.63757933  1
  Ta  Ta104  1  0.20311510  0.80255826  0.75745109  1
  Ta  Ta105  1  -0.00143088  0.20058904  0.75949037  1
  Ta  Ta106  1  0.80603613  0.40690879  0.49229440  1
  Ta  Ta107  1  0.59971996  0.81339584  -0.00720188  1
  Ta  Ta108  1  0.91821618  0.69426698  0.10425226  1
  Ta  Ta109  1  0.80296790  0.79753523  -0.00959453  1
  Ta  Ta110  1  0.70645475  0.09624462  0.37481980  1
  Ta  Ta111  1  0.60658291  0.19181887  0.24656451  1
  Ta  Ta112  1  0.49031948  0.90730937  0.12927335  1
  Ta  Ta113  1  0.71973001  0.49523825  0.88167226  1
  Ta  Ta114  1  0.49546669  0.70175097  0.62459040  1
  Ta  Ta115  1  0.09571897  0.50749073  0.12091853  1
  Ta  Ta116  1  0.19145911  0.79122793  0.24000096  1
  Ta  Ta117  1  0.51275741  0.28312495  0.12764099  1
  Ta  Ta118  1  0.70544958  0.71905568  0.39014230  1
  Ta  Ta119  1  0.89831523  0.89028992  0.87200608  1
  Ti  Ti120  1  0.39461708  0.59121944  0.76037277  1
  Ti  Ti121  1  0.00268254  0.39832855  0.50758933  1
  Ti  Ti122  1  0.49807599  0.50275690  0.88373968  1
  Ti  Ti123  1  0.69904716  0.10063012  0.62382498  1
  Ti  Ti124  1  0.20003870  0.19798662  0.00767133  1
  Ti  Ti125  1  0.68760264  0.10500093  0.12497795  1
  Ti  Ti126  1  0.40074129  0.59633503  0.00215823  1
  Ti  Ti127  1  0.40780022  0.18245921  0.01668229  1
  Ti  Ti128  1  -0.00273134  0.80223188  0.51986576  1
  Ti  Ti129  1  0.80050472  0.41066908  0.75032465  1
  Ti  Ti130  1  0.50758576  0.90778120  0.87872088  1
  Ti  Ti131  1  0.80776479  0.40218443  -0.00316905  1
  Ti  Ti132  1  0.79768384  0.80361511  0.52062546  1
  Ti  Ti133  1  0.20530195  0.60611087  0.23621334  1
  Ti  Ti134  1  0.00105636  0.19870073  -0.01468144  1
  Ti  Ti135  1  0.39576079  0.19104815  0.23941093  1
  Ti  Ti136  1  0.30264263  0.50156892  0.12507243  1
  Ti  Ti137  1  0.19568335  0.40699949  0.50550473  1
  Ti  Ti138  1  0.09306458  0.11069501  0.63725085  1
  Ti  Ti139  1  0.90253229  0.09455444  0.87330174  1
  Ti  Ti140  1  0.19723476  0.00729558  0.48890865  1
  Ti  Ti141  1  0.50900438  0.49786900  0.12982992  1
  Ti  Ti142  1  0.78349149  0.80290214  0.25745542  1
  Ti  Ti143  1  0.70867239  0.30599929  0.13747875  1
  Ti  Ti144  1  0.50333316  0.69942486  0.87931882  1
  Ti  Ti145  1  -0.01293600  0.00484304  0.73972907  1
  Ti  Ti146  1  0.82162193  0.59555178  0.75467891  1
  Ti  Ti147  1  0.50552691  0.70426844  0.36868616  1
  Ti  Ti148  1  0.69650263  0.90709494  0.87661189  1
  Ti  Ti149  1  0.70888995  0.50959384  0.37314869  1
  Ti  Ti150  1  0.39117222  -0.00187626  -0.00727044  1
  Ti  Ti151  1  0.20290083  0.00826378  0.76243794  1
  Ti  Ti152  1  0.59752733  -0.01222883  0.25834477  1
  Ti  Ti153  1  -0.00853866  0.79796237  0.73045922  1
  Ti  Ti154  1  0.10584473  0.69155309  0.63458853  1
  Ti  Ti155  1  0.90098742  0.69939852  0.40131183  1
  Ti  Ti156  1  0.91192326  0.49126970  0.37879358  1
  Ti  Ti157  1  0.21309215  0.60770218  0.50042807  1
  Ti  Ti158  1  0.40696451  0.59771714  0.49195526  1
  Ti  Ti159  1  0.88598388  0.50981148  0.61717895  1
  Mo  Mo160  1  -0.01513264  -0.01398939  0.26895091  1
  Mo  Mo161  1  0.89844077  0.69999474  0.87968215  1
  Mo  Mo162  1  0.69986638  0.89841494  0.37678925  1
  Mo  Mo163  1  0.49819892  0.08759843  0.14119997  1
  Mo  Mo164  1  0.30258140  0.68799986  0.36337274  1
  Mo  Mo165  1  -0.00596731  0.80970100  -0.00360828  1
  Mo  Mo166  1  0.68835144  0.90466425  0.62320720  1
  Mo  Mo167  1  0.49669650  0.88863229  0.62386726  1
  Mo  Mo168  1  0.00382187  0.60285111  0.00113184  1
  Mo  Mo169  1  0.89964385  0.30489751  0.38593678  1
  Mo  Mo170  1  0.10393116  0.10183133  0.38237694  1
  Mo  Mo171  1  0.19719187  0.59597866  0.74880335  1
  Mo  Mo172  1  0.61174814  0.39284095  0.23926269  1
  Mo  Mo173  1  0.19062497  0.79089733  0.50717234  1
  Mo  Mo174  1  0.29797381  0.09795091  0.88168905  1
  Mo  Mo175  1  0.90460305  0.51406252  0.87506150  1
  Mo  Mo176  1  0.89618679  0.09333775  0.38062546  1
  Mo  Mo177  1  0.80277101  0.59477847  0.48341511  1
  Mo  Mo178  1  0.29603133  0.90004384  0.87606971  1
  Mo  Mo179  1  0.71046273  0.49607106  0.61994520  1
  Mo  Mo180  1  0.10118477  0.70572597  0.12699566  1
  Mo  Mo181  1  0.50652070  0.88976366  0.36190586  1
  Mo  Mo182  1  0.59692646  0.80506542  0.25311856  1
  Mo  Mo183  1  0.39281613  0.19269002  0.74951801  1
  Mo  Mo184  1  0.29739156  0.28994366  0.11878774  1
  Mo  Mo185  1  0.90088461  0.89946441  0.62565920  1
  Mo  Mo186  1  0.10659928  0.50253332  0.62540983  1
  Mo  Mo187  1  0.29432505  0.10193103  0.36075407  1
  Mo  Mo188  1  -0.00428871  0.39889993  0.24834772  1
  Mo  Mo189  1  0.59948358  -0.00099541  0.75538706  1
  Mo  Mo190  1  -0.00710954  0.60788325  0.72970332  1
  Mo  Mo191  1  0.81380560  0.59442608  -0.00987460  1
  Mo  Mo192  1  0.89220163  0.30393389  0.12594445  1
  Mo  Mo193  1  0.90687796  0.69758586  0.61071402  1
  Mo  Mo194  1  0.90341440  0.11063706  0.63384979  1
  Mo  Mo195  1  0.59949418  0.19401647  0.01689272  1
  Mo  Mo196  1  0.10858929  0.09915518  0.10707222  1
  Mo  Mo197  1  0.71040762  0.30545154  0.87538498  1
  Mo  Mo198  1  0.19532353  0.20055655  0.75295595  1
  Mo  Mo199  1  0.30424261  0.49253943  0.88335301  1
