# generated using pymatgen
data_HfZrTaTiMo
_symmetry_space_group_name_H-M   'P 1'
_cell_length_a   15.22183461
_cell_length_b   15.20974489
_cell_length_c   16.86041832
_cell_angle_alpha   89.96699000
_cell_angle_beta   90.02758640
_cell_angle_gamma   89.98953584
_symmetry_Int_Tables_number   1
_chemical_formula_structural   HfZrTaTiMo
_chemical_formula_sum   'Hf40 Zr40 Ta40 Ti40 Mo40'
_cell_volume   3903.52661327
_cell_formula_units_Z   40
loop_
 _symmetry_equiv_pos_site_id
 _symmetry_equiv_pos_as_xyz
  1  'x, y, z'
loop_
 _atom_site_type_symbol
 _atom_site_label
 _atom_site_symmetry_multiplicity
 _atom_site_fract_x
 _atom_site_fract_y
 _atom_site_fract_z
 _atom_site_occupancy
  Hf  Hf0  1  0.00848000  -0.00868105  0.50673825  1
  Hf  Hf1  1  0.30699592  0.29938983  0.37027276  1
  Hf  Hf2  1  0.80995074  -0.01681059  -0.00256638  1
  Hf  Hf3  1  0.31736990  0.69936974  0.88093642  1
  Hf  Hf4  1  0.00171235  0.21014434  0.51128900  1
  Hf  Hf5  1  0.61007669  0.40476834  0.51302230  1
  Hf  Hf6  1  0.11051724  0.48772861  0.85996839  1
  Hf  Hf7  1  0.89689465  0.31805353  0.37916222  1
  Hf  Hf8  1  0.30177028  0.48938054  0.63121322  1
  Hf  Hf9  1  0.90456825  0.30348480  0.87672334  1
  Hf  Hf10  1  0.70838082  0.47353304  0.36672204  1
  Hf  Hf11  1  0.69315467  0.29617438  0.86711779  1
  Hf  Hf12  1  0.21391366  0.61023533  0.75041550  1
  Hf  Hf13  1  0.27658197  0.90613838  0.11420851  1
  Hf  Hf14  1  0.18648787  0.60885246  0.51688082  1
  Hf  Hf15  1  0.90630297  0.89135866  0.37922473  1
  Hf  Hf16  1  0.20311018  0.39924463  0.49705771  1
  Hf  Hf17  1  -0.00240098  0.41746101  0.51196193  1
  Hf  Hf18  1  0.40824052  0.41606257  0.23927208  1
  Hf  Hf19  1  0.00797969  -0.00254857  0.25092034  1
  Hf  Hf20  1  0.50330209  0.11245317  0.36152875  1
  Hf  Hf21  1  -0.00996325  0.40209694  0.23886280  1
  Hf  Hf22  1  0.40844604  -0.00419084  0.75079162  1
  Hf  Hf23  1  0.58332762  0.79405762  0.25035503  1
  Hf  Hf24  1  0.40626837  0.19865416  0.75483326  1
  Hf  Hf25  1  0.39648087  0.41026679  0.01020648  1
  Hf  Hf26  1  0.60179251  0.60226651  0.73779574  1
  Hf  Hf27  1  0.70681369  0.69279097  0.11617846  1
  Hf  Hf28  1  0.91273231  0.08965532  0.86908675  1
  Hf  Hf29  1  -0.01241730  0.81091213  -0.02100427  1
  Hf  Hf30  1  0.91194714  0.09846061  0.12672410  1
  Hf  Hf31  1  0.68818515  0.68796072  0.38071880  1
  Hf  Hf32  1  0.90558561  0.51256301  0.64156465  1
  Hf  Hf33  1  0.80214272  0.19719680  0.74441849  1
  Hf  Hf34  1  0.20783638  0.62524360  0.24627358  1
  Hf  Hf35  1  0.08195881  0.70476483  0.64984786  1
  Hf  Hf36  1  0.29547562  0.30190697  0.87882102  1
  Hf  Hf37  1  0.11166487  0.09400864  0.63112009  1
  Hf  Hf38  1  0.20443800  0.19275825  0.24326217  1
  Hf  Hf39  1  0.38084445  0.01424900  0.48369986  1
  Zr  Zr40  1  0.68236867  0.88763882  0.61569444  1
  Zr  Zr41  1  0.69711901  0.89381268  0.13092139  1
  Zr  Zr42  1  0.90245964  0.10674860  0.37662939  1
  Zr  Zr43  1  0.59633978  0.39374750  -0.00744806  1
  Zr  Zr44  1  0.20780181  0.59152236  -0.00792233  1
  Zr  Zr45  1  0.00361319  0.60539244  -0.02506318  1
  Zr  Zr46  1  0.50268312  0.71956166  0.60684058  1
  Zr  Zr47  1  0.58422222  0.80840517  0.75411534  1
  Zr  Zr48  1  0.80204928  0.19263129  -0.00435118  1
  Zr  Zr49  1  0.00648036  0.60962205  0.23817373  1
  Zr  Zr50  1  0.60166779  0.00688479  0.48769856  1
  Zr  Zr51  1  0.70221313  0.27908298  0.37859065  1
  Zr  Zr52  1  0.90203711  0.70545910  0.11077294  1
  Zr  Zr53  1  0.00445123  0.20067936  0.74182862  1
  Zr  Zr54  1  0.50956743  0.31444051  0.36770693  1
  Zr  Zr55  1  0.20991021  0.19478152  0.49849520  1
  Zr  Zr56  1  0.19509356  0.39785390  0.23912624  1
  Zr  Zr57  1  0.50233174  0.09194532  0.13851651  1
  Zr  Zr58  1  0.59390549  0.58679384  0.23949862  1
  Zr  Zr59  1  0.69195217  0.70155030  0.88229127  1
  Zr  Zr60  1  0.69697481  0.29577439  0.63199951  1
  Zr  Zr61  1  0.81074259  0.58380481  0.25364687  1
  Zr  Zr62  1  0.28716296  0.89313104  0.61069799  1
  Zr  Zr63  1  0.70637372  0.09398299  0.13605532  1
  Zr  Zr64  1  0.80235639  0.57290247  0.50332261  1
  Zr  Zr65  1  0.80996790  0.79394898  0.25895432  1
  Zr  Zr66  1  0.29149240  0.72685314  0.39358011  1
  Zr  Zr67  1  0.11552500  0.72336723  0.10888068  1
  Zr  Zr68  1  0.00419682  0.40546168  0.00120188  1
  Zr  Zr69  1  0.38252827  0.79658494  0.74529253  1
  Zr  Zr70  1  0.09149110  0.91359021  0.85413692  1
  Zr  Zr71  1  0.68998982  0.90012141  0.87734326  1
  Zr  Zr72  1  0.78840517  -0.00565944  0.73989567  1
  Zr  Zr73  1  0.79954401  0.78686136  0.50502613  1
  Zr  Zr74  1  0.59820565  0.58753252  0.00504258  1
  Zr  Zr75  1  0.48676643  0.88973986  0.37898666  1
  Zr  Zr76  1  0.58915248  -0.00239641  0.00295226  1
  Zr  Zr77  1  0.08640508  0.50817157  0.37330176  1
  Zr  Zr78  1  0.38984196  0.19564793  0.01578539  1
  Zr  Zr79  1  0.30649464  0.51421158  0.37393091  1
  Ta  Ta80  1  0.20048090  -0.01045812  0.25270177  1
  Ta  Ta81  1  0.09562608  0.89725941  0.64906400  1
  Ta  Ta82  1  0.30695508  0.29550468  0.62792407  1
  Ta  Ta83  1  0.80496446  -0.00273828  0.50451051  1
  Ta  Ta84  1  0.21168647  0.19995141  0.74838768  1
  Ta  Ta85  1  0.89768908  0.30110579  0.11810527  1
  Ta  Ta86  1  0.91370642  0.68261164  0.38351121  1
  Ta  Ta87  1  0.48802129  0.69363102  0.38849252  1
  Ta  Ta88  1  0.80514370  0.60314521  0.76012758  1
  Ta  Ta89  1  0.41124324  0.61256230  0.01935636  1
  Ta  Ta90  1  0.69584182  0.09914376  0.87448905  1
  Ta  Ta91  1  0.39882349  0.59839309  0.51458615  1
  Ta  Ta92  1  0.79826702  0.19648537  0.51197208  1
  Ta  Ta93  1  0.50756404  0.51104726  0.38140727  1
  Ta  Ta94  1  0.50337472  0.10051233  0.88246055  1
  Ta  Ta95  1  0.50988623  0.30617520  0.13176681  1
  Ta  Ta96  1  0.50394716  0.10814856  0.61832416  1
  Ta  Ta97  1  0.40534982  0.61967125  0.23714408  1
  Ta  Ta98  1  0.89917106  0.09337870  0.62300908  1
  Ta  Ta99  1  0.11825613  0.09191186  0.11828756  1
  Ta  Ta100  1  0.11156154  0.89187765  0.38396474  1
  Ta  Ta101  1  0.11289287  0.09392485  0.37817595  1
  Ta  Ta102  1  0.10733772  0.29506180  0.87002783  1
  Ta  Ta103  1  0.58055784  0.79147889  0.00658850  1
  Ta  Ta104  1  0.70575876  0.48235547  0.12608545  1
  Ta  Ta105  1  0.31108759  0.09923015  0.62747819  1
  Ta  Ta106  1  0.49620689  0.30439695  0.62730884  1
  Ta  Ta107  1  0.01109611  0.00377047  0.00003858  1
  Ta  Ta108  1  0.90687305  0.88812916  0.63591935  1
  Ta  Ta109  1  0.29734868  0.51152354  0.12736911  1
  Ta  Ta110  1  0.79778251  0.40292660  -0.00635961  1
  Ta  Ta111  1  0.39346997  0.80638929  0.00948987  1
  Ta  Ta112  1  0.21500641  0.00009789  0.75654900  1
  Ta  Ta113  1  0.11285246  0.31248610  0.63593321  1
  Ta  Ta114  1  0.80590688  0.59016212  -0.01803639  1
  Ta  Ta115  1  0.01841910  0.20129165  0.00256494  1
  Ta  Ta116  1  0.37103765  0.80412228  0.24234782  1
  Ta  Ta117  1  0.38572172  0.00310887  0.25778493  1
  Ta  Ta118  1  0.41290782  0.20980117  0.50047171  1
  Ta  Ta119  1  0.70523438  0.29612107  0.12639620  1
  Ti  Ti120  1  0.48062252  0.89399928  0.88538598  1
  Ti  Ti121  1  0.30984979  0.49646430  0.86892964  1
  Ti  Ti122  1  0.69740314  0.89665105  0.37505251  1
  Ti  Ti123  1  0.60264588  0.59700619  0.51773104  1
  Ti  Ti124  1  -0.00306523  0.39774780  0.74893167  1
  Ti  Ti125  1  0.48926608  0.91405820  0.60440576  1
  Ti  Ti126  1  0.09975882  0.50552185  0.11949120  1
  Ti  Ti127  1  0.40806832  0.40604908  0.50266983  1
  Ti  Ti128  1  0.20647654  0.00991438  -0.01155908  1
  Ti  Ti129  1  0.40509911  0.40343229  0.75156496  1
  Ti  Ti130  1  0.59394230  0.00837682  0.74922893  1
  Ti  Ti131  1  0.49655519  0.30167496  0.87522412  1
  Ti  Ti132  1  0.00245307  0.78839813  0.51037824  1
  Ti  Ti133  1  0.59507186  0.19523105  0.75257925  1
  Ti  Ti134  1  0.01088900  0.20491925  0.24398980  1
  Ti  Ti135  1  0.01746264  0.80385659  0.24805666  1
  Ti  Ti136  1  0.70723276  0.09086478  0.36857380  1
  Ti  Ti137  1  0.69977379  0.49349662  0.86551330  1
  Ti  Ti138  1  0.59218623  0.40515895  0.74627327  1
  Ti  Ti139  1  0.11181717  0.10896152  0.87162229  1
  Ti  Ti140  1  0.30784846  0.09602535  0.87886440  1
  Ti  Ti141  1  0.40993590  0.60147856  0.73419885  1
  Ti  Ti142  1  0.79802126  0.40279586  0.74589351  1
  Ti  Ti143  1  0.10131973  0.50275189  0.64674701  1
  Ti  Ti144  1  0.49489665  0.51783437  0.87057133  1
  Ti  Ti145  1  0.90560106  0.89662462  0.12688455  1
  Ti  Ti146  1  0.79081827  0.78605377  0.73951124  1
  Ti  Ti147  1  0.89352357  0.50178331  0.11487576  1
  Ti  Ti148  1  0.80112335  -0.00681126  0.25508890  1
  Ti  Ti149  1  0.60897394  0.20097241  0.24440241  1
  Ti  Ti150  1  0.09578898  0.70790813  0.38295991  1
  Ti  Ti151  1  0.39384243  0.20516382  0.23415133  1
  Ti  Ti152  1  0.88840849  0.89397914  0.85514642  1
  Ti  Ti153  1  0.48658966  0.90239445  0.13338041  1
  Ti  Ti154  1  0.81424002  0.20354412  0.24772185  1
  Ti  Ti155  1  0.19406694  0.80850332  -0.02695962  1
  Ti  Ti156  1  0.69280823  0.09661080  0.61884683  1
  Ti  Ti157  1  0.19830740  0.37755714  0.02051163  1
  Ti  Ti158  1  0.09734003  0.29751235  0.37436081  1
  Ti  Ti159  1  0.59871405  0.19928752  0.00359983  1
  Mo  Mo160  1  0.19903586  0.80262244  0.76458371  1
  Mo  Mo161  1  0.28569499  0.91220163  0.38019561  1
  Mo  Mo162  1  -0.00416092  0.00193644  0.74041129  1
  Mo  Mo163  1  0.30041538  0.30291449  0.12744061  1
  Mo  Mo164  1  0.49987766  0.50186134  0.12603482  1
  Mo  Mo165  1  0.49848148  0.49607593  0.62595249  1
  Mo  Mo166  1  0.49402046  0.69685005  0.87910095  1
  Mo  Mo167  1  0.10246629  0.70422139  0.85872551  1
  Mo  Mo168  1  0.89424100  0.49458457  0.86067580  1
  Mo  Mo169  1  0.89330113  0.70187871  0.63301781  1
  Mo  Mo170  1  0.89035038  0.70531769  0.87253731  1
  Mo  Mo171  1  0.39221719  0.80151282  0.50228106  1
  Mo  Mo172  1  0.60348851  -0.00483069  0.26653660  1
  Mo  Mo173  1  0.29929644  0.70874725  0.11489979  1
  Mo  Mo174  1  0.80299608  0.38821169  0.23780435  1
  Mo  Mo175  1  0.79461754  0.79704424  -0.00237303  1
  Mo  Mo176  1  0.39739110  -0.00406218  -0.00286595  1
  Mo  Mo177  1  0.59834879  0.19854217  0.50413867  1
  Mo  Mo178  1  0.20879179  0.39370590  0.75037435  1
  Mo  Mo179  1  0.70876515  0.68942121  0.62408843  1
  Mo  Mo180  1  -0.00285132  0.61058189  0.50679941  1
  Mo  Mo181  1  0.80930075  0.38644287  0.51707483  1
  Mo  Mo182  1  0.29316843  0.69684989  0.61668816  1
  Mo  Mo183  1  0.18864743  0.81018088  0.24966066  1
  Mo  Mo184  1  0.70020903  0.49864790  0.64104439  1
  Mo  Mo185  1  0.09205437  0.29104173  0.12556202  1
  Mo  Mo186  1  0.29889148  0.90775869  0.88520871  1
  Mo  Mo187  1  0.30034692  0.10626969  0.36693450  1
  Mo  Mo188  1  0.49889374  0.71464459  0.12994613  1
  Mo  Mo189  1  0.19651639  0.19581948  -0.00039378  1
  Mo  Mo190  1  0.60467151  0.39293528  0.24334131  1
  Mo  Mo191  1  0.30203535  0.09360766  0.12522123  1
  Mo  Mo192  1  0.17619252  0.80760413  0.51187843  1
  Mo  Mo193  1  -0.00320389  0.59890723  0.77205113  1
  Mo  Mo194  1  -0.01737765  0.79235695  0.76524210  1
  Mo  Mo195  1  0.08696477  0.90998906  0.11422807  1
  Mo  Mo196  1  0.90220861  0.30389533  0.62578923  1
  Mo  Mo197  1  0.19096208  0.00355539  0.50211505  1
  Mo  Mo198  1  0.60001481  0.79118408  0.48498226  1
  Mo  Mo199  1  0.90314965  0.49591733  0.37476424  1
