# generated using pymatgen
data_HfZrTaTiMo
_symmetry_space_group_name_H-M   'P 1'
_cell_length_a   15.21642859
_cell_length_b   15.21346145
_cell_length_c   16.82285680
_cell_angle_alpha   89.96536987
_cell_angle_beta   89.98051887
_cell_angle_gamma   90.09770331
_symmetry_Int_Tables_number   1
_chemical_formula_structural   HfZrTaTiMo
_chemical_formula_sum   'Hf40 Zr40 Ta40 Ti40 Mo40'
_cell_volume   3894.39306235
_cell_formula_units_Z   40
loop_
 _symmetry_equiv_pos_site_id
 _symmetry_equiv_pos_as_xyz
  1  'x, y, z'
loop_
 _atom_site_type_symbol
 _atom_site_label
 _atom_site_symmetry_multiplicity
 _atom_site_fract_x
 _atom_site_fract_y
 _atom_site_fract_z
 _atom_site_occupancy
  Hf  Hf0  1  0.70347992  0.10137302  0.37249730  1
  Hf  Hf1  1  0.70581170  0.50009453  0.60862191  1
  Hf  Hf2  1  0.41041302  0.80717115  0.24686287  1
  Hf  Hf3  1  0.08458172  0.49198241  0.12908879  1
  Hf  Hf4  1  0.20377904  -0.00467676  0.73776364  1
  Hf  Hf5  1  0.30966107  0.90545850  0.60798793  1
  Hf  Hf6  1  0.00670611  0.19707477  0.51878612  1
  Hf  Hf7  1  0.40762785  0.00265155  0.75977556  1
  Hf  Hf8  1  0.87821738  0.32721829  0.12972519  1
  Hf  Hf9  1  0.81404207  -0.01154331  0.49954946  1
  Hf  Hf10  1  0.29597743  0.70755998  0.87697106  1
  Hf  Hf11  1  0.80257919  0.22314150  0.26382985  1
  Hf  Hf12  1  0.60245017  0.59455625  0.74272815  1
  Hf  Hf13  1  0.40055220  0.79901726  0.74461247  1
  Hf  Hf14  1  0.20482578  0.19972241  0.23434089  1
  Hf  Hf15  1  0.60426988  0.19329980  0.00230342  1
  Hf  Hf16  1  0.90919434  0.70438696  0.88282738  1
  Hf  Hf17  1  0.89967285  0.90380682  0.11141390  1
  Hf  Hf18  1  0.59928018  0.79512451  -0.00940203  1
  Hf  Hf19  1  0.59896925  0.80620786  0.76608515  1
  Hf  Hf20  1  0.10047160  0.89275862  0.12328024  1
  Hf  Hf21  1  0.00904377  0.40255041  0.49361129  1
  Hf  Hf22  1  0.10470803  0.09133491  0.38444992  1
  Hf  Hf23  1  0.60338281  0.00085268  0.49948295  1
  Hf  Hf24  1  0.50071488  0.68564090  0.87752585  1
  Hf  Hf25  1  0.68891380  0.51383669  0.37338659  1
  Hf  Hf26  1  0.19232651  0.59315645  0.75943249  1
  Hf  Hf27  1  0.89824481  0.32058529  0.63442710  1
  Hf  Hf28  1  0.29675080  0.68592165  0.62213011  1
  Hf  Hf29  1  0.30336860  0.69079686  0.37583664  1
  Hf  Hf30  1  0.90855311  0.70152440  0.10895198  1
  Hf  Hf31  1  0.10565787  0.50247665  0.36295200  1
  Hf  Hf32  1  0.40681118  0.21055333  0.24196425  1
  Hf  Hf33  1  0.59699829  0.39055732  0.24992042  1
  Hf  Hf34  1  0.70240192  0.70646473  0.63021016  1
  Hf  Hf35  1  0.40058181  0.58835616  0.74640226  1
  Hf  Hf36  1  0.80697081  0.00929708  0.24268706  1
  Hf  Hf37  1  0.80600746  0.19872311  0.49938877  1
  Hf  Hf38  1  0.42174840  0.78200582  0.50247665  1
  Hf  Hf39  1  0.80428233  0.23425415  -0.01028720  1
  Zr  Zr40  1  0.09883300  0.69534162  0.12786169  1
  Zr  Zr41  1  0.29876162  0.10897270  0.38698877  1
  Zr  Zr42  1  0.40830514  0.60216755  0.00984622  1
  Zr  Zr43  1  0.70200438  0.88759030  0.36755962  1
  Zr  Zr44  1  0.29873400  0.90569542  0.39183401  1
  Zr  Zr45  1  0.49211186  0.49195707  0.61257407  1
  Zr  Zr46  1  0.68943303  0.30302690  0.60781197  1
  Zr  Zr47  1  0.59526237  -0.01030480  0.24009028  1
  Zr  Zr48  1  0.02034448  0.01643983  0.00343181  1
  Zr  Zr49  1  0.30477183  0.48380035  0.88740750  1
  Zr  Zr50  1  0.01548079  -0.00867894  0.52597110  1
  Zr  Zr51  1  0.01553133  0.80029248  0.74589584  1
  Zr  Zr52  1  0.80353596  0.79825679  0.24488729  1
  Zr  Zr53  1  0.79124392  0.21228121  0.75213253  1
  Zr  Zr54  1  0.49012252  0.49514346  0.37962490  1
  Zr  Zr55  1  0.48367158  0.29583611  0.89340474  1
  Zr  Zr56  1  -0.02494743  0.39513051  -0.02168438  1
  Zr  Zr57  1  -0.01828881  0.39362063  0.26444675  1
  Zr  Zr58  1  0.01681091  0.20840347  0.73542343  1
  Zr  Zr59  1  0.80665919  0.81127993  0.76618969  1
  Zr  Zr60  1  0.71276579  0.91036805  0.63185235  1
  Zr  Zr61  1  0.62220648  0.58228221  0.00912355  1
  Zr  Zr62  1  0.18395103  0.79512328  0.50816641  1
  Zr  Zr63  1  0.19836119  0.00091423  0.24071220  1
  Zr  Zr64  1  0.40625249  0.59621025  0.24116910  1
  Zr  Zr65  1  0.38403301  0.38251337  0.74745138  1
  Zr  Zr66  1  0.50319988  0.10316148  0.37786212  1
  Zr  Zr67  1  -0.02214623  0.79521073  0.50449191  1
  Zr  Zr68  1  0.19592717  0.59569352  -0.00218309  1
  Zr  Zr69  1  0.39592090  0.00678847  0.24320960  1
  Zr  Zr70  1  0.79036914  0.01503744  -0.00528143  1
  Zr  Zr71  1  0.91518857  0.12316004  0.87491290  1
  Zr  Zr72  1  0.90098593  0.51101716  0.62714036  1
  Zr  Zr73  1  0.29809039  0.31147092  0.10449743  1
  Zr  Zr74  1  -0.00041779  -0.00345121  0.73725464  1
  Zr  Zr75  1  0.11095732  0.29383938  0.37632504  1
  Zr  Zr76  1  0.91081155  0.12467654  0.12068166  1
  Zr  Zr77  1  0.58562266  0.19787536  0.75820145  1
  Zr  Zr78  1  0.09025571  0.69414073  0.36761451  1
  Zr  Zr79  1  0.12436328  0.10041562  0.86951689  1
  Ta  Ta80  1  0.49316771  0.28994456  0.61712296  1
  Ta  Ta81  1  0.18284991  0.18912238  0.01498372  1
  Ta  Ta82  1  0.71063594  0.69092138  0.12431907  1
  Ta  Ta83  1  -0.00191384  0.59401019  0.76810551  1
  Ta  Ta84  1  0.79517947  0.80088986  -0.00750089  1
  Ta  Ta85  1  0.29657305  0.90746939  0.88099729  1
  Ta  Ta86  1  0.09701755  0.89883395  0.37141161  1
  Ta  Ta87  1  0.40429757  0.20153060  0.50207755  1
  Ta  Ta88  1  0.58985517  0.61332524  0.50457870  1
  Ta  Ta89  1  0.59060572  -0.00793592  -0.01456875  1
  Ta  Ta90  1  0.79572820  0.00658177  0.76976557  1
  Ta  Ta91  1  0.60063563  -0.00075993  0.77210691  1
  Ta  Ta92  1  0.89448560  0.70109593  0.63508496  1
  Ta  Ta93  1  0.52733725  0.69775237  0.36026369  1
  Ta  Ta94  1  0.20713861  0.79979787  0.25199168  1
  Ta  Ta95  1  0.50247627  0.48638308  0.12106555  1
  Ta  Ta96  1  0.20554768  0.59739847  0.24108214  1
  Ta  Ta97  1  0.68602734  0.30312946  0.39001488  1
  Ta  Ta98  1  0.51262499  0.48351449  0.88311163  1
  Ta  Ta99  1  0.90908947  0.90946322  0.89031670  1
  Ta  Ta100  1  0.07894996  0.29264923  0.12527214  1
  Ta  Ta101  1  0.80144043  0.62319899  0.48841571  1
  Ta  Ta102  1  0.50176270  0.09292636  0.62109524  1
  Ta  Ta103  1  0.40280900  0.80877078  0.00160998  1
  Ta  Ta104  1  0.00202380  0.59156010  -0.01945668  1
  Ta  Ta105  1  0.61701101  0.79556042  0.49923940  1
  Ta  Ta106  1  0.59331407  0.39829863  0.74560770  1
  Ta  Ta107  1  0.30948036  0.10559585  0.61572229  1
  Ta  Ta108  1  0.50249430  0.29737993  0.11099989  1
  Ta  Ta109  1  0.27862117  0.27998794  0.88991596  1
  Ta  Ta110  1  0.30680157  0.89926012  0.11742384  1
  Ta  Ta111  1  0.80899785  0.40739534  0.47758108  1
  Ta  Ta112  1  0.50235700  0.89441707  0.38074399  1
  Ta  Ta113  1  0.30099118  0.70797460  0.12436507  1
  Ta  Ta114  1  0.51251108  0.89767752  0.62424586  1
  Ta  Ta115  1  0.60252158  0.19816633  0.23849111  1
  Ta  Ta116  1  0.69025898  0.89447040  0.11737824  1
  Ta  Ta117  1  0.69425664  0.33069399  0.87480954  1
  Ta  Ta118  1  0.20466354  0.40034588  0.24227733  1
  Ta  Ta119  1  0.71218770  0.68427154  0.87411959  1
  Ti  Ti120  1  0.80420542  0.60049044  0.25462607  1
  Ti  Ti121  1  0.00196994  -0.00113150  0.24657855  1
  Ti  Ti122  1  0.09233044  0.49339416  0.63661250  1
  Ti  Ti123  1  0.38316774  0.39264209  0.50464137  1
  Ti  Ti124  1  0.17378463  0.39075858  -0.00774195  1
  Ti  Ti125  1  0.21640376  0.00550484  0.01071223  1
  Ti  Ti126  1  0.19892160  0.80272740  -0.00062525  1
  Ti  Ti127  1  0.91083681  0.09654004  0.37804192  1
  Ti  Ti128  1  0.27857701  0.48044854  0.62277461  1
  Ti  Ti129  1  0.09055134  0.68243268  0.62693137  1
  Ti  Ti130  1  0.39284475  0.40034255  0.24518464  1
  Ti  Ti131  1  0.88574489  0.09489706  0.63476125  1
  Ti  Ti132  1  0.29456153  0.49414153  0.37539312  1
  Ti  Ti133  1  0.89128209  0.51531587  0.12502938  1
  Ti  Ti134  1  0.39174937  0.59010632  0.50101144  1
  Ti  Ti135  1  0.69225644  0.10196939  0.63172233  1
  Ti  Ti136  1  0.40428575  -0.00116787  -0.00685831  1
  Ti  Ti137  1  0.29747928  0.50089574  0.11763197  1
  Ti  Ti138  1  0.30278908  0.30892900  0.37404461  1
  Ti  Ti139  1  0.18155317  0.38820340  0.76698853  1
  Ti  Ti140  1  0.20780538  0.21343786  0.51177334  1
  Ti  Ti141  1  0.38845353  0.18300129  0.00368326  1
  Ti  Ti142  1  0.10356103  0.88880000  0.88177950  1
  Ti  Ti143  1  0.49948966  0.29967862  0.38844440  1
  Ti  Ti144  1  0.19064252  0.58241252  0.50428644  1
  Ti  Ti145  1  0.49923530  0.08972538  0.11703297  1
  Ti  Ti146  1  0.51377248  0.70565622  0.12932755  1
  Ti  Ti147  1  0.39419689  0.19098927  0.75639625  1
  Ti  Ti148  1  0.86709015  0.49978786  0.86256383  1
  Ti  Ti149  1  0.71074682  0.48239606  0.13927493  1
  Ti  Ti150  1  0.00106027  0.19240531  0.25772171  1
  Ti  Ti151  1  -0.00038432  0.79711089  0.25350560  1
  Ti  Ti152  1  0.90282143  0.51709025  0.37135994  1
  Ti  Ti153  1  0.70371784  0.10809534  0.12503987  1
  Ti  Ti154  1  0.21367349  0.20224273  0.74134921  1
  Ti  Ti155  1  -0.00388293  0.60092627  0.49947488  1
  Ti  Ti156  1  0.20240959  0.79925885  0.74490239  1
  Ti  Ti157  1  0.11960376  0.31333434  0.62489760  1
  Ti  Ti158  1  0.69572264  0.11074559  0.87573820  1
  Ti  Ti159  1  0.90825377  0.89878321  0.37011104  1
  Mo  Mo160  1  0.80923432  0.59497190  -0.00020517  1
  Mo  Mo161  1  0.88969681  0.31469718  0.85044268  1
  Mo  Mo162  1  0.09326089  0.49552442  0.87200047  1
  Mo  Mo163  1  0.70443947  0.90269494  0.88404406  1
  Mo  Mo164  1  0.30135198  0.29535474  0.62896124  1
  Mo  Mo165  1  0.89854318  0.29340759  0.38707843  1
  Mo  Mo166  1  0.50073795  0.70240027  0.62354008  1
  Mo  Mo167  1  0.70140669  0.69621201  0.36830586  1
  Mo  Mo168  1  0.30409747  0.10004825  0.88113182  1
  Mo  Mo169  1  0.60188645  0.79169598  0.23758906  1
  Mo  Mo170  1  0.69482866  0.30006804  0.12938373  1
  Mo  Mo171  1  0.20078196  0.00803353  0.51087978  1
  Mo  Mo172  1  0.80094461  0.60640081  0.74906881  1
  Mo  Mo173  1  0.41008203  -0.00410916  0.50421595  1
  Mo  Mo174  1  0.49512803  0.09770642  0.88436043  1
  Mo  Mo175  1  0.80062455  0.79967034  0.49808244  1
  Mo  Mo176  1  0.59732475  0.19873677  0.50599860  1
  Mo  Mo177  1  0.60488589  0.39237316  0.01003584  1
  Mo  Mo178  1  0.10577685  0.70426376  0.87746872  1
  Mo  Mo179  1  0.09722805  0.10207783  0.12990503  1
  Mo  Mo180  1  0.09426671  0.29164500  0.87493044  1
  Mo  Mo181  1  0.59257417  0.40146733  0.49298068  1
  Mo  Mo182  1  -0.00826129  0.60313466  0.24653144  1
  Mo  Mo183  1  0.79243555  0.40780131  0.27643597  1
  Mo  Mo184  1  0.78270181  0.42338493  -0.00003452  1
  Mo  Mo185  1  0.49100433  0.89467121  0.87744573  1
  Mo  Mo186  1  0.78302376  0.41444792  0.74511876  1
  Mo  Mo187  1  0.30705567  0.09849646  0.11592660  1
  Mo  Mo188  1  0.39643449  0.39938383  0.00177525  1
  Mo  Mo189  1  0.89510018  0.90008417  0.63470304  1
  Mo  Mo190  1  0.68950875  0.50530733  0.86827846  1
  Mo  Mo191  1  0.60768321  0.59819992  0.22961216  1
  Mo  Mo192  1  0.00362533  0.21820916  -0.00513056  1
  Mo  Mo193  1  0.00801858  0.80424074  -0.00835195  1
  Mo  Mo194  1  0.10950773  0.88728207  0.62653385  1
  Mo  Mo195  1  0.50043629  0.89798877  0.11348419  1
  Mo  Mo196  1  -0.00113372  0.40697556  0.76357249  1
  Mo  Mo197  1  0.20450035  0.40368723  0.50133228  1
  Mo  Mo198  1  0.12230728  0.10576456  0.62199028  1
  Mo  Mo199  1  0.89574261  0.70123662  0.36925116  1
