# generated using pymatgen
data_HfZrTaTiMo
_symmetry_space_group_name_H-M   'P 1'
_cell_length_a   15.20554351
_cell_length_b   15.19307676
_cell_length_c   16.87873584
_cell_angle_alpha   89.96996895
_cell_angle_beta   89.94320092
_cell_angle_gamma   89.99987771
_symmetry_Int_Tables_number   1
_chemical_formula_structural   HfZrTaTiMo
_chemical_formula_sum   'Hf40 Zr40 Ta40 Ti40 Mo40'
_cell_volume   3899.30605027
_cell_formula_units_Z   40
loop_
 _symmetry_equiv_pos_site_id
 _symmetry_equiv_pos_as_xyz
  1  'x, y, z'
loop_
 _atom_site_type_symbol
 _atom_site_label
 _atom_site_symmetry_multiplicity
 _atom_site_fract_x
 _atom_site_fract_y
 _atom_site_fract_z
 _atom_site_occupancy
  Hf  Hf0  1  0.19796381  0.20913469  0.50176811  1
  Hf  Hf1  1  0.90194165  0.88138122  0.89016165  1
  Hf  Hf2  1  0.88847396  0.09491289  0.86521557  1
  Hf  Hf3  1  0.18713784  0.41932317  0.48525985  1
  Hf  Hf4  1  0.70322507  0.28936402  0.61351551  1
  Hf  Hf5  1  0.20050908  0.41108947  0.25856565  1
  Hf  Hf6  1  0.19876749  0.20100545  0.26298433  1
  Hf  Hf7  1  0.31200384  0.48881313  0.87139097  1
  Hf  Hf8  1  0.40156195  0.61718232  0.50550169  1
  Hf  Hf9  1  0.10147046  0.71156103  0.12345497  1
  Hf  Hf10  1  -0.00994684  -0.03108781  0.74822500  1
  Hf  Hf11  1  0.09191946  0.32391736  0.63140055  1
  Hf  Hf12  1  0.10927597  0.28746248  0.11868497  1
  Hf  Hf13  1  0.49251405  0.10354299  0.12487646  1
  Hf  Hf14  1  -0.01102018  0.20466679  0.50865980  1
  Hf  Hf15  1  0.70857103  0.49364065  0.87317694  1
  Hf  Hf16  1  -0.00033421  0.60140758  0.00203400  1
  Hf  Hf17  1  0.88091168  0.88462463  0.61357284  1
  Hf  Hf18  1  -0.00370972  0.81557123  0.25724570  1
  Hf  Hf19  1  -0.01050050  0.40715250  0.48642788  1
  Hf  Hf20  1  0.09683263  0.72726461  0.88376421  1
  Hf  Hf21  1  0.61479123  0.60314615  0.74956246  1
  Hf  Hf22  1  0.91483607  0.48634146  0.63097685  1
  Hf  Hf23  1  0.79745547  0.39275590  -0.00028849  1
  Hf  Hf24  1  0.89320488  0.70329110  0.12733197  1
  Hf  Hf25  1  0.29648209  0.07922279  0.38848063  1
  Hf  Hf26  1  0.40241157  0.01271881  0.75143734  1
  Hf  Hf27  1  0.88065962  0.09551900  0.63655996  1
  Hf  Hf28  1  0.68256340  0.89536726  0.36046404  1
  Hf  Hf29  1  0.31068418  0.30052757  0.13576352  1
  Hf  Hf30  1  0.68965576  0.88969785  0.14689601  1
  Hf  Hf31  1  0.40403391  0.18496116  0.26038206  1
  Hf  Hf32  1  0.50966307  0.51777664  0.39067422  1
  Hf  Hf33  1  0.59936928  0.79746132  0.50014153  1
  Hf  Hf34  1  0.79493329  0.18432397  0.00520503  1
  Hf  Hf35  1  0.80165746  0.40279916  0.25245634  1
  Hf  Hf36  1  0.69392715  0.09478722  0.36516425  1
  Hf  Hf37  1  0.00228713  0.39151201  0.25034925  1
  Hf  Hf38  1  0.41693642  0.62307342  0.25465412  1
  Hf  Hf39  1  0.21149942  0.38873614  -0.00164543  1
  Zr  Zr40  1  0.11434973  0.68336441  0.36617772  1
  Zr  Zr41  1  0.28796083  0.90883169  0.61767709  1
  Zr  Zr42  1  0.70741189  0.29187547  0.38619251  1
  Zr  Zr43  1  0.50683551  0.49733212  0.61534372  1
  Zr  Zr44  1  0.29685560  0.69988411  0.87272689  1
  Zr  Zr45  1  0.70123369  0.69592384  0.12112906  1
  Zr  Zr46  1  0.60012581  0.38984018  0.74152909  1
  Zr  Zr47  1  0.49925561  0.69916341  0.87151300  1
  Zr  Zr48  1  0.32346608  0.71440295  0.11366817  1
  Zr  Zr49  1  0.18187824  0.00360820  0.25078476  1
  Zr  Zr50  1  0.08867429  0.11166824  0.85625240  1
  Zr  Zr51  1  0.40338606  0.41316686  0.26053190  1
  Zr  Zr52  1  0.20824666  0.59868125  0.00660665  1
  Zr  Zr53  1  0.19606369  -0.00388986  0.75479452  1
  Zr  Zr54  1  0.71485265  0.70819652  0.62245476  1
  Zr  Zr55  1  0.09522012  0.30595292  0.86806505  1
  Zr  Zr56  1  0.28290278  0.09360824  0.12098317  1
  Zr  Zr57  1  0.50689910  0.28862172  0.38048672  1
  Zr  Zr58  1  0.00038134  0.17246702  0.24487910  1
  Zr  Zr59  1  0.90008112  0.29080289  0.12112371  1
  Zr  Zr60  1  -0.00986055  -0.00392928  0.50907545  1
  Zr  Zr61  1  0.82833713  0.61076856  0.49056833  1
  Zr  Zr62  1  0.39226411  -0.01329047  -0.01218470  1
  Zr  Zr63  1  0.71695459  0.49800335  0.61323969  1
  Zr  Zr64  1  0.22028465  0.81221424  0.24486246  1
  Zr  Zr65  1  0.40252027  0.58660263  0.74647178  1
  Zr  Zr66  1  0.29215938  0.49706172  0.62079980  1
  Zr  Zr67  1  0.38414793  0.20550153  -0.00663490  1
  Zr  Zr68  1  0.28091979  0.70266208  0.63905998  1
  Zr  Zr69  1  0.10507275  0.90473533  0.39085476  1
  Zr  Zr70  1  0.30752779  0.11766039  0.62138146  1
  Zr  Zr71  1  0.51864795  0.90032826  0.85813887  1
  Zr  Zr72  1  0.70628832  0.71710675  0.88062646  1
  Zr  Zr73  1  0.59692235  0.00884574  0.00588170  1
  Zr  Zr74  1  0.60565770  0.40691482  0.26107387  1
  Zr  Zr75  1  0.09726647  0.10105014  0.63573985  1
  Zr  Zr76  1  0.92245339  0.69404655  0.63283124  1
  Zr  Zr77  1  0.59615390  0.21887299  -0.00081301  1
  Zr  Zr78  1  0.42274396  0.40559641  0.00299785  1
  Zr  Zr79  1  0.78827081  -0.01532926  0.00574054  1
  Ta  Ta80  1  0.32017880  0.72277865  0.37742209  1
  Ta  Ta81  1  0.00258564  0.40184018  0.00349702  1
  Ta  Ta82  1  0.10231021  0.49740575  0.12469385  1
  Ta  Ta83  1  0.79319865  0.77881402  0.27225946  1
  Ta  Ta84  1  0.81246588  0.38556901  0.75333022  1
  Ta  Ta85  1  0.71134596  0.50320404  0.39423307  1
  Ta  Ta86  1  0.59936000  0.81132233  0.00161085  1
  Ta  Ta87  1  0.30037713  0.30226341  0.37896447  1
  Ta  Ta88  1  0.50645578  0.90397494  0.63657589  1
  Ta  Ta89  1  -0.01166777  0.77831630  0.48324695  1
  Ta  Ta90  1  0.80156164  0.19082042  0.24334692  1
  Ta  Ta91  1  0.18903809  0.01528558  -0.01630924  1
  Ta  Ta92  1  0.29235438  0.89264580  0.86742390  1
  Ta  Ta93  1  0.49099424  0.28762900  0.61274715  1
  Ta  Ta94  1  0.59383613  -0.00255196  0.49984759  1
  Ta  Ta95  1  0.47572209  0.89365129  0.37484876  1
  Ta  Ta96  1  0.08976809  0.87253898  0.61852033  1
  Ta  Ta97  1  0.80410151  0.59455491  -0.00645705  1
  Ta  Ta98  1  0.62282270  0.61368985  0.26185061  1
  Ta  Ta99  1  0.78283646  0.19947019  0.75355683  1
  Ta  Ta100  1  0.50620274  0.70790774  0.63576480  1
  Ta  Ta101  1  0.20809852  0.82539581  0.00692431  1
  Ta  Ta102  1  0.00118331  0.59560491  0.24286006  1
  Ta  Ta103  1  0.89375425  0.08856821  0.37573159  1
  Ta  Ta104  1  0.50894322  0.09982312  0.62109473  1
  Ta  Ta105  1  0.60102231  0.39393835  0.50025805  1
  Ta  Ta106  1  0.49972663  0.11119549  0.86966334  1
  Ta  Ta107  1  0.29500063  0.52432901  0.37899277  1
  Ta  Ta108  1  0.50791319  0.31055894  0.13493220  1
  Ta  Ta109  1  0.19115359  0.41942467  0.75106420  1
  Ta  Ta110  1  0.39475129  0.80604590  0.74326237  1
  Ta  Ta111  1  0.39283204  0.39670991  0.49443287  1
  Ta  Ta112  1  0.89767223  0.28599029  0.37138792  1
  Ta  Ta113  1  0.60303817  0.59287551  -0.00380883  1
  Ta  Ta114  1  0.89931977  0.50200633  0.12534245  1
  Ta  Ta115  1  0.80561280  0.80583752  0.75546844  1
  Ta  Ta116  1  0.70403154  0.50074235  0.12275616  1
  Ta  Ta117  1  0.51611436  0.51476634  0.12894022  1
  Ta  Ta118  1  0.01958292  0.59703146  0.76217157  1
  Ta  Ta119  1  0.81814235  0.59413114  0.75922035  1
  Ti  Ti120  1  0.56568052  -0.00638001  0.24770693  1
  Ti  Ti121  1  -0.00393799  0.00246486  -0.00182272  1
  Ti  Ti122  1  0.41326516  0.60325303  -0.00045300  1
  Ti  Ti123  1  0.78487590  -0.01081423  0.49289495  1
  Ti  Ti124  1  0.40176455  -0.00413449  0.50836979  1
  Ti  Ti125  1  0.48818390  0.30327341  0.86518165  1
  Ti  Ti126  1  0.10635870  0.50742138  0.88233537  1
  Ti  Ti127  1  0.89711578  0.29500852  0.87951662  1
  Ti  Ti128  1  0.51333285  0.70953276  0.11971046  1
  Ti  Ti129  1  0.79797755  0.18707436  0.50096448  1
  Ti  Ti130  1  0.69483574  0.30196730  0.12832132  1
  Ti  Ti131  1  -0.02409133  0.22374968  0.73893797  1
  Ti  Ti132  1  0.91254338  0.48884568  0.87361526  1
  Ti  Ti133  1  0.81821273  -0.01024256  0.24828769  1
  Ti  Ti134  1  0.69180140  0.29572419  0.87264183  1
  Ti  Ti135  1  0.09404918  0.29710057  0.37568730  1
  Ti  Ti136  1  0.29640692  0.11798513  0.86629501  1
  Ti  Ti137  1  0.40228858  0.80714467  0.51491809  1
  Ti  Ti138  1  0.51263551  0.49125441  0.87288641  1
  Ti  Ti139  1  0.19978642  0.78991697  0.49868998  1
  Ti  Ti140  1  0.31399079  0.50403863  0.12539783  1
  Ti  Ti141  1  0.90990170  0.50609111  0.36660174  1
  Ti  Ti142  1  0.58952410  0.19705964  0.74874311  1
  Ti  Ti143  1  0.00321667  0.19050065  0.00143013  1
  Ti  Ti144  1  0.09047538  0.09898354  0.38872054  1
  Ti  Ti145  1  0.21831470  0.22497485  0.74072161  1
  Ti  Ti146  1  0.50158803  0.08711957  0.38114643  1
  Ti  Ti147  1  0.89852150  0.89590796  0.11983580  1
  Ti  Ti148  1  0.69242643  0.90512842  0.63433612  1
  Ti  Ti149  1  0.10173834  0.52754901  0.62363261  1
  Ti  Ti150  1  0.38645558  0.37546857  0.73645049  1
  Ti  Ti151  1  0.68928062  0.08942692  0.86518585  1
  Ti  Ti152  1  0.70216832  0.09352276  0.14021628  1
  Ti  Ti153  1  0.90325670  0.69280516  0.87666534  1
  Ti  Ti154  1  0.40661535  0.19649196  0.49259787  1
  Ti  Ti155  1  0.21126717  0.60224026  0.23684377  1
  Ti  Ti156  1  0.09485665  0.91824629  0.11828313  1
  Ti  Ti157  1  0.60299225  0.19866509  0.24487059  1
  Ti  Ti158  1  0.47818799  0.89329070  0.12719455  1
  Ti  Ti159  1  0.69206379  0.09002512  0.62933814  1
  Mo  Mo160  1  0.89059384  0.29832107  0.62446211  1
  Mo  Mo161  1  0.60418365  0.80188556  0.74023564  1
  Mo  Mo162  1  0.02281344  0.59380435  0.49253865  1
  Mo  Mo163  1  0.60609789  0.60115726  0.50459942  1
  Mo  Mo164  1  -0.00432598  0.41105602  0.75764488  1
  Mo  Mo165  1  0.40657680  0.20650362  0.74872140  1
  Mo  Mo166  1  0.60094556  0.18167827  0.50296094  1
  Mo  Mo167  1  0.60524764  0.01131144  0.74578252  1
  Mo  Mo168  1  0.89020631  0.89891028  0.38053036  1
  Mo  Mo169  1  0.89749065  0.08431573  0.12170649  1
  Mo  Mo170  1  0.10165286  0.69921376  0.62359482  1
  Mo  Mo171  1  0.80022001  0.80751229  0.47607471  1
  Mo  Mo172  1  0.29421794  0.90848034  0.11776734  1
  Mo  Mo173  1  0.69560218  0.69108636  0.38577428  1
  Mo  Mo174  1  0.20201642  0.60972487  0.49452901  1
  Mo  Mo175  1  0.90591029  0.69388780  0.36267738  1
  Mo  Mo176  1  0.70642082  0.90556095  0.86599073  1
  Mo  Mo177  1  0.79676364  0.79286604  0.00333029  1
  Mo  Mo178  1  0.00006031  0.81125548  0.01542965  1
  Mo  Mo179  1  0.10180567  0.50218279  0.35744034  1
  Mo  Mo180  1  0.29821889  0.30894851  0.61223707  1
  Mo  Mo181  1  0.60690974  0.40748969  0.00259709  1
  Mo  Mo182  1  0.40880640  0.81526269  0.24914037  1
  Mo  Mo183  1  0.19403593  0.59971231  0.76139064  1
  Mo  Mo184  1  0.19040729  -0.00138082  0.50994272  1
  Mo  Mo185  1  0.09827109  0.90603980  0.88677302  1
  Mo  Mo186  1  -0.00278951  0.79158719  0.75313480  1
  Mo  Mo187  1  0.19291318  0.19607286  -0.01050758  1
  Mo  Mo188  1  0.08763953  0.09665478  0.11197502  1
  Mo  Mo189  1  -0.01005108  -0.00667717  0.25022478  1
  Mo  Mo190  1  0.18304104  0.80658450  0.75229492  1
  Mo  Mo191  1  0.40861264  0.80237557  -0.00611628  1
  Mo  Mo192  1  0.29773589  0.89841270  0.39581373  1
  Mo  Mo193  1  0.58478961  0.79186624  0.25338815  1
  Mo  Mo194  1  0.50826680  0.71095039  0.38100730  1
  Mo  Mo195  1  0.80883411  0.39040520  0.49018672  1
  Mo  Mo196  1  0.38721458  -0.01045189  0.25100707  1
  Mo  Mo197  1  0.80608050  0.59195607  0.25808228  1
  Mo  Mo198  1  0.79188365  -0.00526599  0.75370922  1
  Mo  Mo199  1  0.29557734  0.30008151  0.86427761  1
