# generated using pymatgen
data_HfZrTaTiMo
_symmetry_space_group_name_H-M   'P 1'
_cell_length_a   15.21000430
_cell_length_b   15.21705401
_cell_length_c   16.82444495
_cell_angle_alpha   89.91642160
_cell_angle_beta   90.10456822
_cell_angle_gamma   89.86025571
_symmetry_Int_Tables_number   1
_chemical_formula_structural   HfZrTaTiMo
_chemical_formula_sum   'Hf40 Zr40 Ta40 Ti40 Mo40'
_cell_volume   3894.02006102
_cell_formula_units_Z   40
loop_
 _symmetry_equiv_pos_site_id
 _symmetry_equiv_pos_as_xyz
  1  'x, y, z'
loop_
 _atom_site_type_symbol
 _atom_site_label
 _atom_site_symmetry_multiplicity
 _atom_site_fract_x
 _atom_site_fract_y
 _atom_site_fract_z
 _atom_site_occupancy
  Hf  Hf0  1  0.60206835  0.38998610  0.75456462  1
  Hf  Hf1  1  0.29134344  0.50741512  0.36338565  1
  Hf  Hf2  1  0.21338671  0.40640541  0.74877823  1
  Hf  Hf3  1  0.51181595  0.31110173  0.11105976  1
  Hf  Hf4  1  0.59790590  0.61686737  0.75481489  1
  Hf  Hf5  1  0.10072717  0.09550696  0.62627555  1
  Hf  Hf6  1  0.39015851  0.81050035  -0.00691302  1
  Hf  Hf7  1  0.39891491  0.40294018  0.49847054  1
  Hf  Hf8  1  0.69147384  0.69612204  0.36315981  1
  Hf  Hf9  1  0.58555330  0.81236335  0.25072380  1
  Hf  Hf10  1  0.71010465  0.49896390  0.35525126  1
  Hf  Hf11  1  0.58660901  0.79589979  -0.00562841  1
  Hf  Hf12  1  0.28151478  0.70422503  0.88117754  1
  Hf  Hf13  1  0.00544402  0.20374916  0.48362967  1
  Hf  Hf14  1  0.31178316  0.29313643  0.11553608  1
  Hf  Hf15  1  0.91774764  0.28745804  0.86649354  1
  Hf  Hf16  1  0.79565700  0.79138288  -0.00225570  1
  Hf  Hf17  1  0.00693408  0.39803816  0.50606273  1
  Hf  Hf18  1  0.70142430  0.89143323  0.61050166  1
  Hf  Hf19  1  0.80310261  0.81164657  0.25101467  1
  Hf  Hf20  1  0.49222324  0.70770032  0.63168476  1
  Hf  Hf21  1  0.19538685  0.18636489  0.00863260  1
  Hf  Hf22  1  0.88770602  0.09967841  0.59972612  1
  Hf  Hf23  1  0.19796099  0.61267516  0.74701209  1
  Hf  Hf24  1  -0.00148414  0.59278110  0.25619269  1
  Hf  Hf25  1  0.11180558  0.29658389  0.62744083  1
  Hf  Hf26  1  0.00616882  0.58756078  0.49675348  1
  Hf  Hf27  1  0.40272201  0.39565104  0.24704546  1
  Hf  Hf28  1  0.70027193  0.50194379  0.86700601  1
  Hf  Hf29  1  0.72162978  0.30520610  0.12550278  1
  Hf  Hf30  1  0.19651309  0.39666242  0.00932565  1
  Hf  Hf31  1  0.67507818  0.09657781  0.60526316  1
  Hf  Hf32  1  0.59954014  0.00988208  0.24350059  1
  Hf  Hf33  1  0.51225643  0.10280684  0.38235700  1
  Hf  Hf34  1  0.89759724  0.70344366  0.61195094  1
  Hf  Hf35  1  0.89207395  0.90456377  0.39510568  1
  Hf  Hf36  1  0.58593550  0.79282341  0.48941892  1
  Hf  Hf37  1  0.00966010  0.39959120  0.74438317  1
  Hf  Hf38  1  0.50580199  0.91497731  0.63011811  1
  Hf  Hf39  1  0.90559605  0.10488258  0.12430578  1
  Zr  Zr40  1  0.11571274  0.89497878  0.89166210  1
  Zr  Zr41  1  0.88668734  0.47734945  0.13836080  1
  Zr  Zr42  1  0.01783086  0.80855612  0.26146247  1
  Zr  Zr43  1  0.78791780  0.58632758  0.00003366  1
  Zr  Zr44  1  0.69784033  0.49496938  0.63091190  1
  Zr  Zr45  1  0.58868912  -0.00150737  -0.00555979  1
  Zr  Zr46  1  0.48908783  0.50196784  0.63443221  1
  Zr  Zr47  1  0.09941639  0.71427573  0.11327401  1
  Zr  Zr48  1  0.29490401  0.71086179  0.36334940  1
  Zr  Zr49  1  0.39385856  0.00667287  0.50873029  1
  Zr  Zr50  1  0.90276672  0.89418106  0.60607896  1
  Zr  Zr51  1  0.78848205  -0.01070651  0.74747724  1
  Zr  Zr52  1  0.70132723  0.90353107  0.11754107  1
  Zr  Zr53  1  0.38708187  0.80355563  0.76111410  1
  Zr  Zr54  1  0.60547960  0.19655998  0.76439672  1
  Zr  Zr55  1  0.80603203  0.18536777  0.75425934  1
  Zr  Zr56  1  0.58590090  0.60163725  0.00103561  1
  Zr  Zr57  1  0.48962144  0.30742591  0.89116117  1
  Zr  Zr58  1  0.39816706  0.60901381  0.49674175  1
  Zr  Zr59  1  0.89595038  0.69570795  0.38142151  1
  Zr  Zr60  1  0.12003069  0.09913412  0.36899163  1
  Zr  Zr61  1  0.31479144  0.09039483  0.36321982  1
  Zr  Zr62  1  0.29487969  0.89724730  0.62718196  1
  Zr  Zr63  1  0.30974378  0.49812063  0.88519822  1
  Zr  Zr64  1  0.60532906  0.20938741  0.24622306  1
  Zr  Zr65  1  0.69046266  0.68889269  0.14072551  1
  Zr  Zr66  1  0.50571382  0.50837932  0.36052810  1
  Zr  Zr67  1  0.89709951  0.69517377  0.12890027  1
  Zr  Zr68  1  0.29137205  0.29666842  0.37096261  1
  Zr  Zr69  1  0.81432075  0.19640530  0.25907661  1
  Zr  Zr70  1  0.00636135  0.79599499  0.75127380  1
  Zr  Zr71  1  0.10173931  0.49886531  0.88293141  1
  Zr  Zr72  1  0.71353562  0.10400349  0.39870946  1
  Zr  Zr73  1  -0.00326671  0.00502653  0.26125693  1
  Zr  Zr74  1  0.89889444  0.90254849  0.88616515  1
  Zr  Zr75  1  0.80629589  0.60481074  0.75020936  1
  Zr  Zr76  1  0.30092354  0.08817501  0.88650188  1
  Zr  Zr77  1  0.21305799  0.19977250  0.75563544  1
  Zr  Zr78  1  -0.00808569  0.00694104  0.74986647  1
  Zr  Zr79  1  0.80313130  0.40009137  0.49754906  1
  Ta  Ta80  1  0.80370957  0.38864669  0.75273407  1
  Ta  Ta81  1  0.91092314  0.31819697  0.36625291  1
  Ta  Ta82  1  0.20056010  -0.01490966  0.75327733  1
  Ta  Ta83  1  0.09563628  0.49826205  0.12666994  1
  Ta  Ta84  1  0.61627617  0.20951361  -0.00919053  1
  Ta  Ta85  1  0.90322225  0.29269756  0.62979707  1
  Ta  Ta86  1  0.39492887  0.80634698  0.49358799  1
  Ta  Ta87  1  0.79852100  0.00227683  0.25269602  1
  Ta  Ta88  1  0.90663505  0.49607827  0.87127284  1
  Ta  Ta89  1  0.79458784  0.59706178  0.50123983  1
  Ta  Ta90  1  0.00686623  0.00933711  0.00189713  1
  Ta  Ta91  1  0.09000187  0.10345973  0.87126045  1
  Ta  Ta92  1  -0.00865893  0.58986733  0.00396265  1
  Ta  Ta93  1  0.90390687  0.49632153  0.63107433  1
  Ta  Ta94  1  0.09752528  0.48229495  0.36547808  1
  Ta  Ta95  1  0.10241585  0.89333605  0.61380005  1
  Ta  Ta96  1  0.48196910  0.90631878  0.37059518  1
  Ta  Ta97  1  0.20492929  0.19408378  0.23353283  1
  Ta  Ta98  1  0.71433751  0.09162031  0.89131163  1
  Ta  Ta99  1  0.00582274  0.59994142  0.74278781  1
  Ta  Ta100  1  0.47653044  0.91202792  0.12721253  1
  Ta  Ta101  1  0.91219067  0.90183943  0.11435754  1
  Ta  Ta102  1  0.20536315  -0.02682781  0.24610186  1
  Ta  Ta103  1  0.49315457  0.50571991  0.86931772  1
  Ta  Ta104  1  0.31147107  0.08179473  0.12494638  1
  Ta  Ta105  1  0.51099087  0.29275758  0.62175510  1
  Ta  Ta106  1  0.01710722  -0.00269513  0.48779694  1
  Ta  Ta107  1  0.50325329  0.30143828  0.37937616  1
  Ta  Ta108  1  0.10587243  0.69957605  0.60847957  1
  Ta  Ta109  1  0.21297473  0.19553850  0.50482219  1
  Ta  Ta110  1  0.30121132  0.50368634  0.12874554  1
  Ta  Ta111  1  0.61255522  0.41099830  -0.00355142  1
  Ta  Ta112  1  0.08632835  0.69686794  0.89147025  1
  Ta  Ta113  1  0.59210259  0.00429074  0.76873500  1
  Ta  Ta114  1  0.70544838  0.10340402  0.11090969  1
  Ta  Ta115  1  0.80475279  0.38787698  -0.01330418  1
  Ta  Ta116  1  0.60298714  0.59686788  0.49977993  1
  Ta  Ta117  1  0.69056034  0.90668013  0.38732348  1
  Ta  Ta118  1  0.81491881  0.19792252  -0.00651700  1
  Ta  Ta119  1  0.40638528  0.20322199  0.50843292  1
  Ti  Ti120  1  0.59959472  0.40218270  0.50032799  1
  Ti  Ti121  1  0.19436559  0.60424004  0.24137084  1
  Ti  Ti122  1  0.19774512  0.40752627  0.50202735  1
  Ti  Ti123  1  0.40077510  0.00802848  0.75560163  1
  Ti  Ti124  1  0.78903122  0.79341786  0.75837891  1
  Ti  Ti125  1  0.19974516  0.80798616  0.49254434  1
  Ti  Ti126  1  0.30271058  0.10341754  0.63341712  1
  Ti  Ti127  1  0.49342320  0.10404160  0.88869549  1
  Ti  Ti128  1  -0.00427041  0.39352834  0.00325755  1
  Ti  Ti129  1  0.69593976  0.89697076  0.88261976  1
  Ti  Ti130  1  0.01200825  0.20928710  0.25957735  1
  Ti  Ti131  1  0.29264294  0.70239225  0.61904534  1
  Ti  Ti132  1  0.69686819  0.30392328  0.37693402  1
  Ti  Ti133  1  0.48847401  0.70055510  0.35734039  1
  Ti  Ti134  1  0.10845333  0.69358608  0.38508847  1
  Ti  Ti135  1  0.19783270  0.60075411  0.01034298  1
  Ti  Ti136  1  0.37710479  0.81986150  0.24633246  1
  Ti  Ti137  1  0.40086278  0.39598641  0.74837823  1
  Ti  Ti138  1  0.00515440  0.20355872  0.00282800  1
  Ti  Ti139  1  0.68822791  0.49065649  0.15003982  1
  Ti  Ti140  1  0.19128091  0.39212590  0.23881330  1
  Ti  Ti141  1  0.10980279  0.29537997  0.87434501  1
  Ti  Ti142  1  0.48787018  0.69811881  0.86885979  1
  Ti  Ti143  1  0.10620765  0.08559849  0.13393268  1
  Ti  Ti144  1  0.59989002  0.81206114  0.76383988  1
  Ti  Ti145  1  0.28977758  0.51042243  0.62011293  1
  Ti  Ti146  1  0.31153052  0.30237621  0.62214053  1
  Ti  Ti147  1  0.48433574  0.70626542  0.13634070  1
  Ti  Ti148  1  0.39711770  0.60219653  0.01019344  1
  Ti  Ti149  1  0.29766147  0.70276653  0.13005756  1
  Ti  Ti150  1  0.49852556  0.10971717  0.11095682  1
  Ti  Ti151  1  0.49985109  0.50816297  0.13596779  1
  Ti  Ti152  1  0.40872811  0.19292816  0.24299844  1
  Ti  Ti153  1  0.27912762  0.89422309  0.11365239  1
  Ti  Ti154  1  0.30500814  0.29866471  0.89223204  1
  Ti  Ti155  1  0.41051378  0.20190352  0.74677359  1
  Ti  Ti156  1  0.08774395  0.29551223  0.12809612  1
  Ti  Ti157  1  0.69701213  0.70122885  0.61956438  1
  Ti  Ti158  1  0.89782908  0.69223972  0.87855204  1
  Ti  Ti159  1  0.70885067  0.28971163  0.61450423  1
  Mo  Mo160  1  0.78633386  0.78702004  0.49324323  1
  Mo  Mo161  1  0.00876480  0.39111501  0.24583233  1
  Mo  Mo162  1  0.40469023  -0.00020253  0.24297702  1
  Mo  Mo163  1  0.39539385  0.00054229  0.00364657  1
  Mo  Mo164  1  0.79957724  0.59931815  0.24778171  1
  Mo  Mo165  1  0.29822805  0.90326943  0.87370673  1
  Mo  Mo166  1  0.90626322  0.10497592  0.38483941  1
  Mo  Mo167  1  0.39113573  0.60981838  0.23443016  1
  Mo  Mo168  1  0.80575474  0.21408758  0.49227090  1
  Mo  Mo169  1  0.48990227  0.10895548  0.63476921  1
  Mo  Mo170  1  0.79926352  -0.00196070  0.50009613  1
  Mo  Mo171  1  0.19909575  0.79283176  0.00410699  1
  Mo  Mo172  1  0.90810546  0.09655690  0.88540664  1
  Mo  Mo173  1  0.40717688  0.19751872  0.00504740  1
  Mo  Mo174  1  0.11456512  0.30268826  0.37123940  1
  Mo  Mo175  1  0.80176591  0.39152964  0.25794900  1
  Mo  Mo176  1  0.39207090  0.59400167  0.74813877  1
  Mo  Mo177  1  0.00551068  0.19940126  0.74543123  1
  Mo  Mo178  1  0.58770926  0.60317716  0.24269231  1
  Mo  Mo179  1  0.20121069  0.00572101  0.50572259  1
  Mo  Mo180  1  0.59737426  0.39338961  0.25051008  1
  Mo  Mo181  1  0.11209048  0.89305762  0.38681260  1
  Mo  Mo182  1  0.20031573  0.59500749  0.50002707  1
  Mo  Mo183  1  0.91091665  0.29330247  0.12252503  1
  Mo  Mo184  1  0.40922351  0.41923619  0.01107811  1
  Mo  Mo185  1  0.10557078  0.50492653  0.62590814  1
  Mo  Mo186  1  0.90360532  0.49926717  0.36688614  1
  Mo  Mo187  1  0.69776930  0.71170965  0.87067130  1
  Mo  Mo188  1  0.09576164  0.90840524  0.11456680  1
  Mo  Mo189  1  0.59616739  0.21589136  0.49931930  1
  Mo  Mo190  1  0.01090193  0.79468570  0.49205474  1
  Mo  Mo191  1  0.18487116  0.79873465  0.74549264  1
  Mo  Mo192  1  -0.00810067  0.79444040  -0.00464275  1
  Mo  Mo193  1  0.19536239  0.79732365  0.24776690  1
  Mo  Mo194  1  0.29357525  0.90434212  0.37719871  1
  Mo  Mo195  1  0.58867570  -0.00409745  0.49602281  1
  Mo  Mo196  1  0.19784750  -0.00309474  0.01058178  1
  Mo  Mo197  1  0.80344033  0.00193383  0.00619751  1
  Mo  Mo198  1  0.70830953  0.30032430  0.87954073  1
  Mo  Mo199  1  0.49097704  0.90934849  0.86802509  1
