# generated using pymatgen
data_HfZrTaTiMo
_symmetry_space_group_name_H-M   'P 1'
_cell_length_a   15.22173515
_cell_length_b   15.21355627
_cell_length_c   16.82211759
_cell_angle_alpha   90.04736598
_cell_angle_beta   89.97053883
_cell_angle_gamma   89.92899184
_symmetry_Int_Tables_number   1
_chemical_formula_structural   HfZrTaTiMo
_chemical_formula_sum   'Hf40 Zr40 Ta40 Ti40 Mo40'
_cell_volume   3895.60604578
_cell_formula_units_Z   40
loop_
 _symmetry_equiv_pos_site_id
 _symmetry_equiv_pos_as_xyz
  1  'x, y, z'
loop_
 _atom_site_type_symbol
 _atom_site_label
 _atom_site_symmetry_multiplicity
 _atom_site_fract_x
 _atom_site_fract_y
 _atom_site_fract_z
 _atom_site_occupancy
  Hf  Hf0  1  0.39875248  0.19329220  0.75874654  1
  Hf  Hf1  1  0.89832571  0.30649605  0.62993950  1
  Hf  Hf2  1  0.10115000  0.51295180  0.89926415  1
  Hf  Hf3  1  0.62000348  -0.00969393  0.48455252  1
  Hf  Hf4  1  0.59945964  -0.00111725  -0.01256388  1
  Hf  Hf5  1  0.90190739  0.50590331  0.36752136  1
  Hf  Hf6  1  0.90865957  0.90805487  0.36850017  1
  Hf  Hf7  1  0.47828977  0.69890839  0.62285480  1
  Hf  Hf8  1  0.69715772  0.28768567  0.61783828  1
  Hf  Hf9  1  0.79151271  0.81289692  0.75754515  1
  Hf  Hf10  1  0.60393812  0.59128899  0.73548394  1
  Hf  Hf11  1  0.31560315  0.89407626  0.64259098  1
  Hf  Hf12  1  0.11450454  0.88996057  0.63391598  1
  Hf  Hf13  1  0.89898376  0.31292780  0.87087618  1
  Hf  Hf14  1  0.59684520  0.78986345  -0.01266965  1
  Hf  Hf15  1  0.00523643  0.40694987  0.23917865  1
  Hf  Hf16  1  0.11512307  0.10994135  0.62448852  1
  Hf  Hf17  1  0.22045237  -0.00897172  0.49361251  1
  Hf  Hf18  1  0.43104082  -0.00551534  0.76787832  1
  Hf  Hf19  1  0.59522502  0.39420986  0.73769781  1
  Hf  Hf20  1  0.79688862  0.40360328  0.50030034  1
  Hf  Hf21  1  0.20335682  0.20559142  0.25730565  1
  Hf  Hf22  1  0.49544122  0.88867565  0.12532354  1
  Hf  Hf23  1  0.31475013  0.31328166  0.37445923  1
  Hf  Hf24  1  0.10316879  0.32085110  0.62157144  1
  Hf  Hf25  1  0.28707388  0.50340335  0.60356118  1
  Hf  Hf26  1  0.09447685  0.70656207  0.88713170  1
  Hf  Hf27  1  0.00018026  0.81360125  0.00950200  1
  Hf  Hf28  1  0.89065446  0.70327897  0.12928134  1
  Hf  Hf29  1  0.69515186  0.90621481  0.13128521  1
  Hf  Hf30  1  0.51542063  0.89444549  0.61651126  1
  Hf  Hf31  1  0.39417370  -0.02843658  0.26087570  1
  Hf  Hf32  1  0.89307353  0.51389091  0.88344339  1
  Hf  Hf33  1  0.19871620  0.19474606  0.47910170  1
  Hf  Hf34  1  -0.00003628  0.00222424  0.74753160  1
  Hf  Hf35  1  0.90923729  0.91806237  0.13809959  1
  Hf  Hf36  1  0.48713764  0.48991219  0.60674919  1
  Hf  Hf37  1  0.50940494  0.09767078  0.36086356  1
  Hf  Hf38  1  0.00934637  0.79941870  0.49334766  1
  Hf  Hf39  1  0.30040626  0.88315045  0.85842830  1
  Zr  Zr40  1  0.38877877  0.38623618  0.75203577  1
  Zr  Zr41  1  0.78671925  0.00891679  0.26145251  1
  Zr  Zr42  1  0.50869523  0.49632003  0.87770024  1
  Zr  Zr43  1  0.20977897  0.41727961  0.23737652  1
  Zr  Zr44  1  0.28871210  0.68046922  0.87991378  1
  Zr  Zr45  1  0.01742666  0.00576581  0.49717918  1
  Zr  Zr46  1  0.29317957  0.47370765  0.89907590  1
  Zr  Zr47  1  0.89956616  0.70636757  0.61438865  1
  Zr  Zr48  1  0.38302465  0.58632507  0.75064686  1
  Zr  Zr49  1  0.79530623  0.80915966  -0.00492552  1
  Zr  Zr50  1  0.59232525  0.18648228  0.76157939  1
  Zr  Zr51  1  0.12012539  0.31439359  0.89157627  1
  Zr  Zr52  1  0.00357920  0.42446349  0.75278644  1
  Zr  Zr53  1  0.69375113  0.50173229  0.36832518  1
  Zr  Zr54  1  0.50250656  0.09631649  0.14266499  1
  Zr  Zr55  1  0.78834860  0.81164186  0.48542031  1
  Zr  Zr56  1  0.80446797  0.60284235  0.74219557  1
  Zr  Zr57  1  0.12417042  0.89842455  0.35848827  1
  Zr  Zr58  1  -0.00247618  0.79090810  0.75189117  1
  Zr  Zr59  1  0.69085638  0.50194916  0.14446944  1
  Zr  Zr60  1  0.68574150  0.69849140  0.13301621  1
  Zr  Zr61  1  0.29974874  0.08250032  0.12924279  1
  Zr  Zr62  1  0.58784087  0.80405044  0.76432512  1
  Zr  Zr63  1  0.20452011  0.81580254  0.01027061  1
  Zr  Zr64  1  0.79064045  0.40190696  0.00580408  1
  Zr  Zr65  1  0.79587257  0.19846873  -0.00399549  1
  Zr  Zr66  1  0.70668621  0.08956996  0.62531725  1
  Zr  Zr67  1  -0.00291296  0.20127513  -0.00451233  1
  Zr  Zr68  1  0.21014701  0.21381854  0.76094255  1
  Zr  Zr69  1  0.59959905  0.20324670  -0.00534125  1
  Zr  Zr70  1  0.89540233  0.10512709  0.61411832  1
  Zr  Zr71  1  0.91350385  0.11431045  0.36739723  1
  Zr  Zr72  1  0.50731411  0.09334097  0.61552808  1
  Zr  Zr73  1  0.79193048  0.79563701  0.26540777  1
  Zr  Zr74  1  0.02153600  0.79174309  0.24127073  1
  Zr  Zr75  1  0.30015462  0.29770082  0.60613221  1
  Zr  Zr76  1  0.48824084  0.48761762  0.38338738  1
  Zr  Zr77  1  0.00103514  0.21989075  0.49346672  1
  Zr  Zr78  1  0.09282273  0.09798322  0.13995062  1
  Zr  Zr79  1  0.00962865  0.20426643  0.76000650  1
  Ta  Ta80  1  0.49697861  0.68671786  0.12578178  1
  Ta  Ta81  1  0.89632745  0.10909358  0.13687196  1
  Ta  Ta82  1  0.59933724  0.39910533  0.00574714  1
  Ta  Ta83  1  0.49755816  0.49711074  0.13236341  1
  Ta  Ta84  1  0.40404185  0.78992845  -0.00321401  1
  Ta  Ta85  1  0.29958187  0.51819980  0.38050286  1
  Ta  Ta86  1  0.50552418  0.87805222  0.38183346  1
  Ta  Ta87  1  0.89851093  0.91365088  0.87745484  1
  Ta  Ta88  1  0.30959916  0.28772811  0.12156066  1
  Ta  Ta89  1  0.79023969  0.60243229  0.00342386  1
  Ta  Ta90  1  0.71218849  0.08458772  0.86475171  1
  Ta  Ta91  1  0.80066135  0.20231844  0.75804938  1
  Ta  Ta92  1  0.39457870  -0.01445741  -0.00837708  1
  Ta  Ta93  1  0.19883437  0.61517483  0.23027300  1
  Ta  Ta94  1  0.69817475  0.68054521  0.87520678  1
  Ta  Ta95  1  0.31192116  0.09476378  0.62197772  1
  Ta  Ta96  1  0.79053258  0.21325293  0.25068454  1
  Ta  Ta97  1  0.19988410  0.78789998  0.49923467  1
  Ta  Ta98  1  0.89659890  0.30093185  0.13549704  1
  Ta  Ta99  1  -0.00186545  0.40748022  0.01796912  1
  Ta  Ta100  1  0.27399994  0.70175749  0.63392850  1
  Ta  Ta101  1  0.69598465  0.31148344  0.86672057  1
  Ta  Ta102  1  0.01098142  0.00647278  -0.00321559  1
  Ta  Ta103  1  0.89133577  0.50369714  0.13203150  1
  Ta  Ta104  1  0.28227070  0.70369560  0.36603303  1
  Ta  Ta105  1  0.69724226  0.10450941  0.13210323  1
  Ta  Ta106  1  0.68828571  0.70988783  0.61618227  1
  Ta  Ta107  1  0.18693820  0.40735954  0.48144166  1
  Ta  Ta108  1  0.41098097  0.38706299  0.01630874  1
  Ta  Ta109  1  0.20235473  0.18806947  0.00250873  1
  Ta  Ta110  1  0.10545878  0.51846970  0.36721674  1
  Ta  Ta111  1  0.90093362  0.50649067  0.61394183  1
  Ta  Ta112  1  0.30890062  0.69827924  0.12050354  1
  Ta  Ta113  1  0.09292218  0.52055853  0.61473170  1
  Ta  Ta114  1  0.10346702  0.29900610  0.12200925  1
  Ta  Ta115  1  0.89016653  0.31097129  0.36251521  1
  Ta  Ta116  1  0.29448415  0.09043831  0.88460328  1
  Ta  Ta117  1  0.49473748  0.28809544  0.60747119  1
  Ta  Ta118  1  0.38730385  0.79855464  0.49768546  1
  Ta  Ta119  1  0.60013094  0.59778580  0.50698315  1
  Ti  Ti120  1  0.59814650  0.39151067  0.50102492  1
  Ti  Ti121  1  0.59770777  0.59010331  -0.00091221  1
  Ti  Ti122  1  0.60025126  0.38658497  0.25508862  1
  Ti  Ti123  1  0.58967643  0.80146059  0.25658424  1
  Ti  Ti124  1  0.20042675  0.41764447  0.74811212  1
  Ti  Ti125  1  0.08997022  0.30595437  0.36327629  1
  Ti  Ti126  1  0.40715241  -0.00522197  0.48788585  1
  Ti  Ti127  1  0.70802270  0.90276006  0.62594942  1
  Ti  Ti128  1  0.89831461  0.70386933  0.88313905  1
  Ti  Ti129  1  0.40205382  0.39993678  0.23903704  1
  Ti  Ti130  1  0.69620942  0.29716759  0.37890318  1
  Ti  Ti131  1  0.39844434  0.77374023  0.25400930  1
  Ti  Ti132  1  0.40322280  0.59048433  0.00433878  1
  Ti  Ti133  1  0.50666323  0.28986339  0.13811848  1
  Ti  Ti134  1  0.50670721  0.28917995  0.37605707  1
  Ti  Ti135  1  0.47928500  0.68467815  0.39051684  1
  Ti  Ti136  1  0.80722691  0.00648565  0.00418284  1
  Ti  Ti137  1  0.78857337  0.41264566  0.74109776  1
  Ti  Ti138  1  0.00725681  0.60655913  0.49061857  1
  Ti  Ti139  1  0.91007900  0.69765288  0.37108291  1
  Ti  Ti140  1  0.57437516  0.60619104  0.26200843  1
  Ti  Ti141  1  0.48800004  0.69447958  0.86947785  1
  Ti  Ti142  1  -0.00443184  0.60708621  0.01879031  1
  Ti  Ti143  1  -0.00044367  0.41291105  0.48972079  1
  Ti  Ti144  1  0.79663694  0.60275135  0.25827281  1
  Ti  Ti145  1  0.16898486  0.60629582  0.74928297  1
  Ti  Ti146  1  0.67368294  0.70720555  0.38345704  1
  Ti  Ti147  1  0.90510989  0.09805122  0.87242555  1
  Ti  Ti148  1  0.40392005  0.18977914  0.49078843  1
  Ti  Ti149  1  0.69675987  0.29864510  0.13330369  1
  Ti  Ti150  1  0.00795561  0.60215704  0.23630981  1
  Ti  Ti151  1  0.79512773  0.60591103  0.49584964  1
  Ti  Ti152  1  0.40680650  0.18488186  -0.00193940  1
  Ti  Ti153  1  0.49362137  0.29871380  0.88210419  1
  Ti  Ti154  1  0.20795675  0.01197480  0.75151396  1
  Ti  Ti155  1  0.10517791  0.91328482  0.87004231  1
  Ti  Ti156  1  0.89369574  0.91215279  0.61528653  1
  Ti  Ti157  1  0.12111910  0.91251027  0.13770452  1
  Ti  Ti158  1  0.70648307  0.11244810  0.38167718  1
  Ti  Ti159  1  0.30530158  0.09555493  0.36309093  1
  Mo  Mo160  1  0.31440606  0.88721212  0.37861700  1
  Mo  Mo161  1  0.60016625  -0.01035942  0.26229308  1
  Mo  Mo162  1  0.70791189  0.89757309  0.87938006  1
  Mo  Mo163  1  0.30879533  0.49929737  0.11444733  1
  Mo  Mo164  1  0.19704119  -0.00048201  -0.00434964  1
  Mo  Mo165  1  0.59889348  0.20168199  0.49170162  1
  Mo  Mo166  1  -0.00410022  0.59857024  0.75282616  1
  Mo  Mo167  1  0.39516384  0.78667738  0.75187444  1
  Mo  Mo168  1  0.09788520  0.50659505  0.11428616  1
  Mo  Mo169  1  0.49930506  0.09595361  0.88381840  1
  Mo  Mo170  1  0.70176742  0.50275417  0.61131703  1
  Mo  Mo171  1  0.59321233  0.78914916  0.49882232  1
  Mo  Mo172  1  0.62117104  -0.01530421  0.76326140  1
  Mo  Mo173  1  0.81040822  0.00088560  0.75052545  1
  Mo  Mo174  1  0.38336100  0.61014656  0.50013827  1
  Mo  Mo175  1  0.10306680  0.09273827  0.87657825  1
  Mo  Mo176  1  0.19333020  0.79908978  0.75486071  1
  Mo  Mo177  1  0.20381310  0.39362443  0.02734722  1
  Mo  Mo178  1  0.10135143  0.69443019  0.36460193  1
  Mo  Mo179  1  0.69274780  0.90039467  0.36708101  1
  Mo  Mo180  1  0.30963773  0.89404891  0.12260111  1
  Mo  Mo181  1  0.39646232  0.39437760  0.49245656  1
  Mo  Mo182  1  0.19955223  0.60123958  0.02366134  1
  Mo  Mo183  1  0.10216431  0.70359873  0.11608898  1
  Mo  Mo184  1  0.80871089  0.00384725  0.48723519  1
  Mo  Mo185  1  0.00474061  0.00591679  0.25024556  1
  Mo  Mo186  1  0.18830009  0.60828216  0.49307403  1
  Mo  Mo187  1  0.79382197  0.20567920  0.48717283  1
  Mo  Mo188  1  0.40328068  0.20930817  0.25230721  1
  Mo  Mo189  1  0.09448606  0.69666412  0.62372168  1
  Mo  Mo190  1  0.31268387  0.28550904  0.90770461  1
  Mo  Mo191  1  0.69955995  0.49674480  0.87586669  1
  Mo  Mo192  1  0.20623800  0.00025956  0.25805956  1
  Mo  Mo193  1  0.79587636  0.40276992  0.24939957  1
  Mo  Mo194  1  0.10924365  0.10281964  0.35803512  1
  Mo  Mo195  1  -0.00225614  0.21245128  0.24879616  1
  Mo  Mo196  1  0.39026830  0.59092286  0.24731771  1
  Mo  Mo197  1  0.22328099  0.80515659  0.23237843  1
  Mo  Mo198  1  0.60915555  0.20050587  0.25375538  1
  Mo  Mo199  1  0.49728871  0.88935542  0.88621717  1
