# generated using pymatgen
data_HfZrTaTiMo
_symmetry_space_group_name_H-M   'P 1'
_cell_length_a   15.21639709
_cell_length_b   15.22114339
_cell_length_c   16.86725918
_cell_angle_alpha   90.00975359
_cell_angle_beta   89.98517151
_cell_angle_gamma   90.03174993
_symmetry_Int_Tables_number   1
_chemical_formula_structural   HfZrTaTiMo
_chemical_formula_sum   'Hf40 Zr40 Ta40 Ti40 Mo40'
_cell_volume   3906.64133609
_cell_formula_units_Z   40
loop_
 _symmetry_equiv_pos_site_id
 _symmetry_equiv_pos_as_xyz
  1  'x, y, z'
loop_
 _atom_site_type_symbol
 _atom_site_label
 _atom_site_symmetry_multiplicity
 _atom_site_fract_x
 _atom_site_fract_y
 _atom_site_fract_z
 _atom_site_occupancy
  Hf  Hf0  1  0.08929157  0.91053446  0.87813603  1
  Hf  Hf1  1  0.29400964  0.27532285  0.61882501  1
  Hf  Hf2  1  0.90628311  0.72208927  0.88579735  1
  Hf  Hf3  1  0.29253081  0.50640287  0.61028620  1
  Hf  Hf4  1  0.30222097  0.89378190  0.87111082  1
  Hf  Hf5  1  0.30343562  0.70175893  0.14411302  1
  Hf  Hf6  1  0.40056257  0.38453300  0.50749787  1
  Hf  Hf7  1  0.59045408  0.38692949  0.24350845  1
  Hf  Hf8  1  0.29695851  0.71248687  0.35947416  1
  Hf  Hf9  1  0.70413363  0.48971735  0.61425442  1
  Hf  Hf10  1  0.70330707  0.49818259  0.39152038  1
  Hf  Hf11  1  0.38912360  0.38500156  0.26360278  1
  Hf  Hf12  1  0.00780406  0.19304818  0.25880036  1
  Hf  Hf13  1  0.11304594  0.08708918  0.38016061  1
  Hf  Hf14  1  0.39376943  0.58062108  0.26632876  1
  Hf  Hf15  1  0.20003115  0.39866469  0.24778892  1
  Hf  Hf16  1  0.91746791  0.70966267  0.62947196  1
  Hf  Hf17  1  0.89389454  0.30275152  0.38606196  1
  Hf  Hf18  1  0.70860542  0.91193875  0.62463635  1
  Hf  Hf19  1  0.48334539  0.29037023  0.11387116  1
  Hf  Hf20  1  0.90668779  0.09330295  0.86226550  1
  Hf  Hf21  1  0.30930600  0.11382189  0.11286708  1
  Hf  Hf22  1  0.28084502  0.91096662  0.35902570  1
  Hf  Hf23  1  0.79371306  0.40872924  0.76143261  1
  Hf  Hf24  1  0.20101363  0.18365360  0.76272438  1
  Hf  Hf25  1  0.10526278  0.49316261  0.11779615  1
  Hf  Hf26  1  0.50179175  0.69866389  0.62282914  1
  Hf  Hf27  1  0.70196765  0.70930809  0.10813356  1
  Hf  Hf28  1  0.67861864  0.11405350  0.62737105  1
  Hf  Hf29  1  0.29545531  0.32395260  0.88024261  1
  Hf  Hf30  1  0.11507693  0.30185468  0.38798242  1
  Hf  Hf31  1  0.90662990  0.50940658  0.37207457  1
  Hf  Hf32  1  0.00739076  0.60624025  0.75972163  1
  Hf  Hf33  1  0.19828266  0.80369959  0.01141932  1
  Hf  Hf34  1  0.40181416  0.39767084  0.73802786  1
  Hf  Hf35  1  0.49712623  0.70015646  0.13609957  1
  Hf  Hf36  1  0.88750483  0.31098795  0.62112970  1
  Hf  Hf37  1  0.39749945  0.60796595  0.49375134  1
  Hf  Hf38  1  0.51113591  0.70270861  0.37001491  1
  Hf  Hf39  1  0.80105898  0.19080573  -0.00753939  1
  Zr  Zr40  1  0.89655457  0.70771400  0.11110147  1
  Zr  Zr41  1  0.49176534  0.70270500  0.86917405  1
  Zr  Zr42  1  0.70948404  0.69712678  0.62287103  1
  Zr  Zr43  1  0.40300797  0.18713896  0.76314810  1
  Zr  Zr44  1  0.11676212  0.70739093  0.87580354  1
  Zr  Zr45  1  0.01005805  0.60279595  -0.00625067  1
  Zr  Zr46  1  0.02468468  0.61578217  0.49688417  1
  Zr  Zr47  1  0.80077569  0.61059568  0.24836025  1
  Zr  Zr48  1  0.60234105  0.58967445  0.75629318  1
  Zr  Zr49  1  0.69838289  0.49106320  0.11154554  1
  Zr  Zr50  1  0.79257315  0.19842959  0.25867669  1
  Zr  Zr51  1  0.81691085  0.81574506  0.75245945  1
  Zr  Zr52  1  0.60227778  0.80596077  0.74687137  1
  Zr  Zr53  1  0.00681147  0.40866212  0.50577178  1
  Zr  Zr54  1  0.10278177  0.50539350  0.63130259  1
  Zr  Zr55  1  0.89944632  0.09926525  0.12842078  1
  Zr  Zr56  1  0.39290681  0.80946458  0.50371123  1
  Zr  Zr57  1  0.09593220  0.27470035  0.11248071  1
  Zr  Zr58  1  0.18637676  0.18678269  -0.02228207  1
  Zr  Zr59  1  0.60644048  0.58956171  0.24632693  1
  Zr  Zr60  1  0.49160887  0.90323747  0.36629172  1
  Zr  Zr61  1  0.22794870  0.58775824  0.00247033  1
  Zr  Zr62  1  0.01441219  0.02959265  0.00861314  1
  Zr  Zr63  1  0.21954937  0.20064175  0.24901984  1
  Zr  Zr64  1  0.69371848  0.29201707  0.87687265  1
  Zr  Zr65  1  0.52005468  0.08883680  0.11651084  1
  Zr  Zr66  1  -0.00081328  0.39427683  -0.01069405  1
  Zr  Zr67  1  0.58609100  0.82265531  -0.00156053  1
  Zr  Zr68  1  0.81478362  0.60835831  0.49904809  1
  Zr  Zr69  1  0.25911769  0.48831251  0.40568447  1
  Zr  Zr70  1  -0.00170259  0.39930029  0.25008830  1
  Zr  Zr71  1  0.58168780  0.59677788  -0.00740515  1
  Zr  Zr72  1  0.69843559  0.92291959  0.12324496  1
  Zr  Zr73  1  0.50931686  0.48636769  0.39237137  1
  Zr  Zr74  1  0.79459012  0.20127283  0.74754238  1
  Zr  Zr75  1  0.58614794  0.00496474  0.50111120  1
  Zr  Zr76  1  0.79206999  0.19846387  0.50193207  1
  Zr  Zr77  1  0.02652688  0.19363011  0.52577402  1
  Zr  Zr78  1  0.58088791  0.38988265  -0.01070168  1
  Zr  Zr79  1  0.88737732  0.30496047  0.12387283  1
  Ta  Ta80  1  -0.00386995  -0.00468717  0.73299315  1
  Ta  Ta81  1  0.10154891  0.70433053  0.13264473  1
  Ta  Ta82  1  0.78828234  0.40372147  0.25029705  1
  Ta  Ta83  1  -0.00398493  -0.00390843  0.25065086  1
  Ta  Ta84  1  0.59944705  0.19392845  0.25205780  1
  Ta  Ta85  1  0.12112288  0.49011052  0.86749715  1
  Ta  Ta86  1  0.10131559  0.90793213  0.13526023  1
  Ta  Ta87  1  0.12873992  0.71459297  0.63375078  1
  Ta  Ta88  1  0.80875857  -0.01258987  -0.00496824  1
  Ta  Ta89  1  -0.00905464  0.80515992  0.23961646  1
  Ta  Ta90  1  0.80423370  0.60593383  0.76431751  1
  Ta  Ta91  1  0.91031258  0.72381774  0.37215984  1
  Ta  Ta92  1  0.60655482  0.79990240  0.50161073  1
  Ta  Ta93  1  0.51425162  0.28253001  0.61774488  1
  Ta  Ta94  1  0.68831013  0.30441144  0.38174402  1
  Ta  Ta95  1  0.70592064  0.90643991  0.87267230  1
  Ta  Ta96  1  0.61275737  0.80397239  0.24997543  1
  Ta  Ta97  1  0.39973749  0.01344882  0.24533126  1
  Ta  Ta98  1  0.89536446  0.50234441  0.11978659  1
  Ta  Ta99  1  0.00174132  0.60417210  0.24396802  1
  Ta  Ta100  1  0.08554266  0.29595751  0.85999778  1
  Ta  Ta101  1  0.70210064  0.89907778  0.37792136  1
  Ta  Ta102  1  0.28296967  0.88696858  0.63479884  1
  Ta  Ta103  1  0.29943945  0.90828118  0.13983149  1
  Ta  Ta104  1  0.58956530  0.39441210  0.75474556  1
  Ta  Ta105  1  0.70471926  0.70721854  0.88523135  1
  Ta  Ta106  1  0.80087800  0.39924151  -0.01512334  1
  Ta  Ta107  1  0.40847843  -0.01082035  0.00096788  1
  Ta  Ta108  1  0.41223329  0.19994573  0.25379011  1
  Ta  Ta109  1  0.80246874  0.00019005  0.26440127  1
  Ta  Ta110  1  0.08518110  0.89141303  0.36757046  1
  Ta  Ta111  1  0.88774549  0.08501460  0.62677614  1
  Ta  Ta112  1  0.80213860  0.81394148  0.25301839  1
  Ta  Ta113  1  0.10413709  0.70241098  0.35810338  1
  Ta  Ta114  1  0.51005264  0.49391145  0.60952743  1
  Ta  Ta115  1  0.37999094  0.00565099  0.50532583  1
  Ta  Ta116  1  0.00143250  0.19545014  0.73416918  1
  Ta  Ta117  1  0.47310259  0.49395306  0.12258166  1
  Ta  Ta118  1  0.70596369  0.70697409  0.38207056  1
  Ta  Ta119  1  0.89791066  0.51061506  0.63504364  1
  Ti  Ti120  1  0.59748431  0.18630031  -0.00951558  1
  Ti  Ti121  1  0.30863003  0.09878566  0.37744343  1
  Ti  Ti122  1  0.48816614  0.91328133  0.63044155  1
  Ti  Ti123  1  0.29564578  0.32467803  0.09864416  1
  Ti  Ti124  1  0.60730733  0.00511317  0.25717928  1
  Ti  Ti125  1  0.49757711  0.10158961  0.37557076  1
  Ti  Ti126  1  0.19931934  0.39694957  0.74113466  1
  Ti  Ti127  1  0.30873375  0.69536735  0.87353657  1
  Ti  Ti128  1  0.80370910  0.59539413  -0.01253964  1
  Ti  Ti129  1  0.49790640  0.90690091  0.86562364  1
  Ti  Ti130  1  0.58870837  0.20392329  0.75961018  1
  Ti  Ti131  1  0.39154804  0.79727313  0.74068334  1
  Ti  Ti132  1  0.50268398  0.28409767  0.38978566  1
  Ti  Ti133  1  0.18735808  -0.01067335  0.51385988  1
  Ti  Ti134  1  0.69186901  0.28426705  0.11706891  1
  Ti  Ti135  1  0.19386466  0.80034698  0.49658261  1
  Ti  Ti136  1  0.21014185  -0.00150162  0.00036688  1
  Ti  Ti137  1  0.19555142  -0.01097539  0.75013428  1
  Ti  Ti138  1  0.01635502  0.81242580  0.74583382  1
  Ti  Ti139  1  0.21683371  0.60401094  0.75147874  1
  Ti  Ti140  1  -0.00216946  -0.00691058  0.51343267  1
  Ti  Ti141  1  0.90804223  0.09208544  0.38370293  1
  Ti  Ti142  1  0.39190090  0.79574824  0.00704694  1
  Ti  Ti143  1  0.19353751  0.59181353  0.24886198  1
  Ti  Ti144  1  0.30241928  0.08077258  0.63282705  1
  Ti  Ti145  1  0.30403376  0.27829719  0.40059625  1
  Ti  Ti146  1  0.00713741  0.81071435  0.50347199  1
  Ti  Ti147  1  0.69690495  0.08730178  0.86589450  1
  Ti  Ti148  1  0.81066087  0.81117659  0.49801936  1
  Ti  Ti149  1  0.80222780  -0.00312821  0.49098260  1
  Ti  Ti150  1  0.40396058  0.59289901  0.74031217  1
  Ti  Ti151  1  0.58778993  0.00728053  0.74782704  1
  Ti  Ti152  1  0.69303150  0.10219608  0.38163819  1
  Ti  Ti153  1  0.69278394  0.50368089  0.88050197  1
  Ti  Ti154  1  0.40037639  0.20115105  -0.02283416  1
  Ti  Ti155  1  -0.00440966  0.39966328  0.75026363  1
  Ti  Ti156  1  0.90605014  0.49912873  0.87222090  1
  Ti  Ti157  1  0.49287643  0.89597656  0.13948906  1
  Ti  Ti158  1  -0.01236089  0.82937422  0.01391102  1
  Ti  Ti159  1  0.49913594  0.08854710  0.87890621  1
  Mo  Mo160  1  0.41027667  0.17772488  0.50394520  1
  Mo  Mo161  1  0.10874068  0.09041500  0.63247179  1
  Mo  Mo162  1  0.19862675  0.00769947  0.24765054  1
  Mo  Mo163  1  0.20301940  0.63142040  0.49681137  1
  Mo  Mo164  1  0.90277295  0.90628835  0.38261832  1
  Mo  Mo165  1  0.20385830  0.79698709  0.75741628  1
  Mo  Mo166  1  0.38959494  0.42443866  -0.00787869  1
  Mo  Mo167  1  0.48744389  0.09571258  0.63045918  1
  Mo  Mo168  1  0.09439711  0.51021777  0.36734646  1
  Mo  Mo169  1  0.40484016  0.80887509  0.24825748  1
  Mo  Mo170  1  0.59493201  0.19884303  0.49478667  1
  Mo  Mo171  1  0.30690852  0.70015543  0.62990323  1
  Mo  Mo172  1  0.09970443  0.09369126  0.86002252  1
  Mo  Mo173  1  0.68751472  0.30779449  0.63109478  1
  Mo  Mo174  1  0.40264051  0.60723049  0.00174665  1
  Mo  Mo175  1  0.09765154  0.89681368  0.62593947  1
  Mo  Mo176  1  0.19526220  0.39927218  -0.00851173  1
  Mo  Mo177  1  0.70320188  0.10668490  0.12515870  1
  Mo  Mo178  1  0.30722112  0.07978387  0.88487826  1
  Mo  Mo179  1  0.60188150  0.60854847  0.50029625  1
  Mo  Mo180  1  0.30609725  0.51336834  0.85844832  1
  Mo  Mo181  1  0.18948803  0.36257265  0.52098012  1
  Mo  Mo182  1  0.39861656  -0.01180003  0.74909080  1
  Mo  Mo183  1  0.90150822  0.30163895  0.86459338  1
  Mo  Mo184  1  0.80625664  0.39891771  0.50104199  1
  Mo  Mo185  1  0.09995855  0.29969186  0.64933186  1
  Mo  Mo186  1  0.90315305  0.90847516  0.87518347  1
  Mo  Mo187  1  0.79699709  0.80697069  -0.00665292  1
  Mo  Mo188  1  0.60649246  0.00686473  -0.01678610  1
  Mo  Mo189  1  0.89747753  0.90510686  0.12868101  1
  Mo  Mo190  1  0.79331276  0.00264083  0.74820685  1
  Mo  Mo191  1  0.60606158  0.38927007  0.50506506  1
  Mo  Mo192  1  -0.01296613  0.20940027  -0.02171644  1
  Mo  Mo193  1  0.47963906  0.49177439  0.86887595  1
  Mo  Mo194  1  0.21801205  0.16599764  0.50426927  1
  Mo  Mo195  1  0.30009623  0.49872647  0.13256580  1
  Mo  Mo196  1  0.49377393  0.29505778  0.87688391  1
  Mo  Mo197  1  0.18940885  0.80390119  0.24219598  1
  Mo  Mo198  1  0.90004515  0.90165036  0.61393258  1
  Mo  Mo199  1  0.11867879  0.08830407  0.13616819  1
