# generated using pymatgen
data_HfZrTaTiMo
_symmetry_space_group_name_H-M   'P 1'
_cell_length_a   15.18477822
_cell_length_b   15.17782556
_cell_length_c   16.81523626
_cell_angle_alpha   89.96226819
_cell_angle_beta   89.99084646
_cell_angle_gamma   89.92506706
_symmetry_Int_Tables_number   1
_chemical_formula_structural   HfZrTaTiMo
_chemical_formula_sum   'Hf40 Zr40 Ta40 Ti40 Mo40'
_cell_volume   3875.43549681
_cell_formula_units_Z   40
loop_
 _symmetry_equiv_pos_site_id
 _symmetry_equiv_pos_as_xyz
  1  'x, y, z'
loop_
 _atom_site_type_symbol
 _atom_site_label
 _atom_site_symmetry_multiplicity
 _atom_site_fract_x
 _atom_site_fract_y
 _atom_site_fract_z
 _atom_site_occupancy
  Hf  Hf0  1  0.91500978  0.89725115  0.60570617  1
  Hf  Hf1  1  0.19469386  0.20402082  0.74551134  1
  Hf  Hf2  1  0.38800919  0.38422496  0.48810500  1
  Hf  Hf3  1  0.29568558  0.51286306  0.60959564  1
  Hf  Hf4  1  0.40388339  0.60910259  0.25735501  1
  Hf  Hf5  1  0.29154072  0.70459508  0.87973238  1
  Hf  Hf6  1  0.79610095  0.39671190  0.00503361  1
  Hf  Hf7  1  0.40824034  -0.00191158  0.25460771  1
  Hf  Hf8  1  0.20194255  0.79621314  0.74016714  1
  Hf  Hf9  1  -0.00246702  0.60819284  -0.01271818  1
  Hf  Hf10  1  0.81381452  0.16567639  0.00847123  1
  Hf  Hf11  1  0.10771564  0.89317459  0.11970607  1
  Hf  Hf12  1  -0.00228030  0.20751216  0.74424206  1
  Hf  Hf13  1  0.60092296  0.80444170  0.73544783  1
  Hf  Hf14  1  0.58877317  0.41025043  -0.00183363  1
  Hf  Hf15  1  0.21129647  -0.00023602  -0.00141243  1
  Hf  Hf16  1  0.41713950  0.01315894  0.00113218  1
  Hf  Hf17  1  0.81800276  0.78569547  0.25117008  1
  Hf  Hf18  1  0.09717629  0.70175443  0.61818655  1
  Hf  Hf19  1  0.90156010  0.91362433  0.12054011  1
  Hf  Hf20  1  0.20336234  0.00577589  0.25449789  1
  Hf  Hf21  1  0.80656444  -0.00097778  0.48509229  1
  Hf  Hf22  1  0.29501949  0.71167876  0.12496658  1
  Hf  Hf23  1  -0.00009784  0.40118116  0.76136623  1
  Hf  Hf24  1  0.58329742  0.18169185  0.76142182  1
  Hf  Hf25  1  -0.00442900  0.00606056  0.26664215  1
  Hf  Hf26  1  0.70952175  0.88400204  0.60744352  1
  Hf  Hf27  1  0.89588159  0.30317235  0.37393547  1
  Hf  Hf28  1  0.09098716  0.50325777  0.62218303  1
  Hf  Hf29  1  0.50006042  0.50685991  0.12999924  1
  Hf  Hf30  1  0.80119576  0.58639024  0.49107374  1
  Hf  Hf31  1  0.21361066  0.80080446  0.50065107  1
  Hf  Hf32  1  0.17879316  0.39726147  0.49312845  1
  Hf  Hf33  1  0.68480788  0.69673566  0.87403504  1
  Hf  Hf34  1  0.70366764  0.69363185  0.36871865  1
  Hf  Hf35  1  0.89432357  0.70555212  0.61325315  1
  Hf  Hf36  1  0.70128198  0.09052791  0.62029378  1
  Hf  Hf37  1  0.11284005  0.90190817  0.87874050  1
  Hf  Hf38  1  0.78682729  0.38997105  0.49954202  1
  Hf  Hf39  1  0.01448003  0.20892807  0.25206353  1
  Zr  Zr40  1  0.19157994  0.38424511  0.26680300  1
  Zr  Zr41  1  0.79594209  0.39444043  0.76066547  1
  Zr  Zr42  1  0.69948150  0.06631910  0.87434348  1
  Zr  Zr43  1  0.69379410  0.88270014  0.14667003  1
  Zr  Zr44  1  0.19619013  0.60637424  -0.00079747  1
  Zr  Zr45  1  0.21680822  0.21108418  0.51811731  1
  Zr  Zr46  1  0.50564532  0.10410309  0.60739334  1
  Zr  Zr47  1  0.68413989  0.28335147  0.11566172  1
  Zr  Zr48  1  -0.01398186  0.80824103  0.75930422  1
  Zr  Zr49  1  0.89250211  0.50514226  0.63363356  1
  Zr  Zr50  1  0.80500259  -0.02181016  0.74362543  1
  Zr  Zr51  1  0.78469643  0.40099287  0.23387801  1
  Zr  Zr52  1  0.00987820  0.40605332  -0.00125328  1
  Zr  Zr53  1  0.51400459  0.09655755  0.13177173  1
  Zr  Zr54  1  0.29198726  0.51217309  0.37597082  1
  Zr  Zr55  1  0.88911363  0.51748133  0.11769207  1
  Zr  Zr56  1  0.50344592  0.50740483  0.61771740  1
  Zr  Zr57  1  0.40930548  0.20880167  0.25431343  1
  Zr  Zr58  1  0.31834433  0.90583612  0.85711353  1
  Zr  Zr59  1  0.07304734  0.51657719  0.37342479  1
  Zr  Zr60  1  0.01171640  0.01128996  0.76196744  1
  Zr  Zr61  1  0.00969679  0.01580869  0.48374500  1
  Zr  Zr62  1  -0.01366587  0.40848284  0.24148772  1
  Zr  Zr63  1  0.69787341  0.29056243  0.88523045  1
  Zr  Zr64  1  0.79878162  0.19219431  0.75177487  1
  Zr  Zr65  1  0.58719424  0.17579665  -0.01011871  1
  Zr  Zr66  1  0.31820151  0.10701492  0.38514485  1
  Zr  Zr67  1  0.69090766  0.67773165  0.61871971  1
  Zr  Zr68  1  0.29249259  0.50071057  0.13676076  1
  Zr  Zr69  1  0.31310268  0.10877881  0.85725932  1
  Zr  Zr70  1  0.09525049  0.10440131  0.12191578  1
  Zr  Zr71  1  0.58732601  0.39323753  0.75655045  1
  Zr  Zr72  1  0.39904739  0.81026423  0.00536681  1
  Zr  Zr73  1  0.20840629  0.20632492  -0.01266915  1
  Zr  Zr74  1  0.80929133  0.18811924  0.24158779  1
  Zr  Zr75  1  0.00136352  0.61044718  0.76942231  1
  Zr  Zr76  1  0.58334414  0.38639104  0.24972946  1
  Zr  Zr77  1  0.46286004  0.29803353  0.88736979  1
  Zr  Zr78  1  0.58821782  0.39056052  0.49286664  1
  Zr  Zr79  1  0.00761904  0.22439315  0.50927236  1
  Ta  Ta80  1  0.30379337  0.11035094  0.12743745  1
  Ta  Ta81  1  0.41001000  0.79627225  0.73290228  1
  Ta  Ta82  1  0.11840905  0.12479875  0.37640414  1
  Ta  Ta83  1  0.30216090  0.30314551  0.12610837  1
  Ta  Ta84  1  0.49994100  0.88677543  0.37862060  1
  Ta  Ta85  1  0.21076585  0.00293681  0.50181257  1
  Ta  Ta86  1  0.91039103  0.28148285  0.89084372  1
  Ta  Ta87  1  0.88729110  0.90709830  0.89150987  1
  Ta  Ta88  1  0.68694076  0.49982104  0.36557883  1
  Ta  Ta89  1  0.20164087  0.39986421  0.74249802  1
  Ta  Ta90  1  0.11828175  0.49997676  0.87106647  1
  Ta  Ta91  1  0.80233416  0.19774061  0.50121178  1
  Ta  Ta92  1  0.10889131  0.90903243  0.62099169  1
  Ta  Ta93  1  0.51909273  0.90559860  0.87020248  1
  Ta  Ta94  1  0.30899194  0.90521465  0.62990618  1
  Ta  Ta95  1  0.79367417  0.60577964  0.75869728  1
  Ta  Ta96  1  0.39578679  0.60779241  0.74855026  1
  Ta  Ta97  1  0.39684426  0.39925703  0.26978361  1
  Ta  Ta98  1  0.40695836  0.60224740  0.00226351  1
  Ta  Ta99  1  0.09919885  0.51207594  0.13542474  1
  Ta  Ta100  1  0.10523152  0.09703449  0.62368623  1
  Ta  Ta101  1  0.78759311  0.79448838  0.01140023  1
  Ta  Ta102  1  -0.00716019  0.01928309  -0.01074150  1
  Ta  Ta103  1  0.88114591  0.71140652  0.88445249  1
  Ta  Ta104  1  0.11099519  0.90138070  0.37998879  1
  Ta  Ta105  1  0.00315428  0.80347805  -0.00931987  1
  Ta  Ta106  1  0.49162288  0.70858801  0.87233273  1
  Ta  Ta107  1  0.59059374  0.78437345  0.50123830  1
  Ta  Ta108  1  0.39021328  0.40972134  0.74198051  1
  Ta  Ta109  1  0.70084349  0.88536339  0.37428058  1
  Ta  Ta110  1  0.90881437  0.88108552  0.38403662  1
  Ta  Ta111  1  0.11276462  0.30911344  0.11874115  1
  Ta  Ta112  1  0.70615148  0.10256947  0.37782647  1
  Ta  Ta113  1  0.60274807  -0.01098376  0.48495949  1
  Ta  Ta114  1  -0.01402846  0.62030336  0.24676056  1
  Ta  Ta115  1  0.90489681  0.09961285  0.62035862  1
  Ta  Ta116  1  0.20671628  0.59678698  0.75120105  1
  Ta  Ta117  1  0.60355689  -0.00490935  0.27219431  1
  Ta  Ta118  1  0.30552326  0.09560187  0.63262686  1
  Ta  Ta119  1  0.40718096  0.61339995  0.48690222  1
  Ti  Ti120  1  0.51183530  0.10711368  0.39256867  1
  Ti  Ti121  1  0.89115593  0.30537019  0.62528880  1
  Ti  Ti122  1  0.90078560  0.70804129  0.11471103  1
  Ti  Ti123  1  0.48197679  0.29970553  0.10768837  1
  Ti  Ti124  1  0.20881414  0.80215786  0.26242703  1
  Ti  Ti125  1  0.91423917  0.28631597  0.11121505  1
  Ti  Ti126  1  0.19562621  0.61464466  0.48631949  1
  Ti  Ti127  1  0.60468462  0.18907597  0.25634871  1
  Ti  Ti128  1  0.10477645  0.30253451  0.87876711  1
  Ti  Ti129  1  0.30863551  0.89818415  0.37812949  1
  Ti  Ti130  1  0.31011937  0.49562348  0.87616841  1
  Ti  Ti131  1  0.40382993  0.79604585  0.50978704  1
  Ti  Ti132  1  0.40508417  -0.00920146  0.50317312  1
  Ti  Ti133  1  0.59197422  0.79043263  0.00782461  1
  Ti  Ti134  1  0.69193623  0.67872430  0.14184230  1
  Ti  Ti135  1  0.18855573  0.61915379  0.26028939  1
  Ti  Ti136  1  0.69684659  0.48797739  0.63166167  1
  Ti  Ti137  1  0.21271682  0.40741127  -0.00145274  1
  Ti  Ti138  1  0.61424339  -0.02307617  0.00710448  1
  Ti  Ti139  1  0.51074825  0.69243458  0.37064263  1
  Ti  Ti140  1  0.78372680  0.59966566  -0.00252485  1
  Ti  Ti141  1  0.49510553  0.51328937  0.87824139  1
  Ti  Ti142  1  0.70574759  0.87828544  0.87573481  1
  Ti  Ti143  1  0.09580251  0.70367645  0.12505804  1
  Ti  Ti144  1  0.69248786  0.50212088  0.87350786  1
  Ti  Ti145  1  0.80546745  -0.00371641  0.26967866  1
  Ti  Ti146  1  0.68117176  0.28840659  0.62581858  1
  Ti  Ti147  1  0.50467288  0.89041118  0.13674507  1
  Ti  Ti148  1  -0.02103274  0.41882292  0.49598883  1
  Ti  Ti149  1  0.68961436  0.29075217  0.37358354  1
  Ti  Ti150  1  0.58684072  0.59945549  0.75129032  1
  Ti  Ti151  1  0.40369931  0.80055280  0.25128098  1
  Ti  Ti152  1  0.59532288  0.60759021  0.00603704  1
  Ti  Ti153  1  0.01506218  0.80141761  0.25561216  1
  Ti  Ti154  1  0.91599677  0.69013556  0.38840479  1
  Ti  Ti155  1  0.30334489  0.90758768  0.13034650  1
  Ti  Ti156  1  0.39662232  0.21930353  0.73247177  1
  Ti  Ti157  1  0.71023321  0.07323337  0.13469303  1
  Ti  Ti158  1  0.89138904  0.49946753  0.88012257  1
  Ti  Ti159  1  0.42885121  0.00007544  0.73724398  1
  Mo  Mo160  1  0.30283822  0.69592601  0.62323509  1
  Mo  Mo161  1  0.49298660  0.08742729  0.86901312  1
  Mo  Mo162  1  0.88004726  0.50647230  0.36818597  1
  Mo  Mo163  1  0.09426501  0.30445891  0.37952597  1
  Mo  Mo164  1  0.09728346  0.70414269  0.87297230  1
  Mo  Mo165  1  0.90056073  0.09685685  0.87333118  1
  Mo  Mo166  1  0.41192901  0.20470725  0.50897394  1
  Mo  Mo167  1  0.00268721  0.60112982  0.49844501  1
  Mo  Mo168  1  0.59434418  0.59249773  0.49123605  1
  Mo  Mo169  1  0.60128496  -0.01094110  0.74205202  1
  Mo  Mo170  1  0.79463819  -0.01727799  0.00590299  1
  Mo  Mo171  1  0.90090825  0.09361022  0.13340589  1
  Mo  Mo172  1  0.19490882  0.80644365  0.00386456  1
  Mo  Mo173  1  0.00736506  0.20425437  0.00181447  1
  Mo  Mo174  1  0.09957681  0.71474810  0.37184269  1
  Mo  Mo175  1  0.69255332  0.50216925  0.12017784  1
  Mo  Mo176  1  0.30907793  0.71685431  0.37143314  1
  Mo  Mo177  1  0.80247894  0.78841128  0.75246005  1
  Mo  Mo178  1  0.20739282  0.00159052  0.73742256  1
  Mo  Mo179  1  0.50517188  0.70707818  0.12773045  1
  Mo  Mo180  1  0.09083797  0.30958539  0.63018108  1
  Mo  Mo181  1  0.39057607  0.20338131  0.00569450  1
  Mo  Mo182  1  0.59016951  0.79166508  0.25470067  1
  Mo  Mo183  1  0.38902037  0.41253712  0.00429814  1
  Mo  Mo184  1  0.09274638  0.11244589  0.87941204  1
  Mo  Mo185  1  0.49710966  0.30188697  0.62850289  1
  Mo  Mo186  1  0.49151081  0.69635709  0.62120530  1
  Mo  Mo187  1  0.28894666  0.28922213  0.37353338  1
  Mo  Mo188  1  0.49642913  0.28550211  0.37628475  1
  Mo  Mo189  1  0.80140839  0.79373052  0.48559597  1
  Mo  Mo190  1  0.20666491  0.19972953  0.24598917  1
  Mo  Mo191  1  0.01322652  0.80004572  0.49273294  1
  Mo  Mo192  1  0.30156853  0.30888194  0.62949685  1
  Mo  Mo193  1  0.60354949  0.59325465  0.24782845  1
  Mo  Mo194  1  0.61428093  0.20014853  0.49569982  1
  Mo  Mo195  1  0.49929461  0.50133160  0.37428282  1
  Mo  Mo196  1  0.50405739  0.89920880  0.60759609  1
  Mo  Mo197  1  0.28828155  0.32024907  0.86669479  1
  Mo  Mo198  1  0.90494319  0.10271231  0.37834375  1
  Mo  Mo199  1  0.80570197  0.59606009  0.25511563  1
