# generated using pymatgen
data_HfZrTaTiMo
_symmetry_space_group_name_H-M   'P 1'
_cell_length_a   15.20303360
_cell_length_b   15.21247861
_cell_length_c   16.80035893
_cell_angle_alpha   90.03021152
_cell_angle_beta   90.00461804
_cell_angle_gamma   90.11903238
_symmetry_Int_Tables_number   1
_chemical_formula_structural   HfZrTaTiMo
_chemical_formula_sum   'Hf40 Zr40 Ta40 Ti40 Mo40'
_cell_volume   3885.50790541
_cell_formula_units_Z   40
loop_
 _symmetry_equiv_pos_site_id
 _symmetry_equiv_pos_as_xyz
  1  'x, y, z'
loop_
 _atom_site_type_symbol
 _atom_site_label
 _atom_site_symmetry_multiplicity
 _atom_site_fract_x
 _atom_site_fract_y
 _atom_site_fract_z
 _atom_site_occupancy
  Hf  Hf0  1  0.39022918  0.60578533  0.49049041  1
  Hf  Hf1  1  0.19851337  0.20125980  0.00573864  1
  Hf  Hf2  1  0.39610783  -0.00557388  0.01096726  1
  Hf  Hf3  1  0.11990520  0.29220370  0.63854271  1
  Hf  Hf4  1  0.11632184  0.10712761  0.37382670  1
  Hf  Hf5  1  0.90203499  0.67486259  0.11945912  1
  Hf  Hf6  1  0.08675327  0.52737794  0.12946867  1
  Hf  Hf7  1  0.69169987  0.69543058  0.38700961  1
  Hf  Hf8  1  0.30025556  0.29888244  0.13011632  1
  Hf  Hf9  1  0.29395001  0.51073954  0.87864648  1
  Hf  Hf10  1  0.69683211  0.28739368  0.13586258  1
  Hf  Hf11  1  0.41029375  0.20049914  0.24164659  1
  Hf  Hf12  1  0.61837102  0.20503706  0.75837962  1
  Hf  Hf13  1  0.70099339  0.49129548  0.39293725  1
  Hf  Hf14  1  0.40619309  0.20959659  -0.00993027  1
  Hf  Hf15  1  0.60746092  0.57771562  -0.01172247  1
  Hf  Hf16  1  0.49827331  0.29857451  0.63049992  1
  Hf  Hf17  1  0.29296757  0.09866499  0.87437382  1
  Hf  Hf18  1  0.68590812  0.89189473  0.87586850  1
  Hf  Hf19  1  0.49185635  0.90375414  0.36421602  1
  Hf  Hf20  1  0.59005306  0.18252304  0.50370223  1
  Hf  Hf21  1  0.19602131  -0.00400433  0.74008734  1
  Hf  Hf22  1  0.79629902  0.79465126  0.75044785  1
  Hf  Hf23  1  0.29406743  0.70741075  0.62316660  1
  Hf  Hf24  1  0.30118989  0.30228818  0.36772285  1
  Hf  Hf25  1  0.30533417  0.11864783  0.62860168  1
  Hf  Hf26  1  0.89953025  0.50398335  0.86859599  1
  Hf  Hf27  1  0.81120301  0.18904832  0.00253420  1
  Hf  Hf28  1  0.70719708  0.48899080  0.12981869  1
  Hf  Hf29  1  0.09892345  0.90902727  0.87809898  1
  Hf  Hf30  1  0.00615780  0.20722210  0.01575675  1
  Hf  Hf31  1  0.68993145  0.89825486  0.61019392  1
  Hf  Hf32  1  0.48546820  0.49905761  0.60938688  1
  Hf  Hf33  1  0.70356217  0.89244392  0.12535283  1
  Hf  Hf34  1  0.77982044  0.39737809  -0.01396617  1
  Hf  Hf35  1  -0.00297024  0.80594056  0.74488719  1
  Hf  Hf36  1  0.51985041  0.33570375  0.86620034  1
  Hf  Hf37  1  0.41069664  0.41507529  0.00705999  1
  Hf  Hf38  1  0.51139889  0.09091991  0.64581803  1
  Hf  Hf39  1  0.19564622  0.41039897  0.00980668  1
  Zr  Zr40  1  0.39967797  -0.01309496  0.75070926  1
  Zr  Zr41  1  0.59754517  0.58822304  0.25570999  1
  Zr  Zr42  1  0.39011837  0.80220263  0.02620240  1
  Zr  Zr43  1  0.41662653  0.00523432  0.50702132  1
  Zr  Zr44  1  0.90505035  0.30405923  0.37424437  1
  Zr  Zr45  1  0.30432037  0.70843285  0.87703073  1
  Zr  Zr46  1  0.70019383  0.68854516  0.13240868  1
  Zr  Zr47  1  0.90719876  0.09585955  0.37273847  1
  Zr  Zr48  1  0.10581566  0.31322496  0.38127952  1
  Zr  Zr49  1  0.61159475  0.21186795  -0.01525905  1
  Zr  Zr50  1  0.18654522  0.39935604  0.23804651  1
  Zr  Zr51  1  0.51479317  0.11062537  0.11923354  1
  Zr  Zr52  1  -0.00812380  0.41392504  0.00876871  1
  Zr  Zr53  1  0.91086833  0.29043561  0.86622650  1
  Zr  Zr54  1  0.58332407  0.78621221  0.00678795  1
  Zr  Zr55  1  0.01805827  0.21466640  0.23538309  1
  Zr  Zr56  1  0.71743795  0.08523458  0.87311100  1
  Zr  Zr57  1  0.69663838  0.09945769  0.36880454  1
  Zr  Zr58  1  0.79383027  0.78215188  -0.00998503  1
  Zr  Zr59  1  0.68814071  0.49909115  0.60535329  1
  Zr  Zr60  1  0.40717125  0.60988582  0.02372313  1
  Zr  Zr61  1  0.31580262  0.09924480  0.37696638  1
  Zr  Zr62  1  0.18272784  0.81682199  0.25170509  1
  Zr  Zr63  1  0.00991278  0.20617017  0.51090951  1
  Zr  Zr64  1  0.69777436  0.90183714  0.38965475  1
  Zr  Zr65  1  0.81249741  -0.01809551  0.25677183  1
  Zr  Zr66  1  0.19082333  0.59746586  0.50243278  1
  Zr  Zr67  1  0.90866238  0.88122719  0.12023902  1
  Zr  Zr68  1  0.59361762  0.58584793  0.75742589  1
  Zr  Zr69  1  0.89526911  0.89465234  0.60104828  1
  Zr  Zr70  1  0.89140973  0.50435537  0.61649471  1
  Zr  Zr71  1  0.10539134  0.70204896  0.87576802  1
  Zr  Zr72  1  0.09505393  0.11349381  0.86219593  1
  Zr  Zr73  1  0.50871350  0.08316542  0.87041006  1
  Zr  Zr74  1  0.69362312  0.69599702  0.60640406  1
  Zr  Zr75  1  0.90351558  0.08851039  0.13564642  1
  Zr  Zr76  1  0.11061222  0.31156855  0.85857709  1
  Zr  Zr77  1  0.78335955  0.39643678  0.75028285  1
  Zr  Zr78  1  0.80252026  0.19597574  0.50439344  1
  Zr  Zr79  1  0.00025848  0.60676741  0.73745157  1
  Ta  Ta80  1  0.01744724  0.40988210  0.52177117  1
  Ta  Ta81  1  0.40005984  0.21169705  0.76526684  1
  Ta  Ta82  1  0.59742940  0.38715315  0.26494697  1
  Ta  Ta83  1  0.80314249  -0.00933095  0.74375891  1
  Ta  Ta84  1  0.89433310  0.69983475  0.59659558  1
  Ta  Ta85  1  0.91080712  0.50330112  0.39553458  1
  Ta  Ta86  1  -0.01710972  0.42296986  0.24339012  1
  Ta  Ta87  1  0.70088936  0.29486406  0.62023710  1
  Ta  Ta88  1  0.39306243  0.60181307  0.24881025  1
  Ta  Ta89  1  0.38299108  0.80602932  0.48956728  1
  Ta  Ta90  1  0.39822423  -0.00363060  0.23358749  1
  Ta  Ta91  1  0.00531425  0.00185781  0.00341191  1
  Ta  Ta92  1  -0.00578543  -0.00099804  0.73899331  1
  Ta  Ta93  1  0.40891722  0.41014540  0.24603434  1
  Ta  Ta94  1  0.28035183  0.69970361  0.14525337  1
  Ta  Ta95  1  0.79727157  0.40102383  0.26162926  1
  Ta  Ta96  1  0.48914975  0.70511941  0.36059937  1
  Ta  Ta97  1  0.81520657  0.59009039  0.26772165  1
  Ta  Ta98  1  0.57232228  0.79631092  0.49626356  1
  Ta  Ta99  1  0.39250238  0.60234660  0.74461162  1
  Ta  Ta100  1  0.28907722  0.70907320  0.36120998  1
  Ta  Ta101  1  0.10466818  0.89308620  0.60649234  1
  Ta  Ta102  1  0.29152423  0.50346073  0.36298344  1
  Ta  Ta103  1  0.82009988  0.19243373  0.73782292  1
  Ta  Ta104  1  0.70598753  0.08815218  0.62780002  1
  Ta  Ta105  1  -0.00027644  0.39916287  0.73112189  1
  Ta  Ta106  1  0.90956114  0.08919261  0.87189614  1
  Ta  Ta107  1  0.48974796  0.49399584  0.38414478  1
  Ta  Ta108  1  0.01909531  -0.01571265  0.26039241  1
  Ta  Ta109  1  0.80077001  0.78345619  0.26652425  1
  Ta  Ta110  1  0.58943921  0.38441581  0.49288520  1
  Ta  Ta111  1  0.49549513  0.29012919  0.37661618  1
  Ta  Ta112  1  0.59786414  -0.00547454  0.23904469  1
  Ta  Ta113  1  0.90630985  0.09353855  0.61879964  1
  Ta  Ta114  1  0.79241367  0.60469053  0.75427715  1
  Ta  Ta115  1  0.29201998  0.89875663  0.88111307  1
  Ta  Ta116  1  0.00798134  0.00041687  0.49490628  1
  Ta  Ta117  1  0.89498382  0.90539105  0.88228337  1
  Ta  Ta118  1  -0.01449594  0.80088818  0.27273406  1
  Ta  Ta119  1  0.19366319  0.61724135  0.01021679  1
  Ti  Ti120  1  0.09712187  0.50787809  0.87222775  1
  Ti  Ti121  1  0.31253925  0.31437549  0.62902705  1
  Ti  Ti122  1  0.50802250  0.09823009  0.36437124  1
  Ti  Ti123  1  0.59365719  0.79371012  0.74977769  1
  Ti  Ti124  1  0.30139763  0.31097238  0.87190377  1
  Ti  Ti125  1  0.21290256  -0.00460060  0.50046419  1
  Ti  Ti126  1  0.90072416  0.69687582  0.87848442  1
  Ti  Ti127  1  0.11119433  0.08939397  0.13137107  1
  Ti  Ti128  1  0.19487438  0.82045997  0.01943647  1
  Ti  Ti129  1  0.80788163  0.38699989  0.50353429  1
  Ti  Ti130  1  0.19697405  0.60258273  0.73778434  1
  Ti  Ti131  1  0.69683783  0.29082561  0.37561927  1
  Ti  Ti132  1  0.89206534  0.31610236  0.13116724  1
  Ti  Ti133  1  0.49407918  0.70151325  0.62179544  1
  Ti  Ti134  1  0.50985514  0.31514060  0.12506513  1
  Ti  Ti135  1  0.40225772  0.41605063  0.75301301  1
  Ti  Ti136  1  0.09292715  0.69862942  0.38561397  1
  Ti  Ti137  1  0.09812363  0.50353655  0.37315180  1
  Ti  Ti138  1  0.00559352  0.79473055  -0.00460590  1
  Ti  Ti139  1  0.08811674  0.71839524  0.12983552  1
  Ti  Ti140  1  0.49888148  0.88905977  0.62820151  1
  Ti  Ti141  1  0.20938470  0.00326010  0.25229254  1
  Ti  Ti142  1  -0.00219220  0.61233565  0.26458046  1
  Ti  Ti143  1  0.80164289  0.20098086  0.25096697  1
  Ti  Ti144  1  0.09041285  0.70751122  0.61079891  1
  Ti  Ti145  1  0.19782810  0.80179487  0.74567003  1
  Ti  Ti146  1  0.29965075  0.89878834  0.62110617  1
  Ti  Ti147  1  0.29564020  0.50928121  0.13619767  1
  Ti  Ti148  1  0.21601273  0.40747898  0.50969157  1
  Ti  Ti149  1  0.39640558  0.79641215  0.74992770  1
  Ti  Ti150  1  0.10687439  0.09407016  0.62254656  1
  Ti  Ti151  1  0.39396648  0.80984001  0.23693938  1
  Ti  Ti152  1  0.20921325  0.41592882  0.74336480  1
  Ti  Ti153  1  0.70869224  0.09136772  0.12649063  1
  Ti  Ti154  1  0.29695900  0.09792734  0.12340651  1
  Ti  Ti155  1  0.11068095  0.89799381  0.39320756  1
  Ti  Ti156  1  0.50044416  0.69788979  0.87208468  1
  Ti  Ti157  1  0.60457737  -0.00788533  0.00906683  1
  Ti  Ti158  1  0.21639418  0.20729560  0.50291964  1
  Ti  Ti159  1  0.48914142  0.88961735  0.87529943  1
  Mo  Mo160  1  0.89821789  0.69614242  0.39116929  1
  Mo  Mo161  1  0.59317085  -0.00431303  0.50301396  1
  Mo  Mo162  1  0.09692141  0.30847730  0.12406997  1
  Mo  Mo163  1  0.19612366  0.00269520  0.00351384  1
  Mo  Mo164  1  0.00536493  0.79725140  0.48539343  1
  Mo  Mo165  1  0.49544687  0.70300572  0.15641631  1
  Mo  Mo166  1  0.80374596  0.59079127  -0.01940230  1
  Mo  Mo167  1  0.38983487  0.39506346  0.49327953  1
  Mo  Mo168  1  0.20268300  0.80271068  0.49335697  1
  Mo  Mo169  1  0.40228305  0.21510435  0.50265015  1
  Mo  Mo170  1  0.80205152  0.00442896  0.50223757  1
  Mo  Mo171  1  0.20620340  0.19025780  0.23910708  1
  Mo  Mo172  1  0.58006352  0.60136594  0.48845058  1
  Mo  Mo173  1  0.61043632  -0.02023916  0.74870698  1
  Mo  Mo174  1  0.59421371  0.39966999  0.73317390  1
  Mo  Mo175  1  0.60558085  0.19871816  0.25186141  1
  Mo  Mo176  1  0.18913977  0.60670686  0.25908131  1
  Mo  Mo177  1  0.68626116  0.48633078  0.86527307  1
  Mo  Mo178  1  0.79775079  0.59499493  0.48828034  1
  Mo  Mo179  1  0.71038339  0.29465584  0.86620479  1
  Mo  Mo180  1  0.48364072  0.51183021  0.87109738  1
  Mo  Mo181  1  0.59628531  0.39804489  0.00523820  1
  Mo  Mo182  1  0.10817898  0.49964898  0.63175137  1
  Mo  Mo183  1  0.00398809  0.19067070  0.73304657  1
  Mo  Mo184  1  0.88733437  0.50224119  0.12818519  1
  Mo  Mo185  1  0.00380744  0.59725616  0.50327665  1
  Mo  Mo186  1  0.00346869  0.60661638  -0.00807818  1
  Mo  Mo187  1  0.21792410  0.20854236  0.74846645  1
  Mo  Mo188  1  0.79598446  0.79804839  0.48647250  1
  Mo  Mo189  1  0.50487123  0.90175822  0.13509673  1
  Mo  Mo190  1  0.08804913  0.90667993  0.12536804  1
  Mo  Mo191  1  0.50500221  0.49800867  0.13713352  1
  Mo  Mo192  1  0.90451593  0.29912651  0.62772695  1
  Mo  Mo193  1  0.90709938  0.89692803  0.39187792  1
  Mo  Mo194  1  0.59687977  0.80047317  0.25008380  1
  Mo  Mo195  1  0.29972576  0.90168216  0.37105801  1
  Mo  Mo196  1  0.28696224  0.90918814  0.12996629  1
  Mo  Mo197  1  0.29888736  0.50045070  0.63066296  1
  Mo  Mo198  1  0.70501124  0.68843642  0.86902529  1
  Mo  Mo199  1  0.80362173  -0.00524902  -0.00032727  1
