# generated using pymatgen
data_HfZrTaTiMo
_symmetry_space_group_name_H-M   'P 1'
_cell_length_a   15.22256210
_cell_length_b   15.21454368
_cell_length_c   16.84110821
_cell_angle_alpha   89.98798001
_cell_angle_beta   90.05635602
_cell_angle_gamma   90.02110637
_symmetry_Int_Tables_number   1
_chemical_formula_structural   HfZrTaTiMo
_chemical_formula_sum   'Hf40 Zr40 Ta40 Ti40 Mo40'
_cell_volume   3900.47144536
_cell_formula_units_Z   40
loop_
 _symmetry_equiv_pos_site_id
 _symmetry_equiv_pos_as_xyz
  1  'x, y, z'
loop_
 _atom_site_type_symbol
 _atom_site_label
 _atom_site_symmetry_multiplicity
 _atom_site_fract_x
 _atom_site_fract_y
 _atom_site_fract_z
 _atom_site_occupancy
  Hf  Hf0  1  0.89070130  0.68727756  0.88973289  1
  Hf  Hf1  1  0.81558709  0.00027251  0.24511036  1
  Hf  Hf2  1  0.39816104  0.41104149  0.25659662  1
  Hf  Hf3  1  0.69956859  0.51102296  0.62564653  1
  Hf  Hf4  1  0.90091360  0.70686418  0.35635979  1
  Hf  Hf5  1  0.69486823  0.30242397  0.60660167  1
  Hf  Hf6  1  0.90822185  0.52172181  0.62799152  1
  Hf  Hf7  1  0.40441937  -0.01588846  0.25362254  1
  Hf  Hf8  1  0.79781970  0.62051221  0.49798317  1
  Hf  Hf9  1  0.70356777  0.10388974  0.12231887  1
  Hf  Hf10  1  -0.01602937  0.81133283  0.51403670  1
  Hf  Hf11  1  0.89050348  0.71703006  0.12432037  1
  Hf  Hf12  1  0.92268606  0.08968155  0.62518018  1
  Hf  Hf13  1  0.00095423  0.80952824  -0.00717834  1
  Hf  Hf14  1  0.60871754  0.00114942  0.25595431  1
  Hf  Hf15  1  0.00700172  0.19210923  0.25993299  1
  Hf  Hf16  1  0.49144472  0.49989249  0.62748649  1
  Hf  Hf17  1  0.80314349  0.41268831  0.49729776  1
  Hf  Hf18  1  0.41756822  -0.00628242  0.73207504  1
  Hf  Hf19  1  0.69615968  0.30862872  0.38426632  1
  Hf  Hf20  1  0.19312907  0.59404326  0.49567723  1
  Hf  Hf21  1  0.10452052  0.49196779  0.11669953  1
  Hf  Hf22  1  0.31092102  0.10169745  0.38944460  1
  Hf  Hf23  1  0.81974833  0.00553763  -0.01352750  1
  Hf  Hf24  1  0.39868580  0.40594682  -0.00579627  1
  Hf  Hf25  1  0.80201347  0.20516561  -0.00537647  1
  Hf  Hf26  1  0.20007096  0.78964465  0.75228594  1
  Hf  Hf27  1  0.39041161  0.59053712  0.50451721  1
  Hf  Hf28  1  0.37849284  0.39097914  0.49282354  1
  Hf  Hf29  1  0.89156212  0.50256159  0.36581654  1
  Hf  Hf30  1  0.21287033  0.78842196  -0.01619645  1
  Hf  Hf31  1  0.50042592  0.50436506  0.87401784  1
  Hf  Hf32  1  0.50098969  0.29525829  0.38711978  1
  Hf  Hf33  1  0.32363370  0.89538852  0.87127520  1
  Hf  Hf34  1  0.07989005  0.49226937  0.89169732  1
  Hf  Hf35  1  0.50304632  0.10570512  0.12138280  1
  Hf  Hf36  1  0.40572587  0.78517488  0.73386084  1
  Hf  Hf37  1  0.71601044  0.89205830  0.11035758  1
  Hf  Hf38  1  0.60878698  0.18166039  0.74695405  1
  Hf  Hf39  1  0.78057714  0.79005488  0.76012309  1
  Zr  Zr40  1  0.29430553  0.88841403  0.38702275  1
  Zr  Zr41  1  0.10161631  0.71596769  0.37518037  1
  Zr  Zr42  1  0.20709344  0.79738771  0.24593711  1
  Zr  Zr43  1  0.80662044  0.21227130  0.24735884  1
  Zr  Zr44  1  0.50350210  0.29258555  0.87321918  1
  Zr  Zr45  1  0.79785677  0.39905288  0.01761765  1
  Zr  Zr46  1  0.20373167  0.38848853  -0.01100309  1
  Zr  Zr47  1  0.58668623  0.59764041  0.24829818  1
  Zr  Zr48  1  0.39536361  0.78654451  0.51717410  1
  Zr  Zr49  1  0.40157040  0.19665201  0.25185003  1
  Zr  Zr50  1  0.50539916  0.89321615  0.11035131  1
  Zr  Zr51  1  0.00230556  0.41710023  0.74202882  1
  Zr  Zr52  1  0.10221344  0.89937015  0.12400944  1
  Zr  Zr53  1  0.10408670  0.69118143  0.11179706  1
  Zr  Zr54  1  0.19302417  -0.00050404  0.51199291  1
  Zr  Zr55  1  0.01305005  0.20345223  0.50005205  1
  Zr  Zr56  1  0.03188059  0.21082846  0.75817825  1
  Zr  Zr57  1  0.08985319  0.29231630  0.12205644  1
  Zr  Zr58  1  0.59602926  0.62125689  0.75330401  1
  Zr  Zr59  1  0.00548085  0.60499614  0.24193080  1
  Zr  Zr60  1  0.51407938  0.09783511  0.39046466  1
  Zr  Zr61  1  0.60423568  0.39877314  0.74858966  1
  Zr  Zr62  1  0.49207044  0.71582738  0.89067772  1
  Zr  Zr63  1  0.49060933  0.29070711  0.61434717  1
  Zr  Zr64  1  0.67957536  0.69438494  0.11444842  1
  Zr  Zr65  1  0.39738188  0.19960931  0.00012424  1
  Zr  Zr66  1  0.50268454  0.08425490  0.87603486  1
  Zr  Zr67  1  0.10092462  0.09565102  0.11934095  1
  Zr  Zr68  1  0.20346933  0.00810651  0.25428479  1
  Zr  Zr69  1  0.78287135  0.01052644  0.76784290  1
  Zr  Zr70  1  0.69877046  0.71487287  0.36434240  1
  Zr  Zr71  1  0.90008572  0.30149680  0.62440431  1
  Zr  Zr72  1  0.01283563  0.40950096  0.50471135  1
  Zr  Zr73  1  0.71873847  0.10210082  0.60649028  1
  Zr  Zr74  1  0.81183761  0.20973238  0.76022624  1
  Zr  Zr75  1  0.90214163  0.89521708  0.86621353  1
  Zr  Zr76  1  0.08566807  0.91188080  0.64490064  1
  Zr  Zr77  1  0.72075366  0.10599062  0.38732384  1
  Zr  Zr78  1  0.29521552  0.29776703  0.13123325  1
  Zr  Zr79  1  0.88540907  0.89541796  0.37097879  1
  Ta  Ta80  1  0.19201463  0.38566913  0.76052629  1
  Ta  Ta81  1  0.10973244  0.90515946  0.86453314  1
  Ta  Ta82  1  0.00055007  0.19475600  -0.01895339  1
  Ta  Ta83  1  0.52157662  0.88611088  0.61513682  1
  Ta  Ta84  1  0.21109051  0.22072829  0.49129103  1
  Ta  Ta85  1  0.70326813  0.50458922  0.87849278  1
  Ta  Ta86  1  0.88976270  0.50000747  0.88351841  1
  Ta  Ta87  1  0.10782629  0.10188119  0.38036768  1
  Ta  Ta88  1  0.21127410  0.59114327  0.25356385  1
  Ta  Ta89  1  0.30536851  0.69235796  0.37299680  1
  Ta  Ta90  1  0.30047911  0.50715299  0.12423442  1
  Ta  Ta91  1  0.30155466  0.09345564  0.86953284  1
  Ta  Ta92  1  0.19427412  0.39442788  0.26190282  1
  Ta  Ta93  1  0.60503253  0.01028731  -0.00250419  1
  Ta  Ta94  1  0.49419241  0.70072323  0.37599028  1
  Ta  Ta95  1  0.08110480  0.91099457  0.37334956  1
  Ta  Ta96  1  0.40891826  -0.01029135  0.51292047  1
  Ta  Ta97  1  0.79001920  0.59350928  0.23451060  1
  Ta  Ta98  1  0.50067016  0.50471899  0.11462420  1
  Ta  Ta99  1  0.30743119  0.89732608  0.11333211  1
  Ta  Ta100  1  0.50090286  0.50000595  0.38397316  1
  Ta  Ta101  1  0.08961793  0.69332757  0.87496825  1
  Ta  Ta102  1  0.68494055  0.89664012  0.88936988  1
  Ta  Ta103  1  0.20517776  -0.00414834  -0.00979403  1
  Ta  Ta104  1  0.90519437  0.49824851  0.12470610  1
  Ta  Ta105  1  0.67875853  0.71821678  0.62233311  1
  Ta  Ta106  1  0.29912475  0.09144327  0.12108351  1
  Ta  Ta107  1  0.70433878  0.30764078  0.87629825  1
  Ta  Ta108  1  0.50855020  0.30611327  0.12606900  1
  Ta  Ta109  1  0.18422562  0.58305325  0.76119707  1
  Ta  Ta110  1  0.09411103  0.50352898  0.36565614  1
  Ta  Ta111  1  0.28161533  0.67578817  0.63455883  1
  Ta  Ta112  1  0.91042833  0.31716220  0.87454651  1
  Ta  Ta113  1  0.38613625  0.39408987  0.75338482  1
  Ta  Ta114  1  0.61879396  -0.02065977  0.49267225  1
  Ta  Ta115  1  0.59324203  0.60773833  0.49981509  1
  Ta  Ta116  1  -0.01005187  0.39225842  0.25118073  1
  Ta  Ta117  1  0.08226084  0.68588988  0.63388902  1
  Ta  Ta118  1  0.51805546  0.09127217  0.60807516  1
  Ta  Ta119  1  -0.00251210  0.60915893  0.49506194  1
  Ti  Ti120  1  0.59665340  0.80605340  0.24870806  1
  Ti  Ti121  1  0.29686899  0.28876720  0.86600862  1
  Ti  Ti122  1  0.82096204  -0.00785587  0.50319534  1
  Ti  Ti123  1  0.48662647  0.69689963  0.10458403  1
  Ti  Ti124  1  0.89002570  0.90182883  0.64489335  1
  Ti  Ti125  1  0.12159634  0.12331742  0.62558384  1
  Ti  Ti126  1  0.77713890  0.81435855  0.50502105  1
  Ti  Ti127  1  0.31249592  0.10529940  0.61725526  1
  Ti  Ti128  1  0.91399969  0.91217747  0.12230465  1
  Ti  Ti129  1  0.40505402  0.79062902  0.24627858  1
  Ti  Ti130  1  0.90128999  0.29528906  0.38388897  1
  Ti  Ti131  1  0.70174724  0.90730006  0.63219399  1
  Ti  Ti132  1  0.20647732  0.01355396  0.74679377  1
  Ti  Ti133  1  0.38513467  0.60239709  -0.00939335  1
  Ti  Ti134  1  0.91903697  0.08911153  0.38678905  1
  Ti  Ti135  1  0.60049069  0.39954457  0.24769696  1
  Ti  Ti136  1  0.50408155  0.88815246  0.38404948  1
  Ti  Ti137  1  0.29483675  0.89656029  0.62808660  1
  Ti  Ti138  1  0.30322364  0.69584367  0.12246752  1
  Ti  Ti139  1  0.59018548  0.82048617  0.75863614  1
  Ti  Ti140  1  0.69278020  0.69647201  0.90271524  1
  Ti  Ti141  1  0.40016259  0.19310336  0.74512549  1
  Ti  Ti142  1  0.00153195  0.01663139  0.77294090  1
  Ti  Ti143  1  0.28943619  0.29072694  0.63128695  1
  Ti  Ti144  1  0.19496078  0.40285654  0.48073800  1
  Ti  Ti145  1  0.68986425  0.29700397  0.12947641  1
  Ti  Ti146  1  0.79138913  0.59280277  0.01606146  1
  Ti  Ti147  1  0.18727133  0.79295421  0.51764243  1
  Ti  Ti148  1  0.80016919  0.59595655  0.75455511  1
  Ti  Ti149  1  0.20598396  0.59254153  -0.01777599  1
  Ti  Ti150  1  -0.00633726  0.78953199  0.75409229  1
  Ti  Ti151  1  0.69132850  0.50532230  0.37470432  1
  Ti  Ti152  1  0.19801258  0.18975078  -0.01095334  1
  Ti  Ti153  1  0.60399091  0.39891371  0.00218677  1
  Ti  Ti154  1  0.79476924  0.40369529  0.23885107  1
  Ti  Ti155  1  0.39821656  0.60252339  0.24871496  1
  Ti  Ti156  1  0.88377795  0.71005781  0.63226707  1
  Ti  Ti157  1  0.91365693  0.10620806  0.11885914  1
  Ti  Ti158  1  0.27863710  0.48223597  0.63235491  1
  Ti  Ti159  1  0.38272408  0.59236757  0.75462137  1
  Mo  Mo160  1  0.90642869  0.11059441  0.87244129  1
  Mo  Mo161  1  0.79478278  0.40952803  0.75688320  1
  Mo  Mo162  1  0.12307371  0.31460567  0.62158258  1
  Mo  Mo163  1  0.79777796  0.80094679  -0.00748264  1
  Mo  Mo164  1  0.00071352  0.00065300  0.25133555  1
  Mo  Mo165  1  0.10355310  0.29535239  0.88196747  1
  Mo  Mo166  1  0.01309486  0.00492050  -0.01872622  1
  Mo  Mo167  1  0.59224044  0.58520429  -0.00062877  1
  Mo  Mo168  1  0.69343690  0.90376749  0.36883296  1
  Mo  Mo169  1  0.00476711  -0.00114311  0.50584348  1
  Mo  Mo170  1  0.60199743  0.21295016  0.24512973  1
  Mo  Mo171  1  0.29764070  0.50386270  0.36819225  1
  Mo  Mo172  1  0.11450671  0.09530668  0.87563258  1
  Mo  Mo173  1  0.39161804  0.79413565  0.00318045  1
  Mo  Mo174  1  -0.00971965  0.59391191  0.00921996  1
  Mo  Mo175  1  0.59798361  0.80035134  -0.00073177  1
  Mo  Mo176  1  0.60754647  0.21002870  -0.00115143  1
  Mo  Mo177  1  -0.00849169  0.61159414  0.75573527  1
  Mo  Mo178  1  0.60526145  0.19840886  0.50307571  1
  Mo  Mo179  1  0.29755292  0.49329589  0.86550137  1
  Mo  Mo180  1  0.39374561  0.00148179  0.00315667  1
  Mo  Mo181  1  0.69011175  0.48946919  0.13064798  1
  Mo  Mo182  1  0.20572160  0.20196077  0.26435693  1
  Mo  Mo183  1  0.60451167  -0.00747102  0.74562040  1
  Mo  Mo184  1  0.09624511  0.30378087  0.36836627  1
  Mo  Mo185  1  0.29373050  0.68574286  0.86195974  1
  Mo  Mo186  1  0.69564419  0.10839301  0.88581375  1
  Mo  Mo187  1  0.50106494  0.90389282  0.88400293  1
  Mo  Mo188  1  0.22200782  0.19781918  0.75029897  1
  Mo  Mo189  1  -0.01090648  0.39032006  0.00509120  1
  Mo  Mo190  1  0.59955532  0.79488990  0.49597635  1
  Mo  Mo191  1  0.11271956  0.51176728  0.62527946  1
  Mo  Mo192  1  0.59331024  0.41645893  0.49716049  1
  Mo  Mo193  1  0.49594240  0.69033284  0.62886435  1
  Mo  Mo194  1  0.79074390  0.80070303  0.24073484  1
  Mo  Mo195  1  0.90156764  0.29457206  0.12913033  1
  Mo  Mo196  1  0.29532991  0.29797784  0.36747119  1
  Mo  Mo197  1  0.39632960  0.19313767  0.50901794  1
  Mo  Mo198  1  0.81506709  0.20294374  0.49283907  1
  Mo  Mo199  1  -0.00602809  0.81949986  0.24263195  1
