# generated using pymatgen
data_HfZrTaTiMo
_symmetry_space_group_name_H-M   'P 1'
_cell_length_a   15.21110167
_cell_length_b   15.21358211
_cell_length_c   16.83911960
_cell_angle_alpha   90.09096538
_cell_angle_beta   89.94840428
_cell_angle_gamma   89.83623341
_symmetry_Int_Tables_number   1
_chemical_formula_structural   HfZrTaTiMo
_chemical_formula_sum   'Hf40 Zr40 Ta40 Ti40 Mo40'
_cell_volume   3896.80823335
_cell_formula_units_Z   40
loop_
 _symmetry_equiv_pos_site_id
 _symmetry_equiv_pos_as_xyz
  1  'x, y, z'
loop_
 _atom_site_type_symbol
 _atom_site_label
 _atom_site_symmetry_multiplicity
 _atom_site_fract_x
 _atom_site_fract_y
 _atom_site_fract_z
 _atom_site_occupancy
  Hf  Hf0  1  0.41279573  0.79462288  0.00615626  1
  Hf  Hf1  1  0.40307357  0.60159806  0.74246202  1
  Hf  Hf2  1  0.31559057  0.07639626  0.63627534  1
  Hf  Hf3  1  0.18813095  0.20082477  0.01322809  1
  Hf  Hf4  1  0.81109881  0.40071164  0.01089122  1
  Hf  Hf5  1  0.39660478  0.20103543  -0.00610763  1
  Hf  Hf6  1  0.80282700  0.21687301  0.49791415  1
  Hf  Hf7  1  0.80450786  0.39090561  0.74924985  1
  Hf  Hf8  1  0.50036475  0.91315417  0.13959922  1
  Hf  Hf9  1  0.39859245  0.41359881  0.00257383  1
  Hf  Hf10  1  0.59672263  0.60016431  0.24092869  1
  Hf  Hf11  1  0.01132828  0.81277321  0.48596142  1
  Hf  Hf12  1  0.31237630  0.90549048  0.35973926  1
  Hf  Hf13  1  0.09216566  0.70055940  0.62257895  1
  Hf  Hf14  1  0.18657964  0.40889561  0.26009758  1
  Hf  Hf15  1  0.89539485  0.09078977  0.12696861  1
  Hf  Hf16  1  0.71377252  0.90534096  0.12708101  1
  Hf  Hf17  1  -0.02036579  0.39373913  0.49703019  1
  Hf  Hf18  1  0.29475833  0.50131227  0.61512693  1
  Hf  Hf19  1  0.80519806  -0.00710261  -0.01240545  1
  Hf  Hf20  1  0.00909434  0.19616503  0.23510393  1
  Hf  Hf21  1  0.70042013  0.30666187  0.36855101  1
  Hf  Hf22  1  0.09257968  0.29317175  0.38096110  1
  Hf  Hf23  1  0.80880616  0.79115934  0.75101325  1
  Hf  Hf24  1  0.58467396  0.00315613  0.49636230  1
  Hf  Hf25  1  0.19952860  0.60415299  0.26877935  1
  Hf  Hf26  1  0.21147766  0.80683933  -0.00287108  1
  Hf  Hf27  1  0.89372083  0.10571873  0.63603419  1
  Hf  Hf28  1  0.11481059  0.68960380  0.11790114  1
  Hf  Hf29  1  0.60591920  0.80122052  0.24722829  1
  Hf  Hf30  1  0.80749109  0.80048724  0.24916083  1
  Hf  Hf31  1  0.29180719  0.30579790  0.87539016  1
  Hf  Hf32  1  0.70190364  0.70196655  0.38563874  1
  Hf  Hf33  1  0.57733133  0.58821034  0.02544807  1
  Hf  Hf34  1  0.20525519  0.59167572  0.47633571  1
  Hf  Hf35  1  0.58945743  0.80284930  0.50893435  1
  Hf  Hf36  1  0.68508132  0.10396322  0.12172454  1
  Hf  Hf37  1  0.70481481  0.29720384  0.88178415  1
  Hf  Hf38  1  0.80292660  0.59478568  0.24805423  1
  Hf  Hf39  1  0.30537677  0.90274305  0.13777231  1
  Zr  Zr40  1  0.91172070  0.69243194  0.12412238  1
  Zr  Zr41  1  0.61154318  0.78239144  0.01724938  1
  Zr  Zr42  1  0.59389712  0.40164824  0.74125699  1
  Zr  Zr43  1  0.40046372  0.39714760  0.75231062  1
  Zr  Zr44  1  0.49264566  0.29685966  0.12461297  1
  Zr  Zr45  1  0.79311732  0.60175386  0.74999434  1
  Zr  Zr46  1  0.79989348  0.58273534  0.49162941  1
  Zr  Zr47  1  0.31468251  0.69885147  0.86879145  1
  Zr  Zr48  1  0.09784132  0.08363108  0.62868049  1
  Zr  Zr49  1  0.20301468  -0.02356308  0.49697912  1
  Zr  Zr50  1  0.59578651  0.39609382  0.50438681  1
  Zr  Zr51  1  0.20095927  0.20728334  0.74562126  1
  Zr  Zr52  1  0.79018424  0.60371634  0.01206343  1
  Zr  Zr53  1  0.21192167  0.18170594  0.49962182  1
  Zr  Zr54  1  0.01160305  0.79061012  0.25904827  1
  Zr  Zr55  1  0.90175384  0.50089631  0.62373949  1
  Zr  Zr56  1  0.58989610  -0.00647312  -0.00414388  1
  Zr  Zr57  1  0.70501177  0.90308659  0.62416266  1
  Zr  Zr58  1  0.49330899  0.89256730  0.86285213  1
  Zr  Zr59  1  0.00262643  0.60641315  0.75092524  1
  Zr  Zr60  1  0.31395994  0.30158447  0.61423888  1
  Zr  Zr61  1  0.91788533  0.89890611  0.62477936  1
  Zr  Zr62  1  0.00104565  0.80619067  -0.01091571  1
  Zr  Zr63  1  0.10177359  0.30271942  0.61176929  1
  Zr  Zr64  1  0.39435504  0.81865274  0.50757970  1
  Zr  Zr65  1  0.10290483  0.48913738  0.88211486  1
  Zr  Zr66  1  0.89700781  0.11555677  0.87503167  1
  Zr  Zr67  1  0.79413579  0.00555171  0.75958000  1
  Zr  Zr68  1  0.28925925  0.70484632  0.62402244  1
  Zr  Zr69  1  0.01185615  0.00772925  -0.00895211  1
  Zr  Zr70  1  0.60779412  0.20139385  0.74266554  1
  Zr  Zr71  1  0.10806175  0.68955116  0.88173199  1
  Zr  Zr72  1  0.30909724  0.10018047  0.12932491  1
  Zr  Zr73  1  0.69060391  0.50720833  0.88100813  1
  Zr  Zr74  1  0.28984514  0.50400157  0.12605741  1
  Zr  Zr75  1  0.58168190  0.19554133  0.25501484  1
  Zr  Zr76  1  0.89911876  0.10685855  0.36490593  1
  Zr  Zr77  1  0.69289504  0.88407354  0.86648158  1
  Zr  Zr78  1  0.80560192  0.00614055  0.49833296  1
  Zr  Zr79  1  0.20892411  0.20853955  0.24126716  1
  Ta  Ta80  1  0.79379886  0.20584101  0.01376172  1
  Ta  Ta81  1  0.20421405  0.00167753  -0.00582715  1
  Ta  Ta82  1  -0.00461315  0.18557085  0.50087104  1
  Ta  Ta83  1  0.70131445  0.69612907  0.60981331  1
  Ta  Ta84  1  0.58842163  0.59733407  0.49948933  1
  Ta  Ta85  1  0.59475367  0.78966199  0.72860299  1
  Ta  Ta86  1  0.49995107  0.70585440  0.37478581  1
  Ta  Ta87  1  0.59831833  0.19878824  0.50186122  1
  Ta  Ta88  1  0.00577094  0.59966412  0.48429056  1
  Ta  Ta89  1  0.10422722  0.50224407  0.61360760  1
  Ta  Ta90  1  0.29483474  0.90484971  0.85577147  1
  Ta  Ta91  1  0.00228739  -0.00793359  0.24817696  1
  Ta  Ta92  1  0.20423391  0.80081454  0.25583354  1
  Ta  Ta93  1  0.78933314  0.20503739  0.23958576  1
  Ta  Ta94  1  0.90069979  0.90415981  0.37791837  1
  Ta  Ta95  1  0.41450046  0.19584203  0.74973530  1
  Ta  Ta96  1  0.09869474  0.08767197  0.37800714  1
  Ta  Ta97  1  0.90894713  0.30652533  0.88131835  1
  Ta  Ta98  1  0.30133895  0.30094154  0.38562392  1
  Ta  Ta99  1  0.49224318  0.50571290  0.87751747  1
  Ta  Ta100  1  0.19633374  0.41434467  0.74692416  1
  Ta  Ta101  1  0.31314174  0.69707311  0.13036013  1
  Ta  Ta102  1  0.80411400  0.79715947  -0.00529718  1
  Ta  Ta103  1  0.39134115  0.39309477  0.25258299  1
  Ta  Ta104  1  0.90430243  0.49526061  0.87670300  1
  Ta  Ta105  1  0.19519117  0.00547711  0.25490683  1
  Ta  Ta106  1  0.49930977  0.10239756  0.87586579  1
  Ta  Ta107  1  0.69617513  0.49976958  0.62077193  1
  Ta  Ta108  1  0.59554601  0.60416253  0.73821268  1
  Ta  Ta109  1  0.00746995  -0.01063460  0.76965699  1
  Ta  Ta110  1  -0.00654165  0.21321466  0.01622806  1
  Ta  Ta111  1  -0.00605843  0.20786208  0.74949522  1
  Ta  Ta112  1  0.70039732  0.90287389  0.37802354  1
  Ta  Ta113  1  0.69025955  0.10631280  0.88430920  1
  Ta  Ta114  1  0.90149555  0.69926834  0.38101245  1
  Ta  Ta115  1  0.30040569  0.09814861  0.86699444  1
  Ta  Ta116  1  0.40559288  0.58920747  0.26063592  1
  Ta  Ta117  1  0.00523985  0.39569984  0.74467361  1
  Ta  Ta118  1  0.10618809  0.90561561  0.12816237  1
  Ta  Ta119  1  0.69318448  0.10147000  0.37171002  1
  Ti  Ti120  1  0.60172828  0.38980812  0.01103387  1
  Ti  Ti121  1  0.89451649  0.30328102  0.35635557  1
  Ti  Ti122  1  0.11077656  0.89278734  0.63677245  1
  Ti  Ti123  1  0.41513754  0.20072789  0.49969661  1
  Ti  Ti124  1  0.31206144  0.70217629  0.37211286  1
  Ti  Ti125  1  0.10622299  0.10834574  0.87053037  1
  Ti  Ti126  1  0.89528616  0.70723474  0.60350472  1
  Ti  Ti127  1  0.19972398  0.79084141  0.48024027  1
  Ti  Ti128  1  0.40240188  0.80238397  0.73472697  1
  Ti  Ti129  1  0.90981478  0.89650386  0.12387704  1
  Ti  Ti130  1  0.58827145  0.00515093  0.74515859  1
  Ti  Ti131  1  0.39873845  0.01698446  0.48168413  1
  Ti  Ti132  1  0.89451497  0.69531080  0.88113993  1
  Ti  Ti133  1  0.89416728  0.48699290  0.36697788  1
  Ti  Ti134  1  0.69182219  0.49491641  0.37027716  1
  Ti  Ti135  1  0.39084960  -0.00513960  -0.00783015  1
  Ti  Ti136  1  0.71211741  0.29980442  0.62258674  1
  Ti  Ti137  1  0.29333294  0.51051531  0.87936221  1
  Ti  Ti138  1  0.79497131  0.00203690  0.25645674  1
  Ti  Ti139  1  0.70050936  0.48404235  0.13333990  1
  Ti  Ti140  1  0.01050684  0.58365944  0.26733457  1
  Ti  Ti141  1  0.49439802  0.30627911  0.37255150  1
  Ti  Ti142  1  0.18429332  0.79582610  0.75867551  1
  Ti  Ti143  1  0.40693006  0.60719298  0.49159154  1
  Ti  Ti144  1  0.51957547  0.69301784  0.87317870  1
  Ti  Ti145  1  0.40876580  0.79149059  0.25031542  1
  Ti  Ti146  1  0.89071646  0.30628497  0.13952757  1
  Ti  Ti147  1  0.69482854  0.10265268  0.62318227  1
  Ti  Ti148  1  0.09307040  0.29964161  0.87987312  1
  Ti  Ti149  1  0.49504021  0.10033076  0.11930890  1
  Ti  Ti150  1  0.00157230  0.58148334  0.00214163  1
  Ti  Ti151  1  0.91994228  0.48845977  0.13775316  1
  Ti  Ti152  1  0.08883811  0.32685940  0.12811086  1
  Ti  Ti153  1  0.18985332  0.40417248  0.01038814  1
  Ti  Ti154  1  0.49432882  0.49923278  0.61771368  1
  Ti  Ti155  1  0.47879183  0.92201205  0.63237991  1
  Ti  Ti156  1  0.59067367  0.40426877  0.24578127  1
  Ti  Ti157  1  0.50626130  0.30148360  0.88199140  1
  Ti  Ti158  1  0.41648830  0.02508277  0.26686602  1
  Ti  Ti159  1  0.39897821  0.41262006  0.48767818  1
  Mo  Mo160  1  0.50660391  0.90395531  0.36374235  1
  Mo  Mo161  1  0.40652058  0.00385253  0.75712233  1
  Mo  Mo162  1  0.10966629  0.90438419  0.87238956  1
  Mo  Mo163  1  0.79258323  0.40212927  0.24293124  1
  Mo  Mo164  1  0.49739337  0.11090874  0.38078027  1
  Mo  Mo165  1  0.21463430  0.59751101  0.00354181  1
  Mo  Mo166  1  0.09026496  0.50889636  0.12514627  1
  Mo  Mo167  1  0.10397994  0.90306652  0.36522042  1
  Mo  Mo168  1  0.50145694  0.29721600  0.61725067  1
  Mo  Mo169  1  0.19742864  0.39971242  0.48730551  1
  Mo  Mo170  1  0.60400727  0.00040858  0.26315054  1
  Mo  Mo171  1  0.50198444  0.50038714  0.37350685  1
  Mo  Mo172  1  0.19673565  -0.00020082  0.75857795  1
  Mo  Mo173  1  -0.00261598  0.80139095  0.76189372  1
  Mo  Mo174  1  0.79229848  0.39848056  0.49805705  1
  Mo  Mo175  1  0.80294785  0.79885758  0.49344651  1
  Mo  Mo176  1  0.59645629  0.20121053  -0.00342117  1
  Mo  Mo177  1  0.29128470  0.30891579  0.11905696  1
  Mo  Mo178  1  0.09831352  0.09032814  0.12514442  1
  Mo  Mo179  1  0.00590128  0.00465806  0.49938128  1
  Mo  Mo180  1  -0.00802819  0.40054358  0.25802565  1
  Mo  Mo181  1  0.49007271  0.69966548  0.13964732  1
  Mo  Mo182  1  0.28717432  0.89468762  0.65142826  1
  Mo  Mo183  1  0.31118224  0.49280776  0.37519696  1
  Mo  Mo184  1  0.49159525  0.49457318  0.13470861  1
  Mo  Mo185  1  0.49969276  0.69490890  0.61910779  1
  Mo  Mo186  1  0.90387998  0.89051796  0.86915590  1
  Mo  Mo187  1  0.00008173  0.39316264  0.00550000  1
  Mo  Mo188  1  0.50274635  0.10619575  0.62234850  1
  Mo  Mo189  1  0.10192015  0.69973504  0.37299242  1
  Mo  Mo190  1  0.39304250  0.21033229  0.25908300  1
  Mo  Mo191  1  0.69077049  0.69525852  0.87154725  1
  Mo  Mo192  1  0.70708949  0.69723561  0.12992703  1
  Mo  Mo193  1  0.80120841  0.20710926  0.75033679  1
  Mo  Mo194  1  0.19986944  0.59162643  0.74390940  1
  Mo  Mo195  1  0.09143068  0.49030562  0.38652317  1
  Mo  Mo196  1  0.90279258  0.29614845  0.62821646  1
  Mo  Mo197  1  0.69769842  0.30178500  0.12829932  1
  Mo  Mo198  1  0.30064567  0.10901272  0.36997174  1
  Mo  Mo199  1  0.39643985  0.60403134  -0.00177341  1
