# generated using pymatgen
data_HfZrTaTiMo
_symmetry_space_group_name_H-M   'P 1'
_cell_length_a   15.20260939
_cell_length_b   15.21546822
_cell_length_c   16.84705440
_cell_angle_alpha   90.02238564
_cell_angle_beta   89.95664283
_cell_angle_gamma   90.05570254
_symmetry_Int_Tables_number   1
_chemical_formula_structural   HfZrTaTiMo
_chemical_formula_sum   'Hf40 Zr40 Ta40 Ti40 Mo40'
_cell_volume   3896.97010323
_cell_formula_units_Z   40
loop_
 _symmetry_equiv_pos_site_id
 _symmetry_equiv_pos_as_xyz
  1  'x, y, z'
loop_
 _atom_site_type_symbol
 _atom_site_label
 _atom_site_symmetry_multiplicity
 _atom_site_fract_x
 _atom_site_fract_y
 _atom_site_fract_z
 _atom_site_occupancy
  Hf  Hf0  1  0.60012463  0.80951333  -0.00149188  1
  Hf  Hf1  1  0.10445820  0.70190068  0.12687295  1
  Hf  Hf2  1  0.50306483  0.69077094  0.61235202  1
  Hf  Hf3  1  0.60468097  0.60108961  0.01328118  1
  Hf  Hf4  1  0.30479223  0.70621198  0.12014867  1
  Hf  Hf5  1  0.21197014  0.41419257  0.72303597  1
  Hf  Hf6  1  0.79232124  0.20155727  0.26379194  1
  Hf  Hf7  1  0.90395135  0.50841075  0.62401962  1
  Hf  Hf8  1  0.41056366  0.38796554  0.49026716  1
  Hf  Hf9  1  0.20960006  0.18326614  0.50793403  1
  Hf  Hf10  1  0.09281054  0.69409633  0.61166202  1
  Hf  Hf11  1  0.50082832  0.69065426  0.87792140  1
  Hf  Hf12  1  0.80396608  0.80661594  0.26465080  1
  Hf  Hf13  1  0.29628881  0.89692599  0.86773630  1
  Hf  Hf14  1  0.30336178  0.68372478  0.60905690  1
  Hf  Hf15  1  0.29508107  0.89442958  0.63800199  1
  Hf  Hf16  1  0.10712933  0.70977787  0.89116638  1
  Hf  Hf17  1  0.01840088  0.80465750  0.74894690  1
  Hf  Hf18  1  0.09164531  0.11838403  0.88613961  1
  Hf  Hf19  1  0.88813333  0.09385355  0.87822022  1
  Hf  Hf20  1  -0.00606988  0.60118355  0.75505379  1
  Hf  Hf21  1  0.22488248  0.01456098  -0.00304036  1
  Hf  Hf22  1  0.59274793  -0.00184584  0.49901242  1
  Hf  Hf23  1  0.89887926  0.11452158  0.61455749  1
  Hf  Hf24  1  0.09454072  0.67900447  0.37415353  1
  Hf  Hf25  1  0.51287048  0.50146255  0.37863431  1
  Hf  Hf26  1  0.39644715  0.78288519  0.75335492  1
  Hf  Hf27  1  0.39741124  0.57175503  0.75201248  1
  Hf  Hf28  1  0.11649535  0.49558474  0.87338915  1
  Hf  Hf29  1  0.40969762  0.19070406  0.25862201  1
  Hf  Hf30  1  0.29615194  0.29351371  0.37440891  1
  Hf  Hf31  1  0.58487534  0.40006174  0.00585774  1
  Hf  Hf32  1  0.59283511  0.80026889  0.25553545  1
  Hf  Hf33  1  0.29809625  0.30319954  0.13468300  1
  Hf  Hf34  1  0.48778140  0.91140876  0.11980725  1
  Hf  Hf35  1  0.21573075  0.40720866  0.00699952  1
  Hf  Hf36  1  -0.00915046  0.18328316  0.25707204  1
  Hf  Hf37  1  0.19369628  0.19147115  0.73883264  1
  Hf  Hf38  1  0.19428524  -0.00984277  0.24059651  1
  Hf  Hf39  1  0.32663419  0.29040717  0.62015545  1
  Zr  Zr40  1  0.70469064  0.91464143  0.87106578  1
  Zr  Zr41  1  0.40243744  0.20197748  0.76101974  1
  Zr  Zr42  1  0.60057748  0.58718513  0.23806059  1
  Zr  Zr43  1  0.69263315  0.28580152  0.12344156  1
  Zr  Zr44  1  0.58032991  0.20552328  0.48561404  1
  Zr  Zr45  1  0.69180442  0.49286239  0.87713357  1
  Zr  Zr46  1  0.08581204  0.29234319  0.60851871  1
  Zr  Zr47  1  0.00225171  0.58877326  0.01448184  1
  Zr  Zr48  1  0.00660846  0.80619458  0.25296592  1
  Zr  Zr49  1  0.38529571  0.19959772  -0.00776423  1
  Zr  Zr50  1  0.40085585  0.60774495  0.25107517  1
  Zr  Zr51  1  0.08762183  0.09961296  0.10800699  1
  Zr  Zr52  1  0.90709122  0.31033062  0.38042554  1
  Zr  Zr53  1  0.79325650  0.39590670  0.75098790  1
  Zr  Zr54  1  0.90663181  0.91333765  0.12879780  1
  Zr  Zr55  1  -0.00259637  0.00601837  0.74007962  1
  Zr  Zr56  1  0.40214273  0.56947648  0.00481316  1
  Zr  Zr57  1  0.79675147  -0.00135161  0.50094759  1
  Zr  Zr58  1  0.79469741  0.80567481  0.48244127  1
  Zr  Zr59  1  0.70833739  0.69382649  0.87203340  1
  Zr  Zr60  1  0.90540366  0.51803937  0.36633538  1
  Zr  Zr61  1  0.71105323  0.48618756  0.12590772  1
  Zr  Zr62  1  0.50745798  0.10461719  0.87967396  1
  Zr  Zr63  1  0.40186140  0.81531728  0.49781297  1
  Zr  Zr64  1  0.70322426  0.70892629  0.62383014  1
  Zr  Zr65  1  0.59576555  0.01458535  0.25344021  1
  Zr  Zr66  1  -0.01074395  0.79992481  0.48477451  1
  Zr  Zr67  1  0.89545414  0.49917005  0.87643817  1
  Zr  Zr68  1  0.20078543  0.61751066  0.74715209  1
  Zr  Zr69  1  0.19718357  0.79855869  0.48937846  1
  Zr  Zr70  1  0.50827796  0.90400054  0.63598500  1
  Zr  Zr71  1  0.88730382  0.30806984  0.61503401  1
  Zr  Zr72  1  0.19957291  0.18976070  0.24942490  1
  Zr  Zr73  1  0.80915211  0.80168253  0.75318824  1
  Zr  Zr74  1  0.28714290  0.31456012  0.86656077  1
  Zr  Zr75  1  0.09815828  0.08935603  0.38168899  1
  Zr  Zr76  1  0.09569852  0.91201415  0.89317409  1
  Zr  Zr77  1  0.00971697  0.38363315  0.00346534  1
  Zr  Zr78  1  0.69916829  0.68274644  0.37163173  1
  Zr  Zr79  1  0.69952710  0.90939642  0.12917182  1
  Ta  Ta80  1  0.10899091  0.89847303  0.10751567  1
  Ta  Ta81  1  0.49613815  0.90754139  0.37458408  1
  Ta  Ta82  1  0.70706772  0.70712550  0.12888941  1
  Ta  Ta83  1  0.49829099  0.48961839  0.61427795  1
  Ta  Ta84  1  0.48736244  0.11329074  0.62627806  1
  Ta  Ta85  1  0.60585883  0.01681047  -0.00268336  1
  Ta  Ta86  1  0.20559196  0.59624639  0.01027132  1
  Ta  Ta87  1  0.20714508  0.59525455  0.25192028  1
  Ta  Ta88  1  0.00748842  0.00018125  0.51456875  1
  Ta  Ta89  1  0.39679664  0.80662389  0.25913965  1
  Ta  Ta90  1  0.09941809  0.29755653  0.38330028  1
  Ta  Ta91  1  0.90186586  0.29146109  0.87558901  1
  Ta  Ta92  1  0.10403947  0.48126953  0.35890994  1
  Ta  Ta93  1  0.21056213  0.79416861  0.25920809  1
  Ta  Ta94  1  0.49949665  0.70743472  0.12042129  1
  Ta  Ta95  1  0.90392744  0.70170832  0.88393643  1
  Ta  Ta96  1  -0.00802819  0.20624260  0.74994113  1
  Ta  Ta97  1  0.60055718  0.59379682  0.74406709  1
  Ta  Ta98  1  0.00891495  0.39551353  0.75010856  1
  Ta  Ta99  1  0.89798814  0.69971906  0.62257626  1
  Ta  Ta100  1  0.11290873  0.48747765  0.14537879  1
  Ta  Ta101  1  0.80955276  0.60255605  0.01637648  1
  Ta  Ta102  1  0.79225451  0.41485713  0.49271648  1
  Ta  Ta103  1  0.69485828  0.28576997  0.88155829  1
  Ta  Ta104  1  0.68844725  0.10751603  0.62253955  1
  Ta  Ta105  1  0.69968225  0.09666406  0.37809839  1
  Ta  Ta106  1  0.20261813  0.39916173  0.50688313  1
  Ta  Ta107  1  0.70038950  0.50208748  0.62782991  1
  Ta  Ta108  1  0.49528905  0.70089850  0.39008680  1
  Ta  Ta109  1  0.40578162  0.40420207  0.25483563  1
  Ta  Ta110  1  0.89698143  0.89429164  0.62321254  1
  Ta  Ta111  1  0.80354231  0.79647469  0.00412435  1
  Ta  Ta112  1  0.20059046  -0.00784898  0.51571960  1
  Ta  Ta113  1  0.78528474  0.21057955  0.48811991  1
  Ta  Ta114  1  0.50822781  0.11321453  0.11370189  1
  Ta  Ta115  1  0.49834926  0.31800213  0.87683370  1
  Ta  Ta116  1  0.61102959  0.39763877  0.49867609  1
  Ta  Ta117  1  -0.00796487  0.79634699  0.01100549  1
  Ta  Ta118  1  0.49808133  0.90316148  0.87219342  1
  Ta  Ta119  1  0.89452939  0.29725663  0.13140196  1
  Ti  Ti120  1  0.39550342  0.80411780  -0.00716057  1
  Ti  Ti121  1  0.81076024  0.01271618  0.25994657  1
  Ti  Ti122  1  0.79089231  0.40285152  0.25995972  1
  Ti  Ti123  1  0.59728793  0.21049053  0.26718399  1
  Ti  Ti124  1  0.30342553  0.69326071  0.38401332  1
  Ti  Ti125  1  0.80821040  0.60637590  0.23860038  1
  Ti  Ti126  1  0.19082719  -0.00287506  0.74354117  1
  Ti  Ti127  1  0.31585370  0.09419976  0.12504798  1
  Ti  Ti128  1  0.90490338  0.89631359  0.88441349  1
  Ti  Ti129  1  0.39259700  0.00896741  0.75409133  1
  Ti  Ti130  1  0.60681471  0.80752955  0.48975222  1
  Ti  Ti131  1  0.81074628  0.60515540  0.49438680  1
  Ti  Ti132  1  0.39424630  0.00039930  0.25569952  1
  Ti  Ti133  1  0.61349538  0.59119662  0.50058506  1
  Ti  Ti134  1  0.19111828  0.57901612  0.49761709  1
  Ti  Ti135  1  0.29827371  0.49944799  0.37903747  1
  Ti  Ti136  1  0.69066513  0.30116087  0.62264412  1
  Ti  Ti137  1  0.30014618  0.89720513  0.12079045  1
  Ti  Ti138  1  0.79114453  0.00416173  0.73511688  1
  Ti  Ti139  1  0.09055144  0.29994968  0.14085253  1
  Ti  Ti140  1  0.60314059  0.20536404  0.74845637  1
  Ti  Ti141  1  0.49530063  0.30412853  0.12893231  1
  Ti  Ti142  1  0.39104777  0.01910225  0.49875967  1
  Ti  Ti143  1  0.29676449  0.91067077  0.37617029  1
  Ti  Ti144  1  0.79097075  0.19392521  -0.00321119  1
  Ti  Ti145  1  0.91043722  0.92777991  0.36943411  1
  Ti  Ti146  1  0.90890980  0.48754997  0.13758319  1
  Ti  Ti147  1  0.80653934  0.39073647  -0.00012082  1
  Ti  Ti148  1  0.58452514  0.39870549  0.74590206  1
  Ti  Ti149  1  -0.00041595  0.60086190  0.23861713  1
  Ti  Ti150  1  0.18224469  0.21910078  0.00013005  1
  Ti  Ti151  1  0.00712574  0.41905192  0.49956215  1
  Ti  Ti152  1  0.60063570  0.01089462  0.74835958  1
  Ti  Ti153  1  0.79993005  -0.00195289  0.00135491  1
  Ti  Ti154  1  0.70287861  0.10044222  0.12712589  1
  Ti  Ti155  1  0.29753905  0.69129613  0.88717503  1
  Ti  Ti156  1  0.89450520  0.10709458  0.11539431  1
  Ti  Ti157  1  0.60274509  0.80335549  0.75379281  1
  Ti  Ti158  1  0.79221165  0.19580502  0.75081824  1
  Ti  Ti159  1  0.10301011  0.90183914  0.37318444  1
  Mo  Mo160  1  0.09261624  0.30433927  0.86579808  1
  Mo  Mo161  1  0.30406039  0.50278025  0.87557493  1
  Mo  Mo162  1  0.40016327  0.39207943  0.00734878  1
  Mo  Mo163  1  -0.00025812  0.00061229  0.24920808  1
  Mo  Mo164  1  0.28973908  0.09509844  0.86837831  1
  Mo  Mo165  1  0.49139261  0.09650630  0.37546819  1
  Mo  Mo166  1  0.70263519  0.10579772  0.86638949  1
  Mo  Mo167  1  0.20124777  0.80165305  0.74759695  1
  Mo  Mo168  1  0.09837791  0.09446942  0.62303685  1
  Mo  Mo169  1  -0.01799955  0.20855966  0.00352277  1
  Mo  Mo170  1  0.40026384  0.19017418  0.49044555  1
  Mo  Mo171  1  0.59990831  0.20221738  0.00138505  1
  Mo  Mo172  1  0.20247993  0.39550020  0.25724217  1
  Mo  Mo173  1  0.79612615  0.60277653  0.74505555  1
  Mo  Mo174  1  0.00026439  0.59475643  0.49676975  1
  Mo  Mo175  1  0.41175109  -0.00618789  -0.00266996  1
  Mo  Mo176  1  0.41006462  0.39781599  0.74277151  1
  Mo  Mo177  1  0.40205870  0.59288811  0.49267973  1
  Mo  Mo178  1  0.30021594  0.08355059  0.37473871  1
  Mo  Mo179  1  0.20615720  0.79887168  0.00406547  1
  Mo  Mo180  1  0.69720941  0.31074790  0.37504990  1
  Mo  Mo181  1  -0.00843676  0.00092709  -0.00127430  1
  Mo  Mo182  1  0.49925778  0.30586315  0.36380886  1
  Mo  Mo183  1  0.89645298  0.69761500  0.12791114  1
  Mo  Mo184  1  0.69878537  0.91140794  0.63551254  1
  Mo  Mo185  1  0.30062799  0.49775600  0.13988924  1
  Mo  Mo186  1  0.89837047  0.10314575  0.39078920  1
  Mo  Mo187  1  0.90266004  0.69879652  0.36537813  1
  Mo  Mo188  1  0.59825651  0.38814404  0.25142186  1
  Mo  Mo189  1  0.70726612  0.49594032  0.37173567  1
  Mo  Mo190  1  -0.00350658  0.39263702  0.24413654  1
  Mo  Mo191  1  0.30540498  0.08908438  0.63254271  1
  Mo  Mo192  1  -0.00491806  0.19762257  0.49023979  1
  Mo  Mo193  1  0.49666831  0.49164876  0.13680059  1
  Mo  Mo194  1  0.09589928  0.89684233  0.62315131  1
  Mo  Mo195  1  0.30710580  0.49792404  0.60434656  1
  Mo  Mo196  1  0.09962883  0.49920089  0.62037371  1
  Mo  Mo197  1  0.51719942  0.29732435  0.62678893  1
  Mo  Mo198  1  0.69481740  0.90756947  0.36668525  1
  Mo  Mo199  1  0.50216460  0.49547711  0.87062722  1
