# generated using pymatgen
data_HfZrTaTiMo
_symmetry_space_group_name_H-M   'P 1'
_cell_length_a   15.21571788
_cell_length_b   15.22108502
_cell_length_c   16.87456439
_cell_angle_alpha   89.95788378
_cell_angle_beta   89.93611454
_cell_angle_gamma   89.93378861
_symmetry_Int_Tables_number   1
_chemical_formula_structural   HfZrTaTiMo
_chemical_formula_sum   'Hf40 Zr40 Ta40 Ti40 Mo40'
_cell_volume   3908.13855901
_cell_formula_units_Z   40
loop_
 _symmetry_equiv_pos_site_id
 _symmetry_equiv_pos_as_xyz
  1  'x, y, z'
loop_
 _atom_site_type_symbol
 _atom_site_label
 _atom_site_symmetry_multiplicity
 _atom_site_fract_x
 _atom_site_fract_y
 _atom_site_fract_z
 _atom_site_occupancy
  Hf  Hf0  1  0.29554597  0.90571418  0.12164531  1
  Hf  Hf1  1  0.51965490  0.69191596  0.63343511  1
  Hf  Hf2  1  0.79442865  -0.01812860  0.75401805  1
  Hf  Hf3  1  0.59272344  0.20864531  0.24494853  1
  Hf  Hf4  1  0.60084134  0.00302735  0.24624840  1
  Hf  Hf5  1  0.79606664  0.19443074  -0.01354607  1
  Hf  Hf6  1  0.49759178  0.30800280  0.88838021  1
  Hf  Hf7  1  0.11246158  0.49143181  0.36748704  1
  Hf  Hf8  1  0.69068846  0.69534818  0.37381932  1
  Hf  Hf9  1  0.39536006  0.19619815  0.74989973  1
  Hf  Hf10  1  0.90039173  0.51053620  0.12776360  1
  Hf  Hf11  1  0.69934500  0.89962581  0.37875703  1
  Hf  Hf12  1  0.10045354  0.29180555  0.37722490  1
  Hf  Hf13  1  0.69933571  0.30669731  0.12350072  1
  Hf  Hf14  1  0.90224263  0.90284379  0.38825986  1
  Hf  Hf15  1  0.00707032  -0.00421474  0.24632739  1
  Hf  Hf16  1  0.68779592  0.50569988  0.86694166  1
  Hf  Hf17  1  0.70996089  0.10281672  0.12754344  1
  Hf  Hf18  1  0.11528302  0.67527823  0.62616551  1
  Hf  Hf19  1  0.49760935  0.10383238  0.36753117  1
  Hf  Hf20  1  0.50349762  0.69682710  0.88532235  1
  Hf  Hf21  1  0.40597271  0.21288541  0.50125722  1
  Hf  Hf22  1  0.19441900  0.80186403  0.75689703  1
  Hf  Hf23  1  0.58731077  0.41127702  0.23948063  1
  Hf  Hf24  1  0.18953219  0.80414365  0.23929194  1
  Hf  Hf25  1  0.11001119  0.09968091  0.88052919  1
  Hf  Hf26  1  0.69376917  0.90073151  0.61302723  1
  Hf  Hf27  1  -0.00297312  0.59768540  0.25971174  1
  Hf  Hf28  1  0.08765283  0.30803681  0.87778244  1
  Hf  Hf29  1  0.10729717  0.09872489  0.11385774  1
  Hf  Hf30  1  0.21992116  -0.00222580  0.75860035  1
  Hf  Hf31  1  0.59447053  0.20245570  0.75102351  1
  Hf  Hf32  1  0.38654801  0.20832453  0.24233028  1
  Hf  Hf33  1  0.10502272  0.70071845  0.37619280  1
  Hf  Hf34  1  0.19150828  0.41004218  0.51248150  1
  Hf  Hf35  1  0.21136154  0.01713145  0.24689066  1
  Hf  Hf36  1  0.49130557  0.90124900  0.62374433  1
  Hf  Hf37  1  0.71672025  0.89537510  0.11263931  1
  Hf  Hf38  1  0.79806437  0.40199643  -0.01292657  1
  Hf  Hf39  1  0.30779708  0.31550147  0.62460894  1
  Zr  Zr40  1  -0.00105849  0.57437661  0.49662101  1
  Zr  Zr41  1  0.59644553  0.01583388  0.01245690  1
  Zr  Zr42  1  0.90704730  0.11451825  0.64364790  1
  Zr  Zr43  1  0.18002931  0.41538835  0.74359101  1
  Zr  Zr44  1  0.69375519  0.30429205  0.37203150  1
  Zr  Zr45  1  0.40252902  0.81007130  0.75886407  1
  Zr  Zr46  1  -0.02052425  0.79917719  0.25734837  1
  Zr  Zr47  1  0.59632705  0.41962432  0.50270103  1
  Zr  Zr48  1  0.62470565  0.80363820  0.75519265  1
  Zr  Zr49  1  0.10804917  0.07679382  0.62389802  1
  Zr  Zr50  1  0.29358956  0.30433841  0.89315969  1
  Zr  Zr51  1  0.30998861  0.70848141  0.62654440  1
  Zr  Zr52  1  0.60602177  0.79315379  0.23935302  1
  Zr  Zr53  1  0.80168989  0.02887512  0.49828446  1
  Zr  Zr54  1  0.40127697  0.00590263  0.49427592  1
  Zr  Zr55  1  0.61341885  0.19789534  0.50311931  1
  Zr  Zr56  1  0.30843546  0.69768316  0.36665970  1
  Zr  Zr57  1  0.19270382  0.19914839  0.51149890  1
  Zr  Zr58  1  0.49333478  0.90670706  0.12540076  1
  Zr  Zr59  1  0.89448073  0.28872314  0.37664585  1
  Zr  Zr60  1  -0.00612860  0.19632746  -0.00151588  1
  Zr  Zr61  1  0.89235490  0.68187201  0.61592277  1
  Zr  Zr62  1  0.00364753  0.38797202  0.24799225  1
  Zr  Zr63  1  0.11131672  0.49205164  0.12439632  1
  Zr  Zr64  1  0.29355470  0.69534899  0.88739104  1
  Zr  Zr65  1  0.08433176  0.70147727  0.11782947  1
  Zr  Zr66  1  0.48692379  0.49145248  0.64187419  1
  Zr  Zr67  1  0.89840892  0.29350325  0.12776588  1
  Zr  Zr68  1  0.69513133  0.09494851  0.86968747  1
  Zr  Zr69  1  0.40857050  0.59222544  0.50018228  1
  Zr  Zr70  1  0.01129919  0.79293849  0.50631413  1
  Zr  Zr71  1  0.90395123  0.90354401  0.61735861  1
  Zr  Zr72  1  0.30936940  0.90410445  0.36528370  1
  Zr  Zr73  1  0.01707039  -0.01925129  0.76071557  1
  Zr  Zr74  1  -0.00779622  0.78058456  0.74221967  1
  Zr  Zr75  1  0.70633311  0.71364696  0.89575892  1
  Zr  Zr76  1  0.19214913  0.20573829  0.74146086  1
  Zr  Zr77  1  0.71035778  0.31619599  0.63778155  1
  Zr  Zr78  1  0.80472179  0.61563745  0.75975726  1
  Zr  Zr79  1  0.89758353  0.87262667  0.88374419  1
  Ta  Ta80  1  0.40280877  0.79971640  0.49633793  1
  Ta  Ta81  1  0.21406653  0.59492550  0.24212502  1
  Ta  Ta82  1  0.11248103  0.90462370  0.38480330  1
  Ta  Ta83  1  0.00896603  -0.02061322  -0.00683696  1
  Ta  Ta84  1  0.79542721  0.41073043  0.25004161  1
  Ta  Ta85  1  0.30654392  0.90596968  0.89055708  1
  Ta  Ta86  1  0.79123224  0.79105988  0.50224022  1
  Ta  Ta87  1  0.88501044  0.69063935  0.38734645  1
  Ta  Ta88  1  0.50449591  0.51278276  0.36718048  1
  Ta  Ta89  1  0.28272156  0.51686148  0.63374954  1
  Ta  Ta90  1  0.70121227  0.10482881  0.63842731  1
  Ta  Ta91  1  0.70028903  0.50585003  0.36710811  1
  Ta  Ta92  1  0.28410768  0.90666567  0.61150844  1
  Ta  Ta93  1  0.49262027  0.09949592  0.88089407  1
  Ta  Ta94  1  0.29106395  0.31005018  0.10147876  1
  Ta  Ta95  1  0.69478648  0.30946674  0.86461891  1
  Ta  Ta96  1  0.82549281  0.59989574  -0.01146153  1
  Ta  Ta97  1  0.30154370  0.69654264  0.11614808  1
  Ta  Ta98  1  0.39910042  0.80150522  0.00293977  1
  Ta  Ta99  1  -0.00689397  0.41181210  -0.00379321  1
  Ta  Ta100  1  0.70372156  0.50577096  0.11733991  1
  Ta  Ta101  1  0.48186076  0.32299585  0.37320531  1
  Ta  Ta102  1  0.29510898  0.30774044  0.37832165  1
  Ta  Ta103  1  0.49001417  0.30612721  0.10598141  1
  Ta  Ta104  1  0.81176662  -0.01049010  0.25208667  1
  Ta  Ta105  1  0.68756403  0.51983917  0.64695779  1
  Ta  Ta106  1  0.48918010  0.50113528  0.88080108  1
  Ta  Ta107  1  0.31461257  0.49164692  0.36791953  1
  Ta  Ta108  1  0.09467464  0.09823797  0.37784415  1
  Ta  Ta109  1  0.71186967  0.69636675  0.10962061  1
  Ta  Ta110  1  0.60163174  0.59926109  0.23193927  1
  Ta  Ta111  1  0.08911396  0.69827953  0.88517858  1
  Ta  Ta112  1  0.30804110  0.10450737  0.89571046  1
  Ta  Ta113  1  0.41052740  0.59685567  0.23247061  1
  Ta  Ta114  1  0.81329357  0.21533424  0.76356812  1
  Ta  Ta115  1  0.31440120  0.10910100  0.10491780  1
  Ta  Ta116  1  0.50816488  0.90298767  0.88962899  1
  Ta  Ta117  1  0.77953220  0.58451551  0.50395145  1
  Ta  Ta118  1  0.90929323  0.88589318  0.11322352  1
  Ta  Ta119  1  0.90471239  0.09171587  0.86916734  1
  Ti  Ti120  1  0.00273243  0.18743441  0.24539271  1
  Ti  Ti121  1  0.88575941  0.48263083  0.63156589  1
  Ti  Ti122  1  -0.01730566  0.19200433  0.50098921  1
  Ti  Ti123  1  0.29204376  0.11134986  0.37734769  1
  Ti  Ti124  1  0.21299418  0.39400641  0.24414481  1
  Ti  Ti125  1  0.70246872  0.90336377  0.90343199  1
  Ti  Ti126  1  0.59213756  -0.00187487  0.75283628  1
  Ti  Ti127  1  0.39530074  0.40820224  0.23277241  1
  Ti  Ti128  1  -0.02208990  0.37789328  0.74323119  1
  Ti  Ti129  1  0.18498292  0.80828289  0.00327791  1
  Ti  Ti130  1  0.81091446  0.19133692  0.24842431  1
  Ti  Ti131  1  0.29616517  0.50057696  0.88285843  1
  Ti  Ti132  1  0.10114215  0.50905814  0.88415736  1
  Ti  Ti133  1  0.00966131  0.57644600  0.75124734  1
  Ti  Ti134  1  0.20745748  0.60279043  0.49308364  1
  Ti  Ti135  1  0.71541370  0.10597356  0.36606081  1
  Ti  Ti136  1  0.31089969  0.09789427  0.62024786  1
  Ti  Ti137  1  0.50733698  0.09765182  0.62483794  1
  Ti  Ti138  1  0.40095399  0.79627125  0.23877893  1
  Ti  Ti139  1  0.50429398  0.30320031  0.62864830  1
  Ti  Ti140  1  -0.00589556  0.38405730  0.51342196  1
  Ti  Ti141  1  0.50332412  0.69816179  0.10822562  1
  Ti  Ti142  1  0.59676334  0.00238530  0.49457348  1
  Ti  Ti143  1  0.80015277  0.39588002  0.50004268  1
  Ti  Ti144  1  0.39251088  0.40068662  0.76042472  1
  Ti  Ti145  1  0.89996111  0.08124230  0.11615753  1
  Ti  Ti146  1  0.50024901  0.89418631  0.36679804  1
  Ti  Ti147  1  0.20314891  -0.00351018  -0.00105266  1
  Ti  Ti148  1  0.59857310  0.58870344  0.00666735  1
  Ti  Ti149  1  0.10404443  0.29824157  0.10995923  1
  Ti  Ti150  1  0.79769349  0.61340361  0.24838058  1
  Ti  Ti151  1  0.89082514  0.49415536  0.37477775  1
  Ti  Ti152  1  0.19459594  0.20875644  0.24359548  1
  Ti  Ti153  1  0.40600554  0.00295601  0.75407431  1
  Ti  Ti154  1  0.49940618  0.69953588  0.36751688  1
  Ti  Ti155  1  0.38896680  0.59933580  0.75807550  1
  Ti  Ti156  1  0.59937685  0.20959709  0.00069354  1
  Ti  Ti157  1  0.01075244  0.00296996  0.49840604  1
  Ti  Ti158  1  0.59322632  0.79057878  0.49810466  1
  Ti  Ti159  1  0.20333662  0.59342746  0.00749293  1
  Mo  Mo160  1  0.09771950  0.90544979  0.11852756  1
  Mo  Mo161  1  0.20826482  0.79888281  0.49773467  1
  Mo  Mo162  1  0.88724646  0.69881785  0.12658622  1
  Mo  Mo163  1  0.19856649  0.20116560  0.00128212  1
  Mo  Mo164  1  0.40298549  0.01320068  0.25096543  1
  Mo  Mo165  1  -0.00280019  0.78430745  0.00148203  1
  Mo  Mo166  1  0.81677093  0.00324206  -0.00221861  1
  Mo  Mo167  1  0.41017389  0.20032488  0.00543615  1
  Mo  Mo168  1  0.69893368  0.70010918  0.62002647  1
  Mo  Mo169  1  0.79948394  0.40718939  0.76012226  1
  Mo  Mo170  1  0.20127311  0.00132692  0.48881959  1
  Mo  Mo171  1  0.80098383  0.80398998  0.74400787  1
  Mo  Mo172  1  0.91047981  0.68152410  0.87206030  1
  Mo  Mo173  1  0.80869377  0.79400292  0.00322620  1
  Mo  Mo174  1  0.49798255  0.11106190  0.13285887  1
  Mo  Mo175  1  0.91251318  0.49020851  0.86683555  1
  Mo  Mo176  1  0.19690265  0.60055708  0.76158367  1
  Mo  Mo177  1  0.80175938  0.79938501  0.25476969  1
  Mo  Mo178  1  0.39699765  0.41605142  0.00434399  1
  Mo  Mo179  1  0.08075361  0.49215849  0.62963780  1
  Mo  Mo180  1  0.00487851  0.59295381  -0.00269323  1
  Mo  Mo181  1  0.79867396  0.20575568  0.50463021  1
  Mo  Mo182  1  0.07417978  0.29006214  0.62421455  1
  Mo  Mo183  1  0.39934860  0.60186966  0.00713190  1
  Mo  Mo184  1  0.58744092  0.40344833  0.75272065  1
  Mo  Mo185  1  0.89704676  0.30097524  0.62259059  1
  Mo  Mo186  1  0.40069940  -0.00068200  -0.00237352  1
  Mo  Mo187  1  0.89723879  0.29957195  0.87589078  1
  Mo  Mo188  1  0.90576117  0.09930458  0.36806902  1
  Mo  Mo189  1  0.50169477  0.50264898  0.11086256  1
  Mo  Mo190  1  0.00108599  0.19517563  0.75928655  1
  Mo  Mo191  1  0.19111286  0.40719099  -0.00435573  1
  Mo  Mo192  1  0.58815372  0.60102893  0.76187031  1
  Mo  Mo193  1  0.30473551  0.50058622  0.12388373  1
  Mo  Mo194  1  0.60247472  0.40327980  0.00406320  1
  Mo  Mo195  1  0.11259362  0.88554757  0.61236097  1
  Mo  Mo196  1  0.60120015  0.60289900  0.49702355  1
  Mo  Mo197  1  0.11118973  0.88999871  0.88448764  1
  Mo  Mo198  1  0.59676802  0.79864740  0.00869637  1
  Mo  Mo199  1  0.39214016  0.40540778  0.49632559  1
