# generated using pymatgen
data_HfZrTaTiMo
_symmetry_space_group_name_H-M   'P 1'
_cell_length_a   15.21570138
_cell_length_b   15.21230666
_cell_length_c   16.84361694
_cell_angle_alpha   89.99190575
_cell_angle_beta   90.05712093
_cell_angle_gamma   90.00656840
_symmetry_Int_Tables_number   1
_chemical_formula_structural   HfZrTaTiMo
_chemical_formula_sum   'Hf40 Zr40 Ta40 Ti40 Mo40'
_cell_volume   3898.72121322
_cell_formula_units_Z   40
loop_
 _symmetry_equiv_pos_site_id
 _symmetry_equiv_pos_as_xyz
  1  'x, y, z'
loop_
 _atom_site_type_symbol
 _atom_site_label
 _atom_site_symmetry_multiplicity
 _atom_site_fract_x
 _atom_site_fract_y
 _atom_site_fract_z
 _atom_site_occupancy
  Hf  Hf0  1  0.09953257  0.70375833  0.13029027  1
  Hf  Hf1  1  0.40805120  0.39987963  0.26197791  1
  Hf  Hf2  1  0.90255027  0.69507776  0.63116318  1
  Hf  Hf3  1  0.89824655  0.29690553  0.39373884  1
  Hf  Hf4  1  0.20700541  0.82274980  0.75411884  1
  Hf  Hf5  1  0.59364368  0.58851199  0.24981156  1
  Hf  Hf6  1  0.59863764  0.18371601  0.50367440  1
  Hf  Hf7  1  0.78965116  0.79287778  0.74517990  1
  Hf  Hf8  1  0.68544716  0.08347858  0.36936115  1
  Hf  Hf9  1  0.26366515  0.49676181  0.85128109  1
  Hf  Hf10  1  0.30561906  0.70760461  0.86493988  1
  Hf  Hf11  1  0.40130265  0.00166785  0.00073481  1
  Hf  Hf12  1  -0.01160726  0.21006436  0.24701794  1
  Hf  Hf13  1  0.78784500  0.00315633  0.50403222  1
  Hf  Hf14  1  0.60868589  0.79090059  0.50160024  1
  Hf  Hf15  1  -0.00310931  0.00515521  0.24560236  1
  Hf  Hf16  1  0.69008462  0.08996222  0.11749738  1
  Hf  Hf17  1  0.49656466  0.70338680  0.13238873  1
  Hf  Hf18  1  0.31104438  0.71555711  0.63162345  1
  Hf  Hf19  1  0.10877776  0.70707402  0.63001025  1
  Hf  Hf20  1  0.78901636  0.60608486  0.24675895  1
  Hf  Hf21  1  0.51081989  0.70409903  0.36480172  1
  Hf  Hf22  1  0.78721124  0.60783122  0.50080387  1
  Hf  Hf23  1  0.39818335  0.60515626  -0.00896719  1
  Hf  Hf24  1  0.90042713  0.49342502  0.13190604  1
  Hf  Hf25  1  0.60260772  0.39299105  -0.00254410  1
  Hf  Hf26  1  0.90833315  0.90695907  0.63588214  1
  Hf  Hf27  1  0.19521876  0.59791314  0.26263661  1
  Hf  Hf28  1  0.51322919  0.70226263  0.87545459  1
  Hf  Hf29  1  0.29425954  0.50472476  0.63669338  1
  Hf  Hf30  1  0.01208115  0.19132484  0.51245770  1
  Hf  Hf31  1  0.49423630  0.49464647  0.11793638  1
  Hf  Hf32  1  0.29970535  0.30769771  0.62928017  1
  Hf  Hf33  1  0.81218689  0.39239886  -0.00206982  1
  Hf  Hf34  1  0.30774189  0.90057946  0.12998576  1
  Hf  Hf35  1  0.30363497  0.30733766  0.11638538  1
  Hf  Hf36  1  0.00370651  0.80935718  0.49043382  1
  Hf  Hf37  1  0.01153917  0.20350578  0.73089796  1
  Hf  Hf38  1  0.18987384  0.59258371  -0.00187368  1
  Hf  Hf39  1  0.29875328  0.50847969  0.12496098  1
  Zr  Zr40  1  0.10128574  0.49319618  0.62832406  1
  Zr  Zr41  1  0.12166798  0.30674216  0.39292003  1
  Zr  Zr42  1  0.00199978  0.79832538  0.00109642  1
  Zr  Zr43  1  0.49148711  0.88861315  0.63692291  1
  Zr  Zr44  1  0.40067666  0.60168153  0.49319544  1
  Zr  Zr45  1  0.89874256  0.09777709  0.86790406  1
  Zr  Zr46  1  0.38948147  0.40593177  -0.02464751  1
  Zr  Zr47  1  0.09373271  0.49637748  0.12678582  1
  Zr  Zr48  1  0.00084805  0.80964999  0.76094457  1
  Zr  Zr49  1  0.40224070  0.19036545  0.75399392  1
  Zr  Zr50  1  0.80098968  0.76989941  0.02069327  1
  Zr  Zr51  1  -0.00739134  0.39399715  0.74986946  1
  Zr  Zr52  1  0.89668736  0.09798367  0.62383698  1
  Zr  Zr53  1  0.50326290  0.48977065  0.62978245  1
  Zr  Zr54  1  0.10367881  0.69355436  0.87112571  1
  Zr  Zr55  1  0.20926117  0.00399800  0.26197174  1
  Zr  Zr56  1  0.51260172  0.91293570  0.13572620  1
  Zr  Zr57  1  0.69246452  0.48161514  0.38195543  1
  Zr  Zr58  1  0.88537186  0.89796013  0.88275183  1
  Zr  Zr59  1  0.19575974  0.60253665  0.48830748  1
  Zr  Zr60  1  0.09351279  0.10903324  0.37182225  1
  Zr  Zr61  1  0.09572521  0.12432132  0.88673459  1
  Zr  Zr62  1  0.70503966  0.69134616  0.87698945  1
  Zr  Zr63  1  0.79999278  0.21237818  0.74634626  1
  Zr  Zr64  1  0.10822806  0.91359728  0.11628700  1
  Zr  Zr65  1  0.29508078  0.92573138  0.62180087  1
  Zr  Zr66  1  -0.00537616  0.60582293  0.49146232  1
  Zr  Zr67  1  0.80099895  0.80569583  0.51286235  1
  Zr  Zr68  1  0.40337888  0.80872025  0.48609601  1
  Zr  Zr69  1  0.79585953  -0.01203705  0.24273544  1
  Zr  Zr70  1  0.10289263  0.92483352  0.89149955  1
  Zr  Zr71  1  0.89684858  0.49714496  0.37449094  1
  Zr  Zr72  1  0.59794780  0.19647885  0.25442933  1
  Zr  Zr73  1  0.50754358  0.90116971  0.87263769  1
  Zr  Zr74  1  0.60462482  0.38882374  0.24707188  1
  Zr  Zr75  1  0.40180537  0.01059722  0.47932458  1
  Zr  Zr76  1  0.40571377  0.20564113  -0.00819689  1
  Zr  Zr77  1  0.20408963  0.39492450  0.25625498  1
  Zr  Zr78  1  0.77997095  0.00251392  0.75025633  1
  Zr  Zr79  1  0.40895259  0.60331515  0.75382248  1
  Ta  Ta80  1  0.51617403  0.29475953  0.86735206  1
  Ta  Ta81  1  0.39526071  0.59775177  0.26377062  1
  Ta  Ta82  1  -0.01878524  0.02416777  0.01661905  1
  Ta  Ta83  1  0.70181565  0.30238838  0.60916377  1
  Ta  Ta84  1  0.28214153  0.29162201  0.86577276  1
  Ta  Ta85  1  0.88434253  0.10301416  0.37817798  1
  Ta  Ta86  1  0.59457408  0.59106610  0.49485204  1
  Ta  Ta87  1  0.80444324  0.37435651  0.24723440  1
  Ta  Ta88  1  0.61396239  0.39213677  0.75294953  1
  Ta  Ta89  1  0.40372371  0.39286644  0.76411956  1
  Ta  Ta90  1  -0.00629709  0.60792269  0.26043169  1
  Ta  Ta91  1  0.60964225  0.19272766  0.74255008  1
  Ta  Ta92  1  0.29787219  0.71096588  0.36581811  1
  Ta  Ta93  1  0.52263284  0.91219930  0.35967826  1
  Ta  Ta94  1  0.71018408  0.28450331  0.11686868  1
  Ta  Ta95  1  0.28740537  0.09458744  0.88272399  1
  Ta  Ta96  1  0.29536206  0.10395023  0.12288519  1
  Ta  Ta97  1  0.49309251  0.09247658  0.62927281  1
  Ta  Ta98  1  0.68719163  0.09330180  0.88942828  1
  Ta  Ta99  1  0.88198626  0.72115605  0.36670701  1
  Ta  Ta100  1  0.51726048  0.50097273  0.86779987  1
  Ta  Ta101  1  0.19816144  0.18825334  0.73415820  1
  Ta  Ta102  1  0.70742576  0.28832371  0.88145523  1
  Ta  Ta103  1  0.30098545  0.90575806  0.88423192  1
  Ta  Ta104  1  -0.02009672  0.59741701  -0.00203290  1
  Ta  Ta105  1  0.39487223  0.20381325  0.25143420  1
  Ta  Ta106  1  0.21633085  0.79965778  0.00240827  1
  Ta  Ta107  1  0.50672653  0.29768026  0.62821535  1
  Ta  Ta108  1  0.61012793  0.60097033  0.00843717  1
  Ta  Ta109  1  0.19502584  0.00639869  0.48351867  1
  Ta  Ta110  1  0.62993307  0.79744433  0.24268984  1
  Ta  Ta111  1  0.79368164  0.58496644  0.74124966  1
  Ta  Ta112  1  0.39864158  0.20637372  0.50487308  1
  Ta  Ta113  1  0.10071585  0.91389332  0.62093186  1
  Ta  Ta114  1  -0.00386122  0.59467140  0.75245097  1
  Ta  Ta115  1  -0.00791748  0.81009761  0.25170056  1
  Ta  Ta116  1  0.89344619  0.50009802  0.87370454  1
  Ta  Ta117  1  0.09468353  0.71117811  0.36725709  1
  Ta  Ta118  1  0.20064663  0.20444357  0.24115286  1
  Ta  Ta119  1  0.89741200  0.30989904  0.60409042  1
  Ti  Ti120  1  0.38543800  -0.00180839  0.75887078  1
  Ti  Ti121  1  0.68939865  0.90153880  0.62954623  1
  Ti  Ti122  1  0.79763626  0.39818147  0.74770180  1
  Ti  Ti123  1  0.50420909  0.30030591  0.38634539  1
  Ti  Ti124  1  0.60975198  0.81032145  0.00917089  1
  Ti  Ti125  1  0.50271701  0.10081807  0.87672022  1
  Ti  Ti126  1  0.09741381  0.30680125  0.12178545  1
  Ti  Ti127  1  0.70326096  0.49541133  0.87628551  1
  Ti  Ti128  1  0.40081949  0.81070523  0.26057872  1
  Ti  Ti129  1  0.70331529  0.48920096  0.12252095  1
  Ti  Ti130  1  0.29730169  0.12562554  0.37524994  1
  Ti  Ti131  1  0.89748746  0.89857786  0.11979225  1
  Ti  Ti132  1  0.29515874  0.48854015  0.38331357  1
  Ti  Ti133  1  0.70986557  0.28755315  0.39248041  1
  Ti  Ti134  1  0.30080632  0.70502940  0.13849813  1
  Ti  Ti135  1  0.20214725  0.81574317  0.48487400  1
  Ti  Ti136  1  0.40694280  0.80025009  0.00442695  1
  Ti  Ti137  1  0.69491767  0.49319027  0.61727412  1
  Ti  Ti138  1  0.59296164  -0.01144261  0.50546002  1
  Ti  Ti139  1  0.89208331  0.49457479  0.61716306  1
  Ti  Ti140  1  0.50665864  0.29420972  0.12003407  1
  Ti  Ti141  1  0.19623994  0.80853175  0.25840956  1
  Ti  Ti142  1  0.78451276  -0.01708606  0.00447478  1
  Ti  Ti143  1  0.40835544  0.01710153  0.26152093  1
  Ti  Ti144  1  0.01348796  0.40765471  0.49985357  1
  Ti  Ti145  1  0.19293459  0.21318309  0.00464476  1
  Ti  Ti146  1  0.81154671  0.18300536  -0.00034810  1
  Ti  Ti147  1  0.01695618  0.40060613  -0.01281534  1
  Ti  Ti148  1  0.51536381  0.69015960  0.63183151  1
  Ti  Ti149  1  0.09443914  0.11566461  0.11838427  1
  Ti  Ti150  1  0.49549797  0.10716135  0.12188935  1
  Ti  Ti151  1  0.89598636  0.68779839  0.86958919  1
  Ti  Ti152  1  0.60132855  0.79320830  0.74808782  1
  Ti  Ti153  1  -0.00353174  -0.00424311  0.48675596  1
  Ti  Ti154  1  0.90385589  0.29188322  0.11908456  1
  Ti  Ti155  1  0.00573811  0.40395857  0.26202343  1
  Ti  Ti156  1  0.91413633  0.29227283  0.88120447  1
  Ti  Ti157  1  0.59320575  0.00247769  0.75072865  1
  Ti  Ti158  1  0.40308844  0.40002967  0.49539107  1
  Ti  Ti159  1  0.71795347  0.87836185  0.36910847  1
  Mo  Mo160  1  0.18778009  0.38062733  0.74697141  1
  Mo  Mo161  1  0.40561931  0.80798311  0.75208252  1
  Mo  Mo162  1  0.59924845  -0.00245843  0.24914380  1
  Mo  Mo163  1  0.10574658  0.29933392  0.60775949  1
  Mo  Mo164  1  0.19762252  0.01269919  0.75486532  1
  Mo  Mo165  1  0.21317068  0.40189919  0.49826196  1
  Mo  Mo166  1  0.11130280  0.08639667  0.61649987  1
  Mo  Mo167  1  0.69314376  0.68585596  0.12153595  1
  Mo  Mo168  1  0.68895978  0.68723823  0.63238580  1
  Mo  Mo169  1  0.18851381  0.60653130  0.74289994  1
  Mo  Mo170  1  0.30512927  0.10144165  0.61997188  1
  Mo  Mo171  1  0.60252101  0.19938264  -0.00187320  1
  Mo  Mo172  1  0.59653984  0.00114658  -0.00401165  1
  Mo  Mo173  1  0.90898157  0.68867676  0.13518118  1
  Mo  Mo174  1  -0.00612143  0.21500642  0.00886857  1
  Mo  Mo175  1  0.61345013  0.58996281  0.74772757  1
  Mo  Mo176  1  0.02660700  0.00959609  0.74698263  1
  Mo  Mo177  1  0.68269501  0.09691530  0.62523327  1
  Mo  Mo178  1  0.79811542  0.20104349  0.25013552  1
  Mo  Mo179  1  0.49145600  0.10875406  0.37269947  1
  Mo  Mo180  1  0.90048915  0.90957440  0.37196221  1
  Mo  Mo181  1  0.59174363  0.39057059  0.50175581  1
  Mo  Mo182  1  0.79894986  0.40274774  0.50597226  1
  Mo  Mo183  1  0.31394254  0.29643852  0.38183579  1
  Mo  Mo184  1  0.79783349  0.19474962  0.50201543  1
  Mo  Mo185  1  0.81054745  0.79475577  0.23268284  1
  Mo  Mo186  1  0.10673087  0.30928925  0.87256657  1
  Mo  Mo187  1  0.30564464  0.90329150  0.36362531  1
  Mo  Mo188  1  0.09974590  0.90048062  0.37341627  1
  Mo  Mo189  1  0.08069663  0.50037490  0.87097664  1
  Mo  Mo190  1  0.69179629  0.89579697  0.87881371  1
  Mo  Mo191  1  0.20089787  0.01093728  0.01118205  1
  Mo  Mo192  1  0.21383276  0.19320332  0.51472761  1
  Mo  Mo193  1  0.79886294  0.58000228  0.00469249  1
  Mo  Mo194  1  0.09704046  0.50476416  0.37546396  1
  Mo  Mo195  1  0.88931266  0.10672868  0.12413630  1
  Mo  Mo196  1  0.70003870  0.69964873  0.37326029  1
  Mo  Mo197  1  0.70149552  0.89242378  0.11891733  1
  Mo  Mo198  1  0.19289126  0.39524414  -0.00438273  1
  Mo  Mo199  1  0.49262881  0.49508928  0.38299166  1
