# generated using pymatgen
data_HfZrTaTiMo
_symmetry_space_group_name_H-M   'P 1'
_cell_length_a   15.18906782
_cell_length_b   15.19524112
_cell_length_c   16.79203768
_cell_angle_alpha   90.02479255
_cell_angle_beta   90.03070989
_cell_angle_gamma   90.00734476
_symmetry_Int_Tables_number   1
_chemical_formula_structural   HfZrTaTiMo
_chemical_formula_sum   'Hf40 Zr40 Ta40 Ti40 Mo40'
_cell_volume   3875.62733733
_cell_formula_units_Z   40
loop_
 _symmetry_equiv_pos_site_id
 _symmetry_equiv_pos_as_xyz
  1  'x, y, z'
loop_
 _atom_site_type_symbol
 _atom_site_label
 _atom_site_symmetry_multiplicity
 _atom_site_fract_x
 _atom_site_fract_y
 _atom_site_fract_z
 _atom_site_occupancy
  Hf  Hf0  1  0.49375873  0.92136980  0.87426851  1
  Hf  Hf1  1  0.29402229  0.49501678  0.86235991  1
  Hf  Hf2  1  0.79505890  0.00708208  0.49264173  1
  Hf  Hf3  1  0.59766107  -0.00555349  0.49648962  1
  Hf  Hf4  1  0.60902480  0.81170721  0.75935530  1
  Hf  Hf5  1  0.49054949  0.50267843  0.11636004  1
  Hf  Hf6  1  0.60650430  0.81505954  -0.01458465  1
  Hf  Hf7  1  0.91146842  0.68968010  0.86910604  1
  Hf  Hf8  1  0.58951715  0.38378676  0.00620183  1
  Hf  Hf9  1  0.07599291  0.28692578  0.60341048  1
  Hf  Hf10  1  0.11943221  0.68392185  0.62521104  1
  Hf  Hf11  1  0.60820656  0.18205147  0.00914630  1
  Hf  Hf12  1  0.59247050  0.39711303  0.74502425  1
  Hf  Hf13  1  0.68903644  0.27759504  0.86664341  1
  Hf  Hf14  1  0.21255471  0.61458784  0.24972083  1
  Hf  Hf15  1  0.30144893  0.90708265  0.11574061  1
  Hf  Hf16  1  0.80503812  0.79788493  0.00060441  1
  Hf  Hf17  1  0.49627363  0.49769314  0.87439146  1
  Hf  Hf18  1  0.01287243  0.20159369  0.00371902  1
  Hf  Hf19  1  0.18308479  0.38716570  0.74489356  1
  Hf  Hf20  1  0.71013491  0.48847515  0.87513302  1
  Hf  Hf21  1  0.00868902  0.00954600  0.73882722  1
  Hf  Hf22  1  0.38690579  0.39160388  0.00326492  1
  Hf  Hf23  1  0.38100952  0.61417341  0.50876889  1
  Hf  Hf24  1  0.39179681  0.00576084  0.25240846  1
  Hf  Hf25  1  0.01051798  0.59728953  0.26302990  1
  Hf  Hf26  1  -0.03176649  0.38761137  0.74656548  1
  Hf  Hf27  1  0.10233687  0.28202801  0.39133230  1
  Hf  Hf28  1  0.60686189  0.60804420  -0.01051622  1
  Hf  Hf29  1  0.19686193  -0.01822978  0.51906415  1
  Hf  Hf30  1  0.69802925  0.50816441  0.61805014  1
  Hf  Hf31  1  0.60875253  0.00244927  0.26194861  1
  Hf  Hf32  1  0.10572605  0.89872468  0.87330320  1
  Hf  Hf33  1  0.58933980  0.39328376  0.24654964  1
  Hf  Hf34  1  0.89260903  0.47662615  0.59911053  1
  Hf  Hf35  1  0.70221845  0.50428683  0.12913263  1
  Hf  Hf36  1  0.00502449  0.79609045  0.73615780  1
  Hf  Hf37  1  0.48880054  0.70515330  0.37223581  1
  Hf  Hf38  1  0.00473252  0.39513270  0.26713864  1
  Hf  Hf39  1  0.12791842  0.71356750  0.38333483  1
  Zr  Zr40  1  0.81148670  0.58438177  0.74938299  1
  Zr  Zr41  1  -0.00162409  0.00662318  0.50538995  1
  Zr  Zr42  1  0.58998205  0.59752352  0.25237515  1
  Zr  Zr43  1  0.89892692  0.89619618  0.86836133  1
  Zr  Zr44  1  0.69914023  0.09898678  0.63841993  1
  Zr  Zr45  1  0.49602182  0.70738353  0.11927822  1
  Zr  Zr46  1  0.88693270  0.92335439  0.13567173  1
  Zr  Zr47  1  0.79209921  0.38486751  0.01204459  1
  Zr  Zr48  1  0.19411544  0.37529268  -0.00670471  1
  Zr  Zr49  1  0.20629938  0.59664425  -0.00197352  1
  Zr  Zr50  1  0.19781772  0.79617691  -0.00548639  1
  Zr  Zr51  1  0.01355946  0.80670673  0.25095483  1
  Zr  Zr52  1  0.00143378  0.61685682  0.01229309  1
  Zr  Zr53  1  -0.01399771  0.00847014  0.00211368  1
  Zr  Zr54  1  0.11897723  0.28603023  0.14019657  1
  Zr  Zr55  1  0.30842123  0.29439504  0.39681127  1
  Zr  Zr56  1  0.71092290  0.30811860  0.62306287  1
  Zr  Zr57  1  0.70147598  0.71294551  0.35869573  1
  Zr  Zr58  1  0.31517538  0.09045136  0.86451009  1
  Zr  Zr59  1  0.59850515  0.19310916  0.50254696  1
  Zr  Zr60  1  0.89196946  0.70449940  0.14884863  1
  Zr  Zr61  1  0.49197108  0.50170477  0.62270675  1
  Zr  Zr62  1  0.40059029  0.19234050  0.00685633  1
  Zr  Zr63  1  0.40252051  0.00676272  0.51357581  1
  Zr  Zr64  1  0.08171676  0.50065770  0.87088798  1
  Zr  Zr65  1  0.01193252  0.80613011  0.50688885  1
  Zr  Zr66  1  0.01114472  0.59243937  0.48681813  1
  Zr  Zr67  1  0.59506886  0.61575216  0.49928402  1
  Zr  Zr68  1  0.11227496  0.10085527  0.87274192  1
  Zr  Zr69  1  0.89710674  0.90010280  0.36461021  1
  Zr  Zr70  1  0.90470621  0.28964109  0.14449691  1
  Zr  Zr71  1  0.28276072  0.51001335  0.63472875  1
  Zr  Zr72  1  0.41084759  0.81007687  0.51891699  1
  Zr  Zr73  1  0.49548766  0.29967779  0.37881523  1
  Zr  Zr74  1  0.70164469  0.71028190  0.13667302  1
  Zr  Zr75  1  -0.01357689  0.40533313  0.00310592  1
  Zr  Zr76  1  0.21131405  0.40192496  0.26632665  1
  Zr  Zr77  1  0.10209385  0.49825178  0.12848719  1
  Zr  Zr78  1  0.81087064  0.17560664  0.01074467  1
  Zr  Zr79  1  0.79761507  0.80352454  0.49938564  1
  Ta  Ta80  1  0.89269413  0.49418883  0.37958194  1
  Ta  Ta81  1  0.69269609  0.49785097  0.37707493  1
  Ta  Ta82  1  0.70058789  0.29455789  0.37201749  1
  Ta  Ta83  1  0.01941441  0.00721198  0.25511165  1
  Ta  Ta84  1  0.51781172  0.11099350  0.85717510  1
  Ta  Ta85  1  0.79395483  0.39873493  0.25801942  1
  Ta  Ta86  1  0.19215285  0.19222324  0.73036046  1
  Ta  Ta87  1  0.89662900  0.69838255  0.36455302  1
  Ta  Ta88  1  0.89371007  0.50268578  0.14328928  1
  Ta  Ta89  1  0.49088543  0.10597387  0.37318948  1
  Ta  Ta90  1  0.90554103  0.11599389  0.62886715  1
  Ta  Ta91  1  0.39019833  0.38970840  0.74473354  1
  Ta  Ta92  1  0.70751520  0.70555958  0.63344726  1
  Ta  Ta93  1  0.10428966  0.91271374  0.12050928  1
  Ta  Ta94  1  0.90564629  0.10733966  0.36153765  1
  Ta  Ta95  1  0.08871064  0.48865975  0.62193754  1
  Ta  Ta96  1  0.39235636  0.80092824  0.24802754  1
  Ta  Ta97  1  0.81309873  0.20803165  0.75104448  1
  Ta  Ta98  1  0.80987306  0.59349938  -0.00166268  1
  Ta  Ta99  1  0.39676260  0.60736167  -0.01201460  1
  Ta  Ta100  1  0.48395306  0.49680284  0.38361178  1
  Ta  Ta101  1  0.80774181  0.20073467  0.49284356  1
  Ta  Ta102  1  0.68975972  0.91731058  0.12347204  1
  Ta  Ta103  1  0.59883117  0.19252039  0.24625924  1
  Ta  Ta104  1  0.48469727  0.29421559  0.86678297  1
  Ta  Ta105  1  0.59622286  0.40291616  0.49578197  1
  Ta  Ta106  1  0.89883021  0.68952400  0.62149866  1
  Ta  Ta107  1  0.18847220  0.41727045  0.49486494  1
  Ta  Ta108  1  0.29035303  0.89516832  0.37827603  1
  Ta  Ta109  1  0.79819889  0.60443844  0.49037301  1
  Ta  Ta110  1  0.49705210  0.70573382  0.86784502  1
  Ta  Ta111  1  0.89014374  0.90141172  0.63225648  1
  Ta  Ta112  1  0.79632136  -0.00385448  0.75639175  1
  Ta  Ta113  1  0.30373283  0.70270256  0.85704641  1
  Ta  Ta114  1  0.49189748  0.90105412  0.37304381  1
  Ta  Ta115  1  0.49711218  0.90672776  0.11491173  1
  Ta  Ta116  1  0.39677223  0.20341890  0.73371568  1
  Ta  Ta117  1  0.29084073  0.30357097  0.60477040  1
  Ta  Ta118  1  0.60260498  0.60540228  0.75660319  1
  Ta  Ta119  1  0.39850847  0.80277422  -0.01243492  1
  Ti  Ti120  1  0.10939887  0.71179243  0.12894737  1
  Ti  Ti121  1  0.60320833  0.80631677  0.50438180  1
  Ti  Ti122  1  0.40306678  0.60280175  0.74976279  1
  Ti  Ti123  1  0.20802154  -0.00677972  0.73076586  1
  Ti  Ti124  1  0.10553936  0.09644197  0.13062540  1
  Ti  Ti125  1  0.89807290  0.29467550  0.37561754  1
  Ti  Ti126  1  0.69963949  0.89837677  0.63140879  1
  Ti  Ti127  1  0.28910007  0.28178918  0.86585694  1
  Ti  Ti128  1  0.58998984  0.81380212  0.24776862  1
  Ti  Ti129  1  0.22357896  0.78980485  0.51928857  1
  Ti  Ti130  1  0.30666961  0.70143083  0.11938627  1
  Ti  Ti131  1  0.20824938  0.80061908  0.74009898  1
  Ti  Ti132  1  0.50974862  0.70735432  0.63968289  1
  Ti  Ti133  1  0.40216985  0.20673757  0.23912166  1
  Ti  Ti134  1  0.79375241  0.18810802  0.25257017  1
  Ti  Ti135  1  0.50660483  0.08960410  0.12707754  1
  Ti  Ti136  1  0.29974790  0.10782450  0.61973979  1
  Ti  Ti137  1  0.39688548  0.40055147  0.24242181  1
  Ti  Ti138  1  0.29716150  0.49798383  0.12428119  1
  Ti  Ti139  1  0.09017985  0.28836833  0.86615291  1
  Ti  Ti140  1  0.21010428  0.18219860  0.25947170  1
  Ti  Ti141  1  0.69633924  0.28714666  0.13653262  1
  Ti  Ti142  1  0.39600487  0.59759889  0.25160273  1
  Ti  Ti143  1  0.77132740  -0.00404672  -0.01923313  1
  Ti  Ti144  1  0.90002483  0.10808552  0.86518225  1
  Ti  Ti145  1  0.29586203  0.51654659  0.38396994  1
  Ti  Ti146  1  0.48830314  0.29873044  0.61183120  1
  Ti  Ti147  1  0.89104958  0.30357526  0.87964685  1
  Ti  Ti148  1  0.00519808  0.58879734  0.73955648  1
  Ti  Ti149  1  0.71427895  0.70475851  0.86589915  1
  Ti  Ti150  1  0.00012213  0.80758030  0.00949083  1
  Ti  Ti151  1  0.40364191  0.80995116  0.74314414  1
  Ti  Ti152  1  0.29395960  0.10710638  0.12334441  1
  Ti  Ti153  1  0.20824166  0.01190896  -0.00170923  1
  Ti  Ti154  1  0.41068712  0.00191459  0.72780048  1
  Ti  Ti155  1  0.20573779  0.82046225  0.24666213  1
  Ti  Ti156  1  0.29968345  0.90040879  0.86912002  1
  Ti  Ti157  1  0.29906899  0.09888464  0.38981885  1
  Ti  Ti158  1  0.10855831  0.69833935  0.86191165  1
  Ti  Ti159  1  0.11170434  0.08690158  0.38031436  1
  Mo  Mo160  1  0.20583675  0.19704746  0.00073568  1
  Mo  Mo161  1  0.89705341  0.49682362  0.88082545  1
  Mo  Mo162  1  0.19292378  0.60001988  0.75878539  1
  Mo  Mo163  1  0.30989790  0.71158328  0.37241028  1
  Mo  Mo164  1  0.79287810  0.39290713  0.75213432  1
  Mo  Mo165  1  0.00102502  0.20323718  0.75438973  1
  Mo  Mo166  1  0.80137252  0.59090916  0.26498651  1
  Mo  Mo167  1  0.30731249  0.29732414  0.13684200  1
  Mo  Mo168  1  0.10307643  0.09906687  0.62580101  1
  Mo  Mo169  1  0.20502153  0.00378954  0.25066289  1
  Mo  Mo170  1  0.01444711  0.19401002  0.26388182  1
  Mo  Mo171  1  0.19906757  0.18254020  0.51083011  1
  Mo  Mo172  1  0.68785871  0.90116693  0.37555376  1
  Mo  Mo173  1  0.89092002  0.29115089  0.61214408  1
  Mo  Mo174  1  0.59494713  0.00863837  -0.00113344  1
  Mo  Mo175  1  0.20288042  0.60494458  0.50080440  1
  Mo  Mo176  1  0.10600003  0.49957105  0.37632156  1
  Mo  Mo177  1  0.31217620  0.70099873  0.65016079  1
  Mo  Mo178  1  0.10132383  0.89184639  0.63377595  1
  Mo  Mo179  1  0.39972573  0.19812051  0.51157819  1
  Mo  Mo180  1  0.71459503  0.09189166  0.12959886  1
  Mo  Mo181  1  0.40384875  0.00100190  0.00097120  1
  Mo  Mo182  1  0.30550238  0.89765693  0.63827476  1
  Mo  Mo183  1  0.70050540  0.10938370  0.37591526  1
  Mo  Mo184  1  0.78266748  0.82252969  0.25283542  1
  Mo  Mo185  1  0.80566029  0.79543177  0.74022508  1
  Mo  Mo186  1  0.70308268  0.09468174  0.85756341  1
  Mo  Mo187  1  0.50085458  0.10719692  0.63595303  1
  Mo  Mo188  1  0.58978644  0.20676585  0.73791184  1
  Mo  Mo189  1  0.11245086  0.90631377  0.37517445  1
  Mo  Mo190  1  -0.00785041  0.18549729  0.48820963  1
  Mo  Mo191  1  0.51524819  0.90411818  0.63485742  1
  Mo  Mo192  1  0.49887898  0.29109474  0.13351232  1
  Mo  Mo193  1  -0.00745562  0.39171182  0.48153822  1
  Mo  Mo194  1  0.70183969  0.90197646  0.86965681  1
  Mo  Mo195  1  0.39501822  0.40924952  0.50384694  1
  Mo  Mo196  1  0.60031703  0.00344384  0.74486847  1
  Mo  Mo197  1  0.79871952  0.00827589  0.26069473  1
  Mo  Mo198  1  0.78920347  0.39637589  0.47958815  1
  Mo  Mo199  1  0.91791779  0.10849587  0.15489780  1
