# generated using pymatgen
data_HfZrTaTiMo
_symmetry_space_group_name_H-M   'P 1'
_cell_length_a   15.21396393
_cell_length_b   15.21711344
_cell_length_c   16.83089945
_cell_angle_alpha   89.98827200
_cell_angle_beta   89.94555153
_cell_angle_gamma   90.03118200
_symmetry_Int_Tables_number   1
_chemical_formula_structural   HfZrTaTiMo
_chemical_formula_sum   'Hf40 Zr40 Ta40 Ti40 Mo40'
_cell_volume   3896.56312545
_cell_formula_units_Z   40
loop_
 _symmetry_equiv_pos_site_id
 _symmetry_equiv_pos_as_xyz
  1  'x, y, z'
loop_
 _atom_site_type_symbol
 _atom_site_label
 _atom_site_symmetry_multiplicity
 _atom_site_fract_x
 _atom_site_fract_y
 _atom_site_fract_z
 _atom_site_occupancy
  Hf  Hf0  1  0.29959047  0.09736528  0.86659961  1
  Hf  Hf1  1  0.50907368  0.29249392  0.89113223  1
  Hf  Hf2  1  0.89636134  0.28708144  0.63086508  1
  Hf  Hf3  1  0.30051815  0.67501481  0.14622488  1
  Hf  Hf4  1  0.60919391  0.21129811  0.51678022  1
  Hf  Hf5  1  0.81040570  0.00042455  0.51002235  1
  Hf  Hf6  1  0.09784411  0.90064063  0.12093852  1
  Hf  Hf7  1  0.40286207  0.19666460  0.74057717  1
  Hf  Hf8  1  0.68929780  0.49979481  0.36768991  1
  Hf  Hf9  1  0.01043933  -0.00761188  0.74007885  1
  Hf  Hf10  1  0.09543307  0.32124619  0.63417503  1
  Hf  Hf11  1  0.69815040  0.88040923  0.13202556  1
  Hf  Hf12  1  0.09572242  0.70532229  0.12524176  1
  Hf  Hf13  1  0.59508260  0.00635497  0.25492265  1
  Hf  Hf14  1  0.27898968  0.49938902  0.86395107  1
  Hf  Hf15  1  0.10410670  0.11303102  0.87373342  1
  Hf  Hf16  1  0.58714144  0.60262191  0.49393487  1
  Hf  Hf17  1  0.20259995  0.01641425  0.01126801  1
  Hf  Hf18  1  0.10068802  0.91055997  0.88873752  1
  Hf  Hf19  1  0.10661964  0.31296032  0.85709311  1
  Hf  Hf20  1  0.30687384  0.09731910  0.36711474  1
  Hf  Hf21  1  0.39396536  -0.02648329  0.49902745  1
  Hf  Hf22  1  0.39372137  0.79746787  0.75307229  1
  Hf  Hf23  1  0.60926731  -0.00690686  0.74545866  1
  Hf  Hf24  1  -0.01286610  0.79990306  -0.00648998  1
  Hf  Hf25  1  0.59523744  0.40211090  0.23045121  1
  Hf  Hf26  1  0.49689036  0.08869095  0.62103027  1
  Hf  Hf27  1  0.60143881  0.38791926  0.74590199  1
  Hf  Hf28  1  0.60708608  0.19720294  0.74524169  1
  Hf  Hf29  1  0.49196253  0.51103122  0.11514478  1
  Hf  Hf30  1  0.09986027  0.50473029  0.37549569  1
  Hf  Hf31  1  0.50071535  0.30890581  0.37088454  1
  Hf  Hf32  1  0.90059086  0.08397777  0.86829301  1
  Hf  Hf33  1  0.88421987  0.50286492  0.36882591  1
  Hf  Hf34  1  0.50180605  0.10636972  0.37981189  1
  Hf  Hf35  1  -0.00552122  0.61387360  0.25934729  1
  Hf  Hf36  1  0.60059179  0.61417599  0.24028899  1
  Hf  Hf37  1  0.01294074  -0.00226259  0.49492577  1
  Hf  Hf38  1  -0.01201625  0.61287678  0.49688738  1
  Hf  Hf39  1  0.90818188  0.29745754  0.87311011  1
  Zr  Zr40  1  0.71607781  0.90092834  0.36597303  1
  Zr  Zr41  1  0.10831271  0.29540865  0.14291034  1
  Zr  Zr42  1  0.82156667  0.18138136  0.00259296  1
  Zr  Zr43  1  0.69539574  0.08648221  0.10580085  1
  Zr  Zr44  1  0.58956016  0.59680322  0.74944502  1
  Zr  Zr45  1  -0.00924867  0.81122028  0.27492472  1
  Zr  Zr46  1  0.69731675  0.48520988  0.90040361  1
  Zr  Zr47  1  0.10480353  0.69550114  0.88147294  1
  Zr  Zr48  1  0.59346857  0.80069782  0.48459417  1
  Zr  Zr49  1  0.89422595  0.10703024  0.38021397  1
  Zr  Zr50  1  0.00589238  0.40553085  0.00837801  1
  Zr  Zr51  1  0.89439804  0.89848747  0.12797393  1
  Zr  Zr52  1  0.69720600  0.29761261  0.10427640  1
  Zr  Zr53  1  0.79402275  0.39158891  0.50907363  1
  Zr  Zr54  1  0.69436768  0.69545777  0.87439593  1
  Zr  Zr55  1  0.50358456  0.50444976  0.88910607  1
  Zr  Zr56  1  0.20641614  0.40054738  0.48938510  1
  Zr  Zr57  1  0.38848131  0.39942766  0.00390666  1
  Zr  Zr58  1  0.79863653  0.39044260  0.75232377  1
  Zr  Zr59  1  0.31418323  0.10195784  0.15211571  1
  Zr  Zr60  1  0.00002329  0.60310864  0.73772458  1
  Zr  Zr61  1  0.19558428  -0.00910499  0.25754811  1
  Zr  Zr62  1  0.20051234  0.61874308  0.73527680  1
  Zr  Zr63  1  0.60738608  -0.00136580  0.50083699  1
  Zr  Zr64  1  0.19430808  0.81699823  0.74861062  1
  Zr  Zr65  1  0.11154423  0.50370433  0.14234029  1
  Zr  Zr66  1  0.39686351  0.21119258  0.51070028  1
  Zr  Zr67  1  0.19481765  0.20397074  0.50376613  1
  Zr  Zr68  1  0.81166499  0.79308047  0.49011970  1
  Zr  Zr69  1  0.48964818  0.49678358  0.62225497  1
  Zr  Zr70  1  0.38212035  0.61002341  -0.00532938  1
  Zr  Zr71  1  0.70280306  0.29950693  0.36649329  1
  Zr  Zr72  1  0.79649124  0.59377697  0.74495474  1
  Zr  Zr73  1  0.78869110  0.59641217  0.50988476  1
  Zr  Zr74  1  0.39697595  0.39839024  0.75637836  1
  Zr  Zr75  1  0.80628967  0.01442992  0.24531550  1
  Zr  Zr76  1  0.38357636  0.19475542  0.00263547  1
  Zr  Zr77  1  0.20955788  0.61599620  0.49419392  1
  Zr  Zr78  1  0.41162257  -0.00127433  0.00085181  1
  Zr  Zr79  1  0.30204389  0.88361449  0.13806171  1
  Ta  Ta80  1  0.59805828  0.80059593  0.74936304  1
  Ta  Ta81  1  0.70598395  0.50970200  0.11301091  1
  Ta  Ta82  1  0.20106236  0.20148610  0.73287815  1
  Ta  Ta83  1  -0.00493971  0.39930529  0.25732574  1
  Ta  Ta84  1  0.32320875  0.88259750  0.35752823  1
  Ta  Ta85  1  0.01993766  0.20209664  0.00726470  1
  Ta  Ta86  1  0.49344308  0.71102708  0.87760233  1
  Ta  Ta87  1  0.70154850  0.28365679  0.89671759  1
  Ta  Ta88  1  0.20876967  0.81917335  0.48103076  1
  Ta  Ta89  1  0.28879281  0.08303435  0.62217345  1
  Ta  Ta90  1  0.70220826  0.11346638  0.37592636  1
  Ta  Ta91  1  -0.00591641  0.19704821  0.25378561  1
  Ta  Ta92  1  0.48738938  0.69931760  0.62024096  1
  Ta  Ta93  1  0.40851499  0.79937411  0.00533084  1
  Ta  Ta94  1  0.08681918  0.73217959  0.60664083  1
  Ta  Ta95  1  0.90490140  0.50238144  0.87759797  1
  Ta  Ta96  1  0.68845290  0.70565075  0.62880048  1
  Ta  Ta97  1  0.80878929  0.60693746  0.00426527  1
  Ta  Ta98  1  0.71088181  0.88944524  0.62604119  1
  Ta  Ta99  1  0.00276990  0.00495030  0.25906419  1
  Ta  Ta100  1  0.20067913  0.38841518  0.00333659  1
  Ta  Ta101  1  0.19216257  0.78178511  0.27212499  1
  Ta  Ta102  1  0.10316907  0.11377061  0.37324226  1
  Ta  Ta103  1  0.59274259  0.79946611  0.26128905  1
  Ta  Ta104  1  0.92115060  0.88913812  0.62262808  1
  Ta  Ta105  1  0.69527259  0.08319558  0.88829743  1
  Ta  Ta106  1  0.80158447  0.80520488  0.75510799  1
  Ta  Ta107  1  0.50199656  0.90823025  0.13196237  1
  Ta  Ta108  1  0.39977129  -0.01109028  0.74690633  1
  Ta  Ta109  1  -0.01194970  0.01220989  0.00627168  1
  Ta  Ta110  1  0.89304536  0.70975351  0.63018896  1
  Ta  Ta111  1  -0.00197785  0.19479714  0.74355391  1
  Ta  Ta112  1  0.29841648  0.29855874  0.14260935  1
  Ta  Ta113  1  0.29698824  0.50703244  0.62640440  1
  Ta  Ta114  1  0.79236498  0.80234848  -0.01259329  1
  Ta  Ta115  1  0.89814388  0.30073781  0.36884381  1
  Ta  Ta116  1  0.90291908  0.29502915  0.13488233  1
  Ta  Ta117  1  0.39855333  0.40399715  0.24198269  1
  Ta  Ta118  1  -0.00531597  0.59883364  0.00574360  1
  Ta  Ta119  1  0.19140660  0.58502057  0.00226177  1
  Ti  Ti120  1  -0.00301631  0.20848354  0.49852282  1
  Ti  Ti121  1  0.29985434  0.71700819  0.61374130  1
  Ti  Ti122  1  0.09007909  0.50020958  0.86777218  1
  Ti  Ti123  1  0.50449963  0.09454598  0.87305462  1
  Ti  Ti124  1  -0.00312357  0.80209073  0.75872109  1
  Ti  Ti125  1  0.30091210  0.31258859  0.62966780  1
  Ti  Ti126  1  0.09336180  0.10742362  0.61945850  1
  Ti  Ti127  1  0.80840980  -0.00953422  0.74274496  1
  Ti  Ti128  1  0.21398632  0.78576767  -0.00030023  1
  Ti  Ti129  1  0.88170294  0.70193128  0.13026587  1
  Ti  Ti130  1  0.59431300  0.39923556  0.50903420  1
  Ti  Ti131  1  0.79763058  0.39934752  0.23718012  1
  Ti  Ti132  1  0.31149250  0.50958156  0.36628896  1
  Ti  Ti133  1  0.71626542  0.09972223  0.62911734  1
  Ti  Ti134  1  0.49196168  0.50551841  0.36948623  1
  Ti  Ti135  1  0.90083672  0.50479830  0.13384113  1
  Ti  Ti136  1  0.59793552  0.62368253  0.01227105  1
  Ti  Ti137  1  0.20584302  0.00289132  0.74674973  1
  Ti  Ti138  1  0.90004280  0.69564048  0.87076131  1
  Ti  Ti139  1  0.49648397  0.28358657  0.11778271  1
  Ti  Ti140  1  0.20161312  0.40019054  0.26528805  1
  Ti  Ti141  1  0.50950839  0.90370233  0.87349148  1
  Ti  Ti142  1  0.39379679  0.60694817  0.75634877  1
  Ti  Ti143  1  0.69527299  0.49469420  0.62537283  1
  Ti  Ti144  1  0.10155905  0.51041239  0.61565286  1
  Ti  Ti145  1  0.59792548  0.81215605  -0.00289347  1
  Ti  Ti146  1  0.29142547  0.29337198  0.86753912  1
  Ti  Ti147  1  0.39811815  0.40968725  0.49698150  1
  Ti  Ti148  1  0.91021800  0.48981070  0.62568688  1
  Ti  Ti149  1  -0.00177908  0.39826754  0.49152395  1
  Ti  Ti150  1  0.30589243  0.89342998  0.88392836  1
  Ti  Ti151  1  0.80274147  0.19784223  0.50820892  1
  Ti  Ti152  1  0.79693549  0.18722327  0.75547443  1
  Ti  Ti153  1  0.47481820  0.70255452  0.37080847  1
  Ti  Ti154  1  0.12947912  0.91492237  0.60831716  1
  Ti  Ti155  1  0.81422016  0.40204717  0.00655551  1
  Ti  Ti156  1  0.50015573  0.88365063  0.62458663  1
  Ti  Ti157  1  0.30260271  0.29397924  0.35987150  1
  Ti  Ti158  1  0.60621695  0.19937785  0.24042514  1
  Ti  Ti159  1  0.10150144  0.10610984  0.13725562  1
  Mo  Mo160  1  0.39565551  0.78161564  0.49757511  1
  Mo  Mo161  1  0.40714107  0.59146825  0.24899950  1
  Mo  Mo162  1  0.91508829  0.10322392  0.12661625  1
  Mo  Mo163  1  0.49176724  0.30247722  0.62000045  1
  Mo  Mo164  1  0.80336420  -0.01920827  -0.00551596  1
  Mo  Mo165  1  0.90324843  0.90892791  0.37495327  1
  Mo  Mo166  1  0.79627819  0.59425286  0.23589838  1
  Mo  Mo167  1  0.89821418  0.89516383  0.87248740  1
  Mo  Mo168  1  0.41765553  0.20750221  0.24988222  1
  Mo  Mo169  1  0.88297889  0.69883112  0.37049472  1
  Mo  Mo170  1  -0.00649172  0.40865081  0.74935036  1
  Mo  Mo171  1  0.19643919  0.41096448  0.73790627  1
  Mo  Mo172  1  0.50309859  0.71835570  0.12285993  1
  Mo  Mo173  1  0.59211637  0.18597789  -0.00462395  1
  Mo  Mo174  1  0.41189467  -0.00731944  0.25552960  1
  Mo  Mo175  1  0.90468953  0.09416394  0.63195012  1
  Mo  Mo176  1  0.69954253  0.29674177  0.62711591  1
  Mo  Mo177  1  0.39642332  0.59836798  0.49739979  1
  Mo  Mo178  1  0.11128196  0.90993433  0.37942552  1
  Mo  Mo179  1  0.30118792  0.69086987  0.36185931  1
  Mo  Mo180  1  0.20707636  0.00487081  0.48650170  1
  Mo  Mo181  1  0.19903376  0.20741222  0.00220557  1
  Mo  Mo182  1  0.49812295  0.89879473  0.36724924  1
  Mo  Mo183  1  0.59829665  -0.01375594  -0.00452136  1
  Mo  Mo184  1  0.70097651  0.89938985  0.86804198  1
  Mo  Mo185  1  0.50517893  0.10299718  0.12947573  1
  Mo  Mo186  1  0.28999585  0.48636035  0.13351399  1
  Mo  Mo187  1  0.41099792  0.78859789  0.24088634  1
  Mo  Mo188  1  0.79981844  0.20923260  0.24105691  1
  Mo  Mo189  1  0.08973766  0.30175718  0.36932372  1
  Mo  Mo190  1  0.70062578  0.69014748  0.36863662  1
  Mo  Mo191  1  0.60028330  0.39841217  0.01403245  1
  Mo  Mo192  1  0.79158397  0.77653334  0.25951262  1
  Mo  Mo193  1  0.09616885  0.70515290  0.39113023  1
  Mo  Mo194  1  0.30837446  0.90046262  0.62362685  1
  Mo  Mo195  1  0.00396208  0.80598225  0.48652096  1
  Mo  Mo196  1  0.69977261  0.70394686  0.11434235  1
  Mo  Mo197  1  0.30020232  0.70594266  0.88050617  1
  Mo  Mo198  1  0.19801978  0.59524413  0.26752215  1
  Mo  Mo199  1  0.20044587  0.20519013  0.26435240  1
