# generated using pymatgen
data_HfZrTaTiMo
_symmetry_space_group_name_H-M   'P 1'
_cell_length_a   15.20762926
_cell_length_b   15.21409309
_cell_length_c   16.85182734
_cell_angle_alpha   89.94460305
_cell_angle_beta   89.98549535
_cell_angle_gamma   89.99469966
_symmetry_Int_Tables_number   1
_chemical_formula_structural   HfZrTaTiMo
_chemical_formula_sum   'Hf40 Zr40 Ta40 Ti40 Mo40'
_cell_volume   3899.01016963
_cell_formula_units_Z   40
loop_
 _symmetry_equiv_pos_site_id
 _symmetry_equiv_pos_as_xyz
  1  'x, y, z'
loop_
 _atom_site_type_symbol
 _atom_site_label
 _atom_site_symmetry_multiplicity
 _atom_site_fract_x
 _atom_site_fract_y
 _atom_site_fract_z
 _atom_site_occupancy
  Hf  Hf0  1  0.30297937  0.72287137  0.38857273  1
  Hf  Hf1  1  0.31219722  0.51361987  0.12410840  1
  Hf  Hf2  1  0.91023571  0.90206931  0.37454354  1
  Hf  Hf3  1  0.59129257  0.58169436  0.00311623  1
  Hf  Hf4  1  0.49685725  0.68093987  0.87500800  1
  Hf  Hf5  1  0.09218568  0.71152886  0.10986906  1
  Hf  Hf6  1  0.91940332  0.89856931  0.12050135  1
  Hf  Hf7  1  0.20745853  0.61669859  0.75077948  1
  Hf  Hf8  1  0.48288111  0.27842504  0.12569943  1
  Hf  Hf9  1  0.70094851  0.49001771  0.86528293  1
  Hf  Hf10  1  0.10084232  0.28746393  0.86587682  1
  Hf  Hf11  1  0.08921429  0.11191819  0.37012936  1
  Hf  Hf12  1  0.31204826  0.50834478  0.87493851  1
  Hf  Hf13  1  0.19529756  -0.00375833  0.49676045  1
  Hf  Hf14  1  0.39436205  0.79286872  0.74851443  1
  Hf  Hf15  1  0.29864462  0.70846621  0.11486226  1
  Hf  Hf16  1  0.59500963  0.58187515  0.73845270  1
  Hf  Hf17  1  0.00385904  0.40032420  -0.01111655  1
  Hf  Hf18  1  -0.00891238  0.80667291  0.76187324  1
  Hf  Hf19  1  0.10566973  0.90233032  0.64335863  1
  Hf  Hf20  1  0.70044778  0.10471766  0.38237146  1
  Hf  Hf21  1  0.29818013  0.11768219  0.87932051  1
  Hf  Hf22  1  -0.00163673  0.60659662  0.76566218  1
  Hf  Hf23  1  -0.02064051  0.01579952  0.76018752  1
  Hf  Hf24  1  0.20803867  0.80952896  0.24574804  1
  Hf  Hf25  1  0.18705156  0.61333773  0.50269882  1
  Hf  Hf26  1  0.09298083  0.10949574  0.63603063  1
  Hf  Hf27  1  0.70513114  0.89514889  0.37316518  1
  Hf  Hf28  1  0.81031054  0.80089345  0.24252757  1
  Hf  Hf29  1  0.39782712  0.40094430  0.00132090  1
  Hf  Hf30  1  0.91030391  0.69738456  0.37950345  1
  Hf  Hf31  1  0.18386357  0.41106685  0.25322052  1
  Hf  Hf32  1  0.70435188  0.49105570  0.36818191  1
  Hf  Hf33  1  -0.00784007  0.41283810  0.50491295  1
  Hf  Hf34  1  0.09770676  0.50559769  0.62838775  1
  Hf  Hf35  1  0.68900145  0.29628195  0.38594278  1
  Hf  Hf36  1  0.71466197  0.09131667  0.86352085  1
  Hf  Hf37  1  0.81872536  0.00244720  0.00188007  1
  Hf  Hf38  1  0.30541240  0.30231430  0.61011665  1
  Hf  Hf39  1  0.60225189  0.79088771  0.51232399  1
  Zr  Zr40  1  0.90503160  0.30196869  0.64087467  1
  Zr  Zr41  1  0.10630688  0.50240140  0.11688629  1
  Zr  Zr42  1  0.59175589  0.00345514  0.50255390  1
  Zr  Zr43  1  0.57936209  0.19174255  0.74613648  1
  Zr  Zr44  1  0.58857758  0.38563126  0.24904501  1
  Zr  Zr45  1  0.21351498  0.40093709  0.75503651  1
  Zr  Zr46  1  0.80188533  0.40237362  0.00529938  1
  Zr  Zr47  1  0.80961397  0.59206574  0.50099618  1
  Zr  Zr48  1  0.29691344  0.30244952  0.38528929  1
  Zr  Zr49  1  0.40547994  0.00900938  0.75804499  1
  Zr  Zr50  1  0.31120122  0.11015382  0.12377247  1
  Zr  Zr51  1  -0.00220143  0.00159899  0.50535989  1
  Zr  Zr52  1  0.41338385  0.18905501  0.48890007  1
  Zr  Zr53  1  0.40857946  0.00777888  -0.00872622  1
  Zr  Zr54  1  0.59681708  0.38003251  0.00743595  1
  Zr  Zr55  1  0.80109096  0.01137951  0.24208340  1
  Zr  Zr56  1  0.60893097  -0.01647270  0.74434511  1
  Zr  Zr57  1  0.68956067  0.69891108  0.36903496  1
  Zr  Zr58  1  0.39161776  0.39321755  0.25679656  1
  Zr  Zr59  1  0.19943220  0.21133593  0.24515984  1
  Zr  Zr60  1  0.49518049  0.87567690  0.37761993  1
  Zr  Zr61  1  0.19058299  0.20358788  0.00547621  1
  Zr  Zr62  1  0.80901646  0.59754148  0.24859725  1
  Zr  Zr63  1  0.50320372  0.87912661  0.13013675  1
  Zr  Zr64  1  0.60356951  0.78584167  0.73785644  1
  Zr  Zr65  1  0.70875240  0.68850701  0.87661272  1
  Zr  Zr66  1  0.70062298  0.90284275  0.12463041  1
  Zr  Zr67  1  0.61026240  -0.00918131  -0.00747021  1
  Zr  Zr68  1  0.69281758  0.49484314  0.13903527  1
  Zr  Zr69  1  0.31175771  0.50724800  0.61379010  1
  Zr  Zr70  1  0.68840054  0.29485040  0.85830683  1
  Zr  Zr71  1  -0.02946194  0.60922650  -0.00692902  1
  Zr  Zr72  1  0.39644618  -0.00912732  0.25763501  1
  Zr  Zr73  1  0.68946312  0.69869501  0.13229274  1
  Zr  Zr74  1  0.19375626  0.00620337  0.25235732  1
  Zr  Zr75  1  0.10314670  0.70763904  0.88265641  1
  Zr  Zr76  1  0.80199704  -0.00143298  0.51421856  1
  Zr  Zr77  1  0.88674562  0.29657019  0.86093825  1
  Zr  Zr78  1  0.10956918  0.91732775  0.11176490  1
  Zr  Zr79  1  0.89074852  0.30575924  0.37499228  1
  Ta  Ta80  1  0.30451715  0.70877223  0.88264598  1
  Ta  Ta81  1  0.81090773  0.79916091  0.51928650  1
  Ta  Ta82  1  0.20386589  0.61188606  0.25640362  1
  Ta  Ta83  1  0.40407339  0.59575110  0.27131479  1
  Ta  Ta84  1  0.29552428  0.90388682  0.63310267  1
  Ta  Ta85  1  0.90550606  0.48892533  0.13506391  1
  Ta  Ta86  1  0.29600120  0.09564389  0.62206838  1
  Ta  Ta87  1  0.49152654  0.67363380  0.12839772  1
  Ta  Ta88  1  0.89818893  0.11224844  0.37235886  1
  Ta  Ta89  1  0.39096001  -0.01251757  0.49358013  1
  Ta  Ta90  1  0.29601746  0.09531221  0.37956553  1
  Ta  Ta91  1  -0.01527364  0.20007462  0.00192643  1
  Ta  Ta92  1  0.48744535  0.89389052  0.61951732  1
  Ta  Ta93  1  0.89752577  0.50849091  0.63841042  1
  Ta  Ta94  1  0.09998637  0.70562810  0.37435238  1
  Ta  Ta95  1  0.50830018  0.88613839  0.87527419  1
  Ta  Ta96  1  0.00914706  0.79294663  0.51024356  1
  Ta  Ta97  1  -0.00377885  0.20661228  0.50441004  1
  Ta  Ta98  1  0.19146425  0.40235592  0.49702534  1
  Ta  Ta99  1  0.29188513  0.50732229  0.38575442  1
  Ta  Ta100  1  0.80274431  0.81085319  0.73037769  1
  Ta  Ta101  1  0.78887870  0.19770395  0.00712498  1
  Ta  Ta102  1  0.18941772  0.20130827  0.50161588  1
  Ta  Ta103  1  0.40819614  0.79699939  -0.00532062  1
  Ta  Ta104  1  0.00444245  0.41089581  0.76249803  1
  Ta  Ta105  1  0.81377590  0.78194413  0.00827016  1
  Ta  Ta106  1  0.59711627  -0.00172496  0.25748589  1
  Ta  Ta107  1  0.48941206  0.68649777  0.61669287  1
  Ta  Ta108  1  0.20621796  0.81906221  -0.01110921  1
  Ta  Ta109  1  0.58998296  0.18189320  -0.00477162  1
  Ta  Ta110  1  0.50779526  0.30474555  0.60520198  1
  Ta  Ta111  1  0.41774192  0.39545186  0.74580919  1
  Ta  Ta112  1  0.69887175  0.30149997  0.63637907  1
  Ta  Ta113  1  0.47858895  0.28235257  0.87852109  1
  Ta  Ta114  1  0.09094610  0.51254559  0.37579189  1
  Ta  Ta115  1  0.40771088  0.60315234  0.48744977  1
  Ta  Ta116  1  0.79604827  0.20841694  0.24219268  1
  Ta  Ta117  1  0.08739280  0.31119071  0.37802572  1
  Ta  Ta118  1  0.70199712  0.10173408  0.62996252  1
  Ta  Ta119  1  0.72281392  0.88315096  0.87569347  1
  Ti  Ti120  1  0.20096869  0.59940200  -0.00940726  1
  Ti  Ti121  1  0.27923248  0.31358556  0.12077378  1
  Ti  Ti122  1  0.19921209  0.40252997  -0.01657369  1
  Ti  Ti123  1  0.70760936  0.68663787  0.62145212  1
  Ti  Ti124  1  0.29520736  0.71622398  0.61387584  1
  Ti  Ti125  1  0.39108071  0.20755023  0.74039243  1
  Ti  Ti126  1  0.41545282  0.19152492  0.27574561  1
  Ti  Ti127  1  0.81579000  0.17797662  0.74094782  1
  Ti  Ti128  1  0.40207097  0.59322353  0.74257783  1
  Ti  Ti129  1  0.79588720  0.39684812  0.51204156  1
  Ti  Ti130  1  -0.00194060  0.00752582  0.24957757  1
  Ti  Ti131  1  0.90828637  0.49393620  0.36079085  1
  Ti  Ti132  1  0.09718438  0.70812217  0.63322442  1
  Ti  Ti133  1  0.40562406  0.78377747  0.25099849  1
  Ti  Ti134  1  0.60472828  0.58937254  0.50210187  1
  Ti  Ti135  1  -0.00487203  0.22191713  0.23824312  1
  Ti  Ti136  1  0.60346543  0.78937960  -0.00392264  1
  Ti  Ti137  1  0.20313588  0.19602128  0.74709621  1
  Ti  Ti138  1  0.51172523  0.08726465  0.13007589  1
  Ti  Ti139  1  0.10607678  0.89227028  0.37705604  1
  Ti  Ti140  1  0.09142040  0.11138162  0.12503845  1
  Ti  Ti141  1  0.50443842  0.48450498  0.38803633  1
  Ti  Ti142  1  0.01039112  0.79982837  0.24762950  1
  Ti  Ti143  1  0.80424821  0.61094236  0.74428104  1
  Ti  Ti144  1  0.88807459  0.50855615  0.86838452  1
  Ti  Ti145  1  0.01685340  0.01620853  -0.02076246  1
  Ti  Ti146  1  0.80265962  0.20015023  0.51427475  1
  Ti  Ti147  1  -0.00454445  0.81945872  -0.02237691  1
  Ti  Ti148  1  0.49231307  0.09756864  0.62050575  1
  Ti  Ti149  1  0.11441186  0.91934789  0.86284236  1
  Ti  Ti150  1  0.69860160  0.28690029  0.12760552  1
  Ti  Ti151  1  0.50432697  0.48882822  0.60898644  1
  Ti  Ti152  1  0.01024527  0.60309052  0.24154625  1
  Ti  Ti153  1  0.10289227  0.30553248  0.63228757  1
  Ti  Ti154  1  0.59983743  0.18594052  0.25098571  1
  Ti  Ti155  1  0.30056904  0.90540482  0.87054776  1
  Ti  Ti156  1  0.50604970  0.48115823  0.86984912  1
  Ti  Ti157  1  0.70186851  0.48791203  0.63087460  1
  Ti  Ti158  1  0.30606433  0.90868127  0.11145568  1
  Ti  Ti159  1  0.90011496  0.11056599  0.12717252  1
  Mo  Mo160  1  0.90799500  0.69771214  0.62561787  1
  Mo  Mo161  1  -0.00074651  0.60386158  0.50206985  1
  Mo  Mo162  1  -0.00374646  0.40775234  0.24966019  1
  Mo  Mo163  1  0.30299110  0.30686513  0.86714169  1
  Mo  Mo164  1  0.20141027  0.00278715  -0.00734857  1
  Mo  Mo165  1  0.50832768  0.29432606  0.39099537  1
  Mo  Mo166  1  0.29425215  0.90112757  0.37726359  1
  Mo  Mo167  1  0.20499370  0.80730807  0.76059441  1
  Mo  Mo168  1  0.69405316  0.10706948  0.12503502  1
  Mo  Mo169  1  0.60999470  0.40327769  0.50644267  1
  Mo  Mo170  1  0.19250752  0.80869016  0.50708937  1
  Mo  Mo171  1  0.90579375  0.89717494  0.62546337  1
  Mo  Mo172  1  0.40172877  0.20564882  0.00329437  1
  Mo  Mo173  1  0.10142673  0.50105750  0.87970784  1
  Mo  Mo174  1  0.58137086  0.59484430  0.26024826  1
  Mo  Mo175  1  0.89528214  0.90680124  0.88103574  1
  Mo  Mo176  1  0.49253170  0.49598641  0.13381299  1
  Mo  Mo177  1  0.59097967  0.39349463  0.74111738  1
  Mo  Mo178  1  0.00622763  0.20890782  0.74804093  1
  Mo  Mo179  1  0.90819356  0.70086722  0.12958538  1
  Mo  Mo180  1  0.39863928  0.60252407  -0.00184819  1
  Mo  Mo181  1  0.61141833  0.19658333  0.51719909  1
  Mo  Mo182  1  0.59058230  0.79245564  0.24987980  1
  Mo  Mo183  1  0.80239433  0.38930837  0.24409473  1
  Mo  Mo184  1  0.89760706  0.10593648  0.62104668  1
  Mo  Mo185  1  0.20598465  0.00781592  0.75225268  1
  Mo  Mo186  1  0.79835869  0.59272512  0.00930876  1
  Mo  Mo187  1  0.79903632  0.41351342  0.74274999  1
  Mo  Mo188  1  0.40374534  0.40532148  0.49053693  1
  Mo  Mo189  1  0.50575048  0.09514153  0.37222949  1
  Mo  Mo190  1  0.90073050  0.11000108  0.88081609  1
  Mo  Mo191  1  0.10035788  0.10371513  0.86734263  1
  Mo  Mo192  1  0.80072932  -0.00841579  0.73911814  1
  Mo  Mo193  1  0.39625190  0.80055578  0.51416939  1
  Mo  Mo194  1  0.08507359  0.30516518  0.11964275  1
  Mo  Mo195  1  0.50406601  0.09646562  0.87367828  1
  Mo  Mo196  1  0.88088377  0.71614637  0.87200488  1
  Mo  Mo197  1  0.90027985  0.29790427  0.12343207  1
  Mo  Mo198  1  0.50318961  0.68554062  0.38348361  1
  Mo  Mo199  1  0.69667421  0.89410142  0.62017086  1
