# generated using pymatgen
data_HfZrTaTiMo
_symmetry_space_group_name_H-M   'P 1'
_cell_length_a   15.20435861
_cell_length_b   15.20753542
_cell_length_c   16.84160244
_cell_angle_alpha   89.94754554
_cell_angle_beta   90.03393911
_cell_angle_gamma   89.87311734
_symmetry_Int_Tables_number   1
_chemical_formula_structural   HfZrTaTiMo
_chemical_formula_sum   'Hf40 Zr40 Ta40 Ti40 Mo40'
_cell_volume   3894.11729325
_cell_formula_units_Z   40
loop_
 _symmetry_equiv_pos_site_id
 _symmetry_equiv_pos_as_xyz
  1  'x, y, z'
loop_
 _atom_site_type_symbol
 _atom_site_label
 _atom_site_symmetry_multiplicity
 _atom_site_fract_x
 _atom_site_fract_y
 _atom_site_fract_z
 _atom_site_occupancy
  Hf  Hf0  1  0.19987912  -0.00093954  0.01681437  1
  Hf  Hf1  1  0.50133630  0.31050866  0.61105885  1
  Hf  Hf2  1  0.50539700  0.49643152  0.12492761  1
  Hf  Hf3  1  0.29086670  0.10874332  0.86837107  1
  Hf  Hf4  1  0.79839941  0.00126713  0.48493794  1
  Hf  Hf5  1  0.10702878  0.09595765  0.37005357  1
  Hf  Hf6  1  0.39224672  0.21407463  0.00479150  1
  Hf  Hf7  1  0.68063979  0.48180468  0.62067462  1
  Hf  Hf8  1  0.89954756  0.30612321  0.12668116  1
  Hf  Hf9  1  0.58354501  0.00088641  0.48113697  1
  Hf  Hf10  1  0.30820369  0.48608994  0.87895613  1
  Hf  Hf11  1  0.39710149  0.01427510  0.01603060  1
  Hf  Hf12  1  0.01232286  0.40478949  0.51740004  1
  Hf  Hf13  1  0.69309850  0.87493000  0.87349794  1
  Hf  Hf14  1  0.70033429  0.09478933  0.13778110  1
  Hf  Hf15  1  0.91037591  0.90767534  0.61773740  1
  Hf  Hf16  1  0.00744700  0.19376004  0.73868535  1
  Hf  Hf17  1  0.48674970  0.31296236  0.87525911  1
  Hf  Hf18  1  0.71251640  0.49117426  0.14498007  1
  Hf  Hf19  1  0.47573984  0.90917471  0.61567392  1
  Hf  Hf20  1  0.29568532  0.90133023  0.36021156  1
  Hf  Hf21  1  0.39497316  0.81571811  0.75577030  1
  Hf  Hf22  1  0.59195738  0.21287047  0.74246768  1
  Hf  Hf23  1  -0.00891357  0.81146945  0.75582169  1
  Hf  Hf24  1  0.70221682  0.32316616  0.86017667  1
  Hf  Hf25  1  0.38116726  0.60279550  0.49584566  1
  Hf  Hf26  1  0.11156113  0.51827010  0.37678845  1
  Hf  Hf27  1  0.71096035  0.49637155  0.37579650  1
  Hf  Hf28  1  0.60185425  -0.00127074  0.26768241  1
  Hf  Hf29  1  0.11399449  0.29836802  0.86929065  1
  Hf  Hf30  1  0.19366396  0.20018163  0.00657510  1
  Hf  Hf31  1  0.19098859  0.79775637  0.01577560  1
  Hf  Hf32  1  0.40512815  0.60336204  0.75658142  1
  Hf  Hf33  1  0.28631114  0.69028755  0.35734237  1
  Hf  Hf34  1  0.20983109  0.40169297  0.00841163  1
  Hf  Hf35  1  0.80844137  0.79248172  0.50280488  1
  Hf  Hf36  1  -0.00559527  0.59507819  -0.00373381  1
  Hf  Hf37  1  0.61899457  0.40283040  0.00809607  1
  Hf  Hf38  1  0.30277156  0.29879252  0.14396760  1
  Hf  Hf39  1  0.68531724  0.69432356  0.61296132  1
  Zr  Zr40  1  0.58941849  0.79917169  0.49047387  1
  Zr  Zr41  1  0.90887228  0.29251795  0.86940285  1
  Zr  Zr42  1  0.30104895  0.10201626  0.61548074  1
  Zr  Zr43  1  0.80793228  0.37638854  0.51399104  1
  Zr  Zr44  1  0.09952637  0.09226018  0.61165189  1
  Zr  Zr45  1  0.09597967  0.90775804  0.87335755  1
  Zr  Zr46  1  0.80561451  -0.01530144  -0.00629241  1
  Zr  Zr47  1  0.59096433  -0.00502007  0.74323811  1
  Zr  Zr48  1  0.39166350  0.79448284  0.22927311  1
  Zr  Zr49  1  0.40773812  0.00608457  0.24732104  1
  Zr  Zr50  1  0.78766874  0.58486795  -0.00275688  1
  Zr  Zr51  1  0.59823853  0.20227458  -0.00028238  1
  Zr  Zr52  1  0.30266080  0.71018691  0.63472243  1
  Zr  Zr53  1  0.69330061  0.10461427  0.61428863  1
  Zr  Zr54  1  0.10089297  0.10505272  0.14672650  1
  Zr  Zr55  1  0.69852823  0.69647873  0.14133060  1
  Zr  Zr56  1  0.81217532  0.58837900  0.51318726  1
  Zr  Zr57  1  0.10864617  0.70309379  0.64309867  1
  Zr  Zr58  1  0.01127038  0.60826339  0.51534807  1
  Zr  Zr59  1  0.69767153  0.10099450  0.86591727  1
  Zr  Zr60  1  0.60041090  -0.00209299  0.00417026  1
  Zr  Zr61  1  0.20034676  0.78820478  0.49588337  1
  Zr  Zr62  1  0.39040101  0.81508921  0.01584091  1
  Zr  Zr63  1  0.79833730  0.20149259  -0.00431236  1
  Zr  Zr64  1  0.21795011  0.38629730  0.74202469  1
  Zr  Zr65  1  0.88524176  0.70043132  0.87510653  1
  Zr  Zr66  1  0.89321186  0.09985019  0.12848102  1
  Zr  Zr67  1  0.78654564  0.79337710  0.73509600  1
  Zr  Zr68  1  -0.01473478  -0.00883831  0.25633619  1
  Zr  Zr69  1  -0.00947622  0.21623705  0.26724631  1
  Zr  Zr70  1  0.50631407  0.69560453  0.11975605  1
  Zr  Zr71  1  0.38700122  0.60207021  0.00164200  1
  Zr  Zr72  1  0.70321498  0.69131723  0.37051577  1
  Zr  Zr73  1  0.81145616  -0.00435801  0.74935039  1
  Zr  Zr74  1  0.79965522  0.59134072  0.73645106  1
  Zr  Zr75  1  0.00176567  0.59286747  0.74534866  1
  Zr  Zr76  1  0.52540320  0.50893536  0.88827150  1
  Zr  Zr77  1  0.19959769  0.40761849  0.25059515  1
  Zr  Zr78  1  0.59276160  0.19861245  0.27296877  1
  Zr  Zr79  1  0.51305814  0.71799219  0.89214179  1
  Ta  Ta80  1  0.12353952  0.29201346  0.61506314  1
  Ta  Ta81  1  0.11236322  0.89929586  0.63033713  1
  Ta  Ta82  1  0.80649140  0.38871895  0.72520261  1
  Ta  Ta83  1  0.10136453  0.89256930  0.36613175  1
  Ta  Ta84  1  0.29840284  0.90724933  0.87835965  1
  Ta  Ta85  1  0.40794479  0.40628429  0.26311800  1
  Ta  Ta86  1  0.00639860  -0.00643675  0.48566765  1
  Ta  Ta87  1  0.70533753  0.89357009  0.36833761  1
  Ta  Ta88  1  0.50353544  0.30517349  0.13468378  1
  Ta  Ta89  1  0.22301031  0.40725353  0.49713085  1
  Ta  Ta90  1  0.10192877  0.69895672  0.87345738  1
  Ta  Ta91  1  0.89912652  0.48135908  0.86423332  1
  Ta  Ta92  1  0.00828467  0.39825546  0.72781658  1
  Ta  Ta93  1  0.49225203  0.91612735  0.88007264  1
  Ta  Ta94  1  0.09592786  0.30428485  0.13018109  1
  Ta  Ta95  1  0.38396561  0.21595324  0.74331749  1
  Ta  Ta96  1  0.00281819  -0.00124140  0.00789725  1
  Ta  Ta97  1  0.58686413  0.59137420  0.26295294  1
  Ta  Ta98  1  0.78799307  0.78932202  0.00812706  1
  Ta  Ta99  1  0.00559264  0.39727930  0.00088341  1
  Ta  Ta100  1  0.81146147  0.38444500  0.26195807  1
  Ta  Ta101  1  0.48632196  0.69982814  0.36649078  1
  Ta  Ta102  1  0.59924661  0.60100629  0.74837127  1
  Ta  Ta103  1  0.48884175  0.10691815  0.87009599  1
  Ta  Ta104  1  0.60148331  0.39610575  0.26744014  1
  Ta  Ta105  1  0.70067421  0.29213380  0.14460538  1
  Ta  Ta106  1  0.39941179  0.21173699  0.48265372  1
  Ta  Ta107  1  0.09335587  0.70740168  0.35498022  1
  Ta  Ta108  1  0.81045803  0.80094635  0.25351441  1
  Ta  Ta109  1  -0.01313753  0.80342232  0.00120323  1
  Ta  Ta110  1  0.08208862  0.70136251  0.13300967  1
  Ta  Ta111  1  0.91042633  0.69168610  0.36904123  1
  Ta  Ta112  1  0.91596556  0.08604074  0.87183876  1
  Ta  Ta113  1  0.00627986  0.80138517  0.49970017  1
  Ta  Ta114  1  0.59535371  0.39708480  0.48180941  1
  Ta  Ta115  1  0.10147122  0.31211343  0.38187431  1
  Ta  Ta116  1  0.80325676  0.19991301  0.73817278  1
  Ta  Ta117  1  0.89953501  0.10592023  0.60676791  1
  Ta  Ta118  1  0.20436570  0.20708841  0.48344362  1
  Ta  Ta119  1  0.28905176  0.70783048  0.87403920  1
  Ti  Ti120  1  0.30130270  0.49792045  0.62365730  1
  Ti  Ti121  1  0.39290811  0.81305556  0.48984731  1
  Ti  Ti122  1  0.68963062  0.90119104  0.61726365  1
  Ti  Ti123  1  0.59542767  0.80025244  0.25998166  1
  Ti  Ti124  1  0.39981029  0.21064429  0.27273805  1
  Ti  Ti125  1  0.71216098  0.29448324  0.37729414  1
  Ti  Ti126  1  0.41553052  0.40740310  0.74210436  1
  Ti  Ti127  1  0.39604150  0.01253162  0.74916482  1
  Ti  Ti128  1  -0.00641491  0.20575514  0.49054130  1
  Ti  Ti129  1  0.91281131  0.49459452  0.38042084  1
  Ti  Ti130  1  0.20152207  -0.00424262  0.74563610  1
  Ti  Ti131  1  0.89930376  0.88846625  0.12942214  1
  Ti  Ti132  1  0.80090406  0.18155367  0.27512458  1
  Ti  Ti133  1  0.09892721  0.09893675  0.86871705  1
  Ti  Ti134  1  0.08781887  0.50182015  0.12398444  1
  Ti  Ti135  1  0.48773373  0.50361235  0.37866817  1
  Ti  Ti136  1  -0.00211580  0.41508389  0.25165947  1
  Ti  Ti137  1  0.51438162  0.90351020  0.12734013  1
  Ti  Ti138  1  0.81255587  0.39825297  0.00108538  1
  Ti  Ti139  1  0.50104095  0.11600299  0.13354020  1
  Ti  Ti140  1  0.82170996  0.58718555  0.25379988  1
  Ti  Ti141  1  0.09959816  0.49706958  0.87599866  1
  Ti  Ti142  1  0.29902180  0.10075446  0.36966857  1
  Ti  Ti143  1  0.90514275  0.88867016  0.37491583  1
  Ti  Ti144  1  0.30853542  0.50443651  0.12750109  1
  Ti  Ti145  1  0.58915487  0.59721722  0.48831707  1
  Ti  Ti146  1  0.00167385  0.19713950  -0.00007048  1
  Ti  Ti147  1  0.19838576  0.60456885  0.23021672  1
  Ti  Ti148  1  0.58779032  0.79597159  0.74220725  1
  Ti  Ti149  1  0.19145733  0.60211474  0.00574141  1
  Ti  Ti150  1  0.60598315  0.20258015  0.48646034  1
  Ti  Ti151  1  0.20412278  0.59245125  0.75820412  1
  Ti  Ti152  1  0.49081970  0.10874350  0.60958784  1
  Ti  Ti153  1  0.49434584  0.70012039  0.61961159  1
  Ti  Ti154  1  0.89766682  0.68799913  0.13016158  1
  Ti  Ti155  1  0.20781259  -0.01120188  0.49668145  1
  Ti  Ti156  1  0.29603376  0.10748447  0.14940872  1
  Ti  Ti157  1  0.70668076  0.89670086  0.14040751  1
  Ti  Ti158  1  0.49350977  0.50823275  0.61458993  1
  Ti  Ti159  1  0.18651539  0.81245647  0.22572561  1
  Mo  Mo160  1  0.91182086  0.28491262  0.62429277  1
  Mo  Mo161  1  0.08313952  0.89867457  0.12414465  1
  Mo  Mo162  1  0.80289417  0.19577356  0.48755874  1
  Mo  Mo163  1  0.12166885  0.49671104  0.62691296  1
  Mo  Mo164  1  0.38972390  0.00398714  0.48605134  1
  Mo  Mo165  1  0.71322394  0.49840464  0.85980909  1
  Mo  Mo166  1  0.90393455  0.10025454  0.38981250  1
  Mo  Mo167  1  0.70165056  0.09978546  0.38117299  1
  Mo  Mo168  1  0.20183104  0.80447707  0.76366691  1
  Mo  Mo169  1  0.59525908  0.41113212  0.74192330  1
  Mo  Mo170  1  0.90609814  0.30990788  0.37766729  1
  Mo  Mo171  1  0.20270240  0.20652175  0.27032681  1
  Mo  Mo172  1  0.19823178  0.59536265  0.50128266  1
  Mo  Mo173  1  0.20291082  0.19230109  0.74421822  1
  Mo  Mo174  1  0.89788969  0.89804313  0.88437605  1
  Mo  Mo175  1  0.40180331  0.40889283  0.49324104  1
  Mo  Mo176  1  0.00170729  0.59268858  0.24756202  1
  Mo  Mo177  1  0.79777346  -0.00840009  0.26519672  1
  Mo  Mo178  1  0.68616226  0.68486587  0.87597833  1
  Mo  Mo179  1  0.69705857  0.28939894  0.62042287  1
  Mo  Mo180  1  0.39478045  0.59096772  0.24848597  1
  Mo  Mo181  1  0.60885787  0.81289499  0.01070065  1
  Mo  Mo182  1  0.49293586  0.88921084  0.37025956  1
  Mo  Mo183  1  0.30202402  0.50517783  0.36801683  1
  Mo  Mo184  1  0.61320713  0.60313487  0.00398871  1
  Mo  Mo185  1  -0.00660942  0.79312735  0.24598587  1
  Mo  Mo186  1  0.19970266  -0.00155368  0.24408945  1
  Mo  Mo187  1  0.90662345  0.49563746  0.12693451  1
  Mo  Mo188  1  0.28975617  0.90818143  0.62542965  1
  Mo  Mo189  1  0.28526777  0.69333094  0.12938561  1
  Mo  Mo190  1  0.90731632  0.49426581  0.63023480  1
  Mo  Mo191  1  0.30941455  0.29902410  0.61260792  1
  Mo  Mo192  1  0.50036380  0.30684694  0.38468437  1
  Mo  Mo193  1  0.40386332  0.39822006  0.01304273  1
  Mo  Mo194  1  0.90347505  0.70791845  0.62277043  1
  Mo  Mo195  1  0.00204148  0.00388806  0.74619380  1
  Mo  Mo196  1  0.29059144  0.91135967  0.13601737  1
  Mo  Mo197  1  0.48803113  0.10119679  0.38538369  1
  Mo  Mo198  1  0.30502270  0.29895301  0.87443098  1
  Mo  Mo199  1  0.29719534  0.30429966  0.36795735  1
