# generated using pymatgen
data_HfZrTaTiMo
_symmetry_space_group_name_H-M   'P 1'
_cell_length_a   15.22678280
_cell_length_b   15.20089259
_cell_length_c   16.84918855
_cell_angle_alpha   90.00172081
_cell_angle_beta   89.99624546
_cell_angle_gamma   89.89120030
_symmetry_Int_Tables_number   1
_chemical_formula_structural   HfZrTaTiMo
_chemical_formula_sum   'Hf40 Zr40 Ta40 Ti40 Mo40'
_cell_volume   3899.91776344
_cell_formula_units_Z   40
loop_
 _symmetry_equiv_pos_site_id
 _symmetry_equiv_pos_as_xyz
  1  'x, y, z'
loop_
 _atom_site_type_symbol
 _atom_site_label
 _atom_site_symmetry_multiplicity
 _atom_site_fract_x
 _atom_site_fract_y
 _atom_site_fract_z
 _atom_site_occupancy
  Hf  Hf0  1  0.80057854  0.00788853  0.74617266  1
  Hf  Hf1  1  0.29598639  0.69567389  0.88146760  1
  Hf  Hf2  1  -0.00788656  0.41877281  -0.00868810  1
  Hf  Hf3  1  0.69723647  0.51118126  0.38077327  1
  Hf  Hf4  1  0.41280691  0.79256346  0.49871575  1
  Hf  Hf5  1  0.61610782  0.61817161  -0.01807992  1
  Hf  Hf6  1  0.90451039  0.69070385  0.87161270  1
  Hf  Hf7  1  0.10917842  0.29108098  0.38274410  1
  Hf  Hf8  1  0.17963692  0.79186396  0.24454278  1
  Hf  Hf9  1  0.60409709  0.60900164  0.76422528  1
  Hf  Hf10  1  0.01150487  0.59119925  0.73623871  1
  Hf  Hf11  1  0.89450755  0.30114015  0.12625343  1
  Hf  Hf12  1  0.60008688  0.61597788  0.50804856  1
  Hf  Hf13  1  -0.01296737  0.20204868  0.75918483  1
  Hf  Hf14  1  0.50673705  0.89742676  0.63764683  1
  Hf  Hf15  1  0.29548996  0.69984990  0.37411393  1
  Hf  Hf16  1  -0.00281661  0.80000014  0.72747607  1
  Hf  Hf17  1  0.00803670  0.61355405  0.27232531  1
  Hf  Hf18  1  0.80724024  0.59764623  0.73946197  1
  Hf  Hf19  1  0.49205387  0.10600528  0.36770649  1
  Hf  Hf20  1  0.28938618  0.10916757  0.63057257  1
  Hf  Hf21  1  0.51891396  0.50739234  0.11087718  1
  Hf  Hf22  1  -0.00831745  0.39187554  0.49719579  1
  Hf  Hf23  1  0.79222186  0.80045768  0.73204343  1
  Hf  Hf24  1  0.19004949  0.60168109  0.01813515  1
  Hf  Hf25  1  0.00237243  0.00115971  0.74601816  1
  Hf  Hf26  1  0.29518941  0.48623373  0.88377250  1
  Hf  Hf27  1  0.50031443  0.89810351  0.36491779  1
  Hf  Hf28  1  0.70159102  0.11375341  0.62205926  1
  Hf  Hf29  1  0.39049386  0.81112669  0.24755717  1
  Hf  Hf30  1  0.59677778  0.20996591  0.23890407  1
  Hf  Hf31  1  0.79384064  0.40646466  0.25184927  1
  Hf  Hf32  1  0.20662579  -0.01276539  0.24967762  1
  Hf  Hf33  1  0.40119721  0.79814385  0.76006336  1
  Hf  Hf34  1  0.60803927  0.00174021  0.24872696  1
  Hf  Hf35  1  0.49519044  0.29970865  0.87580524  1
  Hf  Hf36  1  0.40797263  0.60511991  0.00120738  1
  Hf  Hf37  1  0.88474340  0.89386827  0.11062614  1
  Hf  Hf38  1  0.29572223  0.90953513  0.88270647  1
  Hf  Hf39  1  0.38564891  0.20686118  0.50735577  1
  Zr  Zr40  1  0.00398143  0.39829178  0.26240217  1
  Zr  Zr41  1  0.89997992  0.07050214  0.38181755  1
  Zr  Zr42  1  0.69322611  0.31036656  0.37614967  1
  Zr  Zr43  1  0.49506704  0.10703797  0.63798504  1
  Zr  Zr44  1  0.20450333  0.38845380  0.01412627  1
  Zr  Zr45  1  0.60146287  0.18327327  -0.01110013  1
  Zr  Zr46  1  0.89355714  0.28123353  0.38193217  1
  Zr  Zr47  1  0.49534587  0.31283785  0.36476245  1
  Zr  Zr48  1  0.79358900  0.18422430  0.24673242  1
  Zr  Zr49  1  0.71626530  0.49199163  0.87459417  1
  Zr  Zr50  1  0.10063647  0.89037106  0.88375227  1
  Zr  Zr51  1  -0.02840298  0.80337882  0.25252627  1
  Zr  Zr52  1  0.19672125  -0.00129501  0.74458009  1
  Zr  Zr53  1  0.10394874  0.69423152  0.87290361  1
  Zr  Zr54  1  0.40955749  0.80363879  0.00054965  1
  Zr  Zr55  1  0.90174942  0.50773320  0.13204723  1
  Zr  Zr56  1  0.20287558  0.39547940  0.23802327  1
  Zr  Zr57  1  0.11082059  0.30638714  0.87923335  1
  Zr  Zr58  1  0.38880457  -0.00704438  0.49659489  1
  Zr  Zr59  1  0.38728212  0.39842279  0.74323925  1
  Zr  Zr60  1  0.31673919  0.49194374  0.37613701  1
  Zr  Zr61  1  0.19947377  0.79114496  0.73237193  1
  Zr  Zr62  1  0.59133012  0.22988211  0.50900341  1
  Zr  Zr63  1  0.10372459  0.69237666  0.59497317  1
  Zr  Zr64  1  0.11759805  0.51017726  0.39697241  1
  Zr  Zr65  1  -0.01123267  0.20835353  -0.00990321  1
  Zr  Zr66  1  0.50801137  0.50138506  0.63805281  1
  Zr  Zr67  1  0.70441986  0.10459897  0.39303360  1
  Zr  Zr68  1  0.89250353  0.09396008  0.11991849  1
  Zr  Zr69  1  0.59640316  -0.00680902  0.50435030  1
  Zr  Zr70  1  0.80742163  0.61470341  0.51542523  1
  Zr  Zr71  1  0.41209288  0.01399662  0.00047945  1
  Zr  Zr72  1  0.09587920  0.09492448  0.37112728  1
  Zr  Zr73  1  0.19689928  0.21055821  0.75308375  1
  Zr  Zr74  1  0.10142539  0.09399482  0.11371729  1
  Zr  Zr75  1  0.89446490  0.89821952  0.87871205  1
  Zr  Zr76  1  0.10919923  0.48861839  0.60414215  1
  Zr  Zr77  1  0.08475021  0.88797807  0.38845951  1
  Zr  Zr78  1  0.20842898  0.59752776  0.23935216  1
  Zr  Zr79  1  0.30581363  0.29148920  0.36388610  1
  Ta  Ta80  1  0.10032105  0.28313698  0.61664748  1
  Ta  Ta81  1  0.21325115  0.81265562  0.50376880  1
  Ta  Ta82  1  0.71163354  0.50141672  0.11198513  1
  Ta  Ta83  1  0.70872487  0.69722740  0.12159522  1
  Ta  Ta84  1  0.68813993  0.89343866  0.11299322  1
  Ta  Ta85  1  0.89455681  0.50646708  0.38435564  1
  Ta  Ta86  1  0.50798297  0.50467815  0.37376706  1
  Ta  Ta87  1  0.70175046  0.49425546  0.63120048  1
  Ta  Ta88  1  0.60366416  0.00899185  0.75459227  1
  Ta  Ta89  1  0.30687300  0.89983507  0.62908449  1
  Ta  Ta90  1  0.90261971  0.10738675  0.62029052  1
  Ta  Ta91  1  0.50365726  0.91685682  0.86954214  1
  Ta  Ta92  1  -0.00132360  0.78517758  0.00808143  1
  Ta  Ta93  1  0.29778394  0.11208514  0.87918433  1
  Ta  Ta94  1  0.70994401  0.89773582  0.38107692  1
  Ta  Ta95  1  0.29590874  0.09183183  0.36924281  1
  Ta  Ta96  1  0.19245877  0.00751409  0.50845593  1
  Ta  Ta97  1  0.31870308  0.49351770  0.11969734  1
  Ta  Ta98  1  0.41811411  0.60161534  0.24098702  1
  Ta  Ta99  1  0.78844428  0.39637211  0.50910150  1
  Ta  Ta100  1  0.00095127  0.39637841  0.74614291  1
  Ta  Ta101  1  0.10293829  0.09457608  0.89004191  1
  Ta  Ta102  1  0.40533783  0.59796127  0.50114087  1
  Ta  Ta103  1  0.69483259  0.30479071  0.11538277  1
  Ta  Ta104  1  -0.00709775  -0.00441364  -0.00703767  1
  Ta  Ta105  1  0.51661326  0.71316232  0.12925163  1
  Ta  Ta106  1  0.29485994  0.90584108  0.11529622  1
  Ta  Ta107  1  0.80437115  0.61766171  0.25590531  1
  Ta  Ta108  1  0.59995661  0.41402641  0.23676706  1
  Ta  Ta109  1  0.19753985  0.19207174  0.23970131  1
  Ta  Ta110  1  0.78976320  0.78703355  -0.00624215  1
  Ta  Ta111  1  0.70682336  0.71454159  0.37804930  1
  Ta  Ta112  1  0.60372997  0.80215852  0.76772145  1
  Ta  Ta113  1  0.21454068  0.59201065  0.73857998  1
  Ta  Ta114  1  0.80455557  -0.01602501  0.52012863  1
  Ta  Ta115  1  0.38982187  0.21244266  -0.00158466  1
  Ta  Ta116  1  0.49581654  0.30703405  0.11321244  1
  Ta  Ta117  1  0.81108574  0.38885428  0.74931207  1
  Ta  Ta118  1  0.49756434  0.50080456  0.87858587  1
  Ta  Ta119  1  0.42147231  0.39734810  0.51538676  1
  Ti  Ti120  1  0.39321529  0.19191670  0.23782994  1
  Ti  Ti121  1  0.81940952  0.58992972  -0.00797982  1
  Ti  Ti122  1  0.39828975  0.60275713  0.75729319  1
  Ti  Ti123  1  0.30810353  0.70221503  0.12694578  1
  Ti  Ti124  1  0.50929207  0.69634256  0.36651066  1
  Ti  Ti125  1  0.29911771  0.09749049  0.11806037  1
  Ti  Ti126  1  0.90456832  0.49487380  0.61653706  1
  Ti  Ti127  1  -0.03565449  0.79325308  0.50875307  1
  Ti  Ti128  1  0.69382652  0.30506250  0.63571564  1
  Ti  Ti129  1  0.49832242  0.90826901  0.13138815  1
  Ti  Ti130  1  0.30378726  0.50899165  0.61426396  1
  Ti  Ti131  1  0.60608306  0.39713907  -0.01056640  1
  Ti  Ti132  1  0.89199280  0.29291840  0.62116772  1
  Ti  Ti133  1  0.30275096  0.29230096  0.12600581  1
  Ti  Ti134  1  0.40979245  0.40441792  0.23815815  1
  Ti  Ti135  1  0.78128754  0.00730371  -0.00685478  1
  Ti  Ti136  1  0.49833163  0.70216550  0.63437709  1
  Ti  Ti137  1  0.60551916  0.39117233  0.76114313  1
  Ti  Ti138  1  0.69955521  0.90698634  0.87936553  1
  Ti  Ti139  1  0.87575683  0.11423568  0.88153114  1
  Ti  Ti140  1  0.00606337  0.18338853  0.50442542  1
  Ti  Ti141  1  0.59832577  0.80686787  -0.01372841  1
  Ti  Ti142  1  0.61276402  0.60451170  0.24577247  1
  Ti  Ti143  1  0.40006794  0.20318074  0.75356986  1
  Ti  Ti144  1  0.22304246  0.38145379  0.50692534  1
  Ti  Ti145  1  0.09241334  0.89715122  0.11517520  1
  Ti  Ti146  1  0.09950240  0.50661750  0.87167705  1
  Ti  Ti147  1  0.09533281  0.29309734  0.12269463  1
  Ti  Ti148  1  0.49843496  0.10194496  0.12797980  1
  Ti  Ti149  1  0.80269028  -0.02460367  0.24856580  1
  Ti  Ti150  1  0.19516510  0.40362728  0.73875860  1
  Ti  Ti151  1  0.19605687  0.79752842  0.01537392  1
  Ti  Ti152  1  -0.00184643  -0.00755944  0.24441196  1
  Ti  Ti153  1  0.09232475  0.50434212  0.12906844  1
  Ti  Ti154  1  -0.00054268  -0.01472471  0.52006268  1
  Ti  Ti155  1  0.69576195  0.09387988  0.11717428  1
  Ti  Ti156  1  0.90141113  0.69361893  0.11979172  1
  Ti  Ti157  1  0.80136798  0.38052812  -0.01317617  1
  Ti  Ti158  1  0.00042450  0.19392148  0.24779785  1
  Ti  Ti159  1  0.61087667  0.79858396  0.24768286  1
  Mo  Mo160  1  0.88878326  0.71261225  0.38162881  1
  Mo  Mo161  1  0.49271444  0.10047925  0.86131384  1
  Mo  Mo162  1  0.90075771  0.69260222  0.62688395  1
  Mo  Mo163  1  0.19870627  -0.00359765  0.00337091  1
  Mo  Mo164  1  0.19754156  0.19391468  0.50108733  1
  Mo  Mo165  1  -0.00119327  0.60195794  0.48433089  1
  Mo  Mo166  1  0.50084143  0.70512780  0.87196210  1
  Mo  Mo167  1  0.22050025  0.60770354  0.50187964  1
  Mo  Mo168  1  0.89895320  0.90267586  0.62780671  1
  Mo  Mo169  1  0.79491612  0.20388371  0.74813819  1
  Mo  Mo170  1  0.39751432  0.00684530  0.76015567  1
  Mo  Mo171  1  0.69059596  0.90518830  0.63269549  1
  Mo  Mo172  1  0.60662340  0.20489412  0.75983484  1
  Mo  Mo173  1  0.80943257  0.20353943  0.50955142  1
  Mo  Mo174  1  0.31454878  0.69522907  0.62223076  1
  Mo  Mo175  1  0.89249421  0.30710258  0.87053443  1
  Mo  Mo176  1  0.79141330  0.19937203  0.00256688  1
  Mo  Mo177  1  0.09028035  0.70161719  0.12706383  1
  Mo  Mo178  1  0.60299882  0.80098555  0.49961973  1
  Mo  Mo179  1  0.78299276  0.80113724  0.24318841  1
  Mo  Mo180  1  0.91248129  0.49592710  0.86512439  1
  Mo  Mo181  1  0.77559533  0.80310998  0.52352759  1
  Mo  Mo182  1  0.20433072  0.19315173  0.00500936  1
  Mo  Mo183  1  0.60147370  0.41534576  0.50863411  1
  Mo  Mo184  1  0.70911903  0.28567373  0.86656471  1
  Mo  Mo185  1  0.30268527  0.29760752  0.87863922  1
  Mo  Mo186  1  0.10367516  0.89885522  0.60957474  1
  Mo  Mo187  1  0.68202943  0.70415123  0.63104594  1
  Mo  Mo188  1  0.39784603  0.00782618  0.23835256  1
  Mo  Mo189  1  0.41068600  0.40088612  0.00223654  1
  Mo  Mo190  1  0.88117183  0.88812987  0.38577763  1
  Mo  Mo191  1  0.50551494  0.30158209  0.64245095  1
  Mo  Mo192  1  0.69387858  0.09112111  0.87304239  1
  Mo  Mo193  1  0.00132482  0.60143299  0.00170148  1
  Mo  Mo194  1  0.59747082  -0.00941181  0.00335773  1
  Mo  Mo195  1  0.09505839  0.70690436  0.39976808  1
  Mo  Mo196  1  0.29749438  0.30962484  0.62473483  1
  Mo  Mo197  1  0.29655512  0.90479747  0.37627675  1
  Mo  Mo198  1  0.09117895  0.10172843  0.62349259  1
  Mo  Mo199  1  0.71092865  0.71084895  0.87564410  1
