# generated using pymatgen
data_HfZrTaTiMo
_symmetry_space_group_name_H-M   'P 1'
_cell_length_a   15.21543094
_cell_length_b   15.20569154
_cell_length_c   16.83656294
_cell_angle_alpha   89.98380890
_cell_angle_beta   90.02373429
_cell_angle_gamma   90.04809062
_symmetry_Int_Tables_number   1
_chemical_formula_structural   HfZrTaTiMo
_chemical_formula_sum   'Hf40 Zr40 Ta40 Ti40 Mo40'
_cell_volume   3895.32469317
_cell_formula_units_Z   40
loop_
 _symmetry_equiv_pos_site_id
 _symmetry_equiv_pos_as_xyz
  1  'x, y, z'
loop_
 _atom_site_type_symbol
 _atom_site_label
 _atom_site_symmetry_multiplicity
 _atom_site_fract_x
 _atom_site_fract_y
 _atom_site_fract_z
 _atom_site_occupancy
  Hf  Hf0  1  0.29009316  0.09690387  0.37528152  1
  Hf  Hf1  1  0.49526394  0.29644643  0.88524486  1
  Hf  Hf2  1  0.79799888  0.79911861  0.49789833  1
  Hf  Hf3  1  0.49051628  0.08728834  0.11712647  1
  Hf  Hf4  1  0.20063014  0.20682547  -0.00094629  1
  Hf  Hf5  1  0.69543514  0.49830196  0.88904892  1
  Hf  Hf6  1  -0.00644181  0.40810968  0.01522568  1
  Hf  Hf7  1  0.69881969  0.89798058  0.87548565  1
  Hf  Hf8  1  0.70677085  0.91064847  0.62194007  1
  Hf  Hf9  1  0.19557762  0.01057468  0.24714380  1
  Hf  Hf10  1  0.19275168  0.41035140  0.74449636  1
  Hf  Hf11  1  0.09059015  0.89362467  0.62306816  1
  Hf  Hf12  1  0.00851731  0.20713792  0.76435033  1
  Hf  Hf13  1  0.20170863  0.80695348  0.00668588  1
  Hf  Hf14  1  0.80155458  0.21682927  0.23656233  1
  Hf  Hf15  1  0.61114837  0.58972213  0.24375410  1
  Hf  Hf16  1  0.49506895  0.88333634  0.87046682  1
  Hf  Hf17  1  0.90817602  0.69804901  0.87196206  1
  Hf  Hf18  1  0.60203590  -0.00756875  0.24151742  1
  Hf  Hf19  1  0.80315702  0.19092964  0.75921983  1
  Hf  Hf20  1  0.48622069  0.70003010  0.37344069  1
  Hf  Hf21  1  -0.00227855  0.00172191  0.48222893  1
  Hf  Hf22  1  0.50674159  0.10422914  0.61670483  1
  Hf  Hf23  1  0.38701375  0.39553844  0.00525197  1
  Hf  Hf24  1  0.00321943  0.59220299  0.48313406  1
  Hf  Hf25  1  0.81044665  0.00555761  0.00776393  1
  Hf  Hf26  1  0.50064876  0.08554541  0.38058206  1
  Hf  Hf27  1  0.21076752  0.40427933  0.50386000  1
  Hf  Hf28  1  0.40050750  0.00891827  0.74563421  1
  Hf  Hf29  1  0.41517083  0.40032491  0.23907147  1
  Hf  Hf30  1  0.38828279  0.20550581  0.50683617  1
  Hf  Hf31  1  0.19399840  0.20387352  0.51170429  1
  Hf  Hf32  1  0.59581160  0.41109867  0.75547435  1
  Hf  Hf33  1  0.59613475  0.20663419  0.75059538  1
  Hf  Hf34  1  0.70553427  0.30185110  0.61908454  1
  Hf  Hf35  1  0.39932680  0.60581461  0.00862181  1
  Hf  Hf36  1  0.40636986  0.59058659  0.75653430  1
  Hf  Hf37  1  0.69235231  0.69316459  0.37580731  1
  Hf  Hf38  1  -0.00112624  0.20447227  0.48435799  1
  Hf  Hf39  1  0.90426075  0.48825620  0.63835186  1
  Zr  Zr40  1  0.90670931  0.89800395  0.14232359  1
  Zr  Zr41  1  0.88858548  0.09254631  0.61433139  1
  Zr  Zr42  1  0.19781702  0.59866033  0.01932083  1
  Zr  Zr43  1  0.30648450  0.49522995  0.36467075  1
  Zr  Zr44  1  0.02667621  0.19513890  0.24909458  1
  Zr  Zr45  1  0.52075509  0.49513142  0.10768803  1
  Zr  Zr46  1  0.60913286  0.41836493  0.49810162  1
  Zr  Zr47  1  -0.00032028  0.20450246  0.00199279  1
  Zr  Zr48  1  0.79370942  0.58622099  0.50345653  1
  Zr  Zr49  1  0.69808127  0.69720338  0.88095156  1
  Zr  Zr50  1  0.70887055  0.30597705  0.38006015  1
  Zr  Zr51  1  0.39994762  -0.01287989  0.50989602  1
  Zr  Zr52  1  0.91042793  0.09574459  0.13865335  1
  Zr  Zr53  1  0.57680071  0.79563708  0.24401646  1
  Zr  Zr54  1  0.30444242  0.70104481  0.87201453  1
  Zr  Zr55  1  0.61242009  0.00306238  0.74782996  1
  Zr  Zr56  1  0.90689866  0.69353619  0.62783277  1
  Zr  Zr57  1  0.79797689  0.80454860  0.01139533  1
  Zr  Zr58  1  0.19503356  0.01571095  0.73493635  1
  Zr  Zr59  1  0.00373141  0.79389859  0.47976222  1
  Zr  Zr60  1  0.90258460  0.29552665  0.62615039  1
  Zr  Zr61  1  0.30443682  0.88798715  0.63806538  1
  Zr  Zr62  1  0.00882759  0.79588649  0.26983513  1
  Zr  Zr63  1  0.10644123  0.10155939  0.87478055  1
  Zr  Zr64  1  0.59962311  0.19901091  0.25074491  1
  Zr  Zr65  1  0.58724269  0.80319301  0.50620281  1
  Zr  Zr66  1  0.80534272  0.80728766  0.74631390  1
  Zr  Zr67  1  0.09849257  0.89341679  0.86947578  1
  Zr  Zr68  1  0.77925332  0.80426432  0.24111117  1
  Zr  Zr69  1  0.19227370  0.59598663  0.24410634  1
  Zr  Zr70  1  0.49378438  0.31409858  0.61623273  1
  Zr  Zr71  1  0.49791360  0.30243572  0.38570307  1
  Zr  Zr72  1  0.80438214  0.42868140  0.23585103  1
  Zr  Zr73  1  0.30282644  0.29244535  0.13783320  1
  Zr  Zr74  1  0.89293547  0.49761733  0.86688594  1
  Zr  Zr75  1  0.20489225  0.79911906  0.49399508  1
  Zr  Zr76  1  0.09634665  0.50665095  0.88429700  1
  Zr  Zr77  1  0.70609625  0.10509223  0.89073192  1
  Zr  Zr78  1  0.50072686  0.09238787  0.88452847  1
  Zr  Zr79  1  -0.02396494  0.00122816  0.75460473  1
  Ta  Ta80  1  0.69482560  0.10409389  0.11752491  1
  Ta  Ta81  1  0.29731968  0.70147297  0.36553085  1
  Ta  Ta82  1  0.20305721  0.80451910  0.25181285  1
  Ta  Ta83  1  0.81163130  0.59697179  0.01155339  1
  Ta  Ta84  1  0.30240358  0.49916346  0.62448078  1
  Ta  Ta85  1  0.00652404  0.40014455  0.23176672  1
  Ta  Ta86  1  0.88661925  0.68948594  0.36345908  1
  Ta  Ta87  1  0.30092997  0.68698631  0.63055722  1
  Ta  Ta88  1  0.19931705  0.00866955  0.51365664  1
  Ta  Ta89  1  0.29657453  0.90384673  0.86291231  1
  Ta  Ta90  1  0.68683222  0.90598140  0.37813324  1
  Ta  Ta91  1  0.69051303  0.69306595  0.63103242  1
  Ta  Ta92  1  0.10158089  0.69904190  0.87708291  1
  Ta  Ta93  1  0.19712545  0.78510015  0.74801975  1
  Ta  Ta94  1  0.91420223  0.31462809  0.36326555  1
  Ta  Ta95  1  0.87883185  0.90882380  0.36516466  1
  Ta  Ta96  1  0.08637834  0.70369517  0.13112905  1
  Ta  Ta97  1  0.39536747  0.59372320  0.50111164  1
  Ta  Ta98  1  0.39950958  0.18441018  0.25109747  1
  Ta  Ta99  1  0.38981539  0.39215159  0.75731744  1
  Ta  Ta100  1  0.11513249  0.30658934  0.36794478  1
  Ta  Ta101  1  0.39684320  0.78744308  0.50293561  1
  Ta  Ta102  1  -0.00785644  0.58600860  0.26066295  1
  Ta  Ta103  1  0.00042901  0.79741995  0.00540477  1
  Ta  Ta104  1  0.60060175  -0.01780191  0.00924970  1
  Ta  Ta105  1  0.01038374  0.40420464  0.49273968  1
  Ta  Ta106  1  0.30107946  0.29828256  0.36197580  1
  Ta  Ta107  1  0.19763983  0.59844897  0.48915908  1
  Ta  Ta108  1  0.29712976  0.09316725  0.12648687  1
  Ta  Ta109  1  0.51315436  0.28637341  0.11052358  1
  Ta  Ta110  1  0.20560325  0.00171056  0.00278685  1
  Ta  Ta111  1  0.80039545  0.21452672  0.01665676  1
  Ta  Ta112  1  0.29585683  0.48913258  0.87892180  1
  Ta  Ta113  1  0.39313004  0.19112673  -0.00039947  1
  Ta  Ta114  1  0.00928836  -0.00395022  0.00126644  1
  Ta  Ta115  1  0.19192681  0.39854024  0.01543570  1
  Ta  Ta116  1  0.61144789  0.39641852  0.24699485  1
  Ta  Ta117  1  0.68324584  0.69493563  0.11028415  1
  Ta  Ta118  1  0.89914772  0.90026905  0.61463917  1
  Ta  Ta119  1  0.40541022  0.60638585  0.23219630  1
  Ti  Ti120  1  0.79909645  0.39965169  0.02127357  1
  Ti  Ti121  1  0.89860797  0.69354941  0.13673471  1
  Ti  Ti122  1  0.12187944  0.91023209  0.37804074  1
  Ti  Ti123  1  0.49325648  0.69613012  0.63275583  1
  Ti  Ti124  1  0.49750063  0.50713468  0.62474567  1
  Ti  Ti125  1  0.32208333  0.89845241  0.36683905  1
  Ti  Ti126  1  0.30306382  0.10839655  0.87226536  1
  Ti  Ti127  1  0.50983584  0.69040022  0.87640876  1
  Ti  Ti128  1  0.60766859  0.00331895  0.49902930  1
  Ti  Ti129  1  0.89225775  0.10470818  0.36205907  1
  Ti  Ti130  1  0.19338482  0.39862946  0.23361666  1
  Ti  Ti131  1  0.70660270  0.09549614  0.37543637  1
  Ti  Ti132  1  0.39816942  0.80235057  0.00135462  1
  Ti  Ti133  1  0.49904506  0.49867077  0.88886343  1
  Ti  Ti134  1  0.10966052  0.68550835  0.62306246  1
  Ti  Ti135  1  0.49119410  0.88787965  0.11886979  1
  Ti  Ti136  1  0.79941606  0.19750169  0.48846012  1
  Ti  Ti137  1  0.30301570  0.71306540  0.13419431  1
  Ti  Ti138  1  0.10220072  0.90626025  0.12897263  1
  Ti  Ti139  1  0.38942414  0.20661480  0.74260488  1
  Ti  Ti140  1  0.69839593  0.49951804  0.63678709  1
  Ti  Ti141  1  0.09516763  0.31453989  0.62505391  1
  Ti  Ti142  1  0.30718762  0.90665874  0.13374720  1
  Ti  Ti143  1  0.70307264  0.10712029  0.61239547  1
  Ti  Ti144  1  0.59633295  0.78542620  0.74609927  1
  Ti  Ti145  1  0.70176077  0.30428551  0.88533887  1
  Ti  Ti146  1  0.50181901  0.89040669  0.63754812  1
  Ti  Ti147  1  0.08645251  0.10894925  0.62570405  1
  Ti  Ti148  1  0.20619370  0.21791577  0.74458573  1
  Ti  Ti149  1  0.78854419  0.59338445  0.74820646  1
  Ti  Ti150  1  0.00282501  0.79364669  0.74667105  1
  Ti  Ti151  1  0.50893210  0.50384923  0.37381261  1
  Ti  Ti152  1  0.38892055  -0.00891676  -0.00749530  1
  Ti  Ti153  1  0.89330658  0.30180777  0.88031445  1
  Ti  Ti154  1  0.81699085  0.40180511  0.49132240  1
  Ti  Ti155  1  0.02402592  0.59543308  0.74418427  1
  Ti  Ti156  1  0.89866570  0.90624348  0.87969159  1
  Ti  Ti157  1  0.00506234  -0.00122131  0.26848131  1
  Ti  Ti158  1  0.59305946  0.60469723  0.50441035  1
  Ti  Ti159  1  -0.00015039  0.39570490  0.76009828  1
  Mo  Mo160  1  0.40072579  0.41290604  0.49709309  1
  Mo  Mo161  1  0.29226523  0.29912348  0.87280163  1
  Mo  Mo162  1  0.70546930  0.50495440  0.10728104  1
  Mo  Mo163  1  0.09805599  0.50583457  0.12409097  1
  Mo  Mo164  1  0.79421134  0.39286829  0.75751923  1
  Mo  Mo165  1  0.60138270  0.60087783  -0.00173768  1
  Mo  Mo166  1  0.49234387  0.70159496  0.11798656  1
  Mo  Mo167  1  0.80009300  0.60984824  0.23889682  1
  Mo  Mo168  1  0.29909318  0.30598741  0.63127430  1
  Mo  Mo169  1  0.58440012  0.79525628  0.00483119  1
  Mo  Mo170  1  0.10702654  0.31442874  0.87549689  1
  Mo  Mo171  1  0.40301254  0.79450605  0.74995453  1
  Mo  Mo172  1  0.60589412  0.38908268  -0.00868280  1
  Mo  Mo173  1  -0.00270763  0.61602283  0.00556760  1
  Mo  Mo174  1  0.90033879  0.10241192  0.88864166  1
  Mo  Mo175  1  0.89660135  0.49453070  0.37270699  1
  Mo  Mo176  1  0.20721180  0.20278406  0.25035507  1
  Mo  Mo177  1  0.10938483  0.09176196  0.11599673  1
  Mo  Mo178  1  0.09602820  0.48440672  0.36758087  1
  Mo  Mo179  1  0.60909672  0.19306142  0.49569362  1
  Mo  Mo180  1  0.79578109  0.00381883  0.48450762  1
  Mo  Mo181  1  0.09796184  0.50650662  0.62166586  1
  Mo  Mo182  1  0.90153690  0.30299483  0.13125700  1
  Mo  Mo183  1  0.80092095  -0.00015632  0.75327747  1
  Mo  Mo184  1  0.10611853  0.69384133  0.36642226  1
  Mo  Mo185  1  0.10175084  0.29821732  0.12751507  1
  Mo  Mo186  1  0.60229548  0.19466236  0.00384608  1
  Mo  Mo187  1  0.20222253  0.60038597  0.74957939  1
  Mo  Mo188  1  0.69076363  0.90587216  0.12013800  1
  Mo  Mo189  1  0.40202701  -0.00780265  0.24784835  1
  Mo  Mo190  1  0.10346519  0.09877107  0.38329679  1
  Mo  Mo191  1  0.70045441  0.50490171  0.37344102  1
  Mo  Mo192  1  0.79183555  0.01066886  0.25517875  1
  Mo  Mo193  1  0.39001425  0.80105584  0.24568615  1
  Mo  Mo194  1  0.29456953  0.10715384  0.63060626  1
  Mo  Mo195  1  0.59878883  0.59984384  0.74729165  1
  Mo  Mo196  1  0.49609016  0.89876414  0.37790391  1
  Mo  Mo197  1  0.90932260  0.51499213  0.12192229  1
  Mo  Mo198  1  0.30469828  0.50194644  0.13468217  1
  Mo  Mo199  1  0.69276368  0.30857270  0.11921608  1
