# generated using pymatgen
data_HfZrTaTiMo
_symmetry_space_group_name_H-M   'P 1'
_cell_length_a   15.18973003
_cell_length_b   15.18356672
_cell_length_c   16.80004425
_cell_angle_alpha   90.07684657
_cell_angle_beta   90.01162003
_cell_angle_gamma   90.05405775
_symmetry_Int_Tables_number   1
_chemical_formula_structural   HfZrTaTiMo
_chemical_formula_sum   'Hf40 Zr40 Ta40 Ti40 Mo40'
_cell_volume   3874.66080923
_cell_formula_units_Z   40
loop_
 _symmetry_equiv_pos_site_id
 _symmetry_equiv_pos_as_xyz
  1  'x, y, z'
loop_
 _atom_site_type_symbol
 _atom_site_label
 _atom_site_symmetry_multiplicity
 _atom_site_fract_x
 _atom_site_fract_y
 _atom_site_fract_z
 _atom_site_occupancy
  Hf  Hf0  1  0.90183061  0.90605196  0.60836248  1
  Hf  Hf1  1  0.30655391  0.69944109  0.87394803  1
  Hf  Hf2  1  0.40728365  -0.00369493  0.74719244  1
  Hf  Hf3  1  0.18829195  0.79262378  0.50422898  1
  Hf  Hf4  1  0.59404882  0.40502191  0.73377704  1
  Hf  Hf5  1  0.49753090  0.88641610  0.12080866  1
  Hf  Hf6  1  0.70152991  0.09925537  0.87843152  1
  Hf  Hf7  1  0.40594802  0.37615206  -0.01167642  1
  Hf  Hf8  1  0.10090388  0.11004562  0.12766251  1
  Hf  Hf9  1  0.19983409  0.40850826  0.25377232  1
  Hf  Hf10  1  0.30108228  0.30410558  0.12889945  1
  Hf  Hf11  1  0.91081541  0.89078599  0.13046467  1
  Hf  Hf12  1  0.78867420  0.60917655  0.50859511  1
  Hf  Hf13  1  0.59939836  0.19905439  0.74428793  1
  Hf  Hf14  1  0.90274556  0.29905262  0.62069079  1
  Hf  Hf15  1  0.49484281  0.49064155  0.12783358  1
  Hf  Hf16  1  -0.00624043  0.81201788  -0.01894201  1
  Hf  Hf17  1  0.78385400  0.79885967  0.74057045  1
  Hf  Hf18  1  0.40398362  -0.00802205  0.24152714  1
  Hf  Hf19  1  0.28972111  0.89134614  0.63795088  1
  Hf  Hf20  1  0.39859737  0.39759886  0.26398094  1
  Hf  Hf21  1  0.19472640  -0.00187595  0.50134432  1
  Hf  Hf22  1  0.09933321  0.50500008  0.87739187  1
  Hf  Hf23  1  0.40950407  0.19784463  0.50286382  1
  Hf  Hf24  1  0.11248766  0.51410539  0.11339258  1
  Hf  Hf25  1  0.10805811  0.10184239  0.88196166  1
  Hf  Hf26  1  0.70273479  0.50365080  0.86733141  1
  Hf  Hf27  1  0.09872812  0.10434913  0.36160780  1
  Hf  Hf28  1  0.29940798  0.88958419  0.11199779  1
  Hf  Hf29  1  0.31033707  0.70391960  0.38580005  1
  Hf  Hf30  1  0.70725433  0.68849296  0.14417499  1
  Hf  Hf31  1  0.09819668  0.31520476  0.63039135  1
  Hf  Hf32  1  0.39271452  0.60096136  0.24309189  1
  Hf  Hf33  1  0.49651470  0.88766987  0.88519336  1
  Hf  Hf34  1  0.79715905  0.19867351  0.74408227  1
  Hf  Hf35  1  0.29940072  0.10079912  0.37260810  1
  Hf  Hf36  1  0.61209628  0.79427359  0.49040784  1
  Hf  Hf37  1  0.80884893  -0.00271527  0.00212832  1
  Hf  Hf38  1  0.60758611  0.00883394  0.25039173  1
  Hf  Hf39  1  0.79829199  0.20066318  0.48460902  1
  Zr  Zr40  1  -0.00828464  0.80808888  0.75545027  1
  Zr  Zr41  1  0.89317737  0.49944058  0.86643478  1
  Zr  Zr42  1  0.60062962  0.78286448  0.00727013  1
  Zr  Zr43  1  0.29369881  0.49758588  0.62513681  1
  Zr  Zr44  1  0.08869137  0.88819958  0.36829564  1
  Zr  Zr45  1  0.39485051  0.39178805  0.48708544  1
  Zr  Zr46  1  0.80607755  -0.00143383  0.75039582  1
  Zr  Zr47  1  0.60412541  0.59394985  0.01167575  1
  Zr  Zr48  1  0.09285341  0.09832723  0.62875735  1
  Zr  Zr49  1  0.20568725  0.79076731  0.25084715  1
  Zr  Zr50  1  0.20091993  0.00314628  0.23901930  1
  Zr  Zr51  1  0.58663929  0.40787288  0.49744816  1
  Zr  Zr52  1  0.40873975  0.20558190  0.74845562  1
  Zr  Zr53  1  0.89107564  0.90018807  0.38577093  1
  Zr  Zr54  1  -0.00104661  0.20667748  0.75666296  1
  Zr  Zr55  1  0.29560076  0.50058758  0.88687551  1
  Zr  Zr56  1  -0.01205416  0.40408461  0.00993660  1
  Zr  Zr57  1  0.79312939  0.59784242  0.72253834  1
  Zr  Zr58  1  0.50430043  0.09486945  0.37878195  1
  Zr  Zr59  1  0.71038238  0.89732305  0.13058072  1
  Zr  Zr60  1  0.79186983  0.40267506  0.49532505  1
  Zr  Zr61  1  -0.00895046  0.61649230  -0.00580880  1
  Zr  Zr62  1  0.51228737  0.68216187  0.37313490  1
  Zr  Zr63  1  0.61680653  0.39552431  0.00646156  1
  Zr  Zr64  1  -0.00082861  0.60047054  0.74022662  1
  Zr  Zr65  1  0.30931627  0.69383681  0.62840109  1
  Zr  Zr66  1  0.00645408  -0.00250611  0.76167997  1
  Zr  Zr67  1  0.88805439  0.30691959  0.13740016  1
  Zr  Zr68  1  0.60404888  -0.01436862  0.74587093  1
  Zr  Zr69  1  0.58619498  0.20246243  -0.00114175  1
  Zr  Zr70  1  0.19388897  0.21058399  0.49849339  1
  Zr  Zr71  1  0.29901985  0.09512105  0.62887243  1
  Zr  Zr72  1  0.89964557  0.50835567  0.38047134  1
  Zr  Zr73  1  0.28703064  0.90092234  0.86926562  1
  Zr  Zr74  1  0.29228711  0.68693287  0.10892474  1
  Zr  Zr75  1  -0.00265685  0.41905236  0.25227619  1
  Zr  Zr76  1  0.30914288  0.89916654  0.38083883  1
  Zr  Zr77  1  0.89609082  0.30957268  0.87315846  1
  Zr  Zr78  1  0.60273691  0.00165197  0.00855017  1
  Zr  Zr79  1  0.29910293  0.30475041  0.62734944  1
  Ta  Ta80  1  0.00483460  0.40028382  0.48796496  1
  Ta  Ta81  1  0.69637305  0.29599541  0.14580531  1
  Ta  Ta82  1  -0.00211793  0.20140522  0.00453784  1
  Ta  Ta83  1  0.69868804  0.30773676  0.86895938  1
  Ta  Ta84  1  0.40256168  0.39699541  0.76139599  1
  Ta  Ta85  1  0.49640240  0.09832281  0.87608784  1
  Ta  Ta86  1  0.50102234  0.28214134  0.13789988  1
  Ta  Ta87  1  0.81662683  0.79624248  0.25612565  1
  Ta  Ta88  1  0.19998622  0.00521911  0.00653368  1
  Ta  Ta89  1  0.60175687  -0.00374793  0.49522522  1
  Ta  Ta90  1  0.71092592  0.48553778  0.15077583  1
  Ta  Ta91  1  0.29814708  0.50843063  0.38162710  1
  Ta  Ta92  1  0.21098260  0.21184039  -0.00402358  1
  Ta  Ta93  1  0.00432196  0.00328864  -0.00114478  1
  Ta  Ta94  1  0.10687622  0.31031298  0.88337440  1
  Ta  Ta95  1  0.90345640  0.10224046  0.37356924  1
  Ta  Ta96  1  0.09216371  0.30160007  0.36406330  1
  Ta  Ta97  1  0.20326193  0.20338530  0.76078021  1
  Ta  Ta98  1  0.91749473  0.71014075  0.39281567  1
  Ta  Ta99  1  0.79435598  0.21531004  0.00364224  1
  Ta  Ta100  1  0.11033351  0.70654415  0.86191054  1
  Ta  Ta101  1  0.60030626  0.79960782  0.25648292  1
  Ta  Ta102  1  0.89460073  0.51852737  0.13345949  1
  Ta  Ta103  1  0.71628102  0.70457849  0.36716651  1
  Ta  Ta104  1  0.39931486  0.00899817  0.00419029  1
  Ta  Ta105  1  0.10309511  0.30281950  0.12537267  1
  Ta  Ta106  1  0.01590893  0.60529682  0.50795438  1
  Ta  Ta107  1  0.70209279  0.09609548  0.61206369  1
  Ta  Ta108  1  0.19170274  0.59850144  0.25760392  1
  Ta  Ta109  1  0.79282792  0.19353997  0.26518705  1
  Ta  Ta110  1  0.30439946  0.10249414  0.87706897  1
  Ta  Ta111  1  0.70632349  0.88380020  0.88050191  1
  Ta  Ta112  1  0.41826354  0.58982816  0.50270556  1
  Ta  Ta113  1  0.08564800  0.71344111  0.12409771  1
  Ta  Ta114  1  0.68482454  0.51454359  0.36290031  1
  Ta  Ta115  1  0.87806775  0.70346269  0.86938258  1
  Ta  Ta116  1  0.59413888  0.60908832  0.73822250  1
  Ta  Ta117  1  0.89980652  0.10477834  0.88769353  1
  Ta  Ta118  1  0.50478992  0.49984597  0.87441747  1
  Ta  Ta119  1  0.59266032  0.39522091  0.26143733  1
  Ti  Ti120  1  0.10390996  0.50501871  0.63053228  1
  Ti  Ti121  1  0.81236638  0.60047251  0.26019322  1
  Ti  Ti122  1  0.79741714  0.40008048  0.73107386  1
  Ti  Ti123  1  0.50182057  0.88463384  0.61835036  1
  Ti  Ti124  1  0.69339902  0.29796829  0.61668126  1
  Ti  Ti125  1  0.49739291  0.88763432  0.37612395  1
  Ti  Ti126  1  0.29103366  0.29259864  0.36871066  1
  Ti  Ti127  1  0.69676512  0.89614897  0.61648906  1
  Ti  Ti128  1  0.00320068  0.00315769  0.49692520  1
  Ti  Ti129  1  0.89539418  0.10120556  0.61169625  1
  Ti  Ti130  1  0.69125621  0.69641231  0.87094928  1
  Ti  Ti131  1  -0.00866398  -0.00035674  0.24739415  1
  Ti  Ti132  1  0.51112400  0.69433532  0.61514030  1
  Ti  Ti133  1  0.91106195  0.49272083  0.61605808  1
  Ti  Ti134  1  0.51029177  0.09564622  0.61705825  1
  Ti  Ti135  1  0.10917835  0.70845326  0.64084328  1
  Ti  Ti136  1  0.60261402  0.20217815  0.49601978  1
  Ti  Ti137  1  0.18852658  0.40771725  0.48544792  1
  Ti  Ti138  1  0.19859024  0.40504118  0.75759560  1
  Ti  Ti139  1  0.40550790  -0.01447197  0.50856558  1
  Ti  Ti140  1  0.90410656  0.71078771  0.60956498  1
  Ti  Ti141  1  0.80019184  0.00169903  0.25764973  1
  Ti  Ti142  1  0.19924701  0.59631036  0.49708990  1
  Ti  Ti143  1  0.40539454  0.19559258  0.25523015  1
  Ti  Ti144  1  0.79672672  0.59148400  0.00661721  1
  Ti  Ti145  1  0.00317272  0.62541938  0.25476486  1
  Ti  Ti146  1  0.31002171  0.11107681  0.12298477  1
  Ti  Ti147  1  0.69305993  0.29856565  0.36630971  1
  Ti  Ti148  1  0.80243254  0.78484337  0.00169947  1
  Ti  Ti149  1  -0.00042478  0.20378042  0.49119645  1
  Ti  Ti150  1  0.40794658  0.60193051  0.00524849  1
  Ti  Ti151  1  0.41777575  0.78854505  0.74675605  1
  Ti  Ti152  1  0.10018351  0.90070778  0.12474639  1
  Ti  Ti153  1  0.50180271  0.69144466  0.87317136  1
  Ti  Ti154  1  0.69942988  0.11226705  0.12739494  1
  Ti  Ti155  1  0.40648675  0.58810249  0.74818851  1
  Ti  Ti156  1  0.78623698  -0.00116322  0.48918914  1
  Ti  Ti157  1  -0.00495758  0.20450910  0.24804252  1
  Ti  Ti158  1  0.18973540  0.79890549  -0.00542633  1
  Ti  Ti159  1  0.89435922  0.10410578  0.12726626  1
  Mo  Mo160  1  0.10153936  0.69026679  0.37897432  1
  Mo  Mo161  1  0.00346947  0.40434714  0.74409325  1
  Mo  Mo162  1  0.40922802  0.79957926  0.50948033  1
  Mo  Mo163  1  0.88773286  0.90163552  0.88130674  1
  Mo  Mo164  1  0.49680403  0.69965466  0.13956910  1
  Mo  Mo165  1  0.19307003  0.61082335  -0.00504858  1
  Mo  Mo166  1  0.49544786  0.10060670  0.12984357  1
  Mo  Mo167  1  0.20152771  0.20955740  0.24810661  1
  Mo  Mo168  1  0.50692074  0.30402902  0.87003331  1
  Mo  Mo169  1  0.50335655  0.29416315  0.61998115  1
  Mo  Mo170  1  0.79948687  0.80378763  0.50072500  1
  Mo  Mo171  1  0.20048735  0.00557537  0.75386807  1
  Mo  Mo172  1  0.69197252  0.70967498  0.62097052  1
  Mo  Mo173  1  0.50009396  0.29100936  0.36556403  1
  Mo  Mo174  1  0.29777176  0.49430863  0.10859390  1
  Mo  Mo175  1  0.19962243  0.39996102  0.00555408  1
  Mo  Mo176  1  0.59115239  0.79334744  0.74924208  1
  Mo  Mo177  1  0.48880300  0.50459841  0.63050944  1
  Mo  Mo178  1  0.29468799  0.29626857  0.86991182  1
  Mo  Mo179  1  0.00677074  0.79827596  0.51360882  1
  Mo  Mo180  1  0.69284482  0.50134219  0.62260332  1
  Mo  Mo181  1  0.59940959  0.19883253  0.25405697  1
  Mo  Mo182  1  0.19356997  0.80056790  0.74965575  1
  Mo  Mo183  1  0.49608303  0.50087397  0.36768022  1
  Mo  Mo184  1  0.40936176  0.79535672  0.24806800  1
  Mo  Mo185  1  0.20254113  0.60006747  0.75058249  1
  Mo  Mo186  1  0.79188460  0.40461496  0.00914603  1
  Mo  Mo187  1  0.69437951  0.89885918  0.36619520  1
  Mo  Mo188  1  0.10186256  0.50885840  0.38000705  1
  Mo  Mo189  1  0.09732764  0.89901717  0.62320979  1
  Mo  Mo190  1  0.79518908  0.39992270  0.26867921  1
  Mo  Mo191  1  0.39799189  0.19069701  -0.00233893  1
  Mo  Mo192  1  0.10397915  0.90506024  0.88402373  1
  Mo  Mo193  1  0.70477706  0.09489974  0.38154513  1
  Mo  Mo194  1  0.00295944  0.80049396  0.25089188  1
  Mo  Mo195  1  0.89861612  0.69946727  0.12741473  1
  Mo  Mo196  1  0.90410973  0.29535989  0.36815428  1
  Mo  Mo197  1  0.60230567  0.59641730  0.24160677  1
  Mo  Mo198  1  0.40046647  0.79354483  -0.00739880  1
  Mo  Mo199  1  0.60642727  0.59182784  0.50565583  1
