# generated using pymatgen
data_HfZrTaTiMo
_symmetry_space_group_name_H-M   'P 1'
_cell_length_a   15.21597770
_cell_length_b   15.21491895
_cell_length_c   16.86198641
_cell_angle_alpha   89.98502723
_cell_angle_beta   89.96912860
_cell_angle_gamma   89.94332705
_symmetry_Int_Tables_number   1
_chemical_formula_structural   HfZrTaTiMo
_chemical_formula_sum   'Hf40 Zr40 Ta40 Ti40 Mo40'
_cell_volume   3903.71362882
_cell_formula_units_Z   40
loop_
 _symmetry_equiv_pos_site_id
 _symmetry_equiv_pos_as_xyz
  1  'x, y, z'
loop_
 _atom_site_type_symbol
 _atom_site_label
 _atom_site_symmetry_multiplicity
 _atom_site_fract_x
 _atom_site_fract_y
 _atom_site_fract_z
 _atom_site_occupancy
  Hf  Hf0  1  0.01959481  0.20298230  0.75291149  1
  Hf  Hf1  1  0.09374707  0.51087055  0.62524207  1
  Hf  Hf2  1  0.90294376  0.50653785  0.12993125  1
  Hf  Hf3  1  0.81377255  -0.01393820  0.25613122  1
  Hf  Hf4  1  0.48501274  0.49199497  0.88791750  1
  Hf  Hf5  1  0.79498702  0.19369330  0.25775640  1
  Hf  Hf6  1  0.79902993  0.20254317  0.48815497  1
  Hf  Hf7  1  0.28827405  0.51257021  0.36725775  1
  Hf  Hf8  1  0.11060942  0.71458008  0.86914770  1
  Hf  Hf9  1  0.30144194  0.10249826  0.36094392  1
  Hf  Hf10  1  0.78438368  0.59927674  0.25856461  1
  Hf  Hf11  1  -0.01001485  0.61956236  -0.00525275  1
  Hf  Hf12  1  0.10542498  0.10234696  0.38036197  1
  Hf  Hf13  1  -0.01041204  0.81718491  0.75607739  1
  Hf  Hf14  1  0.10718394  0.10857544  0.89174380  1
  Hf  Hf15  1  0.11560363  0.88816874  0.11679486  1
  Hf  Hf16  1  0.60114092  0.79183490  0.24041648  1
  Hf  Hf17  1  0.51075806  0.88485718  0.61426688  1
  Hf  Hf18  1  0.91269957  0.09477821  0.61657284  1
  Hf  Hf19  1  0.60897076  0.00342799  0.01965595  1
  Hf  Hf20  1  0.39816700  -0.01640316  0.73051182  1
  Hf  Hf21  1  0.59292716  0.59334577  0.01163735  1
  Hf  Hf22  1  0.59524805  0.59528104  0.75521347  1
  Hf  Hf23  1  0.79437774  0.59123021  0.00217989  1
  Hf  Hf24  1  0.88068790  0.49796632  0.87472418  1
  Hf  Hf25  1  0.21195860  0.81204660  0.49931534  1
  Hf  Hf26  1  -0.01200269  0.19749846  0.00623584  1
  Hf  Hf27  1  0.82108498  0.79395011  -0.00846974  1
  Hf  Hf28  1  0.39086507  0.19632019  0.49332288  1
  Hf  Hf29  1  0.00145244  0.21559956  0.48748631  1
  Hf  Hf30  1  0.10242159  0.92621633  0.60481672  1
  Hf  Hf31  1  0.51520646  0.09159412  0.87822478  1
  Hf  Hf32  1  -0.02713991  0.61651033  0.49569940  1
  Hf  Hf33  1  0.59007246  0.38341697  0.24441929  1
  Hf  Hf34  1  0.40063370  0.18784415  0.73536582  1
  Hf  Hf35  1  0.00834719  0.40135527  -0.00233355  1
  Hf  Hf36  1  0.69542793  0.69360733  0.88116369  1
  Hf  Hf37  1  0.29960850  0.69616458  0.62370283  1
  Hf  Hf38  1  0.19313074  0.39697644  0.75188611  1
  Hf  Hf39  1  0.60517023  -0.00225342  0.73402928  1
  Zr  Zr40  1  0.36857967  0.60677890  0.00215434  1
  Zr  Zr41  1  0.41062474  0.19996356  0.01014598  1
  Zr  Zr42  1  0.31200543  0.31972116  0.13871487  1
  Zr  Zr43  1  0.09031474  0.69441454  0.13149840  1
  Zr  Zr44  1  0.46841917  0.48520630  0.11462774  1
  Zr  Zr45  1  0.20437849  0.81452668  0.73936321  1
  Zr  Zr46  1  0.19925220  0.21844426  0.01395308  1
  Zr  Zr47  1  0.70020208  0.90356242  0.87628463  1
  Zr  Zr48  1  0.81108435  -0.01120292  0.74326581  1
  Zr  Zr49  1  0.48767522  0.70582695  0.88310137  1
  Zr  Zr50  1  0.50166093  0.29233458  0.87337466  1
  Zr  Zr51  1  0.89429420  0.28779541  0.87217232  1
  Zr  Zr52  1  0.21879912  0.42307398  -0.00356502  1
  Zr  Zr53  1  -0.01514071  0.40924588  0.74612157  1
  Zr  Zr54  1  0.28770108  0.29348291  0.62537406  1
  Zr  Zr55  1  0.31732745  0.08837544  0.87908934  1
  Zr  Zr56  1  0.51733270  0.11238134  0.14513127  1
  Zr  Zr57  1  0.40142445  0.39720618  0.48571550  1
  Zr  Zr58  1  0.81005014  0.77819056  0.48707155  1
  Zr  Zr59  1  0.59899967  0.40560955  0.74860176  1
  Zr  Zr60  1  0.80331811  -0.00970607  0.49287454  1
  Zr  Zr61  1  0.89357549  0.30668755  0.62395099  1
  Zr  Zr62  1  0.81548742  0.00147117  0.00599674  1
  Zr  Zr63  1  0.09984537  0.51196544  0.86318354  1
  Zr  Zr64  1  0.08497891  0.71115294  0.62208622  1
  Zr  Zr65  1  0.51204285  0.89157829  0.37874062  1
  Zr  Zr66  1  0.50109627  0.09085279  0.36320368  1
  Zr  Zr67  1  0.59439754  0.19936067  0.49787896  1
  Zr  Zr68  1  0.88457721  0.48768841  0.37379813  1
  Zr  Zr69  1  0.19730258  0.01580702  0.75279978  1
  Zr  Zr70  1  -0.00469841  0.60674614  0.26130021  1
  Zr  Zr71  1  0.60821287  0.19817052  0.73643246  1
  Zr  Zr72  1  0.29527179  0.29858001  0.86798700  1
  Zr  Zr73  1  0.19210023  0.40026533  0.49154059  1
  Zr  Zr74  1  0.23099977  -0.01293376  0.00887791  1
  Zr  Zr75  1  0.58460086  0.58976083  0.23795148  1
  Zr  Zr76  1  0.89544748  0.30227334  0.13688621  1
  Zr  Zr77  1  0.49537062  0.89962344  0.87795707  1
  Zr  Zr78  1  0.09889442  0.09756005  0.12274552  1
  Zr  Zr79  1  0.31419758  0.09725893  0.14671609  1
  Ta  Ta80  1  0.39892134  0.60149431  0.49527762  1
  Ta  Ta81  1  0.28820268  0.71390515  0.14200023  1
  Ta  Ta82  1  0.38670026  0.81701881  0.01360157  1
  Ta  Ta83  1  0.00477068  0.19806138  0.25339557  1
  Ta  Ta84  1  0.91984193  0.88805555  0.12623923  1
  Ta  Ta85  1  0.71373692  0.87821044  0.62235051  1
  Ta  Ta86  1  0.10919712  0.11877738  0.60574250  1
  Ta  Ta87  1  0.71954364  0.88854121  0.12848305  1
  Ta  Ta88  1  0.50458334  0.68677035  0.61902311  1
  Ta  Ta89  1  0.70103358  0.48052916  0.12709232  1
  Ta  Ta90  1  0.26563062  0.51821678  0.15358431  1
  Ta  Ta91  1  0.70242150  0.30212950  0.87759002  1
  Ta  Ta92  1  0.69625501  0.30848094  0.61606630  1
  Ta  Ta93  1  0.20031459  -0.00585355  0.24941573  1
  Ta  Ta94  1  0.31127161  0.90483201  0.36390383  1
  Ta  Ta95  1  0.70530217  0.68197454  0.62588025  1
  Ta  Ta96  1  0.70624089  0.09683649  0.61699742  1
  Ta  Ta97  1  0.61686754  -0.00671015  0.23848277  1
  Ta  Ta98  1  0.39282890  0.59517699  0.74934194  1
  Ta  Ta99  1  0.40549518  0.79358819  0.49973897  1
  Ta  Ta100  1  0.09551231  0.30508943  0.61697201  1
  Ta  Ta101  1  0.59861274  0.80207929  0.01922046  1
  Ta  Ta102  1  0.71325400  0.10964959  0.87285802  1
  Ta  Ta103  1  0.09625448  0.71103278  0.38346111  1
  Ta  Ta104  1  0.49760433  0.30409422  0.61882733  1
  Ta  Ta105  1  0.90610439  0.08567836  0.87427423  1
  Ta  Ta106  1  0.39927829  0.40564409  0.74101371  1
  Ta  Ta107  1  0.79063288  0.38777740  0.00454891  1
  Ta  Ta108  1  0.30211720  0.70925702  0.37021255  1
  Ta  Ta109  1  0.29089513  0.08961726  0.61154143  1
  Ta  Ta110  1  0.01043452  -0.00524908  0.25420967  1
  Ta  Ta111  1  0.69678576  0.09002695  0.37236150  1
  Ta  Ta112  1  0.87287477  0.52315517  0.62139049  1
  Ta  Ta113  1  0.39809563  0.40987082  0.26921182  1
  Ta  Ta114  1  0.00789925  0.00585967  0.75037500  1
  Ta  Ta115  1  0.30076284  0.50252070  0.62292860  1
  Ta  Ta116  1  0.70870280  0.69535385  0.12162787  1
  Ta  Ta117  1  0.69569048  0.31319103  0.37463573  1
  Ta  Ta118  1  0.39989336  -0.00808502  0.50646801  1
  Ta  Ta119  1  0.50113779  0.69167488  0.37736521  1
  Ti  Ti120  1  0.69203108  0.28117853  0.13285129  1
  Ti  Ti121  1  0.10471424  0.32263274  0.13708489  1
  Ti  Ti122  1  -0.01107582  0.41091824  0.50134861  1
  Ti  Ti123  1  0.60448052  0.79226665  0.74422674  1
  Ti  Ti124  1  0.90311945  0.09116240  0.13444794  1
  Ti  Ti125  1  -0.01766078  0.61582763  0.74888722  1
  Ti  Ti126  1  0.50435689  0.49933799  0.61294652  1
  Ti  Ti127  1  0.61344901  0.20007503  0.00390891  1
  Ti  Ti128  1  0.70172313  0.89011013  0.37283848  1
  Ti  Ti129  1  0.80731018  0.79041509  0.25888404  1
  Ti  Ti130  1  0.90001320  0.30303307  0.36212627  1
  Ti  Ti131  1  0.79318463  0.19321242  0.00941662  1
  Ti  Ti132  1  0.42003876  0.22465682  0.26098863  1
  Ti  Ti133  1  0.61168803  0.77912406  0.49713332  1
  Ti  Ti134  1  0.09477491  0.91027575  0.89491372  1
  Ti  Ti135  1  0.80089383  0.78740887  0.75660890  1
  Ti  Ti136  1  0.09126027  0.50661422  0.38004927  1
  Ti  Ti137  1  0.79125108  0.59604601  0.75583155  1
  Ti  Ti138  1  -0.00024211  0.80604817  0.25789743  1
  Ti  Ti139  1  0.60573025  -0.00401666  0.50750270  1
  Ti  Ti140  1  0.29690585  0.87976572  0.87626468  1
  Ti  Ti141  1  0.39430826  0.61061130  0.25180399  1
  Ti  Ti142  1  0.78497471  0.40361499  0.74633282  1
  Ti  Ti143  1  0.48489965  0.70854437  0.12317299  1
  Ti  Ti144  1  0.78627491  0.40819730  0.50173359  1
  Ti  Ti145  1  0.10757099  0.90924356  0.38631695  1
  Ti  Ti146  1  0.76688939  0.59406864  0.48014364  1
  Ti  Ti147  1  0.19670671  0.60611255  0.49617855  1
  Ti  Ti148  1  0.91015191  0.88947402  0.61095372  1
  Ti  Ti149  1  0.10356149  0.30741958  0.36645102  1
  Ti  Ti150  1  0.51572370  0.49675508  0.38353819  1
  Ti  Ti151  1  0.19847379  0.21214497  0.24725885  1
  Ti  Ti152  1  0.18768691  0.61143889  0.00228662  1
  Ti  Ti153  1  0.92110198  0.89273896  0.38335851  1
  Ti  Ti154  1  0.40600389  0.79010863  0.74283747  1
  Ti  Ti155  1  0.00460155  0.40356163  0.25087000  1
  Ti  Ti156  1  0.59628509  0.38675383  0.00853921  1
  Ti  Ti157  1  0.90811789  0.09389903  0.37444311  1
  Ti  Ti158  1  0.80261931  0.19657314  0.74336347  1
  Ti  Ti159  1  0.19584920  0.80269962  0.26253487  1
  Mo  Mo160  1  0.20052756  0.20956102  0.48817920  1
  Mo  Mo161  1  0.79363765  0.39507092  0.24546462  1
  Mo  Mo162  1  0.20454783  0.59974277  0.74323132  1
  Mo  Mo163  1  0.71551667  0.09520881  0.13617119  1
  Mo  Mo164  1  0.29428123  0.30077446  0.35874920  1
  Mo  Mo165  1  0.68380766  0.70086857  0.36958019  1
  Mo  Mo166  1  0.60473804  0.40257829  0.50329895  1
  Mo  Mo167  1  0.40914918  -0.01354877  0.24836415  1
  Mo  Mo168  1  0.39917135  0.39545089  -0.00564940  1
  Mo  Mo169  1  0.50243976  0.89987275  0.12863643  1
  Mo  Mo170  1  0.29653684  0.51486380  0.86084172  1
  Mo  Mo171  1  0.50550615  0.30127630  0.12464453  1
  Mo  Mo172  1  0.59410847  0.59778913  0.49885322  1
  Mo  Mo173  1  0.68728048  0.49373040  0.36940620  1
  Mo  Mo174  1  0.10018992  0.30044514  0.88125299  1
  Mo  Mo175  1  0.09507972  0.49992952  0.12635876  1
  Mo  Mo176  1  0.00198891  -0.00573170  0.00329327  1
  Mo  Mo177  1  0.50068019  0.09517278  0.61372641  1
  Mo  Mo178  1  0.90077444  0.69642782  0.86384666  1
  Mo  Mo179  1  0.18767174  0.40481326  0.26196712  1
  Mo  Mo180  1  0.88785728  0.71512281  0.13477437  1
  Mo  Mo181  1  0.40322762  0.79439169  0.25227353  1
  Mo  Mo182  1  0.69624754  0.50102280  0.62345172  1
  Mo  Mo183  1  0.00172913  0.00361020  0.49152327  1
  Mo  Mo184  1  0.21489474  0.00918932  0.48892776  1
  Mo  Mo185  1  0.18960509  0.61259715  0.26723214  1
  Mo  Mo186  1  0.21026717  0.78529867  0.00007659  1
  Mo  Mo187  1  0.89728092  0.70371698  0.36712735  1
  Mo  Mo188  1  0.19722710  0.19557581  0.74548352  1
  Mo  Mo189  1  0.91007668  0.90173109  0.87304652  1
  Mo  Mo190  1  0.00367778  0.80566981  0.49381764  1
  Mo  Mo191  1  0.60764338  0.19750968  0.26566289  1
  Mo  Mo192  1  0.00659521  0.80493337  -0.00700040  1
  Mo  Mo193  1  0.30685561  0.89711818  0.61896113  1
  Mo  Mo194  1  0.88313217  0.70900053  0.63477470  1
  Mo  Mo195  1  0.30064233  0.70470268  0.86542591  1
  Mo  Mo196  1  0.41635868  -0.00776940  0.01206609  1
  Mo  Mo197  1  0.31022992  0.89325524  0.14898230  1
  Mo  Mo198  1  0.69260789  0.48455938  0.88832057  1
  Mo  Mo199  1  0.49995832  0.30442725  0.38003726  1
