# generated using pymatgen
data_HfZrTaTiMo
_symmetry_space_group_name_H-M   'P 1'
_cell_length_a   15.21113330
_cell_length_b   15.22804909
_cell_length_c   16.81636013
_cell_angle_alpha   89.99493750
_cell_angle_beta   90.04118243
_cell_angle_gamma   90.07156645
_symmetry_Int_Tables_number   1
_chemical_formula_structural   HfZrTaTiMo
_chemical_formula_sum   'Hf40 Zr40 Ta40 Ti40 Mo40'
_cell_volume   3895.26839646
_cell_formula_units_Z   40
loop_
 _symmetry_equiv_pos_site_id
 _symmetry_equiv_pos_as_xyz
  1  'x, y, z'
loop_
 _atom_site_type_symbol
 _atom_site_label
 _atom_site_symmetry_multiplicity
 _atom_site_fract_x
 _atom_site_fract_y
 _atom_site_fract_z
 _atom_site_occupancy
  Hf  Hf0  1  0.31173431  0.69533174  0.86436334  1
  Hf  Hf1  1  0.22122334  0.81523324  0.74234528  1
  Hf  Hf2  1  0.51269374  0.90119553  0.11889223  1
  Hf  Hf3  1  0.40253698  0.78791815  0.00612356  1
  Hf  Hf4  1  0.10353838  0.90849283  0.36897408  1
  Hf  Hf5  1  -0.01524222  0.00398489  0.76678261  1
  Hf  Hf6  1  0.90943312  0.29255240  0.10989125  1
  Hf  Hf7  1  -0.00477960  0.58960596  0.74350033  1
  Hf  Hf8  1  0.30670916  0.49073340  0.12727485  1
  Hf  Hf9  1  0.70762328  0.28991753  0.85534736  1
  Hf  Hf10  1  -0.00989771  0.62103565  0.24745605  1
  Hf  Hf11  1  0.78806402  0.60395971  0.22796353  1
  Hf  Hf12  1  0.90746219  0.91212573  0.62102338  1
  Hf  Hf13  1  0.69806830  0.49225205  0.38867178  1
  Hf  Hf14  1  0.08829710  0.90400307  0.11883088  1
  Hf  Hf15  1  0.50925135  0.69708952  0.38657943  1
  Hf  Hf16  1  0.68944495  0.91636051  0.61679442  1
  Hf  Hf17  1  0.20039839  0.01993616  0.24944131  1
  Hf  Hf18  1  0.89595735  0.50494141  0.39498849  1
  Hf  Hf19  1  0.40817449  0.00365650  0.25247944  1
  Hf  Hf20  1  0.68874515  0.09431955  0.36621602  1
  Hf  Hf21  1  0.50879888  0.48757811  0.11675603  1
  Hf  Hf22  1  0.38255791  0.19825547  0.26327254  1
  Hf  Hf23  1  0.80932401  0.81248055  0.74861400  1
  Hf  Hf24  1  0.80439065  0.02106823  0.49885868  1
  Hf  Hf25  1  0.20772351  0.60175683  0.00155928  1
  Hf  Hf26  1  0.00109085  0.39345498  0.74430967  1
  Hf  Hf27  1  0.80245562  0.19828466  0.24591584  1
  Hf  Hf28  1  0.00961676  0.80337484  0.75443428  1
  Hf  Hf29  1  0.48314331  0.89645038  0.61192814  1
  Hf  Hf30  1  0.70450126  0.69619978  0.62794325  1
  Hf  Hf31  1  0.61025372  0.00901709  -0.01037386  1
  Hf  Hf32  1  0.40135951  0.79959557  0.25000779  1
  Hf  Hf33  1  0.83018054  0.79639227  0.22900822  1
  Hf  Hf34  1  0.10623673  0.30107224  0.11587421  1
  Hf  Hf35  1  0.10968138  0.69834566  0.61906474  1
  Hf  Hf36  1  0.90818714  0.69200484  0.61319887  1
  Hf  Hf37  1  0.09436917  0.50005484  0.38517746  1
  Hf  Hf38  1  0.68571570  0.30145250  0.37142903  1
  Hf  Hf39  1  0.79056522  0.60068284  0.01178853  1
  Zr  Zr40  1  0.59633217  0.80982893  0.74653648  1
  Zr  Zr41  1  0.90880603  0.29416293  0.88315957  1
  Zr  Zr42  1  0.10650890  0.49884224  0.12846873  1
  Zr  Zr43  1  0.09247760  0.70992254  0.39370850  1
  Zr  Zr44  1  0.49295696  0.29456202  0.86159056  1
  Zr  Zr45  1  0.11331077  0.91648375  0.62741827  1
  Zr  Zr46  1  0.48832487  0.10656746  0.11468861  1
  Zr  Zr47  1  0.50377130  0.68848573  0.12804479  1
  Zr  Zr48  1  0.70209042  0.70810826  0.87251568  1
  Zr  Zr49  1  0.29008978  0.09199210  0.62709120  1
  Zr  Zr50  1  0.20065265  0.80374121  0.24435831  1
  Zr  Zr51  1  0.39035612  -0.01365117  0.75841930  1
  Zr  Zr52  1  0.90927424  0.88996089  0.37380147  1
  Zr  Zr53  1  0.09272220  0.49281371  0.88110583  1
  Zr  Zr54  1  0.22056095  0.81655212  0.50482646  1
  Zr  Zr55  1  0.38518854  0.00692781  -0.00716867  1
  Zr  Zr56  1  0.89067614  0.28842096  0.62936800  1
  Zr  Zr57  1  0.90372271  0.69806247  0.87955044  1
  Zr  Zr58  1  0.49482625  0.50558076  0.86149322  1
  Zr  Zr59  1  0.50465063  0.88914448  0.88575070  1
  Zr  Zr60  1  0.09006292  0.11134889  0.63037338  1
  Zr  Zr61  1  0.60114887  0.59130192  0.51018872  1
  Zr  Zr62  1  0.49043288  0.49606413  0.63430438  1
  Zr  Zr63  1  0.41848760  0.39414336  0.26659196  1
  Zr  Zr64  1  0.60564287  0.40564917  -0.01913373  1
  Zr  Zr65  1  0.60815230  0.01623245  0.76621072  1
  Zr  Zr66  1  0.19947695  0.60027144  0.25989993  1
  Zr  Zr67  1  0.68760784  0.30972422  0.12474370  1
  Zr  Zr68  1  0.91062202  0.49388106  0.11618853  1
  Zr  Zr69  1  0.61706359  0.79001850  0.24412979  1
  Zr  Zr70  1  0.11135130  0.69967945  0.87193604  1
  Zr  Zr71  1  0.51429474  0.90461268  0.38851716  1
  Zr  Zr72  1  0.79853099  0.40650820  0.24464996  1
  Zr  Zr73  1  0.39796755  0.59221448  0.26766448  1
  Zr  Zr74  1  0.71537859  0.69394508  0.38155061  1
  Zr  Zr75  1  0.57968184  0.20348107  0.24922732  1
  Zr  Zr76  1  -0.00860192  0.19046881  0.49066460  1
  Zr  Zr77  1  0.80081223  0.80373617  0.50727053  1
  Zr  Zr78  1  0.00336814  0.19571216  0.25454848  1
  Zr  Zr79  1  0.70591030  0.90094284  0.37309154  1
  Ta  Ta80  1  0.81459962  0.80838371  0.01118049  1
  Ta  Ta81  1  0.70985251  0.11185320  0.63386347  1
  Ta  Ta82  1  0.29511663  0.49527188  0.86452498  1
  Ta  Ta83  1  0.08988452  0.10909403  0.88952136  1
  Ta  Ta84  1  0.29950121  0.29613569  0.12572352  1
  Ta  Ta85  1  0.50208529  0.69643994  0.86823943  1
  Ta  Ta86  1  0.20071353  0.19749131  0.48364846  1
  Ta  Ta87  1  0.00563397  -0.00021088  0.49326952  1
  Ta  Ta88  1  0.59830770  0.19327029  0.50972697  1
  Ta  Ta89  1  0.29304644  0.29650981  0.61930607  1
  Ta  Ta90  1  0.09695363  0.30525229  0.38207125  1
  Ta  Ta91  1  0.20323437  0.80575490  0.00520529  1
  Ta  Ta92  1  0.39051426  0.00245326  0.49580207  1
  Ta  Ta93  1  0.20568247  0.39915748  0.49801545  1
  Ta  Ta94  1  0.79853740  0.39982406  -0.00445135  1
  Ta  Ta95  1  0.89505588  0.30851315  0.38205299  1
  Ta  Ta96  1  0.31772751  0.69792672  0.62395744  1
  Ta  Ta97  1  0.49800548  0.70239532  0.61659863  1
  Ta  Ta98  1  0.59106842  0.38265713  0.51405540  1
  Ta  Ta99  1  0.71244637  0.48940052  0.63151858  1
  Ta  Ta100  1  0.19595113  0.20974365  0.26394512  1
  Ta  Ta101  1  0.60180133  0.60217037  0.74260079  1
  Ta  Ta102  1  0.50089773  0.09797056  0.62778335  1
  Ta  Ta103  1  0.21082061  0.59702016  0.50099284  1
  Ta  Ta104  1  0.09536924  0.10690602  0.10781787  1
  Ta  Ta105  1  0.69409729  0.29730249  0.64339026  1
  Ta  Ta106  1  0.89997639  0.48997896  0.60520835  1
  Ta  Ta107  1  0.37495046  0.19561980  0.75359140  1
  Ta  Ta108  1  0.59899762  0.57544165  0.25538498  1
  Ta  Ta109  1  0.78818314  0.20983588  0.49678203  1
  Ta  Ta110  1  0.49138921  0.28954294  0.63995602  1
  Ta  Ta111  1  0.38871193  0.39001911  -0.01213598  1
  Ta  Ta112  1  0.40023815  0.20289530  0.50187453  1
  Ta  Ta113  1  0.19586015  0.38731594  0.74520389  1
  Ta  Ta114  1  0.69361570  0.09511384  0.13201564  1
  Ta  Ta115  1  0.78670522  0.19240355  0.00448518  1
  Ta  Ta116  1  0.29715733  0.69726490  0.12515137  1
  Ta  Ta117  1  0.59775535  0.61042440  -0.00599209  1
  Ta  Ta118  1  0.29339694  0.49553776  0.62451324  1
  Ta  Ta119  1  0.48518796  0.29947422  0.11238902  1
  Ti  Ti120  1  0.90752326  0.69633580  0.39739376  1
  Ti  Ti121  1  0.90163808  0.09343971  0.11874547  1
  Ti  Ti122  1  0.19372792  0.01895979  0.77091361  1
  Ti  Ti123  1  0.72284413  0.91043590  0.88019266  1
  Ti  Ti124  1  0.38337589  0.39644000  0.74995867  1
  Ti  Ti125  1  0.30730571  0.30652620  0.38985184  1
  Ti  Ti126  1  0.09484058  0.70760319  0.11911428  1
  Ti  Ti127  1  0.40090538  0.58944875  -0.00380161  1
  Ti  Ti128  1  0.29970758  0.90707175  0.12157605  1
  Ti  Ti129  1  0.20402514  0.58970740  0.73993858  1
  Ti  Ti130  1  0.00036465  0.60595855  0.00349996  1
  Ti  Ti131  1  0.00552972  0.39887556  0.25545019  1
  Ti  Ti132  1  0.10296006  0.29588145  0.88478542  1
  Ti  Ti133  1  0.21019649  0.39664663  0.26399494  1
  Ti  Ti134  1  0.21672035  0.20248449  -0.01037460  1
  Ti  Ti135  1  -0.00582177  -0.00419512  0.24282289  1
  Ti  Ti136  1  0.48949763  0.10794451  0.87535074  1
  Ti  Ti137  1  0.20389673  0.39831036  -0.00565174  1
  Ti  Ti138  1  -0.01411455  -0.00674457  -0.00794690  1
  Ti  Ti139  1  0.70603418  0.90090130  0.12194879  1
  Ti  Ti140  1  0.30323159  0.70213980  0.38385147  1
  Ti  Ti141  1  0.87946723  0.09811586  0.88236324  1
  Ti  Ti142  1  0.10046740  0.30181572  0.61170087  1
  Ti  Ti143  1  -0.00097246  0.19631717  0.75585874  1
  Ti  Ti144  1  0.09674303  0.90117060  0.88595523  1
  Ti  Ti145  1  0.39729272  0.58254741  0.49091095  1
  Ti  Ti146  1  0.79941436  -0.00236884  0.23982790  1
  Ti  Ti147  1  0.89889865  0.09475502  0.36579595  1
  Ti  Ti148  1  0.89526662  0.49505132  0.87936757  1
  Ti  Ti149  1  0.19409192  0.00622734  -0.00521967  1
  Ti  Ti150  1  0.60215451  0.40090001  0.74860603  1
  Ti  Ti151  1  0.09730703  0.49337879  0.61034996  1
  Ti  Ti152  1  0.19957983  0.01426097  0.48655668  1
  Ti  Ti153  1  0.71068912  0.50632872  0.85720028  1
  Ti  Ti154  1  0.49572974  0.10308783  0.38556805  1
  Ti  Ti155  1  0.29320228  0.89737878  0.88271878  1
  Ti  Ti156  1  0.31031401  0.90501332  0.37353018  1
  Ti  Ti157  1  0.80005019  0.00279939  0.00716539  1
  Ti  Ti158  1  0.28897006  0.11153004  0.11992501  1
  Ti  Ti159  1  0.59446080  0.20370653  -0.00442703  1
  Mo  Mo160  1  0.79003988  0.38736503  0.50528781  1
  Mo  Mo161  1  -0.00165469  0.18801072  -0.00097306  1
  Mo  Mo162  1  0.09530886  0.10150454  0.37142049  1
  Mo  Mo163  1  0.89923569  0.90223858  0.88361923  1
  Mo  Mo164  1  0.00884335  0.59503337  0.51002273  1
  Mo  Mo165  1  0.39606958  0.59971536  0.74223492  1
  Mo  Mo166  1  0.80107718  0.59201321  0.50756617  1
  Mo  Mo167  1  0.30447199  0.90428027  0.61937250  1
  Mo  Mo168  1  0.00316720  0.40003379  -0.00587216  1
  Mo  Mo169  1  0.40154944  0.78958970  0.48969205  1
  Mo  Mo170  1  0.80601240  0.40867880  0.75286821  1
  Mo  Mo171  1  0.80344477  0.58791936  0.74668023  1
  Mo  Mo172  1  0.89502914  0.10108558  0.62932651  1
  Mo  Mo173  1  0.59633082  0.01510890  0.50704707  1
  Mo  Mo174  1  0.18502028  0.20897963  0.75608788  1
  Mo  Mo175  1  0.58855439  0.19859588  0.74469951  1
  Mo  Mo176  1  0.69794838  0.10571215  0.88199915  1
  Mo  Mo177  1  0.61628544  0.79928038  0.00180248  1
  Mo  Mo178  1  0.50566603  0.48364244  0.39150893  1
  Mo  Mo179  1  0.00711547  0.80031527  0.24645104  1
  Mo  Mo180  1  0.30020866  0.09831561  0.38165970  1
  Mo  Mo181  1  0.00184915  0.38989785  0.50328782  1
  Mo  Mo182  1  0.59642071  0.40167255  0.25100848  1
  Mo  Mo183  1  0.28874630  0.30463552  0.86961636  1
  Mo  Mo184  1  0.80073331  0.00512038  0.75306342  1
  Mo  Mo185  1  0.29775867  0.49660090  0.38812044  1
  Mo  Mo186  1  0.00918451  0.80187386  -0.00735218  1
  Mo  Mo187  1  0.60600999  -0.00024541  0.23952545  1
  Mo  Mo188  1  0.59834304  0.80161864  0.50687155  1
  Mo  Mo189  1  0.39236961  0.20568551  -0.00687679  1
  Mo  Mo190  1  0.69034746  0.50694008  0.11721643  1
  Mo  Mo191  1  0.91397108  0.70738687  0.10730493  1
  Mo  Mo192  1  0.40459668  0.79248160  0.74832374  1
  Mo  Mo193  1  0.39847718  0.39465386  0.50665991  1
  Mo  Mo194  1  0.80315839  0.18360342  0.75443312  1
  Mo  Mo195  1  0.90351024  0.91332045  0.11901934  1
  Mo  Mo196  1  0.50139362  0.29283758  0.39269606  1
  Mo  Mo197  1  0.69608168  0.70871163  0.11322611  1
  Mo  Mo198  1  0.00871799  0.80734008  0.50558645  1
  Mo  Mo199  1  0.28778147  0.10409087  0.87155967  1
