# generated using pymatgen
data_HfZrTaTiMo
_symmetry_space_group_name_H-M   'P 1'
_cell_length_a   15.19123381
_cell_length_b   15.15764902
_cell_length_c   16.81924820
_cell_angle_alpha   89.94568544
_cell_angle_beta   90.00603867
_cell_angle_gamma   90.08760384
_symmetry_Int_Tables_number   1
_chemical_formula_structural   HfZrTaTiMo
_chemical_formula_sum   'Hf40 Zr40 Ta40 Ti40 Mo40'
_cell_volume   3872.85082587
_cell_formula_units_Z   40
loop_
 _symmetry_equiv_pos_site_id
 _symmetry_equiv_pos_as_xyz
  1  'x, y, z'
loop_
 _atom_site_type_symbol
 _atom_site_label
 _atom_site_symmetry_multiplicity
 _atom_site_fract_x
 _atom_site_fract_y
 _atom_site_fract_z
 _atom_site_occupancy
  Hf  Hf0  1  0.30083060  0.48118053  0.38511691  1
  Hf  Hf1  1  0.50257263  0.89440477  0.63315250  1
  Hf  Hf2  1  0.20039320  0.58167232  0.25671056  1
  Hf  Hf3  1  0.79697408  0.61131622  0.24149034  1
  Hf  Hf4  1  0.01025300  0.00645823  0.50093176  1
  Hf  Hf5  1  0.28805576  0.09301892  0.12541598  1
  Hf  Hf6  1  0.30434814  0.09998482  0.36915137  1
  Hf  Hf7  1  0.19506991  0.38096223  0.51699441  1
  Hf  Hf8  1  0.68515560  0.11505335  0.88804629  1
  Hf  Hf9  1  0.37745108  0.18321443  0.75056710  1
  Hf  Hf10  1  0.79242487  0.79779261  0.49233048  1
  Hf  Hf11  1  0.10765795  0.12148997  0.61996879  1
  Hf  Hf12  1  0.39591130  0.80132578  0.49762420  1
  Hf  Hf13  1  0.20796822  0.01866077  0.75004283  1
  Hf  Hf14  1  0.59788416  0.78336319  0.50191270  1
  Hf  Hf15  1  0.09908133  0.32110283  0.12110875  1
  Hf  Hf16  1  0.81329453  0.01450010  0.25800420  1
  Hf  Hf17  1  0.61804301  0.38722031  0.75048915  1
  Hf  Hf18  1  0.10692009  0.89773186  0.85938171  1
  Hf  Hf19  1  0.40289595  0.60214552  0.51008792  1
  Hf  Hf20  1  0.82034587  0.59945671  0.00446401  1
  Hf  Hf21  1  0.59740443  0.60493866  0.23184235  1
  Hf  Hf22  1  0.58489489  0.59370504  0.00249917  1
  Hf  Hf23  1  0.51272487  0.68696961  0.36858998  1
  Hf  Hf24  1  0.10689602  0.10318751  0.37247451  1
  Hf  Hf25  1  0.50354135  0.49810668  0.86036671  1
  Hf  Hf26  1  -0.00893856  0.19653513  0.25975621  1
  Hf  Hf27  1  0.20145730  0.41562047  -0.01156811  1
  Hf  Hf28  1  0.50278492  0.28109502  0.87971999  1
  Hf  Hf29  1  0.58967428  -0.00027544  0.01219800  1
  Hf  Hf30  1  -0.00030726  0.40383625  0.75628019  1
  Hf  Hf31  1  0.50207580  0.48896923  0.39318801  1
  Hf  Hf32  1  0.61348687  0.38410753  -0.00602620  1
  Hf  Hf33  1  0.29899299  0.91061899  0.62940771  1
  Hf  Hf34  1  0.30116078  0.69599140  0.37317179  1
  Hf  Hf35  1  0.69821098  0.30028697  0.60083318  1
  Hf  Hf36  1  0.89112211  0.30694537  0.13754160  1
  Hf  Hf37  1  0.39517442  0.19785410  0.23470803  1
  Hf  Hf38  1  0.50384418  0.30595885  0.12274011  1
  Hf  Hf39  1  0.28692274  0.10242274  0.89755077  1
  Zr  Zr40  1  0.47675781  0.28968630  0.38436906  1
  Zr  Zr41  1  0.72077530  0.50077142  0.87859257  1
  Zr  Zr42  1  0.79285965  0.21472349  0.75499828  1
  Zr  Zr43  1  0.92375641  0.50169993  0.13608881  1
  Zr  Zr44  1  0.69746510  0.71659692  0.10391082  1
  Zr  Zr45  1  0.00896704  0.61290526  0.25849370  1
  Zr  Zr46  1  0.51811598  0.49816166  0.62624211  1
  Zr  Zr47  1  0.49791748  0.27650890  0.61571593  1
  Zr  Zr48  1  0.40262348  0.38525667  0.74049261  1
  Zr  Zr49  1  0.69771558  0.52242486  0.38583484  1
  Zr  Zr50  1  0.72178232  0.90257677  0.11601115  1
  Zr  Zr51  1  0.70111797  0.11592479  0.12021940  1
  Zr  Zr52  1  0.10096496  0.28619778  0.88153458  1
  Zr  Zr53  1  0.19972923  0.38385540  0.74193288  1
  Zr  Zr54  1  0.59601352  0.40175194  0.25487134  1
  Zr  Zr55  1  0.80403949  0.00127885  0.49724365  1
  Zr  Zr56  1  0.90312522  0.72786776  0.12425878  1
  Zr  Zr57  1  0.29427062  0.87732917  0.13527799  1
  Zr  Zr58  1  0.08276409  0.09387587  0.13163146  1
  Zr  Zr59  1  0.89977065  0.70654532  0.87584918  1
  Zr  Zr60  1  0.90351053  0.50558877  0.36537466  1
  Zr  Zr61  1  0.70040379  0.68854681  0.63696630  1
  Zr  Zr62  1  0.59578819  0.19136771  0.26018728  1
  Zr  Zr63  1  0.90797348  0.29867889  0.61938167  1
  Zr  Zr64  1  0.38950944  0.79786618  0.75857369  1
  Zr  Zr65  1  0.59686349  -0.00034503  0.75648324  1
  Zr  Zr66  1  0.39691622  -0.02251857  0.01971804  1
  Zr  Zr67  1  0.40236310  0.00194085  0.48737058  1
  Zr  Zr68  1  0.30002457  0.68050573  0.13002820  1
  Zr  Zr69  1  0.80874348  0.41567787  0.50173817  1
  Zr  Zr70  1  0.20769717  0.78481122  -0.01133124  1
  Zr  Zr71  1  -0.00302416  0.80266395  0.50013303  1
  Zr  Zr72  1  0.69179646  0.10166066  0.61436270  1
  Zr  Zr73  1  0.90042301  0.90261766  0.63437456  1
  Zr  Zr74  1  0.70963954  0.48811854  0.12154075  1
  Zr  Zr75  1  -0.01648367  0.41013968  -0.01748062  1
  Zr  Zr76  1  0.79874360  0.00813587  0.75318117  1
  Zr  Zr77  1  0.10348258  0.70498374  0.12784743  1
  Zr  Zr78  1  0.50638924  0.89362694  0.36294122  1
  Zr  Zr79  1  0.71107296  0.88998335  0.89079373  1
  Ta  Ta80  1  0.38464877  0.59329618  -0.00833446  1
  Ta  Ta81  1  0.29685617  0.48058299  0.12448947  1
  Ta  Ta82  1  0.39078781  0.38696996  0.51960344  1
  Ta  Ta83  1  0.69378630  0.30376894  0.39506896  1
  Ta  Ta84  1  0.89904121  0.30597529  0.37599278  1
  Ta  Ta85  1  0.60658497  -0.01155988  0.24204351  1
  Ta  Ta86  1  0.49760047  0.89615395  0.87308521  1
  Ta  Ta87  1  0.90577528  0.11408815  0.87589274  1
  Ta  Ta88  1  0.48919110  0.70408814  0.12101575  1
  Ta  Ta89  1  0.00230429  0.81861688  0.26441554  1
  Ta  Ta90  1  0.40614695  0.57827700  0.24789694  1
  Ta  Ta91  1  0.69796267  0.89273716  0.63094181  1
  Ta  Ta92  1  0.91095824  0.91123553  0.86510217  1
  Ta  Ta93  1  -0.00545338  -0.00151060  -0.00392630  1
  Ta  Ta94  1  -0.00580560  0.60018222  0.50094997  1
  Ta  Ta95  1  0.00754894  0.79643474  0.74283170  1
  Ta  Ta96  1  0.18184211  -0.01647522  0.00680201  1
  Ta  Ta97  1  0.30033196  0.50439875  0.63203563  1
  Ta  Ta98  1  0.30399830  0.50391239  0.85624667  1
  Ta  Ta99  1  0.60328304  0.79245034  0.76267368  1
  Ta  Ta100  1  0.60296526  -0.01713035  0.49525914  1
  Ta  Ta101  1  0.00746608  0.40695191  0.49891415  1
  Ta  Ta102  1  0.40366537  0.40286942  -0.00282191  1
  Ta  Ta103  1  0.09925702  0.69985461  0.38630084  1
  Ta  Ta104  1  0.40696071  -0.00617679  0.24196813  1
  Ta  Ta105  1  0.81281701  0.01728328  -0.00605013  1
  Ta  Ta106  1  0.20146252  0.80721516  0.49736835  1
  Ta  Ta107  1  0.48104576  0.08711522  0.88129357  1
  Ta  Ta108  1  0.00773952  0.21349770  0.48733682  1
  Ta  Ta109  1  0.19502764  0.59934232  0.50880999  1
  Ta  Ta110  1  0.19886064  0.22019707  0.24478641  1
  Ta  Ta111  1  0.40761400  0.19253495  0.01695566  1
  Ta  Ta112  1  0.29102114  0.70415114  0.62812080  1
  Ta  Ta113  1  0.69371924  0.09212327  0.38129171  1
  Ta  Ta114  1  0.30505154  0.90787015  0.87197823  1
  Ta  Ta115  1  0.49680424  0.69111118  0.64412005  1
  Ta  Ta116  1  0.10762144  0.52139969  0.86311899  1
  Ta  Ta117  1  0.79810125  0.22910103  -0.01087323  1
  Ta  Ta118  1  0.01357759  0.81372045  -0.00518849  1
  Ta  Ta119  1  0.81060166  0.41629497  0.74386148  1
  Ti  Ti120  1  0.30423998  0.29591847  0.88589446  1
  Ti  Ti121  1  0.09407111  0.50402271  0.62619132  1
  Ti  Ti122  1  0.89539675  0.69797315  0.62753337  1
  Ti  Ti123  1  -0.01035955  0.20023370  0.00057468  1
  Ti  Ti124  1  0.09589116  0.70475723  0.61850054  1
  Ti  Ti125  1  0.48950215  0.08582560  0.62418731  1
  Ti  Ti126  1  0.11362835  0.90388831  0.38064389  1
  Ti  Ti127  1  0.69506442  0.69426821  0.87691268  1
  Ti  Ti128  1  0.80171016  0.79575255  0.75311430  1
  Ti  Ti129  1  -0.00940065  0.60385632  0.74841939  1
  Ti  Ti130  1  0.18947815  0.61009076  0.73659456  1
  Ti  Ti131  1  0.00143887  0.01128702  0.74458547  1
  Ti  Ti132  1  0.70699026  0.50689244  0.61899637  1
  Ti  Ti133  1  0.10785788  0.90435059  0.62820327  1
  Ti  Ti134  1  0.09370719  0.09539284  0.88122820  1
  Ti  Ti135  1  0.29907084  0.10798154  0.60643274  1
  Ti  Ti136  1  0.38215956  0.38989339  0.24629842  1
  Ti  Ti137  1  0.19488248  0.79623660  0.26242435  1
  Ti  Ti138  1  0.89244282  0.70428454  0.37496642  1
  Ti  Ti139  1  0.79189493  0.21116050  0.27116415  1
  Ti  Ti140  1  0.58967605  0.19168772  0.74779852  1
  Ti  Ti141  1  0.10591986  0.49688413  0.38611298  1
  Ti  Ti142  1  0.58214330  0.17884444  0.48732520  1
  Ti  Ti143  1  0.49120814  0.68852808  0.86287073  1
  Ti  Ti144  1  0.92234120  0.92028344  0.13192713  1
  Ti  Ti145  1  0.90458714  0.91172071  0.37395092  1
  Ti  Ti146  1  0.89959258  0.11026582  0.61953069  1
  Ti  Ti147  1  0.02550300  0.60839934  -0.00693644  1
  Ti  Ti148  1  0.70618635  0.30101965  0.13310510  1
  Ti  Ti149  1  0.00443102  0.20296109  0.75303831  1
  Ti  Ti150  1  0.39989402  0.78570458  -0.01334937  1
  Ti  Ti151  1  0.28180407  0.68914193  0.85913954  1
  Ti  Ti152  1  0.79161226  0.81242907  0.26220409  1
  Ti  Ti153  1  0.19333913  -0.00994036  0.24777174  1
  Ti  Ti154  1  0.89199497  0.11019057  0.12077102  1
  Ti  Ti155  1  0.58285560  0.79809484  -0.00962408  1
  Ti  Ti156  1  0.02080304  0.40069419  0.26131240  1
  Ti  Ti157  1  0.19541940  0.20322003  0.01576750  1
  Ti  Ti158  1  0.40722979  0.79029412  0.25092412  1
  Ti  Ti159  1  0.89961697  0.51470760  0.62427023  1
  Mo  Mo160  1  0.59537455  0.19597862  0.00605728  1
  Mo  Mo161  1  0.89864908  0.10931915  0.38386380  1
  Mo  Mo162  1  0.91142458  0.51170903  0.86894181  1
  Mo  Mo163  1  0.39090634  0.59758467  0.74249760  1
  Mo  Mo164  1  0.20076896  0.19380481  0.49179016  1
  Mo  Mo165  1  0.80569756  0.60198263  0.75112654  1
  Mo  Mo166  1  0.83517314  0.82845443  -0.00153139  1
  Mo  Mo167  1  0.70182528  0.71016764  0.36532729  1
  Mo  Mo168  1  0.10328444  0.30808860  0.37207182  1
  Mo  Mo169  1  0.80655805  0.40286708  0.00124187  1
  Mo  Mo170  1  0.89239941  0.30529962  0.86580433  1
  Mo  Mo171  1  0.69879755  0.30335468  0.86829786  1
  Mo  Mo172  1  0.60408769  0.79801304  0.24047987  1
  Mo  Mo173  1  0.00376208  -0.00234952  0.26407834  1
  Mo  Mo174  1  0.39056994  0.19683950  0.49990981  1
  Mo  Mo175  1  0.20543503  0.59373997  -0.01002978  1
  Mo  Mo176  1  0.28572247  0.29360183  0.37562977  1
  Mo  Mo177  1  0.20168601  0.39763257  0.25124150  1
  Mo  Mo178  1  0.49981139  0.09086717  0.13255604  1
  Mo  Mo179  1  0.50942200  0.88139852  0.13457752  1
  Mo  Mo180  1  0.48582975  0.50347079  0.11827569  1
  Mo  Mo181  1  0.29363175  0.89441316  0.35733577  1
  Mo  Mo182  1  0.80362919  0.19852249  0.48426538  1
  Mo  Mo183  1  0.19325663  0.80043695  0.74178488  1
  Mo  Mo184  1  0.70257129  0.89805751  0.36823310  1
  Mo  Mo185  1  0.19129854  0.19795293  0.75934267  1
  Mo  Mo186  1  0.40031415  0.00331761  0.75488796  1
  Mo  Mo187  1  0.50313919  0.09155657  0.36542732  1
  Mo  Mo188  1  0.08984238  0.29953439  0.62648903  1
  Mo  Mo189  1  0.80890850  0.61440554  0.50219775  1
  Mo  Mo190  1  0.09698667  0.69943130  0.86328418  1
  Mo  Mo191  1  0.10906383  0.50873133  0.11978938  1
  Mo  Mo192  1  0.59726995  0.39697868  0.50222984  1
  Mo  Mo193  1  0.79819242  0.39102591  0.26418076  1
  Mo  Mo194  1  0.09551749  0.89691814  0.13072268  1
  Mo  Mo195  1  0.60308547  0.60098548  0.76186263  1
  Mo  Mo196  1  0.20169009  -0.00850774  0.49920407  1
  Mo  Mo197  1  0.60695630  0.60244118  0.50412197  1
  Mo  Mo198  1  0.28800366  0.28235699  0.62529705  1
  Mo  Mo199  1  0.29784392  0.29855058  0.11096212  1
