# generated using pymatgen
data_HfZrTaTiMo
_symmetry_space_group_name_H-M   'P 1'
_cell_length_a   15.21044772
_cell_length_b   15.20888498
_cell_length_c   16.83867021
_cell_angle_alpha   90.00006987
_cell_angle_beta   89.95890614
_cell_angle_gamma   89.94694514
_symmetry_Int_Tables_number   1
_chemical_formula_structural   HfZrTaTiMo
_chemical_formula_sum   'Hf40 Zr40 Ta40 Ti40 Mo40'
_cell_volume   3895.35341825
_cell_formula_units_Z   40
loop_
 _symmetry_equiv_pos_site_id
 _symmetry_equiv_pos_as_xyz
  1  'x, y, z'
loop_
 _atom_site_type_symbol
 _atom_site_label
 _atom_site_symmetry_multiplicity
 _atom_site_fract_x
 _atom_site_fract_y
 _atom_site_fract_z
 _atom_site_occupancy
  Hf  Hf0  1  0.80803239  0.60851652  0.73278428  1
  Hf  Hf1  1  -0.00234836  0.19986451  -0.00379559  1
  Hf  Hf2  1  0.37905594  0.19395719  0.76251115  1
  Hf  Hf3  1  0.51271066  0.29003232  0.13703800  1
  Hf  Hf4  1  0.91700927  0.50715491  0.39262685  1
  Hf  Hf5  1  0.01543957  0.19389911  0.75213365  1
  Hf  Hf6  1  0.78251893  0.20234180  0.49518223  1
  Hf  Hf7  1  0.50514948  0.29091718  0.87199079  1
  Hf  Hf8  1  0.52849142  0.28549168  0.35913680  1
  Hf  Hf9  1  0.59711415  0.01679160  0.50585823  1
  Hf  Hf10  1  -0.00372401  0.40327509  0.72263484  1
  Hf  Hf11  1  0.19614882  0.81433378  0.74286060  1
  Hf  Hf12  1  0.40262208  0.39442327  0.48613005  1
  Hf  Hf13  1  0.19056190  -0.00587456  0.26493437  1
  Hf  Hf14  1  0.89794615  0.88900920  0.37006299  1
  Hf  Hf15  1  0.89797795  0.51983221  0.86983880  1
  Hf  Hf16  1  0.40010732  0.79095661  0.49853551  1
  Hf  Hf17  1  0.07975774  0.70091570  0.38139267  1
  Hf  Hf18  1  0.58881982  0.81956292  0.23057363  1
  Hf  Hf19  1  0.38877178  0.58268792  -0.00876997  1
  Hf  Hf20  1  0.09031704  0.10099574  0.12221153  1
  Hf  Hf21  1  -0.01312425  0.79929736  0.00011825  1
  Hf  Hf22  1  0.81255177  -0.00474911  0.74833789  1
  Hf  Hf23  1  0.50276398  0.89044657  0.62057407  1
  Hf  Hf24  1  0.39728153  0.59916775  0.25865258  1
  Hf  Hf25  1  0.50744594  0.48294637  0.88213583  1
  Hf  Hf26  1  0.51064842  0.49924078  0.36621353  1
  Hf  Hf27  1  -0.01925643  0.79486835  0.51734807  1
  Hf  Hf28  1  0.22333570  0.40009958  -0.01325129  1
  Hf  Hf29  1  0.79266698  0.40220339  0.72715747  1
  Hf  Hf30  1  0.41585735  0.19593522  0.48757712  1
  Hf  Hf31  1  0.80886661  0.20073091  -0.01288488  1
  Hf  Hf32  1  0.09546822  0.89940370  0.12219591  1
  Hf  Hf33  1  0.07841112  0.70901014  0.85821976  1
  Hf  Hf34  1  0.01480802  0.39844875  0.25210443  1
  Hf  Hf35  1  0.60274730  0.37477542  0.50841188  1
  Hf  Hf36  1  0.40570137  0.18570719  0.25886497  1
  Hf  Hf37  1  0.39775339  -0.01102995  0.23952734  1
  Hf  Hf38  1  0.60481800  0.00235588  0.74814370  1
  Hf  Hf39  1  0.19678553  0.02097525  0.75027607  1
  Zr  Zr40  1  0.40536339  0.59461270  0.49057417  1
  Zr  Zr41  1  0.68393551  0.51564449  0.61106492  1
  Zr  Zr42  1  0.68559447  0.90865733  0.36540627  1
  Zr  Zr43  1  0.77658364  0.80511930  0.49756774  1
  Zr  Zr44  1  0.49886596  0.49033744  0.13195837  1
  Zr  Zr45  1  0.69334718  0.89504612  0.87887892  1
  Zr  Zr46  1  0.50243537  0.12571657  0.63585555  1
  Zr  Zr47  1  -0.00526224  0.59851569  0.25086531  1
  Zr  Zr48  1  0.19408284  0.60766338  -0.01996738  1
  Zr  Zr49  1  0.80175041  0.19648261  0.75673249  1
  Zr  Zr50  1  0.20181564  0.59764809  0.50233062  1
  Zr  Zr51  1  0.48865777  0.89513934  0.88104088  1
  Zr  Zr52  1  0.18055418  0.80331609  0.51597009  1
  Zr  Zr53  1  0.80811619  0.39953036  0.51865958  1
  Zr  Zr54  1  0.20051050  0.37409026  0.75851688  1
  Zr  Zr55  1  0.70836327  0.09889844  0.12125984  1
  Zr  Zr56  1  0.39970198  0.20379898  -0.00099657  1
  Zr  Zr57  1  0.79773701  0.00287463  0.50357606  1
  Zr  Zr58  1  0.51470801  0.70358736  0.88923591  1
  Zr  Zr59  1  -0.00908136  0.00909813  0.25921939  1
  Zr  Zr60  1  0.11108470  0.50554082  0.12034790  1
  Zr  Zr61  1  0.49491752  0.69963064  0.11734737  1
  Zr  Zr62  1  0.90653563  0.31458274  0.86553090  1
  Zr  Zr63  1  0.11210196  0.30316861  0.12567024  1
  Zr  Zr64  1  0.28782717  0.89611965  0.38752158  1
  Zr  Zr65  1  0.30587521  0.69991575  0.63556109  1
  Zr  Zr66  1  0.28830835  0.69044981  0.12395129  1
  Zr  Zr67  1  0.39225936  -0.01194820  0.74618007  1
  Zr  Zr68  1  0.40778251  0.59646621  0.76001463  1
  Zr  Zr69  1  0.48820055  0.91155189  0.38229805  1
  Zr  Zr70  1  0.29268607  0.09904391  0.12361639  1
  Zr  Zr71  1  0.19513611  0.19937323  0.26567410  1
  Zr  Zr72  1  0.62070090  0.58730737  0.00405278  1
  Zr  Zr73  1  0.72468543  0.30487794  0.12588524  1
  Zr  Zr74  1  0.08855475  0.48907176  0.87054840  1
  Zr  Zr75  1  0.70901942  0.70335872  0.12525448  1
  Zr  Zr76  1  0.20028556  0.59026899  0.75473904  1
  Zr  Zr77  1  0.90206023  0.69997098  0.12923517  1
  Zr  Zr78  1  0.70944486  0.50423487  0.38548622  1
  Zr  Zr79  1  0.60968784  0.59449682  0.75622202  1
  Ta  Ta80  1  0.29182698  0.10624353  0.60804515  1
  Ta  Ta81  1  0.08318663  0.91170027  0.86917438  1
  Ta  Ta82  1  -0.01194735  0.20641701  0.25491012  1
  Ta  Ta83  1  -0.00620721  0.39972916  0.00615577  1
  Ta  Ta84  1  0.68780511  0.72154854  0.62376817  1
  Ta  Ta85  1  0.50679291  0.69140471  0.62530994  1
  Ta  Ta86  1  0.39829850  0.39561299  0.75120990  1
  Ta  Ta87  1  0.30720485  0.71563398  0.86545255  1
  Ta  Ta88  1  0.90755652  0.30242850  0.38671297  1
  Ta  Ta89  1  0.81098643  0.61903289  0.50499438  1
  Ta  Ta90  1  0.19573390  0.59503505  0.26224394  1
  Ta  Ta91  1  0.01439745  0.39670741  0.51451339  1
  Ta  Ta92  1  0.91472933  0.09072269  0.61988311  1
  Ta  Ta93  1  0.62524061  0.40403062  0.24750663  1
  Ta  Ta94  1  0.30746740  0.29225050  0.61892882  1
  Ta  Ta95  1  0.88213244  0.90853323  0.13085520  1
  Ta  Ta96  1  0.60694490  0.19569270  -0.00907785  1
  Ta  Ta97  1  0.89057258  0.48985139  0.12454748  1
  Ta  Ta98  1  0.19164969  0.79405748  0.25589168  1
  Ta  Ta99  1  0.10275685  0.29891588  0.38502106  1
  Ta  Ta100  1  0.80110641  0.20042245  0.26281761  1
  Ta  Ta101  1  0.19338827  0.80601346  -0.01321080  1
  Ta  Ta102  1  0.31151375  0.30988154  0.13858972  1
  Ta  Ta103  1  0.00244840  -0.00592716  0.48878180  1
  Ta  Ta104  1  0.60705197  0.38859773  0.00641752  1
  Ta  Ta105  1  0.30679456  0.48381259  0.62578799  1
  Ta  Ta106  1  -0.00090145  0.80401937  0.24995979  1
  Ta  Ta107  1  0.82079458  0.39776196  0.25932538  1
  Ta  Ta108  1  0.72567755  0.70350734  0.88076437  1
  Ta  Ta109  1  0.10234674  0.10437176  0.61249228  1
  Ta  Ta110  1  0.20344032  0.20219086  -0.01170553  1
  Ta  Ta111  1  0.21212895  0.39232091  0.49235273  1
  Ta  Ta112  1  0.80487203  -0.00541230  -0.00344611  1
  Ta  Ta113  1  0.89529311  0.88513814  0.87269344  1
  Ta  Ta114  1  0.10075297  0.10185586  0.88004707  1
  Ta  Ta115  1  0.79823889  0.41180108  -0.00291403  1
  Ta  Ta116  1  0.19572980  -0.00087275  -0.00775072  1
  Ta  Ta117  1  0.38784498  0.79907027  0.24715543  1
  Ta  Ta118  1  0.10313249  0.70577172  0.12522716  1
  Ta  Ta119  1  0.38651948  0.80192708  0.00464067  1
  Ti  Ti120  1  0.29381096  0.69667932  0.37392145  1
  Ti  Ti121  1  0.00451275  0.19284270  0.49354935  1
  Ti  Ti122  1  0.39353586  -0.00442011  0.00522519  1
  Ti  Ti123  1  0.59210555  0.01843215  0.24439805  1
  Ti  Ti124  1  0.69785497  0.30722665  0.87129933  1
  Ti  Ti125  1  -0.00109918  0.59895977  0.00231667  1
  Ti  Ti126  1  0.49892995  0.09089290  0.87863778  1
  Ti  Ti127  1  0.11020472  0.49506740  0.38502842  1
  Ti  Ti128  1  0.30325946  0.09656715  0.38944439  1
  Ti  Ti129  1  -0.01151615  0.00226417  0.00070091  1
  Ti  Ti130  1  0.08166075  0.91973369  0.63109102  1
  Ti  Ti131  1  0.70691219  0.49533317  0.87068226  1
  Ti  Ti132  1  0.11781717  0.28554098  0.61126713  1
  Ti  Ti133  1  0.49348887  0.49427449  0.62295379  1
  Ti  Ti134  1  0.50902146  0.71271608  0.36434025  1
  Ti  Ti135  1  0.28981153  0.89129154  0.12133842  1
  Ti  Ti136  1  -0.01774805  0.80740787  0.73265530  1
  Ti  Ti137  1  0.30151185  0.48875263  0.13988606  1
  Ti  Ti138  1  0.79494282  0.79535077  0.25563814  1
  Ti  Ti139  1  0.79047949  0.00632410  0.25044388  1
  Ti  Ti140  1  0.18685274  0.00884257  0.49077193  1
  Ti  Ti141  1  0.60606806  0.62844627  0.48629227  1
  Ti  Ti142  1  -0.00098072  0.60718955  0.72351368  1
  Ti  Ti143  1  0.29585123  0.91295569  0.61226448  1
  Ti  Ti144  1  0.69935398  0.09869832  0.87734317  1
  Ti  Ti145  1  0.60958054  0.60765659  0.24888849  1
  Ti  Ti146  1  0.89330213  0.10263005  0.38005851  1
  Ti  Ti147  1  0.60677689  0.81205159  0.01630975  1
  Ti  Ti148  1  0.90559906  0.28012437  0.61799182  1
  Ti  Ti149  1  0.59906276  -0.00052623  0.00622194  1
  Ti  Ti150  1  0.59469765  0.79579193  0.75267568  1
  Ti  Ti151  1  0.59647020  0.38371512  0.73443949  1
  Ti  Ti152  1  0.00331631  0.60213538  0.52820196  1
  Ti  Ti153  1  0.50218538  0.09597781  0.11676511  1
  Ti  Ti154  1  0.29192665  0.90597405  0.87652982  1
  Ti  Ti155  1  0.70483860  0.10929435  0.63407867  1
  Ti  Ti156  1  0.11560718  0.49623572  0.62210704  1
  Ti  Ti157  1  0.81296745  0.60771410  0.00014794  1
  Ti  Ti158  1  0.79263506  0.80402011  0.73778326  1
  Ti  Ti159  1  0.79681292  0.59374264  0.25655644  1
  Mo  Mo160  1  0.79798501  0.80599041  0.00226067  1
  Mo  Mo161  1  0.09223560  0.89464712  0.37783093  1
  Mo  Mo162  1  0.89307680  0.90676419  0.62430369  1
  Mo  Mo163  1  0.69241348  0.90553727  0.63236616  1
  Mo  Mo164  1  0.30543046  0.30081032  0.87824362  1
  Mo  Mo165  1  0.59186369  0.79931951  0.49731106  1
  Mo  Mo166  1  0.39011674  0.00346869  0.51111347  1
  Mo  Mo167  1  0.19970122  0.19681638  0.75227673  1
  Mo  Mo168  1  0.69435141  0.70227050  0.35978601  1
  Mo  Mo169  1  0.68620062  0.11123741  0.36501288  1
  Mo  Mo170  1  0.40255948  0.39408177  0.26178463  1
  Mo  Mo171  1  0.09748962  0.70591385  0.64136573  1
  Mo  Mo172  1  0.48804786  0.90815167  0.11156367  1
  Mo  Mo173  1  0.20346555  0.20211760  0.48730899  1
  Mo  Mo174  1  0.68703160  0.28241200  0.63652562  1
  Mo  Mo175  1  0.30008938  0.09126991  0.88733361  1
  Mo  Mo176  1  0.60118535  0.19677512  0.77072970  1
  Mo  Mo177  1  0.69943077  0.90890954  0.12618803  1
  Mo  Mo178  1  0.89947536  0.70616086  0.86566576  1
  Mo  Mo179  1  0.90782752  0.29766974  0.12792770  1
  Mo  Mo180  1  0.30784291  0.30174672  0.36405556  1
  Mo  Mo181  1  0.71364395  0.30640755  0.36701661  1
  Mo  Mo182  1  0.50569800  0.09019742  0.37224679  1
  Mo  Mo183  1  0.90513419  0.50077624  0.61286418  1
  Mo  Mo184  1  0.29792902  0.49633524  0.36759730  1
  Mo  Mo185  1  0.21084913  0.40309621  0.26606428  1
  Mo  Mo186  1  0.09982494  0.29607126  0.88217332  1
  Mo  Mo187  1  0.08993481  0.10384815  0.38453078  1
  Mo  Mo188  1  0.89671499  0.10478201  0.12994305  1
  Mo  Mo189  1  0.60712203  0.19972532  0.50289638  1
  Mo  Mo190  1  0.40946667  0.39370947  0.00742060  1
  Mo  Mo191  1  0.40147493  0.79779992  0.74705998  1
  Mo  Mo192  1  0.48944892  0.30572875  0.63336716  1
  Mo  Mo193  1  0.89009673  0.70705360  0.62674903  1
  Mo  Mo194  1  0.61346680  0.19316274  0.24460123  1
  Mo  Mo195  1  0.88526940  0.69564167  0.37161253  1
  Mo  Mo196  1  0.00308813  -0.00193099  0.74913949  1
  Mo  Mo197  1  0.91237871  0.07538105  0.87617197  1
  Mo  Mo198  1  0.31005415  0.50113451  0.86856121  1
  Mo  Mo199  1  0.70991629  0.50112337  0.13271795  1
