# generated using pymatgen
data_HfZrTaTiMo
_symmetry_space_group_name_H-M   'P 1'
_cell_length_a   15.22215815
_cell_length_b   15.20941701
_cell_length_c   16.83771978
_cell_angle_alpha   90.04562399
_cell_angle_beta   90.00759917
_cell_angle_gamma   90.01105141
_symmetry_Int_Tables_number   1
_chemical_formula_structural   HfZrTaTiMo
_chemical_formula_sum   'Hf40 Zr40 Ta40 Ti40 Mo40'
_cell_volume   3898.27008401
_cell_formula_units_Z   40
loop_
 _symmetry_equiv_pos_site_id
 _symmetry_equiv_pos_as_xyz
  1  'x, y, z'
loop_
 _atom_site_type_symbol
 _atom_site_label
 _atom_site_symmetry_multiplicity
 _atom_site_fract_x
 _atom_site_fract_y
 _atom_site_fract_z
 _atom_site_occupancy
  Hf  Hf0  1  0.50053372  0.70903981  0.12834224  1
  Hf  Hf1  1  0.00828729  0.00740401  0.50831516  1
  Hf  Hf2  1  0.91802188  0.49789652  0.86816285  1
  Hf  Hf3  1  0.09640365  0.30061770  0.86731484  1
  Hf  Hf4  1  0.90421587  0.90588167  0.37889405  1
  Hf  Hf5  1  0.71396742  0.30270142  0.61762419  1
  Hf  Hf6  1  0.70060169  0.10140316  0.38165941  1
  Hf  Hf7  1  0.78725751  0.39776446  0.75756526  1
  Hf  Hf8  1  0.11391292  0.49857865  0.13713139  1
  Hf  Hf9  1  0.69192388  0.70316979  0.88103462  1
  Hf  Hf10  1  0.18871978  0.19247253  0.51795631  1
  Hf  Hf11  1  -0.00233479  0.39948347  0.00723538  1
  Hf  Hf12  1  0.71197799  0.91382746  0.88207203  1
  Hf  Hf13  1  0.91604199  0.50373311  0.36739058  1
  Hf  Hf14  1  0.79818999  0.00411519  0.51054364  1
  Hf  Hf15  1  0.80607619  0.59461038  -0.00354640  1
  Hf  Hf16  1  0.58889631  0.21085791  0.73079690  1
  Hf  Hf17  1  0.12205151  0.70462566  0.14015304  1
  Hf  Hf18  1  0.39228117  0.00237412  0.50198220  1
  Hf  Hf19  1  0.88858250  0.08768866  0.87951722  1
  Hf  Hf20  1  0.88651882  0.29467472  0.11963570  1
  Hf  Hf21  1  0.10193250  0.68649467  0.35371045  1
  Hf  Hf22  1  0.60312905  0.38655718  0.01132038  1
  Hf  Hf23  1  0.90322903  0.48778434  0.63143905  1
  Hf  Hf24  1  0.69870534  0.69796142  0.11504455  1
  Hf  Hf25  1  0.60205336  0.00334602  0.24496268  1
  Hf  Hf26  1  0.01064009  0.81271887  0.24853073  1
  Hf  Hf27  1  0.10044942  0.29827620  0.38570904  1
  Hf  Hf28  1  0.49933566  0.49879671  0.87821782  1
  Hf  Hf29  1  0.49193461  0.10374658  0.37127791  1
  Hf  Hf30  1  0.79613135  0.61677004  0.26550744  1
  Hf  Hf31  1  0.19880042  0.80336477  0.76650640  1
  Hf  Hf32  1  0.08967115  0.69500630  0.88525004  1
  Hf  Hf33  1  0.49581788  0.29319142  0.13453982  1
  Hf  Hf34  1  0.20793950  0.80568162  -0.00561485  1
  Hf  Hf35  1  0.11527206  0.88994354  0.61942959  1
  Hf  Hf36  1  0.80425591  0.60362858  0.75754277  1
  Hf  Hf37  1  0.78700247  0.40226856  0.25164743  1
  Hf  Hf38  1  0.21235793  0.38727568  0.00454979  1
  Hf  Hf39  1  0.69990366  0.30381038  0.39034530  1
  Zr  Zr40  1  -0.02278168  0.20484305  0.51384097  1
  Zr  Zr41  1  0.60430718  0.42860413  0.51519427  1
  Zr  Zr42  1  0.40925265  0.80523914  -0.01203731  1
  Zr  Zr43  1  0.59861377  0.79560394  0.49117470  1
  Zr  Zr44  1  0.18692918  0.60197879  0.73719734  1
  Zr  Zr45  1  0.58849704  0.19894016  0.51368730  1
  Zr  Zr46  1  0.58998060  0.01318854  -0.00549675  1
  Zr  Zr47  1  0.80782966  0.80689193  0.75745979  1
  Zr  Zr48  1  0.90518540  0.70864223  0.12995337  1
  Zr  Zr49  1  0.78090632  0.58929404  0.48265860  1
  Zr  Zr50  1  0.69919711  0.69764829  0.62525017  1
  Zr  Zr51  1  0.59449117  0.40603142  0.24652310  1
  Zr  Zr52  1  0.39641546  0.20090732  -0.00073722  1
  Zr  Zr53  1  0.89792400  0.89149866  0.61890512  1
  Zr  Zr54  1  0.69075549  0.49724873  0.88477480  1
  Zr  Zr55  1  -0.00712784  0.18952020  0.23613642  1
  Zr  Zr56  1  0.30698393  0.29787275  0.85936926  1
  Zr  Zr57  1  0.01220982  0.38902326  0.24198808  1
  Zr  Zr58  1  0.48929506  0.30636708  0.37619389  1
  Zr  Zr59  1  0.01113843  0.78296735  0.49096213  1
  Zr  Zr60  1  0.77955432  0.20066453  -0.01195850  1
  Zr  Zr61  1  0.70627239  0.90519363  0.11696642  1
  Zr  Zr62  1  0.30881150  0.89797340  0.63984527  1
  Zr  Zr63  1  0.30367946  0.68637954  0.87663047  1
  Zr  Zr64  1  0.13221176  0.90035061  0.38686182  1
  Zr  Zr65  1  0.28559505  0.09555315  0.37830708  1
  Zr  Zr66  1  0.30054087  0.70714222  0.36324235  1
  Zr  Zr67  1  0.49339654  0.89683471  0.36832177  1
  Zr  Zr68  1  0.90811773  0.68859673  0.61798255  1
  Zr  Zr69  1  0.50513943  0.90959250  0.63606578  1
  Zr  Zr70  1  0.12393777  0.49198373  0.37268266  1
  Zr  Zr71  1  0.29392616  0.30754564  0.37731635  1
  Zr  Zr72  1  -0.00200031  0.00414514  0.24608327  1
  Zr  Zr73  1  0.10988768  0.50041688  0.88072304  1
  Zr  Zr74  1  0.49699470  0.70909281  0.63174311  1
  Zr  Zr75  1  0.29034365  0.09341198  0.11234855  1
  Zr  Zr76  1  0.89908924  0.29479726  0.37168365  1
  Zr  Zr77  1  -0.00402062  -0.01768764  0.75372594  1
  Zr  Zr78  1  0.89923502  0.50726391  0.13455629  1
  Zr  Zr79  1  0.30744696  0.49180577  0.86857104  1
  Ta  Ta80  1  0.11016723  0.28239036  0.11442578  1
  Ta  Ta81  1  0.60925296  0.79703461  0.25398579  1
  Ta  Ta82  1  0.78961871  0.19349032  0.24406246  1
  Ta  Ta83  1  0.69352777  0.09091139  0.62724517  1
  Ta  Ta84  1  0.60430271  0.60021377  0.25754610  1
  Ta  Ta85  1  0.89217390  0.10243297  0.37692530  1
  Ta  Ta86  1  0.39604660  0.40733938  0.51352908  1
  Ta  Ta87  1  0.90986969  0.29089668  0.65036436  1
  Ta  Ta88  1  0.29222993  0.09222393  0.63689571  1
  Ta  Ta89  1  0.38818789  0.79880949  0.49747452  1
  Ta  Ta90  1  0.40318572  0.59693833  0.01246767  1
  Ta  Ta91  1  0.59792239  0.58534170  0.74380151  1
  Ta  Ta92  1  0.18905110  0.19330854  0.24591092  1
  Ta  Ta93  1  0.40463599  0.59787896  0.24326923  1
  Ta  Ta94  1  0.41686394  0.40387720  0.72619833  1
  Ta  Ta95  1  0.60214017  0.20283601  0.25195558  1
  Ta  Ta96  1  0.08722613  0.10125536  0.64412980  1
  Ta  Ta97  1  0.19255885  0.20075936  0.74178076  1
  Ta  Ta98  1  0.40042448  0.60111819  0.73986542  1
  Ta  Ta99  1  0.40345576  0.40219280  0.00954657  1
  Ta  Ta100  1  0.80021955  0.79230217  0.48134170  1
  Ta  Ta101  1  0.09104843  0.10111949  0.37731776  1
  Ta  Ta102  1  0.49609965  0.50696082  0.37700134  1
  Ta  Ta103  1  0.49975244  0.11466566  0.86568211  1
  Ta  Ta104  1  0.39265310  0.20188980  0.52052483  1
  Ta  Ta105  1  0.59609696  -0.00063112  0.50365249  1
  Ta  Ta106  1  0.59799450  0.00272734  0.75863816  1
  Ta  Ta107  1  0.40301141  0.60412916  0.50210551  1
  Ta  Ta108  1  0.38503003  -0.01064660  0.24659975  1
  Ta  Ta109  1  0.09473710  0.10152806  0.87537283  1
  Ta  Ta110  1  0.91220018  0.91166821  0.11166505  1
  Ta  Ta111  1  0.41147906  0.80796640  0.77258232  1
  Ta  Ta112  1  0.19266187  -0.00571576  0.24034071  1
  Ta  Ta113  1  0.68925532  0.11593965  0.12063974  1
  Ta  Ta114  1  0.09162264  0.08699747  0.10307778  1
  Ta  Ta115  1  0.67756530  0.28948604  0.86742177  1
  Ta  Ta116  1  0.19966775  0.00185728  0.76626141  1
  Ta  Ta117  1  -0.00255417  0.19726602  -0.00520481  1
  Ta  Ta118  1  0.79257756  0.18967347  0.75563141  1
  Ta  Ta119  1  0.29129465  0.30634394  0.62661211  1
  Ti  Ti120  1  0.21095763  0.59746441  0.01225654  1
  Ti  Ti121  1  0.59730995  0.80493694  -0.00466660  1
  Ti  Ti122  1  0.69787260  0.50182912  0.11662881  1
  Ti  Ti123  1  0.30935489  0.50013132  0.37029792  1
  Ti  Ti124  1  0.49227577  0.09777938  0.12923908  1
  Ti  Ti125  1  0.00716295  0.60379644  0.01384979  1
  Ti  Ti126  1  0.79480632  0.00188851  0.74097719  1
  Ti  Ti127  1  0.29715101  0.50696075  0.61953998  1
  Ti  Ti128  1  0.09627859  0.49975283  0.61820172  1
  Ti  Ti129  1  0.50637745  0.69194146  0.87199104  1
  Ti  Ti130  1  0.80820486  0.80461658  -0.00000661  1
  Ti  Ti131  1  0.19334826  -0.00344383  -0.02006319  1
  Ti  Ti132  1  0.29736385  0.10596691  0.86934471  1
  Ti  Ti133  1  0.00312822  0.58854306  0.49539929  1
  Ti  Ti134  1  0.01438081  0.80796843  0.01094416  1
  Ti  Ti135  1  0.39491796  -0.00649061  -0.02140215  1
  Ti  Ti136  1  0.49481818  0.30792730  0.87002120  1
  Ti  Ti137  1  0.09254155  0.31249758  0.63006383  1
  Ti  Ti138  1  0.49838666  0.69765783  0.36731875  1
  Ti  Ti139  1  0.80216320  0.00548142  0.24364218  1
  Ti  Ti140  1  0.91646606  0.89368614  0.89260454  1
  Ti  Ti141  1  0.80322580  0.81229204  0.25718436  1
  Ti  Ti142  1  0.50417509  0.50503391  0.12344282  1
  Ti  Ti143  1  0.90168626  0.29559262  0.86278691  1
  Ti  Ti144  1  0.69375303  0.89126317  0.62984619  1
  Ti  Ti145  1  0.88654930  0.09298417  0.10561956  1
  Ti  Ti146  1  0.80048417  0.39303654  -0.01173219  1
  Ti  Ti147  1  0.90457150  0.70192730  0.88300137  1
  Ti  Ti148  1  0.29876782  0.29921018  0.13600539  1
  Ti  Ti149  1  0.29379467  0.70682912  0.62628531  1
  Ti  Ti150  1  0.20086942  0.40323980  0.73960450  1
  Ti  Ti151  1  0.38981136  0.19445626  0.24852978  1
  Ti  Ti152  1  0.39774172  0.19891031  0.73105469  1
  Ti  Ti153  1  0.30796093  0.49604433  0.13718001  1
  Ti  Ti154  1  0.49751790  0.90451162  0.12903913  1
  Ti  Ti155  1  0.30273634  0.88570680  0.12470868  1
  Ti  Ti156  1  0.82309721  0.39301485  0.50232632  1
  Ti  Ti157  1  0.70126036  0.90499999  0.37385269  1
  Ti  Ti158  1  0.00623752  0.77769632  0.74716128  1
  Ti  Ti159  1  0.20029221  0.61112635  0.50573672  1
  Mo  Mo160  1  0.21353777  0.38486702  0.24422444  1
  Mo  Mo161  1  0.00926345  0.39968227  0.74897572  1
  Mo  Mo162  1  -0.00331727  0.19444335  0.75796071  1
  Mo  Mo163  1  0.21335878  0.79059797  0.50332706  1
  Mo  Mo164  1  0.69767534  0.29866529  0.12720296  1
  Mo  Mo165  1  0.11328164  0.90754859  0.11620017  1
  Mo  Mo166  1  0.49594449  0.51450625  0.62083457  1
  Mo  Mo167  1  0.39518466  0.40757825  0.24583605  1
  Mo  Mo168  1  0.51117839  0.90131968  0.86808226  1
  Mo  Mo169  1  0.60222918  0.79948054  0.76198840  1
  Mo  Mo170  1  0.30443355  0.91083490  0.87056166  1
  Mo  Mo171  1  0.79933373  -0.00179969  0.00322339  1
  Mo  Mo172  1  0.58530401  0.20135802  -0.00417199  1
  Mo  Mo173  1  0.00375088  0.60314665  0.24801391  1
  Mo  Mo174  1  0.58880960  0.60645471  0.48749502  1
  Mo  Mo175  1  0.39836865  0.01154012  0.76796280  1
  Mo  Mo176  1  0.69549978  0.49952581  0.37241029  1
  Mo  Mo177  1  0.21809909  0.59146941  0.24529411  1
  Mo  Mo178  1  0.00180983  -0.00341130  -0.00844453  1
  Mo  Mo179  1  0.19216646  0.19365358  -0.00766876  1
  Mo  Mo180  1  -0.00148727  0.60395685  0.75086084  1
  Mo  Mo181  1  0.20054764  0.00469182  0.51300735  1
  Mo  Mo182  1  0.68958714  0.10311301  0.86245355  1
  Mo  Mo183  1  0.90253069  0.70537424  0.36800692  1
  Mo  Mo184  1  0.09699959  0.89817272  0.87760808  1
  Mo  Mo185  1  0.49244871  0.30554726  0.61633919  1
  Mo  Mo186  1  0.40841676  0.80269468  0.24230396  1
  Mo  Mo187  1  0.69306271  0.71141313  0.36834049  1
  Mo  Mo188  1  0.00592175  0.40245052  0.50771777  1
  Mo  Mo189  1  0.59018476  0.60309316  0.00491770  1
  Mo  Mo190  1  0.10537261  0.69133878  0.62040063  1
  Mo  Mo191  1  0.22043481  0.81268159  0.24098787  1
  Mo  Mo192  1  0.20314374  0.40652576  0.51608456  1
  Mo  Mo193  1  0.30852552  0.69167112  0.12631035  1
  Mo  Mo194  1  0.70463738  0.50531353  0.63209983  1
  Mo  Mo195  1  0.49031497  0.09594490  0.63359680  1
  Mo  Mo196  1  0.79762087  0.19812263  0.51037049  1
  Mo  Mo197  1  0.30577313  0.90202318  0.37222917  1
  Mo  Mo198  1  0.88860490  0.10158628  0.64006372  1
  Mo  Mo199  1  0.59754226  0.40436804  0.73613891  1
