# generated using pymatgen
data_HfZrTaTiMo
_symmetry_space_group_name_H-M   'P 1'
_cell_length_a   15.20143933
_cell_length_b   15.18855771
_cell_length_c   16.81423804
_cell_angle_alpha   89.95203784
_cell_angle_beta   89.97661572
_cell_angle_gamma   89.89537045
_symmetry_Int_Tables_number   1
_chemical_formula_structural   HfZrTaTiMo
_chemical_formula_sum   'Hf40 Zr40 Ta40 Ti40 Mo40'
_cell_volume   3882.19660472
_cell_formula_units_Z   40
loop_
 _symmetry_equiv_pos_site_id
 _symmetry_equiv_pos_as_xyz
  1  'x, y, z'
loop_
 _atom_site_type_symbol
 _atom_site_label
 _atom_site_symmetry_multiplicity
 _atom_site_fract_x
 _atom_site_fract_y
 _atom_site_fract_z
 _atom_site_occupancy
  Hf  Hf0  1  0.60874617  0.40240827  0.75594360  1
  Hf  Hf1  1  0.50697894  0.89511988  0.86420861  1
  Hf  Hf2  1  0.49527449  0.49866444  0.38259303  1
  Hf  Hf3  1  0.31873721  0.68327156  0.38174647  1
  Hf  Hf4  1  0.31000186  0.28966884  0.38085086  1
  Hf  Hf5  1  0.79213077  0.19653587  0.50799087  1
  Hf  Hf6  1  0.80662818  0.41076376  0.74993250  1
  Hf  Hf7  1  -0.00187200  0.81706066  0.26266723  1
  Hf  Hf8  1  0.10249301  0.50447408  0.13075176  1
  Hf  Hf9  1  0.08883058  0.90399225  0.88891085  1
  Hf  Hf10  1  0.10570464  0.30085808  0.12569810  1
  Hf  Hf11  1  -0.00189830  0.60408333  0.26674114  1
  Hf  Hf12  1  0.90044082  0.71417088  0.12477942  1
  Hf  Hf13  1  0.59023571  0.21157718  0.51239412  1
  Hf  Hf14  1  0.41015647  0.39290190  0.51090673  1
  Hf  Hf15  1  0.31534935  0.89170456  0.37583018  1
  Hf  Hf16  1  0.38929426  0.19543528  0.52224996  1
  Hf  Hf17  1  0.09863793  0.30397044  0.86803700  1
  Hf  Hf18  1  0.30327493  0.87229352  0.62927878  1
  Hf  Hf19  1  0.89421535  0.30806800  0.88785673  1
  Hf  Hf20  1  0.67999677  0.29428095  0.37432135  1
  Hf  Hf21  1  0.49955480  0.08769768  0.63652833  1
  Hf  Hf22  1  0.79363442  0.20347177  0.75545596  1
  Hf  Hf23  1  0.61286855  -0.00112493  0.50248781  1
  Hf  Hf24  1  0.20057472  -0.00788901  0.76300209  1
  Hf  Hf25  1  0.29994765  0.49138629  0.12713205  1
  Hf  Hf26  1  0.49099780  0.29974717  0.86757053  1
  Hf  Hf27  1  0.09819325  0.51498523  0.60803203  1
  Hf  Hf28  1  -0.00024425  0.41256431  0.00102561  1
  Hf  Hf29  1  0.20222801  0.78871491  0.26145568  1
  Hf  Hf30  1  0.21612556  0.62073937  0.74621672  1
  Hf  Hf31  1  0.19797729  0.41057410  0.73818399  1
  Hf  Hf32  1  0.18896121  -0.01413996  0.49760128  1
  Hf  Hf33  1  0.30203134  0.29474410  0.86490285  1
  Hf  Hf34  1  0.90993109  0.70355667  0.61414174  1
  Hf  Hf35  1  0.70133067  0.51148662  0.88504299  1
  Hf  Hf36  1  0.20598885  0.19646403  0.25366324  1
  Hf  Hf37  1  0.78158524  0.19499335  0.24095839  1
  Hf  Hf38  1  0.69815029  0.29893338  0.89518259  1
  Hf  Hf39  1  0.69782746  0.71560021  0.86225194  1
  Zr  Zr40  1  0.40254401  0.38801511  0.24963808  1
  Zr  Zr41  1  0.90166096  0.30246155  0.37388385  1
  Zr  Zr42  1  0.08448768  0.30834585  0.62308334  1
  Zr  Zr43  1  0.19521513  0.19432955  0.73991195  1
  Zr  Zr44  1  0.00713455  0.20160135  0.00044210  1
  Zr  Zr45  1  0.88615908  0.09168990  0.37063037  1
  Zr  Zr46  1  0.69877705  0.31783175  0.62429194  1
  Zr  Zr47  1  0.79161364  0.61086244  0.26285361  1
  Zr  Zr48  1  0.09363465  0.89519194  0.10180240  1
  Zr  Zr49  1  0.87882398  0.89574980  0.88208546  1
  Zr  Zr50  1  0.30693494  0.69563143  0.13253190  1
  Zr  Zr51  1  0.10513482  0.69977725  0.12362893  1
  Zr  Zr52  1  0.42094956  0.59428701  0.00571995  1
  Zr  Zr53  1  -0.00107408  0.39581097  0.25248533  1
  Zr  Zr54  1  0.30222161  0.89975687  0.12483454  1
  Zr  Zr55  1  0.69063035  0.08386986  0.11451716  1
  Zr  Zr56  1  0.51946055  0.50096432  0.62067898  1
  Zr  Zr57  1  0.57994554  0.41309625  0.00994519  1
  Zr  Zr58  1  0.61103157  0.79688083  0.00203500  1
  Zr  Zr59  1  0.09758388  0.69991689  0.86888115  1
  Zr  Zr60  1  0.50738960  0.70821962  0.38601286  1
  Zr  Zr61  1  0.19459305  -0.00995677  0.25610918  1
  Zr  Zr62  1  0.50123692  0.11879882  0.37815330  1
  Zr  Zr63  1  0.20527437  0.59633999  -0.00980434  1
  Zr  Zr64  1  0.11284776  0.71235723  0.61568162  1
  Zr  Zr65  1  0.89323814  0.71533119  0.39279053  1
  Zr  Zr66  1  0.10971587  0.09317957  0.11526231  1
  Zr  Zr67  1  0.32262983  0.09693892  0.11901831  1
  Zr  Zr68  1  0.40639369  0.80886991  -0.00088218  1
  Zr  Zr69  1  0.08998827  0.09536603  0.37510220  1
  Zr  Zr70  1  0.61610843  0.00691442  0.26698928  1
  Zr  Zr71  1  0.08884601  0.48939540  0.39589991  1
  Zr  Zr72  1  0.90619162  0.48955199  0.60673851  1
  Zr  Zr73  1  0.57973764  0.17801344  -0.00802483  1
  Zr  Zr74  1  0.59728949  0.40055300  0.23515150  1
  Zr  Zr75  1  0.88857885  0.50610042  0.12195997  1
  Zr  Zr76  1  -0.01017985  0.19334459  0.51153891  1
  Zr  Zr77  1  0.89523177  0.69954934  0.86712689  1
  Zr  Zr78  1  0.30972455  0.50322541  0.86935287  1
  Zr  Zr79  1  0.79349609  0.40748150  0.24945683  1
  Ta  Ta80  1  0.59951603  0.19073170  0.75914272  1
  Ta  Ta81  1  0.20889905  0.38765145  0.50599594  1
  Ta  Ta82  1  0.79041666  0.80760773  0.72828004  1
  Ta  Ta83  1  0.21113668  0.79801324  -0.01973531  1
  Ta  Ta84  1  0.69770317  0.29846521  0.10545705  1
  Ta  Ta85  1  0.40356294  -0.01093572  0.50605539  1
  Ta  Ta86  1  0.50210021  0.50493368  0.86126663  1
  Ta  Ta87  1  0.10330538  0.70049114  0.39057851  1
  Ta  Ta88  1  0.60868369  0.80302663  0.24906384  1
  Ta  Ta89  1  0.58375464  0.79596181  0.72519026  1
  Ta  Ta90  1  0.08416022  0.08270013  0.62876051  1
  Ta  Ta91  1  -0.02598017  0.01320201  -0.00067989  1
  Ta  Ta92  1  -0.00472374  0.60992016  -0.00311461  1
  Ta  Ta93  1  0.20267417  0.39729792  0.26413257  1
  Ta  Ta94  1  0.29913045  0.29230922  0.12206110  1
  Ta  Ta95  1  0.59813876  0.60508236  0.25213518  1
  Ta  Ta96  1  -0.01196261  0.19855046  0.74767032  1
  Ta  Ta97  1  0.39775075  0.40402277  0.73538864  1
  Ta  Ta98  1  0.19732015  0.19137889  0.51339752  1
  Ta  Ta99  1  0.79617468  0.81426392  0.25520668  1
  Ta  Ta100  1  0.41245793  0.61335233  0.73209662  1
  Ta  Ta101  1  0.50820066  0.91862472  0.12709093  1
  Ta  Ta102  1  0.00840886  0.82722518  0.49447068  1
  Ta  Ta103  1  0.28977266  0.07983518  0.62412074  1
  Ta  Ta104  1  0.40875741  0.00238704  0.25897892  1
  Ta  Ta105  1  0.80536939  0.18089400  0.00322602  1
  Ta  Ta106  1  0.00116288  0.80893487  0.74594522  1
  Ta  Ta107  1  0.89105140  0.29601507  0.11672600  1
  Ta  Ta108  1  0.79062313  0.61304385  0.00202061  1
  Ta  Ta109  1  0.70098215  0.09986167  0.63421109  1
  Ta  Ta110  1  0.88669868  0.90682539  0.11104646  1
  Ta  Ta111  1  0.30138516  0.09335495  0.38479993  1
  Ta  Ta112  1  0.91262199  0.91348699  0.62889568  1
  Ta  Ta113  1  0.50098999  0.69242167  0.86580694  1
  Ta  Ta114  1  0.20507065  0.58511405  0.27070533  1
  Ta  Ta115  1  0.21484281  0.19734114  -0.01030088  1
  Ta  Ta116  1  0.79229443  0.60204542  0.49963656  1
  Ta  Ta117  1  0.80096503  0.00107518  0.74614134  1
  Ta  Ta118  1  0.20177776  0.39348979  -0.00471499  1
  Ta  Ta119  1  0.79726192  0.60371991  0.73280103  1
  Ti  Ti120  1  0.60984894  -0.01150666  0.74351144  1
  Ti  Ti121  1  0.10260942  0.29106000  0.38567331  1
  Ti  Ti122  1  0.21133944  0.79532596  0.49016458  1
  Ti  Ti123  1  -0.00777577  0.19227027  0.23700467  1
  Ti  Ti124  1  0.70461715  0.70259896  0.12830226  1
  Ti  Ti125  1  0.89807496  0.50914146  0.87889005  1
  Ti  Ti126  1  0.51282567  0.89711831  0.38222459  1
  Ti  Ti127  1  0.69252524  0.70343894  0.61428132  1
  Ti  Ti128  1  0.68755011  0.51356678  0.11454508  1
  Ti  Ti129  1  0.80718246  -0.00495224  0.24745763  1
  Ti  Ti130  1  0.60126482  0.60230228  0.50244414  1
  Ti  Ti131  1  0.51373120  0.69942949  0.13079147  1
  Ti  Ti132  1  0.38956648  0.19154228  0.73812193  1
  Ti  Ti133  1  0.69393357  0.71593914  0.38724465  1
  Ti  Ti134  1  0.09481814  0.50240507  0.87051098  1
  Ti  Ti135  1  -0.00312037  0.59605375  0.74640131  1
  Ti  Ti136  1  0.48436229  0.09231637  0.86176619  1
  Ti  Ti137  1  0.30449700  0.50511430  0.61896303  1
  Ti  Ti138  1  -0.00630066  0.40298986  0.75200547  1
  Ti  Ti139  1  0.81397629  0.00287041  0.51265128  1
  Ti  Ti140  1  0.39370156  0.38849322  0.00404420  1
  Ti  Ti141  1  0.69590016  0.50598275  0.38033534  1
  Ti  Ti142  1  0.79595628  0.40227554  0.49316466  1
  Ti  Ti143  1  0.89312885  0.10089414  0.87422640  1
  Ti  Ti144  1  0.40648325  0.59356426  0.24705536  1
  Ti  Ti145  1  -0.00712702  0.00180060  0.23808112  1
  Ti  Ti146  1  0.79508888  0.81729220  0.51572714  1
  Ti  Ti147  1  0.10477595  0.89958401  0.63477558  1
  Ti  Ti148  1  0.69508447  0.07599177  0.87906607  1
  Ti  Ti149  1  0.22912936  0.00018830  -0.02300570  1
  Ti  Ti150  1  0.50021907  0.29641516  0.64404850  1
  Ti  Ti151  1  -0.00439841  0.00544396  0.76061943  1
  Ti  Ti152  1  0.41713079  0.80140446  0.24628037  1
  Ti  Ti153  1  0.21435617  0.59041005  0.49144259  1
  Ti  Ti154  1  0.70250253  0.89373122  0.12142949  1
  Ti  Ti155  1  0.49096423  0.27591646  0.12288759  1
  Ti  Ti156  1  0.09974354  0.10307977  0.87911852  1
  Ti  Ti157  1  0.71816153  0.90454830  0.38374414  1
  Ti  Ti158  1  0.39706669  -0.01637056  0.74602990  1
  Ti  Ti159  1  0.60853791  0.60516895  0.73766837  1
  Mo  Mo160  1  0.39102030  0.78737110  0.75229400  1
  Mo  Mo161  1  0.49377959  0.70845507  0.60665422  1
  Mo  Mo162  1  0.49988116  0.90053614  0.62824828  1
  Mo  Mo163  1  -0.00147712  0.61112518  0.49041674  1
  Mo  Mo164  1  0.30489929  0.68904929  0.60645000  1
  Mo  Mo165  1  0.79490142  0.40180650  0.00967459  1
  Mo  Mo166  1  0.40187411  0.59617116  0.51130417  1
  Mo  Mo167  1  0.89482085  0.29852107  0.63125824  1
  Mo  Mo168  1  0.88900286  0.50297847  0.39387414  1
  Mo  Mo169  1  0.50066275  0.09543372  0.13429543  1
  Mo  Mo170  1  0.40846854  0.80422537  0.50010121  1
  Mo  Mo171  1  0.09946894  0.89492424  0.37435714  1
  Mo  Mo172  1  0.58943417  0.20614967  0.23921631  1
  Mo  Mo173  1  0.49677563  0.51079751  0.13387498  1
  Mo  Mo174  1  0.89535009  0.90951895  0.37874656  1
  Mo  Mo175  1  0.29850246  0.48976950  0.38248499  1
  Mo  Mo176  1  0.30960188  0.09837522  0.86749780  1
  Mo  Mo177  1  -0.00121572  0.80118997  0.00088196  1
  Mo  Mo178  1  0.58734871  -0.01264999  -0.00830778  1
  Mo  Mo179  1  -0.00525258  0.39325159  0.49486216  1
  Mo  Mo180  1  0.70267714  0.09915435  0.37958522  1
  Mo  Mo181  1  0.89644445  0.09776313  0.12921999  1
  Mo  Mo182  1  0.19939389  0.80564590  0.76492972  1
  Mo  Mo183  1  0.70463886  0.90445491  0.62564862  1
  Mo  Mo184  1  0.40255869  0.19235267  0.25338264  1
  Mo  Mo185  1  -0.00354781  -0.00027999  0.50592113  1
  Mo  Mo186  1  0.69588658  0.89691463  0.85769101  1
  Mo  Mo187  1  0.59977256  0.60915556  -0.00000915  1
  Mo  Mo188  1  0.39566697  0.20100082  -0.00746729  1
  Mo  Mo189  1  0.41784401  0.00952401  -0.00960640  1
  Mo  Mo190  1  0.89564705  0.10034407  0.63849904  1
  Mo  Mo191  1  0.29865986  0.29809895  0.63037956  1
  Mo  Mo192  1  0.79976940  0.79887241  0.00362038  1
  Mo  Mo193  1  0.61010236  0.40932857  0.49445982  1
  Mo  Mo194  1  0.78215335  -0.00366925  -0.00528681  1
  Mo  Mo195  1  0.60766077  0.80641807  0.51187818  1
  Mo  Mo196  1  0.70864107  0.51425023  0.61711542  1
  Mo  Mo197  1  0.49958272  0.30174589  0.37908672  1
  Mo  Mo198  1  0.31530725  0.70501399  0.87167824  1
  Mo  Mo199  1  0.30668265  0.89889496  0.86939717  1
