# generated using pymatgen
data_HfZrTaTiMo
_symmetry_space_group_name_H-M   'P 1'
_cell_length_a   15.21749243
_cell_length_b   15.22151955
_cell_length_c   16.84475909
_cell_angle_alpha   90.04587319
_cell_angle_beta   90.01248334
_cell_angle_gamma   90.09732869
_symmetry_Int_Tables_number   1
_chemical_formula_structural   HfZrTaTiMo
_chemical_formula_sum   'Hf40 Zr40 Ta40 Ti40 Mo40'
_cell_volume   3901.80114858
_cell_formula_units_Z   40
loop_
 _symmetry_equiv_pos_site_id
 _symmetry_equiv_pos_as_xyz
  1  'x, y, z'
loop_
 _atom_site_type_symbol
 _atom_site_label
 _atom_site_symmetry_multiplicity
 _atom_site_fract_x
 _atom_site_fract_y
 _atom_site_fract_z
 _atom_site_occupancy
  Hf  Hf0  1  0.80376169  0.58337328  0.51516155  1
  Hf  Hf1  1  0.39663293  0.21310978  0.75660544  1
  Hf  Hf2  1  0.89528511  0.50192784  0.12927237  1
  Hf  Hf3  1  0.91957885  0.47785540  0.63016803  1
  Hf  Hf4  1  0.00130842  0.00853912  0.25389329  1
  Hf  Hf5  1  0.40587415  0.00118291  0.49324718  1
  Hf  Hf6  1  0.79323589  -0.00365129  0.24193544  1
  Hf  Hf7  1  0.10362097  0.30356344  0.87998443  1
  Hf  Hf8  1  0.91142549  0.09012718  0.87836925  1
  Hf  Hf9  1  0.00942092  0.40309541  0.01082040  1
  Hf  Hf10  1  0.70787812  0.69369978  0.86398029  1
  Hf  Hf11  1  0.69245333  0.08450295  0.88652256  1
  Hf  Hf12  1  0.50483350  0.28922558  0.37278319  1
  Hf  Hf13  1  0.58038047  0.19624169  -0.00710012  1
  Hf  Hf14  1  0.60703711  0.58308786  0.72823346  1
  Hf  Hf15  1  0.90280492  0.70652339  0.87723854  1
  Hf  Hf16  1  0.59060974  0.58462877  0.51801090  1
  Hf  Hf17  1  0.89627514  0.30262628  0.36144065  1
  Hf  Hf18  1  0.01143013  0.59935012  0.74205058  1
  Hf  Hf19  1  0.69922977  0.28944756  0.63024752  1
  Hf  Hf20  1  0.31633461  0.91373266  0.85839664  1
  Hf  Hf21  1  0.40850721  0.41244439  0.48410028  1
  Hf  Hf22  1  0.20330518  0.60796196  0.01666121  1
  Hf  Hf23  1  0.59879035  -0.00513064  0.75943828  1
  Hf  Hf24  1  0.80179857  -0.02515144  0.00477717  1
  Hf  Hf25  1  0.10382876  0.11533459  0.38360441  1
  Hf  Hf26  1  0.89015339  0.10751983  0.37189745  1
  Hf  Hf27  1  0.30432799  0.52998955  0.36848322  1
  Hf  Hf28  1  0.49723710  0.48615664  0.87096288  1
  Hf  Hf29  1  0.58826825  0.76734017  0.25076565  1
  Hf  Hf30  1  0.30298150  0.48732572  0.62030039  1
  Hf  Hf31  1  0.09793537  0.70694577  0.87859472  1
  Hf  Hf32  1  0.19066670  0.00834089  0.74546167  1
  Hf  Hf33  1  0.59504939  0.18217913  0.24674386  1
  Hf  Hf34  1  0.91384989  0.50323696  0.87915054  1
  Hf  Hf35  1  0.69758190  0.89154223  0.37280723  1
  Hf  Hf36  1  0.28247610  0.88718465  0.37562722  1
  Hf  Hf37  1  0.68802186  0.08408250  0.11324234  1
  Hf  Hf38  1  0.19453296  0.21149182  0.74853986  1
  Hf  Hf39  1  0.21713039  0.39981963  0.02240643  1
  Zr  Zr40  1  0.38357561  0.20126831  0.49373834  1
  Zr  Zr41  1  0.89485286  0.71362262  0.12745939  1
  Zr  Zr42  1  0.79080471  0.18732483  0.76257141  1
  Zr  Zr43  1  0.50829957  0.71082898  0.85108286  1
  Zr  Zr44  1  0.40627345  0.41463916  0.25713065  1
  Zr  Zr45  1  0.02386079  0.60730069  0.23708466  1
  Zr  Zr46  1  0.01200362  0.81242719  0.50021361  1
  Zr  Zr47  1  0.59604087  0.18829680  0.49767090  1
  Zr  Zr48  1  0.40893475  0.61162615  -0.00310032  1
  Zr  Zr49  1  0.09506391  0.31043053  0.36137402  1
  Zr  Zr50  1  0.09264686  0.33402410  0.63287864  1
  Zr  Zr51  1  0.39810284  0.79625634  0.50187971  1
  Zr  Zr52  1  0.89883374  0.50574280  0.36486605  1
  Zr  Zr53  1  0.01710769  0.81212181  0.25481590  1
  Zr  Zr54  1  0.69937415  0.29722776  0.11370789  1
  Zr  Zr55  1  0.49182868  0.30328012  0.12829769  1
  Zr  Zr56  1  0.60661663  0.39807512  0.25433517  1
  Zr  Zr57  1  0.80926682  0.38394921  0.76107764  1
  Zr  Zr58  1  0.80459250  0.19915053  -0.00992030  1
  Zr  Zr59  1  -0.01384702  0.22049885  0.51320482  1
  Zr  Zr60  1  0.50205639  0.90222709  0.63636368  1
  Zr  Zr61  1  0.90970793  0.69767337  0.37984878  1
  Zr  Zr62  1  0.10488692  0.08706824  0.11473800  1
  Zr  Zr63  1  0.20298375  0.82122679  0.00224972  1
  Zr  Zr64  1  0.49118091  0.88519253  0.13477754  1
  Zr  Zr65  1  0.59566567  0.79185752  0.49728328  1
  Zr  Zr66  1  0.80642501  0.59322770  0.73351386  1
  Zr  Zr67  1  0.30264768  0.70598242  0.86368835  1
  Zr  Zr68  1  0.19995761  -0.00302400  0.25336358  1
  Zr  Zr69  1  0.69811490  0.49676113  0.87772747  1
  Zr  Zr70  1  -0.00976362  0.01111919  0.50819085  1
  Zr  Zr71  1  0.37908361  0.20176959  0.00898879  1
  Zr  Zr72  1  0.19633098  -0.00030903  0.50844415  1
  Zr  Zr73  1  0.09611878  0.29697342  0.13919751  1
  Zr  Zr74  1  0.69655586  0.67937890  0.38226397  1
  Zr  Zr75  1  0.28603358  0.30222043  0.35944643  1
  Zr  Zr76  1  0.19815386  0.59410942  0.74587291  1
  Zr  Zr77  1  0.80233508  0.39921903  -0.00480064  1
  Zr  Zr78  1  0.61317487  0.77948204  0.00868384  1
  Zr  Zr79  1  0.48141552  0.30286651  0.62044855  1
  Ta  Ta80  1  0.30263820  0.10924399  0.62644328  1
  Ta  Ta81  1  0.41444776  0.81841900  -0.00816911  1
  Ta  Ta82  1  0.69276393  0.09431122  0.37282438  1
  Ta  Ta83  1  0.79592933  0.61368424  0.00788402  1
  Ta  Ta84  1  -0.00236167  0.41723967  0.48935603  1
  Ta  Ta85  1  0.29917261  0.49693360  0.87909700  1
  Ta  Ta86  1  0.49538483  0.70051362  0.64167357  1
  Ta  Ta87  1  0.59183927  -0.01225444  0.25412408  1
  Ta  Ta88  1  0.91108194  0.70217244  0.61574975  1
  Ta  Ta89  1  0.58479664  0.38765183  0.74322871  1
  Ta  Ta90  1  0.79495219  0.19719543  0.24182135  1
  Ta  Ta91  1  0.90432594  0.89433676  0.86740508  1
  Ta  Ta92  1  0.80390610  0.38253107  0.50522991  1
  Ta  Ta93  1  0.47840591  0.08663642  0.87646374  1
  Ta  Ta94  1  0.90088176  0.10375448  0.12214639  1
  Ta  Ta95  1  0.30322931  0.69952013  0.63674692  1
  Ta  Ta96  1  0.20205701  0.79695795  0.52208916  1
  Ta  Ta97  1  0.70016698  0.48302032  0.38254692  1
  Ta  Ta98  1  0.19054592  0.80434204  0.73733424  1
  Ta  Ta99  1  -0.01181740  0.20892420  0.74680551  1
  Ta  Ta100  1  0.10736614  0.51950669  0.38499597  1
  Ta  Ta101  1  0.79123070  -0.00195221  0.50197413  1
  Ta  Ta102  1  0.68933403  0.50401225  0.11976727  1
  Ta  Ta103  1  0.79952240  0.79562807  0.25487995  1
  Ta  Ta104  1  0.39253499  0.18649834  0.24339954  1
  Ta  Ta105  1  0.00702155  0.60647063  0.01484893  1
  Ta  Ta106  1  0.13000675  0.71039276  0.37903354  1
  Ta  Ta107  1  0.79518977  0.39903869  0.24457304  1
  Ta  Ta108  1  0.20113368  0.40160020  0.49429103  1
  Ta  Ta109  1  0.69617268  0.08519344  0.62820292  1
  Ta  Ta110  1  0.32219166  0.51655850  0.13528733  1
  Ta  Ta111  1  0.70175393  0.89679770  0.62356137  1
  Ta  Ta112  1  0.70320094  0.88190199  0.87063832  1
  Ta  Ta113  1  0.89444488  0.90522633  0.62608769  1
  Ta  Ta114  1  0.09752396  0.11727165  0.62320164  1
  Ta  Ta115  1  0.59795525  -0.00412783  0.49340226  1
  Ta  Ta116  1  0.89583281  0.90358034  0.37626617  1
  Ta  Ta117  1  0.30516281  0.90617774  0.63825693  1
  Ta  Ta118  1  0.80503128  0.80010511  0.73833034  1
  Ta  Ta119  1  0.57912849  -0.02448301  -0.00886222  1
  Ti  Ti120  1  0.70354537  0.87835678  0.13058353  1
  Ti  Ti121  1  0.90107398  0.29378808  0.13594873  1
  Ti  Ti122  1  0.41048253  0.40475562  0.00823704  1
  Ti  Ti123  1  -0.00126226  0.20113391  0.00057030  1
  Ti  Ti124  1  0.09555632  0.90665549  0.86860698  1
  Ti  Ti125  1  0.90868767  0.90436622  0.12855413  1
  Ti  Ti126  1  0.01032715  -0.01018277  0.00005902  1
  Ti  Ti127  1  0.59019669  0.19474970  0.76243728  1
  Ti  Ti128  1  0.00209675  0.41033634  0.24504769  1
  Ti  Ti129  1  0.00322102  0.80827838  0.73751969  1
  Ti  Ti130  1  0.49136068  0.88695929  0.36448174  1
  Ti  Ti131  1  -0.00412793  0.00563614  0.73694841  1
  Ti  Ti132  1  0.30085609  0.10162536  0.37434703  1
  Ti  Ti133  1  0.80328475  -0.00681183  0.75006232  1
  Ti  Ti134  1  0.20611612  0.40551395  0.75367987  1
  Ti  Ti135  1  0.78042243  0.59886865  0.24602525  1
  Ti  Ti136  1  0.39969933  0.60711862  0.50677295  1
  Ti  Ti137  1  0.19673043  0.42530546  0.23828719  1
  Ti  Ti138  1  -0.00310247  0.80496562  0.00523087  1
  Ti  Ti139  1  0.79649665  0.18772909  0.50899682  1
  Ti  Ti140  1  0.20470225  0.80479213  0.23099213  1
  Ti  Ti141  1  0.48453856  0.08001261  0.11868561  1
  Ti  Ti142  1  0.10982277  0.50336009  0.88533453  1
  Ti  Ti143  1  0.67685965  0.30361366  0.87916611  1
  Ti  Ti144  1  0.28860713  0.10716314  0.87718087  1
  Ti  Ti145  1  0.40087114  0.58345500  0.74546249  1
  Ti  Ti146  1  0.10044187  0.10006224  0.88166870  1
  Ti  Ti147  1  0.39653362  -0.00368494  0.25588912  1
  Ti  Ti148  1  0.20098050  0.19413169  0.23910073  1
  Ti  Ti149  1  0.32338060  0.72447853  0.12417574  1
  Ti  Ti150  1  0.21699201  0.62167601  0.23429382  1
  Ti  Ti151  1  0.30821498  0.31345366  0.88053423  1
  Ti  Ti152  1  0.70366791  0.70523220  0.62335917  1
  Ti  Ti153  1  0.49942342  0.09915796  0.63212583  1
  Ti  Ti154  1  0.70747416  0.28761161  0.37809897  1
  Ti  Ti155  1  0.60680769  0.39640860  0.50568624  1
  Ti  Ti156  1  0.19596657  0.20037288  0.00904984  1
  Ti  Ti157  1  0.80357232  0.80179051  0.50255116  1
  Ti  Ti158  1  0.59915843  0.58892189  0.00194164  1
  Ti  Ti159  1  0.29821997  0.92649774  0.11536495  1
  Mo  Mo160  1  0.91515810  0.29464705  0.87904568  1
  Mo  Mo161  1  0.00901224  0.60742188  0.49981445  1
  Mo  Mo162  1  0.39685072  0.01583128  0.74505537  1
  Mo  Mo163  1  0.49553269  0.49608687  0.62905381  1
  Mo  Mo164  1  0.28422599  0.29676932  0.61909470  1
  Mo  Mo165  1  0.21216720  0.61085488  0.50392594  1
  Mo  Mo166  1  0.49556482  0.08230485  0.36523743  1
  Mo  Mo167  1  0.09801779  0.89943804  0.11525447  1
  Mo  Mo168  1  0.10917477  0.50859305  0.13002935  1
  Mo  Mo169  1  0.39821594  0.80193465  0.74247636  1
  Mo  Mo170  1  0.01248549  0.39738034  0.76919582  1
  Mo  Mo171  1  0.50718192  0.89873652  0.86642123  1
  Mo  Mo172  1  0.38682798  0.80077783  0.25066560  1
  Mo  Mo173  1  0.41685000  0.62095566  0.24614671  1
  Mo  Mo174  1  0.20201971  0.01117818  -0.01720925  1
  Mo  Mo175  1  0.49390865  0.29838280  0.87746505  1
  Mo  Mo176  1  0.29639889  0.30634998  0.14563316  1
  Mo  Mo177  1  0.61402755  0.79572292  0.74097542  1
  Mo  Mo178  1  0.70184611  0.68984366  0.13192413  1
  Mo  Mo179  1  0.88748904  0.09964851  0.63323627  1
  Mo  Mo180  1  0.19403413  0.20893589  0.51114495  1
  Mo  Mo181  1  0.10781601  0.52008686  0.59485005  1
  Mo  Mo182  1  0.50535846  0.50252911  0.11984098  1
  Mo  Mo183  1  0.10124950  0.70499478  0.62341473  1
  Mo  Mo184  1  0.70309684  0.47879004  0.62081890  1
  Mo  Mo185  1  0.80636279  0.80043741  -0.00137116  1
  Mo  Mo186  1  0.30131036  0.10115354  0.12663647  1
  Mo  Mo187  1  0.59312956  0.40060828  -0.00060253  1
  Mo  Mo188  1  0.59652945  0.58206545  0.25314888  1
  Mo  Mo189  1  0.09677457  0.89934826  0.37983228  1
  Mo  Mo190  1  0.39386174  -0.00000562  -0.00205663  1
  Mo  Mo191  1  0.30214768  0.70580090  0.37181394  1
  Mo  Mo192  1  0.89659995  0.29479910  0.62852026  1
  Mo  Mo193  1  0.51396306  0.50991841  0.37992599  1
  Mo  Mo194  1  0.09803449  0.90867847  0.63554927  1
  Mo  Mo195  1  0.49776492  0.68260323  0.12169937  1
  Mo  Mo196  1  0.38802174  0.40215928  0.75419772  1
  Mo  Mo197  1  0.48381948  0.68109832  0.37685851  1
  Mo  Mo198  1  -0.00829568  0.19874924  0.24381404  1
  Mo  Mo199  1  0.11033078  0.71228588  0.11704080  1
