# generated using pymatgen
data_HfZrTaTiMo
_symmetry_space_group_name_H-M   'P 1'
_cell_length_a   15.21327155
_cell_length_b   15.21570096
_cell_length_c   16.84023806
_cell_angle_alpha   89.98589067
_cell_angle_beta   89.99052767
_cell_angle_gamma   90.20293307
_symmetry_Int_Tables_number   1
_chemical_formula_structural   HfZrTaTiMo
_chemical_formula_sum   'Hf40 Zr40 Ta40 Ti40 Mo40'
_cell_volume   3898.16362913
_cell_formula_units_Z   40
loop_
 _symmetry_equiv_pos_site_id
 _symmetry_equiv_pos_as_xyz
  1  'x, y, z'
loop_
 _atom_site_type_symbol
 _atom_site_label
 _atom_site_symmetry_multiplicity
 _atom_site_fract_x
 _atom_site_fract_y
 _atom_site_fract_z
 _atom_site_occupancy
  Hf  Hf0  1  0.61227660  0.61366042  0.01594514  1
  Hf  Hf1  1  0.58395560  0.00193159  0.49168381  1
  Hf  Hf2  1  0.20618539  0.81613841  0.50427437  1
  Hf  Hf3  1  0.60385366  0.20932937  0.50324041  1
  Hf  Hf4  1  0.69771928  0.69616657  0.36441155  1
  Hf  Hf5  1  0.11373310  0.09183731  0.12378176  1
  Hf  Hf6  1  0.60985569  0.00227113  -0.01538502  1
  Hf  Hf7  1  0.31916715  0.51057675  0.61483095  1
  Hf  Hf8  1  0.58806171  0.59533169  0.74922139  1
  Hf  Hf9  1  0.08515958  0.90259560  0.87079220  1
  Hf  Hf10  1  0.30896256  0.28952977  0.37050202  1
  Hf  Hf11  1  0.28672217  0.10996185  0.63958240  1
  Hf  Hf12  1  0.79033822  0.58444918  0.24593821  1
  Hf  Hf13  1  0.38723707  0.00058081  0.50014522  1
  Hf  Hf14  1  0.39089751  0.81737582  -0.00556913  1
  Hf  Hf15  1  0.11303823  0.69973845  0.86676513  1
  Hf  Hf16  1  0.30223558  0.71798319  0.63725840  1
  Hf  Hf17  1  0.19569043  0.78298858  0.00988994  1
  Hf  Hf18  1  0.30879727  0.71952344  0.14786434  1
  Hf  Hf19  1  0.88641796  0.49050805  0.38049313  1
  Hf  Hf20  1  0.19593796  0.61526636  0.49755493  1
  Hf  Hf21  1  0.29377297  0.91139335  0.36759095  1
  Hf  Hf22  1  0.79623946  0.38993896  0.51023030  1
  Hf  Hf23  1  0.29917218  0.70912925  0.35760653  1
  Hf  Hf24  1  -0.00373465  0.59353142  0.23931259  1
  Hf  Hf25  1  -0.00820500  0.38642724  0.24156685  1
  Hf  Hf26  1  0.30122456  0.51039989  0.36885544  1
  Hf  Hf27  1  0.49418381  0.09772180  0.63749712  1
  Hf  Hf28  1  0.39664852  0.42758599  0.75948799  1
  Hf  Hf29  1  0.10791624  0.49459930  0.61533115  1
  Hf  Hf30  1  0.21016013  0.58528415  0.74800119  1
  Hf  Hf31  1  0.80348375  0.18372720  0.75983012  1
  Hf  Hf32  1  0.69252203  0.90329955  0.13709217  1
  Hf  Hf33  1  0.01325991  0.18085869  0.49914873  1
  Hf  Hf34  1  0.69334876  0.09290699  0.63343481  1
  Hf  Hf35  1  0.00594229  0.18503495  -0.00560599  1
  Hf  Hf36  1  0.42063045  0.21280159  0.24145372  1
  Hf  Hf37  1  0.80857315  0.60125470  0.74731953  1
  Hf  Hf38  1  0.90433969  0.29335914  0.63758575  1
  Hf  Hf39  1  0.89090951  0.69713806  0.12057894  1
  Zr  Zr40  1  0.10379478  0.49005435  0.88301265  1
  Zr  Zr41  1  0.00256104  0.38655956  0.49341051  1
  Zr  Zr42  1  0.80799946  0.00416304  0.24769123  1
  Zr  Zr43  1  0.69079794  0.48074681  0.11293360  1
  Zr  Zr44  1  0.60313065  0.41051422  0.48901761  1
  Zr  Zr45  1  0.00342368  0.38629580  0.01126537  1
  Zr  Zr46  1  0.80135830  0.18320756  -0.02059841  1
  Zr  Zr47  1  0.20374460  0.39005261  0.23418718  1
  Zr  Zr48  1  0.49971031  0.70121095  0.62982352  1
  Zr  Zr49  1  0.78653748  -0.01179320  0.49907346  1
  Zr  Zr50  1  0.69960299  0.69808492  0.86732035  1
  Zr  Zr51  1  0.02329255  0.60128095  0.01836801  1
  Zr  Zr52  1  0.91927646  0.08259396  0.37882956  1
  Zr  Zr53  1  0.41009072  0.40791704  0.48789929  1
  Zr  Zr54  1  0.39310096  0.22018364  0.76036452  1
  Zr  Zr55  1  0.59930738  0.40149268  0.25872204  1
  Zr  Zr56  1  0.29068723  0.10973241  0.87436751  1
  Zr  Zr57  1  0.60626378  0.20194354  -0.02045023  1
  Zr  Zr58  1  0.19654853  -0.00871697  -0.00690690  1
  Zr  Zr59  1  0.40748365  0.41284779  0.23804049  1
  Zr  Zr60  1  0.70518318  0.10900010  0.37324419  1
  Zr  Zr61  1  0.08570698  0.90213742  0.37777344  1
  Zr  Zr62  1  -0.00767012  -0.00774904  0.73256843  1
  Zr  Zr63  1  0.60467974  0.80819778  0.49231822  1
  Zr  Zr64  1  0.29998577  0.50444993  0.89987293  1
  Zr  Zr65  1  0.50404681  0.11086294  0.11440197  1
  Zr  Zr66  1  0.78651403  0.79734252  0.00677229  1
  Zr  Zr67  1  0.40316056  0.62269781  0.01501894  1
  Zr  Zr68  1  0.90650603  0.69270305  0.88878753  1
  Zr  Zr69  1  -0.01315429  0.79171673  0.74092436  1
  Zr  Zr70  1  0.39531036  0.20191592  0.50582684  1
  Zr  Zr71  1  0.58468848  0.80475619  0.00336253  1
  Zr  Zr72  1  0.91146814  0.30268216  0.86702496  1
  Zr  Zr73  1  0.09772777  0.49798505  0.37621524  1
  Zr  Zr74  1  0.10586050  0.26990908  0.36008386  1
  Zr  Zr75  1  0.11205104  0.29078615  0.62566368  1
  Zr  Zr76  1  0.48456043  0.90550072  0.13892813  1
  Zr  Zr77  1  0.50433394  0.31966605  0.63503945  1
  Zr  Zr78  1  0.69572569  0.49779655  0.63284354  1
  Zr  Zr79  1  0.00158272  0.78105103  0.51018079  1
  Ta  Ta80  1  0.29083482  0.89041413  0.86040329  1
  Ta  Ta81  1  0.51421233  0.31874358  0.10045873  1
  Ta  Ta82  1  0.70167202  0.30696729  0.86034967  1
  Ta  Ta83  1  0.50471284  0.51018343  0.89642915  1
  Ta  Ta84  1  0.59097654  0.01842360  0.25607039  1
  Ta  Ta85  1  0.70908906  0.71978133  0.62968470  1
  Ta  Ta86  1  0.00105692  -0.02435544  0.23183300  1
  Ta  Ta87  1  0.48582160  0.31336150  0.89120619  1
  Ta  Ta88  1  0.79354912  0.38623497  -0.00525175  1
  Ta  Ta89  1  0.59423612  0.19498212  0.77125150  1
  Ta  Ta90  1  0.50651683  0.52602375  0.36783569  1
  Ta  Ta91  1  0.09451663  0.69960302  0.36021594  1
  Ta  Ta92  1  0.79465694  0.38272161  0.24453329  1
  Ta  Ta93  1  0.90280818  0.69259680  0.37546179  1
  Ta  Ta94  1  -0.00075237  -0.01626340  0.51954597  1
  Ta  Ta95  1  0.59938285  0.60621760  0.50009237  1
  Ta  Ta96  1  0.40470726  0.80800422  0.49460980  1
  Ta  Ta97  1  0.00043969  0.58584954  0.74934367  1
  Ta  Ta98  1  0.38584297  0.02407486  0.25115578  1
  Ta  Ta99  1  0.00166705  0.80976627  0.01414599  1
  Ta  Ta100  1  0.71382691  0.11325273  0.12818468  1
  Ta  Ta101  1  0.79730614  0.60358926  0.50224641  1
  Ta  Ta102  1  0.89502103  0.28117401  0.36980007  1
  Ta  Ta103  1  0.89670619  0.09260988  0.62275049  1
  Ta  Ta104  1  0.01804763  0.39811361  0.75170614  1
  Ta  Ta105  1  0.79199540  -0.02133741  0.74694677  1
  Ta  Ta106  1  0.90974724  0.07108564  0.87152806  1
  Ta  Ta107  1  0.91077746  0.49950070  0.61870320  1
  Ta  Ta108  1  0.89233966  0.48667680  0.11477032  1
  Ta  Ta109  1  0.49453745  0.71440644  0.35237253  1
  Ta  Ta110  1  0.88166966  0.27630794  0.12382924  1
  Ta  Ta111  1  0.86875186  0.88006676  0.61626675  1
  Ta  Ta112  1  0.40543381  0.00848637  -0.01854901  1
  Ta  Ta113  1  0.10202059  0.69449390  0.63692390  1
  Ta  Ta114  1  0.18810970  0.02590716  0.49646871  1
  Ta  Ta115  1  0.19584749  0.59670101  0.23342719  1
  Ta  Ta116  1  0.89102126  0.87983032  0.38040622  1
  Ta  Ta117  1  0.58990436  0.60351222  0.23053335  1
  Ta  Ta118  1  0.70965266  0.30427551  0.37607487  1
  Ta  Ta119  1  0.40175212  0.00236770  0.76702735  1
  Ti  Ti120  1  0.19230554  0.22348326  0.76877640  1
  Ti  Ti121  1  0.40853923  0.61778717  0.49219814  1
  Ti  Ti122  1  0.19978113  0.39824743  0.01974681  1
  Ti  Ti123  1  0.30505423  0.50459958  0.12040045  1
  Ti  Ti124  1  0.81136639  0.40767501  0.75269065  1
  Ti  Ti125  1  0.30451693  0.91233419  0.64023446  1
  Ti  Ti126  1  0.88944485  0.88810258  0.87850962  1
  Ti  Ti127  1  0.69487059  0.89802984  0.35782155  1
  Ti  Ti128  1  0.19280975  0.00504468  0.75767885  1
  Ti  Ti129  1  -0.00681645  0.17460465  0.23931239  1
  Ti  Ti130  1  0.00947110  0.19070661  0.76253748  1
  Ti  Ti131  1  0.11415200  0.89767110  0.63194258  1
  Ti  Ti132  1  0.49992984  0.90043806  0.63218078  1
  Ti  Ti133  1  0.59362437  0.40156633  0.76622526  1
  Ti  Ti134  1  0.09963208  0.28596189  0.13056897  1
  Ti  Ti135  1  0.59284810  -0.00644876  0.76486903  1
  Ti  Ti136  1  0.70478856  0.50061851  0.88200307  1
  Ti  Ti137  1  0.31343499  0.28500896  0.10732885  1
  Ti  Ti138  1  0.09936471  0.09994358  0.63359112  1
  Ti  Ti139  1  0.29539965  0.31347969  0.62542576  1
  Ti  Ti140  1  -0.00608788  -0.00689550  0.01416138  1
  Ti  Ti141  1  0.69849835  0.29618991  0.64973491  1
  Ti  Ti142  1  0.80643322  0.79698319  0.24454947  1
  Ti  Ti143  1  0.69702068  0.89238020  0.86635810  1
  Ti  Ti144  1  0.22573629  0.18287507  0.23601880  1
  Ti  Ti145  1  0.80663045  -0.00479555  0.00489333  1
  Ti  Ti146  1  0.80376746  0.19747141  0.50889603  1
  Ti  Ti147  1  0.49900030  0.70651888  0.86854395  1
  Ti  Ti148  1  0.20749628  0.38875535  0.49054049  1
  Ti  Ti149  1  0.17874339  0.81263780  0.24244802  1
  Ti  Ti150  1  0.41094690  0.80725356  0.75833394  1
  Ti  Ti151  1  0.49374729  0.90700282  0.35855856  1
  Ti  Ti152  1  0.29035442  0.92196835  0.13110192  1
  Ti  Ti153  1  0.89872828  0.50039928  0.88729002  1
  Ti  Ti154  1  0.20006277  0.20517938  -0.00549631  1
  Ti  Ti155  1  0.48995060  0.11494026  0.37321490  1
  Ti  Ti156  1  0.30629564  0.70072620  0.86250171  1
  Ti  Ti157  1  0.61744556  0.21318279  0.24579435  1
  Ti  Ti158  1  0.90028104  0.68563448  0.61838286  1
  Ti  Ti159  1  0.19270376  0.00581115  0.25141837  1
  Mo  Mo160  1  0.60260637  0.80908383  0.74834818  1
  Mo  Mo161  1  0.29466983  0.10529060  0.37107551  1
  Mo  Mo162  1  0.39583817  0.20501356  -0.00698945  1
  Mo  Mo163  1  0.39932489  0.40685723  0.01425789  1
  Mo  Mo164  1  0.69754888  0.29012251  0.11825569  1
  Mo  Mo165  1  0.60530998  0.40421259  -0.02035569  1
  Mo  Mo166  1  0.10286994  0.89502349  0.12547195  1
  Mo  Mo167  1  0.49582227  0.50601048  0.10969789  1
  Mo  Mo168  1  0.29185886  0.31470778  0.89440291  1
  Mo  Mo169  1  0.11017100  0.29829137  0.88072447  1
  Mo  Mo170  1  0.70860993  0.08499768  0.86171631  1
  Mo  Mo171  1  0.90408056  0.09343921  0.12064127  1
  Mo  Mo172  1  0.60266582  0.80975892  0.25496655  1
  Mo  Mo173  1  0.51337453  0.29771692  0.37085963  1
  Mo  Mo174  1  0.49564158  0.89794517  0.87009317  1
  Mo  Mo175  1  0.69979331  0.50756405  0.37673253  1
  Mo  Mo176  1  0.40035080  0.60483963  0.24219151  1
  Mo  Mo177  1  0.20105683  0.59601759  0.02984796  1
  Mo  Mo178  1  0.20776194  0.39575465  0.75217588  1
  Mo  Mo179  1  0.50233263  0.71384434  0.14618571  1
  Mo  Mo180  1  0.49919629  0.10265231  0.87110544  1
  Mo  Mo181  1  0.09854770  0.70371922  0.14485043  1
  Mo  Mo182  1  0.20103526  0.80722375  0.74569450  1
  Mo  Mo183  1  0.89597352  0.89795419  0.12123306  1
  Mo  Mo184  1  0.79963922  0.79745499  0.75244051  1
  Mo  Mo185  1  0.80595420  0.58420985  0.00217222  1
  Mo  Mo186  1  0.10738949  0.09231044  0.35929512  1
  Mo  Mo187  1  0.79430698  0.79013381  0.49242035  1
  Mo  Mo188  1  0.10258773  0.48892361  0.13103968  1
  Mo  Mo189  1  0.39177837  0.82253860  0.25467718  1
  Mo  Mo190  1  0.69908912  0.70268369  0.14041989  1
  Mo  Mo191  1  -0.00096479  0.59861890  0.49961056  1
  Mo  Mo192  1  0.49955960  0.50986133  0.61996236  1
  Mo  Mo193  1  0.68024407  0.89934911  0.63217616  1
  Mo  Mo194  1  0.09290554  0.09887606  0.87166582  1
  Mo  Mo195  1  -0.01043269  0.79526723  0.24899671  1
  Mo  Mo196  1  0.80757456  0.20166758  0.25138046  1
  Mo  Mo197  1  0.30895639  0.09834785  0.11053632  1
  Mo  Mo198  1  0.20477130  0.19973781  0.50162147  1
  Mo  Mo199  1  0.40390087  0.60863691  0.76356073  1
