# generated using pymatgen
data_HfZrTaTiMo
_symmetry_space_group_name_H-M   'P 1'
_cell_length_a   15.20800240
_cell_length_b   15.21118726
_cell_length_c   16.85735755
_cell_angle_alpha   89.97846764
_cell_angle_beta   89.97723763
_cell_angle_gamma   89.92350198
_symmetry_Int_Tables_number   1
_chemical_formula_structural   HfZrTaTiMo
_chemical_formula_sum   'Hf40 Zr40 Ta40 Ti40 Mo40'
_cell_volume   3899.63834212
_cell_formula_units_Z   40
loop_
 _symmetry_equiv_pos_site_id
 _symmetry_equiv_pos_as_xyz
  1  'x, y, z'
loop_
 _atom_site_type_symbol
 _atom_site_label
 _atom_site_symmetry_multiplicity
 _atom_site_fract_x
 _atom_site_fract_y
 _atom_site_fract_z
 _atom_site_occupancy
  Hf  Hf0  1  0.90555105  0.08170222  0.38917866  1
  Hf  Hf1  1  0.31093719  0.08901716  0.61896754  1
  Hf  Hf2  1  0.40780455  0.01488486  0.24230085  1
  Hf  Hf3  1  0.07674017  0.90455652  0.36825988  1
  Hf  Hf4  1  0.19546021  -0.00590721  0.50061297  1
  Hf  Hf5  1  0.08893904  0.11416231  0.61361663  1
  Hf  Hf6  1  0.10608797  0.30332777  0.14218861  1
  Hf  Hf7  1  0.19053642  0.22141609  0.49755638  1
  Hf  Hf8  1  0.70548157  0.69164564  0.37064622  1
  Hf  Hf9  1  0.78657672  0.59801611  0.01073483  1
  Hf  Hf10  1  0.89252437  0.10750396  0.88081234  1
  Hf  Hf11  1  -0.00657688  0.20931718  0.01522669  1
  Hf  Hf12  1  0.69063435  0.08040432  0.88542912  1
  Hf  Hf13  1  0.21052781  -0.00003060  -0.00243081  1
  Hf  Hf14  1  0.38397299  0.20558081  -0.01911105  1
  Hf  Hf15  1  0.70591952  0.88582964  0.13328865  1
  Hf  Hf16  1  -0.02035365  0.80012632  0.22803945  1
  Hf  Hf17  1  0.00469759  0.60602010  0.49819025  1
  Hf  Hf18  1  0.88925651  0.89999014  0.87949363  1
  Hf  Hf19  1  0.00608635  0.40156969  0.74325085  1
  Hf  Hf20  1  0.09946526  0.10340417  0.87468172  1
  Hf  Hf21  1  -0.00492793  0.19315038  0.24964082  1
  Hf  Hf22  1  0.89916040  0.30246145  0.37814500  1
  Hf  Hf23  1  0.51640691  0.51907632  0.86732926  1
  Hf  Hf24  1  0.71257549  0.71076081  0.63566523  1
  Hf  Hf25  1  0.78554754  0.19561306  0.25994967  1
  Hf  Hf26  1  0.31211372  0.49493782  0.11650577  1
  Hf  Hf27  1  0.11577860  0.50415455  0.88766346  1
  Hf  Hf28  1  0.50901183  0.90414177  0.11954988  1
  Hf  Hf29  1  0.40700872  0.60084572  0.51298064  1
  Hf  Hf30  1  0.29257895  0.90097147  0.36021565  1
  Hf  Hf31  1  0.09624981  0.88904583  0.87490228  1
  Hf  Hf32  1  0.29821916  0.69702973  0.36482822  1
  Hf  Hf33  1  0.20816878  0.60130697  0.50073229  1
  Hf  Hf34  1  0.11043879  0.50659309  0.36258502  1
  Hf  Hf35  1  -0.00119107  0.00136822  0.01027782  1
  Hf  Hf36  1  0.01773700  0.40054601  0.49556795  1
  Hf  Hf37  1  0.08800989  0.30192659  0.87807256  1
  Hf  Hf38  1  0.21317490  0.39393620  0.00121531  1
  Hf  Hf39  1  0.28942684  0.30274998  0.63964554  1
  Zr  Zr40  1  0.18708461  0.79725814  0.49939675  1
  Zr  Zr41  1  0.81326821  -0.00900766  0.25003354  1
  Zr  Zr42  1  0.30060876  0.11653156  0.12896362  1
  Zr  Zr43  1  0.88730478  0.09400893  0.60525933  1
  Zr  Zr44  1  0.50065374  0.28882282  0.63095335  1
  Zr  Zr45  1  0.60922831  0.40239712  0.73738822  1
  Zr  Zr46  1  0.70984218  0.27826550  0.60943229  1
  Zr  Zr47  1  0.39784347  0.41149606  0.52053957  1
  Zr  Zr48  1  0.58782265  0.19556155  0.25244524  1
  Zr  Zr49  1  0.50882181  0.69377024  0.37588296  1
  Zr  Zr50  1  0.81910926  0.59678451  0.23721091  1
  Zr  Zr51  1  0.47395047  0.30267212  0.12206412  1
  Zr  Zr52  1  0.79054178  0.20146597  0.01182400  1
  Zr  Zr53  1  0.29878865  0.10229527  0.37910114  1
  Zr  Zr54  1  0.81620370  0.60205645  0.74696771  1
  Zr  Zr55  1  0.10444830  0.50523881  0.12990210  1
  Zr  Zr56  1  0.60709464  0.39775572  -0.00934153  1
  Zr  Zr57  1  0.78073392  -0.01211880  0.49755557  1
  Zr  Zr58  1  0.40631850  0.59417869  0.24676507  1
  Zr  Zr59  1  0.50875876  0.50153442  0.11282707  1
  Zr  Zr60  1  0.60626030  0.18123831  0.75092953  1
  Zr  Zr61  1  0.39999420  0.20193999  0.50146701  1
  Zr  Zr62  1  0.71818627  0.49222231  0.86419441  1
  Zr  Zr63  1  -0.01570968  0.00477740  0.74744180  1
  Zr  Zr64  1  0.69605869  0.49193297  0.37373965  1
  Zr  Zr65  1  0.01459796  0.60707806  0.76172717  1
  Zr  Zr66  1  0.49698563  0.89213048  0.36512893  1
  Zr  Zr67  1  0.51680097  0.30314771  0.39122919  1
  Zr  Zr68  1  0.68797141  0.69807208  0.86727862  1
  Zr  Zr69  1  0.09129353  0.89946896  0.63689167  1
  Zr  Zr70  1  0.29117474  0.29963185  0.85421739  1
  Zr  Zr71  1  0.58207023  0.19224329  -0.00366565  1
  Zr  Zr72  1  0.39468980  0.80210025  -0.00533231  1
  Zr  Zr73  1  0.80431868  0.40773302  0.50156533  1
  Zr  Zr74  1  0.21446915  0.00356404  0.75708361  1
  Zr  Zr75  1  0.70151286  0.88790806  0.36238987  1
  Zr  Zr76  1  -0.00847153  0.59860046  0.00497978  1
  Zr  Zr77  1  0.39187439  0.80610058  0.50118153  1
  Zr  Zr78  1  0.81029779  0.39920879  0.01237877  1
  Zr  Zr79  1  0.40811840  0.62196710  0.75311940  1
  Ta  Ta80  1  0.51262481  0.90348080  0.88656968  1
  Ta  Ta81  1  0.68842342  0.30314018  0.13266670  1
  Ta  Ta82  1  0.68280026  0.90511796  0.62974703  1
  Ta  Ta83  1  0.89413890  0.30655516  0.87339768  1
  Ta  Ta84  1  -0.01412786  0.80626604  0.50748932  1
  Ta  Ta85  1  0.60546835  0.80018083  0.50515378  1
  Ta  Ta86  1  0.80641493  0.19176346  0.74608800  1
  Ta  Ta87  1  0.11514741  0.50162957  0.62667847  1
  Ta  Ta88  1  -0.01541642  0.42030624  0.25598814  1
  Ta  Ta89  1  0.30406642  0.32299549  0.37639940  1
  Ta  Ta90  1  0.50035916  0.30114271  0.85480465  1
  Ta  Ta91  1  -0.00892587  0.20895245  0.74528164  1
  Ta  Ta92  1  0.91706028  0.28894666  0.60685495  1
  Ta  Ta93  1  0.39586260  0.21606939  0.26337983  1
  Ta  Ta94  1  0.41321605  0.01373733  0.00066764  1
  Ta  Ta95  1  0.91224413  0.50413438  0.62366760  1
  Ta  Ta96  1  0.80959841  0.60501977  0.50410216  1
  Ta  Ta97  1  0.39810601  0.41865918  0.74607380  1
  Ta  Ta98  1  0.78224753  -0.00411743  0.74498789  1
  Ta  Ta99  1  0.50703645  0.69629879  0.11354217  1
  Ta  Ta100  1  0.70829333  0.28934447  0.86558428  1
  Ta  Ta101  1  0.09130237  0.70722795  0.36115996  1
  Ta  Ta102  1  0.49324786  0.49627907  0.37746206  1
  Ta  Ta103  1  0.68273348  0.09068763  0.12202166  1
  Ta  Ta104  1  0.51401093  0.08226867  0.60967772  1
  Ta  Ta105  1  0.10458274  0.30429778  0.35853590  1
  Ta  Ta106  1  0.29852134  0.69957342  0.11759741  1
  Ta  Ta107  1  0.48889613  0.89878863  0.62560101  1
  Ta  Ta108  1  0.81575640  0.38458362  0.73383673  1
  Ta  Ta109  1  0.10628044  0.70423828  0.11515157  1
  Ta  Ta110  1  0.09857891  0.69762286  0.63228639  1
  Ta  Ta111  1  0.89868699  0.70700954  0.88414780  1
  Ta  Ta112  1  0.80030645  0.79197473  0.01037227  1
  Ta  Ta113  1  0.39875592  0.17345941  0.75654241  1
  Ta  Ta114  1  0.09581567  0.10383801  0.38018259  1
  Ta  Ta115  1  0.90182111  0.70561154  0.37091210  1
  Ta  Ta116  1  0.29872440  0.90114193  0.12816454  1
  Ta  Ta117  1  0.21324519  0.60103351  0.75602042  1
  Ta  Ta118  1  0.50569682  0.08909056  0.39318154  1
  Ta  Ta119  1  0.19307267  0.80205677  0.23882620  1
  Ti  Ti120  1  0.39745412  0.79711016  0.23529172  1
  Ti  Ti121  1  0.30042544  0.89508082  0.63463673  1
  Ti  Ti122  1  0.10599976  0.90152902  0.12249378  1
  Ti  Ti123  1  0.58274975  -0.00678283  0.75369803  1
  Ti  Ti124  1  0.90951099  0.49505783  0.87458372  1
  Ti  Ti125  1  0.79104626  0.39652700  0.25433707  1
  Ti  Ti126  1  0.10318273  0.10197184  0.12723508  1
  Ti  Ti127  1  0.59198276  0.39948150  0.25249396  1
  Ti  Ti128  1  0.18732946  0.20021607  0.74470180  1
  Ti  Ti129  1  0.22339394  0.40480476  0.24998969  1
  Ti  Ti130  1  0.11132096  0.70324196  0.89623821  1
  Ti  Ti131  1  0.19442590  0.20028518  0.00154450  1
  Ti  Ti132  1  0.29681298  0.70586491  0.63118049  1
  Ti  Ti133  1  -0.02049574  0.79461340  0.74587608  1
  Ti  Ti134  1  -0.00329895  0.80246519  0.01123344  1
  Ti  Ti135  1  0.20895833  0.41236029  0.50093701  1
  Ti  Ti136  1  0.20152586  0.60687681  0.24339977  1
  Ti  Ti137  1  0.70720483  0.50542627  0.62863775  1
  Ti  Ti138  1  0.39696290  0.81178727  0.76395466  1
  Ti  Ti139  1  0.88887904  0.09765257  0.12579710  1
  Ti  Ti140  1  0.19305502  0.00571320  0.24651226  1
  Ti  Ti141  1  0.58995783  0.80041847  0.75210817  1
  Ti  Ti142  1  0.80291889  0.79518156  0.50322579  1
  Ti  Ti143  1  0.79548039  -0.00827089  0.01066761  1
  Ti  Ti144  1  0.50915792  0.70657404  0.62651449  1
  Ti  Ti145  1  0.69778334  0.88820888  0.88015362  1
  Ti  Ti146  1  0.59903266  0.40795495  0.51453502  1
  Ti  Ti147  1  0.60029624  0.77644803  0.24082069  1
  Ti  Ti148  1  0.60463435  0.00548109  0.25256435  1
  Ti  Ti149  1  0.69343887  0.50130508  0.13673613  1
  Ti  Ti150  1  0.60798175  0.59781492  0.51224918  1
  Ti  Ti151  1  0.20531664  0.20241333  0.25788887  1
  Ti  Ti152  1  0.00294055  -0.00027218  0.23546869  1
  Ti  Ti153  1  0.39691394  0.60518001  -0.02006081  1
  Ti  Ti154  1  0.20027654  0.41316498  0.75067970  1
  Ti  Ti155  1  0.40444063  0.40473655  -0.02737127  1
  Ti  Ti156  1  -0.00127086  0.40074204  0.01211477  1
  Ti  Ti157  1  0.19905919  0.78839399  0.75713867  1
  Ti  Ti158  1  0.30320951  0.90163383  0.87698954  1
  Ti  Ti159  1  0.89315565  0.30559016  0.14193140  1
  Mo  Mo160  1  0.89886547  0.70058116  0.11353864  1
  Mo  Mo161  1  0.87825868  0.88362563  0.63268225  1
  Mo  Mo162  1  0.90471491  0.51362216  0.37658289  1
  Mo  Mo163  1  0.79947068  0.81060605  0.75354583  1
  Mo  Mo164  1  0.28986950  0.71021616  0.87635854  1
  Mo  Mo165  1  0.69381203  0.08852528  0.62675001  1
  Mo  Mo166  1  0.79655499  0.78978531  0.23953699  1
  Mo  Mo167  1  0.39764093  -0.00962507  0.50105830  1
  Mo  Mo168  1  0.29944707  0.51221337  0.63609018  1
  Mo  Mo169  1  0.40501317  0.39802521  0.25724178  1
  Mo  Mo170  1  -0.00020594  -0.01113204  0.50533996  1
  Mo  Mo171  1  0.69245721  0.09838760  0.37539957  1
  Mo  Mo172  1  0.10014926  0.30777491  0.62825730  1
  Mo  Mo173  1  0.21376448  0.60884521  0.00020545  1
  Mo  Mo174  1  0.49289316  0.09152631  0.87228884  1
  Mo  Mo175  1  0.29654612  0.09467699  0.87491910  1
  Mo  Mo176  1  0.79378511  0.19670957  0.48091068  1
  Mo  Mo177  1  0.59566642  0.60719577  -0.00256830  1
  Mo  Mo178  1  0.49729793  0.09931957  0.12666586  1
  Mo  Mo179  1  0.68994898  0.69090289  0.12768726  1
  Mo  Mo180  1  0.61543385  0.18173462  0.49551759  1
  Mo  Mo181  1  0.40930031  -0.01155576  0.75443647  1
  Mo  Mo182  1  0.60207269  0.58988025  0.25005683  1
  Mo  Mo183  1  0.29360347  0.30304013  0.12979848  1
  Mo  Mo184  1  0.90762189  0.70174476  0.62308800  1
  Mo  Mo185  1  0.30470922  0.50413405  0.37347331  1
  Mo  Mo186  1  0.60252325  0.60739546  0.73353706  1
  Mo  Mo187  1  0.90196680  0.90507560  0.11070284  1
  Mo  Mo188  1  0.89866920  0.49115678  0.13014219  1
  Mo  Mo189  1  0.19592303  0.80649285  0.00866526  1
  Mo  Mo190  1  0.30757283  0.50507100  0.87452338  1
  Mo  Mo191  1  0.60500490  -0.00884946  0.00268365  1
  Mo  Mo192  1  0.60716633  0.79164212  0.00118601  1
  Mo  Mo193  1  0.50066582  0.71632549  0.87679684  1
  Mo  Mo194  1  0.00334556  0.20286398  0.48556156  1
  Mo  Mo195  1  0.90027665  0.88192079  0.37588168  1
  Mo  Mo196  1  0.69987996  0.29667207  0.38567912  1
  Mo  Mo197  1  0.51248841  0.51274132  0.63369231  1
  Mo  Mo198  1  0.59024084  -0.01705978  0.49729923  1
  Mo  Mo199  1  0.01108257  0.60821603  0.24533210  1
