# generated using pymatgen
data_HfZrTaTiMo
_symmetry_space_group_name_H-M   'P 1'
_cell_length_a   15.19764278
_cell_length_b   15.20422361
_cell_length_c   16.86406448
_cell_angle_alpha   89.96102898
_cell_angle_beta   90.00838402
_cell_angle_gamma   90.02324122
_symmetry_Int_Tables_number   1
_chemical_formula_structural   HfZrTaTiMo
_chemical_formula_sum   'Hf40 Zr40 Ta40 Ti40 Mo40'
_cell_volume   3896.75044347
_cell_formula_units_Z   40
loop_
 _symmetry_equiv_pos_site_id
 _symmetry_equiv_pos_as_xyz
  1  'x, y, z'
loop_
 _atom_site_type_symbol
 _atom_site_label
 _atom_site_symmetry_multiplicity
 _atom_site_fract_x
 _atom_site_fract_y
 _atom_site_fract_z
 _atom_site_occupancy
  Hf  Hf0  1  0.20021272  0.20437983  0.22595027  1
  Hf  Hf1  1  0.70303524  0.90830950  0.11238853  1
  Hf  Hf2  1  0.69836336  0.91376820  0.88998181  1
  Hf  Hf3  1  0.67947676  0.70588938  0.87100641  1
  Hf  Hf4  1  0.00420070  0.00802974  0.24586109  1
  Hf  Hf5  1  0.49578911  0.70817080  0.37017771  1
  Hf  Hf6  1  0.69709657  0.10755322  0.37064287  1
  Hf  Hf7  1  0.11222012  0.89210149  0.13823425  1
  Hf  Hf8  1  0.18905936  0.60153654  0.49764291  1
  Hf  Hf9  1  0.39139257  0.00394927  0.75930257  1
  Hf  Hf10  1  0.01814994  0.18696934  0.74464286  1
  Hf  Hf11  1  0.19895604  0.20055437  0.01898251  1
  Hf  Hf12  1  -0.00473261  0.39245205  0.23864160  1
  Hf  Hf13  1  0.28103164  0.89356534  0.87118459  1
  Hf  Hf14  1  0.68918671  0.49622780  0.86963841  1
  Hf  Hf15  1  0.59823654  0.37884321  0.74975004  1
  Hf  Hf16  1  0.09487564  0.91488417  0.37848612  1
  Hf  Hf17  1  0.50816869  0.50237597  0.37764890  1
  Hf  Hf18  1  0.38632529  0.58237638  0.00914160  1
  Hf  Hf19  1  0.00037693  0.58809754  0.75743464  1
  Hf  Hf20  1  0.50713216  0.10372531  0.88975090  1
  Hf  Hf21  1  0.10952749  0.12531931  0.36969631  1
  Hf  Hf22  1  -0.00580151  0.79878072  0.50092762  1
  Hf  Hf23  1  0.08227528  0.50282442  0.36520817  1
  Hf  Hf24  1  0.50977906  0.30013402  0.12121817  1
  Hf  Hf25  1  0.91695838  0.90664762  0.88538550  1
  Hf  Hf26  1  -0.00596804  0.60458641  -0.01081528  1
  Hf  Hf27  1  0.31701414  0.32231431  0.89512422  1
  Hf  Hf28  1  0.29749672  0.11338753  0.63496798  1
  Hf  Hf29  1  0.40841619  0.40021158  0.25540134  1
  Hf  Hf30  1  0.88307056  0.68329131  0.37272066  1
  Hf  Hf31  1  0.88259598  0.48963142  0.11922597  1
  Hf  Hf32  1  0.91314298  0.28713685  0.37432934  1
  Hf  Hf33  1  0.80795167  0.21914883  0.00029949  1
  Hf  Hf34  1  0.29591035  0.50168557  0.61510284  1
  Hf  Hf35  1  0.49902873  0.49253626  0.61529088  1
  Hf  Hf36  1  0.31065311  0.30427650  0.62231374  1
  Hf  Hf37  1  0.29943838  0.70464544  0.63504730  1
  Hf  Hf38  1  0.61816318  0.39357716  0.49462593  1
  Hf  Hf39  1  0.10124892  0.71898068  0.87044886  1
  Zr  Zr40  1  0.10902610  0.28257834  0.87874024  1
  Zr  Zr41  1  0.80906463  0.79507227  -0.00333172  1
  Zr  Zr42  1  0.01416115  0.19579090  0.51274531  1
  Zr  Zr43  1  0.79977509  0.81364660  0.75498951  1
  Zr  Zr44  1  -0.01230099  0.39194165  -0.01089412  1
  Zr  Zr45  1  0.37238112  0.79192414  0.00459515  1
  Zr  Zr46  1  0.79225545  0.78418346  0.50370515  1
  Zr  Zr47  1  0.20188885  0.80070695  0.49551214  1
  Zr  Zr48  1  0.29806670  0.51297212  0.38109850  1
  Zr  Zr49  1  0.78802238  0.58650007  -0.00685473  1
  Zr  Zr50  1  0.10963485  0.49744475  0.11732719  1
  Zr  Zr51  1  0.20406438  0.40286473  0.25424292  1
  Zr  Zr52  1  0.18986641  0.81392344  0.73653335  1
  Zr  Zr53  1  0.40163112  0.38648555  0.48488688  1
  Zr  Zr54  1  0.09112736  0.69464712  0.14173781  1
  Zr  Zr55  1  0.60295728  0.01048813  0.75198965  1
  Zr  Zr56  1  0.51160831  0.09911352  0.11680324  1
  Zr  Zr57  1  0.50076599  0.88826200  0.88056504  1
  Zr  Zr58  1  0.69297390  0.69233836  0.64939336  1
  Zr  Zr59  1  -0.02010940  0.59209402  0.50539719  1
  Zr  Zr60  1  0.69847765  0.89039110  0.37473415  1
  Zr  Zr61  1  0.90938273  0.30276797  0.63393820  1
  Zr  Zr62  1  0.31616651  0.91120107  0.38207460  1
  Zr  Zr63  1  0.29003133  0.11799077  0.87605138  1
  Zr  Zr64  1  0.78521807  0.39719389  0.26712958  1
  Zr  Zr65  1  0.59574340  0.19277451  0.49923898  1
  Zr  Zr66  1  -0.01066228  -0.00830129  0.72857308  1
  Zr  Zr67  1  0.69984475  0.90894943  0.62781820  1
  Zr  Zr68  1  -0.00782367  0.79881868  0.73137014  1
  Zr  Zr69  1  0.80581811  -0.00982587  0.25474249  1
  Zr  Zr70  1  0.50705122  0.89426745  0.10403527  1
  Zr  Zr71  1  0.58808179  0.80220388  0.50444084  1
  Zr  Zr72  1  0.48464928  0.68801728  0.86861789  1
  Zr  Zr73  1  0.20350581  0.39834052  0.75571280  1
  Zr  Zr74  1  0.21108384  0.79655927  0.26974099  1
  Zr  Zr75  1  0.49271557  0.70063398  0.64319298  1
  Zr  Zr76  1  0.19228693  -0.00853677  0.00641851  1
  Zr  Zr77  1  0.00176737  0.18915058  0.01769127  1
  Zr  Zr78  1  0.30835535  0.32688737  0.10785354  1
  Zr  Zr79  1  0.60202013  0.59543287  0.24732152  1
  Ta  Ta80  1  0.51193710  0.28645468  0.36338520  1
  Ta  Ta81  1  0.79995744  0.20440624  0.49967935  1
  Ta  Ta82  1  0.20773457  0.02781293  0.49706410  1
  Ta  Ta83  1  0.90599796  0.89246992  0.12082299  1
  Ta  Ta84  1  0.51493692  0.29668264  0.89380789  1
  Ta  Ta85  1  0.89350169  0.49210088  0.63559205  1
  Ta  Ta86  1  0.80785688  0.19808435  0.24199419  1
  Ta  Ta87  1  0.09172514  0.48370852  0.62548073  1
  Ta  Ta88  1  0.38750275  0.60638335  0.24251040  1
  Ta  Ta89  1  0.30129218  0.91329857  0.62195227  1
  Ta  Ta90  1  0.90743023  0.10438079  0.87514060  1
  Ta  Ta91  1  0.49040674  0.90059694  0.63813266  1
  Ta  Ta92  1  0.19940338  0.61575025  -0.00569029  1
  Ta  Ta93  1  0.89784012  0.69799268  0.12968783  1
  Ta  Ta94  1  0.48861421  0.48857056  0.87975473  1
  Ta  Ta95  1  0.50444776  0.28852661  0.62219360  1
  Ta  Ta96  1  0.79127249  0.78901800  0.24421461  1
  Ta  Ta97  1  0.60949871  0.60565100  0.50199447  1
  Ta  Ta98  1  0.71055970  0.29972950  0.62647763  1
  Ta  Ta99  1  0.79848860  0.59794823  0.24087754  1
  Ta  Ta100  1  0.59348031  0.00207345  0.50316569  1
  Ta  Ta101  1  0.39344341  0.00360026  -0.00244921  1
  Ta  Ta102  1  0.09554372  0.68618446  0.62599753  1
  Ta  Ta103  1  0.60036279  0.00243094  0.24592085  1
  Ta  Ta104  1  0.80146424  0.00196711  0.49513910  1
  Ta  Ta105  1  0.71113312  0.31707746  0.12633412  1
  Ta  Ta106  1  0.49836496  0.69323502  0.11889695  1
  Ta  Ta107  1  0.71378760  0.51660671  0.38359834  1
  Ta  Ta108  1  0.39370842  0.18417211  0.48871825  1
  Ta  Ta109  1  0.40502415  0.80308183  0.23841624  1
  Ta  Ta110  1  0.40434240  -0.00453354  0.24023251  1
  Ta  Ta111  1  0.18007719  0.01765598  0.75035487  1
  Ta  Ta112  1  0.69101523  0.69660381  0.11381488  1
  Ta  Ta113  1  0.61491824  0.40633242  0.00162297  1
  Ta  Ta114  1  0.81326265  0.40377665  0.49275615  1
  Ta  Ta115  1  0.00468071  0.39635918  0.49801179  1
  Ta  Ta116  1  -0.01924265  0.80496144  0.26297600  1
  Ta  Ta117  1  -0.00397979  0.00123912  0.50711431  1
  Ta  Ta118  1  0.80464119  0.39439815  0.76680407  1
  Ta  Ta119  1  0.41729975  0.21634593  0.75763134  1
  Ti  Ti120  1  0.29390749  0.28020958  0.37143740  1
  Ti  Ti121  1  0.61950677  0.19764912  0.00997201  1
  Ti  Ti122  1  0.49340109  0.09274925  0.36580015  1
  Ti  Ti123  1  0.70763101  0.49421140  0.62962819  1
  Ti  Ti124  1  0.10621071  0.90986649  0.60798044  1
  Ti  Ti125  1  0.49675327  0.10071122  0.62989731  1
  Ti  Ti126  1  0.40920873  0.00176059  0.50457130  1
  Ti  Ti127  1  0.18964278  0.38551785  0.48722568  1
  Ti  Ti128  1  0.50390916  0.49515868  0.12687767  1
  Ti  Ti129  1  0.40105614  0.19230133  0.24898024  1
  Ti  Ti130  1  0.70345334  0.11730755  0.87478296  1
  Ti  Ti131  1  0.19638949  0.59251821  0.74780932  1
  Ti  Ti132  1  0.61339108  0.20874845  0.24488667  1
  Ti  Ti133  1  0.80109659  0.02000935  0.00262758  1
  Ti  Ti134  1  0.89115061  0.09401045  0.12797533  1
  Ti  Ti135  1  0.60080023  0.80170328  0.24299942  1
  Ti  Ti136  1  0.80130000  0.59092116  0.75988113  1
  Ti  Ti137  1  0.00247391  0.00120216  0.01370810  1
  Ti  Ti138  1  0.39826163  0.80397406  0.50341821  1
  Ti  Ti139  1  0.58330653  0.58198949  0.74903686  1
  Ti  Ti140  1  0.40487100  0.40938119  0.75168257  1
  Ti  Ti141  1  0.01687585  0.80375599  0.00495227  1
  Ti  Ti142  1  0.79786191  0.20216245  0.75449488  1
  Ti  Ti143  1  0.90444057  0.09054784  0.37748243  1
  Ti  Ti144  1  0.31170533  0.09424720  0.12031103  1
  Ti  Ti145  1  0.28501124  0.70195762  0.13095079  1
  Ti  Ti146  1  0.00042585  0.39549902  0.76694065  1
  Ti  Ti147  1  0.88615003  0.09699267  0.62210962  1
  Ti  Ti148  1  0.89506996  0.69815127  0.86909676  1
  Ti  Ti149  1  0.80255369  0.01082735  0.75463758  1
  Ti  Ti150  1  0.69755730  0.10987989  0.62542468  1
  Ti  Ti151  1  0.12023000  0.29065408  0.62846950  1
  Ti  Ti152  1  0.11433526  0.49877446  0.88456695  1
  Ti  Ti153  1  0.40238690  0.61334371  0.49843724  1
  Ti  Ti154  1  0.00471407  0.20342581  0.22606280  1
  Ti  Ti155  1  0.09368657  0.69527395  0.36411233  1
  Ti  Ti156  1  0.88926807  0.68867047  0.62968846  1
  Ti  Ti157  1  0.21431463  0.00727102  0.24803945  1
  Ti  Ti158  1  0.29513315  0.69295873  0.85731158  1
  Ti  Ti159  1  0.50506455  0.90619977  0.36909212  1
  Mo  Mo160  1  0.30247080  0.51340148  0.87010241  1
  Mo  Mo161  1  0.19931149  0.60379965  0.25678438  1
  Mo  Mo162  1  0.69003997  0.69529314  0.36918592  1
  Mo  Mo163  1  0.09082265  0.91059264  0.87648190  1
  Mo  Mo164  1  0.89636629  0.29950469  0.13169622  1
  Mo  Mo165  1  0.10742995  0.09895292  0.61653004  1
  Mo  Mo166  1  0.89280765  0.90375915  0.60919259  1
  Mo  Mo167  1  0.38807336  0.58609830  0.74947913  1
  Mo  Mo168  1  0.31013051  0.10155114  0.36319662  1
  Mo  Mo169  1  0.10373689  0.09242126  0.13683589  1
  Mo  Mo170  1  0.90128968  0.89953287  0.38144788  1
  Mo  Mo171  1  0.30556567  0.90361167  0.13175984  1
  Mo  Mo172  1  -0.01353454  0.60197124  0.24791684  1
  Mo  Mo173  1  0.20681797  0.42428695  -0.00471799  1
  Mo  Mo174  1  0.59205194  0.80534482  0.75247439  1
  Mo  Mo175  1  0.90159309  0.50005074  0.86714533  1
  Mo  Mo176  1  0.10296745  0.30301530  0.37196228  1
  Mo  Mo177  1  0.40766745  0.19801752  0.00312181  1
  Mo  Mo178  1  0.89885327  0.49355580  0.37294224  1
  Mo  Mo179  1  0.61186176  0.00844359  -0.00514682  1
  Mo  Mo180  1  0.70623216  0.10904159  0.13241507  1
  Mo  Mo181  1  0.21233098  0.20119984  0.75463299  1
  Mo  Mo182  1  0.78903088  0.58716392  0.51412335  1
  Mo  Mo183  1  0.09834409  0.30417110  0.11241681  1
  Mo  Mo184  1  0.39120590  0.80559979  0.74903090  1
  Mo  Mo185  1  0.58616587  0.59502884  0.00486778  1
  Mo  Mo186  1  0.19399586  0.79319884  0.00323148  1
  Mo  Mo187  1  0.41727893  0.40638497  0.00435273  1
  Mo  Mo188  1  0.30799068  0.70241396  0.37562882  1
  Mo  Mo189  1  0.90029251  0.29024493  0.86112149  1
  Mo  Mo190  1  0.30178258  0.51565918  0.13286866  1
  Mo  Mo191  1  0.70305350  0.29626910  0.37670928  1
  Mo  Mo192  1  0.79643584  0.39555410  -0.01568535  1
  Mo  Mo193  1  0.59851967  0.78934930  0.00331232  1
  Mo  Mo194  1  0.59981443  0.39621657  0.25776163  1
  Mo  Mo195  1  0.08931659  0.08172366  0.87877326  1
  Mo  Mo196  1  0.21300200  0.21218418  0.49607075  1
  Mo  Mo197  1  0.68931609  0.49865971  0.12344328  1
  Mo  Mo198  1  0.60394557  0.19912880  0.74490597  1
  Mo  Mo199  1  0.69735424  0.29120332  0.87525081  1
