# generated using pymatgen
data_HfZrTaTiMo
_symmetry_space_group_name_H-M   'P 1'
_cell_length_a   15.21025209
_cell_length_b   15.20943706
_cell_length_c   16.85323354
_cell_angle_alpha   89.99181926
_cell_angle_beta   89.95692104
_cell_angle_gamma   89.93488447
_symmetry_Int_Tables_number   1
_chemical_formula_structural   HfZrTaTiMo
_chemical_formula_sum   'Hf40 Zr40 Ta40 Ti40 Mo40'
_cell_volume   3898.81280035
_cell_formula_units_Z   40
loop_
 _symmetry_equiv_pos_site_id
 _symmetry_equiv_pos_as_xyz
  1  'x, y, z'
loop_
 _atom_site_type_symbol
 _atom_site_label
 _atom_site_symmetry_multiplicity
 _atom_site_fract_x
 _atom_site_fract_y
 _atom_site_fract_z
 _atom_site_occupancy
  Hf  Hf0  1  0.30900807  0.89206084  0.88481936  1
  Hf  Hf1  1  0.00341503  0.19152557  0.00465032  1
  Hf  Hf2  1  0.50407752  0.30753071  0.11840839  1
  Hf  Hf3  1  0.09168341  0.50020864  0.88034044  1
  Hf  Hf4  1  0.59454358  0.00344320  0.75299338  1
  Hf  Hf5  1  0.69209849  0.70227832  0.62991544  1
  Hf  Hf6  1  0.10655562  0.68947987  0.87573374  1
  Hf  Hf7  1  0.19107438  0.59319903  0.50157142  1
  Hf  Hf8  1  0.00491969  0.39436721  0.73879998  1
  Hf  Hf9  1  0.10285384  0.69456549  0.11514202  1
  Hf  Hf10  1  0.89194124  0.70445586  0.62624169  1
  Hf  Hf11  1  0.70252899  0.10231656  0.89226397  1
  Hf  Hf12  1  0.49397183  0.68345306  0.11627857  1
  Hf  Hf13  1  0.10582053  0.09762979  0.87068643  1
  Hf  Hf14  1  -0.01687171  0.40133710  0.01634964  1
  Hf  Hf15  1  0.79125305  0.58059200  -0.00522904  1
  Hf  Hf16  1  0.50038944  0.91165394  0.89012724  1
  Hf  Hf17  1  0.90768351  0.69202529  0.36111588  1
  Hf  Hf18  1  0.59352783  0.20997827  0.76340648  1
  Hf  Hf19  1  0.57875852  0.20959256  0.49429992  1
  Hf  Hf20  1  0.40548016  0.00934658  0.49465282  1
  Hf  Hf21  1  0.39894883  0.58977089  0.51151803  1
  Hf  Hf22  1  0.89680817  0.27703759  0.13432672  1
  Hf  Hf23  1  0.79127517  0.80091133  0.76955991  1
  Hf  Hf24  1  0.48279938  0.71620600  0.88593488  1
  Hf  Hf25  1  0.29455521  0.10616011  0.62195536  1
  Hf  Hf26  1  0.90977195  0.09256563  0.37527844  1
  Hf  Hf27  1  0.90226985  0.89417367  0.37412689  1
  Hf  Hf28  1  0.09047542  0.69042395  0.63454743  1
  Hf  Hf29  1  0.49834875  0.51179624  0.88546247  1
  Hf  Hf30  1  0.40191886  0.19492486  0.76164290  1
  Hf  Hf31  1  0.40631058  0.39214816  0.75717099  1
  Hf  Hf32  1  0.11860241  0.09952595  0.12830173  1
  Hf  Hf33  1  0.80359235  -0.00553272  0.50350007  1
  Hf  Hf34  1  0.80668217  0.60217592  0.76895943  1
  Hf  Hf35  1  0.01132939  0.39351365  0.23906518  1
  Hf  Hf36  1  0.19950300  0.20623961  0.75010883  1
  Hf  Hf37  1  0.29264132  0.29764964  0.88618263  1
  Hf  Hf38  1  0.80368276  0.00200953  0.75013563  1
  Hf  Hf39  1  0.78088495  0.38927154  0.23708867  1
  Zr  Zr40  1  0.69308369  0.69839843  0.11934148  1
  Zr  Zr41  1  0.71810740  0.10556130  0.11125799  1
  Zr  Zr42  1  0.19207492  0.01520228  0.48163063  1
  Zr  Zr43  1  0.59469695  0.79757982  0.49080040  1
  Zr  Zr44  1  0.70165647  0.50890803  0.63525994  1
  Zr  Zr45  1  0.28952655  0.71031298  0.61435365  1
  Zr  Zr46  1  0.50002603  0.70327408  0.62872905  1
  Zr  Zr47  1  0.01186796  0.19114147  0.50227226  1
  Zr  Zr48  1  0.20172370  0.19910793  0.26993314  1
  Zr  Zr49  1  0.19188768  0.80318244  0.25538988  1
  Zr  Zr50  1  0.79938210  0.20055228  0.50370932  1
  Zr  Zr51  1  0.59381191  0.80370350  0.24664998  1
  Zr  Zr52  1  0.88667070  0.50082448  0.35481145  1
  Zr  Zr53  1  0.68972765  0.10512329  0.62307724  1
  Zr  Zr54  1  0.91486742  0.29907211  0.36886386  1
  Zr  Zr55  1  0.79638997  0.21166395  0.74771253  1
  Zr  Zr56  1  0.21809550  0.39604460  0.24655040  1
  Zr  Zr57  1  0.09210950  0.30299404  0.88153120  1
  Zr  Zr58  1  0.69907680  0.30654705  0.38117079  1
  Zr  Zr59  1  0.09599959  0.49903128  0.36985633  1
  Zr  Zr60  1  0.69536460  0.68863776  0.36193082  1
  Zr  Zr61  1  0.28489598  0.51169973  0.87936814  1
  Zr  Zr62  1  -0.00386766  0.79799178  0.76169032  1
  Zr  Zr63  1  0.29382253  0.91037555  0.12213168  1
  Zr  Zr64  1  0.09910958  0.07991647  0.63329951  1
  Zr  Zr65  1  0.70222517  0.89517615  0.62302466  1
  Zr  Zr66  1  0.00647325  -0.00069482  0.24076885  1
  Zr  Zr67  1  0.82063906  0.40480153  0.51274426  1
  Zr  Zr68  1  0.90155091  0.68803504  0.12379884  1
  Zr  Zr69  1  0.79646080  0.80311766  0.24376557  1
  Zr  Zr70  1  0.89061162  0.90301058  0.11286893  1
  Zr  Zr71  1  0.38340289  0.60104180  0.74266849  1
  Zr  Zr72  1  0.79269668  0.60220660  0.49594840  1
  Zr  Zr73  1  0.29974432  0.50672748  0.12125543  1
  Zr  Zr74  1  0.61138293  0.40103460  0.77100680  1
  Zr  Zr75  1  0.89660974  0.90627623  0.88785081  1
  Zr  Zr76  1  0.11234289  0.29946665  0.61170301  1
  Zr  Zr77  1  0.39568652  0.80514424  0.24929796  1
  Zr  Zr78  1  0.31815314  0.49943144  0.36955058  1
  Zr  Zr79  1  0.89189015  0.47616674  0.87548697  1
  Ta  Ta80  1  0.42553353  0.39488378  0.50327594  1
  Ta  Ta81  1  0.50196835  0.91021161  0.37005232  1
  Ta  Ta82  1  0.48774276  0.68480262  0.36935501  1
  Ta  Ta83  1  0.00585802  0.79542435  0.49961998  1
  Ta  Ta84  1  0.20417166  0.00960704  -0.00251572  1
  Ta  Ta85  1  0.59254546  0.80676718  0.75995953  1
  Ta  Ta86  1  0.31946479  0.30275212  0.62016393  1
  Ta  Ta87  1  0.21197624  0.00243855  0.26639140  1
  Ta  Ta88  1  0.00599918  0.79546963  0.24455112  1
  Ta  Ta89  1  0.60732410  0.20417487  0.24721061  1
  Ta  Ta90  1  0.80207364  0.18645117  0.25585971  1
  Ta  Ta91  1  0.90219787  0.10894136  0.87750613  1
  Ta  Ta92  1  0.10836745  0.89877233  0.88451900  1
  Ta  Ta93  1  0.90406111  0.09576731  0.62631980  1
  Ta  Ta94  1  0.49651652  0.31688773  0.35988174  1
  Ta  Ta95  1  -0.00719588  0.59075420  0.49990340  1
  Ta  Ta96  1  0.40014741  0.39929332  -0.00275750  1
  Ta  Ta97  1  0.68367066  0.31170341  0.61828304  1
  Ta  Ta98  1  0.00034009  0.79186542  -0.00802053  1
  Ta  Ta99  1  0.69633903  0.90628850  0.37556466  1
  Ta  Ta100  1  0.59519688  0.00474568  0.49622746  1
  Ta  Ta101  1  0.39881610  -0.00229610  0.74677966  1
  Ta  Ta102  1  0.10897845  0.29570437  0.12094614  1
  Ta  Ta103  1  0.00498557  -0.00055470  0.00510489  1
  Ta  Ta104  1  0.69391666  0.09513711  0.37272404  1
  Ta  Ta105  1  0.60068093  0.00132887  0.01542249  1
  Ta  Ta106  1  0.20749295  -0.01544766  0.75365330  1
  Ta  Ta107  1  0.29534431  0.70310391  0.12307996  1
  Ta  Ta108  1  0.50241475  0.10664426  0.35892009  1
  Ta  Ta109  1  0.49061274  0.10910160  0.62490673  1
  Ta  Ta110  1  0.20751706  0.79460486  0.75548808  1
  Ta  Ta111  1  -0.00948872  0.19924163  0.74446150  1
  Ta  Ta112  1  0.79199304  0.00007618  0.24829096  1
  Ta  Ta113  1  0.60947119  0.40827530  -0.01066969  1
  Ta  Ta114  1  0.29456472  0.70288316  0.38408617  1
  Ta  Ta115  1  0.39721977  0.19417068  0.00167250  1
  Ta  Ta116  1  0.30368548  0.89924459  0.38171337  1
  Ta  Ta117  1  0.59002974  0.58245417  0.49648435  1
  Ta  Ta118  1  0.67315160  0.50072956  0.12994504  1
  Ta  Ta119  1  0.29674071  0.90433183  0.61685560  1
  Ti  Ti120  1  0.38979544  0.20487285  0.48421076  1
  Ti  Ti121  1  0.09775733  0.70160127  0.37622674  1
  Ti  Ti122  1  0.00337970  -0.00536654  0.75624313  1
  Ti  Ti123  1  0.09378204  0.50792415  0.12200150  1
  Ti  Ti124  1  0.09519882  0.90122070  0.38052284  1
  Ti  Ti125  1  0.50279383  0.89388315  0.11558170  1
  Ti  Ti126  1  0.67711303  0.49722756  0.35672922  1
  Ti  Ti127  1  0.40464595  0.00999755  0.24501014  1
  Ti  Ti128  1  0.19870343  0.60459945  0.25337054  1
  Ti  Ti129  1  0.49911398  0.10425613  0.89062499  1
  Ti  Ti130  1  0.50734935  0.48230405  0.63183009  1
  Ti  Ti131  1  0.39791743  0.21002970  0.25082633  1
  Ti  Ti132  1  0.80794475  0.39426956  0.73798593  1
  Ti  Ti133  1  0.72288448  0.30803715  0.89535366  1
  Ti  Ti134  1  0.59800742  0.60874295  0.76337297  1
  Ti  Ti135  1  0.37904233  0.61231429  -0.00539232  1
  Ti  Ti136  1  0.22139591  0.39725592  0.50080642  1
  Ti  Ti137  1  0.79241298  0.79872545  -0.00370493  1
  Ti  Ti138  1  0.80270272  0.79738186  0.49345231  1
  Ti  Ti139  1  0.50117585  0.11041396  0.12656086  1
  Ti  Ti140  1  0.30364643  0.09034633  0.87755086  1
  Ti  Ti141  1  0.11012884  0.30210344  0.39014266  1
  Ti  Ti142  1  0.69670222  0.29632832  0.10808739  1
  Ti  Ti143  1  0.69230167  0.90225158  0.89221354  1
  Ti  Ti144  1  0.20933657  0.41419780  0.73647706  1
  Ti  Ti145  1  0.91598433  0.90149914  0.62225049  1
  Ti  Ti146  1  0.91840306  0.50780392  0.63227126  1
  Ti  Ti147  1  0.10237378  0.89307027  0.11227742  1
  Ti  Ti148  1  0.40017255  0.80399647  0.49437017  1
  Ti  Ti149  1  0.88914760  0.50281035  0.13910060  1
  Ti  Ti150  1  0.29913927  0.28583787  0.11579963  1
  Ti  Ti151  1  0.39967618  0.00659826  0.01531551  1
  Ti  Ti152  1  0.49780454  0.90515047  0.62317319  1
  Ti  Ti153  1  0.60340609  0.00196847  0.23607280  1
  Ti  Ti154  1  0.68527440  0.69920291  0.88993376  1
  Ti  Ti155  1  0.39742106  0.81103177  0.74482613  1
  Ti  Ti156  1  0.21049860  0.79020253  -0.00548936  1
  Ti  Ti157  1  0.19671325  0.40025322  0.00989943  1
  Ti  Ti158  1  0.10878169  0.88837802  0.61904853  1
  Ti  Ti159  1  0.42588096  0.42884260  0.23545581  1
  Mo  Mo160  1  0.00745265  0.60209944  0.24557521  1
  Mo  Mo161  1  0.30065060  0.48803817  0.62243926  1
  Mo  Mo162  1  0.00838462  0.19894739  0.25415628  1
  Mo  Mo163  1  0.59405425  0.39094312  0.23776572  1
  Mo  Mo164  1  0.50094886  0.29693485  0.89735518  1
  Mo  Mo165  1  0.10520668  0.49777764  0.61942231  1
  Mo  Mo166  1  0.01576703  0.41125282  0.50773168  1
  Mo  Mo167  1  0.89907645  0.29977056  0.62317312  1
  Mo  Mo168  1  -0.00199387  -0.01547960  0.50566659  1
  Mo  Mo169  1  -0.00247083  0.59305459  0.75072712  1
  Mo  Mo170  1  -0.00669528  0.59786243  0.00065583  1
  Mo  Mo171  1  0.50568513  0.50251873  0.37131261  1
  Mo  Mo172  1  0.60370052  0.40666632  0.49996247  1
  Mo  Mo173  1  0.20800769  0.19678065  0.00290250  1
  Mo  Mo174  1  0.80807151  0.00374504  -0.00364434  1
  Mo  Mo175  1  0.21693956  0.20849501  0.48006926  1
  Mo  Mo176  1  0.49515096  0.50322433  0.09987969  1
  Mo  Mo177  1  0.90061582  0.29122996  0.87873483  1
  Mo  Mo178  1  0.80966859  0.20623487  -0.00460534  1
  Mo  Mo179  1  0.69403923  0.90283594  0.11270214  1
  Mo  Mo180  1  0.19419048  0.59791108  0.00545199  1
  Mo  Mo181  1  0.29575990  0.70472826  0.86976554  1
  Mo  Mo182  1  0.59880198  0.80551543  0.00352130  1
  Mo  Mo183  1  0.50190015  0.29442311  0.62745786  1
  Mo  Mo184  1  0.90884864  0.09529038  0.13103989  1
  Mo  Mo185  1  0.18971146  0.59420525  0.74014533  1
  Mo  Mo186  1  0.19606425  0.80332343  0.49015009  1
  Mo  Mo187  1  0.59534044  0.20483565  -0.00515288  1
  Mo  Mo188  1  0.78881339  0.58960824  0.24166821  1
  Mo  Mo189  1  0.31361671  0.30515948  0.37772331  1
  Mo  Mo190  1  0.79562104  0.39664451  0.02216106  1
  Mo  Mo191  1  0.31725383  0.09694469  0.36578177  1
  Mo  Mo192  1  0.39610343  0.80526616  0.01248488  1
  Mo  Mo193  1  0.57744692  0.58485211  0.24805232  1
  Mo  Mo194  1  0.90212159  0.69247257  0.89467099  1
  Mo  Mo195  1  0.31145374  0.10685507  0.13152229  1
  Mo  Mo196  1  0.69848604  0.50125802  0.87232333  1
  Mo  Mo197  1  0.09844235  0.09936924  0.37007908  1
  Mo  Mo198  1  0.59473050  0.60142622  -0.01096803  1
  Mo  Mo199  1  0.38960617  0.60887824  0.24803776  1
