# generated using pymatgen
data_HfZrTaTiMo
_symmetry_space_group_name_H-M   'P 1'
_cell_length_a   15.19353695
_cell_length_b   15.18287754
_cell_length_c   16.78927444
_cell_angle_alpha   90.01728651
_cell_angle_beta   89.98595723
_cell_angle_gamma   89.93572953
_symmetry_Int_Tables_number   1
_chemical_formula_structural   HfZrTaTiMo
_chemical_formula_sum   'Hf40 Zr40 Ta40 Ti40 Mo40'
_cell_volume   3872.97414436
_cell_formula_units_Z   40
loop_
 _symmetry_equiv_pos_site_id
 _symmetry_equiv_pos_as_xyz
  1  'x, y, z'
loop_
 _atom_site_type_symbol
 _atom_site_label
 _atom_site_symmetry_multiplicity
 _atom_site_fract_x
 _atom_site_fract_y
 _atom_site_fract_z
 _atom_site_occupancy
  Hf  Hf0  1  0.31614276  0.68742165  0.88706045  1
  Hf  Hf1  1  0.90711547  0.69999057  0.86790633  1
  Hf  Hf2  1  0.20933004  0.20543068  0.48792509  1
  Hf  Hf3  1  0.69795406  0.10635751  0.37038800  1
  Hf  Hf4  1  0.40539407  -0.01364436  0.74496870  1
  Hf  Hf5  1  0.18836598  0.61217254  0.75055532  1
  Hf  Hf6  1  0.09017522  0.10279800  0.12145203  1
  Hf  Hf7  1  0.59496368  0.39084915  0.49428184  1
  Hf  Hf8  1  0.88719324  0.30940398  0.36589466  1
  Hf  Hf9  1  0.79112999  0.19199035  0.76306438  1
  Hf  Hf10  1  0.00236334  -0.00773980  0.25780562  1
  Hf  Hf11  1  0.49131998  0.47322901  0.62682010  1
  Hf  Hf12  1  0.10882063  0.30712913  0.12411388  1
  Hf  Hf13  1  0.50464084  0.09189730  0.13970574  1
  Hf  Hf14  1  0.60341279  0.01764825  0.74279642  1
  Hf  Hf15  1  0.69054115  0.10496686  0.89328109  1
  Hf  Hf16  1  -0.01057065  0.39850205  -0.00087763  1
  Hf  Hf17  1  0.10245301  0.91241901  0.88449701  1
  Hf  Hf18  1  0.87536014  0.29814303  0.63134876  1
  Hf  Hf19  1  0.10728368  0.71242863  0.89456756  1
  Hf  Hf20  1  0.39397882  -0.00909083  0.48914170  1
  Hf  Hf21  1  0.79979679  0.79656837  -0.00626609  1
  Hf  Hf22  1  0.88934336  0.50267524  0.86183868  1
  Hf  Hf23  1  0.78909191  0.40833585  -0.00479221  1
  Hf  Hf24  1  0.19598346  0.79889778  0.49230499  1
  Hf  Hf25  1  0.10300896  0.29927661  0.88432427  1
  Hf  Hf26  1  0.58593290  0.60358152  0.72834933  1
  Hf  Hf27  1  0.91466711  0.89946070  0.11411980  1
  Hf  Hf28  1  -0.00409864  0.80664782  0.49886906  1
  Hf  Hf29  1  0.59472488  0.59106225  0.50850775  1
  Hf  Hf30  1  0.60959016  0.79759651  0.26629588  1
  Hf  Hf31  1  0.90012834  0.90216456  0.62550037  1
  Hf  Hf32  1  0.70483754  0.89905378  0.12333690  1
  Hf  Hf33  1  0.38619906  0.58246640  0.74052674  1
  Hf  Hf34  1  0.20491528  0.40714547  0.74502056  1
  Hf  Hf35  1  0.88573559  0.49722106  0.14419666  1
  Hf  Hf36  1  0.00476458  0.60738025  0.24561027  1
  Hf  Hf37  1  0.88214449  0.70814172  0.13707862  1
  Hf  Hf38  1  0.71145380  0.90082211  0.38941138  1
  Hf  Hf39  1  -0.01555668  0.19943107  0.49805708  1
  Zr  Zr40  1  0.30321069  0.07381368  0.15101657  1
  Zr  Zr41  1  0.20949297  0.60682929  0.23615398  1
  Zr  Zr42  1  0.59160823  0.01494413  0.50349060  1
  Zr  Zr43  1  0.10017410  0.09789762  0.61391254  1
  Zr  Zr44  1  0.41758175  0.19076991  0.48879921  1
  Zr  Zr45  1  0.39560758  0.17737979  0.00755358  1
  Zr  Zr46  1  0.90730052  0.50943369  0.36940561  1
  Zr  Zr47  1  0.49826586  0.88893580  0.13838778  1
  Zr  Zr48  1  0.00178059  0.41201578  0.73132917  1
  Zr  Zr49  1  0.50977355  0.88697411  0.87930667  1
  Zr  Zr50  1  0.90812541  0.30038909  0.13741373  1
  Zr  Zr51  1  0.41096965  0.37537930  0.00523902  1
  Zr  Zr52  1  0.20288705  0.19759604  0.74967918  1
  Zr  Zr53  1  0.08953294  0.51161894  0.88347204  1
  Zr  Zr54  1  0.79532311  0.19267766  0.23870332  1
  Zr  Zr55  1  0.29071378  0.48428999  0.89474942  1
  Zr  Zr56  1  0.80219623  0.21367321  0.00088485  1
  Zr  Zr57  1  0.70008164  0.72257275  0.60409619  1
  Zr  Zr58  1  0.00468845  0.61481412  0.51240641  1
  Zr  Zr59  1  0.69292950  0.32265679  0.13432486  1
  Zr  Zr60  1  0.19868021  -0.00223065  0.48505085  1
  Zr  Zr61  1  0.20198348  0.20182076  0.25388916  1
  Zr  Zr62  1  0.21352337  0.00705976  0.00414532  1
  Zr  Zr63  1  0.30964297  0.09746927  0.62911450  1
  Zr  Zr64  1  -0.00659974  0.41087012  0.51446306  1
  Zr  Zr65  1  0.78111708  0.59700502  0.00066244  1
  Zr  Zr66  1  0.49789644  0.87632795  0.60835569  1
  Zr  Zr67  1  0.00266388  0.20283788  0.74449887  1
  Zr  Zr68  1  0.91579404  0.09520084  0.89468991  1
  Zr  Zr69  1  0.70949332  0.50002247  0.37810875  1
  Zr  Zr70  1  0.01012990  0.00315948  0.75343855  1
  Zr  Zr71  1  0.09394658  0.31509658  0.37801184  1
  Zr  Zr72  1  0.31120696  0.30733864  0.62070620  1
  Zr  Zr73  1  0.60528091  0.81044655  0.74214205  1
  Zr  Zr74  1  0.29920802  0.69757947  0.61299550  1
  Zr  Zr75  1  0.79475422  0.60039186  0.72747830  1
  Zr  Zr76  1  0.30692954  0.88552678  0.87190002  1
  Zr  Zr77  1  0.68576585  0.70259812  0.86824505  1
  Zr  Zr78  1  0.09347899  0.71727095  0.11333334  1
  Zr  Zr79  1  0.30006880  0.48155325  0.11775747  1
  Ta  Ta80  1  0.70950570  0.91865432  0.61123660  1
  Ta  Ta81  1  -0.00181323  0.19778134  0.25676401  1
  Ta  Ta82  1  0.61289513  0.20857253  0.49971750  1
  Ta  Ta83  1  0.09209790  0.49913035  0.11785937  1
  Ta  Ta84  1  0.70986134  0.91042273  0.88162219  1
  Ta  Ta85  1  0.70394737  0.12061676  0.62388837  1
  Ta  Ta86  1  0.09584308  0.70786828  0.36547157  1
  Ta  Ta87  1  0.80043854  -0.00193022  0.75327006  1
  Ta  Ta88  1  0.89041945  0.71874068  0.36839514  1
  Ta  Ta89  1  0.50536373  0.50201300  0.12646397  1
  Ta  Ta90  1  0.09759941  0.10080124  0.37286655  1
  Ta  Ta91  1  0.69091564  0.31171824  0.86681724  1
  Ta  Ta92  1  0.57653399  0.61446722  -0.00133638  1
  Ta  Ta93  1  0.29641219  0.09004691  0.86613366  1
  Ta  Ta94  1  0.70287864  0.70270974  0.39682771  1
  Ta  Ta95  1  0.29573188  0.69311855  0.37553582  1
  Ta  Ta96  1  0.19636728  0.40816796  0.25297468  1
  Ta  Ta97  1  0.59243588  0.60495785  0.26681407  1
  Ta  Ta98  1  0.29295964  0.89527422  0.62750974  1
  Ta  Ta99  1  0.19408288  0.80666621  0.24408284  1
  Ta  Ta100  1  0.89928048  0.09135307  0.11195496  1
  Ta  Ta101  1  0.40427001  0.38207322  0.76229896  1
  Ta  Ta102  1  0.00877887  0.79595907  0.74558977  1
  Ta  Ta103  1  0.30097438  0.89303503  0.35583603  1
  Ta  Ta104  1  0.49559720  0.50470360  0.87424140  1
  Ta  Ta105  1  0.49315162  0.69740397  0.39221454  1
  Ta  Ta106  1  0.42657234  0.77671608  0.00920980  1
  Ta  Ta107  1  -0.00322475  -0.00258240  0.48501083  1
  Ta  Ta108  1  -0.01621480  0.60518762  0.01056577  1
  Ta  Ta109  1  0.58739426  0.41199925  0.25934010  1
  Ta  Ta110  1  0.59091822  0.21576823  0.01200366  1
  Ta  Ta111  1  0.30706748  0.30366707  0.36523829  1
  Ta  Ta112  1  0.80066674  -0.00971735  0.24901274  1
  Ta  Ta113  1  0.11154436  0.51464187  0.37780411  1
  Ta  Ta114  1  0.89660014  0.30607034  0.86462940  1
  Ta  Ta115  1  0.40229772  0.39338803  0.48620153  1
  Ta  Ta116  1  0.40960005  0.58682897  0.25689919  1
  Ta  Ta117  1  0.69975712  0.09505725  0.11480881  1
  Ta  Ta118  1  0.38981138  0.58473718  0.49853291  1
  Ta  Ta119  1  0.69739526  0.30076373  0.36370243  1
  Ti  Ti120  1  0.10737116  0.30403624  0.61261893  1
  Ti  Ti121  1  0.50058267  0.89776412  0.37209535  1
  Ti  Ti122  1  -0.00251128  0.60845330  0.72285501  1
  Ti  Ti123  1  0.22327663  0.80749716  0.01580911  1
  Ti  Ti124  1  0.90549172  0.89854295  0.88340153  1
  Ti  Ti125  1  0.10574119  0.90221018  0.62767579  1
  Ti  Ti126  1  0.21176845  0.41474740  0.49575333  1
  Ti  Ti127  1  0.40764017  0.77759109  0.74309065  1
  Ti  Ti128  1  0.68890913  0.51623376  0.13698693  1
  Ti  Ti129  1  0.78849770  0.39543128  0.50861415  1
  Ti  Ti130  1  0.20793122  0.20720281  0.00598918  1
  Ti  Ti131  1  0.12223461  0.51516303  0.61297483  1
  Ti  Ti132  1  0.50274854  0.29144578  0.36359491  1
  Ti  Ti133  1  0.68422339  0.50101704  0.86097832  1
  Ti  Ti134  1  0.20085207  0.59847760  0.01376142  1
  Ti  Ti135  1  0.89279918  0.09684192  0.62350451  1
  Ti  Ti136  1  0.30959651  0.09527948  0.35613452  1
  Ti  Ti137  1  0.59441376  -0.00625786  0.00345284  1
  Ti  Ti138  1  0.59858188  0.41220847  -0.00262568  1
  Ti  Ti139  1  0.80677246  0.01587854  0.49908103  1
  Ti  Ti140  1  0.49672855  0.09505030  0.88480206  1
  Ti  Ti141  1  0.40098880  0.78127605  0.25406168  1
  Ti  Ti142  1  0.80594412  0.80888247  0.75177028  1
  Ti  Ti143  1  0.41575434  0.18634610  0.75580452  1
  Ti  Ti144  1  0.40088105  0.38847099  0.24481760  1
  Ti  Ti145  1  0.20218592  0.80670654  0.74852959  1
  Ti  Ti146  1  0.50462967  0.09364674  0.35031751  1
  Ti  Ti147  1  0.30405813  0.49765515  0.36843520  1
  Ti  Ti148  1  0.32083545  0.69474494  0.12150835  1
  Ti  Ti149  1  0.40002753  -0.02263060  0.00592919  1
  Ti  Ti150  1  0.11007678  0.90928881  0.12026662  1
  Ti  Ti151  1  0.89314291  0.10113865  0.37294787  1
  Ti  Ti152  1  0.67797148  0.70443142  0.12563738  1
  Ti  Ti153  1  0.68437003  0.31355290  0.64753642  1
  Ti  Ti154  1  0.78154281  0.61702949  0.25674263  1
  Ti  Ti155  1  0.50637311  0.27508080  0.63470587  1
  Ti  Ti156  1  0.81159895  0.59910119  0.51676224  1
  Ti  Ti157  1  0.30425987  0.28529049  0.87638884  1
  Ti  Ti158  1  0.59483623  0.20731224  0.23853620  1
  Ti  Ti159  1  0.50799189  0.29181511  0.87234250  1
  Mo  Mo160  1  0.79050626  0.41216401  0.25322615  1
  Mo  Mo161  1  0.30250535  0.28933085  0.13951794  1
  Mo  Mo162  1  0.59094853  0.20282348  0.75858928  1
  Mo  Mo163  1  0.60378780  0.79967108  0.00152470  1
  Mo  Mo164  1  0.00271250  0.79818952  -0.00393531  1
  Mo  Mo165  1  0.89676948  0.90869039  0.37723289  1
  Mo  Mo166  1  0.09853789  0.89702964  0.36782189  1
  Mo  Mo167  1  0.59596694  0.80436074  0.48468863  1
  Mo  Mo168  1  0.89260173  0.49973016  0.62280451  1
  Mo  Mo169  1  0.40369926  0.58942439  0.00697702  1
  Mo  Mo170  1  0.10483747  0.71557644  0.62874638  1
  Mo  Mo171  1  0.40674040  0.20015895  0.25527201  1
  Mo  Mo172  1  0.40824534  -0.01573970  0.26367296  1
  Mo  Mo173  1  0.00575572  -0.00194576  0.00078236  1
  Mo  Mo174  1  0.00778217  0.20106886  -0.00148500  1
  Mo  Mo175  1  0.19989665  0.59933489  0.48913221  1
  Mo  Mo176  1  0.79062147  0.40137192  0.75335315  1
  Mo  Mo177  1  0.49064154  0.69139908  0.60169435  1
  Mo  Mo178  1  0.50697693  0.09909821  0.62378630  1
  Mo  Mo179  1  0.30242319  0.88064120  0.13807509  1
  Mo  Mo180  1  0.39171895  0.79843612  0.48229695  1
  Mo  Mo181  1  0.11547465  0.10936887  0.88712441  1
  Mo  Mo182  1  0.58913052  0.40284371  0.75644200  1
  Mo  Mo183  1  0.00921490  0.40676897  0.25169841  1
  Mo  Mo184  1  0.79945635  0.80292818  0.25207351  1
  Mo  Mo185  1  0.19887885  0.39346787  0.00321070  1
  Mo  Mo186  1  0.79167510  0.20603053  0.49940471  1
  Mo  Mo187  1  0.20426718  -0.00745635  0.74916602  1
  Mo  Mo188  1  0.70215976  0.48738719  0.61924107  1
  Mo  Mo189  1  0.79631657  -0.00172820  0.00069033  1
  Mo  Mo190  1  0.90142926  0.71053380  0.63244825  1
  Mo  Mo191  1  0.49515283  0.69099961  0.86774647  1
  Mo  Mo192  1  -0.00216213  0.80404171  0.25648298  1
  Mo  Mo193  1  0.19623224  -0.00457377  0.25865837  1
  Mo  Mo194  1  0.80769147  0.80669901  0.50199501  1
  Mo  Mo195  1  0.50614135  0.68837184  0.13965104  1
  Mo  Mo196  1  0.61322141  0.00362778  0.25240764  1
  Mo  Mo197  1  0.49153253  0.49247489  0.37480246  1
  Mo  Mo198  1  0.49755622  0.30415797  0.13400071  1
  Mo  Mo199  1  0.29788249  0.49019756  0.61908368  1
