# generated using pymatgen
data_HfZrTaTiMo
_symmetry_space_group_name_H-M   'P 1'
_cell_length_a   15.21463709
_cell_length_b   15.21985301
_cell_length_c   16.85074639
_cell_angle_alpha   89.98098600
_cell_angle_beta   90.04173187
_cell_angle_gamma   90.10288973
_symmetry_Int_Tables_number   1
_chemical_formula_structural   HfZrTaTiMo
_chemical_formula_sum   'Hf40 Zr40 Ta40 Ti40 Mo40'
_cell_volume   3902.02779592
_cell_formula_units_Z   40
loop_
 _symmetry_equiv_pos_site_id
 _symmetry_equiv_pos_as_xyz
  1  'x, y, z'
loop_
 _atom_site_type_symbol
 _atom_site_label
 _atom_site_symmetry_multiplicity
 _atom_site_fract_x
 _atom_site_fract_y
 _atom_site_fract_z
 _atom_site_occupancy
  Hf  Hf0  1  0.20666705  0.40403410  0.50217425  1
  Hf  Hf1  1  0.00483108  0.59834403  0.50769499  1
  Hf  Hf2  1  0.59907952  0.79627970  0.49442204  1
  Hf  Hf3  1  0.90485883  0.28631014  0.86243510  1
  Hf  Hf4  1  0.60213098  0.40230215  0.74897726  1
  Hf  Hf5  1  0.19560670  0.79523415  0.49012816  1
  Hf  Hf6  1  0.80108753  0.20701754  0.48646490  1
  Hf  Hf7  1  0.30404368  0.69761795  0.13475777  1
  Hf  Hf8  1  0.59182294  0.59416369  0.73160961  1
  Hf  Hf9  1  0.69118155  0.90714756  0.13731374  1
  Hf  Hf10  1  0.20647807  0.20144766  0.00868517  1
  Hf  Hf11  1  0.88674966  0.70437218  0.35921339  1
  Hf  Hf12  1  0.60347165  0.00626578  0.00144711  1
  Hf  Hf13  1  0.31419959  0.89838141  0.61360593  1
  Hf  Hf14  1  0.89609232  0.49226318  0.12141375  1
  Hf  Hf15  1  0.88054359  0.71307213  0.86385613  1
  Hf  Hf16  1  0.60570674  0.00384772  0.74914697  1
  Hf  Hf17  1  0.69697026  0.09977770  0.61397784  1
  Hf  Hf18  1  0.49406487  0.89854065  0.87274313  1
  Hf  Hf19  1  0.79417929  0.79145233  0.01392236  1
  Hf  Hf20  1  0.48687241  0.70445271  0.62592789  1
  Hf  Hf21  1  0.41998643  0.20315873  0.25574062  1
  Hf  Hf22  1  0.90583798  0.89884027  0.13994308  1
  Hf  Hf23  1  0.50730204  0.50215680  0.88552754  1
  Hf  Hf24  1  0.20160978  -0.00842218  0.74402198  1
  Hf  Hf25  1  0.20534523  0.02301994  0.50385464  1
  Hf  Hf26  1  0.79765006  0.61388493  0.49914135  1
  Hf  Hf27  1  0.90306874  0.29180340  0.63801119  1
  Hf  Hf28  1  0.57433095  0.79389446  0.01862462  1
  Hf  Hf29  1  -0.01004447  0.79152437  0.49319377  1
  Hf  Hf30  1  0.31114971  0.49820714  0.88838867  1
  Hf  Hf31  1  0.00270955  0.82873121  -0.01314482  1
  Hf  Hf32  1  0.70831903  0.30617939  0.87897997  1
  Hf  Hf33  1  0.40304075  0.78313790  0.27283833  1
  Hf  Hf34  1  0.11879410  0.51055540  0.63708774  1
  Hf  Hf35  1  0.90424117  0.09644423  0.37210172  1
  Hf  Hf36  1  0.30856119  0.09542427  0.88218865  1
  Hf  Hf37  1  0.29206237  0.91794697  0.37047280  1
  Hf  Hf38  1  0.49000434  0.49585264  0.12932910  1
  Hf  Hf39  1  0.49980269  0.29634142  0.61832079  1
  Zr  Zr40  1  0.29397255  0.49457537  0.12522744  1
  Zr  Zr41  1  -0.00669997  0.20000696  0.00631389  1
  Zr  Zr42  1  -0.01009758  0.61967354  -0.00306909  1
  Zr  Zr43  1  0.90312415  0.49862349  0.37754265  1
  Zr  Zr44  1  0.81567149  0.00130204  0.00393728  1
  Zr  Zr45  1  0.40648038  0.01250321  0.74313673  1
  Zr  Zr46  1  0.09443980  0.09723523  0.13530133  1
  Zr  Zr47  1  0.39861996  -0.02145097  0.00724063  1
  Zr  Zr48  1  0.09759618  0.50985330  0.11200385  1
  Zr  Zr49  1  0.48777238  0.70166302  0.85976331  1
  Zr  Zr50  1  0.70425925  0.30188565  0.61870703  1
  Zr  Zr51  1  0.87580604  0.49358022  0.87506516  1
  Zr  Zr52  1  0.69364270  0.49400492  0.37889358  1
  Zr  Zr53  1  0.68429706  0.68643942  0.86816379  1
  Zr  Zr54  1  0.89636329  0.09084814  0.61245152  1
  Zr  Zr55  1  0.50396414  0.29984022  0.89076227  1
  Zr  Zr56  1  0.38821516  0.59230150  0.49740672  1
  Zr  Zr57  1  0.21500372  0.19994859  0.75199782  1
  Zr  Zr58  1  0.89175124  0.49467737  0.62464531  1
  Zr  Zr59  1  0.59132572  0.38018039  0.25812798  1
  Zr  Zr60  1  0.09329297  0.10309580  0.87734161  1
  Zr  Zr61  1  0.40070767  0.79584491  0.48200039  1
  Zr  Zr62  1  0.12314665  0.10117047  0.36295145  1
  Zr  Zr63  1  0.30334626  0.30859650  0.37202585  1
  Zr  Zr64  1  0.10959277  0.30242688  0.63422767  1
  Zr  Zr65  1  -0.00699654  0.82037397  0.75553558  1
  Zr  Zr66  1  0.09570926  0.90612600  0.61550496  1
  Zr  Zr67  1  0.78080737  0.58900733  0.00815149  1
  Zr  Zr68  1  0.79626434  0.20759640  0.25960504  1
  Zr  Zr69  1  0.70662971  0.89033603  0.87576154  1
  Zr  Zr70  1  0.19130024  0.79731683  0.26337863  1
  Zr  Zr71  1  0.01977956  0.19941147  0.49454922  1
  Zr  Zr72  1  0.71230803  0.70820816  0.62945693  1
  Zr  Zr73  1  0.10763675  0.90161481  0.13411397  1
  Zr  Zr74  1  0.30779235  0.08784701  0.13260530  1
  Zr  Zr75  1  0.11132022  0.71706448  0.86213536  1
  Zr  Zr76  1  0.20939298  0.21580266  0.23850980  1
  Zr  Zr77  1  0.00548919  0.40671826  0.75731680  1
  Zr  Zr78  1  0.10360908  0.50995852  0.87980201  1
  Zr  Zr79  1  -0.00811580  0.01609199  0.74741840  1
  Ta  Ta80  1  0.10382657  0.49768562  0.37094526  1
  Ta  Ta81  1  0.89902314  0.09980204  0.13991671  1
  Ta  Ta82  1  0.18890462  -0.01108270  -0.00340754  1
  Ta  Ta83  1  0.59021994  0.19934259  0.48297104  1
  Ta  Ta84  1  0.70204574  0.89711375  0.36001128  1
  Ta  Ta85  1  0.28441660  0.68739173  0.63922628  1
  Ta  Ta86  1  0.58396233  0.80995088  0.24949507  1
  Ta  Ta87  1  0.68852875  0.70068282  0.35876573  1
  Ta  Ta88  1  0.41363717  0.00671930  0.48809895  1
  Ta  Ta89  1  0.30074109  0.69474161  0.85816399  1
  Ta  Ta90  1  -0.00617974  -0.01306625  0.48466568  1
  Ta  Ta91  1  0.69331094  0.49447208  0.14094111  1
  Ta  Ta92  1  0.59195669  0.19677933  0.75075282  1
  Ta  Ta93  1  0.00331864  0.60060516  0.24543347  1
  Ta  Ta94  1  0.22767604  0.40846787  0.75632057  1
  Ta  Ta95  1  0.21252064  0.80071885  0.00288941  1
  Ta  Ta96  1  0.60152692  -0.00831956  0.49554905  1
  Ta  Ta97  1  0.69677355  0.08936349  0.37935922  1
  Ta  Ta98  1  0.80116222  0.39607119  0.25046829  1
  Ta  Ta99  1  0.79668396  0.81606283  0.48815567  1
  Ta  Ta100  1  0.61783150  0.40879789  0.00637430  1
  Ta  Ta101  1  0.51001534  0.29303817  0.11253778  1
  Ta  Ta102  1  0.69090656  0.69590236  0.14869402  1
  Ta  Ta103  1  0.40314530  0.61742882  0.00346759  1
  Ta  Ta104  1  0.58553285  0.59382705  0.49907912  1
  Ta  Ta105  1  0.29163216  0.88531821  0.86955228  1
  Ta  Ta106  1  0.69151406  0.49172081  0.60367494  1
  Ta  Ta107  1  0.10082055  0.31087396  0.36995089  1
  Ta  Ta108  1  0.10067545  0.31559543  0.12442143  1
  Ta  Ta109  1  0.42335699  -0.00779230  0.26032551  1
  Ta  Ta110  1  -0.00917147  0.61070190  0.74602152  1
  Ta  Ta111  1  0.19905150  0.60267194  0.49592716  1
  Ta  Ta112  1  0.70368896  0.29973436  0.11976578  1
  Ta  Ta113  1  0.00333157  0.40086396  0.24730098  1
  Ta  Ta114  1  0.09693608  0.70673898  0.63617984  1
  Ta  Ta115  1  0.80017233  0.00049504  0.25299367  1
  Ta  Ta116  1  0.88441168  0.88997068  0.61999784  1
  Ta  Ta117  1  0.11206350  0.30434439  0.87298041  1
  Ta  Ta118  1  0.50454969  0.10746539  0.87990671  1
  Ta  Ta119  1  0.31386745  0.29898920  0.88329884  1
  Ti  Ti120  1  0.20466182  0.61422046  -0.00125958  1
  Ti  Ti121  1  0.31653597  0.30954031  0.12242856  1
  Ti  Ti122  1  0.79014990  0.58530234  0.74322128  1
  Ti  Ti123  1  0.41239232  0.40226949  0.49952456  1
  Ti  Ti124  1  0.01030346  -0.00837555  0.26773501  1
  Ti  Ti125  1  0.48671947  0.49227146  0.36637293  1
  Ti  Ti126  1  0.79390126  0.18680600  0.74921628  1
  Ti  Ti127  1  0.69839938  0.10790777  0.87781801  1
  Ti  Ti128  1  -0.00104511  0.39766930  0.50224562  1
  Ti  Ti129  1  0.39196061  0.19709123  0.48578951  1
  Ti  Ti130  1  0.10127247  0.11199088  0.62605938  1
  Ti  Ti131  1  0.51377879  0.09171410  0.12931180  1
  Ti  Ti132  1  0.31049509  0.30589354  0.62527099  1
  Ti  Ti133  1  0.59552918  0.60320862  0.01673996  1
  Ti  Ti134  1  0.60565348  0.19080439  0.26630076  1
  Ti  Ti135  1  -0.00506623  0.39602437  -0.00808251  1
  Ti  Ti136  1  0.38995720  0.56749922  0.73726207  1
  Ti  Ti137  1  0.89989192  0.29838400  0.12608141  1
  Ti  Ti138  1  0.79494498  0.20124314  0.00513485  1
  Ti  Ti139  1  0.09353123  0.70822820  0.12428280  1
  Ti  Ti140  1  0.59683170  0.80963101  0.73737733  1
  Ti  Ti141  1  0.39458229  0.80698190  0.74042066  1
  Ti  Ti142  1  0.00009440  0.20972742  0.24982240  1
  Ti  Ti143  1  0.69934219  0.90582222  0.62156387  1
  Ti  Ti144  1  -0.00200392  0.80025509  0.26228759  1
  Ti  Ti145  1  0.80067788  -0.01264169  0.75406586  1
  Ti  Ti146  1  0.20306169  0.39499787  -0.00357107  1
  Ti  Ti147  1  0.49962711  0.09800339  0.61614271  1
  Ti  Ti148  1  0.79729040  0.59303990  0.24695686  1
  Ti  Ti149  1  0.29465601  0.49998388  0.35804645  1
  Ti  Ti150  1  0.09602573  0.68960986  0.37231190  1
  Ti  Ti151  1  0.89731614  0.70093832  0.13973110  1
  Ti  Ti152  1  0.30680990  0.89431513  0.14032649  1
  Ti  Ti153  1  0.90463243  0.30984538  0.37541960  1
  Ti  Ti154  1  0.19575530  0.59794754  0.25161928  1
  Ti  Ti155  1  0.41088116  0.19274360  0.01046141  1
  Ti  Ti156  1  0.70138423  0.10866561  0.13027208  1
  Ti  Ti157  1  0.31078329  0.11747167  0.62143819  1
  Ti  Ti158  1  0.89290321  0.09536886  0.87494103  1
  Ti  Ti159  1  0.57719350  0.60411563  0.25344232  1
  Mo  Mo160  1  0.50237664  0.30414007  0.38646317  1
  Mo  Mo161  1  0.49913894  0.49153000  0.61715519  1
  Mo  Mo162  1  0.28862849  0.68248242  0.37096248  1
  Mo  Mo163  1  0.10912387  0.91092893  0.87514564  1
  Mo  Mo164  1  0.38537816  0.79085924  0.00089353  1
  Mo  Mo165  1  0.50851981  0.90648969  0.62136330  1
  Mo  Mo166  1  0.18998448  0.40675002  0.24735580  1
  Mo  Mo167  1  0.40530097  0.38566889  0.75058788  1
  Mo  Mo168  1  0.70526911  0.29853188  0.38175360  1
  Mo  Mo169  1  0.21196901  0.20784286  0.50648620  1
  Mo  Mo170  1  0.79299855  0.79433227  0.24180464  1
  Mo  Mo171  1  0.51242771  0.90019860  0.37574208  1
  Mo  Mo172  1  0.89586238  0.89911536  0.36125465  1
  Mo  Mo173  1  0.79659768  -0.00758949  0.49022254  1
  Mo  Mo174  1  0.50214097  0.09873433  0.37894936  1
  Mo  Mo175  1  0.89760807  0.91088197  0.87441690  1
  Mo  Mo176  1  0.90226568  0.70437405  0.63320841  1
  Mo  Mo177  1  -0.00064005  0.19849525  0.75181289  1
  Mo  Mo178  1  0.20614975  0.80363360  0.74071760  1
  Mo  Mo179  1  0.79087603  0.40251195  0.74750678  1
  Mo  Mo180  1  0.50682267  0.68454399  0.37698040  1
  Mo  Mo181  1  0.80629863  0.39918288  0.49457131  1
  Mo  Mo182  1  -0.00302067  0.00811918  0.00199772  1
  Mo  Mo183  1  0.80555660  0.38731771  0.01013607  1
  Mo  Mo184  1  0.39467736  0.59123216  0.25992109  1
  Mo  Mo185  1  0.69335002  0.49823919  0.87549499  1
  Mo  Mo186  1  0.49629865  0.69652030  0.13365458  1
  Mo  Mo187  1  0.79083850  0.80647021  0.74425562  1
  Mo  Mo188  1  0.31237587  0.10543257  0.37076507  1
  Mo  Mo189  1  0.40949580  0.20767476  0.75009369  1
  Mo  Mo190  1  0.40204774  0.39552240  0.00803146  1
  Mo  Mo191  1  0.39599673  0.39407064  0.24742513  1
  Mo  Mo192  1  0.59614536  0.39800721  0.48922643  1
  Mo  Mo193  1  0.60286680  0.01099536  0.24872356  1
  Mo  Mo194  1  0.48786260  0.90071781  0.13247124  1
  Mo  Mo195  1  0.21291711  0.00148468  0.25149613  1
  Mo  Mo196  1  0.20092003  0.59676926  0.75406418  1
  Mo  Mo197  1  0.09274406  0.90084940  0.38022531  1
  Mo  Mo198  1  0.30736161  0.49156159  0.62385422  1
  Mo  Mo199  1  0.60733797  0.19536630  0.00655628  1
