# generated using pymatgen
data_HfZrTaTiMo
_symmetry_space_group_name_H-M   'P 1'
_cell_length_a   15.21963695
_cell_length_b   15.22443741
_cell_length_c   16.82528795
_cell_angle_alpha   90.03487747
_cell_angle_beta   90.00082569
_cell_angle_gamma   90.00099400
_symmetry_Int_Tables_number   1
_chemical_formula_structural   HfZrTaTiMo
_chemical_formula_sum   'Hf40 Zr40 Ta40 Ti40 Mo40'
_cell_volume   3898.59364649
_cell_formula_units_Z   40
loop_
 _symmetry_equiv_pos_site_id
 _symmetry_equiv_pos_as_xyz
  1  'x, y, z'
loop_
 _atom_site_type_symbol
 _atom_site_label
 _atom_site_symmetry_multiplicity
 _atom_site_fract_x
 _atom_site_fract_y
 _atom_site_fract_z
 _atom_site_occupancy
  Hf  Hf0  1  0.19694722  0.21010058  0.73557076  1
  Hf  Hf1  1  -0.00146887  0.21277444  0.75450863  1
  Hf  Hf2  1  0.60636241  0.01199383  0.49905031  1
  Hf  Hf3  1  0.30796798  0.10391782  0.62093478  1
  Hf  Hf4  1  0.28106126  0.29827332  0.88821554  1
  Hf  Hf5  1  0.30545466  0.88800194  0.37350322  1
  Hf  Hf6  1  0.10846318  0.69160194  0.13525426  1
  Hf  Hf7  1  0.10187930  0.29633835  0.12086504  1
  Hf  Hf8  1  0.20435795  0.59877579  0.76415362  1
  Hf  Hf9  1  0.01528181  0.60706459  -0.01748474  1
  Hf  Hf10  1  0.69872341  0.69895421  0.62439661  1
  Hf  Hf11  1  0.09537884  0.90303133  0.87025530  1
  Hf  Hf12  1  0.88676745  0.89965507  0.88571684  1
  Hf  Hf13  1  0.09145024  0.31631065  0.38633334  1
  Hf  Hf14  1  0.89960339  0.29400043  0.38798816  1
  Hf  Hf15  1  0.89401403  0.31645433  0.11870238  1
  Hf  Hf16  1  0.09813296  0.49674741  0.11878990  1
  Hf  Hf17  1  0.50390815  0.10189708  0.63179239  1
  Hf  Hf18  1  0.41065563  0.38435145  0.24139645  1
  Hf  Hf19  1  0.29452198  0.49668556  0.10852451  1
  Hf  Hf20  1  0.20132366  0.20555953  0.50125848  1
  Hf  Hf21  1  0.41277629  0.79813521  0.24136150  1
  Hf  Hf22  1  0.09055657  0.08839055  0.11126157  1
  Hf  Hf23  1  0.01436593  0.80837382  0.00503296  1
  Hf  Hf24  1  0.48959717  0.07822351  0.12717746  1
  Hf  Hf25  1  0.19974187  -0.00310163  0.74122320  1
  Hf  Hf26  1  -0.00095121  0.40145076  -0.02071676  1
  Hf  Hf27  1  0.60281109  0.60059939  0.75858062  1
  Hf  Hf28  1  0.40569958  -0.00504820  0.49088890  1
  Hf  Hf29  1  0.79370639  0.01181924  0.23585685  1
  Hf  Hf30  1  0.88716229  0.11592852  0.10987980  1
  Hf  Hf31  1  0.90825589  0.90408900  0.37882034  1
  Hf  Hf32  1  0.19594812  -0.00506803  0.50536208  1
  Hf  Hf33  1  0.30531873  0.50189765  0.89606131  1
  Hf  Hf34  1  0.07359217  0.10278326  0.39066244  1
  Hf  Hf35  1  0.89772978  0.69402729  0.11880363  1
  Hf  Hf36  1  0.69710565  0.30798927  0.38256089  1
  Hf  Hf37  1  0.42187071  0.81714412  0.00630490  1
  Hf  Hf38  1  0.59652903  0.59699591  0.49313783  1
  Hf  Hf39  1  0.50094190  0.28841276  0.38700854  1
  Zr  Zr40  1  0.60771970  0.78896506  0.26550744  1
  Zr  Zr41  1  0.40988396  0.61839362  0.00466749  1
  Zr  Zr42  1  0.69656336  0.49675406  0.62935895  1
  Zr  Zr43  1  0.89955976  0.09461032  0.87979175  1
  Zr  Zr44  1  0.31296423  0.69026053  0.62882171  1
  Zr  Zr45  1  -0.01420133  0.20197271  0.25027446  1
  Zr  Zr46  1  0.90300065  0.91137541  0.10936752  1
  Zr  Zr47  1  0.59478522  0.80150385  0.48730247  1
  Zr  Zr48  1  0.77096154  0.00414015  0.00317377  1
  Zr  Zr49  1  0.51493410  0.49350434  0.11533076  1
  Zr  Zr50  1  0.19701366  0.00340320  0.25626860  1
  Zr  Zr51  1  0.68306389  0.09844192  0.86259828  1
  Zr  Zr52  1  0.78401099  0.18990706  0.50624659  1
  Zr  Zr53  1  0.71754779  0.50215636  0.12162617  1
  Zr  Zr54  1  0.79983481  0.60674181  0.26266878  1
  Zr  Zr55  1  0.20936144  -0.00727594  -0.00335251  1
  Zr  Zr56  1  0.79955284  0.40351255  0.75737196  1
  Zr  Zr57  1  0.50977634  0.48899656  0.88544758  1
  Zr  Zr58  1  0.30662115  0.50039773  0.37578256  1
  Zr  Zr59  1  0.39463725  0.17781997  -0.01177553  1
  Zr  Zr60  1  0.40085675  0.20954323  0.76235995  1
  Zr  Zr61  1  0.09518877  0.69919573  0.36431333  1
  Zr  Zr62  1  0.20609485  0.79315825  0.50192706  1
  Zr  Zr63  1  0.70846553  0.91223712  0.37461063  1
  Zr  Zr64  1  0.49455513  0.30170723  0.61576955  1
  Zr  Zr65  1  0.21538442  0.78132957  -0.00817939  1
  Zr  Zr66  1  0.19818723  0.40799279  0.25298454  1
  Zr  Zr67  1  0.11335406  0.11042707  0.87901911  1
  Zr  Zr68  1  0.19880020  0.20127189  0.26539259  1
  Zr  Zr69  1  0.09629848  0.89618111  0.37362516  1
  Zr  Zr70  1  0.90252688  0.68628785  0.62327946  1
  Zr  Zr71  1  0.40891292  0.59362610  0.23660961  1
  Zr  Zr72  1  0.80944267  0.80301019  0.24748032  1
  Zr  Zr73  1  0.10908559  0.69915288  0.63239345  1
  Zr  Zr74  1  0.89732919  0.10712619  0.62237047  1
  Zr  Zr75  1  0.00136428  0.40807349  0.75586063  1
  Zr  Zr76  1  0.79401130  0.20949596  0.75356798  1
  Zr  Zr77  1  0.48801269  0.50095031  0.63118188  1
  Zr  Zr78  1  0.67608508  0.11426608  0.35740826  1
  Zr  Zr79  1  -0.00040753  0.80446984  0.74395771  1
  Ta  Ta80  1  0.49978435  0.89373886  0.62647126  1
  Ta  Ta81  1  0.67107139  0.89860727  0.12836815  1
  Ta  Ta82  1  0.09592902  0.50787435  0.38907082  1
  Ta  Ta83  1  0.79685258  0.80210015  0.74728497  1
  Ta  Ta84  1  0.00137821  0.80151376  0.51344391  1
  Ta  Ta85  1  0.40692709  0.79956655  0.75449419  1
  Ta  Ta86  1  0.51326891  0.27964880  0.12150854  1
  Ta  Ta87  1  0.80389909  0.40763812  -0.01996902  1
  Ta  Ta88  1  0.09862791  0.50437844  0.61654587  1
  Ta  Ta89  1  0.40366364  0.60365656  0.76641876  1
  Ta  Ta90  1  0.90840940  0.49507034  0.38897590  1
  Ta  Ta91  1  -0.00367333  0.20810734  -0.01272631  1
  Ta  Ta92  1  0.61699468  0.61526928  -0.00139870  1
  Ta  Ta93  1  0.49031773  0.68590158  0.37445418  1
  Ta  Ta94  1  0.70328666  0.49858792  0.37795870  1
  Ta  Ta95  1  0.57497024  -0.01544780  -0.01003348  1
  Ta  Ta96  1  0.61615797  0.39077866  0.24599794  1
  Ta  Ta97  1  -0.00696665  0.00097576  0.24535715  1
  Ta  Ta98  1  0.39565776  0.19037150  0.25626730  1
  Ta  Ta99  1  0.29381255  0.10197970  0.12824193  1
  Ta  Ta100  1  0.78008525  0.21960261  0.24224933  1
  Ta  Ta101  1  -0.00279644  0.00093126  0.73537292  1
  Ta  Ta102  1  0.60299483  0.80426432  0.75002192  1
  Ta  Ta103  1  0.67586090  0.11702275  0.12772415  1
  Ta  Ta104  1  0.30635969  0.89192672  0.62638619  1
  Ta  Ta105  1  0.30750928  0.90949734  0.12941395  1
  Ta  Ta106  1  0.70747267  0.71072246  0.87310400  1
  Ta  Ta107  1  0.61557607  0.38283856  -0.00219123  1
  Ta  Ta108  1  0.81556924  0.40578370  0.25619481  1
  Ta  Ta109  1  0.20036215  0.40006231  0.74243319  1
  Ta  Ta110  1  0.81094689  0.60345254  0.76003686  1
  Ta  Ta111  1  0.79941665  0.40192427  0.51052627  1
  Ta  Ta112  1  0.79938200  -0.01134455  0.74540291  1
  Ta  Ta113  1  0.30246558  0.29067420  0.11575002  1
  Ta  Ta114  1  0.40394067  -0.00049762  0.26705628  1
  Ta  Ta115  1  0.78072715  0.22020657  -0.01104436  1
  Ta  Ta116  1  0.69278773  0.09665480  0.64032652  1
  Ta  Ta117  1  0.90209695  0.70734470  0.87740009  1
  Ta  Ta118  1  0.80393041  0.80094145  0.49944046  1
  Ta  Ta119  1  0.70254196  0.90227316  0.62009147  1
  Ti  Ti120  1  0.59667325  -0.01235840  0.75129187  1
  Ti  Ti121  1  0.50050910  0.69977131  0.62822959  1
  Ti  Ti122  1  0.59200375  0.19295516  -0.01144648  1
  Ti  Ti123  1  0.50799567  0.71182501  0.87735910  1
  Ti  Ti124  1  0.50524966  0.48691922  0.37177936  1
  Ti  Ti125  1  0.00523689  0.80983144  0.23485101  1
  Ti  Ti126  1  0.11812209  0.49131110  0.88136343  1
  Ti  Ti127  1  0.39877114  0.59309725  0.49764239  1
  Ti  Ti128  1  0.29934216  0.49826549  0.62584222  1
  Ti  Ti129  1  0.70344321  0.50585294  0.87707331  1
  Ti  Ti130  1  0.00055899  0.58297508  0.25437766  1
  Ti  Ti131  1  0.08386674  0.30763690  0.61025607  1
  Ti  Ti132  1  0.30562694  0.31212475  0.61499697  1
  Ti  Ti133  1  0.80939594  0.60191373  -0.01185119  1
  Ti  Ti134  1  0.39222398  0.40385731  0.76085310  1
  Ti  Ti135  1  0.90884244  0.50438575  0.12172601  1
  Ti  Ti136  1  0.41315600  0.38102747  0.00357769  1
  Ti  Ti137  1  0.20485002  0.80044835  0.24214660  1
  Ti  Ti138  1  0.29523472  0.68880879  0.36079068  1
  Ti  Ti139  1  0.90584706  0.69735121  0.38491862  1
  Ti  Ti140  1  0.00623616  0.59922083  0.76741286  1
  Ti  Ti141  1  0.90645462  0.49703097  0.61707973  1
  Ti  Ti142  1  0.30756935  0.29937248  0.38673556  1
  Ti  Ti143  1  0.20017725  0.60088209  0.50002660  1
  Ti  Ti144  1  0.48632456  0.08655791  0.86460376  1
  Ti  Ti145  1  0.80142892  0.59955426  0.49382561  1
  Ti  Ti146  1  0.31613474  0.90419544  0.87155211  1
  Ti  Ti147  1  0.21104095  0.79952676  0.75928492  1
  Ti  Ti148  1  0.59786809  0.40100700  0.50303049  1
  Ti  Ti149  1  0.09524217  0.10438958  0.61747526  1
  Ti  Ti150  1  0.40496078  0.78928987  0.49614067  1
  Ti  Ti151  1  0.59280022  0.37913760  0.76061215  1
  Ti  Ti152  1  0.78101162  0.79504941  0.00599425  1
  Ti  Ti153  1  0.60528880  0.59724841  0.25400788  1
  Ti  Ti154  1  0.39848788  -0.00708735  0.74661253  1
  Ti  Ti155  1  0.30247869  0.69702466  0.12946178  1
  Ti  Ti156  1  -0.01046740  -0.00856021  0.51950666  1
  Ti  Ti157  1  0.69054442  0.29208069  0.62367984  1
  Ti  Ti158  1  0.88011139  0.09323729  0.38383052  1
  Ti  Ti159  1  0.20363827  0.40928753  0.50544915  1
  Mo  Mo160  1  0.58375267  0.20773785  0.24515812  1
  Mo  Mo161  1  0.19783702  0.19912147  0.00702918  1
  Mo  Mo162  1  0.59623151  0.19870478  0.75254476  1
  Mo  Mo163  1  -0.00292773  0.40557498  0.51065341  1
  Mo  Mo164  1  0.10935596  0.89776659  0.13426740  1
  Mo  Mo165  1  -0.00737583  0.40992132  0.25396009  1
  Mo  Mo166  1  0.29749651  0.08977952  0.86149125  1
  Mo  Mo167  1  0.10204721  0.30476166  0.87390987  1
  Mo  Mo168  1  0.39399291  -0.00478695  -0.00451467  1
  Mo  Mo169  1  0.49868974  0.29570851  0.88045165  1
  Mo  Mo170  1  0.58805571  -0.00354825  0.25125504  1
  Mo  Mo171  1  0.49830812  0.89906344  0.13230008  1
  Mo  Mo172  1  0.60883465  0.80367633  -0.00550003  1
  Mo  Mo173  1  0.59552631  0.20093897  0.50864489  1
  Mo  Mo174  1  0.10185239  0.90623561  0.62830316  1
  Mo  Mo175  1  0.31540899  0.70777320  0.86879247  1
  Mo  Mo176  1  0.39536060  0.19561125  0.49518848  1
  Mo  Mo177  1  0.80119657  -0.00816492  0.50927489  1
  Mo  Mo178  1  0.39383638  0.40586696  0.49740669  1
  Mo  Mo179  1  0.20162264  0.60365545  0.25022750  1
  Mo  Mo180  1  0.89487508  0.89700546  0.62155545  1
  Mo  Mo181  1  0.30106251  0.10685747  0.38472269  1
  Mo  Mo182  1  0.68567070  0.30854337  0.87297279  1
  Mo  Mo183  1  0.20320183  0.60374712  -0.00945574  1
  Mo  Mo184  1  -0.00304160  0.19918009  0.50434616  1
  Mo  Mo185  1  0.89744175  0.30959662  0.61350827  1
  Mo  Mo186  1  0.70127739  0.69901732  0.12148373  1
  Mo  Mo187  1  0.10713604  0.70180346  0.86407865  1
  Mo  Mo188  1  0.49010868  0.09819604  0.37400458  1
  Mo  Mo189  1  0.00001812  0.60439476  0.49841326  1
  Mo  Mo190  1  0.70174737  0.30329594  0.12102465  1
  Mo  Mo191  1  0.53276599  0.70603397  0.12400121  1
  Mo  Mo192  1  0.69646689  0.89540677  0.86979930  1
  Mo  Mo193  1  0.50031970  0.89438685  0.37769861  1
  Mo  Mo194  1  0.89965152  0.51379115  0.87250016  1
  Mo  Mo195  1  0.70881685  0.69074404  0.38670533  1
  Mo  Mo196  1  0.50322947  0.90181423  0.86203925  1
  Mo  Mo197  1  0.20146749  0.39580962  0.00567426  1
  Mo  Mo198  1  0.89586063  0.29971328  0.87942441  1
  Mo  Mo199  1  -0.00374336  0.00360466  -0.00127436  1
