# generated using pymatgen
data_HfZrTaTiMo
_symmetry_space_group_name_H-M   'P 1'
_cell_length_a   15.21851951
_cell_length_b   15.22536046
_cell_length_c   16.86323729
_cell_angle_alpha   89.96778578
_cell_angle_beta   89.96183909
_cell_angle_gamma   89.90426204
_symmetry_Int_Tables_number   1
_chemical_formula_structural   HfZrTaTiMo
_chemical_formula_sum   'Hf40 Zr40 Ta40 Ti40 Mo40'
_cell_volume   3907.33069456
_cell_formula_units_Z   40
loop_
 _symmetry_equiv_pos_site_id
 _symmetry_equiv_pos_as_xyz
  1  'x, y, z'
loop_
 _atom_site_type_symbol
 _atom_site_label
 _atom_site_symmetry_multiplicity
 _atom_site_fract_x
 _atom_site_fract_y
 _atom_site_fract_z
 _atom_site_occupancy
  Hf  Hf0  1  0.80229026  0.60095155  0.73960240  1
  Hf  Hf1  1  0.18231931  0.78915431  0.49874473  1
  Hf  Hf2  1  0.02089762  -0.00781214  0.25486771  1
  Hf  Hf3  1  0.28971903  0.90914679  0.37192350  1
  Hf  Hf4  1  0.09380683  0.49395854  0.86893656  1
  Hf  Hf5  1  0.01605292  0.38220534  0.50393921  1
  Hf  Hf6  1  0.19472678  0.60419239  0.00792246  1
  Hf  Hf7  1  0.10461831  0.49241204  0.37441949  1
  Hf  Hf8  1  0.29534841  0.09912850  0.62724195  1
  Hf  Hf9  1  0.39767251  0.61193192  0.00356237  1
  Hf  Hf10  1  0.29273629  0.30254109  0.62816457  1
  Hf  Hf11  1  -0.00255883  0.78059894  0.27036994  1
  Hf  Hf12  1  0.80518026  -0.00117603  0.22834257  1
  Hf  Hf13  1  0.50810642  0.30034335  0.09863636  1
  Hf  Hf14  1  0.52016126  0.70496570  0.61369520  1
  Hf  Hf15  1  0.90111550  0.50636904  0.38655900  1
  Hf  Hf16  1  0.60781682  0.60897593  0.75991696  1
  Hf  Hf17  1  0.68820187  0.89173849  0.61657761  1
  Hf  Hf18  1  0.69875464  0.49885028  0.38256541  1
  Hf  Hf19  1  0.01440240  0.61829728  0.50363030  1
  Hf  Hf20  1  0.79324116  0.19825100  0.50702812  1
  Hf  Hf21  1  0.79312396  0.79957324  0.01017571  1
  Hf  Hf22  1  0.60347771  0.61256931  -0.00584695  1
  Hf  Hf23  1  0.18090622  0.01135923  0.00564148  1
  Hf  Hf24  1  -0.01148628  0.39572345  0.23914262  1
  Hf  Hf25  1  0.89586449  0.48841404  0.86292674  1
  Hf  Hf26  1  0.69229000  0.89981876  0.37540191  1
  Hf  Hf27  1  0.92274486  0.71563166  0.63691127  1
  Hf  Hf28  1  0.79463181  0.60787461  0.51648767  1
  Hf  Hf29  1  0.68092195  0.89784322  0.88282609  1
  Hf  Hf30  1  0.58930430  0.00748800  0.50263076  1
  Hf  Hf31  1  0.39724344  0.41404121  -0.01055718  1
  Hf  Hf32  1  0.21264102  0.80190406  0.74550069  1
  Hf  Hf33  1  0.20431006  0.39307441  0.75768861  1
  Hf  Hf34  1  0.20897881  0.81010308  -0.00077112  1
  Hf  Hf35  1  0.18541915  0.00741165  0.50293008  1
  Hf  Hf36  1  0.41645414  0.22103578  0.24459683  1
  Hf  Hf37  1  0.40253867  0.61936048  0.75022605  1
  Hf  Hf38  1  0.30823661  0.50085853  0.62781110  1
  Hf  Hf39  1  0.30278084  0.31455151  0.37075426  1
  Zr  Zr40  1  0.30201976  0.71297581  0.13688112  1
  Zr  Zr41  1  0.91972429  0.10070440  0.10917571  1
  Zr  Zr42  1  0.90895890  0.28204777  0.88717295  1
  Zr  Zr43  1  -0.00599388  0.40372620  0.01325209  1
  Zr  Zr44  1  0.60840374  0.41700690  -0.01881783  1
  Zr  Zr45  1  0.19416451  0.18736071  0.25971700  1
  Zr  Zr46  1  0.58887420  0.40133023  0.50790051  1
  Zr  Zr47  1  0.68944104  0.49842227  0.62656215  1
  Zr  Zr48  1  0.00647475  0.80043935  -0.00731450  1
  Zr  Zr49  1  0.38995977  0.19175725  0.76659335  1
  Zr  Zr50  1  0.78867400  0.00335981  0.74992570  1
  Zr  Zr51  1  0.52025996  0.11568681  0.35725629  1
  Zr  Zr52  1  0.40492463  0.80764035  0.48777077  1
  Zr  Zr53  1  -0.00766473  0.17679510  0.47928560  1
  Zr  Zr54  1  0.50165004  0.73407534  0.87876339  1
  Zr  Zr55  1  0.19559282  0.40518050  0.00897827  1
  Zr  Zr56  1  0.91197218  0.48943602  0.62951852  1
  Zr  Zr57  1  0.19025813  0.39542156  0.23395837  1
  Zr  Zr58  1  0.61080014  0.18953041  0.76619819  1
  Zr  Zr59  1  0.88423289  0.30048371  0.37459714  1
  Zr  Zr60  1  0.71485668  0.09827319  0.36208603  1
  Zr  Zr61  1  0.41515870  0.59652267  0.49223652  1
  Zr  Zr62  1  0.50108980  0.29982728  0.64717483  1
  Zr  Zr63  1  0.18558784  0.21949385  0.49047592  1
  Zr  Zr64  1  0.41287420  0.19887314  0.50213026  1
  Zr  Zr65  1  0.67362592  0.29516704  0.36946861  1
  Zr  Zr66  1  0.78526419  0.39674871  0.24068692  1
  Zr  Zr67  1  0.08646506  0.89089771  0.62664625  1
  Zr  Zr68  1  0.90005683  0.69619566  0.86526551  1
  Zr  Zr69  1  0.30250929  0.50456133  0.36477973  1
  Zr  Zr70  1  0.80034500  0.79997524  0.24281613  1
  Zr  Zr71  1  0.81254572  0.80365788  0.50206762  1
  Zr  Zr72  1  0.39185070  0.00092142  -0.00022915  1
  Zr  Zr73  1  0.70060344  0.69514586  0.12775447  1
  Zr  Zr74  1  0.41506168  0.60627300  0.25602375  1
  Zr  Zr75  1  0.30259801  0.29662364  0.11524641  1
  Zr  Zr76  1  0.89354441  0.91585154  0.87950328  1
  Zr  Zr77  1  0.31232292  0.09904233  0.37981910  1
  Zr  Zr78  1  0.49790233  0.91413727  0.36077547  1
  Zr  Zr79  1  0.10248796  0.69492220  0.86435458  1
  Ta  Ta80  1  0.50794249  0.10464176  0.12222365  1
  Ta  Ta81  1  0.10648416  0.28355291  0.88806587  1
  Ta  Ta82  1  0.89479511  0.90857129  0.37247029  1
  Ta  Ta83  1  0.29298471  0.91197167  0.13829841  1
  Ta  Ta84  1  0.09354592  0.71197360  0.12801495  1
  Ta  Ta85  1  0.90951042  0.68237986  0.12289237  1
  Ta  Ta86  1  0.70123243  0.49426522  0.12343240  1
  Ta  Ta87  1  0.30332162  0.70639765  0.87497447  1
  Ta  Ta88  1  0.30036077  0.90362635  0.61945327  1
  Ta  Ta89  1  0.50254183  0.29447624  0.88238015  1
  Ta  Ta90  1  0.49905018  0.90248856  0.13749062  1
  Ta  Ta91  1  0.00870098  0.37275055  0.74606019  1
  Ta  Ta92  1  0.30542126  0.70616121  0.61978874  1
  Ta  Ta93  1  0.39516860  0.39798253  0.50207671  1
  Ta  Ta94  1  0.19002533  0.00559627  0.74634091  1
  Ta  Ta95  1  0.29234773  0.70348835  0.36921152  1
  Ta  Ta96  1  0.91113891  0.27556711  0.63004190  1
  Ta  Ta97  1  0.70566278  0.69729785  0.37304728  1
  Ta  Ta98  1  0.71256198  0.29659984  0.88807916  1
  Ta  Ta99  1  0.81214420  0.19283230  0.75457680  1
  Ta  Ta100  1  0.70059484  0.10279666  0.10801699  1
  Ta  Ta101  1  0.10415070  0.91108754  0.86620825  1
  Ta  Ta102  1  0.80220100  0.58317407  -0.00325873  1
  Ta  Ta103  1  0.60205206  0.20243307  0.51297034  1
  Ta  Ta104  1  0.07270445  0.10548984  0.63208624  1
  Ta  Ta105  1  -0.00300001  0.19379039  0.26320953  1
  Ta  Ta106  1  0.40499996  0.40488823  0.77025813  1
  Ta  Ta107  1  0.18667452  0.81341068  0.25721690  1
  Ta  Ta108  1  0.18548970  0.61325930  0.24803666  1
  Ta  Ta109  1  0.69937992  0.29302143  0.10014020  1
  Ta  Ta110  1  0.81495093  0.59747609  0.25265486  1
  Ta  Ta111  1  0.61179846  0.59196528  0.25070958  1
  Ta  Ta112  1  0.50512853  0.70840185  0.12928406  1
  Ta  Ta113  1  0.60752077  0.40229668  0.77245459  1
  Ta  Ta114  1  0.80441415  0.00737667  0.50312262  1
  Ta  Ta115  1  0.29581214  0.51341559  0.87106648  1
  Ta  Ta116  1  0.30323716  0.50712160  0.13739240  1
  Ta  Ta117  1  0.20174899  0.59953901  0.74196010  1
  Ta  Ta118  1  0.09132777  0.26782359  0.11532687  1
  Ta  Ta119  1  0.48786193  0.90387416  0.62311974  1
  Ti  Ti120  1  0.59299765  0.80751461  0.74692113  1
  Ti  Ti121  1  0.89208405  0.29513245  0.11165793  1
  Ti  Ti122  1  0.29733676  0.10734389  0.12452754  1
  Ti  Ti123  1  0.17718393  0.20031235  0.75065721  1
  Ti  Ti124  1  0.89995899  0.91617880  0.63122276  1
  Ti  Ti125  1  0.70163537  0.29598676  0.63751308  1
  Ti  Ti126  1  0.39814902  0.19037222  -0.01140813  1
  Ti  Ti127  1  0.39853914  0.01266465  0.24032424  1
  Ti  Ti128  1  -0.00349668  0.59756833  -0.00106190  1
  Ti  Ti129  1  0.27495155  0.10024654  0.87288123  1
  Ti  Ti130  1  0.70714529  0.70305054  0.87859032  1
  Ti  Ti131  1  0.50390538  0.48317998  0.36730406  1
  Ti  Ti132  1  0.39834905  0.80538761  0.25707268  1
  Ti  Ti133  1  0.59673326  -0.01039479  0.00931675  1
  Ti  Ti134  1  0.29761193  0.29853523  0.88330036  1
  Ti  Ti135  1  0.50633145  0.08628207  0.88135224  1
  Ti  Ti136  1  0.30598064  0.90147937  0.86997268  1
  Ti  Ti137  1  0.58804189  -0.00490110  0.75088383  1
  Ti  Ti138  1  0.20762097  0.59445513  0.50460464  1
  Ti  Ti139  1  0.78791681  0.80043145  0.74422137  1
  Ti  Ti140  1  0.80007789  0.38594496  0.74846100  1
  Ti  Ti141  1  0.51843947  0.70238323  0.37645605  1
  Ti  Ti142  1  0.71679599  0.09529050  0.90137190  1
  Ti  Ti143  1  0.08270500  0.51871122  0.13361534  1
  Ti  Ti144  1  0.59966761  0.80031246  0.24714604  1
  Ti  Ti145  1  0.91795010  0.88963107  0.11972045  1
  Ti  Ti146  1  0.49969489  0.49883667  0.63780126  1
  Ti  Ti147  1  0.39419053  -0.01035631  0.75529801  1
  Ti  Ti148  1  0.49753546  0.51457752  0.87118961  1
  Ti  Ti149  1  0.58348827  0.38972275  0.23857267  1
  Ti  Ti150  1  0.07483727  0.09646135  0.87227892  1
  Ti  Ti151  1  0.10942612  0.49076990  0.62644610  1
  Ti  Ti152  1  0.79899589  0.39178856  0.51413959  1
  Ti  Ti153  1  0.49498942  0.09523192  0.63382877  1
  Ti  Ti154  1  0.00240260  0.81119502  0.75985048  1
  Ti  Ti155  1  0.69717740  0.10007507  0.62934827  1
  Ti  Ti156  1  0.50287154  0.50692076  0.12576530  1
  Ti  Ti157  1  -0.00821533  -0.01166207  0.48971109  1
  Ti  Ti158  1  0.40741112  0.81382225  0.00809668  1
  Ti  Ti159  1  0.80047003  0.20137761  0.23461688  1
  Mo  Mo160  1  0.20720922  0.00086281  0.24575652  1
  Mo  Mo161  1  0.11128725  0.68743044  0.63540166  1
  Mo  Mo162  1  0.59132853  0.80749430  0.01288118  1
  Mo  Mo163  1  0.39602883  0.00302755  0.51030837  1
  Mo  Mo164  1  0.60446166  0.79360754  0.49045710  1
  Mo  Mo165  1  0.09745319  0.89738025  0.38370325  1
  Mo  Mo166  1  0.71036740  0.50226451  0.86534205  1
  Mo  Mo167  1  -0.00193032  0.59353791  0.25284753  1
  Mo  Mo168  1  0.20585557  0.40849603  0.50337268  1
  Mo  Mo169  1  0.89250652  0.50356322  0.12369259  1
  Mo  Mo170  1  0.10704296  0.68952421  0.37466648  1
  Mo  Mo171  1  0.89135004  0.09108825  0.62449122  1
  Mo  Mo172  1  0.89434976  0.69532047  0.37899214  1
  Mo  Mo173  1  0.11145614  0.09188317  0.13103644  1
  Mo  Mo174  1  0.60535606  0.00276883  0.22717298  1
  Mo  Mo175  1  0.60146301  0.60624461  0.48902232  1
  Mo  Mo176  1  0.10259843  0.89244359  0.12775690  1
  Mo  Mo177  1  0.61353224  0.20707963  0.22822823  1
  Mo  Mo178  1  0.80345758  0.19578715  0.00189002  1
  Mo  Mo179  1  0.49767432  0.30994090  0.37408661  1
  Mo  Mo180  1  0.68994687  0.90351233  0.12262353  1
  Mo  Mo181  1  0.09727781  0.29594704  0.62957150  1
  Mo  Mo182  1  0.79886598  -0.00957921  0.01896957  1
  Mo  Mo183  1  0.70415207  0.71015002  0.63141658  1
  Mo  Mo184  1  0.89228001  0.09092991  0.36356126  1
  Mo  Mo185  1  -0.00405574  0.80567122  0.48220072  1
  Mo  Mo186  1  0.40122315  0.81182977  0.74141538  1
  Mo  Mo187  1  0.01601132  0.18504753  -0.00044855  1
  Mo  Mo188  1  -0.00337844  0.00274015  0.75122745  1
  Mo  Mo189  1  -0.00240137  0.18582089  0.75637909  1
  Mo  Mo190  1  0.59595635  0.18854363  -0.01870143  1
  Mo  Mo191  1  0.80025932  0.40091857  0.00240062  1
  Mo  Mo192  1  0.09815032  0.08816600  0.37503823  1
  Mo  Mo193  1  0.89591998  0.09385470  0.89254228  1
  Mo  Mo194  1  0.49402615  0.91072485  0.87439406  1
  Mo  Mo195  1  0.00299782  -0.01201509  0.00124326  1
  Mo  Mo196  1  0.40819783  0.40908922  0.23640455  1
  Mo  Mo197  1  0.01142676  0.58643636  0.73645016  1
  Mo  Mo198  1  0.20794019  0.19478388  -0.00571213  1
  Mo  Mo199  1  0.09400877  0.30040746  0.36587356  1
