# generated using pymatgen
data_HfZrTaTiMo
_symmetry_space_group_name_H-M   'P 1'
_cell_length_a   15.21393246
_cell_length_b   15.21493645
_cell_length_c   16.81068305
_cell_angle_alpha   90.01698067
_cell_angle_beta   89.97684098
_cell_angle_gamma   90.00016346
_symmetry_Int_Tables_number   1
_chemical_formula_structural   HfZrTaTiMo
_chemical_formula_sum   'Hf40 Zr40 Ta40 Ti40 Mo40'
_cell_volume   3891.31987564
_cell_formula_units_Z   40
loop_
 _symmetry_equiv_pos_site_id
 _symmetry_equiv_pos_as_xyz
  1  'x, y, z'
loop_
 _atom_site_type_symbol
 _atom_site_label
 _atom_site_symmetry_multiplicity
 _atom_site_fract_x
 _atom_site_fract_y
 _atom_site_fract_z
 _atom_site_occupancy
  Hf  Hf0  1  0.49687039  0.90648050  0.88318735  1
  Hf  Hf1  1  0.19440563  0.80564788  0.74868869  1
  Hf  Hf2  1  0.49694435  0.69915082  0.88394447  1
  Hf  Hf3  1  0.71065411  0.10614631  0.62753214  1
  Hf  Hf4  1  0.08854433  0.70266496  0.63288682  1
  Hf  Hf5  1  0.10729442  0.50190862  0.63880434  1
  Hf  Hf6  1  0.57386378  0.40560800  0.73972838  1
  Hf  Hf7  1  0.50759961  0.50012411  0.12857714  1
  Hf  Hf8  1  0.29562361  0.90003044  0.87998191  1
  Hf  Hf9  1  0.79365726  -0.00539392  0.48137790  1
  Hf  Hf10  1  0.39452357  0.80314621  0.23887941  1
  Hf  Hf11  1  0.88501350  0.68943578  0.38203527  1
  Hf  Hf12  1  0.19858297  0.19752278  0.73495225  1
  Hf  Hf13  1  0.50669666  0.29504068  0.11725291  1
  Hf  Hf14  1  0.69999232  0.70610247  0.61280211  1
  Hf  Hf15  1  0.20695172  0.39800876  0.50853816  1
  Hf  Hf16  1  0.88991304  0.29815276  0.88589017  1
  Hf  Hf17  1  0.47673367  0.30071193  0.88378142  1
  Hf  Hf18  1  0.69264953  0.11483938  0.13449124  1
  Hf  Hf19  1  0.09734249  0.69058629  0.12093798  1
  Hf  Hf20  1  0.68632307  0.71634743  0.38747740  1
  Hf  Hf21  1  0.69982375  0.90686093  0.13626609  1
  Hf  Hf22  1  0.90441040  0.09718785  0.60785758  1
  Hf  Hf23  1  0.19798360  0.79693531  0.24555479  1
  Hf  Hf24  1  0.59037547  0.59166244  0.49722362  1
  Hf  Hf25  1  0.50256833  0.70238609  0.11817154  1
  Hf  Hf26  1  0.69366025  0.69883510  0.86743373  1
  Hf  Hf27  1  0.30140321  0.90109078  0.37437254  1
  Hf  Hf28  1  0.10390329  0.49490100  0.86765608  1
  Hf  Hf29  1  0.90060426  0.50460587  0.13716404  1
  Hf  Hf30  1  0.79602968  0.78332016  0.02221993  1
  Hf  Hf31  1  0.40899085  -0.00200172  0.49545609  1
  Hf  Hf32  1  -0.01009338  0.80496267  0.00747580  1
  Hf  Hf33  1  0.10485008  0.49798619  0.13659942  1
  Hf  Hf34  1  0.69825375  0.50779708  0.63602182  1
  Hf  Hf35  1  -0.00056642  0.59557512  0.50039959  1
  Hf  Hf36  1  0.49491562  0.70253342  0.61642183  1
  Hf  Hf37  1  0.10089468  0.29759918  0.87909770  1
  Hf  Hf38  1  0.39251210  0.59841141  0.00013216  1
  Hf  Hf39  1  -0.01300570  0.81349825  0.75436971  1
  Zr  Zr40  1  0.10413688  0.70234871  0.88017004  1
  Zr  Zr41  1  0.20647568  0.00251063  0.73763483  1
  Zr  Zr42  1  0.38657242  0.21065385  0.24497081  1
  Zr  Zr43  1  0.29493827  0.10928751  0.37226693  1
  Zr  Zr44  1  0.60441726  -0.00695603  0.76362115  1
  Zr  Zr45  1  0.69323265  0.31338191  0.88247780  1
  Zr  Zr46  1  -0.01789192  0.59400173  0.75403186  1
  Zr  Zr47  1  0.90589377  0.49044168  0.36810654  1
  Zr  Zr48  1  0.10506362  0.90793307  0.12491705  1
  Zr  Zr49  1  0.29720385  0.69238864  0.63524039  1
  Zr  Zr50  1  0.90075422  0.88558321  0.36801950  1
  Zr  Zr51  1  0.41446364  0.41037806  0.50239583  1
  Zr  Zr52  1  0.49983220  0.08791415  0.63140418  1
  Zr  Zr53  1  0.59882190  0.20030753  0.75974074  1
  Zr  Zr54  1  0.61596785  0.38372600  0.25634542  1
  Zr  Zr55  1  0.10401655  0.49877191  0.35892990  1
  Zr  Zr56  1  0.30842600  0.48814468  0.87000936  1
  Zr  Zr57  1  0.00177092  0.19210005  0.00664818  1
  Zr  Zr58  1  0.89890047  0.11269662  0.38006196  1
  Zr  Zr59  1  0.59002101  0.19248430  -0.01033189  1
  Zr  Zr60  1  0.50578200  0.51004794  0.36215896  1
  Zr  Zr61  1  0.80907248  -0.00578930  -0.00075306  1
  Zr  Zr62  1  0.20441019  0.60075969  0.49895631  1
  Zr  Zr63  1  0.50872162  0.88929206  0.36399104  1
  Zr  Zr64  1  0.89540474  0.09277978  0.13328666  1
  Zr  Zr65  1  0.60489554  0.00145872  0.48665607  1
  Zr  Zr66  1  0.79404220  0.39947813  0.50541317  1
  Zr  Zr67  1  0.19919818  0.80594061  0.50552262  1
  Zr  Zr68  1  0.31542252  0.10566656  0.87340203  1
  Zr  Zr69  1  0.29968001  0.50678572  0.36364851  1
  Zr  Zr70  1  0.20471632  0.00617468  0.51024370  1
  Zr  Zr71  1  0.40673885  0.80398200  0.75531572  1
  Zr  Zr72  1  0.40021354  0.39968770  0.24812816  1
  Zr  Zr73  1  0.60204287  0.00380106  -0.00556603  1
  Zr  Zr74  1  0.09873070  0.29067934  0.38381141  1
  Zr  Zr75  1  0.81664835  -0.00072786  0.75560368  1
  Zr  Zr76  1  0.62053739  0.59460578  0.00295598  1
  Zr  Zr77  1  -0.01321757  0.19808883  0.74726513  1
  Zr  Zr78  1  0.88682410  0.69438976  0.87705500  1
  Zr  Zr79  1  0.71868214  0.50688523  0.85424740  1
  Ta  Ta80  1  0.50033329  0.10315279  0.35684159  1
  Ta  Ta81  1  0.09827925  0.09862351  0.37902686  1
  Ta  Ta82  1  0.09360689  0.91143477  0.88245591  1
  Ta  Ta83  1  0.21035590  0.38727902  0.73945026  1
  Ta  Ta84  1  0.70784685  0.50232474  0.13421386  1
  Ta  Ta85  1  -0.01315065  0.59127675  -0.00259177  1
  Ta  Ta86  1  0.71249099  0.50918784  0.37344947  1
  Ta  Ta87  1  0.49525705  0.09496491  0.14419722  1
  Ta  Ta88  1  -0.00197400  0.79928279  0.49835940  1
  Ta  Ta89  1  -0.00064746  0.38121525  0.24351156  1
  Ta  Ta90  1  0.78950734  0.21490242  0.25642114  1
  Ta  Ta91  1  0.00523225  0.00202031  0.25653905  1
  Ta  Ta92  1  0.00089363  0.40430836  0.00513500  1
  Ta  Ta93  1  0.29561684  0.50559177  0.13312437  1
  Ta  Ta94  1  0.20369427  0.00942409  0.00245377  1
  Ta  Ta95  1  0.39611894  0.21469645  0.73168201  1
  Ta  Ta96  1  0.40372005  0.20442236  0.50848740  1
  Ta  Ta97  1  -0.00000743  0.39697221  0.50900130  1
  Ta  Ta98  1  0.09580185  0.70558576  0.36795218  1
  Ta  Ta99  1  0.42133098  0.58502791  0.75459537  1
  Ta  Ta100  1  0.10824836  0.09944191  0.87805742  1
  Ta  Ta101  1  0.71347738  0.88819505  0.87887727  1
  Ta  Ta102  1  0.79362503  -0.00007086  0.26320917  1
  Ta  Ta103  1  0.79636186  0.79955673  0.74378475  1
  Ta  Ta104  1  0.89491017  0.89347465  0.61224191  1
  Ta  Ta105  1  0.91103679  0.09411290  0.87998445  1
  Ta  Ta106  1  0.81336102  0.39037067  0.74051504  1
  Ta  Ta107  1  0.09457036  0.29475491  0.61530745  1
  Ta  Ta108  1  0.00463804  -0.00786757  0.49085052  1
  Ta  Ta109  1  -0.00569828  0.20106747  0.24604663  1
  Ta  Ta110  1  0.69722380  0.90023593  0.62118788  1
  Ta  Ta111  1  0.60139272  0.80486371  0.00773039  1
  Ta  Ta112  1  0.32872428  0.90373563  0.62593898  1
  Ta  Ta113  1  0.49752663  0.90913816  0.13044076  1
  Ta  Ta114  1  0.10064298  0.29530334  0.12218422  1
  Ta  Ta115  1  0.31563797  0.49824299  0.63734838  1
  Ta  Ta116  1  0.29420035  0.09471235  0.13003332  1
  Ta  Ta117  1  0.60508552  0.20371210  0.49291823  1
  Ta  Ta118  1  0.79882989  0.78227558  0.23645777  1
  Ta  Ta119  1  0.88942539  0.29956065  0.11754384  1
  Ti  Ti120  1  0.29297202  0.69794023  0.12085689  1
  Ti  Ti121  1  0.40178984  0.00707766  0.00907709  1
  Ti  Ti122  1  0.50471834  0.29457726  0.37580204  1
  Ti  Ti123  1  0.60188807  0.79763609  0.24356653  1
  Ti  Ti124  1  0.89259066  0.28766778  0.61392301  1
  Ti  Ti125  1  0.80137086  0.42057872  0.00059380  1
  Ti  Ti126  1  0.00304168  -0.00393165  0.00370414  1
  Ti  Ti127  1  0.20407217  0.39278739  0.01012766  1
  Ti  Ti128  1  0.00975100  0.00274602  0.74964770  1
  Ti  Ti129  1  0.09080553  0.90512679  0.62167684  1
  Ti  Ti130  1  0.09613681  0.10490242  0.60988233  1
  Ti  Ti131  1  0.20535497  0.38546418  0.24512458  1
  Ti  Ti132  1  0.10187126  0.10175253  0.12828987  1
  Ti  Ti133  1  0.10221581  0.89927082  0.37054183  1
  Ti  Ti134  1  0.28927524  0.29677258  0.87930442  1
  Ti  Ti135  1  0.69803694  0.29616611  0.62907473  1
  Ti  Ti136  1  0.19703936  0.59106963  -0.00152230  1
  Ti  Ti137  1  0.72042640  0.11193547  0.87518836  1
  Ti  Ti138  1  0.60198182  0.39269658  0.50128779  1
  Ti  Ti139  1  0.30510831  0.70265988  0.37777208  1
  Ti  Ti140  1  0.70417324  0.30847571  0.10711843  1
  Ti  Ti141  1  0.89648933  0.29923948  0.38495922  1
  Ti  Ti142  1  0.39586575  0.40005336  0.01257005  1
  Ti  Ti143  1  0.89720543  0.50112046  0.62273328  1
  Ti  Ti144  1  0.39805590  0.61281420  0.24684454  1
  Ti  Ti145  1  -0.00093498  0.39074075  0.74278131  1
  Ti  Ti146  1  0.88874523  0.69802562  0.61435628  1
  Ti  Ti147  1  0.29939002  0.29926943  0.38482971  1
  Ti  Ti148  1  0.20367906  0.00261765  0.24895790  1
  Ti  Ti149  1  0.38046945  0.19842667  0.01508585  1
  Ti  Ti150  1  0.80477422  0.39614169  0.25282260  1
  Ti  Ti151  1  0.60001897  0.79885547  0.74683404  1
  Ti  Ti152  1  0.29449850  0.68995333  0.86808915  1
  Ti  Ti153  1  0.60810160  0.61167126  0.25195029  1
  Ti  Ti154  1  0.39298215  0.80953831  0.01066269  1
  Ti  Ti155  1  0.20299763  0.80318084  0.00366026  1
  Ti  Ti156  1  0.18720840  0.20056977  0.24687665  1
  Ti  Ti157  1  -0.00538535  0.61063006  0.25181134  1
  Ti  Ti158  1  -0.00513607  0.80144796  0.23820142  1
  Ti  Ti159  1  0.51244130  0.49409045  0.88581244  1
  Mo  Mo160  1  0.30483730  0.10310021  0.61921138  1
  Mo  Mo161  1  0.90400011  0.90176976  0.87746839  1
  Mo  Mo162  1  0.28887986  0.30337876  0.11884015  1
  Mo  Mo163  1  0.20507708  0.61091652  0.24957005  1
  Mo  Mo164  1  0.51194085  0.89157381  0.62019026  1
  Mo  Mo165  1  0.39727430  0.39105755  0.74660238  1
  Mo  Mo166  1  0.49926923  0.50399735  0.62211083  1
  Mo  Mo167  1  0.30228786  0.29968773  0.61519608  1
  Mo  Mo168  1  0.79792318  0.80399081  0.50331474  1
  Mo  Mo169  1  0.69037314  0.10812010  0.36025877  1
  Mo  Mo170  1  0.48972909  0.10248762  0.86802670  1
  Mo  Mo171  1  0.20148330  0.19764957  0.00438274  1
  Mo  Mo172  1  0.00007630  0.20089261  0.50140894  1
  Mo  Mo173  1  0.59437822  0.60955107  0.74732594  1
  Mo  Mo174  1  0.39370530  0.00005663  0.24658727  1
  Mo  Mo175  1  0.70291741  0.89601598  0.35591117  1
  Mo  Mo176  1  0.78776330  0.20398301  0.49525309  1
  Mo  Mo177  1  0.20971918  0.59511828  0.75615870  1
  Mo  Mo178  1  0.59857766  0.00089055  0.25401215  1
  Mo  Mo179  1  0.81018289  0.59242834  0.00435464  1
  Mo  Mo180  1  0.79104007  0.59571849  0.25427603  1
  Mo  Mo181  1  0.90798453  0.48372201  0.87305016  1
  Mo  Mo182  1  0.50849564  0.29745206  0.61418976  1
  Mo  Mo183  1  0.30402704  0.90353224  0.11379626  1
  Mo  Mo184  1  0.90324393  0.69212925  0.13013461  1
  Mo  Mo185  1  0.40152667  0.79659306  0.49568053  1
  Mo  Mo186  1  0.59699651  0.40554031  0.00305632  1
  Mo  Mo187  1  0.79902903  0.20215526  0.00484308  1
  Mo  Mo188  1  0.40697985  0.00799234  0.74840912  1
  Mo  Mo189  1  0.59498210  0.81065033  0.50163058  1
  Mo  Mo190  1  0.80351439  0.20563604  0.74895801  1
  Mo  Mo191  1  0.79929900  0.59660787  0.50241753  1
  Mo  Mo192  1  0.48448078  0.70010718  0.37984156  1
  Mo  Mo193  1  0.59926628  0.20322834  0.25406058  1
  Mo  Mo194  1  0.69512160  0.69073263  0.13301364  1
  Mo  Mo195  1  0.80301842  0.60354152  0.73806960  1
  Mo  Mo196  1  0.20693191  0.20196392  0.51069863  1
  Mo  Mo197  1  0.90099934  0.89984850  0.14550464  1
  Mo  Mo198  1  0.70524905  0.30179759  0.38112134  1
  Mo  Mo199  1  0.39454710  0.60762146  0.49557783  1
