# generated using pymatgen
data_HfZrTaTiMo
_symmetry_space_group_name_H-M   'P 1'
_cell_length_a   15.21573017
_cell_length_b   15.20204428
_cell_length_c   16.82543798
_cell_angle_alpha   89.96821941
_cell_angle_beta   90.03683022
_cell_angle_gamma   90.06971903
_symmetry_Int_Tables_number   1
_chemical_formula_structural   HfZrTaTiMo
_chemical_formula_sum   'Hf40 Zr40 Ta40 Ti40 Mo40'
_cell_volume   3891.89120609
_cell_formula_units_Z   40
loop_
 _symmetry_equiv_pos_site_id
 _symmetry_equiv_pos_as_xyz
  1  'x, y, z'
loop_
 _atom_site_type_symbol
 _atom_site_label
 _atom_site_symmetry_multiplicity
 _atom_site_fract_x
 _atom_site_fract_y
 _atom_site_fract_z
 _atom_site_occupancy
  Hf  Hf0  1  0.70375071  0.29747927  0.61224059  1
  Hf  Hf1  1  0.50883730  0.71309242  0.37481716  1
  Hf  Hf2  1  0.70084748  0.09035475  0.35239229  1
  Hf  Hf3  1  0.29318501  0.90131482  0.88614386  1
  Hf  Hf4  1  0.89820590  0.09625336  0.62123449  1
  Hf  Hf5  1  0.29710725  0.68572346  0.87273831  1
  Hf  Hf6  1  0.89215460  0.10034631  0.88157207  1
  Hf  Hf7  1  0.20009038  0.60810680  0.25286234  1
  Hf  Hf8  1  0.61996655  0.58993626  0.25242985  1
  Hf  Hf9  1  0.00368562  -0.01490696  0.26248111  1
  Hf  Hf10  1  0.10526197  0.89643901  0.12100519  1
  Hf  Hf11  1  0.60853942  0.80428028  0.01830535  1
  Hf  Hf12  1  0.79993471  -0.00647348  0.49513377  1
  Hf  Hf13  1  0.57422591  0.40047094  0.26378287  1
  Hf  Hf14  1  0.68648536  0.10193809  0.88314947  1
  Hf  Hf15  1  0.39723497  0.59638251  0.48754398  1
  Hf  Hf16  1  0.88979078  0.50262114  0.87781727  1
  Hf  Hf17  1  0.00721811  0.59846037  0.00707162  1
  Hf  Hf18  1  0.50527909  0.09887256  0.36166017  1
  Hf  Hf19  1  0.89556777  0.10685737  0.35930062  1
  Hf  Hf20  1  0.00947350  0.61739712  0.74119148  1
  Hf  Hf21  1  0.50703921  0.90109376  0.87926550  1
  Hf  Hf22  1  0.89838176  0.89215462  0.12808025  1
  Hf  Hf23  1  0.69465048  0.49220419  0.60315390  1
  Hf  Hf24  1  0.79126656  0.40739276  0.02107681  1
  Hf  Hf25  1  0.40353343  0.79428041  0.74428899  1
  Hf  Hf26  1  0.00240734  0.40635990  0.49412301  1
  Hf  Hf27  1  0.19139163  0.78934967  0.51069654  1
  Hf  Hf28  1  0.51155034  0.30211067  0.87636334  1
  Hf  Hf29  1  0.90259164  0.50259880  0.61848714  1
  Hf  Hf30  1  0.50523929  0.69280552  0.87473663  1
  Hf  Hf31  1  0.58953016  -0.03781081  0.23756159  1
  Hf  Hf32  1  0.39958666  0.00304360  0.75402581  1
  Hf  Hf33  1  -0.00561350  0.39683970  0.01241522  1
  Hf  Hf34  1  0.70937070  0.69406751  0.38791946  1
  Hf  Hf35  1  0.70368113  0.89851550  0.88020927  1
  Hf  Hf36  1  0.21210963  -0.00177629  0.50249143  1
  Hf  Hf37  1  0.90798075  0.72255640  0.61265081  1
  Hf  Hf38  1  0.79443697  -0.00141551  0.01767871  1
  Hf  Hf39  1  0.07163453  0.89204273  0.62253657  1
  Zr  Zr40  1  0.49655279  0.31034742  0.61774298  1
  Zr  Zr41  1  0.19293945  0.00099989  0.75032163  1
  Zr  Zr42  1  0.79339805  0.20601786  0.02571489  1
  Zr  Zr43  1  0.30511914  0.30170572  0.63008692  1
  Zr  Zr44  1  0.40268373  0.41525071  -0.01523662  1
  Zr  Zr45  1  0.10245259  0.09198853  0.12147230  1
  Zr  Zr46  1  0.00061852  0.40393020  0.74944232  1
  Zr  Zr47  1  0.11012128  0.10495394  0.36918786  1
  Zr  Zr48  1  0.09916870  0.10990766  0.62350012  1
  Zr  Zr49  1  0.47632009  0.90881342  0.39778898  1
  Zr  Zr50  1  0.70606331  0.29706957  0.88106308  1
  Zr  Zr51  1  0.39942583  0.82392798  0.24359770  1
  Zr  Zr52  1  0.59712749  0.19813475  0.49485171  1
  Zr  Zr53  1  0.09435070  0.50780176  0.36502676  1
  Zr  Zr54  1  0.00108042  0.00334478  0.48095545  1
  Zr  Zr55  1  -0.01562087  0.80561187  0.46772324  1
  Zr  Zr56  1  0.81675029  0.80572758  0.75047987  1
  Zr  Zr57  1  0.00690250  0.19925261  0.75830179  1
  Zr  Zr58  1  0.68452821  0.49696292  0.87625820  1
  Zr  Zr59  1  0.40713420  0.59425938  0.26490597  1
  Zr  Zr60  1  0.29859022  0.11899294  0.10940075  1
  Zr  Zr61  1  0.70101561  0.69103304  0.60982561  1
  Zr  Zr62  1  0.59805364  0.00143993  0.73646784  1
  Zr  Zr63  1  0.20182910  0.40462863  -0.00870542  1
  Zr  Zr64  1  0.10555120  0.51503787  0.87513109  1
  Zr  Zr65  1  -0.00983198  0.39492744  0.24439284  1
  Zr  Zr66  1  0.47918491  0.30570334  0.12544564  1
  Zr  Zr67  1  0.20230948  0.40288135  0.75556468  1
  Zr  Zr68  1  0.10544648  0.08966432  0.89370220  1
  Zr  Zr69  1  0.59719404  0.58455517  0.01589281  1
  Zr  Zr70  1  0.39267468  0.21437836  0.26347697  1
  Zr  Zr71  1  0.90480450  0.29762056  0.61535964  1
  Zr  Zr72  1  0.79434953  0.00506065  0.74552730  1
  Zr  Zr73  1  0.79439026  0.59847388  0.74401085  1
  Zr  Zr74  1  0.18747944  0.79265629  0.74248526  1
  Zr  Zr75  1  0.50153053  0.69879995  0.13609775  1
  Zr  Zr76  1  -0.00768961  0.19954677  0.00975510  1
  Zr  Zr77  1  0.00119169  0.77659623  0.26488980  1
  Zr  Zr78  1  0.70788623  0.69801665  0.88403429  1
  Zr  Zr79  1  0.30469794  0.11092244  0.63137042  1
  Ta  Ta80  1  0.31044905  0.49748777  0.13507906  1
  Ta  Ta81  1  0.78977230  0.79973576  0.25458805  1
  Ta  Ta82  1  0.22289515  -0.00207079  0.25003713  1
  Ta  Ta83  1  0.30713288  0.28811689  0.86767172  1
  Ta  Ta84  1  0.49444235  0.09815148  0.13948451  1
  Ta  Ta85  1  0.69808500  0.29510806  0.36498339  1
  Ta  Ta86  1  0.90859349  0.70374112  0.88510955  1
  Ta  Ta87  1  0.40974871  0.00946606  -0.00195798  1
  Ta  Ta88  1  0.60141690  0.20130359  0.74119334  1
  Ta  Ta89  1  0.40806639  0.41048175  0.75985955  1
  Ta  Ta90  1  0.13003023  0.88948684  0.36849598  1
  Ta  Ta91  1  0.60321668  0.79513990  0.73602952  1
  Ta  Ta92  1  0.60185262  0.00565626  0.51174278  1
  Ta  Ta93  1  0.89013213  0.51418651  0.13212206  1
  Ta  Ta94  1  0.68471600  0.89105650  0.37928321  1
  Ta  Ta95  1  0.59722784  0.80015864  0.50920591  1
  Ta  Ta96  1  0.10867000  0.49701941  0.13510578  1
  Ta  Ta97  1  0.30283407  0.69024239  0.62039918  1
  Ta  Ta98  1  0.49348309  0.11080648  0.87623667  1
  Ta  Ta99  1  0.30380455  0.91090224  0.10829697  1
  Ta  Ta100  1  0.79539930  0.39510649  0.74602045  1
  Ta  Ta101  1  0.40066065  0.79690195  0.00384009  1
  Ta  Ta102  1  0.19984997  0.20792025  0.25433540  1
  Ta  Ta103  1  0.10379070  0.69530832  0.12439442  1
  Ta  Ta104  1  0.20305811  0.20889843  0.49051351  1
  Ta  Ta105  1  0.90623994  0.89949410  0.89430757  1
  Ta  Ta106  1  0.72465556  0.69056443  0.12285997  1
  Ta  Ta107  1  0.49388419  0.89976965  0.61453644  1
  Ta  Ta108  1  0.70685041  0.89495109  0.61613600  1
  Ta  Ta109  1  0.10843093  0.30608266  0.61927481  1
  Ta  Ta110  1  0.29527126  0.72009261  0.38019494  1
  Ta  Ta111  1  0.60060574  0.40563082  0.74316558  1
  Ta  Ta112  1  0.80051951  0.19778916  0.48794999  1
  Ta  Ta113  1  0.79499662  0.20277821  0.74663390  1
  Ta  Ta114  1  0.20289341  0.78906924  0.00518312  1
  Ta  Ta115  1  -0.00951693  -0.01632257  0.75720130  1
  Ta  Ta116  1  0.69437610  0.09658111  0.14921481  1
  Ta  Ta117  1  0.78392756  0.41328792  0.25148526  1
  Ta  Ta118  1  0.58857252  0.19262357  0.01833063  1
  Ta  Ta119  1  0.10855918  0.29589349  0.12632229  1
  Ti  Ti120  1  0.59611849  0.40389135  0.47620529  1
  Ti  Ti121  1  0.59671270  0.39630688  0.01719245  1
  Ti  Ti122  1  0.30548856  0.89736743  0.62226692  1
  Ti  Ti123  1  0.29854477  0.10753094  0.88391229  1
  Ti  Ti124  1  0.00251376  0.79857397  0.00385112  1
  Ti  Ti125  1  0.59769173  0.00171221  0.02020300  1
  Ti  Ti126  1  0.81336536  0.59352337  0.49242074  1
  Ti  Ti127  1  0.89463130  0.50278387  0.37236384  1
  Ti  Ti128  1  0.30925302  0.08713842  0.37714978  1
  Ti  Ti129  1  0.20459336  0.59307495  0.73262427  1
  Ti  Ti130  1  0.01363491  0.61022426  0.49981735  1
  Ti  Ti131  1  0.39872951  0.59952247  0.00291805  1
  Ti  Ti132  1  0.89772227  0.30283047  0.87417466  1
  Ti  Ti133  1  0.10116624  0.70865208  0.88071105  1
  Ti  Ti134  1  0.21123408  0.59618979  0.00837932  1
  Ti  Ti135  1  0.29960236  0.70103354  0.12457721  1
  Ti  Ti136  1  0.20169984  0.40221027  0.49818145  1
  Ti  Ti137  1  0.29055956  0.31135888  0.12167080  1
  Ti  Ti138  1  0.29404312  0.48859864  0.36777043  1
  Ti  Ti139  1  0.09432050  0.89659945  0.88916933  1
  Ti  Ti140  1  0.00295360  0.20320426  0.24412096  1
  Ti  Ti141  1  0.39722683  0.39290427  0.47805770  1
  Ti  Ti142  1  0.68587351  0.30153355  0.14429057  1
  Ti  Ti143  1  0.10601617  0.29074313  0.88245775  1
  Ti  Ti144  1  0.80549370  0.21459809  0.24079468  1
  Ti  Ti145  1  0.49768521  0.50191903  0.61178851  1
  Ti  Ti146  1  0.49534764  0.10817069  0.62508387  1
  Ti  Ti147  1  0.20712364  0.80298020  0.24312447  1
  Ti  Ti148  1  0.39649326  0.19849982  0.48646334  1
  Ti  Ti149  1  0.19749479  0.59309264  0.49950668  1
  Ti  Ti150  1  0.81625837  0.60620575  0.25899033  1
  Ti  Ti151  1  0.40036150  0.59136677  0.74358593  1
  Ti  Ti152  1  0.10342762  0.30656643  0.36898458  1
  Ti  Ti153  1  0.90629732  0.69995594  0.12198695  1
  Ti  Ti154  1  0.00409188  0.20669016  0.49048812  1
  Ti  Ti155  1  0.89984594  0.09550810  0.14191271  1
  Ti  Ti156  1  0.89333943  0.30572301  0.37461374  1
  Ti  Ti157  1  0.30424343  0.49397655  0.61780694  1
  Ti  Ti158  1  0.49763730  0.69546572  0.61490676  1
  Ti  Ti159  1  0.58910542  0.59656907  0.74086737  1
  Mo  Mo160  1  0.00267889  0.80537524  0.76388869  1
  Mo  Mo161  1  0.20481218  -0.00749620  -0.00372072  1
  Mo  Mo162  1  0.11132448  0.69721208  0.37537969  1
  Mo  Mo163  1  0.49923859  0.50472557  0.38574842  1
  Mo  Mo164  1  0.10061828  0.69131332  0.61980701  1
  Mo  Mo165  1  0.49146148  0.49827145  0.12851478  1
  Mo  Mo166  1  0.40940303  0.20105083  0.75664754  1
  Mo  Mo167  1  0.70745040  0.49412756  0.38688057  1
  Mo  Mo168  1  0.69687419  0.49663859  0.13430044  1
  Mo  Mo169  1  0.79974740  0.39313275  0.48005272  1
  Mo  Mo170  1  0.89627272  0.30324086  0.13806581  1
  Mo  Mo171  1  0.70309377  0.89034324  0.12505818  1
  Mo  Mo172  1  0.39141604  0.79721389  0.51476424  1
  Mo  Mo173  1  -0.00183509  0.59764359  0.23893670  1
  Mo  Mo174  1  0.90209268  0.68561880  0.37850809  1
  Mo  Mo175  1  0.49343723  0.90429332  0.11040700  1
  Mo  Mo176  1  0.11173795  0.50104689  0.61373131  1
  Mo  Mo177  1  0.30638135  0.50816493  0.86778975  1
  Mo  Mo178  1  -0.00541475  -0.00801768  0.00553649  1
  Mo  Mo179  1  0.28747312  0.29739320  0.38160258  1
  Mo  Mo180  1  0.30000264  0.90186331  0.38198696  1
  Mo  Mo181  1  0.20317862  0.39486657  0.24657429  1
  Mo  Mo182  1  0.69876307  0.10614049  0.62003709  1
  Mo  Mo183  1  0.39356967  0.00506225  0.24343146  1
  Mo  Mo184  1  0.49976523  0.50696425  0.86585008  1
  Mo  Mo185  1  0.80846258  0.60109946  0.00543730  1
  Mo  Mo186  1  0.38221380  0.40319975  0.26215052  1
  Mo  Mo187  1  0.87153991  0.90015527  0.35908936  1
  Mo  Mo188  1  0.20472531  0.21025138  -0.00340505  1
  Mo  Mo189  1  0.79324017  0.80374290  0.49083121  1
  Mo  Mo190  1  0.59246628  0.59531227  0.49463075  1
  Mo  Mo191  1  0.60015888  0.20172742  0.24458759  1
  Mo  Mo192  1  0.49412718  0.30045935  0.38070488  1
  Mo  Mo193  1  0.60897342  0.78421838  0.23885956  1
  Mo  Mo194  1  0.40429455  0.01232268  0.51233089  1
  Mo  Mo195  1  0.79899595  -0.00703712  0.24365108  1
  Mo  Mo196  1  0.40381114  0.20360108  -0.00452162  1
  Mo  Mo197  1  0.20269973  0.20527242  0.76100030  1
  Mo  Mo198  1  0.81027574  0.79333854  0.00218605  1
  Mo  Mo199  1  0.89755057  0.90444901  0.62248437  1
