# generated using pymatgen
data_HfZrTaTiMo
_symmetry_space_group_name_H-M   'P 1'
_cell_length_a   15.18316670
_cell_length_b   15.18092255
_cell_length_c   16.82914430
_cell_angle_alpha   89.97136945
_cell_angle_beta   89.98152079
_cell_angle_gamma   90.08002917
_symmetry_Int_Tables_number   1
_chemical_formula_structural   HfZrTaTiMo
_chemical_formula_sum   'Hf40 Zr40 Ta40 Ti40 Mo40'
_cell_volume   3879.02035573
_cell_formula_units_Z   40
loop_
 _symmetry_equiv_pos_site_id
 _symmetry_equiv_pos_as_xyz
  1  'x, y, z'
loop_
 _atom_site_type_symbol
 _atom_site_label
 _atom_site_symmetry_multiplicity
 _atom_site_fract_x
 _atom_site_fract_y
 _atom_site_fract_z
 _atom_site_occupancy
  Hf  Hf0  1  0.01132019  0.80431390  0.50543736  1
  Hf  Hf1  1  0.90167930  0.49285654  0.12920101  1
  Hf  Hf2  1  0.57525872  0.21216562  0.02050566  1
  Hf  Hf3  1  0.48810822  0.10470567  0.36395776  1
  Hf  Hf4  1  0.49545624  0.11179398  0.87741440  1
  Hf  Hf5  1  0.80290235  0.61308377  -0.00693210  1
  Hf  Hf6  1  0.79114488  0.39159303  0.49356650  1
  Hf  Hf7  1  0.78193327  0.18009972  0.00290738  1
  Hf  Hf8  1  0.59530932  0.00353914  0.74634612  1
  Hf  Hf9  1  0.10762794  0.48950667  0.38675457  1
  Hf  Hf10  1  0.18948965  0.20522459  0.75287134  1
  Hf  Hf11  1  0.61089794  0.20230441  0.25096722  1
  Hf  Hf12  1  0.01253309  0.79832444  0.73061021  1
  Hf  Hf13  1  0.11839664  0.91283209  0.37529715  1
  Hf  Hf14  1  0.28976739  0.10457590  0.11708324  1
  Hf  Hf15  1  0.39229589  0.37891313  0.01958253  1
  Hf  Hf16  1  0.68098085  0.29352115  0.87476702  1
  Hf  Hf17  1  0.09263252  0.10653989  0.89011355  1
  Hf  Hf18  1  0.50817724  0.68471333  0.86739341  1
  Hf  Hf19  1  0.79551278  0.18923141  0.49565655  1
  Hf  Hf20  1  0.47827004  0.89140630  0.38411013  1
  Hf  Hf21  1  0.11865681  0.68486128  0.61974296  1
  Hf  Hf22  1  0.50848664  0.69754427  0.63690563  1
  Hf  Hf23  1  0.01237375  0.58003972  -0.00313255  1
  Hf  Hf24  1  0.50337007  0.68317901  0.38144255  1
  Hf  Hf25  1  0.90760494  0.70305263  0.86639674  1
  Hf  Hf26  1  0.01166701  0.79931903  0.25380091  1
  Hf  Hf27  1  0.88823014  0.07551843  0.87581077  1
  Hf  Hf28  1  0.12572534  0.68891182  0.13689838  1
  Hf  Hf29  1  0.30728893  0.50305658  0.88701988  1
  Hf  Hf30  1  0.00407472  0.78738094  0.00828655  1
  Hf  Hf31  1  0.89898843  0.29540125  0.62529382  1
  Hf  Hf32  1  0.12238606  0.69643859  0.37592338  1
  Hf  Hf33  1  0.31080910  0.91215624  0.62553619  1
  Hf  Hf34  1  0.21464642  0.59550163  0.75394150  1
  Hf  Hf35  1  0.29850105  0.90620091  0.87834534  1
  Hf  Hf36  1  0.79020421  0.19346703  0.75155719  1
  Hf  Hf37  1  0.89945079  0.28936090  0.88091738  1
  Hf  Hf38  1  0.11149910  0.90751372  0.12533914  1
  Hf  Hf39  1  -0.00261403  0.38910703  0.25717635  1
  Zr  Zr40  1  0.60654600  0.59768803  0.24023386  1
  Zr  Zr41  1  0.79455187  0.59381441  0.49687995  1
  Zr  Zr42  1  0.28885047  0.31581017  0.61817763  1
  Zr  Zr43  1  0.17402761  0.40943608  0.01447400  1
  Zr  Zr44  1  0.60460814  0.21962174  0.48322356  1
  Zr  Zr45  1  0.27549119  0.10885397  0.60924898  1
  Zr  Zr46  1  0.37098212  -0.01398262  0.24713003  1
  Zr  Zr47  1  0.60947058  0.78979631  0.49674352  1
  Zr  Zr48  1  0.81494679  0.81684685  0.74049119  1
  Zr  Zr49  1  0.49431555  0.50846892  0.11248904  1
  Zr  Zr50  1  0.60418578  -0.01004483  0.25043232  1
  Zr  Zr51  1  0.09081088  0.90212105  0.87554574  1
  Zr  Zr52  1  0.28877061  0.30111720  0.87687662  1
  Zr  Zr53  1  0.19952283  0.20750496  0.25146968  1
  Zr  Zr54  1  0.69538292  0.50941214  0.86642663  1
  Zr  Zr55  1  0.61680449  0.00472448  0.01708933  1
  Zr  Zr56  1  0.90630525  0.69098156  0.13498939  1
  Zr  Zr57  1  0.39135765  0.21259010  0.48461528  1
  Zr  Zr58  1  -0.00458490  0.59196687  0.50033998  1
  Zr  Zr59  1  0.50153394  0.30088647  0.62891061  1
  Zr  Zr60  1  0.00056318  0.00954536  0.24779961  1
  Zr  Zr61  1  0.80924456  0.19826987  0.25025175  1
  Zr  Zr62  1  0.79825872  0.79604854  0.26244110  1
  Zr  Zr63  1  0.60767296  0.00659745  0.48447975  1
  Zr  Zr64  1  0.70402350  0.90632562  0.62334276  1
  Zr  Zr65  1  0.38780334  0.40350622  0.24594483  1
  Zr  Zr66  1  0.79469567  0.40666742  -0.00646386  1
  Zr  Zr67  1  0.48711973  0.10316830  0.14154578  1
  Zr  Zr68  1  0.10912464  0.69522754  0.86412908  1
  Zr  Zr69  1  0.48434271  0.09260911  0.61497945  1
  Zr  Zr70  1  0.69916181  0.49184709  0.63455771  1
  Zr  Zr71  1  0.27992438  0.08681211  0.38803054  1
  Zr  Zr72  1  0.08790214  0.11345692  0.10889214  1
  Zr  Zr73  1  0.50727464  0.90002002  0.88011705  1
  Zr  Zr74  1  0.61884539  0.79397180  -0.00362986  1
  Zr  Zr75  1  0.91350356  0.28986471  0.10877581  1
  Zr  Zr76  1  0.39651470  0.62030315  0.24274626  1
  Zr  Zr77  1  0.41213692  0.41697141  0.48908713  1
  Zr  Zr78  1  0.59774373  0.79564453  0.25363622  1
  Zr  Zr79  1  0.81055026  0.79461004  0.49935163  1
  Ta  Ta80  1  0.29650814  0.52280148  0.37712041  1
  Ta  Ta81  1  0.68971405  0.10947850  0.62844289  1
  Ta  Ta82  1  0.90605448  0.90179577  0.37713683  1
  Ta  Ta83  1  0.49541875  0.50545043  0.63707764  1
  Ta  Ta84  1  0.40256992  0.00570060  0.00255210  1
  Ta  Ta85  1  -0.00279969  0.18982875  0.74908680  1
  Ta  Ta86  1  0.31276900  0.72214215  0.38076615  1
  Ta  Ta87  1  0.31513610  0.70746642  0.63263403  1
  Ta  Ta88  1  0.20480765  0.60908723  -0.00622525  1
  Ta  Ta89  1  0.39394926  0.20219582  0.74999273  1
  Ta  Ta90  1  -0.01186504  -0.00642116  0.74028677  1
  Ta  Ta91  1  0.91657506  0.49292758  0.86466882  1
  Ta  Ta92  1  0.10784102  0.48025005  0.61287658  1
  Ta  Ta93  1  0.80338486  0.58752884  0.26256473  1
  Ta  Ta94  1  0.23139226  0.80957368  0.24640189  1
  Ta  Ta95  1  0.79438300  -0.00207897  0.25175031  1
  Ta  Ta96  1  0.20572358  0.80201852  -0.00221412  1
  Ta  Ta97  1  0.58973537  0.39799263  0.75592001  1
  Ta  Ta98  1  0.49170058  0.88015712  0.11750327  1
  Ta  Ta99  1  0.48675851  0.30649334  0.87181988  1
  Ta  Ta100  1  0.29363916  0.10197355  0.88809858  1
  Ta  Ta101  1  0.60199342  0.39996045  0.23222098  1
  Ta  Ta102  1  0.31568816  0.70668007  0.88093869  1
  Ta  Ta103  1  0.00110991  0.00847828  0.50646850  1
  Ta  Ta104  1  0.18962150  0.41348817  0.23851392  1
  Ta  Ta105  1  0.88990648  0.08959850  0.62626123  1
  Ta  Ta106  1  0.32664527  0.71394758  0.10460795  1
  Ta  Ta107  1  0.39791925  0.61371515  0.50470292  1
  Ta  Ta108  1  0.21866395  0.80476151  0.50784638  1
  Ta  Ta109  1  0.89193751  0.89708184  0.13049908  1
  Ta  Ta110  1  0.81375087  0.59787849  0.74690615  1
  Ta  Ta111  1  -0.01648139  -0.01197377  0.00467054  1
  Ta  Ta112  1  0.50969859  0.32034242  0.35960553  1
  Ta  Ta113  1  0.70263065  0.69127998  0.63825060  1
  Ta  Ta114  1  0.39013552  0.41182190  0.75075887  1
  Ta  Ta115  1  0.67660042  0.48350156  0.37301582  1
  Ta  Ta116  1  0.28435828  0.51873830  0.12074976  1
  Ta  Ta117  1  0.18889202  0.00964483  0.75022948  1
  Ta  Ta118  1  0.89838921  0.09205231  0.37885555  1
  Ta  Ta119  1  0.29823607  0.51365876  0.61915264  1
  Ti  Ti120  1  0.27940527  0.31640782  0.37932873  1
  Ti  Ti121  1  0.72176238  0.90850907  0.86825473  1
  Ti  Ti122  1  0.80201299  -0.00652227  0.49461543  1
  Ti  Ti123  1  0.80439665  0.39870870  0.75546107  1
  Ti  Ti124  1  0.60592698  0.59860834  0.00448343  1
  Ti  Ti125  1  0.70833399  0.70641505  0.85765839  1
  Ti  Ti126  1  0.49915743  0.89616864  0.61529230  1
  Ti  Ti127  1  0.00316397  0.20110646  0.25279285  1
  Ti  Ti128  1  0.90580453  0.49150909  0.62800391  1
  Ti  Ti129  1  0.68922785  0.09365905  0.86904610  1
  Ti  Ti130  1  0.11010804  0.91417249  0.62237097  1
  Ti  Ti131  1  0.60714016  0.80359910  0.75086368  1
  Ti  Ti132  1  0.19831211  0.21641701  0.00686096  1
  Ti  Ti133  1  0.79212169  0.39371722  0.25741999  1
  Ti  Ti134  1  0.88996747  0.09059028  0.11611195  1
  Ti  Ti135  1  0.21094198  0.80852553  0.74642762  1
  Ti  Ti136  1  0.08581072  0.31036743  0.88039253  1
  Ti  Ti137  1  0.70747224  0.70415633  0.12613839  1
  Ti  Ti138  1  0.09670884  0.28449331  0.61449453  1
  Ti  Ti139  1  0.59494334  0.57763304  0.50332490  1
  Ti  Ti140  1  0.40753360  0.80671361  0.75395200  1
  Ti  Ti141  1  0.90318603  0.69080120  0.62614205  1
  Ti  Ti142  1  0.70901136  0.50311288  0.12407486  1
  Ti  Ti143  1  0.69375597  0.29985431  0.63449729  1
  Ti  Ti144  1  0.08977218  0.11345660  0.38556603  1
  Ti  Ti145  1  0.91131866  0.69250202  0.37223305  1
  Ti  Ti146  1  0.80967331  0.81519975  -0.00166830  1
  Ti  Ti147  1  0.19059603  0.40513772  0.75114093  1
  Ti  Ti148  1  0.00576330  0.38962602  0.74434339  1
  Ti  Ti149  1  0.00522600  0.38080161  0.49579805  1
  Ti  Ti150  1  0.38890322  0.00967570  0.75627477  1
  Ti  Ti151  1  0.59685658  0.40063545  0.00938915  1
  Ti  Ti152  1  0.01285665  0.58793907  0.25837645  1
  Ti  Ti153  1  0.30240159  0.90317265  0.10520325  1
  Ti  Ti154  1  0.89460202  0.49210286  0.37487330  1
  Ti  Ti155  1  0.01029162  0.58242807  0.74140973  1
  Ti  Ti156  1  0.49915252  0.49474146  0.88252928  1
  Ti  Ti157  1  0.70512099  0.68835720  0.37640410  1
  Ti  Ti158  1  0.70341068  0.30273467  0.12289408  1
  Ti  Ti159  1  0.90656480  0.28963329  0.38159641  1
  Mo  Mo160  1  0.20898868  0.60399113  0.25290917  1
  Mo  Mo161  1  0.48980914  0.29769605  0.14849630  1
  Mo  Mo162  1  -0.00576855  0.19748241  -0.00807299  1
  Mo  Mo163  1  0.91202823  0.90367461  0.61221461  1
  Mo  Mo164  1  0.70646705  0.30393274  0.36592221  1
  Mo  Mo165  1  0.09657273  0.29682706  0.37867128  1
  Mo  Mo166  1  0.21073579  0.60334788  0.50385661  1
  Mo  Mo167  1  -0.01218180  0.19778363  0.50122687  1
  Mo  Mo168  1  0.39632683  -0.00213906  0.50117699  1
  Mo  Mo169  1  0.71359954  0.90243705  0.37930678  1
  Mo  Mo170  1  0.70637442  0.89212094  0.12735480  1
  Mo  Mo171  1  0.29626603  0.89688400  0.38577275  1
  Mo  Mo172  1  0.17614439  0.21029309  0.49169864  1
  Mo  Mo173  1  0.09679891  0.30424798  0.12731711  1
  Mo  Mo174  1  0.39329473  0.21070587  0.26888701  1
  Mo  Mo175  1  0.10159762  0.49105512  0.86374924  1
  Mo  Mo176  1  0.40423285  0.59875979  -0.00099519  1
  Mo  Mo177  1  0.70796158  0.09248308  0.37263566  1
  Mo  Mo178  1  0.40810798  0.80356276  -0.01217684  1
  Mo  Mo179  1  0.40323208  0.59797450  0.75145829  1
  Mo  Mo180  1  0.79549969  0.00429009  0.74393686  1
  Mo  Mo181  1  0.60526447  0.59682370  0.75221336  1
  Mo  Mo182  1  0.19219575  -0.00130558  0.24610248  1
  Mo  Mo183  1  0.90244937  0.89371777  0.87610518  1
  Mo  Mo184  1  0.20302894  0.40209273  0.49883858  1
  Mo  Mo185  1  0.09065200  0.50726208  0.13629269  1
  Mo  Mo186  1  0.58754381  0.20252711  0.74955470  1
  Mo  Mo187  1  0.18839529  -0.00168598  0.50925660  1
  Mo  Mo188  1  0.29075841  0.30096315  0.13129394  1
  Mo  Mo189  1  0.79472265  -0.01384200  0.00658844  1
  Mo  Mo190  1  -0.00516203  0.39834724  -0.00450353  1
  Mo  Mo191  1  0.60027210  0.40324212  0.50242158  1
  Mo  Mo192  1  0.70515951  0.09906937  0.13039159  1
  Mo  Mo193  1  0.39030838  0.19823658  0.00157697  1
  Mo  Mo194  1  0.40588260  0.80122320  0.24442699  1
  Mo  Mo195  1  0.40782111  0.80123784  0.51273475  1
  Mo  Mo196  1  0.08443434  0.10329024  0.62921198  1
  Mo  Mo197  1  0.19917802  0.00059928  -0.00478744  1
  Mo  Mo198  1  0.49596322  0.50241756  0.36941762  1
  Mo  Mo199  1  0.51190653  0.70214976  0.11001406  1
