# generated using pymatgen
data_HfZrTaTiMo
_symmetry_space_group_name_H-M   'P 1'
_cell_length_a   15.21432109
_cell_length_b   15.20468772
_cell_length_c   16.80874229
_cell_angle_alpha   90.01674904
_cell_angle_beta   90.01698036
_cell_angle_gamma   90.12115233
_symmetry_Int_Tables_number   1
_chemical_formula_structural   HfZrTaTiMo
_chemical_formula_sum   'Hf40 Zr40 Ta40 Ti40 Mo40'
_cell_volume   3888.34053339
_cell_formula_units_Z   40
loop_
 _symmetry_equiv_pos_site_id
 _symmetry_equiv_pos_as_xyz
  1  'x, y, z'
loop_
 _atom_site_type_symbol
 _atom_site_label
 _atom_site_symmetry_multiplicity
 _atom_site_fract_x
 _atom_site_fract_y
 _atom_site_fract_z
 _atom_site_occupancy
  Hf  Hf0  1  0.91280594  0.70178269  0.37507001  1
  Hf  Hf1  1  0.29532953  0.89700805  0.63074178  1
  Hf  Hf2  1  0.50738086  0.08908712  0.89459152  1
  Hf  Hf3  1  0.40016468  0.40291439  0.24658058  1
  Hf  Hf4  1  0.09627970  0.88879892  0.64963037  1
  Hf  Hf5  1  -0.01102065  0.00505325  0.00373207  1
  Hf  Hf6  1  0.19575947  -0.01821493  0.49614856  1
  Hf  Hf7  1  0.09856366  0.71239638  0.84936494  1
  Hf  Hf8  1  0.59621496  0.40079086  0.23917634  1
  Hf  Hf9  1  0.91323601  0.31522586  0.62170059  1
  Hf  Hf10  1  0.09978141  0.09404848  0.37257695  1
  Hf  Hf11  1  0.10083312  0.51151334  0.13068796  1
  Hf  Hf12  1  0.40690013  0.79973632  0.74823493  1
  Hf  Hf13  1  0.00406687  0.80964703  0.49518798  1
  Hf  Hf14  1  0.80730467  0.80137887  0.00408880  1
  Hf  Hf15  1  0.28614108  0.07907627  0.89720274  1
  Hf  Hf16  1  0.49758194  0.51374736  0.87846158  1
  Hf  Hf17  1  0.18754891  -0.01514358  0.23529155  1
  Hf  Hf18  1  0.89259397  0.69043340  0.87129102  1
  Hf  Hf19  1  0.11090332  0.09905107  0.61671326  1
  Hf  Hf20  1  0.88954649  0.29988196  0.88663535  1
  Hf  Hf21  1  0.29571624  0.88589634  0.12028576  1
  Hf  Hf22  1  0.01757246  0.60503940  -0.00610704  1
  Hf  Hf23  1  0.31595837  0.68977385  0.87157729  1
  Hf  Hf24  1  0.18182359  0.37229280  0.49109446  1
  Hf  Hf25  1  0.80225895  0.19949461  0.74402962  1
  Hf  Hf26  1  0.88512249  0.29626389  0.36805507  1
  Hf  Hf27  1  0.90326651  0.29918018  0.13054228  1
  Hf  Hf28  1  0.60807640  0.19785579  0.75718694  1
  Hf  Hf29  1  0.42100050  0.19960930  0.49362692  1
  Hf  Hf30  1  0.49267364  0.30385689  0.63280144  1
  Hf  Hf31  1  0.60117540  0.41041190  0.75015715  1
  Hf  Hf32  1  0.08101039  0.29893240  0.88577238  1
  Hf  Hf33  1  0.79612383  0.01480010  0.23962556  1
  Hf  Hf34  1  0.79065682  0.40397692  0.24356074  1
  Hf  Hf35  1  0.19386567  0.17361618  0.76113471  1
  Hf  Hf36  1  0.29134869  0.30008027  0.88315783  1
  Hf  Hf37  1  0.17798209  0.38720372  0.74872938  1
  Hf  Hf38  1  0.31003369  0.29704265  0.37896187  1
  Hf  Hf39  1  0.60036094  0.41240212  0.01318058  1
  Zr  Zr40  1  0.00534144  0.20454687  0.49771524  1
  Zr  Zr41  1  0.08296184  0.50250568  0.38885639  1
  Zr  Zr42  1  0.39482720  0.19847106  0.00335912  1
  Zr  Zr43  1  0.29372510  0.48780710  0.60479284  1
  Zr  Zr44  1  0.19964348  0.18970177  0.23795419  1
  Zr  Zr45  1  0.59569306  0.59887858  0.23522576  1
  Zr  Zr46  1  0.19007970  0.40823116  -0.00112883  1
  Zr  Zr47  1  0.72039038  0.51182138  0.89086836  1
  Zr  Zr48  1  0.60187162  0.01141384  0.49217884  1
  Zr  Zr49  1  0.19534209  0.40402583  0.26099398  1
  Zr  Zr50  1  0.39873708  0.81040923  0.49575310  1
  Zr  Zr51  1  0.78320248  0.40270917  0.50248207  1
  Zr  Zr52  1  0.80218601  0.00465673  0.49184939  1
  Zr  Zr53  1  0.40973328  0.59425378  0.73594397  1
  Zr  Zr54  1  0.60950021  0.60838724  0.73847520  1
  Zr  Zr55  1  0.29480580  0.30295817  0.12097106  1
  Zr  Zr56  1  0.50620559  0.70296146  0.37712459  1
  Zr  Zr57  1  0.50310811  0.70960765  0.60911412  1
  Zr  Zr58  1  0.21009445  0.61081881  0.27229741  1
  Zr  Zr59  1  0.80713613  0.59667462  0.24388264  1
  Zr  Zr60  1  0.89605450  0.90280339  0.86419245  1
  Zr  Zr61  1  0.20725608  0.57938568  0.75407048  1
  Zr  Zr62  1  0.28850840  0.88235302  0.35994305  1
  Zr  Zr63  1  0.39980672  0.19845025  0.76015221  1
  Zr  Zr64  1  0.60624731  0.81686385  0.01419135  1
  Zr  Zr65  1  0.50410794  0.30657994  0.88414871  1
  Zr  Zr66  1  0.61258126  0.59567601  0.50792053  1
  Zr  Zr67  1  0.60326790  0.61526378  0.02101776  1
  Zr  Zr68  1  0.60818695  0.81064310  0.74852995  1
  Zr  Zr69  1  0.28713859  0.27827658  0.61806978  1
  Zr  Zr70  1  0.41187681  0.19416018  0.24229306  1
  Zr  Zr71  1  0.89449588  0.90630783  0.63498650  1
  Zr  Zr72  1  0.31123962  0.08595807  0.37824635  1
  Zr  Zr73  1  0.92451936  0.70451266  0.12812933  1
  Zr  Zr74  1  0.19489012  0.78741490  -0.00532260  1
  Zr  Zr75  1  0.39859287  0.00573702  0.75454267  1
  Zr  Zr76  1  0.09979117  0.68830572  0.63340322  1
  Zr  Zr77  1  -0.01018371  0.57299957  0.75169451  1
  Zr  Zr78  1  0.80575316  0.41420549  0.74824024  1
  Zr  Zr79  1  0.48622244  0.49111772  0.38540176  1
  Ta  Ta80  1  0.90228481  0.70843319  0.62483458  1
  Ta  Ta81  1  0.58947807  0.38648418  0.49798177  1
  Ta  Ta82  1  0.00929738  0.81053251  -0.00507130  1
  Ta  Ta83  1  0.70356807  0.70858588  0.88008808  1
  Ta  Ta84  1  0.60399613  0.00467966  0.75003316  1
  Ta  Ta85  1  0.50143869  0.91575587  0.61840864  1
  Ta  Ta86  1  0.89193259  0.50355117  0.38579226  1
  Ta  Ta87  1  0.39881684  0.78814915  0.24680827  1
  Ta  Ta88  1  0.69707241  0.90723607  0.36036319  1
  Ta  Ta89  1  0.70452835  0.29835262  0.11387828  1
  Ta  Ta90  1  0.60183677  0.80618217  0.24264075  1
  Ta  Ta91  1  0.70515650  0.12371654  0.36595602  1
  Ta  Ta92  1  0.79487711  0.19791360  0.50943215  1
  Ta  Ta93  1  0.19839891  0.78438829  0.49572983  1
  Ta  Ta94  1  0.70585510  0.70502814  0.36847868  1
  Ta  Ta95  1  0.50300713  0.09057720  0.11115447  1
  Ta  Ta96  1  -0.00551909  -0.00085851  0.24356236  1
  Ta  Ta97  1  0.40105714  -0.00568515  0.23688191  1
  Ta  Ta98  1  0.49674521  0.90006839  0.88655078  1
  Ta  Ta99  1  0.00264924  0.21077081  0.74683905  1
  Ta  Ta100  1  0.40300584  0.59991976  0.01146593  1
  Ta  Ta101  1  0.81223341  0.81066022  0.25835338  1
  Ta  Ta102  1  0.61197559  0.20265371  0.23612390  1
  Ta  Ta103  1  0.00889354  0.60536931  0.25359218  1
  Ta  Ta104  1  0.29889883  0.89165799  0.87915285  1
  Ta  Ta105  1  0.38600888  0.40571223  0.75533868  1
  Ta  Ta106  1  0.79980219  0.80992507  0.48527236  1
  Ta  Ta107  1  0.71061656  0.09759395  0.88394586  1
  Ta  Ta108  1  0.51138421  0.10229659  0.62480221  1
  Ta  Ta109  1  0.49669064  0.91073959  0.36310179  1
  Ta  Ta110  1  0.50204036  0.29822243  0.11483241  1
  Ta  Ta111  1  0.07812483  0.47767874  0.60668791  1
  Ta  Ta112  1  0.78629100  -0.00157234  0.01768649  1
  Ta  Ta113  1  0.69520607  0.50210613  0.37518076  1
  Ta  Ta114  1  0.00687356  0.02092959  0.75721459  1
  Ta  Ta115  1  0.59562600  0.00721318  0.24227768  1
  Ta  Ta116  1  0.29708446  0.68965351  0.12595604  1
  Ta  Ta117  1  0.18092997  0.18704200  0.01132739  1
  Ta  Ta118  1  0.71454465  0.71202931  0.13470923  1
  Ta  Ta119  1  0.80614276  0.18737503  0.00947052  1
  Ti  Ti120  1  0.19296856  0.60074617  0.49098667  1
  Ti  Ti121  1  0.69509021  0.90880808  0.87684280  1
  Ti  Ti122  1  0.79124565  0.00752246  0.74726596  1
  Ti  Ti123  1  0.17725338  -0.01189965  0.01212739  1
  Ti  Ti124  1  0.80131432  0.61351241  0.49932371  1
  Ti  Ti125  1  0.61008553  0.81264482  0.49023491  1
  Ti  Ti126  1  0.09234465  0.29819180  0.13353345  1
  Ti  Ti127  1  0.21088203  0.59488028  -0.01225062  1
  Ti  Ti128  1  0.39641694  0.41224221  0.00363475  1
  Ti  Ti129  1  0.90072579  0.10409303  0.36570607  1
  Ti  Ti130  1  -0.01059394  0.41271073  0.24924474  1
  Ti  Ti131  1  0.31428717  0.08763979  0.60864353  1
  Ti  Ti132  1  0.10679685  0.91286684  0.85843054  1
  Ti  Ti133  1  0.30055372  0.50421455  0.12661391  1
  Ti  Ti134  1  0.70295683  0.30046116  0.89255953  1
  Ti  Ti135  1  0.38630074  0.60184959  0.49615314  1
  Ti  Ti136  1  0.49710421  0.49416712  0.61260125  1
  Ti  Ti137  1  0.91554750  0.48532022  0.90058519  1
  Ti  Ti138  1  0.08446122  0.29031886  0.35747325  1
  Ti  Ti139  1  0.71201215  0.71535021  0.61474046  1
  Ti  Ti140  1  -0.00683541  -0.00131672  0.49305786  1
  Ti  Ti141  1  0.29418354  0.69915334  0.62702132  1
  Ti  Ti142  1  0.90126058  0.90010901  0.12958861  1
  Ti  Ti143  1  0.90206043  0.10162128  0.62626777  1
  Ti  Ti144  1  0.90271029  0.10515995  0.87329652  1
  Ti  Ti145  1  0.40521672  0.79042812  0.00470047  1
  Ti  Ti146  1  0.79189341  0.60644831  0.73449788  1
  Ti  Ti147  1  0.40128132  0.59724551  0.25109496  1
  Ti  Ti148  1  -0.00146850  0.19512777  0.01108804  1
  Ti  Ti149  1  0.49724593  0.89958350  0.12460427  1
  Ti  Ti150  1  0.79671997  0.80017646  0.74979167  1
  Ti  Ti151  1  0.02259632  0.80689342  0.25869109  1
  Ti  Ti152  1  0.61104808  0.19235802  0.00716256  1
  Ti  Ti153  1  0.30005518  0.08542344  0.11098055  1
  Ti  Ti154  1  0.51215106  0.70825383  0.87975965  1
  Ti  Ti155  1  0.69721066  0.91058078  0.62118437  1
  Ti  Ti156  1  0.61419575  0.20487170  0.50196548  1
  Ti  Ti157  1  0.89425714  0.51197485  0.60733963  1
  Ti  Ti158  1  0.69586477  0.30303864  0.62855696  1
  Ti  Ti159  1  0.51051987  0.10347667  0.36536249  1
  Mo  Mo160  1  0.30648678  0.49371410  0.87775883  1
  Mo  Mo161  1  -0.00920905  0.60571413  0.50848719  1
  Mo  Mo162  1  0.79618646  0.20553932  0.24377876  1
  Mo  Mo163  1  0.68967452  0.30326085  0.37288107  1
  Mo  Mo164  1  0.69560243  0.10434073  0.12127809  1
  Mo  Mo165  1  -0.01345465  0.39902982  0.48957845  1
  Mo  Mo166  1  0.09972393  0.49750181  0.88050280  1
  Mo  Mo167  1  0.40856597  0.00108473  0.49812878  1
  Mo  Mo168  1  0.48931383  0.70846542  0.13361432  1
  Mo  Mo169  1  0.90137365  0.10270480  0.12844652  1
  Mo  Mo170  1  0.70284009  0.90023074  0.14285690  1
  Mo  Mo171  1  -0.00948583  0.80269036  0.75114617  1
  Mo  Mo172  1  0.90213197  0.91012181  0.36614122  1
  Mo  Mo173  1  0.60457627  -0.00120226  0.00584857  1
  Mo  Mo174  1  0.80226108  0.39952541  0.01227650  1
  Mo  Mo175  1  0.39826975  -0.01922107  0.00636381  1
  Mo  Mo176  1  0.09136562  0.09801165  0.12684688  1
  Mo  Mo177  1  0.21153335  0.79838895  0.75783052  1
  Mo  Mo178  1  0.30787860  0.69156545  0.38032662  1
  Mo  Mo179  1  0.19717429  0.79137028  0.24439364  1
  Mo  Mo180  1  0.08755510  0.09801141  0.88406069  1
  Mo  Mo181  1  0.09081063  0.89906897  0.37370096  1
  Mo  Mo182  1  0.80831285  0.60262287  0.01273683  1
  Mo  Mo183  1  0.09632663  0.29174046  0.62680465  1
  Mo  Mo184  1  0.39917871  0.39641512  0.50069595  1
  Mo  Mo185  1  -0.00620562  0.39896933  0.75456236  1
  Mo  Mo186  1  0.11275881  0.70506434  0.12728837  1
  Mo  Mo187  1  -0.00349276  0.19565025  0.24905443  1
  Mo  Mo188  1  0.08501064  0.88660606  0.12163060  1
  Mo  Mo189  1  0.71216646  0.50511377  0.11303399  1
  Mo  Mo190  1  0.10496486  0.70771661  0.38217134  1
  Mo  Mo191  1  0.48769389  0.50123840  0.12409483  1
  Mo  Mo192  1  0.90723081  0.50049495  0.11317125  1
  Mo  Mo193  1  0.20544985  0.18662233  0.49360209  1
  Mo  Mo194  1  -0.00064382  0.39838382  0.01559647  1
  Mo  Mo195  1  0.29886850  0.49634738  0.39499935  1
  Mo  Mo196  1  0.51874367  0.28809434  0.37014688  1
  Mo  Mo197  1  0.20318846  -0.00289253  0.75535749  1
  Mo  Mo198  1  0.70372520  0.10047812  0.62744534  1
  Mo  Mo199  1  0.69789564  0.50030332  0.62101995  1
