# generated using pymatgen
data_HfZrTaTiMo
_symmetry_space_group_name_H-M   'P 1'
_cell_length_a   15.19507470
_cell_length_b   15.20814747
_cell_length_c   16.84667253
_cell_angle_alpha   89.95942622
_cell_angle_beta   90.05440940
_cell_angle_gamma   89.94264455
_symmetry_Int_Tables_number   1
_chemical_formula_structural   HfZrTaTiMo
_chemical_formula_sum   'Hf40 Zr40 Ta40 Ti40 Mo40'
_cell_volume   3893.07495866
_cell_formula_units_Z   40
loop_
 _symmetry_equiv_pos_site_id
 _symmetry_equiv_pos_as_xyz
  1  'x, y, z'
loop_
 _atom_site_type_symbol
 _atom_site_label
 _atom_site_symmetry_multiplicity
 _atom_site_fract_x
 _atom_site_fract_y
 _atom_site_fract_z
 _atom_site_occupancy
  Hf  Hf0  1  0.11948195  0.10075053  0.12245210  1
  Hf  Hf1  1  0.00097831  0.59350795  0.74478346  1
  Hf  Hf2  1  0.60534108  0.80941714  0.25512894  1
  Hf  Hf3  1  0.81146358  0.20991927  -0.00097202  1
  Hf  Hf4  1  0.00034066  0.20687443  0.25254744  1
  Hf  Hf5  1  0.72330663  0.90004620  0.12808771  1
  Hf  Hf6  1  0.39368674  0.20591326  -0.01074149  1
  Hf  Hf7  1  0.89304950  0.69815297  0.87032588  1
  Hf  Hf8  1  0.20746230  0.39928883  0.48865672  1
  Hf  Hf9  1  0.91254262  0.09154236  0.11748763  1
  Hf  Hf10  1  0.09531715  0.49573972  0.62276754  1
  Hf  Hf11  1  0.40584196  0.20373237  0.50048780  1
  Hf  Hf12  1  0.09758071  0.29977205  0.62376799  1
  Hf  Hf13  1  0.90303063  0.31001393  0.86994537  1
  Hf  Hf14  1  0.39635357  0.81426540  0.23192935  1
  Hf  Hf15  1  0.29250148  0.29823038  0.11976133  1
  Hf  Hf16  1  0.08733142  0.72190391  0.12504053  1
  Hf  Hf17  1  0.68721089  0.72472338  0.61956313  1
  Hf  Hf18  1  0.70356703  0.69170284  0.14605632  1
  Hf  Hf19  1  -0.01233745  0.40807878  0.24357583  1
  Hf  Hf20  1  0.69903126  0.10467601  0.11172133  1
  Hf  Hf21  1  0.59250115  0.39242069  0.49302592  1
  Hf  Hf22  1  0.59259475  0.00703636  0.23434895  1
  Hf  Hf23  1  0.69842325  0.90567779  0.89093420  1
  Hf  Hf24  1  0.52080989  0.88589199  0.62146300  1
  Hf  Hf25  1  0.10413602  0.69768223  0.62425827  1
  Hf  Hf26  1  0.79163894  0.38408358  0.49983611  1
  Hf  Hf27  1  0.79495329  0.59890371  0.01025752  1
  Hf  Hf28  1  0.30072802  0.29046087  0.63560126  1
  Hf  Hf29  1  0.60435751  0.79638612  0.02124437  1
  Hf  Hf30  1  0.01592275  0.00031770  0.25527377  1
  Hf  Hf31  1  0.31462571  0.88392942  0.87903199  1
  Hf  Hf32  1  0.20188029  0.40626813  0.25618403  1
  Hf  Hf33  1  -0.00537411  0.80337495  0.75434792  1
  Hf  Hf34  1  0.18200425  0.79982420  -0.01452841  1
  Hf  Hf35  1  0.70836703  0.10856132  0.36972579  1
  Hf  Hf36  1  0.39024988  0.01220635  0.21935607  1
  Hf  Hf37  1  0.49880591  0.67986958  0.12724091  1
  Hf  Hf38  1  0.39013253  0.59502488  0.49071925  1
  Hf  Hf39  1  0.58061916  0.60966047  0.74467275  1
  Zr  Zr40  1  0.21327525  0.39880206  -0.01343681  1
  Zr  Zr41  1  0.30757885  0.08977821  0.86740004  1
  Zr  Zr42  1  0.50501588  0.10700132  0.37441989  1
  Zr  Zr43  1  0.49871722  0.49849634  0.88313019  1
  Zr  Zr44  1  0.29663101  0.69783922  0.63094359  1
  Zr  Zr45  1  -0.00739651  0.40011255  0.00909340  1
  Zr  Zr46  1  0.50974198  0.30386211  0.63376719  1
  Zr  Zr47  1  0.10178496  0.10744510  0.38308624  1
  Zr  Zr48  1  0.50801433  0.10169242  0.62438128  1
  Zr  Zr49  1  0.29006081  0.69419181  0.11681918  1
  Zr  Zr50  1  0.41692012  -0.00114325  0.75232209  1
  Zr  Zr51  1  0.81917005  0.80172896  0.00192444  1
  Zr  Zr52  1  0.10652127  0.50920022  0.11793742  1
  Zr  Zr53  1  0.79631808  0.81508523  0.47405945  1
  Zr  Zr54  1  0.69437453  0.48600576  0.63213041  1
  Zr  Zr55  1  0.21120827  0.19873733  0.25693198  1
  Zr  Zr56  1  0.89544599  0.70628930  0.61630040  1
  Zr  Zr57  1  0.20794463  0.80193565  0.49531927  1
  Zr  Zr58  1  0.30637793  0.08142354  0.37543235  1
  Zr  Zr59  1  0.59556611  0.79855164  0.47170827  1
  Zr  Zr60  1  0.40148762  0.39471035  0.76037552  1
  Zr  Zr61  1  0.19654668  0.19012845  0.76326300  1
  Zr  Zr62  1  -0.01272389  0.80583408  0.26819327  1
  Zr  Zr63  1  -0.00048863  0.00369709  0.49919662  1
  Zr  Zr64  1  0.29409378  0.70517818  0.35808913  1
  Zr  Zr65  1  0.59479938  0.58928106  0.49257037  1
  Zr  Zr66  1  0.79427036  0.60449807  0.73672301  1
  Zr  Zr67  1  0.88686077  0.91199098  0.62373548  1
  Zr  Zr68  1  0.48338137  0.69855225  0.90449547  1
  Zr  Zr69  1  0.49368043  0.68925525  0.35354414  1
  Zr  Zr70  1  0.08720324  0.50663583  0.37572445  1
  Zr  Zr71  1  0.20596733  0.00685325  -0.00755666  1
  Zr  Zr72  1  0.29692756  0.49960560  0.63473544  1
  Zr  Zr73  1  0.08463568  0.50359548  0.87956565  1
  Zr  Zr74  1  0.10671823  0.89978843  0.63484610  1
  Zr  Zr75  1  0.79991104  0.20237255  0.24013766  1
  Zr  Zr76  1  0.81419678  -0.01611063  0.26485765  1
  Zr  Zr77  1  0.69960367  0.50620422  0.87154548  1
  Zr  Zr78  1  0.61622159  -0.01156907  0.75336053  1
  Zr  Zr79  1  0.30981121  0.89403301  0.64164395  1
  Ta  Ta80  1  0.00536211  0.01730575  0.74959971  1
  Ta  Ta81  1  0.50255839  0.89979129  0.90316920  1
  Ta  Ta82  1  0.69943486  0.30748913  0.87528396  1
  Ta  Ta83  1  0.59336014  0.40482999  0.00432842  1
  Ta  Ta84  1  0.70899850  0.10427409  0.88815132  1
  Ta  Ta85  1  0.18602571  0.39685386  0.76658567  1
  Ta  Ta86  1  0.00338631  0.79931186  0.48632514  1
  Ta  Ta87  1  0.59848474  0.19358794  0.76804297  1
  Ta  Ta88  1  0.61378314  -0.00396288  0.49556597  1
  Ta  Ta89  1  0.79555964  0.59184814  0.50084745  1
  Ta  Ta90  1  0.00746962  -0.01590017  -0.00262984  1
  Ta  Ta91  1  0.79018219  0.40217910  0.24548724  1
  Ta  Ta92  1  0.00024062  0.20654393  0.75273826  1
  Ta  Ta93  1  0.89460491  0.31332310  0.63953448  1
  Ta  Ta94  1  0.48869798  0.69419567  0.61892303  1
  Ta  Ta95  1  0.19434102  0.60438621  0.25013990  1
  Ta  Ta96  1  0.19483129  0.59808861  0.48840511  1
  Ta  Ta97  1  0.90413866  0.91139791  0.86810547  1
  Ta  Ta98  1  0.80850200  0.01340993  0.75836718  1
  Ta  Ta99  1  0.81212332  0.58749116  0.24575901  1
  Ta  Ta100  1  0.78024251  0.81546062  0.75407822  1
  Ta  Ta101  1  0.68561892  0.70477437  0.87725786  1
  Ta  Ta102  1  0.12181696  0.90572215  0.37919869  1
  Ta  Ta103  1  0.20338112  0.19816146  0.50083587  1
  Ta  Ta104  1  0.40242290  0.40279998  0.50273810  1
  Ta  Ta105  1  0.62077208  0.19931619  0.50151982  1
  Ta  Ta106  1  0.40122957  0.39189123  0.24019918  1
  Ta  Ta107  1  0.51400315  0.08960993  0.89499183  1
  Ta  Ta108  1  0.79242774  0.40606144  0.00950015  1
  Ta  Ta109  1  0.10358180  0.10439486  0.62175653  1
  Ta  Ta110  1  0.42300562  0.78816157  0.75988303  1
  Ta  Ta111  1  0.59392234  0.38846323  0.24813889  1
  Ta  Ta112  1  0.21389186  0.00307523  0.51060627  1
  Ta  Ta113  1  0.88913775  0.49872978  0.87258036  1
  Ta  Ta114  1  0.48695244  0.47923569  0.36580829  1
  Ta  Ta115  1  0.88275731  0.49667892  0.37867067  1
  Ta  Ta116  1  0.71118184  0.68286565  0.35930581  1
  Ta  Ta117  1  -0.01567870  0.20904532  0.50277044  1
  Ta  Ta118  1  -0.01310472  0.40203982  0.49924904  1
  Ta  Ta119  1  0.40160061  0.80357366  0.49063558  1
  Ti  Ti120  1  0.38687502  0.57644465  0.24018994  1
  Ti  Ti121  1  0.30026324  0.09586406  0.63742887  1
  Ti  Ti122  1  -0.00738875  0.59943443  0.50148399  1
  Ti  Ti123  1  0.28300632  0.90432758  0.11204182  1
  Ti  Ti124  1  0.71100152  0.09345660  0.62518605  1
  Ti  Ti125  1  0.79901027  0.19976585  0.76068626  1
  Ti  Ti126  1  0.41027978  0.20263810  0.23755565  1
  Ti  Ti127  1  -0.00599715  0.61812227  0.00167059  1
  Ti  Ti128  1  -0.00242286  0.60145895  0.24632633  1
  Ti  Ti129  1  0.81151783  0.00084774  -0.00161209  1
  Ti  Ti130  1  0.80197030  0.01617853  0.48882887  1
  Ti  Ti131  1  0.68898214  0.49727681  0.12700866  1
  Ti  Ti132  1  0.29893048  0.50555731  0.87127707  1
  Ti  Ti133  1  0.70396838  0.28188032  0.63895999  1
  Ti  Ti134  1  0.19402572  0.81997097  0.24717103  1
  Ti  Ti135  1  0.39274154  0.57038181  0.01459290  1
  Ti  Ti136  1  0.31926767  0.30406742  0.37306241  1
  Ti  Ti137  1  0.19657781  0.60437742  -0.01376140  1
  Ti  Ti138  1  0.89792069  0.30441068  0.12377780  1
  Ti  Ti139  1  0.18717073  0.20572760  -0.02439682  1
  Ti  Ti140  1  0.89698986  0.70945511  0.13317342  1
  Ti  Ti141  1  0.90132334  0.68927245  0.37691894  1
  Ti  Ti142  1  0.60249847  0.39518672  0.75640326  1
  Ti  Ti143  1  0.69533504  0.30445034  0.12017052  1
  Ti  Ti144  1  0.09527390  0.29446986  0.11751707  1
  Ti  Ti145  1  0.91456339  0.10506457  0.88331111  1
  Ti  Ti146  1  0.09810261  0.70186830  0.37221204  1
  Ti  Ti147  1  0.48742587  0.91392711  0.37012542  1
  Ti  Ti148  1  0.38769372  0.60475770  0.75719236  1
  Ti  Ti149  1  0.69199004  0.30259948  0.36706564  1
  Ti  Ti150  1  0.49997288  0.30108057  0.11428259  1
  Ti  Ti151  1  0.40539879  -0.00716571  0.50711473  1
  Ti  Ti152  1  0.88989914  0.29261829  0.37474200  1
  Ti  Ti153  1  0.10471236  0.90998052  0.85751077  1
  Ti  Ti154  1  0.89904416  0.11704276  0.63002222  1
  Ti  Ti155  1  0.09259646  0.30237998  0.38365055  1
  Ti  Ti156  1  0.59349448  0.20509720  0.23865681  1
  Ti  Ti157  1  0.60174923  0.57367111  0.25818688  1
  Ti  Ti158  1  0.20551979  0.77536611  0.77268182  1
  Ti  Ti159  1  0.60106650  0.20856614  -0.00677841  1
  Mo  Mo160  1  0.69823455  0.49256369  0.36789583  1
  Mo  Mo161  1  0.30158733  0.11071333  0.11513465  1
  Mo  Mo162  1  0.40352212  0.39552517  -0.00077256  1
  Mo  Mo163  1  0.50909940  0.29419809  0.87722536  1
  Mo  Mo164  1  0.09337880  0.29569186  0.87383035  1
  Mo  Mo165  1  0.50071768  0.48755014  0.12981012  1
  Mo  Mo166  1  0.20561825  -0.00948410  0.24414812  1
  Mo  Mo167  1  0.50149087  0.11335318  0.10724427  1
  Mo  Mo168  1  0.29985934  0.49754580  0.12602928  1
  Mo  Mo169  1  0.89794550  0.49689408  0.61117797  1
  Mo  Mo170  1  0.09430984  0.70023525  0.87204576  1
  Mo  Mo171  1  0.19631052  -0.00786314  0.74867249  1
  Mo  Mo172  1  0.79554772  0.39558620  0.74963878  1
  Mo  Mo173  1  0.90351834  0.11355021  0.37846066  1
  Mo  Mo174  1  0.60667295  0.00502061  0.01229169  1
  Mo  Mo175  1  0.40691467  -0.00070632  0.01738900  1
  Mo  Mo176  1  0.70839650  0.91191699  0.62069656  1
  Mo  Mo177  1  0.30928840  0.90356277  0.37049337  1
  Mo  Mo178  1  0.69256207  0.90975656  0.36501592  1
  Mo  Mo179  1  0.60404393  0.59317758  0.01025321  1
  Mo  Mo180  1  0.49162673  0.50487026  0.62495841  1
  Mo  Mo181  1  0.89313995  0.50841107  0.12627339  1
  Mo  Mo182  1  0.00681187  0.19589311  -0.00011660  1
  Mo  Mo183  1  0.50168987  0.90090344  0.11053435  1
  Mo  Mo184  1  0.80529737  0.79013288  0.26568496  1
  Mo  Mo185  1  0.30077846  0.49696486  0.36894570  1
  Mo  Mo186  1  0.50072811  0.29271915  0.36937353  1
  Mo  Mo187  1  0.09288879  0.90271714  0.12267288  1
  Mo  Mo188  1  0.08713486  0.09436820  0.87657267  1
  Mo  Mo189  1  0.20036113  0.59512390  0.76665301  1
  Mo  Mo190  1  0.00024475  0.80363107  -0.01854686  1
  Mo  Mo191  1  0.91964384  0.89108591  0.12442425  1
  Mo  Mo192  1  0.80082657  0.19880104  0.50785039  1
  Mo  Mo193  1  0.41272074  0.19843855  0.77230263  1
  Mo  Mo194  1  0.30197901  0.68845149  0.88813988  1
  Mo  Mo195  1  0.90856637  0.90820069  0.38782129  1
  Mo  Mo196  1  -0.00588941  0.40049807  0.74795993  1
  Mo  Mo197  1  0.39392227  0.80303992  0.02206977  1
  Mo  Mo198  1  0.59627550  0.79794867  0.76046435  1
  Mo  Mo199  1  0.30180227  0.30322716  0.86710624  1
