# generated using pymatgen
data_HfZrTaTiMo
_symmetry_space_group_name_H-M   'P 1'
_cell_length_a   15.20053032
_cell_length_b   15.21227591
_cell_length_c   16.84499002
_cell_angle_alpha   90.00590083
_cell_angle_beta   90.03264660
_cell_angle_gamma   89.98922412
_symmetry_Int_Tables_number   1
_chemical_formula_structural   HfZrTaTiMo
_chemical_formula_sum   'Hf40 Zr40 Ta40 Ti40 Mo40'
_cell_volume   3895.14483865
_cell_formula_units_Z   40
loop_
 _symmetry_equiv_pos_site_id
 _symmetry_equiv_pos_as_xyz
  1  'x, y, z'
loop_
 _atom_site_type_symbol
 _atom_site_label
 _atom_site_symmetry_multiplicity
 _atom_site_fract_x
 _atom_site_fract_y
 _atom_site_fract_z
 _atom_site_occupancy
  Hf  Hf0  1  0.10749467  0.69825856  0.37701560  1
  Hf  Hf1  1  0.38846953  0.79599502  0.01443062  1
  Hf  Hf2  1  0.51992880  0.50502418  0.62375154  1
  Hf  Hf3  1  0.38205190  0.39139057  0.26000193  1
  Hf  Hf4  1  0.70254349  0.70914281  0.10603377  1
  Hf  Hf5  1  0.38574495  -0.00229386  0.49275910  1
  Hf  Hf6  1  0.01211197  0.01695746  -0.01813277  1
  Hf  Hf7  1  0.88250072  0.51594272  0.38497247  1
  Hf  Hf8  1  0.50607598  0.29449461  0.62412988  1
  Hf  Hf9  1  0.48673586  0.70985313  0.36990711  1
  Hf  Hf10  1  0.89844306  0.69590079  0.62638640  1
  Hf  Hf11  1  0.30482833  0.89265230  0.36596699  1
  Hf  Hf12  1  0.60567511  0.19996666  0.49328286  1
  Hf  Hf13  1  0.39935973  0.60727608  0.49285110  1
  Hf  Hf14  1  0.71122380  0.09542228  0.36251118  1
  Hf  Hf15  1  0.30103126  0.90167472  0.62592702  1
  Hf  Hf16  1  0.39708606  0.19342383  0.75065206  1
  Hf  Hf17  1  0.30218535  0.68770490  0.87420351  1
  Hf  Hf18  1  -0.02328955  0.80191327  0.25076208  1
  Hf  Hf19  1  0.28480955  0.49137938  0.37927961  1
  Hf  Hf20  1  0.08877827  0.90312014  0.12544488  1
  Hf  Hf21  1  0.91771269  0.49780845  0.89361427  1
  Hf  Hf22  1  0.79875613  0.41124061  0.25126618  1
  Hf  Hf23  1  0.81392813  -0.00089386  0.51119619  1
  Hf  Hf24  1  0.30500649  0.70494676  0.62709306  1
  Hf  Hf25  1  0.88785833  0.89732558  0.10968224  1
  Hf  Hf26  1  0.69144991  0.69326545  0.88891190  1
  Hf  Hf27  1  0.79969611  0.01130992  -0.01850302  1
  Hf  Hf28  1  0.39993844  0.39573801  0.49701841  1
  Hf  Hf29  1  0.11473901  0.29501675  0.36287189  1
  Hf  Hf30  1  0.29468960  0.91820083  0.88209223  1
  Hf  Hf31  1  0.19351100  0.79906950  -0.00036064  1
  Hf  Hf32  1  0.19971785  0.60015012  0.50455219  1
  Hf  Hf33  1  0.82004615  0.39644926  0.75314199  1
  Hf  Hf34  1  0.68208263  0.68188980  0.62881540  1
  Hf  Hf35  1  0.10013166  0.70695600  0.62508823  1
  Hf  Hf36  1  0.78896147  0.58601158  0.75262436  1
  Hf  Hf37  1  0.58427484  0.00008014  0.75575913  1
  Hf  Hf38  1  0.41441674  0.81318183  0.75600563  1
  Hf  Hf39  1  0.08688374  0.48963668  0.38405648  1
  Zr  Zr40  1  0.39175781  0.39781321  0.74528501  1
  Zr  Zr41  1  0.19664337  0.80353093  0.76702143  1
  Zr  Zr42  1  0.68656339  0.89202153  0.87820653  1
  Zr  Zr43  1  0.10476167  0.29781961  0.13810399  1
  Zr  Zr44  1  0.21521002  0.39212204  0.00708057  1
  Zr  Zr45  1  0.20627869  0.59423403  0.01315563  1
  Zr  Zr46  1  0.60613697  0.79817475  0.24478548  1
  Zr  Zr47  1  0.10100165  0.90506360  0.36937684  1
  Zr  Zr48  1  0.49305692  0.09390794  0.61943122  1
  Zr  Zr49  1  0.59882896  0.59146821  0.25056553  1
  Zr  Zr50  1  0.60752393  0.59035864  0.48045827  1
  Zr  Zr51  1  0.60600547  0.20856815  -0.00392419  1
  Zr  Zr52  1  0.49167912  0.09611904  0.36960327  1
  Zr  Zr53  1  0.08983877  0.48319134  0.60890889  1
  Zr  Zr54  1  0.49630551  0.31809167  0.12795586  1
  Zr  Zr55  1  0.00080328  0.79662170  0.76356871  1
  Zr  Zr56  1  0.90587753  0.10043186  0.12919495  1
  Zr  Zr57  1  0.61066729  0.40412160  0.75715025  1
  Zr  Zr58  1  0.80231939  0.19895482  -0.00265727  1
  Zr  Zr59  1  0.19731214  0.58173467  0.74448552  1
  Zr  Zr60  1  0.60930764  -0.00893174  0.49749408  1
  Zr  Zr61  1  -0.00111536  0.82255958  0.50554668  1
  Zr  Zr62  1  0.10198959  0.93033805  0.64010911  1
  Zr  Zr63  1  0.59913769  0.01699140  -0.00188680  1
  Zr  Zr64  1  0.78925690  0.80501071  0.51891413  1
  Zr  Zr65  1  0.40910636  0.59830269  0.74321752  1
  Zr  Zr66  1  0.58301035  0.58798643  0.01357639  1
  Zr  Zr67  1  0.88927004  0.48835548  0.60676646  1
  Zr  Zr68  1  0.88728206  0.69353789  0.88881285  1
  Zr  Zr69  1  0.81152961  0.20913921  0.50739795  1
  Zr  Zr70  1  0.00417787  0.80551626  -0.01800872  1
  Zr  Zr71  1  0.50322771  0.70789551  0.88320729  1
  Zr  Zr72  1  0.90924967  0.10407699  0.37162396  1
  Zr  Zr73  1  0.20054065  0.78968486  0.23294430  1
  Zr  Zr74  1  0.91885156  0.10724097  0.63974999  1
  Zr  Zr75  1  0.19905387  0.18828190  0.00811138  1
  Zr  Zr76  1  0.78593235  0.79970521  0.74620420  1
  Zr  Zr77  1  0.90337697  0.50063373  0.11496234  1
  Zr  Zr78  1  0.50006576  0.11251164  0.13219415  1
  Zr  Zr79  1  -0.00246827  0.60262036  0.25196698  1
  Ta  Ta80  1  0.18764338  0.38552455  0.74883283  1
  Ta  Ta81  1  0.90654097  0.30179671  0.87987485  1
  Ta  Ta82  1  0.70903523  0.10240970  0.14474335  1
  Ta  Ta83  1  -0.00293920  0.57957843  0.74953888  1
  Ta  Ta84  1  0.48403761  0.68669411  0.12613767  1
  Ta  Ta85  1  0.39521047  0.00038701  0.23942387  1
  Ta  Ta86  1  0.02028982  0.02357568  0.50005018  1
  Ta  Ta87  1  0.79310821  0.01145044  0.75641355  1
  Ta  Ta88  1  0.20469023  0.00084010  0.01824395  1
  Ta  Ta89  1  0.60398424  0.39614142  0.48438017  1
  Ta  Ta90  1  0.71941617  0.88888042  0.37132573  1
  Ta  Ta91  1  0.70210949  0.29809899  0.13931339  1
  Ta  Ta92  1  0.00368477  0.00168935  0.25053103  1
  Ta  Ta93  1  0.69953883  0.90826956  0.11580736  1
  Ta  Ta94  1  0.28568950  0.28579440  0.62100416  1
  Ta  Ta95  1  0.69563119  0.49031689  0.11957894  1
  Ta  Ta96  1  0.79896303  0.61865732  0.24128953  1
  Ta  Ta97  1  0.29593886  0.28840808  0.87219922  1
  Ta  Ta98  1  0.89725660  0.70055350  0.10312935  1
  Ta  Ta99  1  0.49572532  0.29843333  0.37282714  1
  Ta  Ta100  1  0.20506139  0.58611243  0.24130548  1
  Ta  Ta101  1  0.28038051  0.09530334  0.62528624  1
  Ta  Ta102  1  0.39643054  0.79990231  0.23248656  1
  Ta  Ta103  1  0.70719576  0.30017400  0.36415684  1
  Ta  Ta104  1  0.89776898  0.90984685  0.86417722  1
  Ta  Ta105  1  0.49828458  0.50205166  0.87569795  1
  Ta  Ta106  1  0.49098200  0.90874385  0.89482761  1
  Ta  Ta107  1  0.60359248  -0.00553099  0.24819513  1
  Ta  Ta108  1  0.88953439  0.72104487  0.38432592  1
  Ta  Ta109  1  0.09646995  0.30290564  0.87724800  1
  Ta  Ta110  1  0.39244792  0.59812342  0.25739168  1
  Ta  Ta111  1  0.70929874  0.69536676  0.37491685  1
  Ta  Ta112  1  0.00565515  0.19841689  0.24925769  1
  Ta  Ta113  1  0.09338492  0.66595635  0.87926077  1
  Ta  Ta114  1  0.60081417  0.20540095  0.25629967  1
  Ta  Ta115  1  0.20644196  0.00830751  0.22931726  1
  Ta  Ta116  1  0.70680488  0.31006967  0.62551145  1
  Ta  Ta117  1  0.79609664  0.38888963  0.00390640  1
  Ta  Ta118  1  0.70606039  0.49613814  0.89234075  1
  Ta  Ta119  1  0.50224692  0.90049443  0.11868214  1
  Ti  Ti120  1  0.70410818  0.29485286  0.86891059  1
  Ti  Ti121  1  0.49681043  0.30309532  0.87153808  1
  Ti  Ti122  1  0.32605059  0.49415651  0.12194136  1
  Ti  Ti123  1  0.69378426  0.10783889  0.63594385  1
  Ti  Ti124  1  0.10363314  0.49561048  0.13108840  1
  Ti  Ti125  1  0.50465524  0.89950607  0.36913240  1
  Ti  Ti126  1  0.59207884  0.40594091  0.26350782  1
  Ti  Ti127  1  0.79812478  0.20686090  0.74620549  1
  Ti  Ti128  1  0.50103330  0.89215974  0.61603515  1
  Ti  Ti129  1  0.00912550  0.21159079  0.49814524  1
  Ti  Ti130  1  0.68877761  0.90499755  0.63682957  1
  Ti  Ti131  1  0.90681533  0.30689160  0.36932439  1
  Ti  Ti132  1  0.11818989  0.09909639  0.36127665  1
  Ti  Ti133  1  0.90425902  0.91073261  0.64913484  1
  Ti  Ti134  1  0.78881384  0.40247180  0.49102498  1
  Ti  Ti135  1  0.39569815  0.21304508  -0.00172838  1
  Ti  Ti136  1  0.00911450  0.21833417  0.75155066  1
  Ti  Ti137  1  0.22970467  0.20384139  0.24324623  1
  Ti  Ti138  1  0.49255336  0.10721161  0.87733896  1
  Ti  Ti139  1  0.21482146  0.80556115  0.49553163  1
  Ti  Ti140  1  0.38591553  0.19846285  0.49317063  1
  Ti  Ti141  1  0.29599292  0.48692334  0.61873291  1
  Ti  Ti142  1  0.59454883  0.79820071  0.49220512  1
  Ti  Ti143  1  0.49964403  0.70947221  0.62016519  1
  Ti  Ti144  1  0.29845924  0.48871201  0.87694329  1
  Ti  Ti145  1  0.90757020  0.11397128  0.85896719  1
  Ti  Ti146  1  -0.00843253  0.61002178  0.49798116  1
  Ti  Ti147  1  0.00938470  0.39450574  0.00781195  1
  Ti  Ti148  1  0.09114695  0.29188984  0.62378283  1
  Ti  Ti149  1  0.00257998  0.40177879  0.24989342  1
  Ti  Ti150  1  0.80933677  -0.01732979  0.25128062  1
  Ti  Ti151  1  0.39078930  0.01459104  0.01363799  1
  Ti  Ti152  1  0.12471976  0.10389829  0.86022284  1
  Ti  Ti153  1  0.00138856  0.20545256  0.00270481  1
  Ti  Ti154  1  0.19717276  0.17565207  0.49388523  1
  Ti  Ti155  1  0.19498904  0.37560294  0.50195151  1
  Ti  Ti156  1  0.38836372  0.00478207  0.75513419  1
  Ti  Ti157  1  0.08891563  0.69164952  0.12073462  1
  Ti  Ti158  1  0.89760861  0.29822985  0.13258775  1
  Ti  Ti159  1  0.59707166  0.39440709  -0.00487031  1
  Mo  Mo160  1  0.69812199  0.10956132  0.85531986  1
  Mo  Mo161  1  0.89838470  0.91000486  0.37965305  1
  Mo  Mo162  1  0.58952874  0.80719117  0.01401013  1
  Mo  Mo163  1  0.39385909  0.58515321  -0.00091843  1
  Mo  Mo164  1  0.00306600  0.01196416  0.76923898  1
  Mo  Mo165  1  0.10813797  0.11914579  0.63017801  1
  Mo  Mo166  1  0.20815218  0.01234677  0.75513366  1
  Mo  Mo167  1  0.49938286  0.49457902  0.13132638  1
  Mo  Mo168  1  0.90553522  0.30019815  0.62262697  1
  Mo  Mo169  1  0.58962240  0.80120341  0.74521880  1
  Mo  Mo170  1  0.69993431  0.49641833  0.36696875  1
  Mo  Mo171  1  0.60601818  0.19915690  0.75665235  1
  Mo  Mo172  1  0.79621933  0.58861537  0.00859073  1
  Mo  Mo173  1  0.49384033  0.49321907  0.37384311  1
  Mo  Mo174  1  0.01084149  0.59472098  0.00972041  1
  Mo  Mo175  1  0.29181766  0.09719964  0.36772913  1
  Mo  Mo176  1  -0.01148621  0.38125609  0.48978924  1
  Mo  Mo177  1  0.69613450  0.48794857  0.62009917  1
  Mo  Mo178  1  0.20220992  0.20503918  0.75170251  1
  Mo  Mo179  1  0.79797063  0.60672742  0.49875388  1
  Mo  Mo180  1  0.80581426  0.20681176  0.25054943  1
  Mo  Mo181  1  0.19404558  -0.00196453  0.49548805  1
  Mo  Mo182  1  0.29399418  0.69952786  0.36877955  1
  Mo  Mo183  1  0.40293512  0.19690236  0.25837912  1
  Mo  Mo184  1  0.10011570  0.10149896  0.13509010  1
  Mo  Mo185  1  0.10795510  0.48676675  0.87774173  1
  Mo  Mo186  1  0.30242010  0.90323986  0.12367487  1
  Mo  Mo187  1  0.00658749  0.39899646  0.75275654  1
  Mo  Mo188  1  0.29782535  0.68856221  0.12954081  1
  Mo  Mo189  1  0.60129882  0.59906360  0.75918370  1
  Mo  Mo190  1  0.40745866  0.80423418  0.49710413  1
  Mo  Mo191  1  0.40899074  0.40235694  -0.01331819  1
  Mo  Mo192  1  0.79634658  0.80857181  -0.00855165  1
  Mo  Mo193  1  0.09958790  0.91649847  0.87209158  1
  Mo  Mo194  1  0.30707930  0.10986415  0.12572008  1
  Mo  Mo195  1  0.31186523  0.10441032  0.88301025  1
  Mo  Mo196  1  0.19924629  0.40386829  0.24308525  1
  Mo  Mo197  1  0.29651784  0.28386017  0.38509386  1
  Mo  Mo198  1  0.31094835  0.29818097  0.12292242  1
  Mo  Mo199  1  0.79890675  0.79882297  0.24616033  1
