# generated using pymatgen
data_HfZrTaTiMo
_symmetry_space_group_name_H-M   'P 1'
_cell_length_a   15.20272840
_cell_length_b   15.23060839
_cell_length_c   16.84511462
_cell_angle_alpha   89.96316925
_cell_angle_beta   90.06567236
_cell_angle_gamma   90.08593009
_symmetry_Int_Tables_number   1
_chemical_formula_structural   HfZrTaTiMo
_chemical_formula_sum   'Hf40 Zr40 Ta40 Ti40 Mo40'
_cell_volume   3900.42468076
_cell_formula_units_Z   40
loop_
 _symmetry_equiv_pos_site_id
 _symmetry_equiv_pos_as_xyz
  1  'x, y, z'
loop_
 _atom_site_type_symbol
 _atom_site_label
 _atom_site_symmetry_multiplicity
 _atom_site_fract_x
 _atom_site_fract_y
 _atom_site_fract_z
 _atom_site_occupancy
  Hf  Hf0  1  0.60383286  0.00455579  0.74462994  1
  Hf  Hf1  1  0.00498172  0.79116831  0.72959775  1
  Hf  Hf2  1  0.28200365  0.30401713  0.62129808  1
  Hf  Hf3  1  0.19946297  0.38884967  0.75724188  1
  Hf  Hf4  1  0.18397104  0.38865760  0.00644902  1
  Hf  Hf5  1  0.39713822  -0.00500721  -0.01687196  1
  Hf  Hf6  1  0.10482292  0.89552676  0.38525343  1
  Hf  Hf7  1  0.89559679  0.48510473  0.37558301  1
  Hf  Hf8  1  0.09520852  0.08971405  0.61595619  1
  Hf  Hf9  1  0.39991509  0.59839612  0.76073330  1
  Hf  Hf10  1  0.10062717  0.08849681  0.86925579  1
  Hf  Hf11  1  0.80314471  0.21574028  0.25658093  1
  Hf  Hf12  1  0.50305548  0.11844602  0.86397433  1
  Hf  Hf13  1  0.69240860  0.52237425  0.63574380  1
  Hf  Hf14  1  0.70329642  0.91143603  0.87121651  1
  Hf  Hf15  1  0.59350898  0.02549971  -0.00366774  1
  Hf  Hf16  1  0.10271218  0.09802790  0.38434610  1
  Hf  Hf17  1  0.19399689  0.60534483  0.00647965  1
  Hf  Hf18  1  0.88915712  0.48090660  0.62547320  1
  Hf  Hf19  1  0.18615083  0.19034898  0.24095332  1
  Hf  Hf20  1  0.50320869  0.09686373  0.39260073  1
  Hf  Hf21  1  0.50998060  0.30055545  0.38743726  1
  Hf  Hf22  1  0.90442742  0.90483546  0.38590343  1
  Hf  Hf23  1  0.20218224  0.79110191  0.72925777  1
  Hf  Hf24  1  0.10303165  0.48198592  0.61753135  1
  Hf  Hf25  1  0.19379028  0.59747873  0.74079978  1
  Hf  Hf26  1  0.49848963  0.89630618  0.63249942  1
  Hf  Hf27  1  0.40360797  0.78817276  -0.01840665  1
  Hf  Hf28  1  0.60286427  0.61524099  0.77074549  1
  Hf  Hf29  1  0.60273304  -0.01399595  0.50536666  1
  Hf  Hf30  1  0.80483035  0.01555794  0.74315853  1
  Hf  Hf31  1  0.49797690  0.10446669  0.61968793  1
  Hf  Hf32  1  0.19755119  0.80747281  0.00304245  1
  Hf  Hf33  1  -0.00042095  0.19927733  0.00288588  1
  Hf  Hf34  1  0.30162774  0.48779774  0.88570398  1
  Hf  Hf35  1  0.19876450  0.80097175  0.25239466  1
  Hf  Hf36  1  0.38565132  0.19617258  0.50072554  1
  Hf  Hf37  1  0.30570724  0.69661521  0.13468742  1
  Hf  Hf38  1  0.00168667  0.78530105  0.00453706  1
  Hf  Hf39  1  0.59137391  0.60841592  -0.00322103  1
  Zr  Zr40  1  0.61123564  0.21577396  0.74271469  1
  Zr  Zr41  1  0.50041567  0.31265972  0.61749018  1
  Zr  Zr42  1  0.80804645  0.22762741  0.49118677  1
  Zr  Zr43  1  0.30093922  0.29317475  0.12451305  1
  Zr  Zr44  1  0.49829708  0.69565543  0.14114377  1
  Zr  Zr45  1  0.38935331  0.40949431  0.49061522  1
  Zr  Zr46  1  0.90653460  0.10464794  0.38114683  1
  Zr  Zr47  1  0.78936152  0.39916884  0.76524164  1
  Zr  Zr48  1  0.09885663  0.68085328  0.38937550  1
  Zr  Zr49  1  0.30649972  0.89679972  0.12692470  1
  Zr  Zr50  1  0.77457729  0.79632839  0.49474277  1
  Zr  Zr51  1  0.40754382  0.38545072  0.25528539  1
  Zr  Zr52  1  0.52914842  0.70657029  0.62163809  1
  Zr  Zr53  1  0.09162719  0.49714311  0.87161222  1
  Zr  Zr54  1  0.80257886  0.80482080  0.26385728  1
  Zr  Zr55  1  0.70056982  0.49659995  0.89354900  1
  Zr  Zr56  1  0.01463795  -0.00657103  0.00275158  1
  Zr  Zr57  1  0.00309443  0.78904523  0.51675177  1
  Zr  Zr58  1  0.30646243  0.08690737  0.12585557  1
  Zr  Zr59  1  0.30763925  0.49680201  0.13038345  1
  Zr  Zr60  1  0.49882681  0.91360828  0.13327385  1
  Zr  Zr61  1  0.29978133  0.50529407  0.36024890  1
  Zr  Zr62  1  0.89474242  0.91925268  0.60648092  1
  Zr  Zr63  1  0.09905582  0.48176642  0.38671926  1
  Zr  Zr64  1  0.70610640  0.70750894  0.11982861  1
  Zr  Zr65  1  0.19634112  -0.00717669  0.74117942  1
  Zr  Zr66  1  0.59853721  0.21545722  0.25352266  1
  Zr  Zr67  1  0.69729332  0.11564025  0.12391761  1
  Zr  Zr68  1  0.90587187  0.90007162  0.13584254  1
  Zr  Zr69  1  0.70405899  0.91169249  0.12625648  1
  Zr  Zr70  1  0.80262027  0.79780619  0.74952911  1
  Zr  Zr71  1  0.59688185  0.81502248  -0.00998327  1
  Zr  Zr72  1  0.00285401  0.77113960  0.24602838  1
  Zr  Zr73  1  0.27606331  0.29699391  0.37142970  1
  Zr  Zr74  1  0.41254306  0.81484290  0.47983537  1
  Zr  Zr75  1  0.81765974  0.60385203  0.23939114  1
  Zr  Zr76  1  0.60288970  0.80822066  0.26651278  1
  Zr  Zr77  1  0.60756162  0.43046707  0.49550953  1
  Zr  Zr78  1  0.32401265  0.69299574  0.61673145  1
  Zr  Zr79  1  0.81091138  0.00664245  -0.00252206  1
  Ta  Ta80  1  0.70883660  0.31483804  0.61730975  1
  Ta  Ta81  1  0.49309294  0.51356461  0.62781010  1
  Ta  Ta82  1  0.39714394  0.80414038  0.27325613  1
  Ta  Ta83  1  0.90310541  0.10475101  0.86940330  1
  Ta  Ta84  1  0.38899982  0.20752470  0.74743555  1
  Ta  Ta85  1  0.29990206  0.28908917  0.88515103  1
  Ta  Ta86  1  0.20691803  0.79595399  0.51289868  1
  Ta  Ta87  1  0.10061813  0.87947719  0.86765339  1
  Ta  Ta88  1  0.00546038  0.59627514  0.00391414  1
  Ta  Ta89  1  0.81376927  0.80212494  -0.00805325  1
  Ta  Ta90  1  0.39684880  0.00439297  0.75804800  1
  Ta  Ta91  1  -0.00510197  0.59851715  0.74075255  1
  Ta  Ta92  1  0.78963841  0.40705606  0.23780638  1
  Ta  Ta93  1  0.17247545  0.40228119  0.23700033  1
  Ta  Ta94  1  0.91108241  0.48884918  0.11422010  1
  Ta  Ta95  1  0.88285563  0.68316770  0.61720682  1
  Ta  Ta96  1  0.29704403  0.10427346  0.87491125  1
  Ta  Ta97  1  0.90889410  0.10635262  0.13653577  1
  Ta  Ta98  1  0.69010075  0.29729085  0.89567429  1
  Ta  Ta99  1  0.29757986  0.69879101  0.37753128  1
  Ta  Ta100  1  0.42053907  0.60016945  0.48394742  1
  Ta  Ta101  1  0.79823997  0.01302843  0.25765499  1
  Ta  Ta102  1  0.90596637  0.12141371  0.61516463  1
  Ta  Ta103  1  0.50854302  0.49427640  0.13774814  1
  Ta  Ta104  1  0.70367351  0.50142837  0.10986434  1
  Ta  Ta105  1  0.28353742  0.69891802  0.87187749  1
  Ta  Ta106  1  0.41024803  0.19909738  0.00153989  1
  Ta  Ta107  1  0.78212017  0.59177142  0.49392674  1
  Ta  Ta108  1  0.69622357  0.31415135  0.10663963  1
  Ta  Ta109  1  0.21541121  -0.00452915  0.50378109  1
  Ta  Ta110  1  0.18449238  0.60077824  0.24238268  1
  Ta  Ta111  1  0.07618030  0.28449197  0.63575975  1
  Ta  Ta112  1  0.19654722  0.18133770  0.00501910  1
  Ta  Ta113  1  -0.01205516  0.37188913  0.50388915  1
  Ta  Ta114  1  0.81726324  0.60926520  0.00004581  1
  Ta  Ta115  1  0.31120866  0.90377162  0.62568167  1
  Ta  Ta116  1  0.71212264  0.70721319  0.88404497  1
  Ta  Ta117  1  0.60039073  0.01631014  0.25876692  1
  Ta  Ta118  1  0.41105578  0.80032169  0.76755539  1
  Ta  Ta119  1  0.89816344  0.68566008  0.38758905  1
  Ti  Ti120  1  0.69328092  0.88631760  0.62915780  1
  Ti  Ti121  1  0.30011947  0.10016182  0.62678341  1
  Ti  Ti122  1  0.70678260  0.32988668  0.37759208  1
  Ti  Ti123  1  0.81081653  0.60447001  0.76604732  1
  Ti  Ti124  1  0.29966664  0.09251991  0.37697087  1
  Ti  Ti125  1  0.59026219  0.40787399  0.75439547  1
  Ti  Ti126  1  0.70950829  0.10817919  0.60710848  1
  Ti  Ti127  1  0.07274475  0.29298363  0.36270666  1
  Ti  Ti128  1  0.69858533  0.11233848  0.38961101  1
  Ti  Ti129  1  0.90361440  0.49809344  0.88536986  1
  Ti  Ti130  1  0.40060561  0.59130142  -0.00258005  1
  Ti  Ti131  1  0.49479635  0.49421077  0.88050275  1
  Ti  Ti132  1  0.70781613  0.11525405  0.87424909  1
  Ti  Ti133  1  0.49069466  0.30896960  0.87851394  1
  Ti  Ti134  1  0.80838213  0.21019866  0.74977818  1
  Ti  Ti135  1  0.50112568  0.29300713  0.12120463  1
  Ti  Ti136  1  0.18150472  0.21278408  0.50051013  1
  Ti  Ti137  1  0.20723118  -0.00418598  0.25852554  1
  Ti  Ti138  1  0.07756064  0.29798993  0.12888587  1
  Ti  Ti139  1  0.19495647  0.19486737  0.75046082  1
  Ti  Ti140  1  0.30814068  0.49538233  0.62191056  1
  Ti  Ti141  1  0.40463906  -0.00489231  0.26543949  1
  Ti  Ti142  1  0.21239569  0.59068389  0.50708685  1
  Ti  Ti143  1  0.79959451  0.20154862  -0.00041023  1
  Ti  Ti144  1  0.51150461  0.68987721  0.36388937  1
  Ti  Ti145  1  0.39938420  0.39812792  0.75026691  1
  Ti  Ti146  1  0.51903958  0.50601697  0.34935924  1
  Ti  Ti147  1  0.57894155  0.39882105  0.00343477  1
  Ti  Ti148  1  0.89098825  0.30287406  0.11810345  1
  Ti  Ti149  1  0.10897208  0.90877093  0.13048705  1
  Ti  Ti150  1  -0.00894805  0.58574624  0.51257724  1
  Ti  Ti151  1  0.01144044  0.00638978  0.24815658  1
  Ti  Ti152  1  -0.00253459  -0.00344825  0.74489907  1
  Ti  Ti153  1  0.29140102  0.90069375  0.86755133  1
  Ti  Ti154  1  0.09257891  0.28713429  0.87291648  1
  Ti  Ti155  1  0.40302506  0.18417019  0.25458133  1
  Ti  Ti156  1  0.69946752  0.91792461  0.37796552  1
  Ti  Ti157  1  0.90996333  0.89795259  0.86891957  1
  Ti  Ti158  1  -0.01020065  0.38637265  0.75516158  1
  Ti  Ti159  1  0.89583646  0.30047264  0.88441938  1
  Mo  Mo160  1  0.01004758  0.57452372  0.24349317  1
  Mo  Mo161  1  -0.01620989  0.39129295  0.24305015  1
  Mo  Mo162  1  0.00513203  -0.00025014  0.50241250  1
  Mo  Mo163  1  0.90350337  0.69084161  0.12075537  1
  Mo  Mo164  1  0.60195600  0.61653965  0.49088075  1
  Mo  Mo165  1  0.59449991  0.20898107  -0.00236075  1
  Mo  Mo166  1  0.09528313  0.69881060  0.86717074  1
  Mo  Mo167  1  0.20118515  -0.00377744  -0.00972142  1
  Mo  Mo168  1  0.49940452  0.90791998  0.86183758  1
  Mo  Mo169  1  0.40100672  0.60389156  0.26349140  1
  Mo  Mo170  1  0.50568405  0.90870199  0.36949212  1
  Mo  Mo171  1  -0.00288778  0.19784237  0.24040372  1
  Mo  Mo172  1  0.60083483  0.79433614  0.48091235  1
  Mo  Mo173  1  0.89964175  0.30676798  0.36382446  1
  Mo  Mo174  1  0.29605698  0.90502703  0.37537838  1
  Mo  Mo175  1  0.00486290  0.20180136  0.49874205  1
  Mo  Mo176  1  -0.00517560  0.39320170  -0.00573635  1
  Mo  Mo177  1  0.70181883  0.68755370  0.36650778  1
  Mo  Mo178  1  0.49213727  0.10664434  0.13288458  1
  Mo  Mo179  1  0.39445449  0.00369300  0.50325511  1
  Mo  Mo180  1  0.09580166  0.49407616  0.12259530  1
  Mo  Mo181  1  0.60720786  0.20770751  0.50813715  1
  Mo  Mo182  1  0.79456414  0.01069180  0.50114599  1
  Mo  Mo183  1  0.49662620  0.69579891  0.87842194  1
  Mo  Mo184  1  0.89340700  0.29711165  0.63605365  1
  Mo  Mo185  1  0.60243160  0.80544718  0.76571798  1
  Mo  Mo186  1  0.61063554  0.39901481  0.23983936  1
  Mo  Mo187  1  0.80048498  0.41264491  0.50113304  1
  Mo  Mo188  1  0.61156118  0.59335617  0.24028168  1
  Mo  Mo189  1  0.69984142  0.51237058  0.36026987  1
  Mo  Mo190  1  0.91404907  0.69320953  0.87077888  1
  Mo  Mo191  1  0.80335163  0.39865474  -0.00008063  1
  Mo  Mo192  1  -0.00706018  0.19149533  0.75754452  1
  Mo  Mo193  1  0.09850282  0.68139915  0.61068872  1
  Mo  Mo194  1  0.18780309  0.39333512  0.50203965  1
  Mo  Mo195  1  0.09965259  0.69582390  0.12853098  1
  Mo  Mo196  1  0.10054791  0.09446415  0.12651235  1
  Mo  Mo197  1  0.40268215  0.39622429  0.00461754  1
  Mo  Mo198  1  0.10774685  0.89585121  0.61181719  1
  Mo  Mo199  1  0.70601729  0.70141409  0.63135132  1
