# generated using pymatgen
data_HfZrTaTiMo
_symmetry_space_group_name_H-M   'P 1'
_cell_length_a   15.21245252
_cell_length_b   15.21336462
_cell_length_c   16.83338806
_cell_angle_alpha   90.02728857
_cell_angle_beta   90.03903970
_cell_angle_gamma   89.96232744
_symmetry_Int_Tables_number   1
_chemical_formula_structural   HfZrTaTiMo
_chemical_formula_sum   'Hf40 Zr40 Ta40 Ti40 Mo40'
_cell_volume   3895.79235641
_cell_formula_units_Z   40
loop_
 _symmetry_equiv_pos_site_id
 _symmetry_equiv_pos_as_xyz
  1  'x, y, z'
loop_
 _atom_site_type_symbol
 _atom_site_label
 _atom_site_symmetry_multiplicity
 _atom_site_fract_x
 _atom_site_fract_y
 _atom_site_fract_z
 _atom_site_occupancy
  Hf  Hf0  1  -0.00441685  0.59769210  0.00432689  1
  Hf  Hf1  1  0.29540203  0.68973377  0.36452875  1
  Hf  Hf2  1  0.29995924  0.88977091  0.61908696  1
  Hf  Hf3  1  0.71019468  0.50305815  0.62574260  1
  Hf  Hf4  1  0.09037757  0.29665007  0.10980390  1
  Hf  Hf5  1  0.90391714  0.89206816  0.37216487  1
  Hf  Hf6  1  0.09700608  0.09339102  0.10565430  1
  Hf  Hf7  1  0.80802628  -0.00626228  0.76175560  1
  Hf  Hf8  1  0.59979069  -0.00432536  0.76211908  1
  Hf  Hf9  1  0.48384863  0.50012787  0.62847085  1
  Hf  Hf10  1  0.19137641  0.39937601  0.26178905  1
  Hf  Hf11  1  0.41058356  0.19993299  0.50221707  1
  Hf  Hf12  1  0.36941309  0.00312179  0.75195678  1
  Hf  Hf13  1  0.20556521  0.79999113  0.75465505  1
  Hf  Hf14  1  0.70508676  0.29546851  0.63136527  1
  Hf  Hf15  1  0.48778914  0.10751689  0.86717769  1
  Hf  Hf16  1  0.38732774  0.20554622  -0.00307170  1
  Hf  Hf17  1  0.30112375  0.50281314  0.13007645  1
  Hf  Hf18  1  0.70348765  0.09735707  0.12103172  1
  Hf  Hf19  1  0.89894803  0.91254975  0.11914035  1
  Hf  Hf20  1  0.11383393  0.32299206  0.62052381  1
  Hf  Hf21  1  0.09845674  0.89619776  0.62037482  1
  Hf  Hf22  1  0.48383445  0.52035748  0.37407552  1
  Hf  Hf23  1  0.49944136  0.90417024  0.62730778  1
  Hf  Hf24  1  0.50481059  0.51329227  0.13829841  1
  Hf  Hf25  1  0.20508355  0.39335655  -0.01870276  1
  Hf  Hf26  1  0.10655436  0.88854180  0.37846026  1
  Hf  Hf27  1  0.50770166  0.10961253  0.37050302  1
  Hf  Hf28  1  0.81693439  0.19350723  0.75895260  1
  Hf  Hf29  1  -0.01409363  0.39622468  -0.01898995  1
  Hf  Hf30  1  0.80080109  0.79264585  -0.00009389  1
  Hf  Hf31  1  0.48733712  0.30838583  0.85375136  1
  Hf  Hf32  1  0.27140785  0.49231940  0.62926802  1
  Hf  Hf33  1  0.80947604  0.21084257  -0.01116658  1
  Hf  Hf34  1  0.00087940  0.78975096  0.01233941  1
  Hf  Hf35  1  0.01153314  0.78795067  0.23152611  1
  Hf  Hf36  1  0.80247544  0.78462701  0.24596541  1
  Hf  Hf37  1  0.48338870  0.89633802  0.88088828  1
  Hf  Hf38  1  0.59606635  0.39211319  0.49185074  1
  Hf  Hf39  1  0.61205775  0.61309290  0.26243921  1
  Zr  Zr40  1  0.50121238  0.30650670  0.12533290  1
  Zr  Zr41  1  0.50034208  0.50690048  0.86079005  1
  Zr  Zr42  1  0.69923712  0.09961310  0.63481195  1
  Zr  Zr43  1  0.70027701  0.68775626  0.87480640  1
  Zr  Zr44  1  0.32399858  0.88954098  0.10916555  1
  Zr  Zr45  1  0.81248147  0.39397811  0.50328007  1
  Zr  Zr46  1  -0.00704284  0.21128469  0.24480596  1
  Zr  Zr47  1  0.10109621  0.49805216  0.12026178  1
  Zr  Zr48  1  0.20280990  -0.00382568  0.50101857  1
  Zr  Zr49  1  0.79248079  -0.00111577  0.49897456  1
  Zr  Zr50  1  0.19367239  0.19431621  0.24846338  1
  Zr  Zr51  1  0.38899975  0.40553092  0.49373802  1
  Zr  Zr52  1  0.70956995  0.30931494  0.12371248  1
  Zr  Zr53  1  0.60104306  0.39474062  0.27140592  1
  Zr  Zr54  1  0.90048539  0.90280990  0.62403369  1
  Zr  Zr55  1  0.89530666  0.10765787  0.37577936  1
  Zr  Zr56  1  0.40935788  -0.01061731  0.24694268  1
  Zr  Zr57  1  0.92165486  0.49528988  0.64106630  1
  Zr  Zr58  1  0.59472095  0.60821509  0.73912187  1
  Zr  Zr59  1  0.39953333  0.20055731  0.24512070  1
  Zr  Zr60  1  0.80648051  0.39870313  0.25760946  1
  Zr  Zr61  1  0.59190026  0.78856757  -0.00836678  1
  Zr  Zr62  1  0.59624226  0.21084429  -0.00207589  1
  Zr  Zr63  1  0.49139544  0.29380058  0.64242959  1
  Zr  Zr64  1  0.49834019  0.71563360  0.13331370  1
  Zr  Zr65  1  0.21836083  0.19810044  0.76360134  1
  Zr  Zr66  1  0.79545244  0.79894470  0.76022182  1
  Zr  Zr67  1  0.09251750  0.11544344  0.62261412  1
  Zr  Zr68  1  0.68754942  0.89795734  0.12101712  1
  Zr  Zr69  1  0.39251788  0.40152309  0.26514285  1
  Zr  Zr70  1  0.69247389  0.30747918  0.86482867  1
  Zr  Zr71  1  0.41006979  0.41437448  -0.00155957  1
  Zr  Zr72  1  0.70219628  0.70673956  0.62081010  1
  Zr  Zr73  1  0.48393579  0.71071786  0.61447250  1
  Zr  Zr74  1  0.59743764  0.60530126  0.49653837  1
  Zr  Zr75  1  0.29920978  0.08935427  0.37669210  1
  Zr  Zr76  1  0.00295576  0.00169897  0.24749607  1
  Zr  Zr77  1  0.80824299  0.79499848  0.49596771  1
  Zr  Zr78  1  0.09692607  0.11117654  0.38943076  1
  Zr  Zr79  1  0.00494031  0.80435853  0.75534986  1
  Ta  Ta80  1  0.29175874  0.29192199  0.38731436  1
  Ta  Ta81  1  0.40789638  -0.00152501  0.50091284  1
  Ta  Ta82  1  0.20377570  -0.01255205  0.24020449  1
  Ta  Ta83  1  0.60212108  0.81633227  0.48564350  1
  Ta  Ta84  1  0.29657972  0.09446737  0.11137744  1
  Ta  Ta85  1  0.50080820  0.08528606  0.11732284  1
  Ta  Ta86  1  0.69910406  0.10057829  0.87413941  1
  Ta  Ta87  1  0.92001895  0.28679909  0.62981737  1
  Ta  Ta88  1  0.90897755  0.90341017  0.88741826  1
  Ta  Ta89  1  0.59595225  0.00631191  0.50210678  1
  Ta  Ta90  1  0.09670853  0.31167757  0.39321083  1
  Ta  Ta91  1  0.90831247  0.30202596  0.38592165  1
  Ta  Ta92  1  0.69691925  0.09274677  0.37011831  1
  Ta  Ta93  1  0.28872741  0.29883767  0.12140778  1
  Ta  Ta94  1  0.49580771  0.71466471  0.37595529  1
  Ta  Ta95  1  0.70875675  0.28150182  0.38077011  1
  Ta  Ta96  1  0.70666004  0.50045300  0.86449662  1
  Ta  Ta97  1  0.39705563  0.79531395  0.75353097  1
  Ta  Ta98  1  0.81911696  0.59848609  0.49973303  1
  Ta  Ta99  1  0.60231419  0.82077259  0.26458942  1
  Ta  Ta100  1  -0.00126634  0.19635542  -0.02244865  1
  Ta  Ta101  1  0.90953545  0.68920383  0.63601856  1
  Ta  Ta102  1  0.00831000  0.01151567  0.75983914  1
  Ta  Ta103  1  0.20517067  0.78316977  0.00421848  1
  Ta  Ta104  1  0.11279200  0.89661120  0.11263628  1
  Ta  Ta105  1  0.59416510  0.80457752  0.75987907  1
  Ta  Ta106  1  0.20703828  0.59612518  -0.00926693  1
  Ta  Ta107  1  0.71458915  0.50643051  0.38318044  1
  Ta  Ta108  1  0.11547080  0.08558451  0.88764968  1
  Ta  Ta109  1  0.20254587  0.77471619  0.50077179  1
  Ta  Ta110  1  0.10153679  0.69591642  0.87888781  1
  Ta  Ta111  1  0.29016121  0.90632956  0.89171180  1
  Ta  Ta112  1  0.01159855  0.21030842  0.77383111  1
  Ta  Ta113  1  0.69105684  0.89806081  0.62695024  1
  Ta  Ta114  1  0.10313690  0.89788624  0.89219315  1
  Ta  Ta115  1  0.78959602  -0.00492104  0.25284035  1
  Ta  Ta116  1  0.60109901  -0.00055678  -0.01348632  1
  Ta  Ta117  1  0.91596959  0.68400007  0.36833999  1
  Ta  Ta118  1  -0.00046360  0.40347950  0.25351586  1
  Ta  Ta119  1  0.89976657  0.50841037  0.85867252  1
  Ti  Ti120  1  0.39664955  0.80299148  0.49054246  1
  Ti  Ti121  1  0.29924963  0.69064130  0.13172210  1
  Ti  Ti122  1  0.89976839  0.11241313  0.11667412  1
  Ti  Ti123  1  0.18892399  0.59659828  0.76128993  1
  Ti  Ti124  1  0.49879318  0.09997841  0.63766488  1
  Ti  Ti125  1  0.18358221  0.60139432  0.25486844  1
  Ti  Ti126  1  0.90951155  0.50203121  0.37347185  1
  Ti  Ti127  1  0.30395276  0.70152668  0.87773199  1
  Ti  Ti128  1  0.20353791  0.79616245  0.24099087  1
  Ti  Ti129  1  0.89014490  0.48939662  0.12642718  1
  Ti  Ti130  1  0.70163847  0.50365245  0.12821109  1
  Ti  Ti131  1  -0.00874126  0.00893024  0.50352524  1
  Ti  Ti132  1  0.70245815  0.68930143  0.12629527  1
  Ti  Ti133  1  0.18525441  0.39991312  0.77053310  1
  Ti  Ti134  1  0.60203489  0.58376557  -0.00018805  1
  Ti  Ti135  1  0.90324623  0.69424299  0.86872212  1
  Ti  Ti136  1  0.00698004  0.77904233  0.50156961  1
  Ti  Ti137  1  0.80165333  0.19886694  0.24758541  1
  Ti  Ti138  1  0.50360381  0.91213031  0.37756099  1
  Ti  Ti139  1  0.49019413  0.69409424  0.87006449  1
  Ti  Ti140  1  0.80061168  0.59416425  0.00266046  1
  Ti  Ti141  1  0.60576022  0.19751027  0.24694552  1
  Ti  Ti142  1  0.70999024  0.70321606  0.37998804  1
  Ti  Ti143  1  0.30538091  0.49918892  0.86321910  1
  Ti  Ti144  1  0.81259959  0.39613582  0.75039299  1
  Ti  Ti145  1  0.40241979  0.79854275  0.25593408  1
  Ti  Ti146  1  0.81126133  0.19229303  0.50946094  1
  Ti  Ti147  1  0.79219108  0.40973488  -0.00822127  1
  Ti  Ti148  1  0.30014412  0.10882670  0.61868468  1
  Ti  Ti149  1  0.60846174  0.19696422  0.49953665  1
  Ti  Ti150  1  0.30258580  0.89194660  0.37527059  1
  Ti  Ti151  1  0.10404704  0.68194610  0.62949213  1
  Ti  Ti152  1  0.80316556  0.00578635  -0.01390652  1
  Ti  Ti153  1  0.60248226  0.40399884  0.74043809  1
  Ti  Ti154  1  0.17299409  0.58742534  0.48796793  1
  Ti  Ti155  1  0.36816663  0.60898716  0.50519943  1
  Ti  Ti156  1  0.40101392  0.61335291  0.00033944  1
  Ti  Ti157  1  -0.00996692  0.59879512  0.23208519  1
  Ti  Ti158  1  0.01200660  0.42440099  0.49906977  1
  Ti  Ti159  1  0.37964332  0.60642942  0.74048127  1
  Mo  Mo160  1  0.80471648  0.59409741  0.25189816  1
  Mo  Mo161  1  0.60395946  0.19563565  0.75303111  1
  Mo  Mo162  1  0.20710482  0.21166867  0.50541426  1
  Mo  Mo163  1  0.19679687  0.41361885  0.48548652  1
  Mo  Mo164  1  0.00648405  0.39525572  0.76678558  1
  Mo  Mo165  1  0.09723267  0.70301460  0.36960270  1
  Mo  Mo166  1  0.20144147  0.19823827  -0.01002993  1
  Mo  Mo167  1  0.18724234  -0.00854312  0.75476482  1
  Mo  Mo168  1  0.90157373  0.30300141  0.12028610  1
  Mo  Mo169  1  0.51048069  0.90394400  0.11738481  1
  Mo  Mo170  1  -0.00595494  -0.00135766  -0.00012739  1
  Mo  Mo171  1  0.91163833  0.10443925  0.63019292  1
  Mo  Mo172  1  0.30577223  0.30285905  0.86990802  1
  Mo  Mo173  1  -0.00413417  0.21546447  0.50469483  1
  Mo  Mo174  1  0.89155637  0.68515619  0.12572753  1
  Mo  Mo175  1  0.28269480  0.50165871  0.37537907  1
  Mo  Mo176  1  0.11332717  0.69308522  0.12169329  1
  Mo  Mo177  1  0.10367386  0.29701038  0.88193786  1
  Mo  Mo178  1  0.37122560  0.39608560  0.74731002  1
  Mo  Mo179  1  0.01016810  0.60409031  0.76125663  1
  Mo  Mo180  1  0.50825757  0.29753119  0.37672564  1
  Mo  Mo181  1  0.39453424  0.19582819  0.74212016  1
  Mo  Mo182  1  0.39347872  0.61111318  0.25067466  1
  Mo  Mo183  1  0.90767815  0.09561929  0.87991695  1
  Mo  Mo184  1  0.20256745  -0.00704017  0.00962297  1
  Mo  Mo185  1  0.60335481  0.00797227  0.24782233  1
  Mo  Mo186  1  0.69851066  0.90192915  0.37144862  1
  Mo  Mo187  1  0.89626634  0.30934543  0.86657744  1
  Mo  Mo188  1  0.29385412  0.29415300  0.61350344  1
  Mo  Mo189  1  0.08183885  0.51563601  0.36389355  1
  Mo  Mo190  1  -0.00129101  0.60803631  0.50197753  1
  Mo  Mo191  1  0.40710389  0.00181555  -0.00105859  1
  Mo  Mo192  1  0.28752847  0.69356560  0.62273204  1
  Mo  Mo193  1  0.10086232  0.50798321  0.87898386  1
  Mo  Mo194  1  0.80570804  0.59825660  0.74860986  1
  Mo  Mo195  1  0.29873063  0.09160006  0.88987431  1
  Mo  Mo196  1  0.61195630  0.41863379  -0.00344508  1
  Mo  Mo197  1  0.39421046  0.78521135  -0.00703239  1
  Mo  Mo198  1  0.70050011  0.90269467  0.88465572  1
  Mo  Mo199  1  0.09760518  0.51013890  0.63184368  1
