# generated using pymatgen
data_HfZrTaTiMo
_symmetry_space_group_name_H-M   'P 1'
_cell_length_a   15.21768685
_cell_length_b   15.21237577
_cell_length_c   16.84014729
_cell_angle_alpha   90.01947794
_cell_angle_beta   90.02929205
_cell_angle_gamma   89.91970682
_symmetry_Int_Tables_number   1
_chemical_formula_structural   HfZrTaTiMo
_chemical_formula_sum   'Hf40 Zr40 Ta40 Ti40 Mo40'
_cell_volume   3898.44189016
_cell_formula_units_Z   40
loop_
 _symmetry_equiv_pos_site_id
 _symmetry_equiv_pos_as_xyz
  1  'x, y, z'
loop_
 _atom_site_type_symbol
 _atom_site_label
 _atom_site_symmetry_multiplicity
 _atom_site_fract_x
 _atom_site_fract_y
 _atom_site_fract_z
 _atom_site_occupancy
  Hf  Hf0  1  0.50182530  0.50239977  0.88411117  1
  Hf  Hf1  1  0.30662616  0.29604567  0.36146230  1
  Hf  Hf2  1  -0.00797052  0.59100432  0.74522173  1
  Hf  Hf3  1  0.09670764  0.48698639  0.87948011  1
  Hf  Hf4  1  0.88874967  0.70498345  0.63009271  1
  Hf  Hf5  1  0.28589801  0.89441496  0.38106726  1
  Hf  Hf6  1  0.51069438  0.10015388  0.62243557  1
  Hf  Hf7  1  0.79617126  0.19548757  0.25141304  1
  Hf  Hf8  1  0.48663652  0.29871544  0.11801255  1
  Hf  Hf9  1  0.91063719  0.10786791  0.63978556  1
  Hf  Hf10  1  0.89926730  0.49865498  0.36195717  1
  Hf  Hf11  1  0.10540554  0.29123145  0.11867268  1
  Hf  Hf12  1  0.70281382  0.49300964  0.89071030  1
  Hf  Hf13  1  0.38676390  0.60181643  -0.00186548  1
  Hf  Hf14  1  -0.00404468  -0.00235950  -0.01689554  1
  Hf  Hf15  1  0.49300081  0.70472439  0.11889053  1
  Hf  Hf16  1  0.29683889  0.49482181  0.86837513  1
  Hf  Hf17  1  0.22375731  0.39005746  0.01189771  1
  Hf  Hf18  1  0.40061914  0.00446422  0.49138881  1
  Hf  Hf19  1  0.81699425  0.39469135  0.75942696  1
  Hf  Hf20  1  0.80561168  0.80996848  0.00034744  1
  Hf  Hf21  1  0.40388957  0.59225929  0.26422976  1
  Hf  Hf22  1  -0.01106917  0.81781596  0.50053074  1
  Hf  Hf23  1  0.30583114  0.70332794  0.61012718  1
  Hf  Hf24  1  -0.01019277  0.61505989  0.49174355  1
  Hf  Hf25  1  0.20403916  0.40726872  0.24496016  1
  Hf  Hf26  1  0.50753855  0.50440998  0.62796449  1
  Hf  Hf27  1  0.89209389  0.30466019  0.37674133  1
  Hf  Hf28  1  0.21098888  0.00374909  0.00715237  1
  Hf  Hf29  1  0.90181462  0.50744803  0.88510059  1
  Hf  Hf30  1  -0.00149008  0.17868735  0.49271118  1
  Hf  Hf31  1  0.00579676  0.61146239  0.01015819  1
  Hf  Hf32  1  0.62142998  0.38685707  0.48653463  1
  Hf  Hf33  1  0.91520454  0.71705332  0.13421850  1
  Hf  Hf34  1  0.88958398  0.30932197  0.60514161  1
  Hf  Hf35  1  0.48782877  0.29470459  0.62299396  1
  Hf  Hf36  1  0.69958441  0.69426052  0.87886074  1
  Hf  Hf37  1  0.70905403  0.09756700  0.63466002  1
  Hf  Hf38  1  0.78888899  0.59481555  0.48583224  1
  Hf  Hf39  1  0.49417059  0.72468346  0.88828082  1
  Zr  Zr40  1  0.40524656  0.79780265  0.26254299  1
  Zr  Zr41  1  0.18832918  -0.01161639  0.24163739  1
  Zr  Zr42  1  0.70259898  0.09561417  0.11835558  1
  Zr  Zr43  1  0.60233511  0.39853861  0.76112504  1
  Zr  Zr44  1  0.70709596  0.49571730  0.62555287  1
  Zr  Zr45  1  0.09494250  0.30067009  0.37602086  1
  Zr  Zr46  1  0.70482199  0.89081233  0.62856859  1
  Zr  Zr47  1  0.68776771  0.69536082  0.62613817  1
  Zr  Zr48  1  0.58739232  0.19641531  0.77243913  1
  Zr  Zr49  1  0.40444599  0.61330693  0.75246444  1
  Zr  Zr50  1  0.41560947  0.40792158  0.48555077  1
  Zr  Zr51  1  0.79476171  0.81588639  0.24254928  1
  Zr  Zr52  1  0.29320652  0.70255373  0.13312714  1
  Zr  Zr53  1  0.69334103  0.70467057  0.36195500  1
  Zr  Zr54  1  0.69269251  0.28935017  0.63013653  1
  Zr  Zr55  1  0.10315880  0.69023082  0.86508111  1
  Zr  Zr56  1  0.80824923  0.60472844  0.01926533  1
  Zr  Zr57  1  0.68117959  0.89669396  0.87899128  1
  Zr  Zr58  1  0.19535710  0.19686197  0.75742771  1
  Zr  Zr59  1  0.08698929  0.88906576  0.11736079  1
  Zr  Zr60  1  0.82321602  -0.00695047  0.50159034  1
  Zr  Zr61  1  0.18691718  0.39341715  0.74363747  1
  Zr  Zr62  1  0.29967315  0.09873368  0.36447172  1
  Zr  Zr63  1  0.29726423  0.11494301  0.14082814  1
  Zr  Zr64  1  0.09953133  0.50149506  0.37935260  1
  Zr  Zr65  1  0.30085758  0.08550179  0.86553513  1
  Zr  Zr66  1  0.20849917  0.39184524  0.50353813  1
  Zr  Zr67  1  0.12368930  0.90308922  0.86807230  1
  Zr  Zr68  1  0.11019715  0.71801615  0.37401921  1
  Zr  Zr69  1  0.08641175  0.49845032  0.61162302  1
  Zr  Zr70  1  0.61298974  0.00749651  0.49101419  1
  Zr  Zr71  1  0.76822149  0.19459126  0.47622821  1
  Zr  Zr72  1  0.01505468  0.01845334  0.76597020  1
  Zr  Zr73  1  0.30885515  0.49473379  0.62534932  1
  Zr  Zr74  1  0.49458187  0.08710698  0.11868505  1
  Zr  Zr75  1  0.09065801  0.28636546  0.61813273  1
  Zr  Zr76  1  0.68675399  0.71265336  0.13039203  1
  Zr  Zr77  1  0.31268962  0.11500497  0.63243497  1
  Zr  Zr78  1  0.37081377  0.20323763  -0.00557609  1
  Zr  Zr79  1  0.20269110  0.79070403  -0.00216368  1
  Ta  Ta80  1  0.41362466  -0.01269948  0.74494892  1
  Ta  Ta81  1  -0.00586852  0.18971421  0.24941764  1
  Ta  Ta82  1  0.09566999  0.70892516  0.62807162  1
  Ta  Ta83  1  0.70824223  0.90840106  0.37451812  1
  Ta  Ta84  1  0.69244528  0.50063247  0.12874216  1
  Ta  Ta85  1  0.58600293  0.58859701  0.47908139  1
  Ta  Ta86  1  0.18745759  0.00712562  0.51267529  1
  Ta  Ta87  1  0.61001709  -0.01455565  0.24927230  1
  Ta  Ta88  1  -0.00131916  0.82183160  0.26078398  1
  Ta  Ta89  1  0.90343861  0.30902338  0.90112208  1
  Ta  Ta90  1  0.80200660  0.59758461  0.24111441  1
  Ta  Ta91  1  0.70422263  0.29719799  0.90210004  1
  Ta  Ta92  1  0.59365946  0.59765600  0.25464365  1
  Ta  Ta93  1  0.09883571  0.29379735  0.89498785  1
  Ta  Ta94  1  0.89610582  0.11685079  0.87887946  1
  Ta  Ta95  1  0.49083253  0.30487532  0.89680915  1
  Ta  Ta96  1  0.39485536  0.37570361  0.75626297  1
  Ta  Ta97  1  0.69174444  0.29905183  0.11194059  1
  Ta  Ta98  1  -0.00155939  0.80269289  0.75902485  1
  Ta  Ta99  1  0.41466353  -0.00436567  0.25758958  1
  Ta  Ta100  1  0.30792390  0.90035986  0.61659259  1
  Ta  Ta101  1  0.90085864  0.28111130  0.11357732  1
  Ta  Ta102  1  0.80207354  0.00275588  -0.00579234  1
  Ta  Ta103  1  0.20568082  0.60783995  0.25913436  1
  Ta  Ta104  1  0.21084649  0.80018654  0.73801087  1
  Ta  Ta105  1  0.51348289  0.29142479  0.36392826  1
  Ta  Ta106  1  0.80139889  0.00288333  0.76686369  1
  Ta  Ta107  1  0.20916832  0.19322088  0.50138154  1
  Ta  Ta108  1  0.80603988  0.40437201  0.02303953  1
  Ta  Ta109  1  0.50228200  0.49875826  0.11986999  1
  Ta  Ta110  1  0.50021379  0.89304468  0.61306970  1
  Ta  Ta111  1  0.19610171  0.58995260  0.00732700  1
  Ta  Ta112  1  0.08132512  0.09955834  0.11983870  1
  Ta  Ta113  1  0.90302429  0.90439231  0.64715502  1
  Ta  Ta114  1  0.80105349  0.39518518  0.22735207  1
  Ta  Ta115  1  0.19812642  0.60317007  0.73774504  1
  Ta  Ta116  1  0.59978907  -0.00507746  0.75187411  1
  Ta  Ta117  1  0.31967557  0.90323317  0.12727218  1
  Ta  Ta118  1  0.49530615  0.70298517  0.60298157  1
  Ta  Ta119  1  0.08538831  0.92109184  0.38246636  1
  Ti  Ti120  1  0.60482959  0.79551899  0.49379016  1
  Ti  Ti121  1  0.19054301  0.20307636  0.25013500  1
  Ti  Ti122  1  0.60216087  0.39573075  0.24408431  1
  Ti  Ti123  1  0.57308342  0.80303939  0.74535096  1
  Ti  Ti124  1  0.59436274  0.19366458  -0.00363370  1
  Ti  Ti125  1  -0.00896379  0.80185035  -0.02771646  1
  Ti  Ti126  1  0.79616339  0.59883238  0.75422350  1
  Ti  Ti127  1  0.29487259  0.70195335  0.86938413  1
  Ti  Ti128  1  0.00151936  0.60848458  0.25555793  1
  Ti  Ti129  1  0.40951518  0.39834429  0.25278461  1
  Ti  Ti130  1  0.81411404  -0.00071570  0.24063255  1
  Ti  Ti131  1  0.70174767  0.48573995  0.35700660  1
  Ti  Ti132  1  0.51287525  0.09887779  0.36784757  1
  Ti  Ti133  1  -0.00373585  0.39325139  0.23417777  1
  Ti  Ti134  1  0.10138673  0.09922578  0.37089774  1
  Ti  Ti135  1  0.21037224  -0.00506194  0.73462910  1
  Ti  Ti136  1  0.09478717  0.90653213  0.63175701  1
  Ti  Ti137  1  0.60096687  0.60290615  0.00519788  1
  Ti  Ti138  1  0.50861392  0.89045606  0.37976250  1
  Ti  Ti139  1  0.00300935  0.40948758  0.02098134  1
  Ti  Ti140  1  0.40623256  0.20425762  0.48926260  1
  Ti  Ti141  1  0.10703510  0.70180740  0.14322982  1
  Ti  Ti142  1  0.10241227  0.51070884  0.13397760  1
  Ti  Ti143  1  0.30695703  0.70099011  0.39384839  1
  Ti  Ti144  1  0.89617172  0.49759295  0.61361939  1
  Ti  Ti145  1  0.90584465  0.07661337  0.36918580  1
  Ti  Ti146  1  0.30893284  0.49885111  0.13125610  1
  Ti  Ti147  1  0.59950969  0.60631356  0.75515739  1
  Ti  Ti148  1  0.30121838  0.50488942  0.38060042  1
  Ti  Ti149  1  0.19135308  0.80937164  0.51170733  1
  Ti  Ti150  1  0.32490671  0.88779319  0.87313333  1
  Ti  Ti151  1  0.59809450  0.19435754  0.24427259  1
  Ti  Ti152  1  0.69759390  0.09868014  0.88533749  1
  Ti  Ti153  1  0.80273766  0.79327220  0.48787220  1
  Ti  Ti154  1  0.20023154  0.60347658  0.50265514  1
  Ti  Ti155  1  -0.00703387  0.22612889  0.76255567  1
  Ti  Ti156  1  0.51486022  0.89410558  0.11504571  1
  Ti  Ti157  1  0.79647795  0.20435827  0.76627233  1
  Ti  Ti158  1  0.49789876  0.08340026  0.88778313  1
  Ti  Ti159  1  0.79976814  0.79931518  0.76328251  1
  Mo  Mo160  1  0.49786435  0.69937516  0.38798229  1
  Mo  Mo161  1  0.39949043  0.80574633  0.74086400  1
  Mo  Mo162  1  0.60036988  0.40227355  0.00768420  1
  Mo  Mo163  1  0.89548237  0.90290835  0.85936769  1
  Mo  Mo164  1  0.40171805  -0.00953824  0.00238995  1
  Mo  Mo165  1  0.30259031  0.30428445  0.14871147  1
  Mo  Mo166  1  0.39892659  0.59921407  0.48783709  1
  Mo  Mo167  1  0.51005325  0.49157027  0.36252398  1
  Mo  Mo168  1  0.59907444  0.79907128  0.00078958  1
  Mo  Mo169  1  0.19647273  0.80048300  0.25586278  1
  Mo  Mo170  1  0.19053100  0.19239836  -0.00087226  1
  Mo  Mo171  1  -0.00751415  0.39390053  0.75649170  1
  Mo  Mo172  1  0.58964912  0.80898942  0.25424608  1
  Mo  Mo173  1  0.79996313  0.40655877  0.48897000  1
  Mo  Mo174  1  -0.01140471  0.40376774  0.49396521  1
  Mo  Mo175  1  0.00353867  0.00067244  0.50971038  1
  Mo  Mo176  1  0.90231975  0.09434667  0.11962834  1
  Mo  Mo177  1  0.89785144  0.91548866  0.11753714  1
  Mo  Mo178  1  0.90912189  0.49910153  0.14290178  1
  Mo  Mo179  1  0.89760590  0.89653225  0.37254896  1
  Mo  Mo180  1  0.60192591  -0.00196420  -0.00159093  1
  Mo  Mo181  1  0.29786368  0.30021634  0.87576197  1
  Mo  Mo182  1  0.89596453  0.70277350  0.86575631  1
  Mo  Mo183  1  0.40037922  0.40819007  0.00520273  1
  Mo  Mo184  1  0.10442276  0.09704411  0.62623100  1
  Mo  Mo185  1  0.39380760  0.81146801  0.00552572  1
  Mo  Mo186  1  0.40807847  0.19559071  0.76920880  1
  Mo  Mo187  1  0.69459685  0.90746145  0.11291506  1
  Mo  Mo188  1  -0.00643859  0.00709234  0.24797563  1
  Mo  Mo189  1  0.09874736  0.11024010  0.88606528  1
  Mo  Mo190  1  0.49394611  0.90995550  0.87705577  1
  Mo  Mo191  1  0.79678186  0.19780041  -0.00195364  1
  Mo  Mo192  1  -0.00316392  0.19850498  -0.00070821  1
  Mo  Mo193  1  0.69670394  0.30161518  0.35050972  1
  Mo  Mo194  1  0.40425995  0.80562249  0.49056441  1
  Mo  Mo195  1  0.41310985  0.19813801  0.25576981  1
  Mo  Mo196  1  0.59089117  0.19533990  0.48751621  1
  Mo  Mo197  1  0.89926381  0.70205382  0.35902097  1
  Mo  Mo198  1  0.70034858  0.09304059  0.35303024  1
  Mo  Mo199  1  0.30946594  0.29267913  0.62106904  1
