# generated using pymatgen
data_HfZrTaTiMo
_symmetry_space_group_name_H-M   'P 1'
_cell_length_a   15.21767943
_cell_length_b   15.21495229
_cell_length_c   16.85162809
_cell_angle_alpha   89.99560753
_cell_angle_beta   90.03149312
_cell_angle_gamma   90.00799647
_symmetry_Int_Tables_number   1
_chemical_formula_structural   HfZrTaTiMo
_chemical_formula_sum   'Hf40 Zr40 Ta40 Ti40 Mo40'
_cell_volume   3901.76241116
_cell_formula_units_Z   40
loop_
 _symmetry_equiv_pos_site_id
 _symmetry_equiv_pos_as_xyz
  1  'x, y, z'
loop_
 _atom_site_type_symbol
 _atom_site_label
 _atom_site_symmetry_multiplicity
 _atom_site_fract_x
 _atom_site_fract_y
 _atom_site_fract_z
 _atom_site_occupancy
  Hf  Hf0  1  -0.01257265  -0.00054102  0.73511986  1
  Hf  Hf1  1  0.20410535  0.18761581  0.24506640  1
  Hf  Hf2  1  0.19796076  0.80348121  0.50814892  1
  Hf  Hf3  1  0.01417771  0.38432709  0.00669868  1
  Hf  Hf4  1  0.80646259  0.60201870  0.76444532  1
  Hf  Hf5  1  0.69099675  0.69899670  0.14874217  1
  Hf  Hf6  1  0.20256593  0.00061320  0.75044963  1
  Hf  Hf7  1  0.39489074  0.38945223  0.51538752  1
  Hf  Hf8  1  0.38168688  0.80265631  0.25001189  1
  Hf  Hf9  1  0.00270690  0.59299611  0.01768663  1
  Hf  Hf10  1  -0.01920085  0.79545976  0.49936002  1
  Hf  Hf11  1  0.30272796  0.69886816  0.38389914  1
  Hf  Hf12  1  0.59271673  0.79989024  0.00377932  1
  Hf  Hf13  1  0.58229869  0.01404388  0.26835610  1
  Hf  Hf14  1  0.50388501  0.29224095  0.14032927  1
  Hf  Hf15  1  0.09184288  0.90237127  0.38608532  1
  Hf  Hf16  1  0.21010710  0.20795386  0.75301552  1
  Hf  Hf17  1  0.71558954  0.49460746  0.62422610  1
  Hf  Hf18  1  0.10295438  0.49544813  0.36301204  1
  Hf  Hf19  1  0.50410457  0.90522855  0.60995206  1
  Hf  Hf20  1  0.70025790  0.70224377  0.61984805  1
  Hf  Hf21  1  0.19804714  0.79835476  0.74125995  1
  Hf  Hf22  1  0.11489210  0.09617660  0.39203575  1
  Hf  Hf23  1  0.00817512  0.81378014  0.01237629  1
  Hf  Hf24  1  0.70992358  0.49657449  0.14320313  1
  Hf  Hf25  1  0.39290658  0.80420220  0.73720775  1
  Hf  Hf26  1  0.60267295  -0.00639267  0.75379576  1
  Hf  Hf27  1  0.70566808  0.10014605  0.86662381  1
  Hf  Hf28  1  0.21060361  0.59949847  0.75734475  1
  Hf  Hf29  1  -0.00667220  0.79403985  0.74141485  1
  Hf  Hf30  1  0.80429876  0.59705577  0.00473678  1
  Hf  Hf31  1  0.20695080  0.59851876  0.00821784  1
  Hf  Hf32  1  0.29484621  0.09850458  0.10801144  1
  Hf  Hf33  1  -0.00501168  0.20025108  0.51070872  1
  Hf  Hf34  1  0.09194301  0.69046298  0.61622641  1
  Hf  Hf35  1  0.80130494  0.80223266  0.01673415  1
  Hf  Hf36  1  0.60849364  0.39622524  0.50203939  1
  Hf  Hf37  1  -0.00664918  0.39509676  0.49338110  1
  Hf  Hf38  1  0.29019369  0.30576812  0.12500809  1
  Hf  Hf39  1  0.60802366  0.59039626  0.75692126  1
  Zr  Zr40  1  0.40313589  0.59208623  0.74159722  1
  Zr  Zr41  1  0.59781121  0.01214251  -0.00263230  1
  Zr  Zr42  1  0.49898618  0.49491705  0.37481163  1
  Zr  Zr43  1  0.08833201  0.90079990  0.86970507  1
  Zr  Zr44  1  0.79382759  0.20943342  -0.00059795  1
  Zr  Zr45  1  -0.00715567  0.59985024  0.22757756  1
  Zr  Zr46  1  0.28016522  0.89154260  0.11352339  1
  Zr  Zr47  1  0.69899784  0.09894811  0.62195009  1
  Zr  Zr48  1  0.68852695  0.11519725  0.13602990  1
  Zr  Zr49  1  0.60536196  0.59268391  -0.00154589  1
  Zr  Zr50  1  0.30349302  0.28489693  0.37257001  1
  Zr  Zr51  1  0.10585799  0.29734992  0.37933925  1
  Zr  Zr52  1  0.68844288  0.30405646  0.87156165  1
  Zr  Zr53  1  0.91311844  0.50156696  0.63091351  1
  Zr  Zr54  1  0.59427740  0.79755428  0.75111459  1
  Zr  Zr55  1  0.48840365  0.90120564  0.38213874  1
  Zr  Zr56  1  0.49239248  0.90275654  0.13254831  1
  Zr  Zr57  1  -0.00979116  0.38112120  0.23518834  1
  Zr  Zr58  1  0.30686466  0.10245083  0.87841709  1
  Zr  Zr59  1  -0.01054966  0.59588902  0.48405238  1
  Zr  Zr60  1  0.51561526  0.69704677  0.37011596  1
  Zr  Zr61  1  0.59697796  0.18846327  0.49490427  1
  Zr  Zr62  1  0.10181821  0.30367125  0.62825039  1
  Zr  Zr63  1  0.50318293  0.47529390  0.87388564  1
  Zr  Zr64  1  0.90444781  0.29872619  0.86035266  1
  Zr  Zr65  1  0.60261185  0.38439979  0.00839629  1
  Zr  Zr66  1  0.50357131  0.28759718  0.36315713  1
  Zr  Zr67  1  0.19216650  0.22183183  -0.01458605  1
  Zr  Zr68  1  0.89739449  0.11179709  0.12868769  1
  Zr  Zr69  1  0.79377847  0.81777544  0.74983806  1
  Zr  Zr70  1  0.10326161  0.69993736  0.36374488  1
  Zr  Zr71  1  0.80450907  0.00786581  0.26432757  1
  Zr  Zr72  1  0.49135868  0.70128103  0.87700607  1
  Zr  Zr73  1  0.12814812  0.49759441  0.60991461  1
  Zr  Zr74  1  0.12309085  0.72053271  0.13244408  1
  Zr  Zr75  1  0.69911061  0.90861553  0.13905040  1
  Zr  Zr76  1  0.29200456  0.49432298  0.38339307  1
  Zr  Zr77  1  -0.01955296  0.00179365  0.50928484  1
  Zr  Zr78  1  0.01525898  0.58698263  0.76189147  1
  Zr  Zr79  1  0.90711329  0.71061522  0.88281196  1
  Ta  Ta80  1  0.37596379  0.01563669  0.25832590  1
  Ta  Ta81  1  0.60901627  0.38721313  0.74016781  1
  Ta  Ta82  1  0.80945789  0.00272860  0.00124219  1
  Ta  Ta83  1  0.89709742  0.09821933  0.86351856  1
  Ta  Ta84  1  0.88488735  0.30974383  0.63707052  1
  Ta  Ta85  1  0.08530788  0.10825253  0.86886613  1
  Ta  Ta86  1  0.69699400  0.90626423  0.60722045  1
  Ta  Ta87  1  0.81115004  0.22075165  0.26012587  1
  Ta  Ta88  1  0.41713256  0.20767436  -0.00666346  1
  Ta  Ta89  1  0.70186143  0.51705085  0.35959479  1
  Ta  Ta90  1  0.40630735  0.59645235  0.00954522  1
  Ta  Ta91  1  0.09252859  0.08739048  0.12016748  1
  Ta  Ta92  1  0.50108081  0.49878214  0.13319595  1
  Ta  Ta93  1  0.18167016  -0.00129361  -0.01193773  1
  Ta  Ta94  1  0.21530157  0.59544264  0.23738197  1
  Ta  Ta95  1  0.39750238  0.80009511  0.50755852  1
  Ta  Ta96  1  0.88753495  0.69794546  0.62080074  1
  Ta  Ta97  1  0.38829459  0.40201059  0.24561628  1
  Ta  Ta98  1  0.39114836  0.01421341  0.49819096  1
  Ta  Ta99  1  0.70288198  0.89937836  0.88440975  1
  Ta  Ta100  1  0.48933779  0.10352120  0.12824248  1
  Ta  Ta101  1  0.30005570  0.89177796  0.88288275  1
  Ta  Ta102  1  0.40445284  0.59497182  0.50930058  1
  Ta  Ta103  1  0.00682842  0.81968055  0.24367220  1
  Ta  Ta104  1  0.70158081  0.70300442  0.88135448  1
  Ta  Ta105  1  0.30257678  0.49855672  0.88484587  1
  Ta  Ta106  1  0.50336336  0.69702520  0.61450931  1
  Ta  Ta107  1  0.91521693  0.91697324  0.13146544  1
  Ta  Ta108  1  0.00383550  0.18622369  0.25351324  1
  Ta  Ta109  1  0.11150418  0.09523078  0.62153107  1
  Ta  Ta110  1  0.40184436  0.59710168  0.24572138  1
  Ta  Ta111  1  0.50864645  0.28990388  0.63237544  1
  Ta  Ta112  1  0.39958542  -0.00132418  -0.00713404  1
  Ta  Ta113  1  0.49474772  0.09420301  0.62950350  1
  Ta  Ta114  1  0.18365732  -0.01572160  0.25027475  1
  Ta  Ta115  1  0.11021821  0.69933133  0.88652411  1
  Ta  Ta116  1  0.20000097  0.40533534  0.76671646  1
  Ta  Ta117  1  0.80123726  0.21336403  0.49619747  1
  Ta  Ta118  1  0.80294148  0.40631374  0.48914013  1
  Ta  Ta119  1  0.29661685  0.68755043  0.61261039  1
  Ti  Ti120  1  0.60286415  0.39955464  0.25352108  1
  Ti  Ti121  1  0.40041547  0.00118408  0.75470333  1
  Ti  Ti122  1  0.90880464  0.49069847  0.87650604  1
  Ti  Ti123  1  0.39994185  0.19630937  0.51304610  1
  Ti  Ti124  1  0.39271493  0.39279853  0.74080314  1
  Ti  Ti125  1  0.60795743  0.59850356  0.49780900  1
  Ti  Ti126  1  0.50825387  0.11248268  0.86944723  1
  Ti  Ti127  1  0.71083562  0.30199224  0.13888236  1
  Ti  Ti128  1  0.81161640  0.40427435  0.00504841  1
  Ti  Ti129  1  -0.00343312  0.19216646  -0.00231902  1
  Ti  Ti130  1  0.89406132  0.89769677  0.36986944  1
  Ti  Ti131  1  0.79122231  0.79940136  0.48816984  1
  Ti  Ti132  1  0.79857149  0.60638062  0.48600349  1
  Ti  Ti133  1  0.90185574  0.10677165  0.37873382  1
  Ti  Ti134  1  0.39391275  0.39715001  0.00214560  1
  Ti  Ti135  1  0.70913313  0.31184423  0.36806161  1
  Ti  Ti136  1  0.40608573  0.20469247  0.74859764  1
  Ti  Ti137  1  0.50640117  0.49656464  0.62551858  1
  Ti  Ti138  1  0.30265292  0.70118438  0.88016589  1
  Ti  Ti139  1  0.69203995  0.88396855  0.36254407  1
  Ti  Ti140  1  0.60429626  0.79842694  0.49308860  1
  Ti  Ti141  1  0.88769211  0.10638692  0.62916009  1
  Ti  Ti142  1  0.28628816  0.90986983  0.38476160  1
  Ti  Ti143  1  0.49676025  0.69755866  0.13658137  1
  Ti  Ti144  1  0.69523422  0.11376542  0.37167425  1
  Ti  Ti145  1  0.81134121  0.79719564  0.24287819  1
  Ti  Ti146  1  0.00182944  0.20162434  0.73995636  1
  Ti  Ti147  1  0.78376231  0.21028280  0.74139675  1
  Ti  Ti148  1  0.11905745  0.47243035  0.13015058  1
  Ti  Ti149  1  0.39220159  0.79164407  0.00707121  1
  Ti  Ti150  1  0.78064604  0.00102163  0.47989377  1
  Ti  Ti151  1  0.29823466  0.91733624  0.61801944  1
  Ti  Ti152  1  0.89141705  0.49197059  0.35937951  1
  Ti  Ti153  1  0.89203923  0.91201665  0.87709149  1
  Ti  Ti154  1  0.30608571  0.49888212  0.12177010  1
  Ti  Ti155  1  0.88944340  0.69804422  0.35871926  1
  Ti  Ti156  1  0.87778794  0.90166385  0.61801029  1
  Ti  Ti157  1  0.21976738  0.19621355  0.51778372  1
  Ti  Ti158  1  0.09267295  0.90184808  0.61823346  1
  Ti  Ti159  1  0.49425487  0.90204977  0.87865228  1
  Mo  Mo160  1  0.60903675  0.20355988  0.26042438  1
  Mo  Mo161  1  0.40148819  0.19068900  0.24392608  1
  Mo  Mo162  1  0.90088875  0.70960899  0.13371462  1
  Mo  Mo163  1  0.59629126  0.80477277  0.25225852  1
  Mo  Mo164  1  0.80005572  0.00178873  0.74719571  1
  Mo  Mo165  1  0.80092755  0.40371871  0.25509994  1
  Mo  Mo166  1  0.20386325  0.40608491  -0.01051923  1
  Mo  Mo167  1  0.89656663  0.29922007  0.12177704  1
  Mo  Mo168  1  0.20498165  0.80076201  -0.01081451  1
  Mo  Mo169  1  0.20130223  0.80197418  0.26078496  1
  Mo  Mo170  1  0.09837195  0.30316876  0.86139622  1
  Mo  Mo171  1  0.70907990  0.70532811  0.36203012  1
  Mo  Mo172  1  0.60259098  -0.00440231  0.48053560  1
  Mo  Mo173  1  0.70586013  0.30125849  0.62182296  1
  Mo  Mo174  1  0.10315168  0.49854671  0.88506984  1
  Mo  Mo175  1  0.29848097  0.09544221  0.38051174  1
  Mo  Mo176  1  0.09712795  0.27696989  0.12661680  1
  Mo  Mo177  1  0.80611773  0.60338500  0.25007244  1
  Mo  Mo178  1  0.20190990  0.00348849  0.51499558  1
  Mo  Mo179  1  0.20645459  0.59696700  0.49682845  1
  Mo  Mo180  1  0.90116462  0.49435352  0.11875245  1
  Mo  Mo181  1  0.00859780  0.39441856  0.75489157  1
  Mo  Mo182  1  0.31023625  0.10204413  0.63569235  1
  Mo  Mo183  1  0.09990579  0.91323698  0.12204077  1
  Mo  Mo184  1  0.59336690  0.59645562  0.24904907  1
  Mo  Mo185  1  0.79868604  0.40815793  0.75675841  1
  Mo  Mo186  1  0.00128640  0.00689783  0.26184679  1
  Mo  Mo187  1  0.30474945  0.30193295  0.63148992  1
  Mo  Mo188  1  0.20269553  0.40082596  0.24437521  1
  Mo  Mo189  1  0.30840211  0.49561006  0.62362124  1
  Mo  Mo190  1  -0.00841540  0.01184313  -0.00820703  1
  Mo  Mo191  1  0.48171401  0.10339871  0.37786254  1
  Mo  Mo192  1  0.59382629  0.19660000  0.74246467  1
  Mo  Mo193  1  0.31756807  0.31237742  0.87371619  1
  Mo  Mo194  1  0.20504417  0.38709194  0.50300272  1
  Mo  Mo195  1  0.71724704  0.49473110  0.87452126  1
  Mo  Mo196  1  0.31377343  0.69234133  0.12497357  1
  Mo  Mo197  1  0.89731690  0.29607903  0.37935697  1
  Mo  Mo198  1  0.49143392  0.29420484  0.86264067  1
  Mo  Mo199  1  0.59152300  0.19878382  0.00224778  1
