# generated using pymatgen
data_HfZrTaTiMo
_symmetry_space_group_name_H-M   'P 1'
_cell_length_a   15.20742954
_cell_length_b   15.20713110
_cell_length_c   16.86444230
_cell_angle_alpha   89.99335110
_cell_angle_beta   90.06634583
_cell_angle_gamma   89.98021964
_symmetry_Int_Tables_number   1
_chemical_formula_structural   HfZrTaTiMo
_chemical_formula_sum   'Hf40 Zr40 Ta40 Ti40 Mo40'
_cell_volume   3900.09123818
_cell_formula_units_Z   40
loop_
 _symmetry_equiv_pos_site_id
 _symmetry_equiv_pos_as_xyz
  1  'x, y, z'
loop_
 _atom_site_type_symbol
 _atom_site_label
 _atom_site_symmetry_multiplicity
 _atom_site_fract_x
 _atom_site_fract_y
 _atom_site_fract_z
 _atom_site_occupancy
  Hf  Hf0  1  0.70412066  0.70453980  0.11827997  1
  Hf  Hf1  1  0.09099400  0.91038284  0.85825461  1
  Hf  Hf2  1  0.80447488  0.81164582  0.52109987  1
  Hf  Hf3  1  -0.02181685  0.78875120  0.26244790  1
  Hf  Hf4  1  0.59004531  0.80042669  0.50047434  1
  Hf  Hf5  1  0.11563548  0.09860398  0.62556110  1
  Hf  Hf6  1  0.08931400  0.88091057  0.13440595  1
  Hf  Hf7  1  0.60519964  0.59679021  0.25726619  1
  Hf  Hf8  1  0.80270570  0.19442768  -0.01731303  1
  Hf  Hf9  1  0.18178363  0.78285367  -0.01021688  1
  Hf  Hf10  1  0.70695563  0.90124254  0.87259327  1
  Hf  Hf11  1  -0.00733434  -0.00731268  0.49693090  1
  Hf  Hf12  1  0.91338818  0.69717323  0.11247005  1
  Hf  Hf13  1  0.49772736  0.90489470  0.36369403  1
  Hf  Hf14  1  0.31390505  0.09632878  0.37366763  1
  Hf  Hf15  1  0.89220536  0.71417244  0.86680350  1
  Hf  Hf16  1  0.70469054  0.31336594  0.37367998  1
  Hf  Hf17  1  0.67645936  0.69171031  0.63038529  1
  Hf  Hf18  1  0.71379205  0.90863245  0.38388757  1
  Hf  Hf19  1  0.80710700  -0.00633837  0.25116693  1
  Hf  Hf20  1  0.19889682  0.40107734  0.25640495  1
  Hf  Hf21  1  0.31947279  0.09398002  0.88687095  1
  Hf  Hf22  1  0.72771780  0.69917673  0.38097294  1
  Hf  Hf23  1  0.29902316  0.89240672  0.35847867  1
  Hf  Hf24  1  0.39333009  0.79991689  0.49776164  1
  Hf  Hf25  1  0.19683044  -0.00007056  0.24688710  1
  Hf  Hf26  1  0.61130737  0.80234022  0.24949196  1
  Hf  Hf27  1  0.29907456  0.68782735  0.88141373  1
  Hf  Hf28  1  0.91811918  0.09278445  0.86544225  1
  Hf  Hf29  1  0.59661657  0.01237161  0.00966279  1
  Hf  Hf30  1  0.49990231  0.91503325  0.87409748  1
  Hf  Hf31  1  0.28706673  0.29108547  0.88059665  1
  Hf  Hf32  1  0.20788668  -0.01404908  0.49505651  1
  Hf  Hf33  1  0.78850381  0.39629611  -0.01141122  1
  Hf  Hf34  1  0.70840077  0.49291701  0.12268474  1
  Hf  Hf35  1  0.00102913  0.19827501  0.26518628  1
  Hf  Hf36  1  0.58856635  0.41124407  0.49170402  1
  Hf  Hf37  1  0.08748494  0.48611691  0.61595257  1
  Hf  Hf38  1  0.40458560  0.01424351  0.74711953  1
  Hf  Hf39  1  0.41616114  0.59380548  0.50382269  1
  Zr  Zr40  1  0.40503130  0.20400396  0.01163634  1
  Zr  Zr41  1  0.90446125  0.10300414  0.12058936  1
  Zr  Zr42  1  0.60704664  0.01534180  0.24265120  1
  Zr  Zr43  1  0.88956215  0.31057607  0.12100475  1
  Zr  Zr44  1  -0.01482340  0.40810073  0.25640708  1
  Zr  Zr45  1  0.68755255  0.48444664  0.85568809  1
  Zr  Zr46  1  0.49204355  0.49642633  0.12119811  1
  Zr  Zr47  1  0.60618682  0.21459795  -0.00779049  1
  Zr  Zr48  1  0.20351112  0.78392379  0.74855921  1
  Zr  Zr49  1  0.47852039  0.71779847  0.64742911  1
  Zr  Zr50  1  0.49978664  0.11449701  0.62182431  1
  Zr  Zr51  1  0.29684951  0.88211165  0.13270776  1
  Zr  Zr52  1  0.68897400  0.69627162  0.86713274  1
  Zr  Zr53  1  0.39610710  0.40159470  0.75175154  1
  Zr  Zr54  1  0.19804194  0.59745771  0.25503131  1
  Zr  Zr55  1  0.91264361  0.31362730  0.86345160  1
  Zr  Zr56  1  0.59620434  0.80089971  0.00026075  1
  Zr  Zr57  1  0.81259780  -0.00353359  0.73914018  1
  Zr  Zr58  1  0.00139264  0.00277692  0.00054960  1
  Zr  Zr59  1  0.18994207  0.37345647  0.73964308  1
  Zr  Zr60  1  0.79239992  0.20766966  0.75876146  1
  Zr  Zr61  1  0.31103179  0.89054193  0.64165777  1
  Zr  Zr62  1  0.81515706  0.21620929  0.49762681  1
  Zr  Zr63  1  0.87948251  0.51239272  0.38365055  1
  Zr  Zr64  1  0.01471574  0.60738562  -0.00834944  1
  Zr  Zr65  1  0.79848387  0.20356454  0.26028354  1
  Zr  Zr66  1  0.20296403  -0.00497197  0.00932827  1
  Zr  Zr67  1  0.50874435  0.11218377  0.37784991  1
  Zr  Zr68  1  0.10356107  0.29612032  0.12838372  1
  Zr  Zr69  1  0.19080532  0.78940626  0.51138824  1
  Zr  Zr70  1  0.08986146  0.90362657  0.64106942  1
  Zr  Zr71  1  0.20028131  0.57866481  0.73812125  1
  Zr  Zr72  1  0.90509969  0.50918180  0.85651172  1
  Zr  Zr73  1  0.58662694  0.39684030  0.26183814  1
  Zr  Zr74  1  0.81811709  0.60209947  0.24172146  1
  Zr  Zr75  1  0.90466025  0.31093840  0.63774363  1
  Zr  Zr76  1  0.29011716  0.67811310  0.11535536  1
  Zr  Zr77  1  0.79332695  0.60117644  0.73614668  1
  Zr  Zr78  1  0.29588506  0.69150825  0.37448442  1
  Zr  Zr79  1  0.70939574  0.11033577  0.61822501  1
  Ta  Ta80  1  0.78625562  0.42341998  0.51366586  1
  Ta  Ta81  1  0.49579148  0.31044797  0.62714599  1
  Ta  Ta82  1  -0.01579870  0.39205434  0.49126395  1
  Ta  Ta83  1  -0.00369725  -0.00436101  0.26013418  1
  Ta  Ta84  1  0.20790582  0.20336760  0.26155331  1
  Ta  Ta85  1  0.59631802  0.59447192  -0.00349847  1
  Ta  Ta86  1  0.20304470  0.39392073  0.49770047  1
  Ta  Ta87  1  0.20815809  0.19396588  0.48851848  1
  Ta  Ta88  1  0.70374290  0.11127124  0.12302330  1
  Ta  Ta89  1  0.59591590  0.21676221  0.49991587  1
  Ta  Ta90  1  0.20106685  0.59327638  0.51039326  1
  Ta  Ta91  1  0.10199967  0.48318981  0.87112082  1
  Ta  Ta92  1  0.40920471  0.20945488  0.24175802  1
  Ta  Ta93  1  0.50024754  0.89400884  0.12954456  1
  Ta  Ta94  1  0.78679604  0.80940615  0.73116582  1
  Ta  Ta95  1  0.49554351  0.69946198  0.12450061  1
  Ta  Ta96  1  0.30576169  0.28431195  0.61288035  1
  Ta  Ta97  1  0.09495820  0.88772575  0.36863822  1
  Ta  Ta98  1  0.09700659  0.50021220  0.39216787  1
  Ta  Ta99  1  0.02846540  0.21186859  0.75307262  1
  Ta  Ta100  1  0.60623173  -0.00135968  0.50912218  1
  Ta  Ta101  1  0.50188454  0.69608270  0.36981932  1
  Ta  Ta102  1  0.31152034  0.48750096  0.61299762  1
  Ta  Ta103  1  0.09843561  0.28541592  0.60214326  1
  Ta  Ta104  1  0.10128878  0.10126655  0.13329388  1
  Ta  Ta105  1  0.19978914  0.39400021  0.00788022  1
  Ta  Ta106  1  0.12140567  0.11319649  0.87062774  1
  Ta  Ta107  1  0.29484485  0.11749246  0.12779624  1
  Ta  Ta108  1  0.40247150  0.58745956  0.25203807  1
  Ta  Ta109  1  -0.00982340  0.60457936  0.50519490  1
  Ta  Ta110  1  0.10345543  0.09409568  0.37794673  1
  Ta  Ta111  1  0.29879313  0.89812886  0.87112739  1
  Ta  Ta112  1  0.10278725  0.51018094  0.11962572  1
  Ta  Ta113  1  0.89141056  0.89402395  0.12390519  1
  Ta  Ta114  1  0.41222693  -0.00641017  0.50658945  1
  Ta  Ta115  1  0.09860724  0.29754795  0.38680781  1
  Ta  Ta116  1  0.29576010  0.49327109  0.88388394  1
  Ta  Ta117  1  0.92290325  0.10681470  0.62716622  1
  Ta  Ta118  1  0.40300637  0.00863410  0.23075463  1
  Ta  Ta119  1  0.39806093  0.80216462  -0.00489995  1
  Ti  Ti120  1  0.51750256  0.50766834  0.63746490  1
  Ti  Ti121  1  -0.00467288  0.79834123  0.49877142  1
  Ti  Ti122  1  -0.00135971  0.40837200  0.00332554  1
  Ti  Ti123  1  0.09325861  0.69268464  0.38300601  1
  Ti  Ti124  1  -0.00764775  0.80985349  -0.01201037  1
  Ti  Ti125  1  0.39058769  0.60056097  0.74919852  1
  Ti  Ti126  1  0.22625528  0.18348844  0.74436367  1
  Ti  Ti127  1  0.49587488  0.70143153  0.86635786  1
  Ti  Ti128  1  0.50328854  0.29738704  0.12833139  1
  Ti  Ti129  1  0.70623166  0.90496491  0.12078074  1
  Ti  Ti130  1  0.89728714  0.50484999  0.63160798  1
  Ti  Ti131  1  0.09024320  0.68777797  0.85511387  1
  Ti  Ti132  1  0.60710382  -0.00705311  0.73533133  1
  Ti  Ti133  1  0.80222166  0.59509779  -0.00372079  1
  Ti  Ti134  1  0.69530897  0.30084590  0.13675862  1
  Ti  Ti135  1  0.09294231  0.69327861  0.62941894  1
  Ti  Ti136  1  0.49249164  0.50596517  0.87222701  1
  Ti  Ti137  1  0.30187703  0.49547813  0.38665982  1
  Ti  Ti138  1  0.80177577  -0.00251585  -0.00426780  1
  Ti  Ti139  1  0.68536992  0.09711996  0.86735331  1
  Ti  Ti140  1  0.80255328  0.80444452  -0.00367977  1
  Ti  Ti141  1  0.01779091  0.20913682  -0.00695073  1
  Ti  Ti142  1  0.70309225  0.10425247  0.39004157  1
  Ti  Ti143  1  0.30816379  0.29467494  0.38005924  1
  Ti  Ti144  1  0.39748925  0.39976740  -0.00050503  1
  Ti  Ti145  1  -0.01824401  0.81007986  0.74812336  1
  Ti  Ti146  1  0.40389795  -0.00165602  0.01977500  1
  Ti  Ti147  1  0.90511874  0.70474021  0.63074646  1
  Ti  Ti148  1  0.89631692  0.09350873  0.38570537  1
  Ti  Ti149  1  0.40330179  0.38853781  0.49220951  1
  Ti  Ti150  1  0.39096778  0.39981695  0.25663207  1
  Ti  Ti151  1  0.49759439  0.30074342  0.86905700  1
  Ti  Ti152  1  0.30708240  0.09779689  0.61402737  1
  Ti  Ti153  1  0.68881913  0.31555955  0.63228393  1
  Ti  Ti154  1  0.61742853  0.59336185  0.48822832  1
  Ti  Ti155  1  0.00914398  0.59773494  0.25081089  1
  Ti  Ti156  1  0.58737906  0.20231643  0.75595127  1
  Ti  Ti157  1  0.40198123  0.59527204  -0.00059185  1
  Ti  Ti158  1  0.39968953  0.78534255  0.24562219  1
  Ti  Ti159  1  0.59106071  0.40156222  -0.00549175  1
  Mo  Mo160  1  0.20746371  0.00686827  0.75825531  1
  Mo  Mo161  1  0.79916565  0.80442862  0.24334077  1
  Mo  Mo162  1  0.59548925  0.80899101  0.75495988  1
  Mo  Mo163  1  0.79600903  0.40728271  0.24642451  1
  Mo  Mo164  1  0.29581748  0.68019366  0.62273791  1
  Mo  Mo165  1  0.90028225  0.90577737  0.62548331  1
  Mo  Mo166  1  0.60094635  0.20306619  0.24584932  1
  Mo  Mo167  1  0.50516001  0.90667507  0.63049268  1
  Mo  Mo168  1  0.59215347  0.38962666  0.75066305  1
  Mo  Mo169  1  0.57756347  0.59590192  0.75669771  1
  Mo  Mo170  1  0.10243849  0.30016961  0.88508287  1
  Mo  Mo171  1  0.90794275  0.70822518  0.39069589  1
  Mo  Mo172  1  0.30615284  0.31083884  0.13052909  1
  Mo  Mo173  1  0.89605525  0.89838421  0.87287223  1
  Mo  Mo174  1  0.00290335  0.61037565  0.73989122  1
  Mo  Mo175  1  0.29747522  0.48392586  0.11992934  1
  Mo  Mo176  1  0.01058598  0.40645904  0.74242567  1
  Mo  Mo177  1  0.69885923  0.50713749  0.37666240  1
  Mo  Mo178  1  0.19670142  0.19467598  0.00903830  1
  Mo  Mo179  1  0.39974373  0.80246601  0.77462456  1
  Mo  Mo180  1  0.79675196  0.40115526  0.73650951  1
  Mo  Mo181  1  0.50262295  0.10427212  0.13023403  1
  Mo  Mo182  1  0.00691948  0.19467671  0.49122358  1
  Mo  Mo183  1  0.69154009  0.29426895  0.86601074  1
  Mo  Mo184  1  0.90024070  0.90031957  0.38116840  1
  Mo  Mo185  1  0.48794118  0.50606426  0.37350270  1
  Mo  Mo186  1  0.69059546  0.49430270  0.63578953  1
  Mo  Mo187  1  0.40249159  0.20266839  0.49873238  1
  Mo  Mo188  1  0.80167048  0.60529121  0.52330282  1
  Mo  Mo189  1  0.40053276  0.20922773  0.75102983  1
  Mo  Mo190  1  0.49026696  0.29964124  0.37449827  1
  Mo  Mo191  1  0.89951145  0.30615856  0.38036710  1
  Mo  Mo192  1  0.18599297  0.78953817  0.25615934  1
  Mo  Mo193  1  0.19726904  0.58229220  -0.00806555  1
  Mo  Mo194  1  0.80075169  0.00939551  0.51232343  1
  Mo  Mo195  1  0.50930546  0.10881214  0.86703850  1
  Mo  Mo196  1  0.00797884  0.01480464  0.74868509  1
  Mo  Mo197  1  0.90660476  0.50037391  0.11284374  1
  Mo  Mo198  1  0.68836556  0.90083018  0.62339478  1
  Mo  Mo199  1  0.09974477  0.69917607  0.12758480  1
