# generated using pymatgen
data_HfZrTaTiMo
_symmetry_space_group_name_H-M   'P 1'
_cell_length_a   15.21039701
_cell_length_b   15.21447753
_cell_length_c   16.79226738
_cell_angle_alpha   90.00591670
_cell_angle_beta   90.03467963
_cell_angle_gamma   89.91029480
_symmetry_Int_Tables_number   1
_chemical_formula_structural   HfZrTaTiMo
_chemical_formula_sum   'Hf40 Zr40 Ta40 Ti40 Mo40'
_cell_volume   3886.03152677
_cell_formula_units_Z   40
loop_
 _symmetry_equiv_pos_site_id
 _symmetry_equiv_pos_as_xyz
  1  'x, y, z'
loop_
 _atom_site_type_symbol
 _atom_site_label
 _atom_site_symmetry_multiplicity
 _atom_site_fract_x
 _atom_site_fract_y
 _atom_site_fract_z
 _atom_site_occupancy
  Hf  Hf0  1  0.01202178  0.79273876  0.74277583  1
  Hf  Hf1  1  0.59593526  0.41071265  0.25595283  1
  Hf  Hf2  1  -0.01427941  0.59340826  0.74642497  1
  Hf  Hf3  1  0.89240541  0.69313484  0.11444049  1
  Hf  Hf4  1  0.07578009  0.29927472  0.11414352  1
  Hf  Hf5  1  0.40569285  0.81002360  0.74489536  1
  Hf  Hf6  1  0.10890112  0.88798751  0.88547395  1
  Hf  Hf7  1  0.69571904  0.50539887  0.39841720  1
  Hf  Hf8  1  0.50056610  0.71841325  0.60611270  1
  Hf  Hf9  1  0.19932886  0.39284850  0.49238018  1
  Hf  Hf10  1  0.91571002  0.09327360  0.11346032  1
  Hf  Hf11  1  0.30568394  0.89642424  0.88595732  1
  Hf  Hf12  1  0.61565124  0.81669170  0.49598246  1
  Hf  Hf13  1  0.79052374  0.59207899  0.24471746  1
  Hf  Hf14  1  0.00064719  -0.00331040  0.51254473  1
  Hf  Hf15  1  0.88981756  0.69516777  0.37855337  1
  Hf  Hf16  1  0.80078701  0.76788603  0.75834457  1
  Hf  Hf17  1  -0.00224494  0.18788528  0.25352456  1
  Hf  Hf18  1  0.49168979  0.90230192  0.38420439  1
  Hf  Hf19  1  0.90335772  0.89281456  0.87505006  1
  Hf  Hf20  1  0.18443152  0.41699050  0.01233755  1
  Hf  Hf21  1  0.40159477  -0.00384860  0.23415863  1
  Hf  Hf22  1  0.09423351  0.09973264  0.88199906  1
  Hf  Hf23  1  0.40575659  0.19598760  -0.00071958  1
  Hf  Hf24  1  0.00169850  0.79468250  0.49602345  1
  Hf  Hf25  1  0.70983167  0.10222647  0.36827046  1
  Hf  Hf26  1  0.49106714  0.52019854  0.61834474  1
  Hf  Hf27  1  0.89547532  0.28378540  0.38776215  1
  Hf  Hf28  1  0.72034420  0.29572425  0.62043452  1
  Hf  Hf29  1  0.69457840  0.29663204  0.39468472  1
  Hf  Hf30  1  0.50156210  0.31995635  0.85416225  1
  Hf  Hf31  1  0.21267795  0.00330878  0.01649652  1
  Hf  Hf32  1  0.20172899  0.61087178  0.03055654  1
  Hf  Hf33  1  0.19124721  0.21046872  0.75077219  1
  Hf  Hf34  1  0.59477385  0.18245652  0.52355423  1
  Hf  Hf35  1  0.50175160  0.10190353  0.37568904  1
  Hf  Hf36  1  0.60374206  -0.00964347  0.23378546  1
  Hf  Hf37  1  0.09537122  0.49605896  0.36171467  1
  Hf  Hf38  1  0.90484238  0.68601521  0.89486891  1
  Hf  Hf39  1  0.89479502  0.47532080  0.11638618  1
  Zr  Zr40  1  0.09011710  0.30465407  0.88990079  1
  Zr  Zr41  1  0.30616867  0.50450847  0.35440172  1
  Zr  Zr42  1  0.29762492  0.90825705  0.60774406  1
  Zr  Zr43  1  0.71347855  0.11381807  0.13269824  1
  Zr  Zr44  1  0.82277089  -0.00543062  0.24360637  1
  Zr  Zr45  1  0.70280217  0.89890558  0.36750094  1
  Zr  Zr46  1  -0.01311092  0.80180890  0.24554560  1
  Zr  Zr47  1  0.20702541  0.02682195  0.24434929  1
  Zr  Zr48  1  0.10661470  0.69262726  0.88166101  1
  Zr  Zr49  1  0.67994120  0.69597906  0.11263100  1
  Zr  Zr50  1  0.09307969  0.91367547  0.36063506  1
  Zr  Zr51  1  0.30054189  0.70338807  0.88800800  1
  Zr  Zr52  1  0.49196917  0.30297248  0.38033376  1
  Zr  Zr53  1  0.29752592  0.50536110  0.87985392  1
  Zr  Zr54  1  0.00656255  -0.00487350  0.74305004  1
  Zr  Zr55  1  0.39590284  0.40023324  0.00629784  1
  Zr  Zr56  1  0.90003197  0.48240290  0.88026585  1
  Zr  Zr57  1  0.30991906  0.10250710  0.87421313  1
  Zr  Zr58  1  0.28707034  0.29138338  0.12898156  1
  Zr  Zr59  1  0.89789436  0.49013786  0.38292167  1
  Zr  Zr60  1  0.69093843  0.49295944  0.86442050  1
  Zr  Zr61  1  0.88638275  0.48466760  0.61399840  1
  Zr  Zr62  1  0.39156301  0.19575474  0.24613314  1
  Zr  Zr63  1  0.60912881  0.01239716  -0.00025149  1
  Zr  Zr64  1  0.49815033  0.91380950  0.87781558  1
  Zr  Zr65  1  0.60592389  0.21528168  -0.01532802  1
  Zr  Zr66  1  0.10714901  0.69452079  0.61896950  1
  Zr  Zr67  1  0.60493202  0.61827486  0.74775851  1
  Zr  Zr68  1  0.38862477  0.41243279  0.50455563  1
  Zr  Zr69  1  0.20945474  0.59726957  0.48614939  1
  Zr  Zr70  1  0.50850449  0.92537209  0.61614734  1
  Zr  Zr71  1  0.11077241  0.10018697  0.62053243  1
  Zr  Zr72  1  0.11495076  0.48697152  0.63305049  1
  Zr  Zr73  1  0.20270639  0.80685348  0.48650179  1
  Zr  Zr74  1  0.70852295  0.69584222  0.60855478  1
  Zr  Zr75  1  0.79378350  0.37913919  0.25208841  1
  Zr  Zr76  1  0.88953918  0.88921635  0.62907373  1
  Zr  Zr77  1  0.50085508  0.71100409  0.88745519  1
  Zr  Zr78  1  -0.00322123  0.36781824  0.73742296  1
  Zr  Zr79  1  0.20814432  -0.00840636  0.74915349  1
  Ta  Ta80  1  0.20923588  0.79383044  0.74086305  1
  Ta  Ta81  1  0.68731324  0.49217326  0.11838153  1
  Ta  Ta82  1  0.09885246  0.29426350  0.37266814  1
  Ta  Ta83  1  0.69630202  0.89600194  0.65075552  1
  Ta  Ta84  1  0.79614275  0.18677158  -0.01535502  1
  Ta  Ta85  1  0.41087947  0.60068852  0.02375601  1
  Ta  Ta86  1  0.79922334  -0.00395134  -0.00956016  1
  Ta  Ta87  1  0.39484437  0.61272448  0.74830680  1
  Ta  Ta88  1  0.79399063  0.80505138  -0.00106309  1
  Ta  Ta89  1  0.69774159  0.50136941  0.61794775  1
  Ta  Ta90  1  0.49987773  0.70017320  0.38231854  1
  Ta  Ta91  1  0.09793997  0.50026426  0.86958117  1
  Ta  Ta92  1  0.69801168  0.69848728  0.89137473  1
  Ta  Ta93  1  0.69783855  0.89620132  0.86031866  1
  Ta  Ta94  1  0.39815267  0.80327710  0.02912737  1
  Ta  Ta95  1  0.01230450  0.58006532  0.01791671  1
  Ta  Ta96  1  0.60871275  0.21412490  0.74118131  1
  Ta  Ta97  1  0.78513424  0.79615893  0.23816759  1
  Ta  Ta98  1  0.50780462  0.30808523  0.12796401  1
  Ta  Ta99  1  0.19581275  0.60627390  0.23821476  1
  Ta  Ta100  1  0.59115346  0.41385104  -0.00147771  1
  Ta  Ta101  1  0.91055305  0.08441202  0.38131273  1
  Ta  Ta102  1  -0.00331690  0.59270796  0.23591685  1
  Ta  Ta103  1  0.40286637  0.40201168  0.24553505  1
  Ta  Ta104  1  0.89184891  0.28114060  0.87758620  1
  Ta  Ta105  1  0.00407280  0.38538275  0.50658418  1
  Ta  Ta106  1  0.50793938  0.11278741  0.85344705  1
  Ta  Ta107  1  0.30767676  0.71626394  0.35562020  1
  Ta  Ta108  1  0.39631783  0.21217621  0.52314575  1
  Ta  Ta109  1  0.09644609  0.90564062  0.13745783  1
  Ta  Ta110  1  0.49268444  0.51288775  0.86943020  1
  Ta  Ta111  1  0.88913857  0.10403672  0.63947085  1
  Ta  Ta112  1  0.89755622  0.68501524  0.60937919  1
  Ta  Ta113  1  0.10109880  0.69897793  0.35641339  1
  Ta  Ta114  1  0.59083040  0.39517606  0.51877958  1
  Ta  Ta115  1  0.78340626  -0.00764079  0.50985441  1
  Ta  Ta116  1  0.28684145  0.31603758  0.63535736  1
  Ta  Ta117  1  0.79011513  0.58485145  0.00266461  1
  Ta  Ta118  1  0.31049416  0.69482779  0.61570055  1
  Ta  Ta119  1  0.88419555  0.28066906  0.11063422  1
  Ti  Ti120  1  0.60592884  0.20964359  0.25012523  1
  Ti  Ti121  1  0.30046709  0.71030029  0.14707751  1
  Ti  Ti122  1  0.89747966  0.89607944  0.11355782  1
  Ti  Ti123  1  0.40989193  -0.00230349  0.02285840  1
  Ti  Ti124  1  0.50026167  0.50999798  0.38864735  1
  Ti  Ti125  1  0.00779371  0.19567716  0.50347436  1
  Ti  Ti126  1  0.89192561  0.89792195  0.38162155  1
  Ti  Ti127  1  0.59589927  0.60361607  0.25405882  1
  Ti  Ti128  1  0.80668029  0.17914503  0.50714267  1
  Ti  Ti129  1  0.20031471  0.80504832  0.02838569  1
  Ti  Ti130  1  0.11396959  0.10557509  0.38336075  1
  Ti  Ti131  1  0.78919930  0.38894128  0.75193529  1
  Ti  Ti132  1  0.39116450  0.41655224  0.73915523  1
  Ti  Ti133  1  0.78323847  0.38242723  -0.00900340  1
  Ti  Ti134  1  0.00676272  0.58901383  0.49668643  1
  Ti  Ti135  1  0.30452317  0.49961367  0.14050837  1
  Ti  Ti136  1  0.20674207  0.59777887  0.74826315  1
  Ti  Ti137  1  0.19224119  0.39280881  0.24453771  1
  Ti  Ti138  1  0.01019262  0.79049526  0.01490005  1
  Ti  Ti139  1  0.50724499  0.11213981  0.12666991  1
  Ti  Ti140  1  0.40878036  0.80636717  0.23978771  1
  Ti  Ti141  1  0.40222765  0.01521931  0.73911598  1
  Ti  Ti142  1  0.69699127  0.69902517  0.38165903  1
  Ti  Ti143  1  0.20477096  0.20375895  -0.00558378  1
  Ti  Ti144  1  0.90082354  0.09346623  0.86490134  1
  Ti  Ti145  1  -0.00739264  0.38982728  0.24917785  1
  Ti  Ti146  1  0.10809376  0.11079627  0.11899938  1
  Ti  Ti147  1  0.69660611  0.08268527  0.64796200  1
  Ti  Ti148  1  0.69723971  0.30137249  0.12223501  1
  Ti  Ti149  1  0.29710251  0.30945229  0.86770919  1
  Ti  Ti150  1  0.59657998  0.81389249  0.00891382  1
  Ti  Ti151  1  0.00437889  -0.00957559  -0.00134091  1
  Ti  Ti152  1  0.29962351  0.92085380  0.37930842  1
  Ti  Ti153  1  0.41452409  0.60334072  0.24111777  1
  Ti  Ti154  1  0.21163753  0.19853712  0.50313462  1
  Ti  Ti155  1  0.39887676  0.02770024  0.50668447  1
  Ti  Ti156  1  0.39823324  0.21135150  0.73426225  1
  Ti  Ti157  1  0.59431805  0.79498748  0.24503206  1
  Ti  Ti158  1  0.70857011  0.10178201  0.85172614  1
  Ti  Ti159  1  0.29316873  0.28833718  0.36708361  1
  Mo  Mo160  1  0.29919671  0.89931856  0.13169066  1
  Mo  Mo161  1  0.80663837  0.80574065  0.50068522  1
  Mo  Mo162  1  0.20757974  0.80865159  0.25330326  1
  Mo  Mo163  1  0.59451561  0.60173483  0.49555145  1
  Mo  Mo164  1  0.09567121  0.49341608  0.14230475  1
  Mo  Mo165  1  0.80837963  0.19925790  0.75289587  1
  Mo  Mo166  1  0.79796032  0.39006555  0.50241873  1
  Mo  Mo167  1  -0.00824560  0.18606436  -0.00360993  1
  Mo  Mo168  1  0.00392783  0.00209575  0.24824824  1
  Mo  Mo169  1  -0.00238860  0.19195801  0.74979509  1
  Mo  Mo170  1  0.19040381  0.20802429  0.25418072  1
  Mo  Mo171  1  0.49908902  0.31280266  0.63842885  1
  Mo  Mo172  1  0.10339031  0.29239309  0.61598241  1
  Mo  Mo173  1  0.20631254  0.01526211  0.48970162  1
  Mo  Mo174  1  0.49605421  0.69845998  0.13102685  1
  Mo  Mo175  1  0.30501743  0.10559461  0.11300377  1
  Mo  Mo176  1  0.60033348  0.80140608  0.75268663  1
  Mo  Mo177  1  0.90709150  0.28203479  0.60984799  1
  Mo  Mo178  1  0.09623653  0.70657754  0.13956415  1
  Mo  Mo179  1  0.60605747  0.00984543  0.50537302  1
  Mo  Mo180  1  0.51108298  0.89667048  0.12291217  1
  Mo  Mo181  1  0.29772811  0.51320357  0.63049507  1
  Mo  Mo182  1  0.30582864  0.10836721  0.38519728  1
  Mo  Mo183  1  0.80041894  -0.00655310  0.75828523  1
  Mo  Mo184  1  0.39359702  0.61703659  0.48671200  1
  Mo  Mo185  1  0.50260972  0.50100899  0.13156551  1
  Mo  Mo186  1  0.80341209  0.59139927  0.75107193  1
  Mo  Mo187  1  -0.01642617  0.39525604  -0.00149686  1
  Mo  Mo188  1  0.50021983  0.11258581  0.64426912  1
  Mo  Mo189  1  0.59728192  0.00506210  0.75972549  1
  Mo  Mo190  1  0.71083743  0.89670750  0.11951332  1
  Mo  Mo191  1  0.80374943  0.60013162  0.49376697  1
  Mo  Mo192  1  0.80231156  0.20026466  0.25180619  1
  Mo  Mo193  1  0.20408983  0.40254143  0.75842173  1
  Mo  Mo194  1  0.59492978  0.59577024  -0.00537272  1
  Mo  Mo195  1  0.30628334  0.11159892  0.62655827  1
  Mo  Mo196  1  0.59641568  0.40736383  0.72772639  1
  Mo  Mo197  1  0.10596558  0.89257126  0.62022093  1
  Mo  Mo198  1  0.39780901  0.80834985  0.48660195  1
  Mo  Mo199  1  0.69758991  0.29857543  0.86397440  1
