# generated using pymatgen
data_HfZrTaTiMo
_symmetry_space_group_name_H-M   'P 1'
_cell_length_a   15.20102968
_cell_length_b   15.19771745
_cell_length_c   16.85855011
_cell_angle_alpha   89.96860518
_cell_angle_beta   89.98888481
_cell_angle_gamma   90.07641523
_symmetry_Int_Tables_number   1
_chemical_formula_structural   HfZrTaTiMo
_chemical_formula_sum   'Hf40 Zr40 Ta40 Ti40 Mo40'
_cell_volume   3894.67420456
_cell_formula_units_Z   40
loop_
 _symmetry_equiv_pos_site_id
 _symmetry_equiv_pos_as_xyz
  1  'x, y, z'
loop_
 _atom_site_type_symbol
 _atom_site_label
 _atom_site_symmetry_multiplicity
 _atom_site_fract_x
 _atom_site_fract_y
 _atom_site_fract_z
 _atom_site_occupancy
  Hf  Hf0  1  0.90166067  0.68460296  0.12737029  1
  Hf  Hf1  1  0.28908074  0.10727460  0.90200014  1
  Hf  Hf2  1  0.29724599  0.29845094  0.10711675  1
  Hf  Hf3  1  0.49549721  0.29420883  0.35848199  1
  Hf  Hf4  1  0.69609191  0.10866006  0.88156597  1
  Hf  Hf5  1  0.70365050  0.09468411  0.37359759  1
  Hf  Hf6  1  0.00763906  0.00694416  0.48888212  1
  Hf  Hf7  1  0.38667002  0.41144599  0.24914534  1
  Hf  Hf8  1  0.29576912  0.29884442  0.37215329  1
  Hf  Hf9  1  0.10912842  0.49872985  0.88636234  1
  Hf  Hf10  1  0.40320257  0.39519394  0.75129876  1
  Hf  Hf11  1  0.20716129  0.60345014  0.24235744  1
  Hf  Hf12  1  0.59007141  0.77845763  0.25753191  1
  Hf  Hf13  1  0.18680541  0.60255860  0.49947535  1
  Hf  Hf14  1  -0.00095721  0.59988724  0.76236096  1
  Hf  Hf15  1  0.58666611  0.18883105  0.01430435  1
  Hf  Hf16  1  0.39361560  0.59486711  0.74062581  1
  Hf  Hf17  1  0.39625747  0.81031115  0.74190821  1
  Hf  Hf18  1  0.40336097  0.79995458  0.51272395  1
  Hf  Hf19  1  0.08679363  0.51632408  0.10696012  1
  Hf  Hf20  1  0.79708459  0.57721986  -0.00832439  1
  Hf  Hf21  1  0.60874584  0.79166274  0.72674154  1
  Hf  Hf22  1  0.31891851  0.90208276  0.88316035  1
  Hf  Hf23  1  0.10869719  0.09647345  0.61708660  1
  Hf  Hf24  1  0.11413564  0.91001594  0.89112032  1
  Hf  Hf25  1  0.59011876  0.60380786  -0.00486553  1
  Hf  Hf26  1  0.29012163  0.91188798  0.61890089  1
  Hf  Hf27  1  0.29835611  0.30568032  0.89799645  1
  Hf  Hf28  1  0.09193798  0.31384748  0.10489937  1
  Hf  Hf29  1  0.49357609  0.69647762  0.86141032  1
  Hf  Hf30  1  0.21411801  0.00759361  0.24021215  1
  Hf  Hf31  1  0.19420099  0.19730086  0.23969210  1
  Hf  Hf32  1  0.00180138  0.41267179  0.50219509  1
  Hf  Hf33  1  0.00413640  0.78656352  0.49583554  1
  Hf  Hf34  1  0.80209877  0.00071588  0.24555694  1
  Hf  Hf35  1  0.61122763  0.00913047  0.74313203  1
  Hf  Hf36  1  0.89907378  0.30391877  0.37518499  1
  Hf  Hf37  1  0.09745805  0.50541764  0.63281554  1
  Hf  Hf38  1  0.69355593  0.89278860  0.38922545  1
  Hf  Hf39  1  0.10497259  0.89561685  0.12977520  1
  Zr  Zr40  1  0.42749523  0.61210922  0.26948838  1
  Zr  Zr41  1  0.00102383  0.81171906  0.75925602  1
  Zr  Zr42  1  0.20603409  0.39975500  0.75097291  1
  Zr  Zr43  1  0.80654951  0.41323363  0.25964115  1
  Zr  Zr44  1  -0.00837120  0.61455997  -0.01928183  1
  Zr  Zr45  1  0.89810969  0.89993805  0.37357227  1
  Zr  Zr46  1  0.88052672  0.29273218  0.86590825  1
  Zr  Zr47  1  0.90400940  0.29788884  0.63052076  1
  Zr  Zr48  1  0.68493861  0.29350174  0.61572548  1
  Zr  Zr49  1  0.80088053  0.19148102  0.49614132  1
  Zr  Zr50  1  0.89387977  0.09790506  0.62925665  1
  Zr  Zr51  1  0.41433676  0.00726105  0.01844671  1
  Zr  Zr52  1  0.89698153  0.09431621  0.87257610  1
  Zr  Zr53  1  0.80192061  0.79402406  0.00450912  1
  Zr  Zr54  1  0.01284061  0.01131606  0.75631935  1
  Zr  Zr55  1  0.73009969  0.90096206  0.86166784  1
  Zr  Zr56  1  0.91351302  0.90127617  0.61987309  1
  Zr  Zr57  1  0.59109933  0.39709447  0.48452451  1
  Zr  Zr58  1  0.17882031  0.40657478  0.24844046  1
  Zr  Zr59  1  0.48766080  0.09391860  0.86834233  1
  Zr  Zr60  1  0.09468594  0.28360290  0.38626803  1
  Zr  Zr61  1  0.09483648  0.68620966  0.36466219  1
  Zr  Zr62  1  0.69307706  0.69900411  0.86960629  1
  Zr  Zr63  1  -0.00542302  0.20881451  0.23423325  1
  Zr  Zr64  1  0.50074610  0.30187004  0.13810567  1
  Zr  Zr65  1  0.50906590  0.88227028  0.12715966  1
  Zr  Zr66  1  0.79255024  0.79027705  0.24996557  1
  Zr  Zr67  1  0.40803335  0.60431025  0.49649642  1
  Zr  Zr68  1  0.21980907  0.00551563  0.75499091  1
  Zr  Zr69  1  0.11089926  0.89818405  0.35883849  1
  Zr  Zr70  1  0.79188092  0.60399717  0.74621764  1
  Zr  Zr71  1  0.49107207  0.08133704  0.37692673  1
  Zr  Zr72  1  0.50645144  0.30325045  0.88351173  1
  Zr  Zr73  1  0.50069301  0.10988623  0.62246665  1
  Zr  Zr74  1  0.77627984  0.39521953  0.74218866  1
  Zr  Zr75  1  0.31272751  0.91056419  0.37852101  1
  Zr  Zr76  1  0.50404724  0.51473002  0.12625986  1
  Zr  Zr77  1  0.09210580  0.29290615  0.88443325  1
  Zr  Zr78  1  0.20950956  0.78568342  0.01187826  1
  Zr  Zr79  1  0.70064781  0.30111935  0.13971190  1
  Ta  Ta80  1  0.59317793  0.21763051  0.75121648  1
  Ta  Ta81  1  0.00199048  0.80288431  0.00159213  1
  Ta  Ta82  1  0.30720730  0.51048486  0.89434364  1
  Ta  Ta83  1  0.00132001  0.79121402  0.24287047  1
  Ta  Ta84  1  0.38843632  0.17930108  0.23992755  1
  Ta  Ta85  1  0.10066356  0.29336720  0.61911801  1
  Ta  Ta86  1  0.38067084  0.19371962  0.74873595  1
  Ta  Ta87  1  0.69253899  0.69376110  0.39638972  1
  Ta  Ta88  1  0.28867983  0.70143851  0.62868847  1
  Ta  Ta89  1  0.11113626  0.70794906  0.86879521  1
  Ta  Ta90  1  0.59870155  0.42253150  0.26592364  1
  Ta  Ta91  1  0.42025146  0.78725112  -0.00266168  1
  Ta  Ta92  1  0.29455443  0.50535975  0.09993632  1
  Ta  Ta93  1  0.80466067  0.00498867  0.01154226  1
  Ta  Ta94  1  0.30169295  0.71526135  0.36944007  1
  Ta  Ta95  1  0.90286312  0.89991582  0.12774435  1
  Ta  Ta96  1  0.90289939  0.69437776  0.62778535  1
  Ta  Ta97  1  0.79893595  0.79575720  0.51082023  1
  Ta  Ta98  1  0.29593703  0.29466658  0.61761970  1
  Ta  Ta99  1  0.19731130  0.80324448  0.50042960  1
  Ta  Ta100  1  0.28459072  0.10316787  0.39140637  1
  Ta  Ta101  1  0.20200022  0.40089218  0.50023919  1
  Ta  Ta102  1  0.39398863  0.40237469  0.49203260  1
  Ta  Ta103  1  0.71181607  0.91308991  0.61918897  1
  Ta  Ta104  1  0.52085464  0.89336984  0.87435421  1
  Ta  Ta105  1  -0.00222262  0.00095538  0.01036044  1
  Ta  Ta106  1  -0.01836170  0.19935242  0.00994203  1
  Ta  Ta107  1  0.32307505  0.69937278  0.13138513  1
  Ta  Ta108  1  0.40027991  0.20776464  0.49562114  1
  Ta  Ta109  1  0.30435985  0.10449845  0.60716869  1
  Ta  Ta110  1  0.10098226  0.71245202  0.63562015  1
  Ta  Ta111  1  0.49804209  0.91237752  0.62357497  1
  Ta  Ta112  1  0.79977533  0.40421586  0.49655891  1
  Ta  Ta113  1  0.29144824  0.50733859  0.37983128  1
  Ta  Ta114  1  -0.02971711  0.40740520  -0.00660764  1
  Ta  Ta115  1  0.59614039  0.58535474  0.73489290  1
  Ta  Ta116  1  0.70290318  0.50943839  0.38792649  1
  Ta  Ta117  1  0.50021765  0.49277153  0.61882466  1
  Ta  Ta118  1  0.00549105  0.00949658  0.24213735  1
  Ta  Ta119  1  0.70307755  0.89438840  0.12226583  1
  Ti  Ti120  1  0.61726396  0.39806546  0.00524001  1
  Ti  Ti121  1  0.89271659  0.32048000  0.12467036  1
  Ti  Ti122  1  0.88948547  0.72271586  0.86439620  1
  Ti  Ti123  1  0.79121669  0.21047891  0.00743231  1
  Ti  Ti124  1  0.81035317  0.59964568  0.50504611  1
  Ti  Ti125  1  0.79324220  0.60115358  0.25685915  1
  Ti  Ti126  1  0.70865623  0.50141659  0.12875919  1
  Ti  Ti127  1  0.61157552  -0.01389495  0.00123616  1
  Ti  Ti128  1  0.69914031  0.29800652  0.36798784  1
  Ti  Ti129  1  0.50021349  0.88275176  0.38133866  1
  Ti  Ti130  1  -0.00366219  0.58172167  0.24800955  1
  Ti  Ti131  1  0.29874618  0.49650240  0.61663743  1
  Ti  Ti132  1  0.00202213  0.39200525  0.75132226  1
  Ti  Ti133  1  0.59603773  0.78783519  0.52147427  1
  Ti  Ti134  1  0.09821531  0.10587271  0.89443901  1
  Ti  Ti135  1  0.41627427  0.40827682  0.00405716  1
  Ti  Ti136  1  0.30731485  0.89539440  0.12483990  1
  Ti  Ti137  1  0.69538753  0.09218089  0.12845860  1
  Ti  Ti138  1  0.48801602  0.30181250  0.62248087  1
  Ti  Ti139  1  0.10754490  0.10230683  0.10808135  1
  Ti  Ti140  1  0.50072595  0.49940299  0.87343665  1
  Ti  Ti141  1  0.60254810  -0.01136502  0.24997804  1
  Ti  Ti142  1  0.60414367  -0.00070837  0.50757753  1
  Ti  Ti143  1  0.88956387  0.49048247  0.86401414  1
  Ti  Ti144  1  0.59680012  0.18512517  0.24907580  1
  Ti  Ti145  1  0.59663603  0.19553637  0.48991014  1
  Ti  Ti146  1  0.89834394  0.50041692  0.62665552  1
  Ti  Ti147  1  0.18904145  0.19939885  0.75156239  1
  Ti  Ti148  1  0.78143231  0.18145522  0.74236190  1
  Ti  Ti149  1  0.89259174  0.69637784  0.37539193  1
  Ti  Ti150  1  0.68749556  0.47821285  0.86978561  1
  Ti  Ti151  1  0.69753481  0.50183957  0.60970395  1
  Ti  Ti152  1  0.79837235  0.19795776  0.25063869  1
  Ti  Ti153  1  0.20276158  0.60489740  0.75194570  1
  Ti  Ti154  1  0.91380456  0.10671876  0.37021567  1
  Ti  Ti155  1  0.91251226  0.51209767  0.38184427  1
  Ti  Ti156  1  0.68560165  0.69480134  0.12018043  1
  Ti  Ti157  1  0.89441300  0.10436666  0.12510747  1
  Ti  Ti158  1  0.40885580  -0.00561464  0.23908317  1
  Ti  Ti159  1  0.29663848  0.70044713  0.87366453  1
  Mo  Mo160  1  -0.00831526  0.60239333  0.50582060  1
  Mo  Mo161  1  0.60293978  0.59981037  0.51377998  1
  Mo  Mo162  1  0.20271972  0.79563826  0.75315580  1
  Mo  Mo163  1  0.10764894  0.89276877  0.61975637  1
  Mo  Mo164  1  0.40833172  0.00383765  0.50000809  1
  Mo  Mo165  1  0.19920248  0.20069340  0.50244047  1
  Mo  Mo166  1  0.20233750  -0.00324106  0.01671168  1
  Mo  Mo167  1  0.19994934  -0.00277822  0.49654101  1
  Mo  Mo168  1  0.91357654  0.90503097  0.89220941  1
  Mo  Mo169  1  0.69150235  0.29410281  0.87848357  1
  Mo  Mo170  1  0.62316439  0.59954037  0.25526737  1
  Mo  Mo171  1  0.09984863  0.70185522  0.13518393  1
  Mo  Mo172  1  0.39487963  0.80467256  0.25332938  1
  Mo  Mo173  1  0.80361418  0.80016155  0.72558813  1
  Mo  Mo174  1  0.30126541  0.09646519  0.11348612  1
  Mo  Mo175  1  0.00102098  0.20078063  0.49835202  1
  Mo  Mo176  1  0.70372383  0.69431583  0.60966442  1
  Mo  Mo177  1  0.50316755  0.50400806  0.37935441  1
  Mo  Mo178  1  0.01398037  0.20515387  0.74986657  1
  Mo  Mo179  1  0.50856238  0.09216779  0.14263092  1
  Mo  Mo180  1  0.09911538  0.49529963  0.37443676  1
  Mo  Mo181  1  0.49624279  0.69647321  0.63476248  1
  Mo  Mo182  1  0.50574326  0.69660807  0.12259873  1
  Mo  Mo183  1  0.20179254  0.61149523  -0.00030374  1
  Mo  Mo184  1  0.40690941  0.00553167  0.75045529  1
  Mo  Mo185  1  0.60589143  0.80239593  -0.00498442  1
  Mo  Mo186  1  0.21199559  0.79539570  0.23955077  1
  Mo  Mo187  1  0.80481523  -0.00574553  0.74895124  1
  Mo  Mo188  1  0.19013588  0.19834360  0.00699561  1
  Mo  Mo189  1  0.78912552  0.39603506  -0.00091179  1
  Mo  Mo190  1  0.09960704  0.09372371  0.36919211  1
  Mo  Mo191  1  0.89475251  0.49636714  0.12423140  1
  Mo  Mo192  1  0.40372440  0.20341054  0.01613249  1
  Mo  Mo193  1  0.58931097  0.40386448  0.74307996  1
  Mo  Mo194  1  0.69568729  0.09889574  0.61883985  1
  Mo  Mo195  1  0.39687515  0.60631269  -0.00461320  1
  Mo  Mo196  1  0.79648440  -0.00545718  0.49368736  1
  Mo  Mo197  1  -0.00220431  0.40934284  0.25179296  1
  Mo  Mo198  1  0.50920772  0.70863930  0.38887665  1
  Mo  Mo199  1  0.19392782  0.40905969  -0.00259852  1
