# generated using pymatgen
data_HfZrTaTiMo
_symmetry_space_group_name_H-M   'P 1'
_cell_length_a   15.20918041
_cell_length_b   15.20799658
_cell_length_c   16.83496092
_cell_angle_alpha   89.95741026
_cell_angle_beta   89.98440798
_cell_angle_gamma   89.88535798
_symmetry_Int_Tables_number   1
_chemical_formula_structural   HfZrTaTiMo
_chemical_formula_sum   'Hf40 Zr40 Ta40 Ti40 Mo40'
_cell_volume   3893.93703852
_cell_formula_units_Z   40
loop_
 _symmetry_equiv_pos_site_id
 _symmetry_equiv_pos_as_xyz
  1  'x, y, z'
loop_
 _atom_site_type_symbol
 _atom_site_label
 _atom_site_symmetry_multiplicity
 _atom_site_fract_x
 _atom_site_fract_y
 _atom_site_fract_z
 _atom_site_occupancy
  Hf  Hf0  1  0.80261182  0.17310115  0.51385516  1
  Hf  Hf1  1  0.89711690  0.69983490  0.12328757  1
  Hf  Hf2  1  0.10398848  0.50267969  0.13949852  1
  Hf  Hf3  1  0.89284497  0.29218697  0.38293719  1
  Hf  Hf4  1  0.29813043  0.69878711  0.11717996  1
  Hf  Hf5  1  0.19637303  0.39127397  -0.00026133  1
  Hf  Hf6  1  0.58989857  0.40062144  0.74807063  1
  Hf  Hf7  1  0.71402749  0.08213230  0.66092201  1
  Hf  Hf8  1  0.19777295  -0.00654430  0.48292384  1
  Hf  Hf9  1  0.79661294  0.00473525  0.23702651  1
  Hf  Hf10  1  0.27826804  0.69547934  0.63248746  1
  Hf  Hf11  1  0.58622347  0.39016917  0.50639258  1
  Hf  Hf12  1  0.11437631  0.09493017  0.61786878  1
  Hf  Hf13  1  0.08263969  0.50785608  0.36692951  1
  Hf  Hf14  1  0.89282533  0.90334110  0.11009030  1
  Hf  Hf15  1  0.08409340  0.50444197  0.86980381  1
  Hf  Hf16  1  0.01286291  0.61549836  0.51697204  1
  Hf  Hf17  1  0.21340342  0.59957010  0.47713968  1
  Hf  Hf18  1  0.50208135  0.90227595  0.64140289  1
  Hf  Hf19  1  0.01463504  0.61311784  0.72959711  1
  Hf  Hf20  1  0.21255741  0.19303630  0.48381912  1
  Hf  Hf21  1  0.79300201  0.80614431  0.49829817  1
  Hf  Hf22  1  0.01117082  0.20541125  0.01728457  1
  Hf  Hf23  1  -0.00703638  0.41106351  0.50934502  1
  Hf  Hf24  1  0.19676170  0.19072303  0.75280353  1
  Hf  Hf25  1  0.10129664  0.89722710  0.12914318  1
  Hf  Hf26  1  0.08050996  0.10409877  0.36732708  1
  Hf  Hf27  1  0.31871543  0.10513249  0.13436956  1
  Hf  Hf28  1  0.11161429  0.70534188  0.87733412  1
  Hf  Hf29  1  0.59621152  0.80413192  0.24337108  1
  Hf  Hf30  1  0.50147926  0.71351610  0.86612953  1
  Hf  Hf31  1  0.81545705  0.59340843  0.52345658  1
  Hf  Hf32  1  0.50375468  0.12190090  0.63959691  1
  Hf  Hf33  1  0.68472388  0.27629168  0.63057396  1
  Hf  Hf34  1  0.08770266  0.88769725  0.62630428  1
  Hf  Hf35  1  0.60330025  0.19641506  0.23831535  1
  Hf  Hf36  1  0.80094260  0.18784811  -0.00669004  1
  Hf  Hf37  1  0.40382318  0.40331555  0.24771747  1
  Hf  Hf38  1  0.81949357  -0.02341653  0.77748794  1
  Hf  Hf39  1  0.49124632  0.68947575  0.63775571  1
  Zr  Zr40  1  0.72371342  0.48347192  0.39372181  1
  Zr  Zr41  1  0.39459471  0.80251986  0.50212039  1
  Zr  Zr42  1  0.50842538  0.30935396  0.89395807  1
  Zr  Zr43  1  0.40655051  -0.01006746  -0.01930381  1
  Zr  Zr44  1  0.39508122  0.01460429  0.50644686  1
  Zr  Zr45  1  -0.01243331  0.20116857  0.22989645  1
  Zr  Zr46  1  0.52249305  0.10256321  0.86066370  1
  Zr  Zr47  1  0.69279590  0.69413043  0.37576825  1
  Zr  Zr48  1  0.29910534  0.29153122  0.62128476  1
  Zr  Zr49  1  0.30694110  0.89713275  0.11866362  1
  Zr  Zr50  1  -0.00553712  0.80662207  0.48695531  1
  Zr  Zr51  1  0.81284555  0.58653221  -0.01092509  1
  Zr  Zr52  1  0.60987334  0.40313088  0.24184361  1
  Zr  Zr53  1  0.89452342  0.73473382  0.64114124  1
  Zr  Zr54  1  0.51689654  0.50974498  0.36462731  1
  Zr  Zr55  1  0.39960887  0.60339479  -0.00670384  1
  Zr  Zr56  1  0.50794418  0.50777824  0.11663629  1
  Zr  Zr57  1  0.78564248  0.80017033  -0.02358852  1
  Zr  Zr58  1  0.39111511  0.19778370  -0.00901123  1
  Zr  Zr59  1  0.78436746  0.58601784  0.24835376  1
  Zr  Zr60  1  0.32320819  0.49034400  0.62212236  1
  Zr  Zr61  1  0.12971966  0.50570324  0.62683033  1
  Zr  Zr62  1  0.11372272  0.91771091  0.89257155  1
  Zr  Zr63  1  0.51299956  0.10181775  0.37546510  1
  Zr  Zr64  1  -0.02309137  0.01168165  0.50500651  1
  Zr  Zr65  1  0.60201243  0.60467395  0.51050145  1
  Zr  Zr66  1  0.90781651  0.68657262  0.86936545  1
  Zr  Zr67  1  0.38536820  0.00705169  0.75810298  1
  Zr  Zr68  1  0.89983856  0.50120732  0.13132807  1
  Zr  Zr69  1  0.61530923  0.00657458  0.51623036  1
  Zr  Zr70  1  0.19479239  0.79495321  0.48266739  1
  Zr  Zr71  1  0.89130097  0.91972554  0.36666384  1
  Zr  Zr72  1  0.90021198  0.31152184  0.87435589  1
  Zr  Zr73  1  0.70689069  0.47880499  0.87594725  1
  Zr  Zr74  1  0.21292758  0.79670921  0.25937915  1
  Zr  Zr75  1  0.79705279  0.37801130  0.24922092  1
  Zr  Zr76  1  0.79431643  0.79820593  0.25136871  1
  Zr  Zr77  1  0.38872728  0.59550197  0.76609676  1
  Zr  Zr78  1  0.10589206  0.30102257  0.61704776  1
  Zr  Zr79  1  -0.00635578  0.41691410  0.00083572  1
  Ta  Ta80  1  0.27383451  0.09807025  0.88377433  1
  Ta  Ta81  1  0.00003936  0.39992933  0.73602088  1
  Ta  Ta82  1  0.09454895  0.90613328  0.35434198  1
  Ta  Ta83  1  0.20799211  0.39906428  0.47321599  1
  Ta  Ta84  1  0.49584432  0.29042925  0.11198189  1
  Ta  Ta85  1  0.39028784  0.21190984  0.76799730  1
  Ta  Ta86  1  0.69016469  0.49561488  0.63005045  1
  Ta  Ta87  1  0.68628107  0.90700495  0.37826103  1
  Ta  Ta88  1  0.00550588  0.79485762  0.00117629  1
  Ta  Ta89  1  0.20570060  0.39792203  0.76408504  1
  Ta  Ta90  1  0.59838348  0.80387992  0.51061020  1
  Ta  Ta91  1  -0.00706234  0.82504052  0.76800695  1
  Ta  Ta92  1  0.49975249  0.71223179  0.37421450  1
  Ta  Ta93  1  0.40491688  0.61260165  0.24968194  1
  Ta  Ta94  1  0.09630163  0.69640020  0.13711407  1
  Ta  Ta95  1  0.68956856  0.69255085  0.11697236  1
  Ta  Ta96  1  0.71612044  0.09583979  0.37443127  1
  Ta  Ta97  1  0.41303549  0.21389569  0.49495171  1
  Ta  Ta98  1  0.19344501  0.20408507  0.24524503  1
  Ta  Ta99  1  0.01273828  0.01216736  0.75464041  1
  Ta  Ta100  1  0.61156209  -0.00136294  -0.01254292  1
  Ta  Ta101  1  0.80164880  0.58680436  0.74044389  1
  Ta  Ta102  1  0.90324801  0.67532586  0.37099406  1
  Ta  Ta103  1  0.80299433  0.38551859  0.52814024  1
  Ta  Ta104  1  0.69362205  0.29794852  0.10102255  1
  Ta  Ta105  1  0.50714400  0.91239873  0.11788250  1
  Ta  Ta106  1  0.30814513  0.29274617  0.35890147  1
  Ta  Ta107  1  0.28726493  0.90707083  0.62630813  1
  Ta  Ta108  1  0.39325210  0.39853309  0.77041033  1
  Ta  Ta109  1  0.29708254  0.30591638  0.13607768  1
  Ta  Ta110  1  0.80203169  0.38342660  0.73132895  1
  Ta  Ta111  1  -0.00230997  0.39530582  0.25330063  1
  Ta  Ta112  1  0.40414230  0.59901302  0.48731230  1
  Ta  Ta113  1  0.19785001  0.39867974  0.26240865  1
  Ta  Ta114  1  0.20376598  0.00601567  0.25117556  1
  Ta  Ta115  1  0.41540000  -0.00052152  0.24871861  1
  Ta  Ta116  1  0.69286907  0.68751676  0.85115972  1
  Ta  Ta117  1  0.69594527  0.08966822  0.11203953  1
  Ta  Ta118  1  0.91804965  0.10269569  0.87567043  1
  Ta  Ta119  1  0.29864492  0.49955778  0.12847762  1
  Ti  Ti120  1  0.40766389  0.80578990  0.24974350  1
  Ti  Ti121  1  -0.00520139  0.20435229  0.51061034  1
  Ti  Ti122  1  0.50360373  0.29589453  0.36794138  1
  Ti  Ti123  1  0.18808848  0.60020527  0.00553912  1
  Ti  Ti124  1  0.50774508  0.50624724  0.88364626  1
  Ti  Ti125  1  0.09441914  0.29869508  0.37770322  1
  Ti  Ti126  1  0.80009354  -0.00475293  -0.02090216  1
  Ti  Ti127  1  0.29628782  0.71857778  0.88927983  1
  Ti  Ti128  1  0.09495166  0.70254994  0.35589142  1
  Ti  Ti129  1  0.19585241  0.19989610  0.01665596  1
  Ti  Ti130  1  0.39126818  0.40241803  -0.00001270  1
  Ti  Ti131  1  -0.00630247  0.20274330  0.74217831  1
  Ti  Ti132  1  0.79736391  0.19146255  0.23479442  1
  Ti  Ti133  1  0.69186362  0.70064485  0.64885296  1
  Ti  Ti134  1  0.60416486  -0.00108627  0.24354656  1
  Ti  Ti135  1  0.67159431  0.89270578  0.85595030  1
  Ti  Ti136  1  0.31117937  0.90425529  0.36708653  1
  Ti  Ti137  1  0.69637484  0.28087402  0.87572022  1
  Ti  Ti138  1  0.19410343  0.80360766  0.75340955  1
  Ti  Ti139  1  0.60785911  0.60796862  -0.00776106  1
  Ti  Ti140  1  0.38383729  0.81031900  0.75563974  1
  Ti  Ti141  1  0.39471115  0.40548750  0.47910718  1
  Ti  Ti142  1  0.70259763  0.49374865  0.10574203  1
  Ti  Ti143  1  0.10180049  0.28933995  0.87264973  1
  Ti  Ti144  1  0.50284979  0.90327895  0.38103534  1
  Ti  Ti145  1  0.19973915  -0.00552461  0.75214326  1
  Ti  Ti146  1  0.69636441  0.89166136  0.11121834  1
  Ti  Ti147  1  0.58638173  0.80658492  -0.00716104  1
  Ti  Ti148  1  0.19919996  0.01195850  0.01557506  1
  Ti  Ti149  1  0.71074341  0.88434383  0.64612550  1
  Ti  Ti150  1  0.31288817  0.10349936  0.35559951  1
  Ti  Ti151  1  0.21349963  0.59608963  0.26221357  1
  Ti  Ti152  1  0.69394277  0.28226835  0.39079310  1
  Ti  Ti153  1  0.00166326  0.01487544  0.01116290  1
  Ti  Ti154  1  -0.00959657  0.80063302  0.25183109  1
  Ti  Ti155  1  -0.00445889  0.01054906  0.23312003  1
  Ti  Ti156  1  0.88998302  0.30597790  0.11469574  1
  Ti  Ti157  1  0.28788162  0.50289861  0.88327292  1
  Ti  Ti158  1  0.49895883  0.71247676  0.11642361  1
  Ti  Ti159  1  0.48318636  0.31380061  0.63148707  1
  Mo  Mo160  1  0.79235653  -0.01062441  0.50918234  1
  Mo  Mo161  1  0.49583355  0.89717809  0.86223763  1
  Mo  Mo162  1  -0.00322399  0.60485450  0.25345442  1
  Mo  Mo163  1  0.10838758  0.09725729  0.13456268  1
  Mo  Mo164  1  0.90716301  0.09694805  0.64559502  1
  Mo  Mo165  1  0.60004119  -0.00642731  0.74725464  1
  Mo  Mo166  1  0.30638239  0.49963315  0.36295739  1
  Mo  Mo167  1  0.30522630  0.09788428  0.62251247  1
  Mo  Mo168  1  0.01474902  0.61316888  0.00846103  1
  Mo  Mo169  1  0.88920725  0.91682232  0.63491252  1
  Mo  Mo170  1  0.29140924  0.30085306  0.88037062  1
  Mo  Mo171  1  0.19609651  0.79469844  0.00997461  1
  Mo  Mo172  1  0.59354186  0.79604629  0.74293897  1
  Mo  Mo173  1  0.89027563  0.10871824  0.36971116  1
  Mo  Mo174  1  0.10586515  0.30833155  0.13441348  1
  Mo  Mo175  1  0.59836120  0.40206972  0.00388878  1
  Mo  Mo176  1  0.79889507  0.79318320  0.77017919  1
  Mo  Mo177  1  0.79750654  0.39167578  -0.00457521  1
  Mo  Mo178  1  0.91694329  0.90158804  0.89862452  1
  Mo  Mo179  1  0.40455036  0.80175202  -0.00386799  1
  Mo  Mo180  1  0.49586788  0.49579832  0.62419619  1
  Mo  Mo181  1  0.59544822  0.20070517  0.49686136  1
  Mo  Mo182  1  0.89846772  0.28900736  0.62895091  1
  Mo  Mo183  1  0.59308335  0.61496874  0.23605526  1
  Mo  Mo184  1  0.10547645  0.71346318  0.63094451  1
  Mo  Mo185  1  0.90126542  0.49759852  0.63774047  1
  Mo  Mo186  1  0.09786014  0.11273011  0.88271572  1
  Mo  Mo187  1  0.89860327  0.49229200  0.38213713  1
  Mo  Mo188  1  0.59692232  0.20862499  0.75354677  1
  Mo  Mo189  1  0.70994133  0.09692482  0.86324572  1
  Mo  Mo190  1  0.59704508  0.59057646  0.74902308  1
  Mo  Mo191  1  0.20718697  0.59888743  0.76460673  1
  Mo  Mo192  1  0.40631184  0.20251325  0.24563380  1
  Mo  Mo193  1  0.89788243  0.49290211  0.84349975  1
  Mo  Mo194  1  0.31558943  0.70210254  0.36716122  1
  Mo  Mo195  1  0.60090572  0.18834797  0.00549089  1
  Mo  Mo196  1  0.89211021  0.09486903  0.10970733  1
  Mo  Mo197  1  0.80603298  0.19414045  0.76617318  1
  Mo  Mo198  1  0.50955030  0.09455769  0.11939833  1
  Mo  Mo199  1  0.29126181  0.89289951  0.88004744  1
