# generated using pymatgen
data_HfZrTaTiMo
_symmetry_space_group_name_H-M   'P 1'
_cell_length_a   15.21406747
_cell_length_b   15.21445149
_cell_length_c   16.82866331
_cell_angle_alpha   90.05052197
_cell_angle_beta   89.98639443
_cell_angle_gamma   90.09431682
_symmetry_Int_Tables_number   1
_chemical_formula_structural   HfZrTaTiMo
_chemical_formula_sum   'Hf40 Zr40 Ta40 Ti40 Mo40'
_cell_volume   3895.38591959
_cell_formula_units_Z   40
loop_
 _symmetry_equiv_pos_site_id
 _symmetry_equiv_pos_as_xyz
  1  'x, y, z'
loop_
 _atom_site_type_symbol
 _atom_site_label
 _atom_site_symmetry_multiplicity
 _atom_site_fract_x
 _atom_site_fract_y
 _atom_site_fract_z
 _atom_site_occupancy
  Hf  Hf0  1  0.91330286  0.31161817  0.62932128  1
  Hf  Hf1  1  0.88670131  0.09589308  0.11980240  1
  Hf  Hf2  1  0.10237809  0.29033620  0.36739542  1
  Hf  Hf3  1  0.09103066  0.48713587  0.62759328  1
  Hf  Hf4  1  0.80268178  0.40598875  0.75109268  1
  Hf  Hf5  1  0.00154647  0.39316704  0.48982297  1
  Hf  Hf6  1  0.39737529  0.59403525  0.76191539  1
  Hf  Hf7  1  0.59797704  0.81012957  0.24253801  1
  Hf  Hf8  1  0.59690965  0.61010766  0.49396576  1
  Hf  Hf9  1  0.59844875  0.81477783  -0.00231218  1
  Hf  Hf10  1  -0.00657141  0.01401221  0.73245244  1
  Hf  Hf11  1  0.70835771  0.50463257  0.89041698  1
  Hf  Hf12  1  0.40992738  0.78916516  0.50700851  1
  Hf  Hf13  1  0.00578920  0.21667575  0.01674631  1
  Hf  Hf14  1  0.30115611  0.89795677  0.87502401  1
  Hf  Hf15  1  0.29282433  0.48318249  0.63121650  1
  Hf  Hf16  1  0.39952461  0.79391493  -0.00140728  1
  Hf  Hf17  1  0.21190860  0.79667581  0.74230761  1
  Hf  Hf18  1  0.80141675  0.80171765  0.24991435  1
  Hf  Hf19  1  0.29380347  0.90399803  0.12934944  1
  Hf  Hf20  1  0.30100068  0.49859732  0.36490427  1
  Hf  Hf21  1  0.69011923  0.49700161  0.11547578  1
  Hf  Hf22  1  0.81291648  0.19719519  0.74167332  1
  Hf  Hf23  1  0.70214891  0.10979425  0.37652931  1
  Hf  Hf24  1  0.29985634  0.70220776  0.13223327  1
  Hf  Hf25  1  0.58376572  0.39881923  -0.01362775  1
  Hf  Hf26  1  0.57821714  0.60505898  -0.00557308  1
  Hf  Hf27  1  0.10578433  0.11033519  0.87756991  1
  Hf  Hf28  1  0.20422732  0.18972263  0.24232960  1
  Hf  Hf29  1  0.49392079  0.50427923  0.63536825  1
  Hf  Hf30  1  0.87405192  0.69527954  0.62075244  1
  Hf  Hf31  1  0.90067706  0.71367063  0.89078266  1
  Hf  Hf32  1  -0.00909721  0.59448682  0.49974793  1
  Hf  Hf33  1  0.39847158  0.21733487  -0.00449001  1
  Hf  Hf34  1  0.68889169  0.11276880  0.12080159  1
  Hf  Hf35  1  0.19057602  0.60073858  0.23821185  1
  Hf  Hf36  1  -0.00246663  -0.02246347  -0.00419165  1
  Hf  Hf37  1  0.50205745  0.30925881  0.12165210  1
  Hf  Hf38  1  0.80676920  0.00382640  0.51554213  1
  Hf  Hf39  1  0.90905869  0.91034350  0.37227238  1
  Zr  Zr40  1  0.49988904  0.10056769  0.63984165  1
  Zr  Zr41  1  -0.00135584  0.80335878  0.50930685  1
  Zr  Zr42  1  0.49631323  0.30953477  0.64218832  1
  Zr  Zr43  1  0.29245776  0.09540684  0.39274897  1
  Zr  Zr44  1  0.30494795  0.70189594  0.36434254  1
  Zr  Zr45  1  0.59813192  0.59984930  0.24403713  1
  Zr  Zr46  1  0.89928148  0.49377536  0.35912988  1
  Zr  Zr47  1  0.39581811  -0.00354711  0.25468179  1
  Zr  Zr48  1  0.70112761  0.51827772  0.63216137  1
  Zr  Zr49  1  0.60147514  0.40189829  0.50503174  1
  Zr  Zr50  1  0.49958569  0.49872943  0.36963291  1
  Zr  Zr51  1  0.10310287  0.49493371  0.36424294  1
  Zr  Zr52  1  0.09414289  0.90194743  0.85775186  1
  Zr  Zr53  1  0.50650440  0.89895018  0.63205980  1
  Zr  Zr54  1  0.60372624  0.00182744  0.50595041  1
  Zr  Zr55  1  0.92132693  0.50733046  0.90159498  1
  Zr  Zr56  1  0.90946945  0.90466413  0.13896177  1
  Zr  Zr57  1  -0.00932829  0.80047586  0.73495859  1
  Zr  Zr58  1  0.90075109  0.09338256  0.88078369  1
  Zr  Zr59  1  0.70040286  0.09600668  0.87087856  1
  Zr  Zr60  1  0.10488699  0.68732620  0.63049039  1
  Zr  Zr61  1  0.80055438  0.40822691  0.50711871  1
  Zr  Zr62  1  0.61076731  0.79249876  0.76030344  1
  Zr  Zr63  1  0.40409815  0.20441459  0.50497186  1
  Zr  Zr64  1  0.49564090  0.10259737  0.86361575  1
  Zr  Zr65  1  0.02411863  0.79754453  0.25136748  1
  Zr  Zr66  1  0.17959657  0.79648294  0.00036944  1
  Zr  Zr67  1  0.90242077  0.51315409  0.11066153  1
  Zr  Zr68  1  0.19989369  0.58487554  0.00164933  1
  Zr  Zr69  1  0.91019835  0.30606298  0.87863491  1
  Zr  Zr70  1  0.70920396  0.70491981  0.11162470  1
  Zr  Zr71  1  0.09740734  0.07382734  0.13116114  1
  Zr  Zr72  1  0.79247450  0.61641246  0.76534306  1
  Zr  Zr73  1  0.50044627  0.89838895  0.37800223  1
  Zr  Zr74  1  0.09364866  0.68250329  0.86557692  1
  Zr  Zr75  1  -0.01387895  0.19378154  0.24701029  1
  Zr  Zr76  1  0.10736185  0.11023383  0.60679514  1
  Zr  Zr77  1  0.40683511  0.20274282  0.24998935  1
  Zr  Zr78  1  0.19330967  0.38600451  0.01235662  1
  Zr  Zr79  1  0.50095507  0.09430249  0.11519012  1
  Ta  Ta80  1  0.60404215  0.21075813  -0.01864518  1
  Ta  Ta81  1  0.79843451  0.38717200  0.01004185  1
  Ta  Ta82  1  0.70452855  0.49797987  0.36307426  1
  Ta  Ta83  1  0.30876612  0.68717216  0.62771732  1
  Ta  Ta84  1  0.30381583  0.30369277  0.37382888  1
  Ta  Ta85  1  0.70052153  0.92140566  0.11951194  1
  Ta  Ta86  1  0.20337645  -0.00017100  -0.00005948  1
  Ta  Ta87  1  0.80239394  0.60398428  0.24793302  1
  Ta  Ta88  1  0.29690679  0.08471568  0.60933225  1
  Ta  Ta89  1  0.10385689  0.69783720  0.38238230  1
  Ta  Ta90  1  0.38247432  -0.00318729  0.74782090  1
  Ta  Ta91  1  0.29766018  0.09625215  0.87844983  1
  Ta  Ta92  1  0.70715873  0.90922231  0.87803597  1
  Ta  Ta93  1  0.39689384  0.40105118  0.49781403  1
  Ta  Ta94  1  0.39676908  0.59456500  0.50352847  1
  Ta  Ta95  1  0.20444733  0.59375177  0.49941099  1
  Ta  Ta96  1  0.18602266  0.37855498  0.75832805  1
  Ta  Ta97  1  0.00492651  0.39503206  0.22518754  1
  Ta  Ta98  1  0.20350947  0.19481068  0.01521318  1
  Ta  Ta99  1  0.61220726  0.21672248  0.75762799  1
  Ta  Ta100  1  0.02020563  0.21902523  0.74874445  1
  Ta  Ta101  1  0.08956853  0.08649551  0.38462209  1
  Ta  Ta102  1  0.29968885  0.69126686  0.87638558  1
  Ta  Ta103  1  0.32157523  0.49541556  0.12485023  1
  Ta  Ta104  1  0.50450233  0.10370139  0.38340740  1
  Ta  Ta105  1  0.79901313  0.20677222  0.51455995  1
  Ta  Ta106  1  0.61081584  0.20915930  0.51106576  1
  Ta  Ta107  1  0.11472356  0.90869387  0.62436842  1
  Ta  Ta108  1  0.29739626  0.89382925  0.38624564  1
  Ta  Ta109  1  0.40287565  0.79634592  0.74922809  1
  Ta  Ta110  1  0.50850125  0.29600490  0.37485963  1
  Ta  Ta111  1  0.50492851  0.91204649  0.86410369  1
  Ta  Ta112  1  0.80106820  0.39581557  0.23217841  1
  Ta  Ta113  1  0.60688476  0.38460249  0.24733644  1
  Ta  Ta114  1  0.28717391  0.29187883  0.87370808  1
  Ta  Ta115  1  0.89964612  0.69929943  0.37315514  1
  Ta  Ta116  1  0.81022985  0.82435635  -0.00167631  1
  Ta  Ta117  1  0.80103332  0.81238526  0.75701089  1
  Ta  Ta118  1  0.11185662  0.29895741  0.61489895  1
  Ta  Ta119  1  0.70451355  0.30391074  0.37399655  1
  Ti  Ti120  1  0.10926908  0.89322955  0.39014809  1
  Ti  Ti121  1  0.61182880  0.79725102  0.49842675  1
  Ti  Ti122  1  0.79654460  0.80052140  0.49286121  1
  Ti  Ti123  1  0.70405351  0.90502687  0.37511339  1
  Ti  Ti124  1  0.48833260  0.69118483  0.12933718  1
  Ti  Ti125  1  0.49771390  0.90166587  0.12538687  1
  Ti  Ti126  1  -0.00874763  0.19822493  0.49600572  1
  Ti  Ti127  1  -0.00304964  0.60332835  0.24201325  1
  Ti  Ti128  1  0.40453680  -0.00216206  -0.00497278  1
  Ti  Ti129  1  0.49505985  0.70057381  0.36244279  1
  Ti  Ti130  1  0.18552794  -0.01873581  0.26136209  1
  Ti  Ti131  1  -0.00404881  -0.00051514  0.51317404  1
  Ti  Ti132  1  0.20507231  0.18277036  0.74602976  1
  Ti  Ti133  1  0.69909822  0.70308189  0.36762659  1
  Ti  Ti134  1  0.90941141  0.70651582  0.10829961  1
  Ti  Ti135  1  0.79890986  0.00892624  0.25471704  1
  Ti  Ti136  1  0.20498554  0.78816689  0.50999644  1
  Ti  Ti137  1  0.30646138  0.09946458  0.11847027  1
  Ti  Ti138  1  0.40553996  0.40199835  0.24713119  1
  Ti  Ti139  1  0.79053401  0.60554825  0.48670984  1
  Ti  Ti140  1  0.79473151  0.20512845  -0.00084290  1
  Ti  Ti141  1  0.30448797  0.89980170  0.61362023  1
  Ti  Ti142  1  0.70753932  0.88732132  0.62662921  1
  Ti  Ti143  1  0.69762409  0.10414811  0.63609167  1
  Ti  Ti144  1  0.88955690  0.29695612  0.36965168  1
  Ti  Ti145  1  0.29306788  0.28739993  0.62362530  1
  Ti  Ti146  1  0.20707539  0.39288726  0.49451280  1
  Ti  Ti147  1  0.78350364  0.21192452  0.24193019  1
  Ti  Ti148  1  -0.01324323  0.58102960  0.74592228  1
  Ti  Ti149  1  0.60015106  0.60351256  0.76940515  1
  Ti  Ti150  1  0.50983218  0.69643426  0.63262519  1
  Ti  Ti151  1  0.60152508  0.40884541  0.76474576  1
  Ti  Ti152  1  0.48571189  0.31411339  0.86016506  1
  Ti  Ti153  1  0.19859413  0.57769871  0.76231324  1
  Ti  Ti154  1  0.38787053  0.20245439  0.74994230  1
  Ti  Ti155  1  0.20760078  0.38897483  0.23109906  1
  Ti  Ti156  1  0.79968621  -0.00525881  0.73533529  1
  Ti  Ti157  1  0.49423629  0.70554319  0.87478409  1
  Ti  Ti158  1  0.60236266  0.01003254  0.25488395  1
  Ti  Ti159  1  0.89590289  0.10585738  0.37767302  1
  Mo  Mo160  1  0.69838953  0.29814432  0.63387959  1
  Mo  Mo161  1  0.90294681  0.10815969  0.62305973  1
  Mo  Mo162  1  0.89992179  0.50710373  0.62705105  1
  Mo  Mo163  1  0.09212451  0.69647514  0.12247346  1
  Mo  Mo164  1  0.00487777  0.40396752  0.75412075  1
  Mo  Mo165  1  0.60812035  0.00033083  0.74429216  1
  Mo  Mo166  1  0.19673747  0.20580841  0.49153205  1
  Mo  Mo167  1  0.79028823  0.00381617  0.00310715  1
  Mo  Mo168  1  0.79436021  0.61151957  -0.00192623  1
  Mo  Mo169  1  0.59303865  0.00161839  -0.00260524  1
  Mo  Mo170  1  0.89252207  0.90981942  0.86779450  1
  Mo  Mo171  1  0.19382627  -0.01499187  0.49600281  1
  Mo  Mo172  1  0.10413812  0.49946647  0.13386329  1
  Mo  Mo173  1  0.39933424  -0.00535956  0.49998707  1
  Mo  Mo174  1  0.49521457  0.50330595  0.12722994  1
  Mo  Mo175  1  -0.00062497  0.00133985  0.26605822  1
  Mo  Mo176  1  0.20575964  0.80511486  0.25743909  1
  Mo  Mo177  1  0.69544062  0.29834041  0.11821222  1
  Mo  Mo178  1  0.89035698  0.29815187  0.12337599  1
  Mo  Mo179  1  0.30678211  0.29702117  0.12733234  1
  Mo  Mo180  1  0.60070465  0.20032316  0.25742426  1
  Mo  Mo181  1  0.00070271  0.80059702  0.00279308  1
  Mo  Mo182  1  0.01498290  0.60948502  0.00844821  1
  Mo  Mo183  1  0.69023781  0.71228538  0.61909868  1
  Mo  Mo184  1  0.20573040  0.00246357  0.74345642  1
  Mo  Mo185  1  0.70122202  0.70955237  0.89521029  1
  Mo  Mo186  1  0.10505805  0.28990449  0.13989761  1
  Mo  Mo187  1  0.00916132  0.40307858  0.02529840  1
  Mo  Mo188  1  0.10122410  0.29758819  0.88099146  1
  Mo  Mo189  1  0.38157203  0.39277864  0.75799510  1
  Mo  Mo190  1  0.70153846  0.30201726  0.87453413  1
  Mo  Mo191  1  0.40568088  0.80048278  0.24484941  1
  Mo  Mo192  1  0.49536041  0.50124556  0.86417762  1
  Mo  Mo193  1  0.39533634  0.59536021  -0.01258711  1
  Mo  Mo194  1  0.29736646  0.48442835  0.87186014  1
  Mo  Mo195  1  0.39134096  0.41603758  -0.01168236  1
  Mo  Mo196  1  0.09829657  0.48092143  0.87277037  1
  Mo  Mo197  1  0.10698087  0.89410948  0.12891032  1
  Mo  Mo198  1  0.40176067  0.59643102  0.24464649  1
  Mo  Mo199  1  0.89727828  0.90065895  0.62100611  1
