# generated using pymatgen
data_HfZrTaTiMo
_symmetry_space_group_name_H-M   'P 1'
_cell_length_a   15.22163169
_cell_length_b   15.21134009
_cell_length_c   16.86138631
_cell_angle_alpha   90.03405099
_cell_angle_beta   89.99860368
_cell_angle_gamma   90.10661570
_symmetry_Int_Tables_number   1
_chemical_formula_structural   HfZrTaTiMo
_chemical_formula_sum   'Hf40 Zr40 Ta40 Ti40 Mo40'
_cell_volume   3904.10181814
_cell_formula_units_Z   40
loop_
 _symmetry_equiv_pos_site_id
 _symmetry_equiv_pos_as_xyz
  1  'x, y, z'
loop_
 _atom_site_type_symbol
 _atom_site_label
 _atom_site_symmetry_multiplicity
 _atom_site_fract_x
 _atom_site_fract_y
 _atom_site_fract_z
 _atom_site_occupancy
  Hf  Hf0  1  0.91655812  0.70145423  0.62146621  1
  Hf  Hf1  1  0.70697504  0.89998475  0.37908599  1
  Hf  Hf2  1  0.30085178  0.87109017  0.12543744  1
  Hf  Hf3  1  0.60563205  0.59321682  0.74755049  1
  Hf  Hf4  1  0.18524343  0.19585587  0.74426048  1
  Hf  Hf5  1  0.19282194  -0.01764215  0.00511937  1
  Hf  Hf6  1  0.58034889  0.39476553  -0.00523662  1
  Hf  Hf7  1  0.68401725  0.30157005  0.61982854  1
  Hf  Hf8  1  0.59070661  0.58386248  0.24568410  1
  Hf  Hf9  1  0.40078240  0.58991121  0.74375503  1
  Hf  Hf10  1  0.50724618  0.68809804  0.61568749  1
  Hf  Hf11  1  0.70555560  0.69168302  0.38002371  1
  Hf  Hf12  1  0.09939891  0.31792287  0.14597061  1
  Hf  Hf13  1  0.20142818  0.21878244  0.00470946  1
  Hf  Hf14  1  0.52590388  0.10890777  0.37761018  1
  Hf  Hf15  1  0.02630711  0.81399900  0.75833923  1
  Hf  Hf16  1  0.51313911  0.88632624  0.12088593  1
  Hf  Hf17  1  0.41746444  0.77597035  -0.00460433  1
  Hf  Hf18  1  0.29630492  0.30255954  0.61616910  1
  Hf  Hf19  1  0.78886964  0.61475571  0.01131388  1
  Hf  Hf20  1  0.29657761  0.89193396  0.62836190  1
  Hf  Hf21  1  0.12171865  0.70317979  0.14139563  1
  Hf  Hf22  1  0.50860468  0.69306748  0.37888203  1
  Hf  Hf23  1  0.80810942  0.79072219  0.74720413  1
  Hf  Hf24  1  0.89355424  0.30296845  0.13463846  1
  Hf  Hf25  1  0.87168491  0.31141336  0.38275289  1
  Hf  Hf26  1  0.29981172  0.50096265  0.61107218  1
  Hf  Hf27  1  0.59184200  0.18755281  -0.01014356  1
  Hf  Hf28  1  0.80089600  -0.00697342  0.51259922  1
  Hf  Hf29  1  0.50165032  0.89864873  0.63772613  1
  Hf  Hf30  1  0.19967411  0.61606052  0.75080607  1
  Hf  Hf31  1  0.90863412  0.10966634  0.61769077  1
  Hf  Hf32  1  0.41076001  0.00336169  0.23909915  1
  Hf  Hf33  1  0.02370563  0.81414892  0.00387837  1
  Hf  Hf34  1  0.57837622  0.61984590  0.01513469  1
  Hf  Hf35  1  0.08837998  0.10152668  0.88020643  1
  Hf  Hf36  1  0.09413024  0.50857782  0.87749035  1
  Hf  Hf37  1  0.09714248  0.10989896  0.12959275  1
  Hf  Hf38  1  0.40270002  0.20770835  0.75485468  1
  Hf  Hf39  1  0.88645809  0.50765939  0.62645039  1
  Zr  Zr40  1  0.20140931  0.40708561  0.74547382  1
  Zr  Zr41  1  0.48521441  0.50947216  0.88329017  1
  Zr  Zr42  1  -0.01186525  0.42338177  0.47914856  1
  Zr  Zr43  1  0.70714451  0.88743641  0.87370762  1
  Zr  Zr44  1  0.61487556  -0.00192567  0.24096759  1
  Zr  Zr45  1  0.40897173  -0.00488392  -0.00587343  1
  Zr  Zr46  1  0.81818047  0.79480581  0.50091132  1
  Zr  Zr47  1  0.90286820  0.30766383  0.86632326  1
  Zr  Zr48  1  0.19423201  0.39777236  0.47215803  1
  Zr  Zr49  1  0.40829576  0.20887070  0.49879522  1
  Zr  Zr50  1  0.31118134  0.10914989  0.12378414  1
  Zr  Zr51  1  0.19986590  0.60853704  0.47320049  1
  Zr  Zr52  1  0.19997489  0.81099349  0.47758087  1
  Zr  Zr53  1  0.69115083  0.49249071  0.12077371  1
  Zr  Zr54  1  0.08784818  0.29977706  0.61801536  1
  Zr  Zr55  1  0.50668442  0.89918071  0.37183216  1
  Zr  Zr56  1  0.76831895  0.19360239  0.26448273  1
  Zr  Zr57  1  0.18803271  -0.01420461  0.75676662  1
  Zr  Zr58  1  0.70278998  0.09449220  0.86333055  1
  Zr  Zr59  1  0.91584538  0.91319224  0.87345292  1
  Zr  Zr60  1  0.88943356  0.30926511  0.61592123  1
  Zr  Zr61  1  0.29785432  0.09813621  0.87873169  1
  Zr  Zr62  1  0.30965286  0.09998246  0.37435440  1
  Zr  Zr63  1  0.00634100  0.60318201  0.00963547  1
  Zr  Zr64  1  0.77897043  0.41266309  0.75609033  1
  Zr  Zr65  1  0.91420492  0.69964131  0.35638184  1
  Zr  Zr66  1  0.81069665  -0.00248894  0.24749397  1
  Zr  Zr67  1  -0.00617462  0.61163489  0.76114553  1
  Zr  Zr68  1  0.69354506  0.48226362  0.39054398  1
  Zr  Zr69  1  0.09181789  0.51466469  0.61842666  1
  Zr  Zr70  1  0.80128487  0.40010365  -0.00518985  1
  Zr  Zr71  1  0.19595981  -0.00821892  0.24527521  1
  Zr  Zr72  1  0.58957947  0.37337815  0.25996885  1
  Zr  Zr73  1  -0.01093483  0.19846916  0.26865506  1
  Zr  Zr74  1  0.30287858  0.31159704  0.14718443  1
  Zr  Zr75  1  0.40489947  0.79907055  0.49858798  1
  Zr  Zr76  1  0.69368937  0.28695995  0.11937454  1
  Zr  Zr77  1  0.10031921  0.30899509  0.87322340  1
  Zr  Zr78  1  0.89861750  0.71558468  0.12981538  1
  Zr  Zr79  1  0.30065055  0.09271324  0.62343508  1
  Ta  Ta80  1  -0.00017490  0.20664115  0.48159637  1
  Ta  Ta81  1  0.10024271  0.09572521  0.59989434  1
  Ta  Ta82  1  0.38222376  0.39263215  0.00472795  1
  Ta  Ta83  1  0.71463268  0.88232110  0.10932590  1
  Ta  Ta84  1  -0.00293848  0.01574801  0.00872949  1
  Ta  Ta85  1  0.00460926  0.40605581  0.01101924  1
  Ta  Ta86  1  0.91879404  0.90421707  0.62978733  1
  Ta  Ta87  1  0.19621424  0.42071604  0.01244775  1
  Ta  Ta88  1  0.29391419  0.87399967  0.87595680  1
  Ta  Ta89  1  0.61282929  0.80198982  0.50958390  1
  Ta  Ta90  1  0.30127302  0.69714168  0.61768638  1
  Ta  Ta91  1  0.90178406  0.10921213  0.86846538  1
  Ta  Ta92  1  0.89629887  0.70996108  0.88801296  1
  Ta  Ta93  1  0.31522839  0.68459907  0.87950903  1
  Ta  Ta94  1  0.11177594  0.71879923  0.61868394  1
  Ta  Ta95  1  0.40660502  0.00082470  0.50344081  1
  Ta  Ta96  1  0.39129625  0.60569610  0.25766747  1
  Ta  Ta97  1  0.50494728  0.09426964  0.85845858  1
  Ta  Ta98  1  0.80539922  0.00103879  0.00025688  1
  Ta  Ta99  1  0.10363369  0.90934617  0.61297712  1
  Ta  Ta100  1  0.68916475  0.49770217  0.60320359  1
  Ta  Ta101  1  0.60241160  0.00200715  0.51412419  1
  Ta  Ta102  1  0.69226031  0.50607576  0.88676260  1
  Ta  Ta103  1  0.69409727  0.08793925  0.11058475  1
  Ta  Ta104  1  0.79709473  0.20373127  0.74774196  1
  Ta  Ta105  1  0.50089632  0.48503003  0.60773599  1
  Ta  Ta106  1  0.69586461  0.09855588  0.63932748  1
  Ta  Ta107  1  0.71020419  0.68703318  0.61607754  1
  Ta  Ta108  1  0.81498424  0.00165824  0.73947566  1
  Ta  Ta109  1  0.91030777  0.91012606  0.12112329  1
  Ta  Ta110  1  0.89101069  0.10843088  0.12379553  1
  Ta  Ta111  1  0.19642697  0.20403448  0.27181968  1
  Ta  Ta112  1  0.80153087  0.19505634  -0.00715594  1
  Ta  Ta113  1  0.70434166  0.89191154  0.63546854  1
  Ta  Ta114  1  0.09781204  0.08453243  0.38836884  1
  Ta  Ta115  1  0.90425221  0.50105092  0.13755622  1
  Ta  Ta116  1  0.89310103  0.09315553  0.39052841  1
  Ta  Ta117  1  -0.00659698  0.21118467  0.00692261  1
  Ta  Ta118  1  0.29010459  0.49725494  0.88178965  1
  Ta  Ta119  1  0.79292706  0.60053990  0.24361760  1
  Ti  Ti120  1  0.00271086  0.00447858  0.24916815  1
  Ti  Ti121  1  0.49335320  0.28638624  0.12368814  1
  Ti  Ti122  1  0.30049841  0.30853715  0.87640376  1
  Ti  Ti123  1  0.01065839  0.80827040  0.48766787  1
  Ti  Ti124  1  0.39802711  0.40034092  0.75252369  1
  Ti  Ti125  1  0.78918995  0.40527898  0.25160708  1
  Ti  Ti126  1  0.08916958  0.51774801  0.35061267  1
  Ti  Ti127  1  0.89287632  0.51044701  0.88173060  1
  Ti  Ti128  1  0.69135553  0.70117326  0.87808753  1
  Ti  Ti129  1  0.60001766  -0.01335177  -0.00876091  1
  Ti  Ti130  1  0.40419835  0.78615718  0.75395607  1
  Ti  Ti131  1  0.79618478  0.60151755  0.75954230  1
  Ti  Ti132  1  0.19839612  0.20066463  0.47997254  1
  Ti  Ti133  1  0.22029903  0.79029032  0.26856981  1
  Ti  Ti134  1  0.39994124  0.58941555  0.48340496  1
  Ti  Ti135  1  0.12296745  0.72031350  0.88360312  1
  Ti  Ti136  1  0.27446232  0.50409542  0.15336524  1
  Ti  Ti137  1  0.60582541  0.78626520  0.24375646  1
  Ti  Ti138  1  0.31587197  0.31478886  0.36147090  1
  Ti  Ti139  1  0.49613120  0.30172888  0.62502594  1
  Ti  Ti140  1  0.50483477  0.10180497  0.64052929  1
  Ti  Ti141  1  -0.00637886  0.40612880  0.74661922  1
  Ti  Ti142  1  0.39732256  -0.00891725  0.76200070  1
  Ti  Ti143  1  0.79924437  0.80470502  0.24914264  1
  Ti  Ti144  1  0.81375295  0.58779933  0.48952414  1
  Ti  Ti145  1  0.78005000  0.19418639  0.49830527  1
  Ti  Ti146  1  0.47553255  0.48724519  0.13161842  1
  Ti  Ti147  1  0.40573262  0.20337744  -0.01095016  1
  Ti  Ti148  1  0.91580080  0.90578395  0.37257253  1
  Ti  Ti149  1  0.00607781  0.61751043  0.48514817  1
  Ti  Ti150  1  0.50909518  0.88029662  0.86628485  1
  Ti  Ti151  1  0.30969244  0.90488365  0.37007595  1
  Ti  Ti152  1  -0.00943498  0.40897488  0.26373618  1
  Ti  Ti153  1  0.41832403  0.20828870  0.25498187  1
  Ti  Ti154  1  0.60367820  -0.00930510  0.75120589  1
  Ti  Ti155  1  0.58261871  0.39407912  0.75835323  1
  Ti  Ti156  1  0.68570586  0.29735090  0.86958742  1
  Ti  Ti157  1  0.20213187  0.60743790  0.00768546  1
  Ti  Ti158  1  0.38045728  0.58437435  0.02280152  1
  Ti  Ti159  1  0.01700809  0.81710852  0.24756219  1
  Mo  Mo160  1  0.60741644  0.79104526  0.73883908  1
  Mo  Mo161  1  0.50442507  0.10214246  0.11631126  1
  Mo  Mo162  1  0.59991222  0.59924805  0.50203090  1
  Mo  Mo163  1  0.19453592  0.40142873  0.27244178  1
  Mo  Mo164  1  0.40419435  0.41063588  0.25194183  1
  Mo  Mo165  1  0.31323233  0.70706897  0.37287232  1
  Mo  Mo166  1  0.00580921  0.01680426  0.74165494  1
  Mo  Mo167  1  -0.00687316  0.19128317  0.74280143  1
  Mo  Mo168  1  0.30046795  0.50230068  0.36143965  1
  Mo  Mo169  1  0.49004672  0.69595210  0.13996629  1
  Mo  Mo170  1  0.79168381  0.39875187  0.50131994  1
  Mo  Mo171  1  0.19972387  0.60457744  0.26671718  1
  Mo  Mo172  1  0.69315139  0.70530992  0.13570572  1
  Mo  Mo173  1  0.39445379  0.40268499  0.49234639  1
  Mo  Mo174  1  0.60841736  0.79482824  -0.00037637  1
  Mo  Mo175  1  0.09244630  0.29873534  0.36639843  1
  Mo  Mo176  1  0.50943219  0.70679025  0.86031231  1
  Mo  Mo177  1  0.80941369  0.80242568  -0.00226283  1
  Mo  Mo178  1  0.59068679  0.18321130  0.24073913  1
  Mo  Mo179  1  0.09943249  0.90167034  0.13300319  1
  Mo  Mo180  1  0.49949265  0.29819821  0.37865370  1
  Mo  Mo181  1  0.09537701  0.50142382  0.14304401  1
  Mo  Mo182  1  0.10068619  0.70878964  0.35527175  1
  Mo  Mo183  1  0.09856365  0.90282502  0.36699950  1
  Mo  Mo184  1  0.21399492  0.79288546  0.74760663  1
  Mo  Mo185  1  0.00041442  -0.00652154  0.49547041  1
  Mo  Mo186  1  0.48771927  0.49004407  0.38510905  1
  Mo  Mo187  1  0.59537708  0.18636689  0.51792602  1
  Mo  Mo188  1  0.58141374  0.38495187  0.49362863  1
  Mo  Mo189  1  0.21467193  0.78687873  0.00166292  1
  Mo  Mo190  1  0.67535005  0.27546744  0.39711172  1
  Mo  Mo191  1  0.10911336  0.90670915  0.88052617  1
  Mo  Mo192  1  0.41017871  0.79792583  0.25339869  1
  Mo  Mo193  1  0.88839062  0.50888093  0.35545963  1
  Mo  Mo194  1  0.20918362  0.00338506  0.49435996  1
  Mo  Mo195  1  0.48973738  0.29757630  0.87423374  1
  Mo  Mo196  1  0.59738334  0.20346814  0.74967323  1
  Mo  Mo197  1  -0.00157710  0.60268960  0.23629438  1
  Mo  Mo198  1  0.70353425  0.08950503  0.38856201  1
  Mo  Mo199  1  0.31054926  0.68655872  0.13160298  1
