# generated using pymatgen
data_HfZrTaTiMo
_symmetry_space_group_name_H-M   'P 1'
_cell_length_a   15.17903194
_cell_length_b   15.17204577
_cell_length_c   16.81550173
_cell_angle_alpha   89.98172547
_cell_angle_beta   89.97356366
_cell_angle_gamma   90.01747670
_symmetry_Int_Tables_number   1
_chemical_formula_structural   HfZrTaTiMo
_chemical_formula_sum   'Hf40 Zr40 Ta40 Ti40 Mo40'
_cell_volume   3872.55826066
_cell_formula_units_Z   40
loop_
 _symmetry_equiv_pos_site_id
 _symmetry_equiv_pos_as_xyz
  1  'x, y, z'
loop_
 _atom_site_type_symbol
 _atom_site_label
 _atom_site_symmetry_multiplicity
 _atom_site_fract_x
 _atom_site_fract_y
 _atom_site_fract_z
 _atom_site_occupancy
  Hf  Hf0  1  0.01632508  0.78799030  0.75318963  1
  Hf  Hf1  1  0.61093602  0.81311872  0.75880609  1
  Hf  Hf2  1  0.28462510  0.10724468  0.14001106  1
  Hf  Hf3  1  0.00028117  0.18725114  0.26235544  1
  Hf  Hf4  1  0.52301484  0.91580986  0.36951208  1
  Hf  Hf5  1  0.50239016  0.71249060  0.62995018  1
  Hf  Hf6  1  0.58981862  0.20564740  0.00993796  1
  Hf  Hf7  1  0.01166654  0.39868207  0.73253531  1
  Hf  Hf8  1  0.18706942  0.20266357  -0.01088229  1
  Hf  Hf9  1  0.68891157  0.70958514  0.38169793  1
  Hf  Hf10  1  0.82251243  0.40478084  0.25168655  1
  Hf  Hf11  1  0.69336810  0.10251782  0.12796437  1
  Hf  Hf12  1  0.80795759  0.79071316  0.76930925  1
  Hf  Hf13  1  0.30323116  0.29105683  0.63213109  1
  Hf  Hf14  1  0.31603298  0.70409124  0.12891306  1
  Hf  Hf15  1  0.19915259  0.80233623  0.26120340  1
  Hf  Hf16  1  0.28881988  0.49751095  0.86327917  1
  Hf  Hf17  1  0.69195207  0.10483455  0.88684032  1
  Hf  Hf18  1  0.50398053  0.70580271  0.86951535  1
  Hf  Hf19  1  0.20463579  0.79813663  0.01076518  1
  Hf  Hf20  1  0.81517102  -0.00020268  0.24148511  1
  Hf  Hf21  1  0.50148948  0.92086161  0.61901531  1
  Hf  Hf22  1  0.40245321  0.39265213  0.49474534  1
  Hf  Hf23  1  0.08768736  0.69030995  0.37822143  1
  Hf  Hf24  1  0.09431496  0.90480801  0.12693563  1
  Hf  Hf25  1  0.79799834  0.21954743  0.00992339  1
  Hf  Hf26  1  0.90011978  0.68142448  0.12966034  1
  Hf  Hf27  1  0.48098722  0.09494537  0.12883054  1
  Hf  Hf28  1  0.18583062  0.40543956  -0.00596138  1
  Hf  Hf29  1  0.09476980  0.69880697  0.60573278  1
  Hf  Hf30  1  0.59366841  0.79781837  0.24027558  1
  Hf  Hf31  1  0.81381637  0.60882806  0.52118450  1
  Hf  Hf32  1  0.72854327  0.50222301  0.12197962  1
  Hf  Hf33  1  0.30149563  0.09126794  0.63161540  1
  Hf  Hf34  1  0.71649371  0.50908070  0.38164167  1
  Hf  Hf35  1  0.29644211  0.30076275  0.12631208  1
  Hf  Hf36  1  0.90674702  0.30050664  0.39441886  1
  Hf  Hf37  1  0.20127378  0.59165396  0.25215688  1
  Hf  Hf38  1  0.29421888  0.49172183  0.63480552  1
  Hf  Hf39  1  0.17942811  0.60567030  0.74458048  1
  Zr  Zr40  1  0.78958244  0.79649280  0.23678664  1
  Zr  Zr41  1  0.41377632  0.60375533  0.25778953  1
  Zr  Zr42  1  0.39284517  0.02060453  0.48155520  1
  Zr  Zr43  1  0.81541231  0.79876483  -0.00478527  1
  Zr  Zr44  1  0.39991746  0.80253885  0.26849884  1
  Zr  Zr45  1  0.39884972  0.60846602  -0.00434504  1
  Zr  Zr46  1  0.52213098  0.50575746  0.37599963  1
  Zr  Zr47  1  0.40193391  0.39585148  -0.01002397  1
  Zr  Zr48  1  0.09673376  0.68248779  0.13166488  1
  Zr  Zr49  1  0.51708855  0.49899140  0.87098002  1
  Zr  Zr50  1  0.89067923  0.68722727  0.36241630  1
  Zr  Zr51  1  0.41169108  0.79930933  0.48332594  1
  Zr  Zr52  1  0.39112137  0.82003788  0.74796310  1
  Zr  Zr53  1  0.50410327  0.50565195  0.12397890  1
  Zr  Zr54  1  0.69248475  0.30529582  0.38728614  1
  Zr  Zr55  1  0.72273382  0.49024470  0.86889350  1
  Zr  Zr56  1  -0.00367427  -0.00335761  -0.00548731  1
  Zr  Zr57  1  0.58613615  0.01786383  0.75630178  1
  Zr  Zr58  1  0.40626676  0.59400596  0.50465111  1
  Zr  Zr59  1  0.07701850  0.91259701  0.39509931  1
  Zr  Zr60  1  0.28243757  0.71203139  0.87020126  1
  Zr  Zr61  1  0.10069527  0.48983022  0.38411836  1
  Zr  Zr62  1  0.40818481  0.38889244  0.26321719  1
  Zr  Zr63  1  -0.00985797  0.81673820  0.24819125  1
  Zr  Zr64  1  -0.00020689  -0.00441639  0.74661225  1
  Zr  Zr65  1  0.58687709  0.21265712  0.24887306  1
  Zr  Zr66  1  0.18469731  0.19941674  0.75215393  1
  Zr  Zr67  1  0.79139234  -0.00809629  0.75710489  1
  Zr  Zr68  1  0.69837631  0.90414363  0.11162079  1
  Zr  Zr69  1  0.08359634  0.30344815  0.12954357  1
  Zr  Zr70  1  0.40446736  0.60165083  0.74516253  1
  Zr  Zr71  1  0.28928108  0.90006186  0.60784461  1
  Zr  Zr72  1  0.78908164  0.20000473  0.74410451  1
  Zr  Zr73  1  0.17700358  0.01469230  0.26624432  1
  Zr  Zr74  1  0.80256692  0.20626312  0.24649668  1
  Zr  Zr75  1  0.29368411  0.08774175  0.86273955  1
  Zr  Zr76  1  0.62150028  0.39478414  0.00756629  1
  Zr  Zr77  1  0.88507266  0.88498567  0.61965458  1
  Zr  Zr78  1  0.41763586  0.19264792  0.75728044  1
  Zr  Zr79  1  0.20477266  0.00418278  0.00190058  1
  Ta  Ta80  1  0.59382865  0.79511247  0.00026187  1
  Ta  Ta81  1  0.89582809  0.11092705  0.87388318  1
  Ta  Ta82  1  0.70522921  0.68850933  0.88302613  1
  Ta  Ta83  1  0.89440013  0.09505400  0.61550602  1
  Ta  Ta84  1  0.29324536  0.49819624  0.12517792  1
  Ta  Ta85  1  0.79180489  0.18231703  0.49781098  1
  Ta  Ta86  1  0.20478356  0.38718225  0.50020195  1
  Ta  Ta87  1  0.82544993  0.58349780  -0.00787423  1
  Ta  Ta88  1  0.60804442  0.39534401  0.73330914  1
  Ta  Ta89  1  0.60667757  0.60981784  0.52093062  1
  Ta  Ta90  1  0.71033158  0.72314497  0.62672263  1
  Ta  Ta91  1  0.69379462  0.08836717  0.36491120  1
  Ta  Ta92  1  0.61803880  0.60686969  0.24163094  1
  Ta  Ta93  1  0.60231426  0.41372769  0.51906815  1
  Ta  Ta94  1  0.89468716  0.31161044  0.86490066  1
  Ta  Ta95  1  0.08618776  0.09610752  0.86904481  1
  Ta  Ta96  1  0.30500906  0.91185926  0.13779378  1
  Ta  Ta97  1  0.60426302  0.01750267  0.49680234  1
  Ta  Ta98  1  0.80836317  0.40265072  0.72353592  1
  Ta  Ta99  1  0.49089033  0.09568369  0.89042765  1
  Ta  Ta100  1  -0.01094214  0.20673889  -0.00620004  1
  Ta  Ta101  1  -0.00902354  0.19693952  0.73963949  1
  Ta  Ta102  1  0.41016222  0.39463878  0.75245832  1
  Ta  Ta103  1  0.69087038  0.09664283  0.62232605  1
  Ta  Ta104  1  0.61628149  0.60110910  0.73558491  1
  Ta  Ta105  1  0.19851227  0.39215401  0.25437837  1
  Ta  Ta106  1  0.10086421  0.09207451  0.60957008  1
  Ta  Ta107  1  0.80696569  0.59759340  0.73603624  1
  Ta  Ta108  1  0.19901155  0.79638680  0.48466240  1
  Ta  Ta109  1  0.90180929  0.28910406  0.61124136  1
  Ta  Ta110  1  0.11366835  0.88668593  0.87578389  1
  Ta  Ta111  1  0.87888813  0.89655414  0.38544160  1
  Ta  Ta112  1  0.29645726  0.68910076  0.38318122  1
  Ta  Ta113  1  0.69720937  0.28917523  0.61208863  1
  Ta  Ta114  1  0.29198496  0.70406439  0.61833383  1
  Ta  Ta115  1  0.38737138  0.19434984  -0.00519462  1
  Ta  Ta116  1  0.09391451  0.90024465  0.60305995  1
  Ta  Ta117  1  0.50378748  0.29837256  0.61911711  1
  Ta  Ta118  1  0.91037278  0.49737246  0.38927096  1
  Ta  Ta119  1  0.49147473  0.89998272  0.12810375  1
  Ti  Ti120  1  0.80285916  0.40186532  0.51664610  1
  Ti  Ti121  1  0.78533316  -0.01326095  0.50036893  1
  Ti  Ti122  1  0.09019514  0.30382244  0.86676297  1
  Ti  Ti123  1  0.49171116  0.30177756  0.12505714  1
  Ti  Ti124  1  0.70045003  0.30181684  0.86670556  1
  Ti  Ti125  1  0.00685348  0.78211428  -0.00545238  1
  Ti  Ti126  1  0.70054817  0.69331771  0.10849092  1
  Ti  Ti127  1  0.10820661  0.29116615  0.38048418  1
  Ti  Ti128  1  0.91014002  0.90046898  0.87670538  1
  Ti  Ti129  1  0.60661774  0.60007767  -0.00000832  1
  Ti  Ti130  1  0.20154106  0.58871613  0.50310940  1
  Ti  Ti131  1  0.30630333  0.90380326  0.87743578  1
  Ti  Ti132  1  0.00809579  0.40381058  0.51863239  1
  Ti  Ti133  1  0.19477809  -0.02247923  0.74679576  1
  Ti  Ti134  1  0.61473138  0.81851152  0.50338725  1
  Ti  Ti135  1  0.39880402  0.01047650  0.26510960  1
  Ti  Ti136  1  0.80914584  0.01023663  0.00503620  1
  Ti  Ti137  1  0.29943511  0.49277036  0.37672290  1
  Ti  Ti138  1  0.21715725  0.19051846  0.49217376  1
  Ti  Ti139  1  0.29164172  0.91058888  0.37872630  1
  Ti  Ti140  1  0.93226920  0.48770461  0.12771668  1
  Ti  Ti141  1  0.08226102  0.10341610  0.12493694  1
  Ti  Ti142  1  0.18868141  0.59797941  0.00104042  1
  Ti  Ti143  1  -0.02351569  0.78647345  0.49806448  1
  Ti  Ti144  1  0.91643011  0.67432174  0.87442806  1
  Ti  Ti145  1  0.90494492  0.08622766  0.39002698  1
  Ti  Ti146  1  0.08159905  0.50839265  0.87068341  1
  Ti  Ti147  1  0.69893054  0.90019975  0.89489641  1
  Ti  Ti148  1  0.49446191  0.12445816  0.37244336  1
  Ti  Ti149  1  0.40403125  0.81317141  0.00380462  1
  Ti  Ti150  1  -0.01094128  0.59083983  0.73067780  1
  Ti  Ti151  1  0.49937175  0.11748043  0.61403768  1
  Ti  Ti152  1  0.29857332  0.29875558  0.86649566  1
  Ti  Ti153  1  0.58599139  -0.00360063  0.00187640  1
  Ti  Ti154  1  -0.01241344  0.40470229  -0.00866096  1
  Ti  Ti155  1  0.50900608  0.29531584  0.87365848  1
  Ti  Ti156  1  0.61378284  0.40525273  0.24264064  1
  Ti  Ti157  1  0.00663361  0.19477013  0.50324873  1
  Ti  Ti158  1  0.49433461  0.90981768  0.88226503  1
  Ti  Ti159  1  0.10924046  0.29365272  0.61938559  1
  Mo  Mo160  1  -0.01140923  0.00683598  0.25332374  1
  Mo  Mo161  1  0.59544822  0.20248206  0.49270664  1
  Mo  Mo162  1  0.10952324  0.49153444  0.12639221  1
  Mo  Mo163  1  0.09238838  0.10848734  0.39792228  1
  Mo  Mo164  1  0.39840114  -0.00282790  0.74964421  1
  Mo  Mo165  1  0.09772828  0.69441902  0.88092434  1
  Mo  Mo166  1  0.10989765  0.49246668  0.61494823  1
  Mo  Mo167  1  0.69662929  0.31061818  0.13404871  1
  Mo  Mo168  1  0.90351641  0.30189560  0.12451568  1
  Mo  Mo169  1  0.70272158  0.90898212  0.36932891  1
  Mo  Mo170  1  -0.01999458  0.00273630  0.50974019  1
  Mo  Mo171  1  0.19150181  0.00527026  0.48877234  1
  Mo  Mo172  1  0.59718982  0.21108077  0.75199328  1
  Mo  Mo173  1  0.29710002  0.29829872  0.37583796  1
  Mo  Mo174  1  0.90608817  0.90382309  0.11299464  1
  Mo  Mo175  1  0.20098654  0.39774469  0.76023594  1
  Mo  Mo176  1  0.39646782  -0.00451983  0.00706931  1
  Mo  Mo177  1  0.19247672  0.80439951  0.73966243  1
  Mo  Mo178  1  0.81993313  0.39610446  0.00216094  1
  Mo  Mo179  1  0.00406578  0.59487281  0.50687326  1
  Mo  Mo180  1  0.50936345  0.70053770  0.38587175  1
  Mo  Mo181  1  0.69108789  0.90734267  0.62703046  1
  Mo  Mo182  1  0.19507544  0.20950494  0.26188656  1
  Mo  Mo183  1  0.29469632  0.11503998  0.36186790  1
  Mo  Mo184  1  0.50227481  0.49744670  0.63324964  1
  Mo  Mo185  1  0.90789693  0.49487385  0.61449190  1
  Mo  Mo186  1  0.90790342  0.10344617  0.11809085  1
  Mo  Mo187  1  0.00830695  0.58688825  -0.00294317  1
  Mo  Mo188  1  0.50415122  0.30358363  0.38862560  1
  Mo  Mo189  1  0.51046222  0.70489190  0.11502010  1
  Mo  Mo190  1  0.90747584  0.49292375  0.86016991  1
  Mo  Mo191  1  0.90263853  0.70217056  0.63260899  1
  Mo  Mo192  1  0.79996968  0.59482477  0.24919534  1
  Mo  Mo193  1  -0.00766155  0.56776070  0.25242609  1
  Mo  Mo194  1  0.00729904  0.39107109  0.26137477  1
  Mo  Mo195  1  0.70274136  0.50271610  0.62592551  1
  Mo  Mo196  1  0.59612817  0.00471989  0.24638258  1
  Mo  Mo197  1  0.40000622  0.20535163  0.49907817  1
  Mo  Mo198  1  0.39130061  0.20382262  0.25420625  1
  Mo  Mo199  1  0.78946965  0.79952399  0.49837418  1
