# generated using pymatgen
data_HfZrTaTiMo
_symmetry_space_group_name_H-M   'P 1'
_cell_length_a   15.20128526
_cell_length_b   15.19305529
_cell_length_c   16.88718911
_cell_angle_alpha   89.91437223
_cell_angle_beta   89.98970206
_cell_angle_gamma   89.88271547
_symmetry_Int_Tables_number   1
_chemical_formula_structural   HfZrTaTiMo
_chemical_formula_sum   'Hf40 Zr40 Ta40 Ti40 Mo40'
_cell_volume   3900.15073512
_cell_formula_units_Z   40
loop_
 _symmetry_equiv_pos_site_id
 _symmetry_equiv_pos_as_xyz
  1  'x, y, z'
loop_
 _atom_site_type_symbol
 _atom_site_label
 _atom_site_symmetry_multiplicity
 _atom_site_fract_x
 _atom_site_fract_y
 _atom_site_fract_z
 _atom_site_occupancy
  Hf  Hf0  1  0.57215397  0.80594299  0.23753710  1
  Hf  Hf1  1  0.59344102  0.60042441  0.26135170  1
  Hf  Hf2  1  0.49203751  0.29648433  0.13522889  1
  Hf  Hf3  1  0.61490538  0.81682238  0.50467026  1
  Hf  Hf4  1  0.29154883  0.49716826  0.60141243  1
  Hf  Hf5  1  -0.00425435  0.00340536  -0.00529318  1
  Hf  Hf6  1  0.81235917  0.38339866  0.74771059  1
  Hf  Hf7  1  0.40837804  0.80165310  0.49674129  1
  Hf  Hf8  1  0.57714395  0.78925520  0.00366997  1
  Hf  Hf9  1  0.90823355  0.69140333  0.88916800  1
  Hf  Hf10  1  0.50354148  0.10633109  0.88682207  1
  Hf  Hf11  1  0.19087244  0.61428793  0.75282552  1
  Hf  Hf12  1  -0.01119174  0.79538880  0.49135907  1
  Hf  Hf13  1  0.10319663  0.89164045  0.61555795  1
  Hf  Hf14  1  0.60852905  0.60685014  0.49233710  1
  Hf  Hf15  1  -0.00051194  0.20762120  0.00535381  1
  Hf  Hf16  1  0.46973435  0.89907475  0.88677333  1
  Hf  Hf17  1  0.08770631  0.31134600  0.87632731  1
  Hf  Hf18  1  0.40343281  0.40844960  0.26381664  1
  Hf  Hf19  1  0.89980138  0.50731715  0.62276757  1
  Hf  Hf20  1  0.59799434  0.79966307  0.75889676  1
  Hf  Hf21  1  0.80009723  0.21955541  0.00501977  1
  Hf  Hf22  1  0.68803117  0.68719049  0.11804855  1
  Hf  Hf23  1  0.70437726  0.30082322  0.37782682  1
  Hf  Hf24  1  0.70023098  0.29253901  0.61822351  1
  Hf  Hf25  1  0.10240362  0.10100847  0.62799284  1
  Hf  Hf26  1  0.60963969  0.37914854  -0.00193615  1
  Hf  Hf27  1  0.50052349  0.48955437  0.62133617  1
  Hf  Hf28  1  0.10675650  0.69874241  0.13733091  1
  Hf  Hf29  1  0.10346802  0.30282818  0.61640820  1
  Hf  Hf30  1  0.50981427  0.91915990  0.62910435  1
  Hf  Hf31  1  0.59266782  0.58333408  -0.00529403  1
  Hf  Hf32  1  0.38885963  0.60506942  0.74158361  1
  Hf  Hf33  1  0.68648413  0.90573192  0.11038822  1
  Hf  Hf34  1  0.91164849  0.30117953  0.37390949  1
  Hf  Hf35  1  0.80250006  0.79672587  0.75793791  1
  Hf  Hf36  1  0.10347686  0.29683868  0.38096319  1
  Hf  Hf37  1  0.21171820  0.80241231  0.25791634  1
  Hf  Hf38  1  0.09533866  0.90208060  0.12773685  1
  Hf  Hf39  1  0.10484581  0.50788413  0.89168380  1
  Zr  Zr40  1  0.09354728  0.69496897  0.36571118  1
  Zr  Zr41  1  0.30078712  0.29821102  0.37993189  1
  Zr  Zr42  1  0.31090129  0.29448538  0.61125207  1
  Zr  Zr43  1  0.00169174  -0.00471063  0.75931918  1
  Zr  Zr44  1  0.50911021  0.50202855  0.13164903  1
  Zr  Zr45  1  0.50417589  0.08236915  0.13155642  1
  Zr  Zr46  1  0.20998576  0.20115602  0.74939616  1
  Zr  Zr47  1  0.28300391  0.70447651  0.60358507  1
  Zr  Zr48  1  0.20977247  0.62182250  0.00599623  1
  Zr  Zr49  1  0.89533936  0.10426224  0.63917309  1
  Zr  Zr50  1  0.47524836  0.69144575  0.87291273  1
  Zr  Zr51  1  0.71698397  0.10924072  0.88366095  1
  Zr  Zr52  1  0.88158008  0.89774707  0.36962725  1
  Zr  Zr53  1  0.19924696  0.00056743  0.48418974  1
  Zr  Zr54  1  0.19753062  0.41453487  0.75019839  1
  Zr  Zr55  1  0.69643079  0.50577119  0.62693289  1
  Zr  Zr56  1  0.71148530  0.09368320  0.37208337  1
  Zr  Zr57  1  0.89710843  0.88485921  0.62835617  1
  Zr  Zr58  1  0.21688061  -0.00338634  0.00433483  1
  Zr  Zr59  1  0.19927461  0.40308153  0.24188624  1
  Zr  Zr60  1  0.78085774  -0.02125207  0.51240527  1
  Zr  Zr61  1  0.78583099  0.79772623  0.23463222  1
  Zr  Zr62  1  -0.00600434  0.58862068  0.75325766  1
  Zr  Zr63  1  0.50907913  0.08870152  0.35690982  1
  Zr  Zr64  1  0.50580771  0.70090075  0.62996325  1
  Zr  Zr65  1  0.90408886  0.47111215  0.88878321  1
  Zr  Zr66  1  0.30526539  0.30586830  0.88142911  1
  Zr  Zr67  1  0.80245310  0.40926889  0.49970405  1
  Zr  Zr68  1  0.81060275  0.20846907  0.23791483  1
  Zr  Zr69  1  0.70147532  0.69581949  0.88668949  1
  Zr  Zr70  1  0.10237141  0.10586923  0.87370205  1
  Zr  Zr71  1  0.89252511  0.90492898  0.88275899  1
  Zr  Zr72  1  0.19213545  0.00329829  0.25752142  1
  Zr  Zr73  1  0.81399126  0.18951817  0.50156641  1
  Zr  Zr74  1  0.60420305  0.20278888  0.24898038  1
  Zr  Zr75  1  0.30153722  0.90445682  0.61403579  1
  Zr  Zr76  1  0.39950976  0.20346741  0.00788541  1
  Zr  Zr77  1  0.91663218  0.09527928  0.35896097  1
  Zr  Zr78  1  0.40034549  0.39565449  0.74826419  1
  Zr  Zr79  1  0.59993770  0.00573274  0.76666293  1
  Ta  Ta80  1  0.60358446  0.38793409  0.75430705  1
  Ta  Ta81  1  0.49831050  0.48823079  0.87200551  1
  Ta  Ta82  1  0.41170862  0.19320486  0.49149519  1
  Ta  Ta83  1  0.88842236  0.69104499  0.36389061  1
  Ta  Ta84  1  -0.00391797  0.59106056  0.24124166  1
  Ta  Ta85  1  0.01546921  0.20613640  0.23413721  1
  Ta  Ta86  1  0.09731132  0.49692053  0.37476817  1
  Ta  Ta87  1  -0.00955738  0.80370145  0.24738531  1
  Ta  Ta88  1  0.31121739  0.51600619  0.12521494  1
  Ta  Ta89  1  -0.00574102  0.01070149  0.49953328  1
  Ta  Ta90  1  0.10340774  0.10266389  0.12587191  1
  Ta  Ta91  1  0.20423400  0.80409355  0.74823486  1
  Ta  Ta92  1  0.30652630  0.10095949  0.13944362  1
  Ta  Ta93  1  0.71168305  0.51327469  0.37566735  1
  Ta  Ta94  1  0.09668392  0.49601833  0.11835433  1
  Ta  Ta95  1  0.70306596  0.10336928  0.11057647  1
  Ta  Ta96  1  0.59279590  0.39901734  0.48427350  1
  Ta  Ta97  1  0.30752323  0.10215206  0.36124445  1
  Ta  Ta98  1  0.11077098  0.88302874  0.88179621  1
  Ta  Ta99  1  0.00658710  0.40411496  0.49846694  1
  Ta  Ta100  1  0.79381870  0.00100414  0.23214165  1
  Ta  Ta101  1  0.41703556  0.19233171  0.75002163  1
  Ta  Ta102  1  0.20680903  -0.00624866  0.75398642  1
  Ta  Ta103  1  0.29443743  0.50637166  0.38769879  1
  Ta  Ta104  1  0.67739663  0.90652754  0.36149183  1
  Ta  Ta105  1  0.90552750  0.32729682  0.12390268  1
  Ta  Ta106  1  0.39427770  -0.00000934  0.75026840  1
  Ta  Ta107  1  0.60139011  0.59095577  0.75753756  1
  Ta  Ta108  1  0.31060714  0.09219284  0.87666418  1
  Ta  Ta109  1  0.80504076  0.41378905  0.25378363  1
  Ta  Ta110  1  0.41341075  0.00673997  0.49041128  1
  Ta  Ta111  1  0.80404067  0.79979838  0.01034238  1
  Ta  Ta112  1  0.90235186  0.69923665  0.12100441  1
  Ta  Ta113  1  0.29953897  0.69607907  0.38672164  1
  Ta  Ta114  1  0.01175230  0.78680873  0.75621327  1
  Ta  Ta115  1  0.90557580  0.50537520  0.37403736  1
  Ta  Ta116  1  0.70171508  0.48651607  0.87217185  1
  Ta  Ta117  1  0.40139321  -0.02693420  0.25227295  1
  Ta  Ta118  1  0.67745041  0.09429012  0.62858920  1
  Ta  Ta119  1  0.31067554  0.51663991  0.88595106  1
  Ti  Ti120  1  0.08403299  0.69782744  0.61803372  1
  Ti  Ti121  1  0.20732447  0.20305241  0.00868595  1
  Ti  Ti122  1  0.31173108  0.09841177  0.62226803  1
  Ti  Ti123  1  0.50888814  0.28644148  0.62115208  1
  Ti  Ti124  1  0.41018121  0.39380365  0.48469706  1
  Ti  Ti125  1  0.00943276  0.79279098  0.00324692  1
  Ti  Ti126  1  0.00124667  0.40336566  0.24703805  1
  Ti  Ti127  1  0.21027591  0.40165371  0.01083404  1
  Ti  Ti128  1  0.69995418  0.30706475  0.13289353  1
  Ti  Ti129  1  0.28791226  0.72599659  0.87736458  1
  Ti  Ti130  1  0.46511184  0.88326065  0.11141031  1
  Ti  Ti131  1  0.89777078  0.90519921  0.11993508  1
  Ti  Ti132  1  0.79602037  0.59914404  0.75653464  1
  Ti  Ti133  1  0.41075622  0.59326280  0.49276618  1
  Ti  Ti134  1  0.79218736  -0.00034631  0.74950642  1
  Ti  Ti135  1  0.08329059  0.90740235  0.37117386  1
  Ti  Ti136  1  0.72061287  0.70616995  0.62477525  1
  Ti  Ti137  1  0.60433421  0.40443034  0.26903599  1
  Ti  Ti138  1  0.20549980  0.19232545  0.49760949  1
  Ti  Ti139  1  0.90588116  0.09978372  0.12784593  1
  Ti  Ti140  1  0.80128527  0.59846494  0.24184359  1
  Ti  Ti141  1  0.51480692  0.29388341  0.87478689  1
  Ti  Ti142  1  0.17929285  0.60173954  0.49438715  1
  Ti  Ti143  1  -0.01399880  0.60012264  0.49748432  1
  Ti  Ti144  1  0.70417879  0.71244989  0.37234150  1
  Ti  Ti145  1  0.30826481  0.89673089  0.38125536  1
  Ti  Ti146  1  0.91450501  0.29676545  0.62163033  1
  Ti  Ti147  1  -0.00146066  0.59581216  0.01282768  1
  Ti  Ti148  1  0.49830760  0.70619546  0.37522646  1
  Ti  Ti149  1  0.59532673  0.19319100  0.49280949  1
  Ti  Ti150  1  0.69829455  0.90149342  0.89756104  1
  Ti  Ti151  1  0.20931815  0.20860324  0.24054914  1
  Ti  Ti152  1  0.80108074  0.58743104  0.00591663  1
  Ti  Ti153  1  0.59213286  0.00386613  -0.00301809  1
  Ti  Ti154  1  0.10087016  0.10808359  0.36971420  1
  Ti  Ti155  1  0.40275297  0.41036056  0.00506592  1
  Ti  Ti156  1  0.10708911  0.30292884  0.11879413  1
  Ti  Ti157  1  0.71263252  0.48898352  0.12711149  1
  Ti  Ti158  1  0.21318275  0.59585634  0.25003252  1
  Ti  Ti159  1  0.09548839  0.50080942  0.61838321  1
  Mo  Mo160  1  -0.00663580  0.00109094  0.23874123  1
  Mo  Mo161  1  0.39075745  0.19580454  0.24827863  1
  Mo  Mo162  1  0.47832879  0.68704761  0.12423137  1
  Mo  Mo163  1  0.80418474  0.61602072  0.49424996  1
  Mo  Mo164  1  0.50401585  0.29748046  0.37498384  1
  Mo  Mo165  1  0.49403017  0.11055760  0.62279912  1
  Mo  Mo166  1  0.09766738  0.70376160  0.87980349  1
  Mo  Mo167  1  0.60194874  0.20074995  0.01054229  1
  Mo  Mo168  1  0.49856946  0.89578013  0.37589276  1
  Mo  Mo169  1  -0.01176651  0.21749638  0.75429803  1
  Mo  Mo170  1  0.89553379  0.28035208  0.87148318  1
  Mo  Mo171  1  0.79440966  0.78509300  0.49376375  1
  Mo  Mo172  1  0.89972745  0.50798785  0.12416835  1
  Mo  Mo173  1  0.19531918  0.80535623  0.00978091  1
  Mo  Mo174  1  0.38479684  0.80902423  0.74593493  1
  Mo  Mo175  1  0.50158932  0.50473984  0.38081898  1
  Mo  Mo176  1  0.80436544  0.00439726  0.01180233  1
  Mo  Mo177  1  0.90406706  0.69591584  0.62872935  1
  Mo  Mo178  1  0.90226591  0.11038989  0.86633523  1
  Mo  Mo179  1  0.31227046  0.70884100  0.13413700  1
  Mo  Mo180  1  0.40199181  0.60041640  0.00092575  1
  Mo  Mo181  1  0.29878158  0.30940002  0.12170489  1
  Mo  Mo182  1  0.69884519  0.89638222  0.63766853  1
  Mo  Mo183  1  0.39692831  0.00011100  0.00813057  1
  Mo  Mo184  1  0.59445772  0.00904111  0.50020393  1
  Mo  Mo185  1  0.39308189  0.60547355  0.26452491  1
  Mo  Mo186  1  0.39335899  0.78689028  0.26176028  1
  Mo  Mo187  1  0.19745464  0.40747277  0.49623957  1
  Mo  Mo188  1  0.36799209  0.79420976  0.00602894  1
  Mo  Mo189  1  0.79926230  0.40356801  0.00355837  1
  Mo  Mo190  1  0.19097190  0.79955879  0.47782993  1
  Mo  Mo191  1  0.00467918  0.39328846  0.74115642  1
  Mo  Mo192  1  0.00615188  0.39970846  0.00908321  1
  Mo  Mo193  1  0.29499081  0.90309135  0.87103954  1
  Mo  Mo194  1  0.79193109  0.19301181  0.74318916  1
  Mo  Mo195  1  0.60324909  0.20589483  0.74884796  1
  Mo  Mo196  1  0.60411349  -0.00911693  0.23434630  1
  Mo  Mo197  1  0.29680524  0.90358883  0.13465011  1
  Mo  Mo198  1  0.01106418  0.19177938  0.49915157  1
  Mo  Mo199  1  0.70365272  0.30255711  0.86955960  1
