# generated using pymatgen
data_HfZrTaTiMo
_symmetry_space_group_name_H-M   'P 1'
_cell_length_a   15.20670767
_cell_length_b   15.21957067
_cell_length_c   16.80673709
_cell_angle_alpha   90.01226876
_cell_angle_beta   90.02407675
_cell_angle_gamma   89.92064945
_symmetry_Int_Tables_number   1
_chemical_formula_structural   HfZrTaTiMo
_chemical_formula_sum   'Hf40 Zr40 Ta40 Ti40 Mo40'
_cell_volume   3889.73971088
_cell_formula_units_Z   40
loop_
 _symmetry_equiv_pos_site_id
 _symmetry_equiv_pos_as_xyz
  1  'x, y, z'
loop_
 _atom_site_type_symbol
 _atom_site_label
 _atom_site_symmetry_multiplicity
 _atom_site_fract_x
 _atom_site_fract_y
 _atom_site_fract_z
 _atom_site_occupancy
  Hf  Hf0  1  0.51007861  0.68923238  0.87933375  1
  Hf  Hf1  1  0.21114322  -0.00027788  0.25062287  1
  Hf  Hf2  1  0.01034559  0.38793994  0.48537404  1
  Hf  Hf3  1  0.69104625  0.49512231  0.36720937  1
  Hf  Hf4  1  0.79491952  0.01160348  0.50790565  1
  Hf  Hf5  1  0.79896797  0.00715813  0.24085426  1
  Hf  Hf6  1  0.30151986  0.69301307  0.36069972  1
  Hf  Hf7  1  0.70568380  0.69742954  0.61896974  1
  Hf  Hf8  1  0.59457298  0.80039107  0.49323623  1
  Hf  Hf9  1  0.20176118  0.19714263  0.25569680  1
  Hf  Hf10  1  0.69081267  0.49262645  0.88616030  1
  Hf  Hf11  1  0.50443439  0.30840671  0.62737199  1
  Hf  Hf12  1  0.80385183  0.79842843  0.74865830  1
  Hf  Hf13  1  0.38682561  0.61063141  0.49571203  1
  Hf  Hf14  1  0.00623156  0.18854802  0.49050165  1
  Hf  Hf15  1  0.81096014  0.60620047  0.48290191  1
  Hf  Hf16  1  0.70926907  0.11370967  0.86916424  1
  Hf  Hf17  1  0.19640036  0.39035693  0.26220451  1
  Hf  Hf18  1  0.10884918  0.69230246  0.37956840  1
  Hf  Hf19  1  0.68860891  0.91266122  0.36230783  1
  Hf  Hf20  1  0.91628046  0.30588091  0.12399010  1
  Hf  Hf21  1  0.88876976  0.50625275  0.12317984  1
  Hf  Hf22  1  -0.00085698  0.79840433  -0.00707395  1
  Hf  Hf23  1  0.30095625  0.69627967  0.12345802  1
  Hf  Hf24  1  0.28147066  0.90507369  0.89214198  1
  Hf  Hf25  1  0.69861030  0.30035587  0.12503437  1
  Hf  Hf26  1  0.69129458  0.49542329  0.61451171  1
  Hf  Hf27  1  0.19772855  -0.00360876  0.74479943  1
  Hf  Hf28  1  0.59294549  0.00129783  0.50308604  1
  Hf  Hf29  1  0.28876173  0.31259045  0.61912888  1
  Hf  Hf30  1  0.80542597  0.20665231  0.49798325  1
  Hf  Hf31  1  0.50891944  0.09776983  0.36302508  1
  Hf  Hf32  1  0.50569331  0.31119709  0.87469646  1
  Hf  Hf33  1  0.79708471  0.78396506  0.00170673  1
  Hf  Hf34  1  0.39979472  0.40930528  0.48006466  1
  Hf  Hf35  1  0.39476598  0.80121293  0.75002636  1
  Hf  Hf36  1  0.90998587  0.09688344  0.87230461  1
  Hf  Hf37  1  0.10104765  0.89681409  0.38978813  1
  Hf  Hf38  1  0.39636250  0.20655353  0.75704548  1
  Hf  Hf39  1  0.70301642  0.89751076  0.87602598  1
  Zr  Zr40  1  0.90749576  0.12475826  0.64374387  1
  Zr  Zr41  1  0.00854877  0.00351518  0.25931577  1
  Zr  Zr42  1  0.79289408  0.39374344  0.74869170  1
  Zr  Zr43  1  0.09232189  0.49541091  0.13670232  1
  Zr  Zr44  1  0.21250521  0.58879408  0.75025341  1
  Zr  Zr45  1  0.09467966  0.49403902  0.86522373  1
  Zr  Zr46  1  0.09993122  0.69970844  0.86926117  1
  Zr  Zr47  1  0.48833567  0.89456768  0.88803604  1
  Zr  Zr48  1  -0.00450996  0.79969020  0.74257466  1
  Zr  Zr49  1  0.50023108  0.70060094  0.62750199  1
  Zr  Zr50  1  -0.00060979  0.40226895  -0.00457337  1
  Zr  Zr51  1  0.40024715  0.20756228  0.25337775  1
  Zr  Zr52  1  0.68761043  0.90405585  0.13118108  1
  Zr  Zr53  1  0.80835836  0.81354934  0.48851927  1
  Zr  Zr54  1  0.91894003  0.10291815  0.11309540  1
  Zr  Zr55  1  0.19002834  0.80206977  0.24108165  1
  Zr  Zr56  1  0.21733157  0.18821855  -0.01511123  1
  Zr  Zr57  1  0.58800644  0.59426467  0.48664830  1
  Zr  Zr58  1  0.69474259  0.90363836  0.63246964  1
  Zr  Zr59  1  0.49943202  0.10185022  0.63459186  1
  Zr  Zr60  1  0.09389910  0.90931192  0.11664489  1
  Zr  Zr61  1  0.89945325  0.89617168  0.11961714  1
  Zr  Zr62  1  0.49065336  0.90540363  0.11402793  1
  Zr  Zr63  1  0.91092642  0.50338536  0.61946975  1
  Zr  Zr64  1  0.39439675  0.81152703  0.24122487  1
  Zr  Zr65  1  0.19927102  0.58531767  0.00269859  1
  Zr  Zr66  1  0.60749790  0.20104007  0.50013029  1
  Zr  Zr67  1  0.20191863  0.79550293  0.73984090  1
  Zr  Zr68  1  0.59846884  0.78810927  0.00641457  1
  Zr  Zr69  1  0.19687812  0.38210700  0.00731638  1
  Zr  Zr70  1  0.19979693  0.00754146  0.50840413  1
  Zr  Zr71  1  0.11033382  0.47650401  0.62340527  1
  Zr  Zr72  1  0.31407755  0.69307617  0.89311183  1
  Zr  Zr73  1  -0.01233519  -0.00764510  0.51001694  1
  Zr  Zr74  1  0.88293385  0.30073497  0.88129910  1
  Zr  Zr75  1  0.80516326  0.19947853  0.24120924  1
  Zr  Zr76  1  0.40013456  0.20192297  0.49427195  1
  Zr  Zr77  1  0.58129591  0.40876954  0.01671445  1
  Zr  Zr78  1  0.80882980  0.79933548  0.26052948  1
  Zr  Zr79  1  0.80610866  0.59923545  0.74597778  1
  Ta  Ta80  1  0.60072964  0.01326014  -0.01040862  1
  Ta  Ta81  1  0.80776179  -0.00207698  0.74603460  1
  Ta  Ta82  1  0.39891679  0.02613837  -0.00938983  1
  Ta  Ta83  1  0.29099969  0.11144495  0.62715276  1
  Ta  Ta84  1  0.60063207  0.79573846  0.75591268  1
  Ta  Ta85  1  0.49212468  0.49828685  0.62448679  1
  Ta  Ta86  1  0.69681595  0.50742474  0.13910646  1
  Ta  Ta87  1  0.49650940  0.90361701  0.63529498  1
  Ta  Ta88  1  0.88909037  0.50822868  0.88579029  1
  Ta  Ta89  1  0.80318643  0.40334817  0.25529077  1
  Ta  Ta90  1  0.40211120  0.59885309  0.74604464  1
  Ta  Ta91  1  0.19473308  0.21459537  0.48760674  1
  Ta  Ta92  1  0.40016929  0.80898923  0.49884457  1
  Ta  Ta93  1  0.69727880  0.29793002  0.36273128  1
  Ta  Ta94  1  0.59319087  0.00195456  0.76470288  1
  Ta  Ta95  1  0.69074749  0.70222415  0.36095196  1
  Ta  Ta96  1  0.59115149  0.39707456  0.24291714  1
  Ta  Ta97  1  0.30125165  0.09428101  0.37983638  1
  Ta  Ta98  1  0.20944641  0.78306899  0.51404830  1
  Ta  Ta99  1  0.90302276  0.69331503  0.13191281  1
  Ta  Ta100  1  0.38991012  0.41305126  0.74961759  1
  Ta  Ta101  1  0.29747337  0.91129648  0.10124005  1
  Ta  Ta102  1  -0.00327200  0.59815965  0.26640220  1
  Ta  Ta103  1  0.08839730  0.27678226  0.63663692  1
  Ta  Ta104  1  0.49157228  0.90253200  0.36577959  1
  Ta  Ta105  1  0.71187566  0.29601309  0.62637259  1
  Ta  Ta106  1  0.80305145  0.39746128  0.49202663  1
  Ta  Ta107  1  0.09742191  0.89214599  0.61652463  1
  Ta  Ta108  1  0.02066987  0.20215204  -0.01432720  1
  Ta  Ta109  1  0.39398622  0.00469643  0.75995528  1
  Ta  Ta110  1  0.59839378  0.20045615  -0.00312253  1
  Ta  Ta111  1  0.30482824  0.49194296  0.14121411  1
  Ta  Ta112  1  -0.00399249  0.78488795  0.50806556  1
  Ta  Ta113  1  0.19354631  0.19184570  0.76521190  1
  Ta  Ta114  1  0.79836115  0.00324831  0.00225494  1
  Ta  Ta115  1  0.51643408  0.10647200  0.12857154  1
  Ta  Ta116  1  0.19283124  0.79597257  0.00685078  1
  Ta  Ta117  1  0.89914493  0.09311661  0.37206329  1
  Ta  Ta118  1  0.09384863  0.67649056  0.62048424  1
  Ta  Ta119  1  0.41748499  0.58747837  0.01905048  1
  Ti  Ti120  1  0.70571971  0.68687385  0.87449122  1
  Ti  Ti121  1  0.70611494  0.69454099  0.14605668  1
  Ti  Ti122  1  0.48735640  0.51588949  0.35036100  1
  Ti  Ti123  1  0.30090440  0.31173795  0.87322977  1
  Ti  Ti124  1  0.30116309  0.89798877  0.38266231  1
  Ti  Ti125  1  0.00533105  0.58941585  0.48299361  1
  Ti  Ti126  1  0.79842007  0.20322529  0.00593649  1
  Ti  Ti127  1  -0.00692443  0.39234398  0.75316862  1
  Ti  Ti128  1  -0.00562664  0.60527015  0.00180115  1
  Ti  Ti129  1  0.50915660  0.69046741  0.14233088  1
  Ti  Ti130  1  0.40015463  -0.00028727  0.50257914  1
  Ti  Ti131  1  0.48553848  0.50314052  0.87483899  1
  Ti  Ti132  1  0.39950845  0.00678082  0.24414360  1
  Ti  Ti133  1  0.38719375  0.40022938  0.00784524  1
  Ti  Ti134  1  0.60991361  0.21268511  0.75812289  1
  Ti  Ti135  1  0.00871172  0.00141864  0.74482511  1
  Ti  Ti136  1  0.11157688  0.10760832  0.11709895  1
  Ti  Ti137  1  0.59832731  0.59498864  0.74814566  1
  Ti  Ti138  1  0.29857079  0.50813090  0.61495245  1
  Ti  Ti139  1  0.09107748  0.69523936  0.13163120  1
  Ti  Ti140  1  0.90463666  0.90348954  0.87881237  1
  Ti  Ti141  1  0.80923894  0.59811092  0.26747198  1
  Ti  Ti142  1  0.19831327  0.38690810  0.75682750  1
  Ti  Ti143  1  0.59440074  0.40594973  0.74958263  1
  Ti  Ti144  1  0.60208448  0.39322114  0.49432500  1
  Ti  Ti145  1  0.90004898  0.69028830  0.87462744  1
  Ti  Ti146  1  0.01253873  0.20363745  0.26070742  1
  Ti  Ti147  1  0.69800555  0.10580350  0.64469892  1
  Ti  Ti148  1  0.40883330  0.20878585  -0.00544877  1
  Ti  Ti149  1  -0.00197209  0.40120444  0.26657978  1
  Ti  Ti150  1  0.69960493  0.10808904  0.36438335  1
  Ti  Ti151  1  0.89688224  0.29627105  0.36708696  1
  Ti  Ti152  1  0.30662036  0.90286731  0.62139909  1
  Ti  Ti153  1  0.50910422  0.30518773  0.36687476  1
  Ti  Ti154  1  0.31289045  0.10680446  0.12070744  1
  Ti  Ti155  1  0.49892384  0.70751860  0.35623223  1
  Ti  Ti156  1  0.61204955  0.59974559  0.01705571  1
  Ti  Ti157  1  0.48510703  0.30105157  0.12850294  1
  Ti  Ti158  1  -0.00424822  0.79789777  0.26096358  1
  Ti  Ti159  1  0.39203120  0.39860723  0.25801068  1
  Mo  Mo160  1  0.30995322  0.09984333  0.86885711  1
  Mo  Mo161  1  0.60224668  0.20465357  0.24464440  1
  Mo  Mo162  1  0.30511069  0.30038597  0.38237211  1
  Mo  Mo163  1  0.19689836  0.59250573  0.50210946  1
  Mo  Mo164  1  0.69457252  0.30367951  0.88826492  1
  Mo  Mo165  1  0.29983418  0.69830148  0.62244349  1
  Mo  Mo166  1  0.90262661  0.90214695  0.37570821  1
  Mo  Mo167  1  0.70004610  0.10132678  0.10985077  1
  Mo  Mo168  1  0.90559502  0.31070357  0.62374507  1
  Mo  Mo169  1  0.19876040  0.00574727  0.00258239  1
  Mo  Mo170  1  0.29575881  0.50764083  0.35880106  1
  Mo  Mo171  1  0.60268440  0.60228892  0.25029024  1
  Mo  Mo172  1  0.31317001  0.49199167  0.87942746  1
  Mo  Mo173  1  0.79771497  0.60027514  0.00497682  1
  Mo  Mo174  1  0.39531089  0.79125835  0.01130526  1
  Mo  Mo175  1  0.78833822  0.40612723  0.00637721  1
  Mo  Mo176  1  0.09594925  0.28181014  0.12808800  1
  Mo  Mo177  1  0.59555954  0.80181246  0.25118791  1
  Mo  Mo178  1  0.00488533  0.20331129  0.76633643  1
  Mo  Mo179  1  0.09686023  0.29358448  0.86203117  1
  Mo  Mo180  1  0.10559621  0.09735992  0.37514698  1
  Mo  Mo181  1  0.08921784  0.90794320  0.87995803  1
  Mo  Mo182  1  0.50527384  0.10687751  0.86965216  1
  Mo  Mo183  1  0.19299893  0.59436636  0.24097529  1
  Mo  Mo184  1  0.10523081  0.50103687  0.37148518  1
  Mo  Mo185  1  0.00452451  0.00452348  -0.00988457  1
  Mo  Mo186  1  0.49539071  0.49984670  0.14068084  1
  Mo  Mo187  1  -0.00368122  0.59405045  0.74913203  1
  Mo  Mo188  1  0.20701590  0.40578171  0.47517920  1
  Mo  Mo189  1  0.59191780  0.00806759  0.24605063  1
  Mo  Mo190  1  0.90265931  0.90239788  0.63255984  1
  Mo  Mo191  1  0.39915675  0.59704883  0.24084879  1
  Mo  Mo192  1  0.79753907  0.20178710  0.74882984  1
  Mo  Mo193  1  0.30160004  0.29735860  0.12351964  1
  Mo  Mo194  1  0.10773397  0.10167972  0.63072516  1
  Mo  Mo195  1  0.90841315  0.69787483  0.61781382  1
  Mo  Mo196  1  0.89953031  0.49232649  0.37430941  1
  Mo  Mo197  1  0.10506779  0.08124786  0.87683460  1
  Mo  Mo198  1  0.09590380  0.29459219  0.37141588  1
  Mo  Mo199  1  0.90735250  0.70091736  0.37472444  1
