# generated using pymatgen
data_HfZrTaTiMo
_symmetry_space_group_name_H-M   'P 1'
_cell_length_a   15.21035974
_cell_length_b   15.21607663
_cell_length_c   16.85434028
_cell_angle_alpha   89.98139030
_cell_angle_beta   89.97015424
_cell_angle_gamma   89.96812274
_symmetry_Int_Tables_number   1
_chemical_formula_structural   HfZrTaTiMo
_chemical_formula_sum   'Hf40 Zr40 Ta40 Ti40 Mo40'
_cell_volume   3900.80087280
_cell_formula_units_Z   40
loop_
 _symmetry_equiv_pos_site_id
 _symmetry_equiv_pos_as_xyz
  1  'x, y, z'
loop_
 _atom_site_type_symbol
 _atom_site_label
 _atom_site_symmetry_multiplicity
 _atom_site_fract_x
 _atom_site_fract_y
 _atom_site_fract_z
 _atom_site_occupancy
  Hf  Hf0  1  0.52294142  0.71764831  0.11695583  1
  Hf  Hf1  1  0.40907882  0.01212885  -0.00026402  1
  Hf  Hf2  1  0.29893663  0.29330245  0.87151308  1
  Hf  Hf3  1  0.39848026  0.60876967  0.75874117  1
  Hf  Hf4  1  0.39521927  0.40919571  -0.00876718  1
  Hf  Hf5  1  0.79259309  0.79982430  0.25985975  1
  Hf  Hf6  1  -0.00443575  -0.00770096  0.49440041  1
  Hf  Hf7  1  0.59022862  0.39439027  0.25492634  1
  Hf  Hf8  1  0.30194652  0.71583340  0.88175060  1
  Hf  Hf9  1  0.12013535  0.89800645  0.88304036  1
  Hf  Hf10  1  0.20600360  0.40272749  0.75315119  1
  Hf  Hf11  1  0.78289406  0.21264303  0.22667880  1
  Hf  Hf12  1  0.89749109  0.88744789  0.11421827  1
  Hf  Hf13  1  0.69232302  0.87176294  0.11129824  1
  Hf  Hf14  1  0.58959951  0.59091853  0.50569115  1
  Hf  Hf15  1  0.69920991  0.10237557  0.36560473  1
  Hf  Hf16  1  0.18586911  0.39945516  0.24934421  1
  Hf  Hf17  1  0.09862224  0.88632030  0.36696226  1
  Hf  Hf18  1  0.58006020  0.18815883  0.24680685  1
  Hf  Hf19  1  0.80583518  0.38731682  0.50890112  1
  Hf  Hf20  1  0.00055596  0.00979422  0.75113084  1
  Hf  Hf21  1  0.61672609  0.59547908  0.00003405  1
  Hf  Hf22  1  0.70348390  0.48615029  0.13038807  1
  Hf  Hf23  1  0.91603322  0.49702545  0.37571662  1
  Hf  Hf24  1  0.09873254  0.10501869  0.37127866  1
  Hf  Hf25  1  0.11135969  0.69465871  0.61770276  1
  Hf  Hf26  1  0.60418515  0.60543242  0.74560903  1
  Hf  Hf27  1  0.70303667  0.49398750  0.37560110  1
  Hf  Hf28  1  0.40525400  0.02142698  0.25634960  1
  Hf  Hf29  1  0.20680367  0.20386900  0.25141998  1
  Hf  Hf30  1  0.09213203  0.29474872  0.86608433  1
  Hf  Hf31  1  0.79390258  0.00554948  -0.00380268  1
  Hf  Hf32  1  0.89841972  0.89687781  0.62614606  1
  Hf  Hf33  1  0.91048995  0.70029442  0.38732735  1
  Hf  Hf34  1  0.67935570  0.08223855  0.12215918  1
  Hf  Hf35  1  0.00185564  0.77798923  0.24163142  1
  Hf  Hf36  1  0.59734352  -0.02748945  0.26208929  1
  Hf  Hf37  1  0.20533420  0.79366734  0.02489194  1
  Hf  Hf38  1  0.00228296  0.21605615  0.23893067  1
  Hf  Hf39  1  0.59996145  0.61375952  0.25312398  1
  Zr  Zr40  1  0.60277256  0.19499881  0.50743957  1
  Zr  Zr41  1  0.39600082  0.41001758  0.50682894  1
  Zr  Zr42  1  0.59275444  0.39749538  0.50529199  1
  Zr  Zr43  1  0.89353964  0.10328739  0.35901713  1
  Zr  Zr44  1  0.08942350  0.30402270  0.63569488  1
  Zr  Zr45  1  0.58774248  0.80382541  0.47514796  1
  Zr  Zr46  1  0.40046593  0.20272117  0.51097260  1
  Zr  Zr47  1  0.51192506  0.90575930  0.63044155  1
  Zr  Zr48  1  0.00620799  -0.00023181  0.00679216  1
  Zr  Zr49  1  -0.00041545  0.21097781  0.01336521  1
  Zr  Zr50  1  0.81813221  0.18804111  0.74925359  1
  Zr  Zr51  1  0.79393922  -0.01441585  0.75648093  1
  Zr  Zr52  1  0.49268550  0.10628348  0.85704544  1
  Zr  Zr53  1  0.11358438  0.67586325  0.37957550  1
  Zr  Zr54  1  0.69905857  0.71957708  0.61402149  1
  Zr  Zr55  1  0.59164858  0.19618443  -0.00239552  1
  Zr  Zr56  1  0.01279403  0.79648029  0.74923194  1
  Zr  Zr57  1  0.88236086  0.50269402  0.85103358  1
  Zr  Zr58  1  0.42827440  0.79672379  0.26015266  1
  Zr  Zr59  1  0.90754178  0.88842473  0.89063564  1
  Zr  Zr60  1  0.79289150  0.21466211  0.00381922  1
  Zr  Zr61  1  0.90617116  0.68860268  0.61948340  1
  Zr  Zr62  1  0.49729448  0.31092546  0.12097340  1
  Zr  Zr63  1  0.31512116  0.90161878  0.13850194  1
  Zr  Zr64  1  0.10652588  0.09726908  0.13414762  1
  Zr  Zr65  1  0.70305193  0.29163854  0.63893897  1
  Zr  Zr66  1  0.48550242  0.70736482  0.62266157  1
  Zr  Zr67  1  0.20632058  0.59506132  0.23299322  1
  Zr  Zr68  1  0.20347191  0.00055012  0.49449389  1
  Zr  Zr69  1  0.21490372  0.00187223  0.00924171  1
  Zr  Zr70  1  0.20797735  -0.00190960  0.74359048  1
  Zr  Zr71  1  0.60243323  0.00035959  0.49305974  1
  Zr  Zr72  1  0.29763627  0.51309523  0.62762203  1
  Zr  Zr73  1  0.09750447  0.69933482  0.88754867  1
  Zr  Zr74  1  0.79609695  0.78567120  0.75873797  1
  Zr  Zr75  1  0.89221530  0.33826732  0.13068037  1
  Zr  Zr76  1  -0.02568781  0.20217995  0.50360604  1
  Zr  Zr77  1  0.81528986  0.59709754  0.24882726  1
  Zr  Zr78  1  0.80059342  0.02117969  0.51043125  1
  Zr  Zr79  1  0.20547350  0.58740609  0.01303057  1
  Ta  Ta80  1  0.31109008  0.89258905  0.61611642  1
  Ta  Ta81  1  0.38600205  0.20190533  0.73849038  1
  Ta  Ta82  1  0.09451413  0.10016068  0.61850519  1
  Ta  Ta83  1  -0.01177180  0.41112798  -0.01193832  1
  Ta  Ta84  1  0.80304073  0.81704616  0.48712194  1
  Ta  Ta85  1  0.49812993  0.30442768  0.64551878  1
  Ta  Ta86  1  -0.00104071  0.39917591  0.50596085  1
  Ta  Ta87  1  0.19351688  0.21240670  0.49961900  1
  Ta  Ta88  1  0.70967300  0.50441093  0.63136551  1
  Ta  Ta89  1  0.50256155  0.30540817  0.86019580  1
  Ta  Ta90  1  0.19455145  0.61070607  0.75793707  1
  Ta  Ta91  1  0.30326739  0.89605933  0.36784828  1
  Ta  Ta92  1  0.50591179  0.50457747  0.87315265  1
  Ta  Ta93  1  0.40577828  -0.00408692  0.49120655  1
  Ta  Ta94  1  0.47850779  0.50870666  0.36776938  1
  Ta  Ta95  1  0.69877954  0.30412136  0.85886233  1
  Ta  Ta96  1  0.70043114  0.29437888  0.37617787  1
  Ta  Ta97  1  0.30540656  0.11166842  0.38152032  1
  Ta  Ta98  1  -0.00499597  -0.01136543  0.24816366  1
  Ta  Ta99  1  0.68905469  0.88915089  0.88959974  1
  Ta  Ta100  1  0.09003817  0.50127434  0.86668041  1
  Ta  Ta101  1  0.41036309  0.60841641  -0.00715967  1
  Ta  Ta102  1  0.88906313  0.30581944  0.36239031  1
  Ta  Ta103  1  0.69150556  0.09603897  0.86810827  1
  Ta  Ta104  1  0.29177144  0.30841504  0.11989337  1
  Ta  Ta105  1  0.90715004  0.48862026  0.64246193  1
  Ta  Ta106  1  0.20308750  -0.00198165  0.25516480  1
  Ta  Ta107  1  0.39299935  0.21996811  0.25327622  1
  Ta  Ta108  1  0.18569209  0.39497818  -0.00213080  1
  Ta  Ta109  1  0.18813573  0.41553328  0.49900275  1
  Ta  Ta110  1  0.48585588  0.51437299  0.12713445  1
  Ta  Ta111  1  0.20245301  0.20051644  0.00540895  1
  Ta  Ta112  1  0.39089179  0.20345262  0.00090432  1
  Ta  Ta113  1  0.21526770  0.79282488  0.49343799  1
  Ta  Ta114  1  0.80547408  0.59300908  0.50523587  1
  Ta  Ta115  1  0.40355797  0.40871362  0.75202924  1
  Ta  Ta116  1  0.07896257  0.49077517  0.12300746  1
  Ta  Ta117  1  0.90406885  0.68873411  0.87946041  1
  Ta  Ta118  1  0.11168762  0.89581193  0.61787463  1
  Ta  Ta119  1  0.10361485  0.10406036  0.87847997  1
  Ti  Ti120  1  0.40101206  0.81124166  0.75919497  1
  Ti  Ti121  1  0.39609548  -0.00330251  0.74927531  1
  Ti  Ti122  1  0.60181411  0.39689119  -0.00961913  1
  Ti  Ti123  1  0.89930712  0.68800002  0.11518940  1
  Ti  Ti124  1  0.60181047  0.40890076  0.74806519  1
  Ti  Ti125  1  0.29327718  0.31460990  0.38232731  1
  Ti  Ti126  1  0.29787989  0.70912797  0.62387682  1
  Ti  Ti127  1  0.89659079  0.09479539  0.12962045  1
  Ti  Ti128  1  0.29342692  0.30183267  0.62464292  1
  Ti  Ti129  1  0.80054959  -0.00830677  0.24516981  1
  Ti  Ti130  1  0.09958520  0.89175013  0.13405963  1
  Ti  Ti131  1  0.50245506  0.10221480  0.64388142  1
  Ti  Ti132  1  0.08642458  0.31069749  0.37964589  1
  Ti  Ti133  1  0.90789586  0.10826830  0.88372428  1
  Ti  Ti134  1  0.69144590  0.08456912  0.64395758  1
  Ti  Ti135  1  0.29915281  0.09647647  0.61674067  1
  Ti  Ti136  1  0.00788533  0.79958741  0.50080999  1
  Ti  Ti137  1  0.49080657  0.29715522  0.37686866  1
  Ti  Ti138  1  0.89982509  0.30387560  0.86465842  1
  Ti  Ti139  1  0.38172586  0.41572589  0.24980995  1
  Ti  Ti140  1  0.70910512  0.67706404  0.87276962  1
  Ti  Ti141  1  0.60299067  0.81145082  0.75557101  1
  Ti  Ti142  1  0.50088050  0.90507366  0.87622993  1
  Ti  Ti143  1  0.19515906  0.18872418  0.74140567  1
  Ti  Ti144  1  0.20825128  0.79170816  0.24039254  1
  Ti  Ti145  1  0.32770355  0.68535943  0.12876147  1
  Ti  Ti146  1  0.21336204  0.80527130  0.74785973  1
  Ti  Ti147  1  0.40707392  0.80950040  -0.00161605  1
  Ti  Ti148  1  0.29368725  0.09596200  0.87058408  1
  Ti  Ti149  1  0.29494673  0.50691616  0.87503185  1
  Ti  Ti150  1  0.31449889  0.68788799  0.36758529  1
  Ti  Ti151  1  -0.00688194  0.59717695  0.00188930  1
  Ti  Ti152  1  0.78974961  0.41412335  -0.01250072  1
  Ti  Ti153  1  0.01615670  0.58100517  0.50600218  1
  Ti  Ti154  1  0.79339671  0.77025616  -0.00471225  1
  Ti  Ti155  1  0.51139708  0.71089740  0.87942269  1
  Ti  Ti156  1  0.51160543  0.91492746  0.11330084  1
  Ti  Ti157  1  0.70425509  0.69411484  0.38714826  1
  Ti  Ti158  1  0.09599154  0.50399826  0.64183726  1
  Ti  Ti159  1  0.38975309  0.61106090  0.49663249  1
  Mo  Mo160  1  0.71252601  0.69399603  0.12163481  1
  Mo  Mo161  1  0.30989679  0.11561075  0.13019214  1
  Mo  Mo162  1  0.49077171  0.10888331  0.37894476  1
  Mo  Mo163  1  0.49937195  0.69015274  0.38195151  1
  Mo  Mo164  1  0.79317090  0.20458652  0.50182645  1
  Mo  Mo165  1  0.20902641  0.59841785  0.50052296  1
  Mo  Mo166  1  0.49285961  0.90453590  0.37693586  1
  Mo  Mo167  1  0.59997529  -0.00665320  0.75915724  1
  Mo  Mo168  1  0.48677564  0.09974812  0.12257055  1
  Mo  Mo169  1  0.50213397  0.49953085  0.63782794  1
  Mo  Mo170  1  0.90234817  0.30210011  0.63537212  1
  Mo  Mo171  1  0.90398461  0.89944754  0.37221850  1
  Mo  Mo172  1  0.68945888  0.30306860  0.11777214  1
  Mo  Mo173  1  0.29243796  0.50537622  0.37749180  1
  Mo  Mo174  1  0.59853743  -0.00284239  -0.01061998  1
  Mo  Mo175  1  0.90511510  0.10249394  0.62742133  1
  Mo  Mo176  1  0.00009809  0.39622872  0.75595922  1
  Mo  Mo177  1  0.09129068  0.69583145  0.11932556  1
  Mo  Mo178  1  0.00720364  0.18988276  0.75195615  1
  Mo  Mo179  1  0.31360462  0.90335437  0.87449703  1
  Mo  Mo180  1  0.79096990  0.40107094  0.25964905  1
  Mo  Mo181  1  0.80675440  0.58861661  -0.00163818  1
  Mo  Mo182  1  0.59669536  0.79125818  -0.01384898  1
  Mo  Mo183  1  0.00549739  0.60100956  0.74918711  1
  Mo  Mo184  1  0.39029956  0.80196887  0.48881455  1
  Mo  Mo185  1  0.68854646  0.49099142  0.86689438  1
  Mo  Mo186  1  0.71363711  0.90340000  0.37451535  1
  Mo  Mo187  1  0.89533879  0.50961428  0.11737165  1
  Mo  Mo188  1  0.30339847  0.49305109  0.11563779  1
  Mo  Mo189  1  -0.00377949  0.41114357  0.25343929  1
  Mo  Mo190  1  0.59759595  0.19922718  0.75049361  1
  Mo  Mo191  1  0.40444878  0.59777946  0.24497755  1
  Mo  Mo192  1  0.79690568  0.60102657  0.73877277  1
  Mo  Mo193  1  0.09879980  0.30726231  0.11634721  1
  Mo  Mo194  1  0.00869984  0.58958515  0.24267167  1
  Mo  Mo195  1  0.00165373  0.78879129  0.01404819  1
  Mo  Mo196  1  0.70103363  0.89565105  0.62597022  1
  Mo  Mo197  1  0.61405832  0.79181731  0.26885131  1
  Mo  Mo198  1  0.79627678  0.39545972  0.74453007  1
  Mo  Mo199  1  0.10498044  0.49097079  0.37796633  1
