# generated using pymatgen
data_HfZrTaTiMo
_symmetry_space_group_name_H-M   'P 1'
_cell_length_a   15.20393897
_cell_length_b   15.21386544
_cell_length_c   16.86407850
_cell_angle_alpha   90.02129766
_cell_angle_beta   89.97275549
_cell_angle_gamma   89.99029825
_symmetry_Int_Tables_number   1
_chemical_formula_structural   HfZrTaTiMo
_chemical_formula_sum   'Hf40 Zr40 Ta40 Ti40 Mo40'
_cell_volume   3900.84072716
_cell_formula_units_Z   40
loop_
 _symmetry_equiv_pos_site_id
 _symmetry_equiv_pos_as_xyz
  1  'x, y, z'
loop_
 _atom_site_type_symbol
 _atom_site_label
 _atom_site_symmetry_multiplicity
 _atom_site_fract_x
 _atom_site_fract_y
 _atom_site_fract_z
 _atom_site_occupancy
  Hf  Hf0  1  0.58968990  0.19799189  -0.00084248  1
  Hf  Hf1  1  0.20511526  0.19819503  -0.00397470  1
  Hf  Hf2  1  0.20201081  0.00374103  0.51842893  1
  Hf  Hf3  1  0.89482858  0.50171023  0.88014932  1
  Hf  Hf4  1  0.90096306  0.71211481  0.88790962  1
  Hf  Hf5  1  0.51445782  0.90809544  0.87283818  1
  Hf  Hf6  1  0.30132069  0.70000555  0.38091845  1
  Hf  Hf7  1  0.50470820  0.09700013  0.37883978  1
  Hf  Hf8  1  0.10472215  0.90565046  0.37727404  1
  Hf  Hf9  1  0.68695191  0.31088810  0.13857728  1
  Hf  Hf10  1  0.59358445  0.81835105  0.24697264  1
  Hf  Hf11  1  0.50475200  0.90762710  0.11027615  1
  Hf  Hf12  1  0.79333145  0.59695793  0.01787932  1
  Hf  Hf13  1  0.11022852  0.70489730  0.11679132  1
  Hf  Hf14  1  0.09981798  0.30165597  0.12454845  1
  Hf  Hf15  1  0.57995174  0.40226375  0.50807729  1
  Hf  Hf16  1  0.61944665  0.81696352  0.00076963  1
  Hf  Hf17  1  0.20364102  0.80843557  0.51209234  1
  Hf  Hf18  1  0.00186940  0.38712333  0.74782931  1
  Hf  Hf19  1  0.71332503  0.70122284  0.35916356  1
  Hf  Hf20  1  0.19533089  0.80775908  0.75577245  1
  Hf  Hf21  1  0.20464476  0.81047410  -0.02052094  1
  Hf  Hf22  1  0.18504376  0.00040058  -0.00472200  1
  Hf  Hf23  1  0.52456953  0.69580033  0.63048228  1
  Hf  Hf24  1  0.68936310  0.48612637  0.36628951  1
  Hf  Hf25  1  0.49660504  0.50484862  0.89286769  1
  Hf  Hf26  1  0.41276098  0.59497576  0.74724651  1
  Hf  Hf27  1  0.58118230  0.41006873  0.74150269  1
  Hf  Hf28  1  0.41102813  0.59313049  0.51092056  1
  Hf  Hf29  1  0.30502638  0.10130577  0.12384204  1
  Hf  Hf30  1  0.09338731  0.70335384  0.37871715  1
  Hf  Hf31  1  0.81735352  0.78425595  0.48971361  1
  Hf  Hf32  1  -0.00345000  0.37639737  0.48638598  1
  Hf  Hf33  1  0.79414910  0.39733283  -0.00040923  1
  Hf  Hf34  1  0.19958419  0.60058818  0.74761026  1
  Hf  Hf35  1  0.49753596  0.49272442  0.11224292  1
  Hf  Hf36  1  0.31638428  0.90029225  0.37460843  1
  Hf  Hf37  1  0.70004111  0.29201011  0.63385475  1
  Hf  Hf38  1  0.90765461  0.70137412  0.13019719  1
  Hf  Hf39  1  0.10098853  0.49302551  0.88570598  1
  Zr  Zr40  1  0.70657559  0.70454017  0.88609345  1
  Zr  Zr41  1  0.69317550  0.29570986  0.85985402  1
  Zr  Zr42  1  0.09369788  0.70018393  0.88172071  1
  Zr  Zr43  1  0.48653280  0.30160874  0.87783275  1
  Zr  Zr44  1  0.39883294  0.41550308  0.24354294  1
  Zr  Zr45  1  0.89343027  0.89644942  0.36613419  1
  Zr  Zr46  1  0.40980270  0.00547873  0.52440705  1
  Zr  Zr47  1  0.21535750  0.60227211  0.24438610  1
  Zr  Zr48  1  0.70621104  0.09146540  0.62212138  1
  Zr  Zr49  1  0.80210011  0.18389109  0.25067824  1
  Zr  Zr50  1  -0.01082560  0.18840101  0.76107646  1
  Zr  Zr51  1  0.19561193  0.20763197  0.74612682  1
  Zr  Zr52  1  0.30056544  0.49283397  0.88930636  1
  Zr  Zr53  1  -0.00754599  0.01768629  0.25484785  1
  Zr  Zr54  1  0.60115552  0.19948555  0.50241212  1
  Zr  Zr55  1  -0.00495202  0.59655926  0.74416070  1
  Zr  Zr56  1  -0.00034178  0.18283002  -0.00731881  1
  Zr  Zr57  1  0.89472214  0.49848907  0.36553012  1
  Zr  Zr58  1  0.30029518  0.89232401  0.12044329  1
  Zr  Zr59  1  0.80639828  0.39660029  0.74698523  1
  Zr  Zr60  1  0.90055228  0.48326682  0.14195384  1
  Zr  Zr61  1  0.30108414  0.09906025  0.38306921  1
  Zr  Zr62  1  0.08603267  0.49749131  0.61184969  1
  Zr  Zr63  1  0.40219646  0.80572254  0.75563950  1
  Zr  Zr64  1  0.41472125  0.21293283  0.24619403  1
  Zr  Zr65  1  0.18831393  0.21119097  0.51034795  1
  Zr  Zr66  1  0.32032030  0.30497746  0.38745284  1
  Zr  Zr67  1  0.50123182  0.70249226  0.37444589  1
  Zr  Zr68  1  0.41444567  0.80735877  0.51505922  1
  Zr  Zr69  1  0.78838904  0.19021972  -0.00214975  1
  Zr  Zr70  1  0.89693210  0.88643262  0.62251085  1
  Zr  Zr71  1  0.29919096  0.49848199  0.61919806  1
  Zr  Zr72  1  0.58908347  0.59418530  0.23926007  1
  Zr  Zr73  1  0.39798452  0.01017298  -0.01561742  1
  Zr  Zr74  1  0.79609541  0.61216063  0.74563191  1
  Zr  Zr75  1  0.41370869  -0.00771157  0.24944080  1
  Zr  Zr76  1  0.19155189  0.40032606  0.25757231  1
  Zr  Zr77  1  0.90288594  0.28658997  0.13033635  1
  Zr  Zr78  1  0.20325976  0.19790158  0.25235799  1
  Zr  Zr79  1  0.69433755  0.51140891  0.62251845  1
  Ta  Ta80  1  0.89794851  0.89563207  0.13884403  1
  Ta  Ta81  1  0.88361716  0.07617049  0.11326191  1
  Ta  Ta82  1  0.51000180  0.69796492  0.88212393  1
  Ta  Ta83  1  0.70278191  0.71730401  0.13207103  1
  Ta  Ta84  1  0.90663859  0.27713660  0.61646664  1
  Ta  Ta85  1  0.29648044  0.50109846  0.10315913  1
  Ta  Ta86  1  0.09293711  0.90405872  0.62815534  1
  Ta  Ta87  1  0.19455110  0.60665959  0.50556497  1
  Ta  Ta88  1  0.10040986  0.50496142  0.38314721  1
  Ta  Ta89  1  0.07779287  0.10704935  0.62265200  1
  Ta  Ta90  1  0.51414441  0.10233128  0.12361843  1
  Ta  Ta91  1  0.19898464  0.40469364  0.49364924  1
  Ta  Ta92  1  0.40414923  0.20579272  0.73705456  1
  Ta  Ta93  1  0.09546034  0.08208711  0.86980277  1
  Ta  Ta94  1  0.70815427  0.92762614  0.13562276  1
  Ta  Ta95  1  0.72809439  0.90808711  0.86240408  1
  Ta  Ta96  1  0.61548751  0.80778342  0.49630630  1
  Ta  Ta97  1  0.49553149  0.70498599  0.11246991  1
  Ta  Ta98  1  0.68949536  0.50636881  0.87304745  1
  Ta  Ta99  1  0.10070873  0.49755150  0.11500950  1
  Ta  Ta100  1  0.00526370  0.79687553  0.25032982  1
  Ta  Ta101  1  0.08619636  0.70963676  0.61829243  1
  Ta  Ta102  1  0.39773148  0.00610735  0.74467828  1
  Ta  Ta103  1  0.70437005  0.09228531  0.38289530  1
  Ta  Ta104  1  0.88823194  0.06770274  0.88252908  1
  Ta  Ta105  1  0.39911023  0.78499064  0.24367127  1
  Ta  Ta106  1  0.19555769  0.00283751  0.74268630  1
  Ta  Ta107  1  -0.00195506  0.39316257  -0.00252624  1
  Ta  Ta108  1  0.19751587  -0.00068783  0.24742786  1
  Ta  Ta109  1  0.38560324  0.39702204  0.74627358  1
  Ta  Ta110  1  0.30190178  0.50806970  0.38624779  1
  Ta  Ta111  1  0.60807023  0.60865372  0.49238588  1
  Ta  Ta112  1  0.61845451  0.79450371  0.75523961  1
  Ta  Ta113  1  0.09199394  0.90375216  0.12825433  1
  Ta  Ta114  1  0.60490745  0.00299585  0.74681381  1
  Ta  Ta115  1  0.19513601  0.39803754  0.74732279  1
  Ta  Ta116  1  0.20333885  0.80465994  0.24833079  1
  Ta  Ta117  1  0.29806140  0.70581114  0.62893717  1
  Ta  Ta118  1  0.00420058  0.21859293  0.27517089  1
  Ta  Ta119  1  0.09629146  0.10344359  0.38571911  1
  Ti  Ti120  1  0.71690555  0.70997013  0.62070831  1
  Ti  Ti121  1  -0.00858316  -0.00798335  0.74798434  1
  Ti  Ti122  1  0.79725848  0.59642304  0.23899848  1
  Ti  Ti123  1  0.69270702  0.90778543  0.36504045  1
  Ti  Ti124  1  0.69176617  0.09082389  0.86832717  1
  Ti  Ti125  1  0.60470539  0.40144205  0.00129906  1
  Ti  Ti126  1  0.49117001  0.49333546  0.37280659  1
  Ti  Ti127  1  0.20428483  0.60389285  -0.00249491  1
  Ti  Ti128  1  0.40236496  0.80093786  -0.01703431  1
  Ti  Ti129  1  0.01136972  0.59416972  0.24944779  1
  Ti  Ti130  1  0.30115707  0.10675729  0.63088611  1
  Ti  Ti131  1  0.79772060  0.59345647  0.49493395  1
  Ti  Ti132  1  0.59732563  -0.01025902  0.50584318  1
  Ti  Ti133  1  0.31112301  0.69748285  0.11165957  1
  Ti  Ti134  1  0.50068438  0.10852372  0.86178775  1
  Ti  Ti135  1  0.31076246  0.69477440  0.87472644  1
  Ti  Ti136  1  0.79077669  -0.01065102  0.49583269  1
  Ti  Ti137  1  0.70284555  0.29386319  0.37005408  1
  Ti  Ti138  1  0.51396936  0.90124549  0.63905598  1
  Ti  Ti139  1  0.89415236  0.10736174  0.39207276  1
  Ti  Ti140  1  0.79272664  0.38540507  0.49985637  1
  Ti  Ti141  1  0.80027704  0.17993857  0.75475799  1
  Ti  Ti142  1  0.89287760  0.49199329  0.61173312  1
  Ti  Ti143  1  -0.00381079  -0.00587670  0.49972276  1
  Ti  Ti144  1  0.10224414  0.29758504  0.88142364  1
  Ti  Ti145  1  0.60450094  0.60407167  0.01407664  1
  Ti  Ti146  1  -0.01625625  0.61496724  0.49433073  1
  Ti  Ti147  1  0.29771778  0.30709008  0.61873439  1
  Ti  Ti148  1  0.30115368  0.10645340  0.86450647  1
  Ti  Ti149  1  0.81737576  0.81925809  0.00938371  1
  Ti  Ti150  1  0.89784674  0.29065664  0.87896775  1
  Ti  Ti151  1  0.29783936  0.30253938  0.88158884  1
  Ti  Ti152  1  -0.00158140  0.59615960  0.00767122  1
  Ti  Ti153  1  0.70511011  0.89476756  0.63340822  1
  Ti  Ti154  1  0.08741653  0.10043433  0.12830023  1
  Ti  Ti155  1  -0.00860589  0.79666173  0.74942990  1
  Ti  Ti156  1  0.30906159  0.30673086  0.11121068  1
  Ti  Ti157  1  0.41374009  0.21086905  0.51946511  1
  Ti  Ti158  1  0.60125292  0.19703016  0.25411301  1
  Ti  Ti159  1  0.89419513  0.09165378  0.61217323  1
  Mo  Mo160  1  0.49378929  0.29559038  0.11292080  1
  Mo  Mo161  1  0.61051767  0.00921668  -0.00918535  1
  Mo  Mo162  1  0.91224902  0.89500026  0.87354134  1
  Mo  Mo163  1  0.51669745  0.30795435  0.37266378  1
  Mo  Mo164  1  0.19269418  0.39575178  0.00405740  1
  Mo  Mo165  1  0.29350543  0.91883871  0.86150681  1
  Mo  Mo166  1  -0.00999353  -0.01802520  0.00502411  1
  Mo  Mo167  1  0.79516445  0.00157520  0.25817723  1
  Mo  Mo168  1  0.08567607  0.90561563  0.86474343  1
  Mo  Mo169  1  0.59459871  0.19323719  0.74845512  1
  Mo  Mo170  1  0.48959852  0.30195637  0.63202001  1
  Mo  Mo171  1  0.29824767  0.90347102  0.64134316  1
  Mo  Mo172  1  0.00359957  0.40348594  0.26342127  1
  Mo  Mo173  1  0.90178468  0.68438986  0.61643000  1
  Mo  Mo174  1  0.79273044  0.39484770  0.25530443  1
  Mo  Mo175  1  0.00550810  0.80932326  0.00949971  1
  Mo  Mo176  1  0.60555798  0.01558366  0.25348563  1
  Mo  Mo177  1  0.79853541  0.79958784  0.24371349  1
  Mo  Mo178  1  0.80833396  0.80279164  0.74664427  1
  Mo  Mo179  1  0.80401405  0.20258015  0.49471470  1
  Mo  Mo180  1  0.80703396  0.00141826  0.74599475  1
  Mo  Mo181  1  0.50652772  0.10290336  0.63684686  1
  Mo  Mo182  1  0.40007878  0.39056072  0.00649216  1
  Mo  Mo183  1  0.40044801  0.61179375  -0.00119507  1
  Mo  Mo184  1  0.58836647  0.38547676  0.25634299  1
  Mo  Mo185  1  0.39687958  0.39819211  0.49985768  1
  Mo  Mo186  1  0.60175537  0.60577702  0.75937206  1
  Mo  Mo187  1  0.69413294  0.10271100  0.12664203  1
  Mo  Mo188  1  0.51010630  0.90025036  0.38062937  1
  Mo  Mo189  1  0.39484758  0.19556725  -0.00320454  1
  Mo  Mo190  1  0.00668593  0.80114320  0.49780287  1
  Mo  Mo191  1  0.88585964  0.29956132  0.37289620  1
  Mo  Mo192  1  0.39455071  0.60544752  0.24019882  1
  Mo  Mo193  1  0.78595417  -0.01124701  -0.00095067  1
  Mo  Mo194  1  0.10322420  0.30314537  0.37587323  1
  Mo  Mo195  1  0.90548715  0.69321842  0.35375803  1
  Mo  Mo196  1  0.49940177  0.50215987  0.62554112  1
  Mo  Mo197  1  0.09545549  0.29844336  0.62588573  1
  Mo  Mo198  1  0.69583196  0.50456872  0.13558817  1
  Mo  Mo199  1  -0.00535345  0.18885814  0.49100726  1
