# generated using pymatgen
data_HfZrTaTiMo
_symmetry_space_group_name_H-M   'P 1'
_cell_length_a   15.16592442
_cell_length_b   15.17186271
_cell_length_c   16.80786738
_cell_angle_alpha   90.04846950
_cell_angle_beta   89.99322773
_cell_angle_gamma   89.97428393
_symmetry_Int_Tables_number   1
_chemical_formula_structural   HfZrTaTiMo
_chemical_formula_sum   'Hf40 Zr40 Ta40 Ti40 Mo40'
_cell_volume   3867.40987762
_cell_formula_units_Z   40
loop_
 _symmetry_equiv_pos_site_id
 _symmetry_equiv_pos_as_xyz
  1  'x, y, z'
loop_
 _atom_site_type_symbol
 _atom_site_label
 _atom_site_symmetry_multiplicity
 _atom_site_fract_x
 _atom_site_fract_y
 _atom_site_fract_z
 _atom_site_occupancy
  Hf  Hf0  1  0.48704167  0.09223758  0.13230402  1
  Hf  Hf1  1  0.21086182  0.61511376  0.75735358  1
  Hf  Hf2  1  0.00699474  -0.00425518  -0.02242046  1
  Hf  Hf3  1  0.88849997  0.30816562  0.87873157  1
  Hf  Hf4  1  0.51039249  0.69839540  0.36167141  1
  Hf  Hf5  1  0.79650311  0.21180566  0.74567706  1
  Hf  Hf6  1  0.89937107  0.49890887  0.62375049  1
  Hf  Hf7  1  0.38076616  0.38976386  -0.00491656  1
  Hf  Hf8  1  0.09957235  0.31554108  0.88155346  1
  Hf  Hf9  1  0.19232173  0.61364543  0.00849743  1
  Hf  Hf10  1  0.70686915  0.49362542  0.86409456  1
  Hf  Hf11  1  0.52144879  0.48175895  0.37024983  1
  Hf  Hf12  1  -0.00091598  0.80688647  0.49237487  1
  Hf  Hf13  1  0.09864529  0.72298947  0.62485015  1
  Hf  Hf14  1  0.19990857  0.81523315  0.75879109  1
  Hf  Hf15  1  0.89508237  0.50568369  0.36522387  1
  Hf  Hf16  1  0.40662700  0.59452338  0.49512254  1
  Hf  Hf17  1  0.39332539  0.39483499  0.75561070  1
  Hf  Hf18  1  0.09616507  0.29999398  0.37660272  1
  Hf  Hf19  1  0.18853599  0.41186702  0.75350682  1
  Hf  Hf20  1  0.00864987  0.00767355  0.49932380  1
  Hf  Hf21  1  0.10196467  0.50683165  0.36189181  1
  Hf  Hf22  1  0.20744643  0.20211649  0.76219665  1
  Hf  Hf23  1  0.41076824  0.81590654  0.00184532  1
  Hf  Hf24  1  -0.01781545  0.20254180  0.50486572  1
  Hf  Hf25  1  0.49085700  0.29299815  0.12075973  1
  Hf  Hf26  1  -0.00060553  0.20222903  -0.00365187  1
  Hf  Hf27  1  0.30527975  0.50542168  0.62187555  1
  Hf  Hf28  1  0.39692591  0.60140352  0.00879178  1
  Hf  Hf29  1  0.31504905  0.91822658  0.12547660  1
  Hf  Hf30  1  0.08807991  0.52016192  0.88546198  1
  Hf  Hf31  1  0.19909357  0.61208118  0.49602393  1
  Hf  Hf32  1  -0.00809729  0.41269648  0.01516267  1
  Hf  Hf33  1  0.00554720  0.60999538  0.74647368  1
  Hf  Hf34  1  0.22185236  -0.00532334  -0.01803995  1
  Hf  Hf35  1  0.89028950  0.50101908  0.13988168  1
  Hf  Hf36  1  0.09876747  0.50778017  0.61967842  1
  Hf  Hf37  1  0.79611898  -0.00464185  0.25609047  1
  Hf  Hf38  1  0.20876452  0.81514379  0.24806115  1
  Hf  Hf39  1  0.79774501  0.00089383  -0.00486331  1
  Zr  Zr40  1  -0.00355260  0.38944932  0.24300153  1
  Zr  Zr41  1  0.60140290  0.38235824  0.74175935  1
  Zr  Zr42  1  0.40227466  0.00128367  0.73092477  1
  Zr  Zr43  1  0.69582773  0.70566472  0.86887744  1
  Zr  Zr44  1  0.61139183  0.60537350  0.50734791  1
  Zr  Zr45  1  0.79087535  0.80241223  0.00301302  1
  Zr  Zr46  1  0.09746094  0.70392198  0.35627727  1
  Zr  Zr47  1  0.90660021  0.89437255  0.12274005  1
  Zr  Zr48  1  0.33470109  0.10402070  0.87276328  1
  Zr  Zr49  1  0.10668333  0.90281870  0.11832505  1
  Zr  Zr50  1  0.30559041  0.70280235  0.36668499  1
  Zr  Zr51  1  0.09892412  0.10711390  0.36649444  1
  Zr  Zr52  1  0.59929001  0.60535663  0.00630848  1
  Zr  Zr53  1  0.39256854  0.19567493  0.51550654  1
  Zr  Zr54  1  0.59449563  0.20091635  0.49342746  1
  Zr  Zr55  1  0.40153547  0.38513141  0.25203134  1
  Zr  Zr56  1  0.41679450  0.79988581  0.50802996  1
  Zr  Zr57  1  0.68531504  0.28478284  0.88084414  1
  Zr  Zr58  1  0.49557903  0.70495340  0.86828751  1
  Zr  Zr59  1  0.60619313  0.00723568  0.25696888  1
  Zr  Zr60  1  0.58893816  0.39436845  -0.00547534  1
  Zr  Zr61  1  0.30166400  0.90828313  0.38234021  1
  Zr  Zr62  1  0.19846014  0.39874108  0.49692840  1
  Zr  Zr63  1  0.79736018  0.79232577  0.49033077  1
  Zr  Zr64  1  0.11586227  0.11295537  0.12115636  1
  Zr  Zr65  1  0.80755378  0.59009074  0.00344453  1
  Zr  Zr66  1  0.07783243  0.29883565  0.62876484  1
  Zr  Zr67  1  0.51433973  0.91285824  0.86232206  1
  Zr  Zr68  1  0.69687951  0.88602354  0.62040658  1
  Zr  Zr69  1  0.58988091  0.21160479  0.27170035  1
  Zr  Zr70  1  0.69363442  0.28075748  0.11974264  1
  Zr  Zr71  1  0.49595373  0.50129007  0.86808520  1
  Zr  Zr72  1  0.29090592  0.30157200  0.62282324  1
  Zr  Zr73  1  0.60520480  -0.02923729  0.01238487  1
  Zr  Zr74  1  0.29193287  0.10654055  0.38715001  1
  Zr  Zr75  1  0.89420121  0.10063013  0.12822499  1
  Zr  Zr76  1  0.90240308  0.90628791  0.62662178  1
  Zr  Zr77  1  0.69054936  0.07816943  0.85812895  1
  Zr  Zr78  1  0.71839322  0.09202996  0.61689577  1
  Zr  Zr79  1  0.90794959  0.69661844  0.87773431  1
  Ta  Ta80  1  0.91732927  0.10031900  0.64502555  1
  Ta  Ta81  1  0.70673091  0.69812383  0.13444181  1
  Ta  Ta82  1  0.28652261  0.28153906  0.12669153  1
  Ta  Ta83  1  0.60257222  0.59824730  0.73332400  1
  Ta  Ta84  1  0.89921583  0.09821836  0.86322163  1
  Ta  Ta85  1  0.40108463  0.59325911  0.24717924  1
  Ta  Ta86  1  0.91184897  0.69891427  0.13339179  1
  Ta  Ta87  1  0.89240926  0.70528840  0.62928421  1
  Ta  Ta88  1  0.58469346  0.16854653  -0.00275034  1
  Ta  Ta89  1  0.30199996  0.70511845  0.62194249  1
  Ta  Ta90  1  -0.01601254  0.40828546  0.49197499  1
  Ta  Ta91  1  -0.00450917  0.82008146  0.76578860  1
  Ta  Ta92  1  0.20066653  0.39420733  0.24101832  1
  Ta  Ta93  1  0.80522689  0.59175329  0.49814315  1
  Ta  Ta94  1  0.09886293  0.70577846  0.14075644  1
  Ta  Ta95  1  -0.00556450  0.60951331  0.49785644  1
  Ta  Ta96  1  0.88987188  0.29841801  0.37033818  1
  Ta  Ta97  1  0.00675989  0.19712456  0.76422176  1
  Ta  Ta98  1  0.70649825  0.69108339  0.36511694  1
  Ta  Ta99  1  0.50329272  0.49324505  0.62441930  1
  Ta  Ta100  1  0.71012139  0.48681878  0.62677377  1
  Ta  Ta101  1  0.30338015  0.70802162  0.13324635  1
  Ta  Ta102  1  0.89750880  0.10033492  0.36867684  1
  Ta  Ta103  1  0.28876870  0.89753600  0.61990058  1
  Ta  Ta104  1  0.69193105  0.49105344  0.12922742  1
  Ta  Ta105  1  0.77519171  0.39299597  0.25772643  1
  Ta  Ta106  1  0.59735117  -0.01540185  0.49083837  1
  Ta  Ta107  1  0.09904758  0.90876366  0.36819627  1
  Ta  Ta108  1  0.61631648  0.80036062  0.24638609  1
  Ta  Ta109  1  0.09857893  0.51415241  0.13857682  1
  Ta  Ta110  1  0.41310980  0.39270727  0.49482652  1
  Ta  Ta111  1  0.40046550  -0.00437722  0.51449489  1
  Ta  Ta112  1  0.21305616  0.20775167  -0.01505698  1
  Ta  Ta113  1  0.30327024  0.49547360  0.36778711  1
  Ta  Ta114  1  0.39828357  0.79820529  0.74108860  1
  Ta  Ta115  1  0.88863658  0.29363170  0.12913264  1
  Ta  Ta116  1  0.50151341  0.69928542  0.14009751  1
  Ta  Ta117  1  0.78760294  0.19502257  0.26270547  1
  Ta  Ta118  1  0.59125501  0.18835206  0.73115608  1
  Ta  Ta119  1  0.50253689  0.89382986  0.36800394  1
  Ti  Ti120  1  0.60791509  0.58702403  0.24600866  1
  Ti  Ti121  1  0.09937063  0.92718448  0.63591773  1
  Ti  Ti122  1  0.79873755  0.60274988  0.74317172  1
  Ti  Ti123  1  0.29462268  0.29866156  0.37754125  1
  Ti  Ti124  1  0.61296572  0.39371163  0.50589784  1
  Ti  Ti125  1  0.19704329  0.81352212  0.49710473  1
  Ti  Ti126  1  0.29250792  0.50428595  0.88108176  1
  Ti  Ti127  1  0.01968526  0.78850023  -0.00956207  1
  Ti  Ti128  1  0.48270423  0.27542450  0.87516454  1
  Ti  Ti129  1  0.00074962  -0.00426952  0.25215647  1
  Ti  Ti130  1  0.51024191  0.70426194  0.62688271  1
  Ti  Ti131  1  0.40378393  0.60462778  0.74423808  1
  Ti  Ti132  1  0.90425243  0.70535725  0.36283149  1
  Ti  Ti133  1  0.17978643  0.18784190  0.51373781  1
  Ti  Ti134  1  0.80835922  0.00385836  0.48546115  1
  Ti  Ti135  1  0.70110504  0.89307132  0.38011352  1
  Ti  Ti136  1  0.79586745  0.60160996  0.25051120  1
  Ti  Ti137  1  0.39705760  -0.00311115  0.25963914  1
  Ti  Ti138  1  -0.01720551  0.39760392  0.74953723  1
  Ti  Ti139  1  0.87370679  0.30736265  0.61807215  1
  Ti  Ti140  1  0.80878654  0.80267151  0.25303157  1
  Ti  Ti141  1  -0.00094400  0.19831028  0.24148948  1
  Ti  Ti142  1  0.89779637  0.49999216  0.87055513  1
  Ti  Ti143  1  0.38072154  0.18995971  0.25680736  1
  Ti  Ti144  1  0.50758933  0.89028116  0.14126607  1
  Ti  Ti145  1  0.49774134  0.49651324  0.12973156  1
  Ti  Ti146  1  0.48938030  0.09215457  0.38226332  1
  Ti  Ti147  1  0.20501006  0.02045718  0.24572759  1
  Ti  Ti148  1  0.19044279  0.00514762  0.77410049  1
  Ti  Ti149  1  0.79297153  0.39352356  0.00695558  1
  Ti  Ti150  1  0.51254255  0.08577528  0.61665429  1
  Ti  Ti151  1  0.19131536  0.40364911  0.01674479  1
  Ti  Ti152  1  0.79294999  0.19075783  -0.00349910  1
  Ti  Ti153  1  0.78913812  0.20934320  0.48622201  1
  Ti  Ti154  1  0.40819974  0.20202760  0.72850979  1
  Ti  Ti155  1  0.29865195  0.50063023  0.13238661  1
  Ti  Ti156  1  0.81046757  -0.02216557  0.75863130  1
  Ti  Ti157  1  0.60807307  0.80004612  0.74153184  1
  Ti  Ti158  1  0.29431541  0.71936340  0.88653024  1
  Ti  Ti159  1  0.27660794  0.09021445  0.62717600  1
  Mo  Mo160  1  0.80417640  0.79225046  0.74985876  1
  Mo  Mo161  1  0.39911569  0.19589359  0.00167814  1
  Mo  Mo162  1  0.31613664  0.89475126  0.87189050  1
  Mo  Mo163  1  0.50157504  0.30247153  0.62253986  1
  Mo  Mo164  1  0.70071512  0.29685733  0.61719002  1
  Mo  Mo165  1  0.09749708  0.30593196  0.11564833  1
  Mo  Mo166  1  0.68987056  0.31287152  0.37804476  1
  Mo  Mo167  1  0.50098220  0.89487098  0.62826628  1
  Mo  Mo168  1  0.30347413  0.10263672  0.12286820  1
  Mo  Mo169  1  0.42205263  0.01259737  -0.00052881  1
  Mo  Mo170  1  0.70612387  0.88719643  0.86085090  1
  Mo  Mo171  1  0.19686025  0.21323619  0.24977775  1
  Mo  Mo172  1  0.10621725  0.70768428  0.87772947  1
  Mo  Mo173  1  0.10930425  0.89080846  0.88483855  1
  Mo  Mo174  1  0.51253344  0.10665133  0.86219653  1
  Mo  Mo175  1  0.60202499  0.79762248  0.49019135  1
  Mo  Mo176  1  0.48191136  0.29136909  0.37806367  1
  Mo  Mo177  1  -0.00024705  0.60741654  0.01508794  1
  Mo  Mo178  1  0.21040685  0.79915969  0.00767399  1
  Mo  Mo179  1  0.70454883  0.09614978  0.39007024  1
  Mo  Mo180  1  0.59569923  0.40102416  0.24336867  1
  Mo  Mo181  1  0.70394498  0.89447012  0.13630681  1
  Mo  Mo182  1  0.21006861  0.59618161  0.23972078  1
  Mo  Mo183  1  0.89683549  0.89670447  0.87833657  1
  Mo  Mo184  1  0.19678250  -0.00193895  0.50845371  1
  Mo  Mo185  1  0.41033777  0.80358746  0.24611014  1
  Mo  Mo186  1  0.60733377  -0.00451148  0.73211799  1
  Mo  Mo187  1  0.09943113  0.10031417  0.63820471  1
  Mo  Mo188  1  -0.00274193  0.81118962  0.25529524  1
  Mo  Mo189  1  0.29882021  0.31215135  0.87469534  1
  Mo  Mo190  1  0.00775202  0.00137328  0.77044512  1
  Mo  Mo191  1  0.90535069  0.90212390  0.37026526  1
  Mo  Mo192  1  0.60045220  0.78731893  0.02138386  1
  Mo  Mo193  1  0.10745358  0.10680366  0.88158688  1
  Mo  Mo194  1  0.80123204  0.40581288  0.74956527  1
  Mo  Mo195  1  -0.00450536  0.60566354  0.24705485  1
  Mo  Mo196  1  0.70226993  0.50550616  0.37374463  1
  Mo  Mo197  1  0.69838119  0.10273855  0.12411859  1
  Mo  Mo198  1  0.79621455  0.39845816  0.48805733  1
  Mo  Mo199  1  0.70661848  0.68893894  0.62847919  1
