# generated using pymatgen
data_HfZrTaTiMo
_symmetry_space_group_name_H-M   'P 1'
_cell_length_a   15.22000684
_cell_length_b   15.21928948
_cell_length_c   16.79565246
_cell_angle_alpha   90.04153364
_cell_angle_beta   90.01976504
_cell_angle_gamma   90.01384625
_symmetry_Int_Tables_number   1
_chemical_formula_structural   HfZrTaTiMo
_chemical_formula_sum   'Hf40 Zr40 Ta40 Ti40 Mo40'
_cell_volume   3890.50476974
_cell_formula_units_Z   40
loop_
 _symmetry_equiv_pos_site_id
 _symmetry_equiv_pos_as_xyz
  1  'x, y, z'
loop_
 _atom_site_type_symbol
 _atom_site_label
 _atom_site_symmetry_multiplicity
 _atom_site_fract_x
 _atom_site_fract_y
 _atom_site_fract_z
 _atom_site_occupancy
  Hf  Hf0  1  0.20989067  0.79749091  0.26708205  1
  Hf  Hf1  1  0.19360538  0.18712046  0.73643579  1
  Hf  Hf2  1  0.90124221  0.49776610  0.61845990  1
  Hf  Hf3  1  0.38781964  0.59809275  0.24528956  1
  Hf  Hf4  1  0.09529605  0.91677183  0.87599482  1
  Hf  Hf5  1  0.59344036  0.80000434  0.75611617  1
  Hf  Hf6  1  0.49321780  0.11566819  0.63569996  1
  Hf  Hf7  1  0.11451665  0.71213983  0.86365241  1
  Hf  Hf8  1  0.60350378  0.79569458  0.51611287  1
  Hf  Hf9  1  0.38072526  0.00201364  0.00544883  1
  Hf  Hf10  1  0.79238460  0.00011335  0.23972422  1
  Hf  Hf11  1  0.00118046  0.39928028  0.74358317  1
  Hf  Hf12  1  0.31309753  0.28420010  0.38292938  1
  Hf  Hf13  1  -0.00714565  -0.01016744  0.01403557  1
  Hf  Hf14  1  0.40106223  0.39206813  0.24175596  1
  Hf  Hf15  1  0.59689662  0.00960769  0.23953134  1
  Hf  Hf16  1  0.70409239  0.11139320  0.86947501  1
  Hf  Hf17  1  0.78906634  0.01119752  0.01333565  1
  Hf  Hf18  1  0.70981951  0.10820033  0.63425888  1
  Hf  Hf19  1  0.89683159  0.29550505  0.89222902  1
  Hf  Hf20  1  0.50267924  0.29910370  0.86907387  1
  Hf  Hf21  1  0.09287979  0.49906414  0.12871534  1
  Hf  Hf22  1  0.48483386  0.90562965  0.63059613  1
  Hf  Hf23  1  0.60125997  0.81190134  0.25041834  1
  Hf  Hf24  1  0.60008471  0.01015264  0.50966944  1
  Hf  Hf25  1  0.61378571  0.40640901  0.22737276  1
  Hf  Hf26  1  0.10219139  0.50519861  0.87203543  1
  Hf  Hf27  1  0.20024743  -0.01878418  0.72808211  1
  Hf  Hf28  1  0.20004300  0.60846056  -0.00080749  1
  Hf  Hf29  1  0.09861871  0.90691955  0.38162612  1
  Hf  Hf30  1  0.91574778  0.30033051  0.11781242  1
  Hf  Hf31  1  -0.00015117  0.61804665  0.48680715  1
  Hf  Hf32  1  0.79094353  0.40357616  0.01374361  1
  Hf  Hf33  1  0.60250587  0.22740616  0.50672461  1
  Hf  Hf34  1  0.60713367  0.40622618  0.75382589  1
  Hf  Hf35  1  0.10232289  0.29283503  0.88214270  1
  Hf  Hf36  1  0.20225288  0.39032527  0.24981615  1
  Hf  Hf37  1  0.29479282  0.08415379  0.86233650  1
  Hf  Hf38  1  0.00415028  0.01569845  0.73729654  1
  Hf  Hf39  1  0.79161820  0.59751477  0.50353920  1
  Zr  Zr40  1  0.49702912  0.49968767  0.37609569  1
  Zr  Zr41  1  0.48635765  0.11640529  0.37861611  1
  Zr  Zr42  1  0.81537546  0.40537826  0.23475649  1
  Zr  Zr43  1  0.21742215  0.40403079  0.00540858  1
  Zr  Zr44  1  0.90002906  0.90574293  0.63178151  1
  Zr  Zr45  1  0.80039311  0.60457551  0.23448949  1
  Zr  Zr46  1  -0.00094672  0.20648942  0.74683064  1
  Zr  Zr47  1  -0.00643853  0.58584490  0.26172894  1
  Zr  Zr48  1  0.90257669  0.10323219  0.37460013  1
  Zr  Zr49  1  0.29247001  0.69084553  0.61662247  1
  Zr  Zr50  1  0.90132264  0.70070888  0.63862981  1
  Zr  Zr51  1  0.58976255  0.00776268  0.00288517  1
  Zr  Zr52  1  0.39013090  -0.00230960  0.25298201  1
  Zr  Zr53  1  0.82063165  0.60513338  0.00756988  1
  Zr  Zr54  1  0.49900565  0.30481273  0.11196473  1
  Zr  Zr55  1  0.40127686  0.59080188  -0.00809165  1
  Zr  Zr56  1  0.89532552  0.29929586  0.38208760  1
  Zr  Zr57  1  0.38896051  0.79111170  -0.01807235  1
  Zr  Zr58  1  0.80555218  0.80835924  -0.02278844  1
  Zr  Zr59  1  0.59234160  0.59027075  0.51860684  1
  Zr  Zr60  1  0.49807716  0.90553479  0.38971590  1
  Zr  Zr61  1  0.70591797  0.72935473  0.11598272  1
  Zr  Zr62  1  0.69382367  0.47982708  0.37858438  1
  Zr  Zr63  1  0.70492872  0.89940183  0.63834521  1
  Zr  Zr64  1  0.20051875  0.39266186  0.73926635  1
  Zr  Zr65  1  -0.00326261  0.78654264  0.26734085  1
  Zr  Zr66  1  0.48085821  0.91729651  0.85965032  1
  Zr  Zr67  1  0.11449857  0.28552518  0.12255804  1
  Zr  Zr68  1  0.30264531  0.70353366  0.12606646  1
  Zr  Zr69  1  0.48469267  0.70394968  0.38613519  1
  Zr  Zr70  1  0.81215293  0.79739953  0.49785644  1
  Zr  Zr71  1  0.69944262  0.12095535  0.37506287  1
  Zr  Zr72  1  0.49235538  0.88396474  0.11967405  1
  Zr  Zr73  1  0.89109231  0.87558834  0.13028618  1
  Zr  Zr74  1  0.59543009  0.79947792  -0.02284812  1
  Zr  Zr75  1  0.21102999  0.18995283  -0.00465959  1
  Zr  Zr76  1  0.21195619  0.39125074  0.50649280  1
  Zr  Zr77  1  0.69467912  0.69659540  0.37518607  1
  Zr  Zr78  1  0.19623733  0.01778955  0.25175424  1
  Zr  Zr79  1  0.59063620  0.61014303  0.22878977  1
  Ta  Ta80  1  0.70167865  0.91023738  0.38176675  1
  Ta  Ta81  1  0.59827627  0.21087647  0.23975090  1
  Ta  Ta82  1  0.19732379  0.59705186  0.26486990  1
  Ta  Ta83  1  -0.00355966  0.00122517  0.50512327  1
  Ta  Ta84  1  0.30651175  0.09301210  0.61401426  1
  Ta  Ta85  1  0.00355050  0.78371870  -0.00235272  1
  Ta  Ta86  1  0.59975649  0.01126910  0.74855223  1
  Ta  Ta87  1  0.79980729  0.00691832  0.49891505  1
  Ta  Ta88  1  0.48950982  0.69643856  0.64036175  1
  Ta  Ta89  1  0.70294755  0.30312464  0.87690253  1
  Ta  Ta90  1  0.09671776  0.48467672  0.37680870  1
  Ta  Ta91  1  0.89143439  0.29839195  0.61120383  1
  Ta  Ta92  1  0.19676928  -0.00343330  0.50633150  1
  Ta  Ta93  1  0.48122937  0.11215466  0.12762653  1
  Ta  Ta94  1  0.80865992  0.39663938  0.75307756  1
  Ta  Ta95  1  0.91217921  0.69359687  0.86053474  1
  Ta  Ta96  1  0.80761904  0.20500881  0.75133583  1
  Ta  Ta97  1  0.49556237  0.30833241  0.64497213  1
  Ta  Ta98  1  0.40491257  0.19559996  -0.00968579  1
  Ta  Ta99  1  0.09911637  0.89185416  0.13376966  1
  Ta  Ta100  1  0.61426107  0.20296473  0.00608608  1
  Ta  Ta101  1  0.18646418  0.00304649  0.01544855  1
  Ta  Ta102  1  0.80509022  0.79984347  0.76301551  1
  Ta  Ta103  1  0.89702197  0.90392347  0.37679245  1
  Ta  Ta104  1  0.70512728  0.50204923  0.87420942  1
  Ta  Ta105  1  0.09940726  0.70166693  0.62411719  1
  Ta  Ta106  1  0.09556342  0.70068076  0.12936235  1
  Ta  Ta107  1  0.37313396  0.79565895  0.75252946  1
  Ta  Ta108  1  0.01581067  0.20035927  0.25209796  1
  Ta  Ta109  1  0.31048062  0.49277635  0.62870065  1
  Ta  Ta110  1  -0.00239264  0.00135036  0.24460368  1
  Ta  Ta111  1  0.89597343  0.49506926  0.38673384  1
  Ta  Ta112  1  0.29852879  0.88779735  0.60556293  1
  Ta  Ta113  1  0.51803169  0.30911118  0.37145962  1
  Ta  Ta114  1  0.60540028  0.60101224  0.00108065  1
  Ta  Ta115  1  0.70399196  0.91394028  0.85909578  1
  Ta  Ta116  1  0.19885513  0.59168687  0.48510621  1
  Ta  Ta117  1  0.10707584  0.51015595  0.61730264  1
  Ta  Ta118  1  0.70419682  0.68760804  0.86121176  1
  Ta  Ta119  1  0.10314639  0.11124902  0.39247481  1
  Ti  Ti120  1  0.49652240  0.10977262  0.85722786  1
  Ti  Ti121  1  0.79841221  0.80049879  0.26458887  1
  Ti  Ti122  1  0.59886944  0.40887845  -0.00136637  1
  Ti  Ti123  1  0.00730242  0.17875064  0.00104267  1
  Ti  Ti124  1  0.39740512  0.39600472  -0.00281260  1
  Ti  Ti125  1  0.19224096  0.78296363  0.48418495  1
  Ti  Ti126  1  0.19477350  0.80975505  0.00567688  1
  Ti  Ti127  1  0.01053562  0.80805017  0.74879934  1
  Ti  Ti128  1  0.39308702  0.59391950  0.50276764  1
  Ti  Ti129  1  0.30259769  0.49298118  0.37917372  1
  Ti  Ti130  1  0.09806630  0.88619419  0.60725514  1
  Ti  Ti131  1  0.31498153  0.28904532  0.62583319  1
  Ti  Ti132  1  0.70036162  0.30271907  0.63777575  1
  Ti  Ti133  1  0.69958106  0.68884514  0.65166586  1
  Ti  Ti134  1  0.09395151  0.29084388  0.60923131  1
  Ti  Ti135  1  0.40232794  0.79581267  0.25369226  1
  Ti  Ti136  1  0.70458846  0.49839551  0.63632049  1
  Ti  Ti137  1  0.77878314  0.38690121  0.50384089  1
  Ti  Ti138  1  0.90344210  0.11271029  0.61270053  1
  Ti  Ti139  1  0.49234565  0.68507610  0.85360972  1
  Ti  Ti140  1  0.00622201  0.59727274  0.74500226  1
  Ti  Ti141  1  0.90000696  0.50338672  0.87154587  1
  Ti  Ti142  1  -0.00076073  0.41706537  -0.00249343  1
  Ti  Ti143  1  0.29615991  0.09683604  0.39741448  1
  Ti  Ti144  1  0.00370240  0.40195506  0.50076807  1
  Ti  Ti145  1  0.89994290  0.10846315  0.13033152  1
  Ti  Ti146  1  0.49140691  0.50834724  0.11452378  1
  Ti  Ti147  1  0.20819569  0.60382815  0.74729162  1
  Ti  Ti148  1  0.90531879  0.09649411  0.87831699  1
  Ti  Ti149  1  0.49417628  0.50238569  0.64153878  1
  Ti  Ti150  1  0.30785693  0.29561041  0.86164367  1
  Ti  Ti151  1  0.30940208  0.49863168  0.85800683  1
  Ti  Ti152  1  0.10500736  0.29184613  0.38274397  1
  Ti  Ti153  1  0.90172281  0.90750209  0.86401854  1
  Ti  Ti154  1  0.28060987  0.88596762  0.87062268  1
  Ti  Ti155  1  0.42223821  0.39478624  0.50700153  1
  Ti  Ti156  1  0.79210544  0.20849800  0.23855112  1
  Ti  Ti157  1  0.31077941  0.89191753  0.39991924  1
  Ti  Ti158  1  0.50393401  0.50059517  0.86753820  1
  Ti  Ti159  1  0.29217985  0.90254992  0.12948001  1
  Mo  Mo160  1  0.69557839  0.90514894  0.12319951  1
  Mo  Mo161  1  0.29692849  0.69309791  0.86832717  1
  Mo  Mo162  1  0.39012473  -0.00046406  0.74412328  1
  Mo  Mo163  1  0.08897316  0.09570384  0.13129911  1
  Mo  Mo164  1  0.80741604  0.19821134  0.00512020  1
  Mo  Mo165  1  0.20641353  0.19647778  0.26008967  1
  Mo  Mo166  1  0.60179369  0.59851579  0.74826891  1
  Mo  Mo167  1  0.10393744  0.69475068  0.37401696  1
  Mo  Mo168  1  0.70402861  0.29546618  0.11531726  1
  Mo  Mo169  1  0.69373742  0.50712494  0.11025790  1
  Mo  Mo170  1  0.80960430  0.00994461  0.75652288  1
  Mo  Mo171  1  0.00718024  0.38998447  0.26260122  1
  Mo  Mo172  1  0.29317516  0.11008366  0.12657542  1
  Mo  Mo173  1  0.39679148  0.59479445  0.75246981  1
  Mo  Mo174  1  0.00520692  0.80804696  0.49227368  1
  Mo  Mo175  1  0.09873579  0.09885994  0.60522528  1
  Mo  Mo176  1  0.39748523  0.19702374  0.25042829  1
  Mo  Mo177  1  0.91783196  0.69493614  0.12166568  1
  Mo  Mo178  1  0.31598106  0.27911180  0.12613415  1
  Mo  Mo179  1  0.69804722  0.30281632  0.36890003  1
  Mo  Mo180  1  0.39982618  0.79095790  0.50961163  1
  Mo  Mo181  1  0.30071880  0.69088272  0.38342372  1
  Mo  Mo182  1  0.19141486  0.79837020  0.73805558  1
  Mo  Mo183  1  0.20224406  0.19625840  0.51450374  1
  Mo  Mo184  1  0.30110023  0.48910333  0.12525960  1
  Mo  Mo185  1  0.39692326  0.40028489  0.75120804  1
  Mo  Mo186  1  0.59784561  0.40385251  0.52183526  1
  Mo  Mo187  1  0.89131657  0.69850668  0.37874472  1
  Mo  Mo188  1  0.50022380  0.69751382  0.11740981  1
  Mo  Mo189  1  0.80733246  0.58829128  0.75485113  1
  Mo  Mo190  1  0.39618411  0.00250350  0.50225109  1
  Mo  Mo191  1  0.00117679  0.20538324  0.50123436  1
  Mo  Mo192  1  0.79762493  0.20138245  0.50781646  1
  Mo  Mo193  1  0.40060368  0.21202125  0.50770167  1
  Mo  Mo194  1  0.00886020  0.60254931  -0.00727902  1
  Mo  Mo195  1  0.60526178  0.20646583  0.75200440  1
  Mo  Mo196  1  0.39068340  0.20116896  0.75521038  1
  Mo  Mo197  1  0.09474532  0.09368627  0.87709909  1
  Mo  Mo198  1  0.91287787  0.49774070  0.12092029  1
  Mo  Mo199  1  0.69373868  0.11348579  0.12955646  1
