# generated using pymatgen
data_HfZrTaTiMo
_symmetry_space_group_name_H-M   'P 1'
_cell_length_a   15.23460470
_cell_length_b   15.21680133
_cell_length_c   16.81756227
_cell_angle_alpha   90.06677754
_cell_angle_beta   90.02177263
_cell_angle_gamma   90.15945739
_symmetry_Int_Tables_number   1
_chemical_formula_structural   HfZrTaTiMo
_chemical_formula_sum   'Hf40 Zr40 Ta40 Ti40 Mo40'
_cell_volume   3898.66209796
_cell_formula_units_Z   40
loop_
 _symmetry_equiv_pos_site_id
 _symmetry_equiv_pos_as_xyz
  1  'x, y, z'
loop_
 _atom_site_type_symbol
 _atom_site_label
 _atom_site_symmetry_multiplicity
 _atom_site_fract_x
 _atom_site_fract_y
 _atom_site_fract_z
 _atom_site_occupancy
  Hf  Hf0  1  0.69985687  0.08509562  0.12069367  1
  Hf  Hf1  1  0.71084875  0.30211768  0.37634624  1
  Hf  Hf2  1  0.39787726  0.79857486  0.23880950  1
  Hf  Hf3  1  0.80599783  0.19797641  0.51638775  1
  Hf  Hf4  1  0.19636055  0.39494354  0.02050360  1
  Hf  Hf5  1  0.69967978  0.70586260  0.63545746  1
  Hf  Hf6  1  0.47906342  0.28976252  0.37076370  1
  Hf  Hf7  1  0.40060786  0.00846608  0.25196069  1
  Hf  Hf8  1  0.90957987  0.50024845  0.61594031  1
  Hf  Hf9  1  0.40641284  0.21681531  0.73301628  1
  Hf  Hf10  1  0.31717168  0.70305831  0.38057526  1
  Hf  Hf11  1  0.50063238  0.69618061  0.63982071  1
  Hf  Hf12  1  -0.00126775  0.01594187  0.25817307  1
  Hf  Hf13  1  0.89500782  0.11018641  0.12155896  1
  Hf  Hf14  1  0.89014367  0.90430576  0.37245761  1
  Hf  Hf15  1  0.39794807  -0.02063057  0.51072590  1
  Hf  Hf16  1  0.89033466  0.70050203  0.11996726  1
  Hf  Hf17  1  0.32132702  0.30481073  0.87082070  1
  Hf  Hf18  1  0.70183479  0.90591269  0.64149310  1
  Hf  Hf19  1  0.70588764  0.08810817  0.37958686  1
  Hf  Hf20  1  -0.00280061  0.80202982  0.49854689  1
  Hf  Hf21  1  0.19478604  0.59627338  0.74633387  1
  Hf  Hf22  1  0.48657470  0.90156729  0.85592924  1
  Hf  Hf23  1  0.10812758  0.69967488  0.89054386  1
  Hf  Hf24  1  0.89262809  0.29274897  0.87023288  1
  Hf  Hf25  1  0.29040022  0.89937633  0.11928066  1
  Hf  Hf26  1  0.20348545  0.61205328  0.24017944  1
  Hf  Hf27  1  0.30540170  0.10853463  0.38609905  1
  Hf  Hf28  1  0.00367582  0.60134417  0.74970604  1
  Hf  Hf29  1  0.40208403  0.39386028  0.02031176  1
  Hf  Hf30  1  0.30280018  0.70608963  0.63277328  1
  Hf  Hf31  1  0.01388687  0.39755478  0.73555707  1
  Hf  Hf32  1  0.21552973  0.19654125  -0.00272042  1
  Hf  Hf33  1  0.09947514  0.89228122  0.86740810  1
  Hf  Hf34  1  0.40654684  0.59822674  0.23389157  1
  Hf  Hf35  1  0.88781122  0.69559283  0.36799158  1
  Hf  Hf36  1  -0.01241232  -0.00213444  -0.01523087  1
  Hf  Hf37  1  0.60156983  0.19574136  0.51143838  1
  Hf  Hf38  1  0.10257806  0.90293235  0.64332275  1
  Hf  Hf39  1  0.79620495  0.60381814  0.50222820  1
  Zr  Zr40  1  0.20891152  0.19601160  0.25264543  1
  Zr  Zr41  1  0.70724462  0.29464294  0.13217184  1
  Zr  Zr42  1  0.40471832  0.60611418  0.00546160  1
  Zr  Zr43  1  0.60506801  0.39966090  0.25563656  1
  Zr  Zr44  1  -0.00414875  0.21768919  0.00567618  1
  Zr  Zr45  1  0.00082209  0.00979016  0.49535524  1
  Zr  Zr46  1  0.09535941  0.49289013  0.37296521  1
  Zr  Zr47  1  0.69754593  0.47829386  0.88033440  1
  Zr  Zr48  1  0.80463854  0.60067199  0.75094623  1
  Zr  Zr49  1  0.49536461  0.87722649  0.38235768  1
  Zr  Zr50  1  0.19967160  0.59491189  0.50344084  1
  Zr  Zr51  1  0.81606503  0.20596617  0.25908841  1
  Zr  Zr52  1  0.69122728  0.88768574  0.10362380  1
  Zr  Zr53  1  0.59672862  0.59003452  -0.00586406  1
  Zr  Zr54  1  0.69049269  0.90201247  0.87178545  1
  Zr  Zr55  1  0.21242274  0.60206343  0.01811581  1
  Zr  Zr56  1  0.59284570  0.18187437  0.25471140  1
  Zr  Zr57  1  0.69695116  0.88512715  0.37587019  1
  Zr  Zr58  1  -0.00487043  0.80362775  0.25092658  1
  Zr  Zr59  1  0.10337136  0.71399174  0.11987364  1
  Zr  Zr60  1  0.20553256  0.80488369  0.50405184  1
  Zr  Zr61  1  0.59565728  -0.02061209  0.24640063  1
  Zr  Zr62  1  0.59797288  0.40246105  0.49687446  1
  Zr  Zr63  1  0.59659749  0.58651187  0.76213528  1
  Zr  Zr64  1  0.09366483  0.90552355  0.11827234  1
  Zr  Zr65  1  0.09994086  0.09992564  0.86140592  1
  Zr  Zr66  1  0.30280432  0.49245319  0.37387571  1
  Zr  Zr67  1  0.60573256  0.20855669  0.73134407  1
  Zr  Zr68  1  0.10857171  0.09910045  0.11794068  1
  Zr  Zr69  1  0.59598868  0.19837383  0.00396331  1
  Zr  Zr70  1  0.29732821  0.50026316  0.87373649  1
  Zr  Zr71  1  0.10296436  0.30966778  0.87322838  1
  Zr  Zr72  1  0.20306423  0.39267555  0.23681527  1
  Zr  Zr73  1  0.69933213  0.70323469  0.88372431  1
  Zr  Zr74  1  0.19281120  0.00212804  0.49674734  1
  Zr  Zr75  1  0.78973802  0.38889489  0.73228918  1
  Zr  Zr76  1  0.90352098  0.49089034  0.87560253  1
  Zr  Zr77  1  0.90868984  0.70634030  0.89186307  1
  Zr  Zr78  1  0.49964078  0.50642928  0.36738634  1
  Zr  Zr79  1  0.20044360  0.21189995  0.74099736  1
  Ta  Ta80  1  0.61327451  0.60788226  0.24209587  1
  Ta  Ta81  1  0.30691986  0.49916113  0.62360992  1
  Ta  Ta82  1  0.19505636  0.20325522  0.51316749  1
  Ta  Ta83  1  0.30511964  0.90099923  0.65366451  1
  Ta  Ta84  1  0.29715435  0.89716593  0.37073163  1
  Ta  Ta85  1  0.51051036  0.49271170  0.13266321  1
  Ta  Ta86  1  0.79984284  -0.00369572  0.50791863  1
  Ta  Ta87  1  0.10039920  0.70210107  0.36934892  1
  Ta  Ta88  1  0.80974788  0.80646356  0.75865317  1
  Ta  Ta89  1  0.79385303  0.80362808  0.50696554  1
  Ta  Ta90  1  0.29371590  0.90923943  0.85178597  1
  Ta  Ta91  1  -0.00235307  0.79559241  0.74981571  1
  Ta  Ta92  1  0.79477965  0.19343535  0.73309078  1
  Ta  Ta93  1  -0.00668941  0.39493694  0.24855114  1
  Ta  Ta94  1  0.08576044  0.49561273  0.13121242  1
  Ta  Ta95  1  0.79578819  0.01944722  -0.02349983  1
  Ta  Ta96  1  0.39376349  0.00465378  -0.01272020  1
  Ta  Ta97  1  0.09577445  0.09873313  0.63817012  1
  Ta  Ta98  1  0.29660349  0.09354306  0.62803789  1
  Ta  Ta99  1  0.50173627  0.89101254  0.64736997  1
  Ta  Ta100  1  0.70976720  0.50372144  0.12413556  1
  Ta  Ta101  1  0.39628654  0.39830862  0.51102995  1
  Ta  Ta102  1  0.50048943  0.08866671  0.39250017  1
  Ta  Ta103  1  0.80413990  0.39797504  0.50872294  1
  Ta  Ta104  1  0.80957227  0.01009448  0.76666406  1
  Ta  Ta105  1  -0.01355178  0.19882047  0.73636992  1
  Ta  Ta106  1  0.01164603  0.21210166  0.25019518  1
  Ta  Ta107  1  0.30296431  0.71546019  0.86679510  1
  Ta  Ta108  1  0.19811920  -0.00308911  0.26078673  1
  Ta  Ta109  1  0.49948828  0.08723871  0.62412230  1
  Ta  Ta110  1  0.59767571  0.60493292  0.50038826  1
  Ta  Ta111  1  0.69418917  0.28896398  0.87697161  1
  Ta  Ta112  1  0.00115550  0.60187239  0.49652988  1
  Ta  Ta113  1  -0.00020862  0.58943710  0.00982921  1
  Ta  Ta114  1  0.68872280  0.50100628  0.62195789  1
  Ta  Ta115  1  0.88900285  0.90901613  0.12176270  1
  Ta  Ta116  1  0.49483090  0.11379673  0.86478965  1
  Ta  Ta117  1  0.81206423  0.38784988  0.01245508  1
  Ta  Ta118  1  0.60337820  -0.00968937  0.51176467  1
  Ta  Ta119  1  0.09998739  0.49840422  0.88486397  1
  Ti  Ti120  1  0.60526773  0.01620024  0.75216868  1
  Ti  Ti121  1  0.41212619  0.60417619  0.50375948  1
  Ti  Ti122  1  0.50204420  0.70701400  0.11453810  1
  Ti  Ti123  1  0.78424880  0.79269359  0.23968041  1
  Ti  Ti124  1  0.20820554  0.00007580  -0.01547052  1
  Ti  Ti125  1  0.81061506  0.41640322  0.24705882  1
  Ti  Ti126  1  0.29148628  0.30405016  0.38824101  1
  Ti  Ti127  1  0.21063456  0.40197119  0.73225088  1
  Ti  Ti128  1  0.09374757  0.69730983  0.62321895  1
  Ti  Ti129  1  0.68798208  0.69788898  0.37487623  1
  Ti  Ti130  1  0.00288648  0.20936558  0.51756566  1
  Ti  Ti131  1  0.79843943  -0.00414025  0.24758455  1
  Ti  Ti132  1  0.59325053  0.78691173  0.24126312  1
  Ti  Ti133  1  0.10125630  0.89927444  0.36941390  1
  Ti  Ti134  1  0.57530788  0.79961307  -0.00957346  1
  Ti  Ti135  1  0.60065546  0.39019668  0.00989105  1
  Ti  Ti136  1  0.71017825  0.50923900  0.37186249  1
  Ti  Ti137  1  0.89873671  0.49662082  0.38112612  1
  Ti  Ti138  1  0.49025005  0.47376029  0.87621839  1
  Ti  Ti139  1  0.91029922  0.11433218  0.38316313  1
  Ti  Ti140  1  0.58960530  0.79476276  0.50845414  1
  Ti  Ti141  1  0.90168538  0.89885730  0.63233955  1
  Ti  Ti142  1  0.69620333  0.69738474  0.10834267  1
  Ti  Ti143  1  0.49389239  0.70293584  0.86390973  1
  Ti  Ti144  1  0.40068255  0.58514007  0.75295697  1
  Ti  Ti145  1  -0.01288020  0.59427362  0.24760521  1
  Ti  Ti146  1  0.10007158  0.29568634  0.38880435  1
  Ti  Ti147  1  0.80296765  0.58799026  -0.00026543  1
  Ti  Ti148  1  0.30960262  0.09996337  0.12502512  1
  Ti  Ti149  1  0.58942692  0.00643878  -0.01530652  1
  Ti  Ti150  1  0.49369345  0.09420138  0.11991984  1
  Ti  Ti151  1  0.40628706  0.19746943  -0.00304619  1
  Ti  Ti152  1  0.49053931  0.28781438  0.14257150  1
  Ti  Ti153  1  0.39844351  0.19968052  0.51676204  1
  Ti  Ti154  1  0.90045026  0.70770080  0.62361370  1
  Ti  Ti155  1  0.48986285  0.90238380  0.10689446  1
  Ti  Ti156  1  0.91313134  0.30930894  0.38726733  1
  Ti  Ti157  1  0.81369534  0.81947666  -0.00767529  1
  Ti  Ti158  1  0.57846668  0.39415803  0.73589180  1
  Ti  Ti159  1  0.90005640  0.08642814  0.62943106  1
  Mo  Mo160  1  0.40052043  0.19509641  0.25346192  1
  Mo  Mo161  1  0.51098668  0.69619244  0.37487635  1
  Mo  Mo162  1  0.79579316  0.20402283  -0.00146498  1
  Mo  Mo163  1  0.49630842  0.30291357  0.61131856  1
  Mo  Mo164  1  0.89546070  0.50411774  0.12985346  1
  Mo  Mo165  1  0.69646100  0.11000786  0.87260858  1
  Mo  Mo166  1  0.39159613  0.80828744  -0.00762357  1
  Mo  Mo167  1  0.09729375  0.29765643  0.12810076  1
  Mo  Mo168  1  0.39650296  0.38973661  0.23290797  1
  Mo  Mo169  1  0.39872209  0.79306973  0.75520701  1
  Mo  Mo170  1  0.31241542  0.10016959  0.87016626  1
  Mo  Mo171  1  0.79366536  0.60290388  0.24975165  1
  Mo  Mo172  1  0.09849326  0.30517532  0.61650872  1
  Mo  Mo173  1  0.40381067  0.40683662  0.73560590  1
  Mo  Mo174  1  0.51085216  0.30825078  0.87561936  1
  Mo  Mo175  1  0.09703998  0.11513442  0.37829341  1
  Mo  Mo176  1  0.70064842  0.30691168  0.61729970  1
  Mo  Mo177  1  0.21619175  0.81264858  -0.00948153  1
  Mo  Mo178  1  0.19766227  0.39368168  0.51049656  1
  Mo  Mo179  1  0.30844172  0.28444213  0.12367017  1
  Mo  Mo180  1  0.30868542  0.71151777  0.12257088  1
  Mo  Mo181  1  0.89669759  0.11196154  0.86848509  1
  Mo  Mo182  1  -0.00007430  0.40817414  0.00646889  1
  Mo  Mo183  1  0.70394193  0.09018932  0.62399079  1
  Mo  Mo184  1  0.29768737  0.30161976  0.61420429  1
  Mo  Mo185  1  0.20073386  0.80616907  0.26090801  1
  Mo  Mo186  1  -0.00291683  0.80220403  0.00418334  1
  Mo  Mo187  1  0.90650102  0.31173893  0.13149746  1
  Mo  Mo188  1  0.10655291  0.50389618  0.61440310  1
  Mo  Mo189  1  0.40443503  0.79520349  0.51038022  1
  Mo  Mo190  1  0.30413808  0.49645873  0.13495367  1
  Mo  Mo191  1  0.90366644  0.29544504  0.62085499  1
  Mo  Mo192  1  0.49717000  0.50541874  0.62068344  1
  Mo  Mo193  1  0.20174477  0.00752851  0.75190184  1
  Mo  Mo194  1  0.90260313  0.90306169  0.86912382  1
  Mo  Mo195  1  0.40427658  0.01270744  0.74448170  1
  Mo  Mo196  1  0.19177762  0.79223359  0.74689079  1
  Mo  Mo197  1  -0.00902503  0.00002513  0.75288978  1
  Mo  Mo198  1  0.60449688  0.79941622  0.75612883  1
  Mo  Mo199  1  -0.00002287  0.39976099  0.49956314  1
