# generated using pymatgen
data_HfZrTaTiMo
_symmetry_space_group_name_H-M   'P 1'
_cell_length_a   15.22340269
_cell_length_b   15.20960246
_cell_length_c   16.81637259
_cell_angle_alpha   89.91488583
_cell_angle_beta   89.98803707
_cell_angle_gamma   89.94230198
_symmetry_Int_Tables_number   1
_chemical_formula_structural   HfZrTaTiMo
_chemical_formula_sum   'Hf40 Zr40 Ta40 Ti40 Mo40'
_cell_volume   3893.68855786
_cell_formula_units_Z   40
loop_
 _symmetry_equiv_pos_site_id
 _symmetry_equiv_pos_as_xyz
  1  'x, y, z'
loop_
 _atom_site_type_symbol
 _atom_site_label
 _atom_site_symmetry_multiplicity
 _atom_site_fract_x
 _atom_site_fract_y
 _atom_site_fract_z
 _atom_site_occupancy
  Hf  Hf0  1  0.79804610  0.60292033  0.49597358  1
  Hf  Hf1  1  0.89455769  0.49085082  0.14246100  1
  Hf  Hf2  1  0.50802611  0.70636753  0.61918225  1
  Hf  Hf3  1  0.69839308  0.49925263  0.88297500  1
  Hf  Hf4  1  0.69703385  0.29895421  0.61829994  1
  Hf  Hf5  1  0.07616677  0.90475768  0.10544604  1
  Hf  Hf6  1  0.10450155  0.50765413  0.35273870  1
  Hf  Hf7  1  0.09083018  0.89342987  0.89318731  1
  Hf  Hf8  1  0.90724146  0.69884532  0.63089053  1
  Hf  Hf9  1  0.19659105  0.60084573  0.50432522  1
  Hf  Hf10  1  0.10193987  0.89650800  0.62940673  1
  Hf  Hf11  1  0.49737533  0.51848979  0.88340236  1
  Hf  Hf12  1  0.00991456  0.40151616  0.49210829  1
  Hf  Hf13  1  0.38790349  -0.00027241  0.23661172  1
  Hf  Hf14  1  0.89942762  0.09130853  0.11263160  1
  Hf  Hf15  1  0.49367222  0.90043910  0.87682906  1
  Hf  Hf16  1  0.10433227  0.30399172  0.64026602  1
  Hf  Hf17  1  0.39787855  0.19633917  0.00047843  1
  Hf  Hf18  1  0.40483147  0.39563595  0.00216929  1
  Hf  Hf19  1  0.90070393  0.89395187  0.62291847  1
  Hf  Hf20  1  0.01328844  0.59347845  0.01637400  1
  Hf  Hf21  1  -0.01652293  -0.00212650  0.76216445  1
  Hf  Hf22  1  0.49555598  0.48709503  0.61642214  1
  Hf  Hf23  1  0.88940505  0.09939409  0.62068685  1
  Hf  Hf24  1  0.19776605  -0.00633299  0.76013970  1
  Hf  Hf25  1  0.21920360  0.40347925  0.23270850  1
  Hf  Hf26  1  0.29833265  0.09646597  0.37651639  1
  Hf  Hf27  1  -0.00208797  -0.00594968  0.49275617  1
  Hf  Hf28  1  0.78485396  -0.01792905  0.00754501  1
  Hf  Hf29  1  0.70567964  0.90386490  0.37093583  1
  Hf  Hf30  1  0.60594512  0.80532165  0.49224580  1
  Hf  Hf31  1  0.91330433  0.69996787  0.87614937  1
  Hf  Hf32  1  0.30124826  0.10286100  0.87242588  1
  Hf  Hf33  1  0.20530698  0.00113270  0.50163341  1
  Hf  Hf34  1  0.80546043  0.59370445  0.00618369  1
  Hf  Hf35  1  0.08895477  0.11070973  0.87865735  1
  Hf  Hf36  1  0.49183995  0.90893806  0.37452835  1
  Hf  Hf37  1  0.70251620  0.30692344  0.12091661  1
  Hf  Hf38  1  0.59789272  0.59245257  0.48599067  1
  Hf  Hf39  1  0.09321804  0.10798844  0.37047056  1
  Zr  Zr40  1  0.49997194  0.11664935  0.37756236  1
  Zr  Zr41  1  0.68338938  0.08333970  0.87798890  1
  Zr  Zr42  1  0.59791547  0.01494442  0.24449752  1
  Zr  Zr43  1  0.30972785  0.89647073  0.63239154  1
  Zr  Zr44  1  -0.00180493  0.60024820  0.49138376  1
  Zr  Zr45  1  0.91316958  0.49333928  0.86832464  1
  Zr  Zr46  1  0.89574449  0.69872232  0.35412713  1
  Zr  Zr47  1  0.51190127  0.69505117  0.13333235  1
  Zr  Zr48  1  0.20576761  0.62295662  0.74694107  1
  Zr  Zr49  1  0.19300929  0.22172762  0.00482859  1
  Zr  Zr50  1  0.19317875  0.20744005  0.24223132  1
  Zr  Zr51  1  0.29674266  0.70642614  0.37208587  1
  Zr  Zr52  1  0.20368670  0.42228784  0.02022431  1
  Zr  Zr53  1  0.79034215  0.79682235  0.75225904  1
  Zr  Zr54  1  -0.00296117  0.20506848  0.49524772  1
  Zr  Zr55  1  0.20454547  0.81136839  0.23070179  1
  Zr  Zr56  1  0.79242810  0.60195778  0.75114660  1
  Zr  Zr57  1  0.70362053  0.28938180  0.87849365  1
  Zr  Zr58  1  0.79385309  0.78600419  0.01068544  1
  Zr  Zr59  1  0.91268003  0.49443683  0.63498294  1
  Zr  Zr60  1  0.78149112  -0.00263896  0.74866975  1
  Zr  Zr61  1  0.40698698  0.20729751  0.23838310  1
  Zr  Zr62  1  0.69413473  0.10644562  0.12011058  1
  Zr  Zr63  1  0.59064953  0.19826235  -0.00637504  1
  Zr  Zr64  1  0.49361873  0.69993605  0.36995431  1
  Zr  Zr65  1  0.09890003  0.70811174  0.35739669  1
  Zr  Zr66  1  0.00805458  0.38190622  0.01366034  1
  Zr  Zr67  1  0.21934290  0.41708964  0.74121420  1
  Zr  Zr68  1  0.32175553  0.31372973  0.61223253  1
  Zr  Zr69  1  0.10663074  0.50621161  0.86994314  1
  Zr  Zr70  1  0.91108535  0.28761710  0.86391198  1
  Zr  Zr71  1  -0.00933672  -0.00049642  0.25372478  1
  Zr  Zr72  1  0.59475865  0.40202302  0.75152805  1
  Zr  Zr73  1  0.29974882  0.11058373  0.63177805  1
  Zr  Zr74  1  0.79677141  0.39359884  0.74620811  1
  Zr  Zr75  1  0.30971254  0.49521474  0.37793255  1
  Zr  Zr76  1  0.09283982  0.10715469  0.63836756  1
  Zr  Zr77  1  0.39637658  0.59102909  0.24118991  1
  Zr  Zr78  1  0.80755787  0.39814245  0.49333891  1
  Zr  Zr79  1  0.32084951  0.70079856  0.88248721  1
  Ta  Ta80  1  0.39873996  0.80612683  0.23363364  1
  Ta  Ta81  1  0.30358574  0.70321530  0.62131925  1
  Ta  Ta82  1  0.68697849  0.29001608  0.38182533  1
  Ta  Ta83  1  0.88054049  0.09383305  0.37728043  1
  Ta  Ta84  1  0.88784946  0.09782640  0.89308144  1
  Ta  Ta85  1  0.80586338  0.39045428  0.00229741  1
  Ta  Ta86  1  0.40416292  0.40752728  0.75835028  1
  Ta  Ta87  1  0.78920035  -0.00905004  0.50348507  1
  Ta  Ta88  1  0.40540381  0.80366884  0.01401894  1
  Ta  Ta89  1  0.10425829  0.30360229  0.85286066  1
  Ta  Ta90  1  0.57241957  0.20957287  0.51266083  1
  Ta  Ta91  1  0.40543490  0.20959219  0.75632866  1
  Ta  Ta92  1  0.31258436  0.29675167  0.38635464  1
  Ta  Ta93  1  0.70187544  0.69783226  0.35698753  1
  Ta  Ta94  1  0.19790091  0.80320568  0.49717300  1
  Ta  Ta95  1  0.68317710  0.87785103  0.87522798  1
  Ta  Ta96  1  0.50312740  0.90586925  0.12495424  1
  Ta  Ta97  1  0.60065614  0.80564698  0.24998386  1
  Ta  Ta98  1  0.40494995  0.59764533  0.74204754  1
  Ta  Ta99  1  0.29602101  0.89426226  0.88247309  1
  Ta  Ta100  1  0.10256517  0.70822853  0.62453316  1
  Ta  Ta101  1  0.79186530  0.38870574  0.25907725  1
  Ta  Ta102  1  0.69258759  0.10113653  0.38938327  1
  Ta  Ta103  1  0.40006859  0.00169500  0.00656884  1
  Ta  Ta104  1  0.59559007  0.39240009  0.25568028  1
  Ta  Ta105  1  0.90675931  0.29124372  0.63593145  1
  Ta  Ta106  1  0.90164500  0.28130525  0.13749968  1
  Ta  Ta107  1  0.00778451  0.38405152  0.24685468  1
  Ta  Ta108  1  0.90000123  0.29028862  0.36249649  1
  Ta  Ta109  1  0.29234832  0.10262708  0.11876471  1
  Ta  Ta110  1  0.08613786  0.11154372  0.11595022  1
  Ta  Ta111  1  0.20520420  0.79509268  0.01506131  1
  Ta  Ta112  1  0.19237432  0.00302762  0.23475556  1
  Ta  Ta113  1  0.11348221  0.70340138  0.89167190  1
  Ta  Ta114  1  0.59304231  0.18668649  0.74316789  1
  Ta  Ta115  1  0.19966974  0.00537805  0.00256149  1
  Ta  Ta116  1  0.60620963  0.60913709  0.00277279  1
  Ta  Ta117  1  0.90597006  0.69929298  0.13984674  1
  Ta  Ta118  1  0.69484915  0.51073898  0.62040267  1
  Ta  Ta119  1  0.51499868  0.49011788  0.11658141  1
  Ti  Ti120  1  -0.00272614  0.80941377  0.24349157  1
  Ti  Ti121  1  0.89271723  0.89553440  0.88571999  1
  Ti  Ti122  1  0.02013839  0.79172993  0.75670553  1
  Ti  Ti123  1  0.41078611  0.39761657  0.24243877  1
  Ti  Ti124  1  0.79528189  -0.00570607  0.24067137  1
  Ti  Ti125  1  0.00291834  0.79715639  0.49293569  1
  Ti  Ti126  1  0.80150602  0.79458065  0.49925690  1
  Ti  Ti127  1  0.39713799  0.80977725  0.50295950  1
  Ti  Ti128  1  0.20906752  0.40720100  0.50431783  1
  Ti  Ti129  1  0.68753212  0.88645590  0.62269589  1
  Ti  Ti130  1  0.51021781  0.29568397  0.12167737  1
  Ti  Ti131  1  0.70540136  0.68847742  0.14542604  1
  Ti  Ti132  1  0.60256330  0.80073888  0.00975981  1
  Ti  Ti133  1  0.90002450  0.49685553  0.35353453  1
  Ti  Ti134  1  0.10148273  0.51074888  0.63376539  1
  Ti  Ti135  1  0.79357091  0.19684066  0.49874221  1
  Ti  Ti136  1  0.40797639  0.00559809  0.74933351  1
  Ti  Ti137  1  0.29655034  0.30991688  0.87058195  1
  Ti  Ti138  1  0.69733218  0.49760686  0.12704795  1
  Ti  Ti139  1  0.89820320  0.89663722  0.37548500  1
  Ti  Ti140  1  0.11086056  0.30678012  0.37251933  1
  Ti  Ti141  1  0.19915518  0.20717895  0.49879109  1
  Ti  Ti142  1  0.30214028  0.50897504  0.88322735  1
  Ti  Ti143  1  0.59996614  0.62102989  0.75206056  1
  Ti  Ti144  1  0.58825246  -0.01229323  0.73927247  1
  Ti  Ti145  1  0.78960393  0.18990513  0.25709075  1
  Ti  Ti146  1  0.41050458  0.79647892  0.74944298  1
  Ti  Ti147  1  0.79858776  0.80801389  0.23801973  1
  Ti  Ti148  1  0.29704514  0.90029911  0.37342459  1
  Ti  Ti149  1  0.39688581  0.59509547  0.50090304  1
  Ti  Ti150  1  0.70104001  0.49191767  0.37220699  1
  Ti  Ti151  1  0.41939408  0.00991819  0.51365554  1
  Ti  Ti152  1  0.58707397  -0.00549473  0.00635231  1
  Ti  Ti153  1  0.39756154  0.60309761  0.01548083  1
  Ti  Ti154  1  0.68136496  0.09114968  0.61084559  1
  Ti  Ti155  1  0.10648656  0.90301289  0.37093870  1
  Ti  Ti156  1  0.79531158  0.18719567  0.74677069  1
  Ti  Ti157  1  0.50028264  0.30009821  0.87387747  1
  Ti  Ti158  1  0.60132557  0.58491170  0.25925209  1
  Ti  Ti159  1  0.10210526  0.69608140  0.13026772  1
  Mo  Mo160  1  0.50173296  0.90274546  0.62536386  1
  Mo  Mo161  1  0.31070494  0.30014433  0.12333905  1
  Mo  Mo162  1  0.80557919  0.20423410  0.00158292  1
  Mo  Mo163  1  0.59508682  0.80091558  0.74762325  1
  Mo  Mo164  1  0.89066392  0.89177167  0.12695002  1
  Mo  Mo165  1  0.29617062  0.90728451  0.10992959  1
  Mo  Mo166  1  0.60077180  0.00130457  0.50526212  1
  Mo  Mo167  1  0.42270638  0.39479510  0.49072858  1
  Mo  Mo168  1  0.39132031  0.19741567  0.49934961  1
  Mo  Mo169  1  0.31806318  0.50253046  0.12292236  1
  Mo  Mo170  1  0.20838703  0.60780258  0.01645893  1
  Mo  Mo171  1  0.69159915  0.88896979  0.13348539  1
  Mo  Mo172  1  0.60871981  0.21319649  0.25088754  1
  Mo  Mo173  1  0.20906917  0.20761060  0.75835182  1
  Mo  Mo174  1  0.30362819  0.70093644  0.11962863  1
  Mo  Mo175  1  0.60838123  0.39853731  0.49694628  1
  Mo  Mo176  1  0.78936557  0.59041906  0.24930891  1
  Mo  Mo177  1  0.60376086  0.40881174  0.00133928  1
  Mo  Mo178  1  -0.00386839  0.20236043  -0.00012518  1
  Mo  Mo179  1  0.09449653  0.29773618  0.13371900  1
  Mo  Mo180  1  0.20814238  0.80270565  0.75935343  1
  Mo  Mo181  1  -0.00971740  -0.00253689  -0.01088403  1
  Mo  Mo182  1  0.00709564  0.40311907  0.74301098  1
  Mo  Mo183  1  0.09975666  0.50614678  0.14476474  1
  Mo  Mo184  1  0.49519948  0.09895203  0.63029741  1
  Mo  Mo185  1  0.20303567  0.60298560  0.22700905  1
  Mo  Mo186  1  -0.00749622  0.19358287  0.74964119  1
  Mo  Mo187  1  0.49396684  0.09595875  0.86385540  1
  Mo  Mo188  1  0.49823667  0.30883435  0.37482179  1
  Mo  Mo189  1  0.50567354  0.48815038  0.37566474  1
  Mo  Mo190  1  0.30807543  0.51317121  0.61449958  1
  Mo  Mo191  1  0.01053648  0.61074739  0.75130640  1
  Mo  Mo192  1  0.51510361  0.71075975  0.88011986  1
  Mo  Mo193  1  0.68855019  0.69580661  0.88190840  1
  Mo  Mo194  1  -0.00091726  0.59734395  0.23904326  1
  Mo  Mo195  1  -0.00608693  0.78725578  0.00599137  1
  Mo  Mo196  1  -0.01246668  0.19597228  0.25627414  1
  Mo  Mo197  1  0.50217226  0.29441220  0.63340949  1
  Mo  Mo198  1  0.49551410  0.10241778  0.12370426  1
  Mo  Mo199  1  0.69940781  0.69704183  0.61745886  1
