# generated using pymatgen
data_HfZrTaTiMo
_symmetry_space_group_name_H-M   'P 1'
_cell_length_a   15.21412030
_cell_length_b   15.21743391
_cell_length_c   16.84385158
_cell_angle_alpha   89.99573795
_cell_angle_beta   89.99597973
_cell_angle_gamma   90.10967456
_symmetry_Int_Tables_number   1
_chemical_formula_structural   HfZrTaTiMo
_chemical_formula_sum   'Hf40 Zr40 Ta40 Ti40 Mo40'
_cell_volume   3899.67916529
_cell_formula_units_Z   40
loop_
 _symmetry_equiv_pos_site_id
 _symmetry_equiv_pos_as_xyz
  1  'x, y, z'
loop_
 _atom_site_type_symbol
 _atom_site_label
 _atom_site_symmetry_multiplicity
 _atom_site_fract_x
 _atom_site_fract_y
 _atom_site_fract_z
 _atom_site_occupancy
  Hf  Hf0  1  0.39864117  0.19180441  0.76349737  1
  Hf  Hf1  1  0.30236133  0.71028534  0.86844606  1
  Hf  Hf2  1  0.10338576  0.69264250  0.13614689  1
  Hf  Hf3  1  0.90904351  0.30486375  0.11346562  1
  Hf  Hf4  1  0.01709656  0.20140896  0.77607576  1
  Hf  Hf5  1  0.79908842  0.21050814  0.24644996  1
  Hf  Hf6  1  0.10798728  0.29140308  0.14135655  1
  Hf  Hf7  1  0.89369247  0.71380754  0.13892116  1
  Hf  Hf8  1  0.40709416  0.79839026  0.73306328  1
  Hf  Hf9  1  0.30694433  0.91192077  0.88181590  1
  Hf  Hf10  1  0.71526959  0.29651558  0.62825933  1
  Hf  Hf11  1  -0.00070115  0.78237134  0.49658072  1
  Hf  Hf12  1  0.29133219  0.30397850  0.37019683  1
  Hf  Hf13  1  0.60515724  -0.01459742  0.51640769  1
  Hf  Hf14  1  0.09372989  0.48743559  0.36970707  1
  Hf  Hf15  1  0.51356340  0.10416886  0.11714638  1
  Hf  Hf16  1  0.79779791  0.81076995  0.50248180  1
  Hf  Hf17  1  0.39487072  0.39713487  0.75737257  1
  Hf  Hf18  1  0.49133099  0.30706688  0.11892665  1
  Hf  Hf19  1  0.18546240  0.19062198  -0.00330243  1
  Hf  Hf20  1  0.61757140  0.59490047  0.74383216  1
  Hf  Hf21  1  0.39237538  0.79387585  0.24451781  1
  Hf  Hf22  1  0.40632442  0.80200696  0.50675417  1
  Hf  Hf23  1  0.19265979  0.39583278  0.00079965  1
  Hf  Hf24  1  0.68954850  0.29793744  0.10626677  1
  Hf  Hf25  1  0.69618908  0.89334102  0.86653196  1
  Hf  Hf26  1  0.17717605  0.60495137  0.76161910  1
  Hf  Hf27  1  0.91246004  0.89424842  0.63265727  1
  Hf  Hf28  1  0.69229250  0.49010540  0.37222848  1
  Hf  Hf29  1  0.90886509  0.09765213  0.35925078  1
  Hf  Hf30  1  0.00632881  0.78889582  0.75138319  1
  Hf  Hf31  1  0.90355520  0.71750623  0.35385191  1
  Hf  Hf32  1  0.00194083  0.01847578  -0.00155750  1
  Hf  Hf33  1  0.89737624  0.70083599  0.88394047  1
  Hf  Hf34  1  0.30171387  0.11662164  0.13645574  1
  Hf  Hf35  1  0.11065456  0.09716749  0.35061445  1
  Hf  Hf36  1  0.60106694  0.59018055  0.49744548  1
  Hf  Hf37  1  0.40182417  0.61227905  -0.00641330  1
  Hf  Hf38  1  0.68556667  0.70844581  0.14101864  1
  Hf  Hf39  1  0.58182952  0.58873281  0.25639347  1
  Zr  Zr40  1  0.20724661  0.79972766  0.01707643  1
  Zr  Zr41  1  0.09616833  0.09418307  0.14656075  1
  Zr  Zr42  1  0.91148153  0.13132669  0.63449059  1
  Zr  Zr43  1  0.19402416  0.59835613  -0.01058768  1
  Zr  Zr44  1  0.89664566  0.90730290  0.87157545  1
  Zr  Zr45  1  0.00306471  -0.00119722  0.49563597  1
  Zr  Zr46  1  0.81299614  0.18758711  -0.00655553  1
  Zr  Zr47  1  0.69381251  0.71540417  0.36657707  1
  Zr  Zr48  1  0.70248412  0.08608718  0.12641879  1
  Zr  Zr49  1  0.38597482  0.60129714  0.48402501  1
  Zr  Zr50  1  0.18193552  0.39573816  0.75643623  1
  Zr  Zr51  1  0.41016210  0.21626221  0.25832810  1
  Zr  Zr52  1  0.79829669  0.01362646  0.73704610  1
  Zr  Zr53  1  0.20231593  0.81033843  0.73993273  1
  Zr  Zr54  1  0.08742395  0.29167683  0.62259546  1
  Zr  Zr55  1  0.20211094  0.80227071  0.50214555  1
  Zr  Zr56  1  0.50487085  0.29485970  0.61850795  1
  Zr  Zr57  1  0.30727486  0.50941515  0.13046421  1
  Zr  Zr58  1  0.39870434  0.40059305  -0.01332843  1
  Zr  Zr59  1  0.39521153  0.40624179  0.49572440  1
  Zr  Zr60  1  0.59385506  0.79043639  0.00040386  1
  Zr  Zr61  1  0.60406579  0.38776772  0.75451626  1
  Zr  Zr62  1  0.81683550  0.21063987  0.49611880  1
  Zr  Zr63  1  0.50970712  0.49820741  0.87382814  1
  Zr  Zr64  1  0.09472187  0.88786426  0.36237585  1
  Zr  Zr65  1  -0.00829259  0.59901980  0.00517245  1
  Zr  Zr66  1  0.10348249  0.89111809  0.88300605  1
  Zr  Zr67  1  0.90722475  0.31975341  0.89258970  1
  Zr  Zr68  1  0.18485956  0.60320051  0.48313609  1
  Zr  Zr69  1  0.39572759  0.19255115  0.48810983  1
  Zr  Zr70  1  0.41647704  0.00235137  0.25157964  1
  Zr  Zr71  1  0.49732043  0.09974187  0.62278157  1
  Zr  Zr72  1  0.50631911  0.08342256  0.88026794  1
  Zr  Zr73  1  0.49632257  0.49828023  0.62683424  1
  Zr  Zr74  1  0.80023623  0.01072378  0.51793385  1
  Zr  Zr75  1  0.39391039  0.19623505  -0.01042574  1
  Zr  Zr76  1  0.08070439  0.50230076  0.61545319  1
  Zr  Zr77  1  0.29117252  0.29166343  0.62656195  1
  Zr  Zr78  1  0.39698266  -0.00673513  0.74341302  1
  Zr  Zr79  1  0.70082126  0.08290868  0.36709907  1
  Ta  Ta80  1  0.89342187  0.50202204  0.36901040  1
  Ta  Ta81  1  0.79460253  0.59770384  0.25097495  1
  Ta  Ta82  1  0.71662813  0.68393297  0.61968785  1
  Ta  Ta83  1  0.01128159  0.20683176  0.48654073  1
  Ta  Ta84  1  0.70377827  0.29896505  0.37798085  1
  Ta  Ta85  1  0.40065550  -0.00546143  0.49127809  1
  Ta  Ta86  1  0.90516474  0.10169107  0.13683145  1
  Ta  Ta87  1  0.18858431  0.39276633  0.49455647  1
  Ta  Ta88  1  0.60094194  -0.00891854  0.73535302  1
  Ta  Ta89  1  0.00143653  0.59765179  0.25404842  1
  Ta  Ta90  1  0.50836766  0.70114354  0.86370118  1
  Ta  Ta91  1  0.80043281  0.42269548  0.00653264  1
  Ta  Ta92  1  0.08761148  0.69410003  0.62216251  1
  Ta  Ta93  1  0.40317765  -0.01220067  0.01572239  1
  Ta  Ta94  1  0.79857682  0.41961010  0.75230450  1
  Ta  Ta95  1  0.51986041  0.89553459  0.13416998  1
  Ta  Ta96  1  -0.01777118  0.40403821  0.74831373  1
  Ta  Ta97  1  0.70694467  0.09682340  0.87609296  1
  Ta  Ta98  1  0.61375900  0.19402792  0.49886502  1
  Ta  Ta99  1  0.28549237  0.28833059  0.86850016  1
  Ta  Ta100  1  0.69427587  0.50073217  0.12727335  1
  Ta  Ta101  1  0.79621406  0.80604621  0.00828837  1
  Ta  Ta102  1  0.49314812  0.70356269  0.37319112  1
  Ta  Ta103  1  0.19792735  0.01702286  0.75446246  1
  Ta  Ta104  1  0.10928473  0.09888302  0.62310972  1
  Ta  Ta105  1  0.52105675  0.89518946  0.37225258  1
  Ta  Ta106  1  0.21161905  0.60511390  0.26521341  1
  Ta  Ta107  1  0.69358361  0.30482376  0.89067353  1
  Ta  Ta108  1  0.51735400  0.30984775  0.38377385  1
  Ta  Ta109  1  0.60453352  0.79711924  0.73153521  1
  Ta  Ta110  1  0.09551483  0.49335473  0.13712902  1
  Ta  Ta111  1  0.80049093  0.78561906  0.73975234  1
  Ta  Ta112  1  0.79318660  0.40305630  0.24213280  1
  Ta  Ta113  1  0.50062460  0.88654554  0.87372814  1
  Ta  Ta114  1  0.30663584  0.89791064  0.37333180  1
  Ta  Ta115  1  0.60385359  0.59424045  0.00255309  1
  Ta  Ta116  1  0.79622630  0.41394526  0.50330230  1
  Ta  Ta117  1  0.89691520  0.50675355  0.13512945  1
  Ta  Ta118  1  0.20710108  0.00523615  0.49246545  1
  Ta  Ta119  1  0.29305015  0.68708580  0.62862370  1
  Ti  Ti120  1  0.19897148  0.79960346  0.24052588  1
  Ti  Ti121  1  0.88364290  0.51778597  0.61981597  1
  Ti  Ti122  1  0.71222113  0.50630420  0.88365573  1
  Ti  Ti123  1  -0.01482656  0.39901961  0.49783662  1
  Ti  Ti124  1  0.60320700  0.79479288  0.51524346  1
  Ti  Ti125  1  0.40224021  0.80238344  0.01606347  1
  Ti  Ti126  1  0.80703951  0.21792442  0.76669904  1
  Ti  Ti127  1  0.21153285  0.40072213  0.24565274  1
  Ti  Ti128  1  0.40992608  0.42183550  0.26203739  1
  Ti  Ti129  1  0.61123980  0.18997399  0.75842596  1
  Ti  Ti130  1  0.49984962  0.69014262  0.62317733  1
  Ti  Ti131  1  0.07078220  0.49141958  0.88035086  1
  Ti  Ti132  1  -0.01024278  0.39721568  0.24830734  1
  Ti  Ti133  1  0.09362853  0.29268317  0.35855164  1
  Ti  Ti134  1  0.29219789  0.49943923  0.87002682  1
  Ti  Ti135  1  0.79512988  0.83601758  0.24574903  1
  Ti  Ti136  1  0.59863233  0.38751515  0.24754008  1
  Ti  Ti137  1  0.79099548  0.61189175  0.01170966  1
  Ti  Ti138  1  0.19472128  0.19558085  0.48902466  1
  Ti  Ti139  1  -0.01479949  -0.02695802  0.24162823  1
  Ti  Ti140  1  0.00879399  0.00476556  0.75771443  1
  Ti  Ti141  1  0.10629736  0.90778098  0.62310770  1
  Ti  Ti142  1  0.39505571  0.59835203  0.75027000  1
  Ti  Ti143  1  0.60018373  0.19649813  0.25602671  1
  Ti  Ti144  1  0.80351326  -0.00708096  0.00147574  1
  Ti  Ti145  1  0.30208446  0.09442560  0.36477807  1
  Ti  Ti146  1  0.70061161  0.69784977  0.87267769  1
  Ti  Ti147  1  0.81162293  0.60913847  0.48741742  1
  Ti  Ti148  1  0.28535731  0.50027088  0.62691563  1
  Ti  Ti149  1  0.29236623  0.10121843  0.61930892  1
  Ti  Ti150  1  0.48688569  0.68703256  0.13416460  1
  Ti  Ti151  1  0.90013228  0.31012305  0.36972257  1
  Ti  Ti152  1  0.60659397  -0.01062837  -0.00228607  1
  Ti  Ti153  1  -0.02138660  0.59601025  0.75629065  1
  Ti  Ti154  1  0.21424227  -0.01696203  0.23895984  1
  Ti  Ti155  1  -0.00126359  0.81147974  0.01625946  1
  Ti  Ti156  1  0.20610949  -0.00345072  0.01563093  1
  Ti  Ti157  1  0.50503038  0.49749566  0.11862384  1
  Ti  Ti158  1  0.50848931  0.09656285  0.38022903  1
  Ti  Ti159  1  0.29936738  0.91119151  0.61743627  1
  Mo  Mo160  1  0.09875312  0.89843960  0.12953278  1
  Mo  Mo161  1  0.60894385  -0.00872134  0.25209432  1
  Mo  Mo162  1  0.49857726  0.89221380  0.61816442  1
  Mo  Mo163  1  0.60516395  0.40559066  -0.00244339  1
  Mo  Mo164  1  0.70311991  0.89110145  0.63446792  1
  Mo  Mo165  1  0.29298509  0.71545788  0.37255469  1
  Mo  Mo166  1  0.69658659  0.11047514  0.63574782  1
  Mo  Mo167  1  0.30379317  0.69644326  0.12774530  1
  Mo  Mo168  1  0.09731993  0.69824362  0.35634226  1
  Mo  Mo169  1  -0.00592290  0.20602512  0.25709720  1
  Mo  Mo170  1  0.50036945  0.49498155  0.37722069  1
  Mo  Mo171  1  0.80217195  0.00377192  0.24355465  1
  Mo  Mo172  1  0.88618876  0.90603488  0.37199444  1
  Mo  Mo173  1  0.70618899  0.49824758  0.61811517  1
  Mo  Mo174  1  0.70343850  0.89879061  0.11894960  1
  Mo  Mo175  1  0.89708378  0.91168762  0.11475174  1
  Mo  Mo176  1  0.90406918  0.32411250  0.62798516  1
  Mo  Mo177  1  0.50613655  0.28907815  0.87616159  1
  Mo  Mo178  1  0.29437907  0.49670431  0.36805621  1
  Mo  Mo179  1  0.09994187  0.30658370  0.88002520  1
  Mo  Mo180  1  0.80314578  0.60155267  0.75323922  1
  Mo  Mo181  1  -0.01578983  0.59185027  0.48413403  1
  Mo  Mo182  1  0.29456349  0.08931647  0.88564803  1
  Mo  Mo183  1  0.89790085  0.10084118  0.86902988  1
  Mo  Mo184  1  0.10993489  0.09232015  0.88022118  1
  Mo  Mo185  1  0.29976830  0.30975042  0.13540569  1
  Mo  Mo186  1  0.90547360  0.68942780  0.62163562  1
  Mo  Mo187  1  0.88969441  0.50755816  0.88084863  1
  Mo  Mo188  1  0.20798730  0.20128313  0.25731586  1
  Mo  Mo189  1  0.20427717  0.19151911  0.75453392  1
  Mo  Mo190  1  0.00647422  0.20297906  -0.00748254  1
  Mo  Mo191  1  0.60899833  0.38998936  0.50151305  1
  Mo  Mo192  1  0.39579039  0.59925375  0.26594684  1
  Mo  Mo193  1  0.00395040  0.40757600  0.01450692  1
  Mo  Mo194  1  0.70568383  0.89856218  0.37721009  1
  Mo  Mo195  1  0.59286057  0.80157522  0.25048428  1
  Mo  Mo196  1  0.60032156  0.19669819  -0.01497736  1
  Mo  Mo197  1  0.00122789  0.80227175  0.23542215  1
  Mo  Mo198  1  0.09348353  0.69592487  0.87748729  1
  Mo  Mo199  1  0.30811927  0.90470260  0.12803445  1
