# generated using pymatgen
data_HfZrTaTiMo
_symmetry_space_group_name_H-M   'P 1'
_cell_length_a   15.21252283
_cell_length_b   15.21010680
_cell_length_c   16.85355141
_cell_angle_alpha   89.94740551
_cell_angle_beta   89.98814452
_cell_angle_gamma   89.91304144
_symmetry_Int_Tables_number   1
_chemical_formula_structural   HfZrTaTiMo
_chemical_formula_sum   'Hf40 Zr40 Ta40 Ti40 Mo40'
_cell_volume   3899.63755579
_cell_formula_units_Z   40
loop_
 _symmetry_equiv_pos_site_id
 _symmetry_equiv_pos_as_xyz
  1  'x, y, z'
loop_
 _atom_site_type_symbol
 _atom_site_label
 _atom_site_symmetry_multiplicity
 _atom_site_fract_x
 _atom_site_fract_y
 _atom_site_fract_z
 _atom_site_occupancy
  Hf  Hf0  1  0.80179478  0.00950419  0.50884441  1
  Hf  Hf1  1  0.10935454  0.29043253  0.11359027  1
  Hf  Hf2  1  -0.00460632  0.20746009  0.74821698  1
  Hf  Hf3  1  0.69096791  0.09282584  0.87500407  1
  Hf  Hf4  1  0.29965413  0.30213652  0.61627432  1
  Hf  Hf5  1  0.20298190  -0.00832787  0.75440330  1
  Hf  Hf6  1  0.28407572  0.91150708  0.13415168  1
  Hf  Hf7  1  0.50560439  0.88547629  0.12334264  1
  Hf  Hf8  1  0.91647642  0.70735240  0.88535716  1
  Hf  Hf9  1  0.40802925  0.59675181  0.00996083  1
  Hf  Hf10  1  0.80138954  0.60742206  0.24305722  1
  Hf  Hf11  1  0.11246671  0.11075916  0.88737157  1
  Hf  Hf12  1  -0.00458666  -0.01423635  -0.01021360  1
  Hf  Hf13  1  0.39863940  0.00332398  0.25963666  1
  Hf  Hf14  1  0.79519476  0.20292865  0.73832027  1
  Hf  Hf15  1  0.59345849  0.38914426  0.75620136  1
  Hf  Hf16  1  0.39822053  0.20823911  0.24830396  1
  Hf  Hf17  1  -0.00070233  0.58902742  0.22612101  1
  Hf  Hf18  1  0.30550068  0.09586766  0.61012734  1
  Hf  Hf19  1  0.20236281  0.19450605  0.74354797  1
  Hf  Hf20  1  0.09393718  0.68788064  0.36810672  1
  Hf  Hf21  1  0.40192557  -0.00011822  0.00630469  1
  Hf  Hf22  1  0.80130876  0.59313494  -0.00454896  1
  Hf  Hf23  1  0.90737307  0.70944168  0.62476755  1
  Hf  Hf24  1  0.39120925  0.19595098  0.01225100  1
  Hf  Hf25  1  0.59964548  0.60539162  0.75549847  1
  Hf  Hf26  1  0.79291777  0.41222981  0.25313009  1
  Hf  Hf27  1  0.60973321  0.58808973  0.25561370  1
  Hf  Hf28  1  0.80415811  0.80435066  0.49715282  1
  Hf  Hf29  1  0.91080664  0.50094119  0.86994137  1
  Hf  Hf30  1  0.88834943  0.10565255  0.88559785  1
  Hf  Hf31  1  0.89096720  0.71925782  0.11185340  1
  Hf  Hf32  1  0.50051401  0.71024828  0.62505059  1
  Hf  Hf33  1  0.30965705  0.89601109  0.88190795  1
  Hf  Hf34  1  0.20641670  0.58404868  0.49823623  1
  Hf  Hf35  1  0.00141042  0.79486563  0.75506139  1
  Hf  Hf36  1  0.68241491  0.70275625  0.11362258  1
  Hf  Hf37  1  0.90118388  0.10824675  0.37680962  1
  Hf  Hf38  1  0.89264495  0.30059664  0.37565352  1
  Hf  Hf39  1  0.68570753  0.30639528  0.61859053  1
  Zr  Zr40  1  0.80794777  0.00299782  0.25151181  1
  Zr  Zr41  1  0.49066015  0.09985463  0.87674090  1
  Zr  Zr42  1  0.19668425  0.60273654  0.01940237  1
  Zr  Zr43  1  0.40887618  0.00141605  0.74768290  1
  Zr  Zr44  1  0.60059067  0.39635990  -0.01012613  1
  Zr  Zr45  1  -0.00028928  0.80190263  0.24623617  1
  Zr  Zr46  1  0.00606650  0.59589126  0.51258585  1
  Zr  Zr47  1  0.51206331  0.49323838  0.12203570  1
  Zr  Zr48  1  0.69903807  0.90118115  0.37894236  1
  Zr  Zr49  1  0.09330835  0.31569873  0.88925502  1
  Zr  Zr50  1  0.20546902  -0.00517659  0.48219417  1
  Zr  Zr51  1  0.31257174  0.88751646  0.61800344  1
  Zr  Zr52  1  0.08348330  0.30539897  0.37548090  1
  Zr  Zr53  1  0.81349698  0.60972377  0.74962572  1
  Zr  Zr54  1  0.89306206  0.31025843  0.11925324  1
  Zr  Zr55  1  0.49200470  0.29813427  0.39304013  1
  Zr  Zr56  1  0.20032306  0.60377818  0.23447283  1
  Zr  Zr57  1  0.69889330  0.09932341  0.11519729  1
  Zr  Zr58  1  0.00278698  0.00206318  0.76082695  1
  Zr  Zr59  1  0.79982919  0.41320956  0.50433037  1
  Zr  Zr60  1  0.80526645  0.00125928  0.74005372  1
  Zr  Zr61  1  0.19642351  0.39577602  0.25393924  1
  Zr  Zr62  1  0.92146375  0.50058301  0.37193549  1
  Zr  Zr63  1  0.30901379  0.72035524  0.12467215  1
  Zr  Zr64  1  0.09975804  0.08644851  0.12236035  1
  Zr  Zr65  1  0.70727482  0.89501195  0.12038441  1
  Zr  Zr66  1  0.00247643  -0.01065743  0.48569233  1
  Zr  Zr67  1  0.09924185  0.88644234  0.62300395  1
  Zr  Zr68  1  0.19116091  0.40856433  0.74797124  1
  Zr  Zr69  1  0.19578382  0.78923880  0.49524462  1
  Zr  Zr70  1  0.30330112  0.70143442  0.36819376  1
  Zr  Zr71  1  0.59760478  -0.00231889  0.25763025  1
  Zr  Zr72  1  0.69139721  0.89049968  0.63502945  1
  Zr  Zr73  1  0.41230792  0.59918266  0.24454975  1
  Zr  Zr74  1  0.79291558  0.20560049  0.24320493  1
  Zr  Zr75  1  0.49486449  0.49750446  0.62646176  1
  Zr  Zr76  1  0.48665332  0.49964041  0.87094555  1
  Zr  Zr77  1  0.29631555  0.28689984  0.88183687  1
  Zr  Zr78  1  0.01008103  -0.00070485  0.25717115  1
  Zr  Zr79  1  0.29580557  0.69372081  0.88659641  1
  Ta  Ta80  1  0.59685090  0.78812677  0.25939959  1
  Ta  Ta81  1  0.70730243  0.49495237  0.87028845  1
  Ta  Ta82  1  0.60981748  0.59401488  0.50304165  1
  Ta  Ta83  1  -0.00784904  0.41452815  0.00373864  1
  Ta  Ta84  1  0.20629797  0.78360261  0.75333101  1
  Ta  Ta85  1  0.69632480  0.29166441  0.87148621  1
  Ta  Ta86  1  0.40412523  0.60470120  0.49862867  1
  Ta  Ta87  1  0.59964938  0.60971742  -0.01593529  1
  Ta  Ta88  1  0.70142577  0.68979070  0.38162402  1
  Ta  Ta89  1  0.70231569  0.50661690  0.63306943  1
  Ta  Ta90  1  0.79904026  0.20262230  0.51153425  1
  Ta  Ta91  1  0.09506922  0.29830002  0.61966912  1
  Ta  Ta92  1  0.40742175  0.80740173  0.25870097  1
  Ta  Ta93  1  0.79690036  0.80163829  0.25860441  1
  Ta  Ta94  1  0.68962481  0.31158080  0.38667596  1
  Ta  Ta95  1  0.50498239  0.69937222  0.38404112  1
  Ta  Ta96  1  0.58695866  0.20268595  -0.00058771  1
  Ta  Ta97  1  0.49851270  0.09972955  0.60831500  1
  Ta  Ta98  1  0.59669688  0.38975008  0.25282394  1
  Ta  Ta99  1  0.80040667  0.40060485  0.74502974  1
  Ta  Ta100  1  0.88796032  0.30848723  0.88115005  1
  Ta  Ta101  1  0.49011471  0.29429794  0.61089311  1
  Ta  Ta102  1  0.58676127  0.19149028  0.74260480  1
  Ta  Ta103  1  0.89804649  0.70375453  0.37895091  1
  Ta  Ta104  1  0.80175639  0.60209113  0.50805237  1
  Ta  Ta105  1  0.39434258  0.39038123  0.75231119  1
  Ta  Ta106  1  0.50971054  0.49686755  0.38484085  1
  Ta  Ta107  1  0.59749101  -0.00373775  0.49776623  1
  Ta  Ta108  1  0.59460190  0.20215030  0.25549233  1
  Ta  Ta109  1  0.69662703  0.11534133  0.38264277  1
  Ta  Ta110  1  0.10198699  0.52082027  0.88047013  1
  Ta  Ta111  1  0.19026872  0.19974711  0.50042953  1
  Ta  Ta112  1  0.29101267  0.29531225  0.38427900  1
  Ta  Ta113  1  0.00544366  0.60737596  0.01784157  1
  Ta  Ta114  1  0.39811003  0.39030035  0.00283485  1
  Ta  Ta115  1  0.18980800  0.40137696  0.49848835  1
  Ta  Ta116  1  0.09463531  0.09682543  0.62042186  1
  Ta  Ta117  1  0.10444629  0.87810839  0.88301518  1
  Ta  Ta118  1  0.49803280  0.09818100  0.39078521  1
  Ta  Ta119  1  0.38696524  0.41222034  0.49732581  1
  Ti  Ti120  1  0.40557346  0.39934250  0.25234366  1
  Ti  Ti121  1  -0.00595074  0.41068039  0.73880745  1
  Ti  Ti122  1  0.00227205  0.40583430  0.51429837  1
  Ti  Ti123  1  0.70482239  0.89905443  0.85905535  1
  Ti  Ti124  1  0.50201985  0.90391500  0.62315003  1
  Ti  Ti125  1  0.59401114  0.79765286  0.49550321  1
  Ti  Ti126  1  0.89920462  0.30443538  0.62202012  1
  Ti  Ti127  1  0.51863981  0.89674652  0.86599939  1
  Ti  Ti128  1  0.78819791  0.20853921  0.00341393  1
  Ti  Ti129  1  0.30208572  0.48748218  0.12454228  1
  Ti  Ti130  1  0.70888540  0.49237104  0.11267886  1
  Ti  Ti131  1  0.10828103  0.11076952  0.36655292  1
  Ti  Ti132  1  0.09917855  0.48199307  0.11918198  1
  Ti  Ti133  1  0.42159324  0.79654163  -0.00280175  1
  Ti  Ti134  1  0.50236677  0.10161233  0.12696439  1
  Ti  Ti135  1  0.40169403  0.20192622  0.74877096  1
  Ti  Ti136  1  0.29808842  0.30245836  0.12318306  1
  Ti  Ti137  1  0.28423556  0.10930723  0.13889039  1
  Ti  Ti138  1  0.50211446  0.70778778  0.86843157  1
  Ti  Ti139  1  0.40366499  0.79608976  0.75387080  1
  Ti  Ti140  1  0.30333376  0.10592261  0.37915500  1
  Ti  Ti141  1  0.30189930  0.49492243  0.37047408  1
  Ti  Ti142  1  0.60132351  0.19837119  0.50244365  1
  Ti  Ti143  1  0.70269655  0.71191105  0.87116727  1
  Ti  Ti144  1  0.29509598  0.50417280  0.62952437  1
  Ti  Ti145  1  0.68247989  0.30399547  0.12218901  1
  Ti  Ti146  1  0.80429124  0.82393812  -0.01505498  1
  Ti  Ti147  1  0.20476724  0.00104814  -0.00402026  1
  Ti  Ti148  1  0.70018332  0.70416019  0.63126248  1
  Ti  Ti149  1  0.90497697  0.91535421  0.11941271  1
  Ti  Ti150  1  -0.00561910  0.19767566  0.50967116  1
  Ti  Ti151  1  0.11318215  0.68154892  0.63644296  1
  Ti  Ti152  1  0.90628807  0.90466895  0.62487448  1
  Ti  Ti153  1  -0.00937869  0.19928921  0.00481651  1
  Ti  Ti154  1  0.29086764  0.49222557  0.88292662  1
  Ti  Ti155  1  0.68967991  0.09754135  0.62475594  1
  Ti  Ti156  1  0.00083908  0.20597699  0.23888539  1
  Ti  Ti157  1  0.38398727  0.59881635  0.75219104  1
  Ti  Ti158  1  0.60411321  -0.01267586  -0.00284217  1
  Ti  Ti159  1  0.30584580  0.69501843  0.62528397  1
  Mo  Mo160  1  0.20562877  0.40407399  0.00379012  1
  Mo  Mo161  1  0.79635376  0.39753151  -0.00987726  1
  Mo  Mo162  1  0.10282745  0.71826439  0.12800999  1
  Mo  Mo163  1  0.49890115  0.29374999  0.13050668  1
  Mo  Mo164  1  0.89331093  0.89712134  0.87240790  1
  Mo  Mo165  1  0.21001525  0.60001359  0.75324496  1
  Mo  Mo166  1  0.39167129  0.19810661  0.49681068  1
  Mo  Mo167  1  0.10509774  0.89017683  0.37211072  1
  Mo  Mo168  1  0.10181434  0.89230890  0.11721174  1
  Mo  Mo169  1  0.59662286  0.80077689  0.75615147  1
  Mo  Mo170  1  0.49578118  0.89423910  0.38285285  1
  Mo  Mo171  1  -0.00409385  0.79739696  0.48981100  1
  Mo  Mo172  1  0.19978465  0.19295306  0.25793790  1
  Mo  Mo173  1  0.40797149  -0.00877591  0.48840554  1
  Mo  Mo174  1  0.30094754  0.89995946  0.36724052  1
  Mo  Mo175  1  0.80325702  0.80271197  0.75795904  1
  Mo  Mo176  1  0.20195737  0.19358441  0.00586266  1
  Mo  Mo177  1  0.50832639  0.70477124  0.12398423  1
  Mo  Mo178  1  0.19431080  0.80996723  0.00396917  1
  Mo  Mo179  1  0.90721227  0.10900835  0.61956264  1
  Mo  Mo180  1  0.89703194  0.50381864  0.11857562  1
  Mo  Mo181  1  0.40757416  0.79878780  0.49325514  1
  Mo  Mo182  1  0.60470555  0.79983461  -0.02152095  1
  Mo  Mo183  1  0.59492569  0.40632522  0.50512909  1
  Mo  Mo184  1  0.10427586  0.49352310  0.63033813  1
  Mo  Mo185  1  0.89997090  0.49894893  0.63309955  1
  Mo  Mo186  1  0.19828156  0.81777583  0.26190432  1
  Mo  Mo187  1  0.70052192  0.50115320  0.38030557  1
  Mo  Mo188  1  0.10511165  0.69494149  0.87715403  1
  Mo  Mo189  1  0.89827119  0.10182440  0.10449872  1
  Mo  Mo190  1  0.20318171  0.00329569  0.26736378  1
  Mo  Mo191  1  0.49688209  0.29311575  0.87098831  1
  Mo  Mo192  1  0.00663284  0.79868424  0.00744112  1
  Mo  Mo193  1  0.90187551  0.89267041  0.37631795  1
  Mo  Mo194  1  0.59629484  0.00624214  0.74184758  1
  Mo  Mo195  1  -0.00299247  0.39594365  0.23676101  1
  Mo  Mo196  1  0.01979985  0.59460518  0.74410078  1
  Mo  Mo197  1  0.10812033  0.49611160  0.37073061  1
  Mo  Mo198  1  0.29655023  0.09073915  0.87854792  1
  Mo  Mo199  1  0.79892426  0.00504389  -0.00307219  1
