# generated using pymatgen
data_HfZrTaTiMo
_symmetry_space_group_name_H-M   'P 1'
_cell_length_a   15.18302439
_cell_length_b   15.18587762
_cell_length_c   16.81394076
_cell_angle_alpha   90.02033855
_cell_angle_beta   89.90429621
_cell_angle_gamma   89.80026556
_symmetry_Int_Tables_number   1
_chemical_formula_structural   HfZrTaTiMo
_chemical_formula_sum   'Hf40 Zr40 Ta40 Ti40 Mo40'
_cell_volume   3876.71991546
_cell_formula_units_Z   40
loop_
 _symmetry_equiv_pos_site_id
 _symmetry_equiv_pos_as_xyz
  1  'x, y, z'
loop_
 _atom_site_type_symbol
 _atom_site_label
 _atom_site_symmetry_multiplicity
 _atom_site_fract_x
 _atom_site_fract_y
 _atom_site_fract_z
 _atom_site_occupancy
  Hf  Hf0  1  0.09914270  0.10889849  0.85935628  1
  Hf  Hf1  1  0.09994529  0.30200767  0.63361691  1
  Hf  Hf2  1  0.11066787  0.70233927  0.37792507  1
  Hf  Hf3  1  0.71460991  0.90339003  0.13013068  1
  Hf  Hf4  1  0.78559460  0.00241383  0.47674830  1
  Hf  Hf5  1  0.01750200  0.59703855  0.50716257  1
  Hf  Hf6  1  0.88977416  0.09589828  0.14324323  1
  Hf  Hf7  1  0.49015486  0.30688182  0.12090884  1
  Hf  Hf8  1  0.39122417  -0.01873117  0.24128730  1
  Hf  Hf9  1  0.70405310  0.50169439  0.88897863  1
  Hf  Hf10  1  0.90046261  0.29756797  0.62051562  1
  Hf  Hf11  1  0.28807949  0.09949201  0.14029640  1
  Hf  Hf12  1  0.10981382  0.51114618  0.11119137  1
  Hf  Hf13  1  0.48666116  0.09714238  0.87042423  1
  Hf  Hf14  1  0.30251920  0.27060632  0.85825793  1
  Hf  Hf15  1  0.69174553  0.70603005  0.13034060  1
  Hf  Hf16  1  0.70246312  0.29288831  0.35549170  1
  Hf  Hf17  1  0.19359417  0.40943088  0.75508243  1
  Hf  Hf18  1  0.70164484  0.10705617  0.87806685  1
  Hf  Hf19  1  0.89157869  0.29329603  0.89225036  1
  Hf  Hf20  1  0.19238701  -0.00569733  0.49863499  1
  Hf  Hf21  1  0.80078078  0.80653990  0.48846706  1
  Hf  Hf22  1  0.79843868  0.39071755  0.75791678  1
  Hf  Hf23  1  0.30758840  0.09997112  0.37123206  1
  Hf  Hf24  1  0.41625901  0.39135331  0.75120368  1
  Hf  Hf25  1  0.69717504  0.28613225  0.62045583  1
  Hf  Hf26  1  0.50385646  0.10316349  0.63046576  1
  Hf  Hf27  1  -0.01854904  0.00592976  0.74184379  1
  Hf  Hf28  1  0.40540237  0.77782366  0.24526486  1
  Hf  Hf29  1  0.60438910  0.40187944  0.75635954  1
  Hf  Hf30  1  0.81156316  0.40001306  0.23589748  1
  Hf  Hf31  1  0.60031464  0.18174292  0.48927627  1
  Hf  Hf32  1  0.59229972  0.38811017  0.49527546  1
  Hf  Hf33  1  0.40463479  0.00110199  0.50069092  1
  Hf  Hf34  1  -0.00211185  0.80158455  0.74670479  1
  Hf  Hf35  1  0.89225145  0.10134824  0.61297259  1
  Hf  Hf36  1  0.58618723  -0.00875748  0.24414293  1
  Hf  Hf37  1  0.80536242  0.60450584  0.75298881  1
  Hf  Hf38  1  0.20453881  0.80578328  0.24210316  1
  Hf  Hf39  1  0.00419902  0.20830055  0.48705423  1
  Zr  Zr40  1  0.91404150  0.49555408  0.61997010  1
  Zr  Zr41  1  0.20327558  0.20887385  0.49725075  1
  Zr  Zr42  1  0.68746185  0.70679431  0.36362205  1
  Zr  Zr43  1  0.29401707  0.10671526  0.63438394  1
  Zr  Zr44  1  0.31252761  0.50165007  0.87327150  1
  Zr  Zr45  1  0.90497537  0.70507777  0.62148726  1
  Zr  Zr46  1  0.40312846  0.20315834  0.24658319  1
  Zr  Zr47  1  0.20372175  0.60883857  0.23721184  1
  Zr  Zr48  1  0.29879473  0.50804091  0.63612082  1
  Zr  Zr49  1  0.08729458  0.10067719  0.14095857  1
  Zr  Zr50  1  0.20398107  0.80679054  0.00396684  1
  Zr  Zr51  1  0.80410390  0.00334182  0.00585497  1
  Zr  Zr52  1  0.49852094  0.88721393  0.37650673  1
  Zr  Zr53  1  0.30398144  0.89111290  0.63222297  1
  Zr  Zr54  1  0.49981928  0.88561177  0.87482792  1
  Zr  Zr55  1  0.39473701  0.18745733  0.00878979  1
  Zr  Zr56  1  0.89881019  0.70734933  0.87935940  1
  Zr  Zr57  1  0.78456424  0.81876723  0.74760094  1
  Zr  Zr58  1  0.21871623  0.39306218  0.00130226  1
  Zr  Zr59  1  0.88889843  0.11019332  0.36069758  1
  Zr  Zr60  1  0.60286336  0.60320498  0.75282190  1
  Zr  Zr61  1  0.80632575  0.40129879  0.48757798  1
  Zr  Zr62  1  0.70022471  0.50257218  0.36460695  1
  Zr  Zr63  1  0.81964277  0.60581205  0.24322361  1
  Zr  Zr64  1  0.91009978  0.49795615  0.89331948  1
  Zr  Zr65  1  0.59978219  0.20426229  0.75232651  1
  Zr  Zr66  1  0.10157178  0.10599152  0.36202614  1
  Zr  Zr67  1  0.49313003  0.70112411  0.62327077  1
  Zr  Zr68  1  0.59091506  0.00856416  0.01593757  1
  Zr  Zr69  1  0.80034907  0.60769227  0.01425434  1
  Zr  Zr70  1  0.29888372  0.32042878  0.37362649  1
  Zr  Zr71  1  0.01043906  0.40690243  0.23679637  1
  Zr  Zr72  1  0.19435443  0.00076009  -0.00421980  1
  Zr  Zr73  1  0.70636851  0.50140999  0.62062783  1
  Zr  Zr74  1  0.10853399  0.49420062  0.36714093  1
  Zr  Zr75  1  0.19099970  0.19197539  0.00349087  1
  Zr  Zr76  1  0.08761122  0.30251351  0.87962235  1
  Zr  Zr77  1  -0.00798019  -0.02741199  0.26484918  1
  Zr  Zr78  1  0.81155634  0.81730426  0.26291525  1
  Zr  Zr79  1  0.39038136  -0.02535520  0.01566799  1
  Ta  Ta80  1  0.61133720  0.39381244  0.00564763  1
  Ta  Ta81  1  0.49319663  0.49340201  0.37947076  1
  Ta  Ta82  1  0.19735717  0.79179578  0.50801135  1
  Ta  Ta83  1  0.59844256  0.79969215  0.50001703  1
  Ta  Ta84  1  0.09185335  0.90228574  0.86869567  1
  Ta  Ta85  1  0.57972270  0.60091573  0.24532739  1
  Ta  Ta86  1  0.21049817  0.61103174  -0.00662993  1
  Ta  Ta87  1  -0.00510216  -0.00979779  0.49021766  1
  Ta  Ta88  1  -0.00388598  0.81553426  0.00010880  1
  Ta  Ta89  1  0.60023450  0.59865012  0.49938854  1
  Ta  Ta90  1  0.49481481  0.68908164  0.10457582  1
  Ta  Ta91  1  0.61310995  -0.01172168  0.74967155  1
  Ta  Ta92  1  0.49756284  0.68959908  0.89492957  1
  Ta  Ta93  1  -0.00475443  0.40086373  0.75648770  1
  Ta  Ta94  1  0.40514104  -0.00510139  0.74728397  1
  Ta  Ta95  1  0.40864521  0.20974574  0.49828382  1
  Ta  Ta96  1  0.58498708  0.40566977  0.24544306  1
  Ta  Ta97  1  0.69092854  0.71240263  0.89043940  1
  Ta  Ta98  1  0.30778989  0.70929770  0.86183359  1
  Ta  Ta99  1  0.19134411  0.41280260  0.50885006  1
  Ta  Ta100  1  0.69214607  0.11163226  0.14723840  1
  Ta  Ta101  1  0.89489889  0.91022523  0.87692594  1
  Ta  Ta102  1  0.00828032  0.78016900  0.24454920  1
  Ta  Ta103  1  0.50183787  0.49278456  0.61822643  1
  Ta  Ta104  1  0.80745460  0.18890139  0.75225946  1
  Ta  Ta105  1  0.30745854  0.51708281  0.37768438  1
  Ta  Ta106  1  0.80107515  0.60630054  0.49188771  1
  Ta  Ta107  1  0.19033168  -0.00464626  0.74531009  1
  Ta  Ta108  1  0.01709940  0.59154937  0.75271760  1
  Ta  Ta109  1  0.10117174  0.50715901  0.89067468  1
  Ta  Ta110  1  0.29577740  0.70192146  0.64953138  1
  Ta  Ta111  1  0.21996090  0.40458868  0.23219993  1
  Ta  Ta112  1  0.50736837  0.29930189  0.88973846  1
  Ta  Ta113  1  0.90454769  0.10377617  0.87884241  1
  Ta  Ta114  1  0.10757986  0.70549562  0.87026117  1
  Ta  Ta115  1  0.48695729  0.68254817  0.38130959  1
  Ta  Ta116  1  0.69914550  0.70902151  0.61656286  1
  Ta  Ta117  1  0.30878422  0.30034732  0.63317782  1
  Ta  Ta118  1  0.29629721  0.89856151  0.85842120  1
  Ta  Ta119  1  0.80117748  0.39464658  0.02241726  1
  Ti  Ti120  1  0.69603711  0.29839661  0.13956534  1
  Ti  Ti121  1  0.18966268  0.22118024  0.24891383  1
  Ti  Ti122  1  0.21298078  0.60579211  0.50651393  1
  Ti  Ti123  1  0.68457825  0.09956069  0.34863900  1
  Ti  Ti124  1  0.19534423  -0.00998225  0.25980399  1
  Ti  Ti125  1  0.11174981  0.69507626  0.63659512  1
  Ti  Ti126  1  0.50524393  0.49856409  0.89544077  1
  Ti  Ti127  1  0.59452275  0.79571649  0.75097323  1
  Ti  Ti128  1  0.60238823  0.20104317  0.00920825  1
  Ti  Ti129  1  0.50377177  0.50161089  0.10643392  1
  Ti  Ti130  1  0.91639215  0.70140653  0.38157389  1
  Ti  Ti131  1  0.09036016  0.89529160  0.62233597  1
  Ti  Ti132  1  0.88440905  0.90667841  0.61572810  1
  Ti  Ti133  1  0.01122772  0.61920752  0.00317629  1
  Ti  Ti134  1  0.79456541  0.20130464  0.48907574  1
  Ti  Ti135  1  0.32264262  0.49334525  0.11016524  1
  Ti  Ti136  1  0.41369070  0.60040611  0.75512589  1
  Ti  Ti137  1  0.91203137  0.31589526  0.37321633  1
  Ti  Ti138  1  0.59944334  -0.00960816  0.49239504  1
  Ti  Ti139  1  0.29119948  0.88424739  0.38227829  1
  Ti  Ti140  1  0.09173171  0.30148307  0.11248639  1
  Ti  Ti141  1  0.90489891  0.72050623  0.11752616  1
  Ti  Ti142  1  0.00145792  0.00929147  0.00153824  1
  Ti  Ti143  1  0.59614397  0.80674182  0.00830111  1
  Ti  Ti144  1  0.39862309  0.58265578  0.24322164  1
  Ti  Ti145  1  0.39815451  0.59848177  0.50603935  1
  Ti  Ti146  1  -0.00815186  0.22048683  0.25000795  1
  Ti  Ti147  1  0.70318473  0.08082404  0.62759504  1
  Ti  Ti148  1  0.09358784  0.89881379  0.12486374  1
  Ti  Ti149  1  0.70114149  0.90159710  0.88690129  1
  Ti  Ti150  1  0.51056135  0.89670727  0.62698608  1
  Ti  Ti151  1  0.30332322  0.69678845  0.11310408  1
  Ti  Ti152  1  0.91335890  0.51027298  0.37449392  1
  Ti  Ti153  1  0.49828253  0.29532530  0.36565757  1
  Ti  Ti154  1  0.79252316  0.20170950  0.01490623  1
  Ti  Ti155  1  0.39313748  0.40125524  0.50659771  1
  Ti  Ti156  1  0.69133360  0.50325453  0.12910282  1
  Ti  Ti157  1  0.08958911  0.10067928  0.62695508  1
  Ti  Ti158  1  0.91369541  0.50486471  0.11399493  1
  Ti  Ti159  1  0.39208586  0.79016214  0.49923668  1
  Mo  Mo160  1  0.69995474  0.29855140  0.89170003  1
  Mo  Mo161  1  0.79175491  0.00103780  0.26432865  1
  Mo  Mo162  1  0.10342339  0.88972451  0.38413627  1
  Mo  Mo163  1  0.19976550  0.60496105  0.76531509  1
  Mo  Mo164  1  -0.00979495  0.20591790  0.74563624  1
  Mo  Mo165  1  0.39481787  0.59425595  -0.00242134  1
  Mo  Mo166  1  0.19277470  0.80412117  0.75014300  1
  Mo  Mo167  1  0.69154384  0.90115683  0.61820448  1
  Mo  Mo168  1  0.09577549  0.70523353  0.11555191  1
  Mo  Mo169  1  0.60341851  0.59818158  0.00363712  1
  Mo  Mo170  1  0.30655998  0.69735200  0.38134614  1
  Mo  Mo171  1  0.79881073  0.80774937  -0.00174325  1
  Mo  Mo172  1  0.59112856  0.20300299  0.24717723  1
  Mo  Mo173  1  0.29486964  0.89224971  0.13216006  1
  Mo  Mo174  1  0.40951833  0.79681935  0.75289071  1
  Mo  Mo175  1  0.40595892  0.41395226  0.24845237  1
  Mo  Mo176  1  0.90294229  0.29441648  0.11360983  1
  Mo  Mo177  1  0.01117593  0.80451274  0.51068947  1
  Mo  Mo178  1  0.29753677  0.08182515  0.85591646  1
  Mo  Mo179  1  0.41027135  0.39020427  -0.00952093  1
  Mo  Mo180  1  0.91087927  0.90083241  0.12200706  1
  Mo  Mo181  1  0.19344240  0.19626444  0.73869046  1
  Mo  Mo182  1  0.79962461  0.20992829  0.24642298  1
  Mo  Mo183  1  0.10370235  0.30763232  0.36695751  1
  Mo  Mo184  1  0.01140866  0.39944662  0.49089222  1
  Mo  Mo185  1  0.39373498  0.79018189  0.00035105  1
  Mo  Mo186  1  0.69507722  0.90538349  0.36770834  1
  Mo  Mo187  1  0.29315128  0.30393050  0.12732048  1
  Mo  Mo188  1  0.59004832  0.79104555  0.24044704  1
  Mo  Mo189  1  0.10466381  0.50484071  0.62853384  1
  Mo  Mo190  1  0.49787976  0.10089469  0.37860113  1
  Mo  Mo191  1  -0.00365549  0.60657138  0.24165494  1
  Mo  Mo192  1  0.49635447  0.30090133  0.61701050  1
  Mo  Mo193  1  0.50517334  0.87786245  0.12642794  1
  Mo  Mo194  1  0.40355228  0.19740715  0.74831464  1
  Mo  Mo195  1  0.50062065  0.09724664  0.12367117  1
  Mo  Mo196  1  -0.01398442  0.19244109  0.00879749  1
  Mo  Mo197  1  0.90989791  0.89064923  0.38563002  1
  Mo  Mo198  1  0.00029636  0.40323632  0.01197893  1
  Mo  Mo199  1  0.79282558  0.00419374  0.75461071  1
