# generated using pymatgen
data_HfZrTaTiMo
_symmetry_space_group_name_H-M   'P 1'
_cell_length_a   15.21251583
_cell_length_b   15.20805605
_cell_length_c   16.86320032
_cell_angle_alpha   89.95567884
_cell_angle_beta   90.00033005
_cell_angle_gamma   90.02057945
_symmetry_Int_Tables_number   1
_chemical_formula_structural   HfZrTaTiMo
_chemical_formula_sum   'Hf40 Zr40 Ta40 Ti40 Mo40'
_cell_volume   3901.34708004
_cell_formula_units_Z   40
loop_
 _symmetry_equiv_pos_site_id
 _symmetry_equiv_pos_as_xyz
  1  'x, y, z'
loop_
 _atom_site_type_symbol
 _atom_site_label
 _atom_site_symmetry_multiplicity
 _atom_site_fract_x
 _atom_site_fract_y
 _atom_site_fract_z
 _atom_site_occupancy
  Hf  Hf0  1  0.70968782  0.89190321  0.87622784  1
  Hf  Hf1  1  0.61820528  0.59264167  0.26088575  1
  Hf  Hf2  1  0.10759042  0.72312491  0.87279879  1
  Hf  Hf3  1  0.19027191  0.20227769  0.24317920  1
  Hf  Hf4  1  0.50413349  0.09611927  0.62107183  1
  Hf  Hf5  1  0.28612791  0.10735731  0.60957606  1
  Hf  Hf6  1  0.39981424  0.39877755  0.00333814  1
  Hf  Hf7  1  0.59522603  -0.01125936  -0.00590051  1
  Hf  Hf8  1  -0.01630593  0.41083587  0.00211257  1
  Hf  Hf9  1  0.20122837  0.80597729  0.24427980  1
  Hf  Hf10  1  0.80342601  0.79719034  0.23599915  1
  Hf  Hf11  1  0.40995279  -0.00257806  0.49906203  1
  Hf  Hf12  1  0.69608413  0.07652443  0.37761940  1
  Hf  Hf13  1  0.09670126  0.49577385  0.63914772  1
  Hf  Hf14  1  0.28642405  0.09059907  0.88239059  1
  Hf  Hf15  1  0.09847312  0.89930294  0.38535673  1
  Hf  Hf16  1  0.20121482  0.59736099  0.50946570  1
  Hf  Hf17  1  0.88921765  0.49438198  0.64572419  1
  Hf  Hf18  1  0.29995311  0.88903958  0.63111364  1
  Hf  Hf19  1  0.50111539  0.08770283  0.11332317  1
  Hf  Hf20  1  0.68744325  0.50904273  0.86488921  1
  Hf  Hf21  1  0.69104347  0.30978571  0.13858971  1
  Hf  Hf22  1  0.80073928  0.59603625  -0.00473421  1
  Hf  Hf23  1  0.18235526  0.19605791  0.01276810  1
  Hf  Hf24  1  0.60905322  0.40081112  0.48748675  1
  Hf  Hf25  1  0.38697105  0.38639658  0.75217101  1
  Hf  Hf26  1  0.88901242  0.30703221  0.13856545  1
  Hf  Hf27  1  0.70707993  0.08690682  0.62086639  1
  Hf  Hf28  1  -0.01277498  0.80163121  0.50395253  1
  Hf  Hf29  1  0.91450037  0.90422775  0.88944004  1
  Hf  Hf30  1  0.82060101  0.18844673  0.49436938  1
  Hf  Hf31  1  0.39818171  0.19557545  0.75607497  1
  Hf  Hf32  1  0.80805493  0.18882313  0.75136875  1
  Hf  Hf33  1  0.29519309  0.08135248  0.11959256  1
  Hf  Hf34  1  0.19173494  0.40705448  0.01331362  1
  Hf  Hf35  1  0.70235094  0.10418636  0.88536015  1
  Hf  Hf36  1  0.89638880  0.69389766  0.37131034  1
  Hf  Hf37  1  0.29771017  0.49720038  0.87589366  1
  Hf  Hf38  1  0.70226484  0.30882466  0.62972770  1
  Hf  Hf39  1  0.09563216  0.92270031  0.60573520  1
  Zr  Zr40  1  0.39352002  0.59670870  0.49038227  1
  Zr  Zr41  1  0.31891243  0.70403432  0.87082598  1
  Zr  Zr42  1  0.92059416  0.10409061  0.11030716  1
  Zr  Zr43  1  0.91330419  0.29111862  0.63006752  1
  Zr  Zr44  1  0.40328351  0.61051196  0.26682306  1
  Zr  Zr45  1  0.08462438  0.12342100  0.60313026  1
  Zr  Zr46  1  0.59658941  0.19906288  0.75119944  1
  Zr  Zr47  1  0.39753741  0.19507277  0.26339440  1
  Zr  Zr48  1  0.70010145  0.11042046  0.11644249  1
  Zr  Zr49  1  0.59852677  0.77798598  -0.00320640  1
  Zr  Zr50  1  0.09811626  0.11766775  0.39221444  1
  Zr  Zr51  1  0.00178271  0.59721796  0.50740200  1
  Zr  Zr52  1  0.71481619  0.29789234  0.35900357  1
  Zr  Zr53  1  0.51065567  0.69964907  0.62556148  1
  Zr  Zr54  1  0.90772156  0.30808570  0.35854122  1
  Zr  Zr55  1  0.39027779  0.39416173  0.47943628  1
  Zr  Zr56  1  0.49831477  0.69338426  0.12841051  1
  Zr  Zr57  1  0.41051212  0.79306556  0.48988449  1
  Zr  Zr58  1  0.49172426  0.87494961  0.86336886  1
  Zr  Zr59  1  0.20157391  0.61638115  0.01102993  1
  Zr  Zr60  1  0.20981610  0.60779115  0.74072509  1
  Zr  Zr61  1  0.00127590  -0.00138968  0.25795471  1
  Zr  Zr62  1  0.20174810  0.79085894  0.50113202  1
  Zr  Zr63  1  0.09741187  0.91541151  0.11402776  1
  Zr  Zr64  1  0.39929435  0.00031760  0.74481958  1
  Zr  Zr65  1  0.59516729  0.19603509  0.48906491  1
  Zr  Zr66  1  0.58845059  0.79940697  0.25627374  1
  Zr  Zr67  1  0.50001361  0.48857248  0.61218052  1
  Zr  Zr68  1  0.00762252  0.81996758  0.74041044  1
  Zr  Zr69  1  0.30349996  0.30387336  0.12942370  1
  Zr  Zr70  1  0.09006676  0.51081436  0.87210002  1
  Zr  Zr71  1  0.39948360  0.39984445  0.26673264  1
  Zr  Zr72  1  0.89320080  0.30472597  0.86979429  1
  Zr  Zr73  1  0.59061084  0.18411262  0.26074729  1
  Zr  Zr74  1  0.28815364  0.88932183  0.85275709  1
  Zr  Zr75  1  0.81300651  0.79739580  0.01410488  1
  Zr  Zr76  1  0.51033396  0.48764202  0.13482869  1
  Zr  Zr77  1  0.41003584  -0.00657633  0.25843538  1
  Zr  Zr78  1  0.19889267  0.21817121  0.75349162  1
  Zr  Zr79  1  0.80019424  0.00058320  0.23771729  1
  Ta  Ta80  1  0.49777746  0.09185756  0.88446688  1
  Ta  Ta81  1  0.41580991  0.58652556  0.74613941  1
  Ta  Ta82  1  0.17593251  0.00946509  0.74503208  1
  Ta  Ta83  1  -0.00103025  0.58976914  0.24554483  1
  Ta  Ta84  1  0.20238042  0.00656973  0.25868351  1
  Ta  Ta85  1  0.70445919  0.68026293  0.12794782  1
  Ta  Ta86  1  0.90179638  0.70061425  0.86919029  1
  Ta  Ta87  1  0.52009857  0.66879470  0.86886915  1
  Ta  Ta88  1  0.72597213  0.50669395  0.37888247  1
  Ta  Ta89  1  0.80888393  0.80171521  0.75044306  1
  Ta  Ta90  1  0.78841175  0.40802426  0.00473367  1
  Ta  Ta91  1  0.41400777  0.59768034  0.00132241  1
  Ta  Ta92  1  0.30095004  0.51517765  0.13514149  1
  Ta  Ta93  1  0.79660295  0.21752931  -0.00162321  1
  Ta  Ta94  1  0.00109163  0.79516251  0.24518578  1
  Ta  Ta95  1  0.19315233  0.40387371  0.49320844  1
  Ta  Ta96  1  0.68400279  0.89794358  0.12483393  1
  Ta  Ta97  1  0.81113203  0.40408224  0.50115131  1
  Ta  Ta98  1  0.80163222  0.59826823  0.50963274  1
  Ta  Ta99  1  0.89425337  0.70377059  0.63186985  1
  Ta  Ta100  1  0.22028260  0.81811138  0.01235184  1
  Ta  Ta101  1  -0.02761745  0.01573726  0.49029451  1
  Ta  Ta102  1  0.61687384  0.77854880  0.75527394  1
  Ta  Ta103  1  -0.01185839  0.01347804  0.74766474  1
  Ta  Ta104  1  0.70079869  0.88582852  0.63365685  1
  Ta  Ta105  1  0.61117943  0.80941711  0.49634406  1
  Ta  Ta106  1  0.60727263  -0.00698232  0.75752212  1
  Ta  Ta107  1  0.60188146  0.40082357  -0.00429334  1
  Ta  Ta108  1  0.58532279  0.40496310  0.75337837  1
  Ta  Ta109  1  0.50119367  0.29549694  0.88420027  1
  Ta  Ta110  1  0.10158279  0.68418950  0.36402710  1
  Ta  Ta111  1  0.00700389  0.19522341  0.75582962  1
  Ta  Ta112  1  0.38702469  -0.03048234  -0.00366151  1
  Ta  Ta113  1  0.00320278  0.39823346  0.50255123  1
  Ta  Ta114  1  0.40001669  0.18965883  -0.00416108  1
  Ta  Ta115  1  0.00933777  0.39063317  0.75670019  1
  Ta  Ta116  1  0.08549002  0.10316358  0.88403519  1
  Ta  Ta117  1  0.29840619  0.90462866  0.37848365  1
  Ta  Ta118  1  0.61140491  0.60887068  0.49199777  1
  Ta  Ta119  1  0.10410366  0.91596587  0.88755831  1
  Ti  Ti120  1  0.69761563  0.30739573  0.86984900  1
  Ti  Ti121  1  0.91609869  0.69467683  0.12710308  1
  Ti  Ti122  1  0.91553868  0.50025610  0.37499003  1
  Ti  Ti123  1  0.90247812  0.10242598  0.89367892  1
  Ti  Ti124  1  0.48091889  0.88637501  0.12504246  1
  Ti  Ti125  1  0.80904604  0.43808351  0.24088373  1
  Ti  Ti126  1  0.70339546  0.89064530  0.36873462  1
  Ti  Ti127  1  0.69553972  0.50662774  0.63149690  1
  Ti  Ti128  1  0.09683928  0.31935227  0.36828497  1
  Ti  Ti129  1  0.30877617  0.71173631  0.13273571  1
  Ti  Ti130  1  0.50405633  0.28576892  0.11618588  1
  Ti  Ti131  1  0.80636230  -0.00738940  0.74856656  1
  Ti  Ti132  1  0.26539905  0.51073453  0.35889804  1
  Ti  Ti133  1  0.51074844  0.89535603  0.63540821  1
  Ti  Ti134  1  0.39809687  0.20562166  0.48755978  1
  Ti  Ti135  1  0.08799857  0.51412074  0.12364781  1
  Ti  Ti136  1  0.29548353  0.09836494  0.38840776  1
  Ti  Ti137  1  0.78324742  0.61615543  0.74875428  1
  Ti  Ti138  1  -0.00548398  0.19480108  0.25319600  1
  Ti  Ti139  1  0.89084823  0.90045998  0.37389649  1
  Ti  Ti140  1  0.10673701  0.71072795  0.63296764  1
  Ti  Ti141  1  0.18075547  0.41513306  0.23912779  1
  Ti  Ti142  1  0.79345883  -0.02076439  0.50200130  1
  Ti  Ti143  1  0.11851543  0.30733486  0.62097877  1
  Ti  Ti144  1  -0.00178140  0.61614940  0.00013418  1
  Ti  Ti145  1  0.08081779  0.29893185  0.12785067  1
  Ti  Ti146  1  0.29331972  0.29732915  0.88853096  1
  Ti  Ti147  1  0.28325305  0.29928764  0.36875797  1
  Ti  Ti148  1  0.79584069  0.79208509  0.50631482  1
  Ti  Ti149  1  -0.00502119  0.61234137  0.75005843  1
  Ti  Ti150  1  0.59825491  0.39814422  0.26773318  1
  Ti  Ti151  1  0.70455505  0.70166143  0.37613803  1
  Ti  Ti152  1  0.09785976  0.30357672  0.88378935  1
  Ti  Ti153  1  0.51145878  0.50816816  0.37982537  1
  Ti  Ti154  1  0.88819635  0.50092166  0.85437052  1
  Ti  Ti155  1  0.49114394  0.29667403  0.61941674  1
  Ti  Ti156  1  0.29391651  0.70515071  0.36583697  1
  Ti  Ti157  1  0.80417126  -0.00297595  0.01329200  1
  Ti  Ti158  1  0.51503027  0.91092592  0.37631329  1
  Ti  Ti159  1  0.29525943  0.48153391  0.62903457  1
  Mo  Mo160  1  0.39638741  0.80284189  0.26897678  1
  Mo  Mo161  1  0.19629034  0.39615571  0.75660841  1
  Mo  Mo162  1  0.00478643  0.40552334  0.23802844  1
  Mo  Mo163  1  0.30802882  0.89678699  0.13185580  1
  Mo  Mo164  1  0.10066209  0.70344634  0.12874598  1
  Mo  Mo165  1  -0.00638552  0.21372976  -0.00188159  1
  Mo  Mo166  1  0.80569567  0.19094910  0.25217736  1
  Mo  Mo167  1  0.60469834  -0.01710968  0.50826431  1
  Mo  Mo168  1  0.01381730  0.79146875  0.00304140  1
  Mo  Mo169  1  0.90119779  0.89410671  0.11643748  1
  Mo  Mo170  1  0.51179722  0.70313215  0.38405030  1
  Mo  Mo171  1  0.20236838  0.00310647  -0.00238288  1
  Mo  Mo172  1  0.30753108  0.69206020  0.63485122  1
  Mo  Mo173  1  0.00098538  0.21944056  0.49109352  1
  Mo  Mo174  1  0.60129117  0.59150495  0.74094695  1
  Mo  Mo175  1  0.88833616  0.90892785  0.61968801  1
  Mo  Mo176  1  0.09476431  0.49966447  0.37047069  1
  Mo  Mo177  1  0.39843207  0.78397130  -0.00087266  1
  Mo  Mo178  1  0.30223401  0.30284143  0.61513921  1
  Mo  Mo179  1  0.20354221  0.00403202  0.49129137  1
  Mo  Mo180  1  0.59639204  0.20831394  -0.00683098  1
  Mo  Mo181  1  0.60612510  0.58354140  0.00464874  1
  Mo  Mo182  1  0.20906341  0.22321169  0.49162409  1
  Mo  Mo183  1  0.00218627  0.00579351  0.00030392  1
  Mo  Mo184  1  0.10306093  0.10839579  0.13404894  1
  Mo  Mo185  1  0.70236355  0.49730291  0.12647072  1
  Mo  Mo186  1  0.60083186  -0.01041113  0.24274802  1
  Mo  Mo187  1  0.40757512  0.77973150  0.73688581  1
  Mo  Mo188  1  0.19357104  0.60625785  0.23601150  1
  Mo  Mo189  1  0.89677767  0.51103998  0.11960499  1
  Mo  Mo190  1  0.49792727  0.09349241  0.38778454  1
  Mo  Mo191  1  0.49407155  0.49048194  0.87594423  1
  Mo  Mo192  1  0.89114897  0.10002774  0.36826140  1
  Mo  Mo193  1  0.70677139  0.69624259  0.61986828  1
  Mo  Mo194  1  0.71112526  0.69885849  0.87325392  1
  Mo  Mo195  1  0.19601930  0.81066745  0.73773775  1
  Mo  Mo196  1  0.78987151  0.40261513  0.74853318  1
  Mo  Mo197  1  0.89948345  0.09154180  0.62473761  1
  Mo  Mo198  1  0.49820796  0.30289279  0.37740560  1
  Mo  Mo199  1  0.80915494  0.60942274  0.24977137  1
