# generated using pymatgen
data_HfZrTaTiMo
_symmetry_space_group_name_H-M   'P 1'
_cell_length_a   15.16543513
_cell_length_b   15.18865979
_cell_length_c   16.81103638
_cell_angle_alpha   90.03395867
_cell_angle_beta   90.03140195
_cell_angle_gamma   90.01760326
_symmetry_Int_Tables_number   1
_chemical_formula_structural   HfZrTaTiMo
_chemical_formula_sum   'Hf40 Zr40 Ta40 Ti40 Mo40'
_cell_volume   3872.29696757
_cell_formula_units_Z   40
loop_
 _symmetry_equiv_pos_site_id
 _symmetry_equiv_pos_as_xyz
  1  'x, y, z'
loop_
 _atom_site_type_symbol
 _atom_site_label
 _atom_site_symmetry_multiplicity
 _atom_site_fract_x
 _atom_site_fract_y
 _atom_site_fract_z
 _atom_site_occupancy
  Hf  Hf0  1  0.30352255  0.70380250  0.87304721  1
  Hf  Hf1  1  0.01548769  0.01133680  0.49531835  1
  Hf  Hf2  1  0.90839038  0.08826661  0.13736963  1
  Hf  Hf3  1  0.01133419  -0.00381663  0.27069220  1
  Hf  Hf4  1  0.39330248  0.42495933  0.75210286  1
  Hf  Hf5  1  0.61569308  -0.01164578  0.75471778  1
  Hf  Hf6  1  0.90270202  0.29127227  0.87183723  1
  Hf  Hf7  1  0.48443687  0.29835733  0.88972807  1
  Hf  Hf8  1  0.20740095  -0.00109797  0.49960662  1
  Hf  Hf9  1  0.70742410  0.48073173  0.61777573  1
  Hf  Hf10  1  0.69833585  0.67230132  0.39366856  1
  Hf  Hf11  1  0.00277924  0.62512177  0.01531654  1
  Hf  Hf12  1  0.79186404  0.61105847  0.02217046  1
  Hf  Hf13  1  0.59483880  0.38748704  0.23535587  1
  Hf  Hf14  1  0.79099955  0.19067543  0.74734279  1
  Hf  Hf15  1  0.80136335  0.60389623  0.74223081  1
  Hf  Hf16  1  0.60678074  0.59454575  0.24082585  1
  Hf  Hf17  1  0.68242514  0.50445565  0.88345697  1
  Hf  Hf18  1  0.58404222  0.40044913  0.01571890  1
  Hf  Hf19  1  0.80338618  0.59248546  0.23145306  1
  Hf  Hf20  1  0.50629566  0.50385125  0.38186408  1
  Hf  Hf21  1  0.70663121  0.08364287  0.61810236  1
  Hf  Hf22  1  0.20409927  0.02010655  0.26519092  1
  Hf  Hf23  1  0.11140836  0.49428240  0.12128843  1
  Hf  Hf24  1  0.18633210  0.80015012  0.00543707  1
  Hf  Hf25  1  0.61398909  0.78649286  -0.00900340  1
  Hf  Hf26  1  0.11068046  0.11494800  0.12970756  1
  Hf  Hf27  1  0.79613557  0.81001786  0.73751114  1
  Hf  Hf28  1  0.71152268  0.08180169  0.87572362  1
  Hf  Hf29  1  0.60045630  0.78736549  0.75521582  1
  Hf  Hf30  1  0.79655069  0.40517644  0.76189420  1
  Hf  Hf31  1  0.91429126  0.88838030  0.38621985  1
  Hf  Hf32  1  0.49008089  0.49507845  0.60864312  1
  Hf  Hf33  1  0.59162251  0.58605934  0.74601382  1
  Hf  Hf34  1  0.10450438  0.68969431  0.86407966  1
  Hf  Hf35  1  0.01606376  0.57665315  0.74286670  1
  Hf  Hf36  1  0.60309285  -0.01737151  0.26800514  1
  Hf  Hf37  1  0.19762023  0.81480801  0.24091912  1
  Hf  Hf38  1  0.60159919  -0.00754934  0.47884017  1
  Hf  Hf39  1  0.41199936  0.21434810  0.73567839  1
  Zr  Zr40  1  0.38490521  0.39860968  0.25675854  1
  Zr  Zr41  1  0.70313475  0.08636448  0.13909657  1
  Zr  Zr42  1  0.60861962  -0.00878601  -0.00457255  1
  Zr  Zr43  1  0.20838932  0.60914546  0.24199909  1
  Zr  Zr44  1  0.91147305  0.69743983  0.62000877  1
  Zr  Zr45  1  0.90493089  0.51262393  0.88695085  1
  Zr  Zr46  1  0.39575594  0.81192657  0.49420387  1
  Zr  Zr47  1  0.39888573  0.80288888  0.25056020  1
  Zr  Zr48  1  0.79312221  0.39618132  0.01354274  1
  Zr  Zr49  1  0.70551485  0.11951291  0.36113120  1
  Zr  Zr50  1  0.59102911  0.79174778  0.48360180  1
  Zr  Zr51  1  0.10297640  0.12053363  0.85134569  1
  Zr  Zr52  1  0.00480464  0.60022446  0.23505415  1
  Zr  Zr53  1  0.31278973  0.11367024  0.87088562  1
  Zr  Zr54  1  -0.00300665  -0.00592464  -0.00840349  1
  Zr  Zr55  1  0.90939566  0.68051437  0.38686250  1
  Zr  Zr56  1  0.30917757  0.13143829  0.38618860  1
  Zr  Zr57  1  0.79722438  0.79096651  0.26476940  1
  Zr  Zr58  1  0.09724464  0.89811431  0.85663357  1
  Zr  Zr59  1  0.60029662  0.37838140  0.49835308  1
  Zr  Zr60  1  0.30704537  0.89796917  0.63486603  1
  Zr  Zr61  1  0.10118923  0.89924340  0.63713324  1
  Zr  Zr62  1  0.20815700  0.01757724  -0.01045883  1
  Zr  Zr63  1  0.28389087  0.30806723  0.86333272  1
  Zr  Zr64  1  0.41268276  0.00615318  0.75309814  1
  Zr  Zr65  1  0.40283626  0.00795591  0.26541248  1
  Zr  Zr66  1  0.39759882  0.80344497  -0.00036161  1
  Zr  Zr67  1  0.80240813  0.18623406  0.00795892  1
  Zr  Zr68  1  0.91208469  0.11133703  0.61680112  1
  Zr  Zr69  1  0.68606280  0.28494103  0.88298837  1
  Zr  Zr70  1  0.18197617  0.20509547  0.50666950  1
  Zr  Zr71  1  0.58670883  0.37809152  0.74866652  1
  Zr  Zr72  1  0.09282906  0.90983702  0.12079287  1
  Zr  Zr73  1  0.17753029  0.41440250  0.49157361  1
  Zr  Zr74  1  0.10942732  0.70405204  0.37862678  1
  Zr  Zr75  1  0.01368640  0.39270826  -0.00327471  1
  Zr  Zr76  1  0.29155589  0.32201755  0.62371811  1
  Zr  Zr77  1  0.50993505  0.89097764  0.12280489  1
  Zr  Zr78  1  0.48453738  0.08649452  0.11424090  1
  Zr  Zr79  1  0.71699695  0.47449045  0.37736605  1
  Ta  Ta80  1  0.02514583  0.58917482  0.51137166  1
  Ta  Ta81  1  0.48685628  0.50077021  0.12863478  1
  Ta  Ta82  1  0.41280272  0.01462946  0.49604601  1
  Ta  Ta83  1  0.30527941  0.92813958  0.11842765  1
  Ta  Ta84  1  0.40277155  0.59198777  0.00197989  1
  Ta  Ta85  1  0.07693151  0.30292362  0.64040809  1
  Ta  Ta86  1  0.69607595  0.68881867  0.60876998  1
  Ta  Ta87  1  -0.02228603  0.40436959  0.50541627  1
  Ta  Ta88  1  0.90409566  0.11034263  0.37789042  1
  Ta  Ta89  1  0.39980108  0.61215172  0.49683719  1
  Ta  Ta90  1  0.00245166  0.79458559  0.24579465  1
  Ta  Ta91  1  0.80342935  -0.00060631  0.48433988  1
  Ta  Ta92  1  0.39149811  0.20713092  0.23259032  1
  Ta  Ta93  1  0.81466261  0.80158799  -0.00107770  1
  Ta  Ta94  1  0.01504494  0.79975148  0.51179429  1
  Ta  Ta95  1  0.00609726  0.19507005  -0.00203182  1
  Ta  Ta96  1  0.49690100  0.70196191  0.62316108  1
  Ta  Ta97  1  0.87458344  0.29954099  0.36421083  1
  Ta  Ta98  1  0.18298108  0.42538837  0.74598437  1
  Ta  Ta99  1  0.51009508  0.90289183  0.62372662  1
  Ta  Ta100  1  0.29222272  0.51509521  0.38208226  1
  Ta  Ta101  1  0.59667112  0.78834597  0.27041919  1
  Ta  Ta102  1  0.90548244  0.09407426  0.86558956  1
  Ta  Ta103  1  0.49265248  0.28285088  0.36927340  1
  Ta  Ta104  1  0.91548068  0.48426348  0.36439995  1
  Ta  Ta105  1  0.88986678  0.90170155  0.86364575  1
  Ta  Ta106  1  0.40429224  0.60322097  0.25207174  1
  Ta  Ta107  1  0.00407694  0.20429885  0.26186499  1
  Ta  Ta108  1  0.19229826  0.22719622  0.00141168  1
  Ta  Ta109  1  0.59133365  0.18813115  0.49309281  1
  Ta  Ta110  1  0.82069098  0.57192603  0.50915881  1
  Ta  Ta111  1  0.88313443  0.31183947  0.63207591  1
  Ta  Ta112  1  0.18653535  0.40648345  0.26908673  1
  Ta  Ta113  1  0.79515433  0.38751969  0.22910009  1
  Ta  Ta114  1  0.51253076  0.10295370  0.62441836  1
  Ta  Ta115  1  0.80228369  0.79604997  0.50085411  1
  Ta  Ta116  1  0.71174859  0.88204302  0.13271761  1
  Ta  Ta117  1  0.49754657  0.89673695  0.87903998  1
  Ta  Ta118  1  0.50195660  0.69455733  0.12463446  1
  Ta  Ta119  1  0.90917182  0.28732379  0.13095914  1
  Ti  Ti120  1  0.90643324  0.70958212  0.86867007  1
  Ti  Ti121  1  0.09594382  0.31311277  0.85505368  1
  Ti  Ti122  1  0.67949746  0.27646793  0.63046299  1
  Ti  Ti123  1  0.50808843  0.10346338  0.88512307  1
  Ti  Ti124  1  -0.01066045  0.00514956  0.73987676  1
  Ti  Ti125  1  0.29389220  0.90175479  0.37812294  1
  Ti  Ti126  1  0.59650728  0.59615548  0.01358561  1
  Ti  Ti127  1  0.79035386  0.21268499  0.50016595  1
  Ti  Ti128  1  0.40564863  0.79928094  0.75209121  1
  Ti  Ti129  1  0.38141533  0.20091012  0.02092095  1
  Ti  Ti130  1  0.20690479  0.01056199  0.74424170  1
  Ti  Ti131  1  -0.00966741  0.21737717  0.49210598  1
  Ti  Ti132  1  0.40624779  0.21130503  0.51235114  1
  Ti  Ti133  1  0.30457598  0.70112755  0.11947679  1
  Ti  Ti134  1  0.90828850  0.48917929  0.12172066  1
  Ti  Ti135  1  0.13112771  0.68917119  0.63747716  1
  Ti  Ti136  1  0.30228000  0.10600019  0.62346219  1
  Ti  Ti137  1  0.30618015  0.70492447  0.37382241  1
  Ti  Ti138  1  0.89983101  0.89412119  0.13231969  1
  Ti  Ti139  1  0.38056049  0.39619944  0.00835153  1
  Ti  Ti140  1  0.38888625  0.39785180  0.48595401  1
  Ti  Ti141  1  0.89489811  0.90776123  0.61401979  1
  Ti  Ti142  1  0.00002035  0.79469942  0.74020412  1
  Ti  Ti143  1  0.71454969  0.69789824  0.87299656  1
  Ti  Ti144  1  0.20333104  0.79163121  0.50670720  1
  Ti  Ti145  1  0.07642139  0.31597685  0.37207665  1
  Ti  Ti146  1  0.59533419  0.20108063  0.02050945  1
  Ti  Ti147  1  0.20484552  0.59979234  0.00628263  1
  Ti  Ti148  1  0.29982558  0.90295482  0.86607588  1
  Ti  Ti149  1  0.29289914  0.50776899  0.88102508  1
  Ti  Ti150  1  0.28589890  0.52663253  0.61440138  1
  Ti  Ti151  1  0.50390618  0.68133344  0.87839501  1
  Ti  Ti152  1  0.80706076  -0.01005365  0.26753048  1
  Ti  Ti153  1  0.69930284  0.89076676  0.61009847  1
  Ti  Ti154  1  0.58958413  0.19921454  0.23503253  1
  Ti  Ti155  1  0.20269658  0.22003282  0.26198904  1
  Ti  Ti156  1  0.10078878  0.30606112  0.13551516  1
  Ti  Ti157  1  0.80424790  -0.01498392  0.00314462  1
  Ti  Ti158  1  0.30025897  0.49598128  0.12558031  1
  Ti  Ti159  1  0.39602667  0.61023509  0.74546418  1
  Mo  Mo160  1  0.80314352  0.19862669  0.23969211  1
  Mo  Mo161  1  0.49314745  0.68860764  0.37121229  1
  Mo  Mo162  1  0.90455900  0.49234666  0.62946246  1
  Mo  Mo163  1  -0.00335270  0.39474447  0.24280892  1
  Mo  Mo164  1  0.50125841  0.10974003  0.37030705  1
  Mo  Mo165  1  0.27675263  0.30792058  0.12851049  1
  Mo  Mo166  1  0.89643286  0.72117776  0.12864672  1
  Mo  Mo167  1  0.69581088  0.28834368  0.12108727  1
  Mo  Mo168  1  0.70970014  0.89030726  0.37993663  1
  Mo  Mo169  1  0.48633059  0.50440341  0.88450009  1
  Mo  Mo170  1  0.09699090  0.11739410  0.37711570  1
  Mo  Mo171  1  0.10616378  0.70779212  0.12147431  1
  Mo  Mo172  1  -0.00672100  0.20383958  0.74761271  1
  Mo  Mo173  1  0.10966053  0.89712955  0.38457451  1
  Mo  Mo174  1  0.10360392  0.49434719  0.62169168  1
  Mo  Mo175  1  0.69018671  0.29486859  0.36365054  1
  Mo  Mo176  1  0.28938543  0.10957191  0.12613567  1
  Mo  Mo177  1  0.69114364  0.70911378  0.12803356  1
  Mo  Mo178  1  0.11051903  0.10541650  0.64195441  1
  Mo  Mo179  1  0.20498122  0.40804447  -0.00230151  1
  Mo  Mo180  1  0.70899111  0.88596919  0.87613208  1
  Mo  Mo181  1  0.39841265  0.00150235  -0.01454433  1
  Mo  Mo182  1  0.21726520  0.59749969  0.75236297  1
  Mo  Mo183  1  0.20868276  0.61285916  0.49825976  1
  Mo  Mo184  1  0.08991942  0.50853840  0.37177998  1
  Mo  Mo185  1  -0.00863000  0.80590116  -0.01040574  1
  Mo  Mo186  1  0.20128286  0.20811647  0.72879537  1
  Mo  Mo187  1  0.49083494  0.89947022  0.37400988  1
  Mo  Mo188  1  0.59113528  0.18225396  0.75536922  1
  Mo  Mo189  1  0.20835807  0.80166611  0.75434370  1
  Mo  Mo190  1  0.11163177  0.50084921  0.88697570  1
  Mo  Mo191  1  0.80949122  -0.00678953  0.74111616  1
  Mo  Mo192  1  0.49638065  0.29759137  0.61668272  1
  Mo  Mo193  1  -0.00687759  0.39941152  0.75749811  1
  Mo  Mo194  1  0.80277937  0.38117410  0.49992732  1
  Mo  Mo195  1  0.29716228  0.31314936  0.38167958  1
  Mo  Mo196  1  0.31047670  0.70359087  0.62977699  1
  Mo  Mo197  1  0.60116218  0.59228060  0.51032630  1
  Mo  Mo198  1  0.48351135  0.29736987  0.11846299  1
  Mo  Mo199  1  0.69646386  0.49622961  0.12191104  1
