# generated using pymatgen
data_HfZrTaTiMo
_symmetry_space_group_name_H-M   'P 1'
_cell_length_a   15.19850216
_cell_length_b   15.19905030
_cell_length_c   16.88148155
_cell_angle_alpha   90.03552199
_cell_angle_beta   89.97735382
_cell_angle_gamma   89.91930158
_symmetry_Int_Tables_number   1
_chemical_formula_structural   HfZrTaTiMo
_chemical_formula_sum   'Hf40 Zr40 Ta40 Ti40 Mo40'
_cell_volume   3899.66456235
_cell_formula_units_Z   40
loop_
 _symmetry_equiv_pos_site_id
 _symmetry_equiv_pos_as_xyz
  1  'x, y, z'
loop_
 _atom_site_type_symbol
 _atom_site_label
 _atom_site_symmetry_multiplicity
 _atom_site_fract_x
 _atom_site_fract_y
 _atom_site_fract_z
 _atom_site_occupancy
  Hf  Hf0  1  0.79130944  0.80873990  0.24794429  1
  Hf  Hf1  1  0.41030937  0.00226567  0.74515968  1
  Hf  Hf2  1  0.58237483  0.79876953  0.48711564  1
  Hf  Hf3  1  0.01408921  0.60184485  0.51910117  1
  Hf  Hf4  1  0.19276198  0.39065444  0.26265925  1
  Hf  Hf5  1  0.01530639  0.20730017  0.24754097  1
  Hf  Hf6  1  0.89081198  0.91166407  0.87679279  1
  Hf  Hf7  1  0.10797302  0.70410841  0.85418085  1
  Hf  Hf8  1  0.30287734  0.10407005  0.86650270  1
  Hf  Hf9  1  0.29393919  0.49278221  0.12705405  1
  Hf  Hf10  1  0.89252144  0.69997590  0.63452910  1
  Hf  Hf11  1  0.29830992  0.30804854  0.62119117  1
  Hf  Hf12  1  0.21079210  0.61346686  0.50631740  1
  Hf  Hf13  1  0.40019209  0.58578796  -0.00862868  1
  Hf  Hf14  1  0.20786662  0.20348808  -0.00308196  1
  Hf  Hf15  1  0.49698568  0.09554347  0.12646555  1
  Hf  Hf16  1  0.18862846  0.80589990  0.00202424  1
  Hf  Hf17  1  0.29798737  0.09076878  0.37724851  1
  Hf  Hf18  1  0.89784951  0.29318820  0.11540431  1
  Hf  Hf19  1  0.19028960  0.01716945  0.51510994  1
  Hf  Hf20  1  0.31084233  0.29794959  0.12717372  1
  Hf  Hf21  1  0.58892519  0.58325290  0.49001882  1
  Hf  Hf22  1  0.19990164  0.81456046  0.51839013  1
  Hf  Hf23  1  0.40223266  0.20145523  0.25790268  1
  Hf  Hf24  1  0.39904593  -0.01537903  0.50453873  1
  Hf  Hf25  1  0.49715259  0.46665994  0.11478124  1
  Hf  Hf26  1  0.31500488  0.31010732  0.86666641  1
  Hf  Hf27  1  0.28537810  0.90530699  0.87814288  1
  Hf  Hf28  1  0.71153343  0.70417081  0.38550335  1
  Hf  Hf29  1  0.51629941  0.48716225  0.63534056  1
  Hf  Hf30  1  0.18422495  0.20310156  0.75170872  1
  Hf  Hf31  1  0.00001430  0.00481290  0.25051780  1
  Hf  Hf32  1  0.59675484  0.19746519  0.00055831  1
  Hf  Hf33  1  -0.00761335  0.00867865  0.74208155  1
  Hf  Hf34  1  0.68903162  0.90468598  0.61693948  1
  Hf  Hf35  1  0.79037940  0.80937737  0.74512385  1
  Hf  Hf36  1  0.01680590  0.20257779  0.49558865  1
  Hf  Hf37  1  0.92244205  0.69094757  0.37385633  1
  Hf  Hf38  1  0.79135687  0.61953136  0.00131638  1
  Hf  Hf39  1  0.88864652  0.50396819  0.88004559  1
  Zr  Zr40  1  0.40276398  0.59429139  0.23987230  1
  Zr  Zr41  1  0.60915082  0.19777892  0.25077252  1
  Zr  Zr42  1  0.51156246  0.88251347  0.11297024  1
  Zr  Zr43  1  0.31098229  0.71083691  0.63962043  1
  Zr  Zr44  1  0.68040748  0.69410636  0.62409951  1
  Zr  Zr45  1  0.68731878  0.30508691  0.87118189  1
  Zr  Zr46  1  0.78548836  0.38810056  0.24241851  1
  Zr  Zr47  1  -0.00231563  0.37966527  0.76208393  1
  Zr  Zr48  1  0.43079671  0.60937027  0.75997822  1
  Zr  Zr49  1  -0.00966527  0.41341201  0.25240361  1
  Zr  Zr50  1  0.89706709  0.88916560  0.38660830  1
  Zr  Zr51  1  0.80809678  0.59200488  0.25371240  1
  Zr  Zr52  1  0.00310819  0.58607308  0.74322818  1
  Zr  Zr53  1  0.89838743  0.30087199  0.37590767  1
  Zr  Zr54  1  0.39842965  0.00869120  -0.00419073  1
  Zr  Zr55  1  0.40268533  0.80990604  0.76414240  1
  Zr  Zr56  1  0.71637486  0.09167696  0.12531148  1
  Zr  Zr57  1  0.18585303  0.40374834  0.48902109  1
  Zr  Zr58  1  0.29842232  0.90986546  0.11956388  1
  Zr  Zr59  1  0.41483881  0.20988551  0.73413893  1
  Zr  Zr60  1  0.90648069  0.70839112  0.12823830  1
  Zr  Zr61  1  0.19811923  0.60594987  0.00318840  1
  Zr  Zr62  1  0.89475868  0.30464610  0.62308199  1
  Zr  Zr63  1  0.50601667  0.45694487  0.87115646  1
  Zr  Zr64  1  0.19188341  0.62500909  0.23754956  1
  Zr  Zr65  1  0.30174631  0.51959863  0.37124258  1
  Zr  Zr66  1  0.29545608  0.51274996  0.85737143  1
  Zr  Zr67  1  0.51052726  0.68558381  0.10676625  1
  Zr  Zr68  1  0.40556693  -0.00896526  0.25618030  1
  Zr  Zr69  1  0.09914031  0.91621586  0.37662064  1
  Zr  Zr70  1  0.81189849  0.59104105  0.49845411  1
  Zr  Zr71  1  0.60081541  0.59749375  0.25942388  1
  Zr  Zr72  1  0.60928474  0.17973778  0.74447510  1
  Zr  Zr73  1  0.89776664  0.50037828  0.11316321  1
  Zr  Zr74  1  0.40840669  0.41440118  0.49377624  1
  Zr  Zr75  1  0.89687812  0.29264534  0.88718597  1
  Zr  Zr76  1  0.39498585  0.78892863  0.25173949  1
  Zr  Zr77  1  0.00907745  0.60849421  -0.00782834  1
  Zr  Zr78  1  0.90105501  0.71348327  0.86280307  1
  Zr  Zr79  1  0.30646512  0.50691451  0.64012495  1
  Ta  Ta80  1  0.90573712  0.09596461  0.38155244  1
  Ta  Ta81  1  -0.01072164  0.41310841  0.49780993  1
  Ta  Ta82  1  0.09534889  0.50143551  0.12665003  1
  Ta  Ta83  1  0.79929736  0.00348493  0.50065072  1
  Ta  Ta84  1  0.29319126  0.88767446  0.37519587  1
  Ta  Ta85  1  0.79934590  0.19587776  0.50021228  1
  Ta  Ta86  1  0.80105523  0.00309489  0.25875861  1
  Ta  Ta87  1  0.01487322  0.18983472  0.00486369  1
  Ta  Ta88  1  0.60844238  -0.01060462  0.25840577  1
  Ta  Ta89  1  0.79187845  0.39483137  0.50074002  1
  Ta  Ta90  1  0.08197501  0.52190035  0.37019194  1
  Ta  Ta91  1  0.49429636  0.88238152  0.62430516  1
  Ta  Ta92  1  0.17887636  0.01191025  0.00180244  1
  Ta  Ta93  1  0.01115438  0.39628066  -0.00673382  1
  Ta  Ta94  1  0.59137362  0.80260151  0.26832994  1
  Ta  Ta95  1  0.81189598  0.20000946  0.74978832  1
  Ta  Ta96  1  0.68838736  0.50658741  0.12055235  1
  Ta  Ta97  1  0.00191301  0.79921748  0.51691198  1
  Ta  Ta98  1  0.50501322  0.29936860  0.38982097  1
  Ta  Ta99  1  0.68760524  0.90174925  0.86637495  1
  Ta  Ta100  1  -0.00409505  0.81346664  0.00246449  1
  Ta  Ta101  1  0.90013627  0.10024108  0.88264423  1
  Ta  Ta102  1  0.90204086  0.10323708  0.61858099  1
  Ta  Ta103  1  0.19941838  0.40425127  -0.01094218  1
  Ta  Ta104  1  0.69757765  0.48104597  0.37736545  1
  Ta  Ta105  1  0.78785612  0.41342092  0.74940093  1
  Ta  Ta106  1  0.09202982  0.09777289  0.87185734  1
  Ta  Ta107  1  0.78777714  0.01318668  0.74471952  1
  Ta  Ta108  1  0.11314555  0.71823704  0.37794423  1
  Ta  Ta109  1  0.88608589  0.91272107  0.11850670  1
  Ta  Ta110  1  0.40368863  0.19250031  0.50585803  1
  Ta  Ta111  1  0.78196064  0.40520505  0.00336287  1
  Ta  Ta112  1  0.69813077  0.69976120  0.86848706  1
  Ta  Ta113  1  0.08735631  0.91296873  0.12608029  1
  Ta  Ta114  1  0.29288238  0.28651947  0.38455286  1
  Ta  Ta115  1  0.69555593  0.29041602  0.38136459  1
  Ta  Ta116  1  0.09922638  0.29703391  0.62303124  1
  Ta  Ta117  1  0.18904973  0.40500592  0.75762613  1
  Ta  Ta118  1  0.69759298  0.90617965  0.38667564  1
  Ta  Ta119  1  0.61858099  -0.01243965  0.00149540  1
  Ti  Ti120  1  0.51230747  0.08716116  0.61914551  1
  Ti  Ti121  1  0.91570265  0.09341899  0.11450635  1
  Ti  Ti122  1  0.29600549  0.10402117  0.62654100  1
  Ti  Ti123  1  0.10752497  0.30416852  0.12116701  1
  Ti  Ti124  1  0.60377242  0.19783276  0.50561929  1
  Ti  Ti125  1  0.69303610  0.71325184  0.12585035  1
  Ti  Ti126  1  0.60777105  0.57954627  -0.01431337  1
  Ti  Ti127  1  0.70944599  0.09158248  0.87816173  1
  Ti  Ti128  1  0.71307581  0.49509515  0.62259689  1
  Ti  Ti129  1  0.11422672  0.12066564  0.36916300  1
  Ti  Ti130  1  0.89100496  0.90328191  0.61944161  1
  Ti  Ti131  1  0.50413153  0.89421648  0.88893716  1
  Ti  Ti132  1  0.39221253  0.78607160  0.49819933  1
  Ti  Ti133  1  0.79777721  0.19514514  0.00183899  1
  Ti  Ti134  1  0.68468370  0.30711639  0.11792626  1
  Ti  Ti135  1  0.78114509  0.82051721  0.00201615  1
  Ti  Ti136  1  0.70610846  0.10034758  0.61965516  1
  Ti  Ti137  1  0.50783311  0.70437135  0.89352000  1
  Ti  Ti138  1  0.19540880  0.81959898  0.24090787  1
  Ti  Ti139  1  0.59610646  0.00346658  0.49191979  1
  Ti  Ti140  1  0.62477700  0.57704439  0.76143116  1
  Ti  Ti141  1  0.51538683  0.08866339  0.87392946  1
  Ti  Ti142  1  0.19420642  0.81080373  0.73817923  1
  Ti  Ti143  1  0.00783147  0.79740832  0.24321757  1
  Ti  Ti144  1  0.09052611  0.90451458  0.63247644  1
  Ti  Ti145  1  0.10482316  0.49230205  0.63110903  1
  Ti  Ti146  1  0.40773359  0.20965465  -0.00042074  1
  Ti  Ti147  1  0.70715016  0.10004532  0.37823255  1
  Ti  Ti148  1  -0.00234836  0.00227643  0.50982448  1
  Ti  Ti149  1  0.81104133  0.19059021  0.25181053  1
  Ti  Ti150  1  0.30794080  0.71046112  0.11006730  1
  Ti  Ti151  1  0.68903181  0.30208554  0.62763302  1
  Ti  Ti152  1  0.08800170  0.90251004  0.86524914  1
  Ti  Ti153  1  0.50800951  0.09806709  0.38000783  1
  Ti  Ti154  1  0.40256432  0.39541394  0.26785894  1
  Ti  Ti155  1  0.58940521  0.39261497  0.25377097  1
  Ti  Ti156  1  0.47635421  0.68587514  0.37862082  1
  Ti  Ti157  1  0.58745520  0.78988277  0.75110921  1
  Ti  Ti158  1  0.30238319  0.70840949  0.87334378  1
  Ti  Ti159  1  0.19879052  0.00178805  0.73780453  1
  Mo  Mo160  1  0.49717261  0.90136567  0.37853538  1
  Mo  Mo161  1  0.40408201  0.39376886  0.73716379  1
  Mo  Mo162  1  0.80398448  0.80656302  0.50587065  1
  Mo  Mo163  1  0.40747817  0.61077758  0.50540218  1
  Mo  Mo164  1  0.61041646  0.38977939  0.50165576  1
  Mo  Mo165  1  0.00862814  0.60789998  0.24732309  1
  Mo  Mo166  1  0.50689693  0.29117313  0.60356747  1
  Mo  Mo167  1  0.28657104  0.10164225  0.13209470  1
  Mo  Mo168  1  0.30002945  0.91204647  0.63200785  1
  Mo  Mo169  1  0.19979295  0.60411217  0.74754512  1
  Mo  Mo170  1  0.09977633  0.70855047  0.64197300  1
  Mo  Mo171  1  0.29018575  0.71116881  0.37806621  1
  Mo  Mo172  1  0.19862488  0.00866052  0.24621065  1
  Mo  Mo173  1  0.69815213  0.89725477  0.13261377  1
  Mo  Mo174  1  0.79551067  0.59848397  0.75023190  1
  Mo  Mo175  1  0.70264192  0.50043188  0.87902155  1
  Mo  Mo176  1  0.20807080  0.20404939  0.50529044  1
  Mo  Mo177  1  0.80043186  0.00423704  -0.00283353  1
  Mo  Mo178  1  0.61281654  0.78841888  -0.00895803  1
  Mo  Mo179  1  0.60133262  0.38460051  0.74105042  1
  Mo  Mo180  1  0.09905745  0.49349970  0.87496399  1
  Mo  Mo181  1  0.50462490  0.69671493  0.62375357  1
  Mo  Mo182  1  -0.00628505  0.19330656  0.75080754  1
  Mo  Mo183  1  0.49790563  0.27632438  0.87224025  1
  Mo  Mo184  1  0.50318678  0.49064143  0.37010326  1
  Mo  Mo185  1  0.50119333  0.29094970  0.13118270  1
  Mo  Mo186  1  0.10343747  0.29395199  0.88413944  1
  Mo  Mo187  1  0.09567975  0.10674725  0.62777514  1
  Mo  Mo188  1  0.10362261  0.30785978  0.37720505  1
  Mo  Mo189  1  0.10682627  0.10530585  0.12758300  1
  Mo  Mo190  1  0.89543845  0.50160387  0.37895139  1
  Mo  Mo191  1  0.59727326  0.38936677  0.00376194  1
  Mo  Mo192  1  0.59876317  -0.01811526  0.74973251  1
  Mo  Mo193  1  0.00068570  0.81129913  0.73532631  1
  Mo  Mo194  1  0.00144313  -0.00233271  -0.00190161  1
  Mo  Mo195  1  0.89776522  0.49194976  0.62871979  1
  Mo  Mo196  1  0.38917474  0.38592015  -0.00225387  1
  Mo  Mo197  1  0.20525743  0.19773995  0.24606513  1
  Mo  Mo198  1  0.39752687  0.79446625  -0.01594312  1
  Mo  Mo199  1  0.09992893  0.71646489  0.12425594  1
