# generated using pymatgen
data_HfZrTaTiMo
_symmetry_space_group_name_H-M   'P 1'
_cell_length_a   15.22547134
_cell_length_b   15.21580118
_cell_length_c   16.85221865
_cell_angle_alpha   90.04726005
_cell_angle_beta   89.99959024
_cell_angle_gamma   89.94048459
_symmetry_Int_Tables_number   1
_chemical_formula_structural   HfZrTaTiMo
_chemical_formula_sum   'Hf40 Zr40 Ta40 Ti40 Mo40'
_cell_volume   3904.11205420
_cell_formula_units_Z   40
loop_
 _symmetry_equiv_pos_site_id
 _symmetry_equiv_pos_as_xyz
  1  'x, y, z'
loop_
 _atom_site_type_symbol
 _atom_site_label
 _atom_site_symmetry_multiplicity
 _atom_site_fract_x
 _atom_site_fract_y
 _atom_site_fract_z
 _atom_site_occupancy
  Hf  Hf0  1  0.68896561  0.30090036  0.62855469  1
  Hf  Hf1  1  0.10113635  0.49771602  0.88600672  1
  Hf  Hf2  1  0.89400341  0.90944227  0.14516768  1
  Hf  Hf3  1  -0.00187155  0.20451809  0.23483361  1
  Hf  Hf4  1  0.41800249  0.81331147  0.75247311  1
  Hf  Hf5  1  0.90846917  0.88422480  0.35397960  1
  Hf  Hf6  1  0.89057477  0.70030051  0.87899340  1
  Hf  Hf7  1  0.30879547  0.49825835  0.86180719  1
  Hf  Hf8  1  0.41543605  0.20037430  0.48066039  1
  Hf  Hf9  1  0.30326264  0.70206928  0.87012937  1
  Hf  Hf10  1  0.31230790  0.09987566  0.88532730  1
  Hf  Hf11  1  0.80099933  0.00910098  0.49772327  1
  Hf  Hf12  1  0.10067446  0.29475326  0.36698817  1
  Hf  Hf13  1  0.30320499  0.29713033  0.62986713  1
  Hf  Hf14  1  0.40527559  -0.01175381  0.48959903  1
  Hf  Hf15  1  0.30175225  0.50024065  0.63590364  1
  Hf  Hf16  1  0.81778771  0.80601154  0.49953004  1
  Hf  Hf17  1  0.40536924  0.02078790  0.74763856  1
  Hf  Hf18  1  0.79678285  0.38848445  0.49504714  1
  Hf  Hf19  1  0.89394405  0.29375713  0.62682207  1
  Hf  Hf20  1  0.60110514  -0.00340415  0.48432011  1
  Hf  Hf21  1  0.51079391  0.70653600  0.88259572  1
  Hf  Hf22  1  0.61923413  0.19646808  0.26320683  1
  Hf  Hf23  1  0.69166245  0.69744633  0.59904352  1
  Hf  Hf24  1  0.89306553  0.29148559  0.37115424  1
  Hf  Hf25  1  0.29859359  0.09493898  0.36580524  1
  Hf  Hf26  1  0.78984937  0.18878732  0.00517582  1
  Hf  Hf27  1  0.10467622  0.89280376  0.13418503  1
  Hf  Hf28  1  0.49159325  0.69687621  0.12108666  1
  Hf  Hf29  1  0.29928106  0.72085505  0.37311087  1
  Hf  Hf30  1  0.69815391  0.10284959  0.62803114  1
  Hf  Hf31  1  0.30886541  0.29578121  0.87150318  1
  Hf  Hf32  1  0.30223726  0.30497920  0.35983291  1
  Hf  Hf33  1  0.09532456  0.28648363  0.62411542  1
  Hf  Hf34  1  0.69055736  0.49686576  0.12565956  1
  Hf  Hf35  1  0.19555953  0.40200406  0.49917782  1
  Hf  Hf36  1  0.18519398  -0.01092557  0.75032956  1
  Hf  Hf37  1  -0.01285795  0.60088486  0.25792207  1
  Hf  Hf38  1  0.39891045  0.40300088  0.49729628  1
  Hf  Hf39  1  0.41225292  0.61701388  0.50904247  1
  Zr  Zr40  1  0.69234876  0.08763770  0.87698913  1
  Zr  Zr41  1  0.90672661  0.09747521  0.88384503  1
  Zr  Zr42  1  0.89328336  0.90128272  0.86644173  1
  Zr  Zr43  1  0.90748412  0.09782265  0.63602157  1
  Zr  Zr44  1  0.80309991  0.59922790  0.73641958  1
  Zr  Zr45  1  0.79851333  0.20394075  0.76734154  1
  Zr  Zr46  1  0.30318960  0.51299368  0.36240495  1
  Zr  Zr47  1  0.19304607  0.18970531  0.75613631  1
  Zr  Zr48  1  0.51034773  0.30061374  0.13715428  1
  Zr  Zr49  1  0.39822835  0.81606971  0.00606372  1
  Zr  Zr50  1  0.19306110  -0.01493150  0.49202826  1
  Zr  Zr51  1  -0.00218962  0.59810399  0.75699486  1
  Zr  Zr52  1  0.70666212  0.50073631  0.37999378  1
  Zr  Zr53  1  0.51011807  0.48623770  0.86426258  1
  Zr  Zr54  1  0.51606581  0.49372725  0.62688172  1
  Zr  Zr55  1  0.21763467  0.40758541  0.00465382  1
  Zr  Zr56  1  0.59002303  0.59400008  0.25048127  1
  Zr  Zr57  1  0.28998369  0.90218605  0.87539892  1
  Zr  Zr58  1  -0.00993649  0.81153535  -0.00026014  1
  Zr  Zr59  1  0.80088247  0.39615076  0.24430581  1
  Zr  Zr60  1  0.59754830  -0.00055242  0.01181846  1
  Zr  Zr61  1  -0.00312235  0.39113549  0.75976296  1
  Zr  Zr62  1  0.88508746  0.70984900  0.12553313  1
  Zr  Zr63  1  0.19768430  0.60875556  0.50236160  1
  Zr  Zr64  1  0.10063249  0.50710891  0.12510299  1
  Zr  Zr65  1  0.30254673  0.89710275  0.62555949  1
  Zr  Zr66  1  -0.00267114  0.40363655  0.49601846  1
  Zr  Zr67  1  -0.00015256  -0.02006466  0.49066644  1
  Zr  Zr68  1  0.58917350  0.79118089  0.25170570  1
  Zr  Zr69  1  0.70081015  0.51665351  0.88118248  1
  Zr  Zr70  1  0.39605117  0.58895132  0.00247544  1
  Zr  Zr71  1  0.00229114  0.60909708  0.48546254  1
  Zr  Zr72  1  0.00924218  0.01198874  0.24873520  1
  Zr  Zr73  1  0.19254309  0.60650740  0.74668446  1
  Zr  Zr74  1  0.60477540  0.61635899  0.74229311  1
  Zr  Zr75  1  0.68660131  0.70494886  0.39412297  1
  Zr  Zr76  1  0.57502161  0.19966379  0.76394171  1
  Zr  Zr77  1  0.10038172  0.30582562  0.11034114  1
  Zr  Zr78  1  0.29830573  0.10512977  0.61444278  1
  Zr  Zr79  1  0.79112531  0.79983259  0.73543776  1
  Ta  Ta80  1  0.49956900  0.09711153  0.14238907  1
  Ta  Ta81  1  0.89510117  0.49813720  0.89467095  1
  Ta  Ta82  1  0.28782612  0.70442830  0.13048713  1
  Ta  Ta83  1  0.10013023  0.49863251  0.36083055  1
  Ta  Ta84  1  0.79921375  -0.01752832  0.01048921  1
  Ta  Ta85  1  0.21876035  -0.00286828  0.02004929  1
  Ta  Ta86  1  0.70145300  0.90794115  0.35819410  1
  Ta  Ta87  1  0.61903365  0.19749026  0.47802650  1
  Ta  Ta88  1  0.50213018  0.28892242  0.61759227  1
  Ta  Ta89  1  0.10375564  0.10076761  0.11106714  1
  Ta  Ta90  1  0.89940826  0.30241195  0.10473569  1
  Ta  Ta91  1  0.70324972  0.88828310  0.14577655  1
  Ta  Ta92  1  0.19507811  0.19742295  0.49382435  1
  Ta  Ta93  1  0.40705555  0.61195019  0.73792885  1
  Ta  Ta94  1  0.20068589  0.19319501  0.23458711  1
  Ta  Ta95  1  0.10962435  0.09034308  0.90042357  1
  Ta  Ta96  1  0.50691975  0.10032295  0.61467836  1
  Ta  Ta97  1  0.78748676  0.40278311  0.00399198  1
  Ta  Ta98  1  0.00048436  0.60685006  -0.00149436  1
  Ta  Ta99  1  0.41548329  0.38771162  0.00191786  1
  Ta  Ta100  1  0.31308149  0.30633988  0.13815399  1
  Ta  Ta101  1  0.09318006  0.70159019  0.12874286  1
  Ta  Ta102  1  0.19384657  0.39431558  0.75255468  1
  Ta  Ta103  1  0.79318808  0.60885770  0.25056685  1
  Ta  Ta104  1  0.19847651  0.40088528  0.24276118  1
  Ta  Ta105  1  0.89787513  0.50148386  0.11010205  1
  Ta  Ta106  1  0.10331146  0.71627666  0.88079423  1
  Ta  Ta107  1  0.81358674  0.59437947  0.50176751  1
  Ta  Ta108  1  0.89897322  0.30555763  0.89794220  1
  Ta  Ta109  1  0.59402483  -0.01499580  0.74754414  1
  Ta  Ta110  1  0.68123533  0.89550109  0.61620249  1
  Ta  Ta111  1  0.19955414  0.61340351  0.00187679  1
  Ta  Ta112  1  0.29464651  0.71389033  0.62785315  1
  Ta  Ta113  1  0.21994662  -0.00489808  0.23627203  1
  Ta  Ta114  1  0.79416427  0.40314635  0.75885100  1
  Ta  Ta115  1  0.49743352  0.50769129  0.37661660  1
  Ta  Ta116  1  0.68430540  0.31506294  0.88357296  1
  Ta  Ta117  1  -0.00396518  0.18656456  0.49340637  1
  Ta  Ta118  1  0.92456057  0.70829790  0.62155697  1
  Ta  Ta119  1  0.59294848  0.38784184  0.48257750  1
  Ti  Ti120  1  0.09940388  0.87071041  0.62218729  1
  Ti  Ti121  1  0.09494346  0.49965669  0.62854762  1
  Ti  Ti122  1  0.48688425  0.88240404  0.36664696  1
  Ti  Ti123  1  0.90094530  0.49751877  0.62518580  1
  Ti  Ti124  1  0.10202062  0.09797974  0.36989430  1
  Ti  Ti125  1  0.69769562  0.29693210  0.11903748  1
  Ti  Ti126  1  0.01871811  0.80427458  0.75703524  1
  Ti  Ti127  1  0.38246745  0.80887409  0.24133176  1
  Ti  Ti128  1  0.69936581  0.71222879  0.87972801  1
  Ti  Ti129  1  0.30635226  0.50726883  0.13980413  1
  Ti  Ti130  1  0.61442794  0.79799123  0.01564149  1
  Ti  Ti131  1  0.40490981  0.19101531  0.01382335  1
  Ti  Ti132  1  0.00566745  0.19495824  0.76807860  1
  Ti  Ti133  1  0.09125514  0.72283917  0.36351810  1
  Ti  Ti134  1  0.50475249  0.73320363  0.61718114  1
  Ti  Ti135  1  0.50860401  0.08702735  0.35602269  1
  Ti  Ti136  1  0.70305267  0.49297783  0.61454576  1
  Ti  Ti137  1  0.90771973  0.90023536  0.63260728  1
  Ti  Ti138  1  0.59504561  0.39262333  0.27094007  1
  Ti  Ti139  1  0.49616290  0.90919601  0.13599534  1
  Ti  Ti140  1  0.40547979  0.19899646  0.25401720  1
  Ti  Ti141  1  0.00049430  0.00271975  0.00905865  1
  Ti  Ti142  1  0.78916723  0.61495089  0.00872226  1
  Ti  Ti143  1  0.80893525  0.19144524  0.23350107  1
  Ti  Ti144  1  0.58746133  0.20725768  -0.00427762  1
  Ti  Ti145  1  0.21507315  0.19833979  0.01367574  1
  Ti  Ti146  1  0.09561785  0.08854079  0.61871893  1
  Ti  Ti147  1  0.79077186  -0.00642547  0.74438493  1
  Ti  Ti148  1  0.09886677  0.29130749  0.89524683  1
  Ti  Ti149  1  0.41829980  0.38346264  0.74853145  1
  Ti  Ti150  1  -0.00601998  0.40332124  0.24583666  1
  Ti  Ti151  1  0.00349328  -0.00048943  0.75748246  1
  Ti  Ti152  1  0.48988061  0.48988523  0.13511834  1
  Ti  Ti153  1  0.19649595  0.61096878  0.25069920  1
  Ti  Ti154  1  0.59580756  0.59333026  0.00710454  1
  Ti  Ti155  1  0.69204600  0.89206689  0.87569424  1
  Ti  Ti156  1  0.50118978  0.91710163  0.88502315  1
  Ti  Ti157  1  0.89390162  0.09655923  0.36935162  1
  Ti  Ti158  1  0.70351118  0.08478334  0.13546016  1
  Ti  Ti159  1  0.19464566  0.80414277  0.00359568  1
  Mo  Mo160  1  0.00049366  0.79222158  0.24559097  1
  Mo  Mo161  1  0.50542348  0.91026988  0.61965964  1
  Mo  Mo162  1  0.10141905  0.69985792  0.62745778  1
  Mo  Mo163  1  0.59816548  -0.00452531  0.25202537  1
  Mo  Mo164  1  0.79618322  0.00863618  0.24981645  1
  Mo  Mo165  1  0.49617002  0.09828404  0.88607593  1
  Mo  Mo166  1  0.31031863  0.10702873  0.13362545  1
  Mo  Mo167  1  0.39389009  0.80504041  0.49927623  1
  Mo  Mo168  1  0.49500665  0.29343591  0.88539737  1
  Mo  Mo169  1  0.40652325  -0.00326082  0.25434562  1
  Mo  Mo170  1  0.90153747  0.50122263  0.36956832  1
  Mo  Mo171  1  0.78487197  0.80903767  0.00196226  1
  Mo  Mo172  1  0.71664237  0.09687590  0.36544905  1
  Mo  Mo173  1  0.09665750  0.90946387  0.88592256  1
  Mo  Mo174  1  0.61051537  0.39563037  0.74759291  1
  Mo  Mo175  1  0.89785314  0.10371411  0.11352611  1
  Mo  Mo176  1  0.59833292  0.59272320  0.50118346  1
  Mo  Mo177  1  0.01327594  0.80121384  0.49539231  1
  Mo  Mo178  1  0.39478312  0.60982880  0.24375506  1
  Mo  Mo179  1  0.57900664  0.80506837  0.48588522  1
  Mo  Mo180  1  0.59609600  0.40048098  0.00685362  1
  Mo  Mo181  1  0.29690282  0.90018064  0.36883263  1
  Mo  Mo182  1  0.48674092  0.69528081  0.37467776  1
  Mo  Mo183  1  0.60358820  0.80715842  0.75078141  1
  Mo  Mo184  1  0.19642566  0.79914125  0.75328727  1
  Mo  Mo185  1  -0.00416757  0.40501088  -0.00361186  1
  Mo  Mo186  1  0.40665269  0.01016962  0.01179776  1
  Mo  Mo187  1  0.70556643  0.29411908  0.37212883  1
  Mo  Mo188  1  0.79325403  0.79065841  0.26026421  1
  Mo  Mo189  1  0.50054447  0.29941758  0.36772156  1
  Mo  Mo190  1  0.11797611  0.89575036  0.35368785  1
  Mo  Mo191  1  0.00343576  0.19730532  0.00241408  1
  Mo  Mo192  1  0.39964855  0.20071847  0.74501305  1
  Mo  Mo193  1  0.18816137  0.79729323  0.49637376  1
  Mo  Mo194  1  0.69247298  0.69656570  0.12280077  1
  Mo  Mo195  1  0.30776750  0.89846095  0.12412666  1
  Mo  Mo196  1  0.40525883  0.40893999  0.25192719  1
  Mo  Mo197  1  0.89044714  0.69421990  0.37399338  1
  Mo  Mo198  1  0.19668586  0.79927253  0.24403554  1
  Mo  Mo199  1  0.80576280  0.19396260  0.49795281  1
