# generated using pymatgen
data_HfZrTaTiMo
_symmetry_space_group_name_H-M   'P 1'
_cell_length_a   15.20878182
_cell_length_b   15.21282641
_cell_length_c   16.84139281
_cell_angle_alpha   90.04954862
_cell_angle_beta   90.02427298
_cell_angle_gamma   90.02046443
_symmetry_Int_Tables_number   1
_chemical_formula_structural   HfZrTaTiMo
_chemical_formula_sum   'Hf40 Zr40 Ta40 Ti40 Mo40'
_cell_volume   3896.56670803
_cell_formula_units_Z   40
loop_
 _symmetry_equiv_pos_site_id
 _symmetry_equiv_pos_as_xyz
  1  'x, y, z'
loop_
 _atom_site_type_symbol
 _atom_site_label
 _atom_site_symmetry_multiplicity
 _atom_site_fract_x
 _atom_site_fract_y
 _atom_site_fract_z
 _atom_site_occupancy
  Hf  Hf0  1  0.60164525  0.19299502  0.24754330  1
  Hf  Hf1  1  0.40262413  0.61560854  0.51174280  1
  Hf  Hf2  1  0.50379261  0.90995717  0.12285633  1
  Hf  Hf3  1  0.69052464  0.30284369  0.88482155  1
  Hf  Hf4  1  0.29898107  0.51562687  0.38305138  1
  Hf  Hf5  1  0.29812448  0.90691982  0.11999108  1
  Hf  Hf6  1  0.32916740  0.49107897  0.13510984  1
  Hf  Hf7  1  0.19438067  0.59061831  0.00122340  1
  Hf  Hf8  1  0.40777601  -0.01133348  0.76336512  1
  Hf  Hf9  1  0.50953510  0.30317553  0.60781749  1
  Hf  Hf10  1  0.09917373  0.90468340  0.64031091  1
  Hf  Hf11  1  0.90561178  0.68416137  0.61762172  1
  Hf  Hf12  1  0.29159591  0.49048493  0.87036855  1
  Hf  Hf13  1  0.11742708  0.30940973  0.86351494  1
  Hf  Hf14  1  0.90897394  0.30728762  0.87589146  1
  Hf  Hf15  1  0.50082165  0.29765542  0.38121697  1
  Hf  Hf16  1  0.31353106  0.29431610  0.87468389  1
  Hf  Hf17  1  0.68156200  0.90030081  0.62368417  1
  Hf  Hf18  1  0.88889603  0.90494128  0.61795965  1
  Hf  Hf19  1  0.49648731  0.69697389  0.11517419  1
  Hf  Hf20  1  -0.00810210  0.79628402  0.00014443  1
  Hf  Hf21  1  0.21620585  0.38936512  0.25546590  1
  Hf  Hf22  1  0.89928986  0.69103757  0.13750432  1
  Hf  Hf23  1  0.90682396  0.69550228  0.37383321  1
  Hf  Hf24  1  0.70100501  0.51592145  0.63027569  1
  Hf  Hf25  1  0.00730104  -0.00757407  0.00460448  1
  Hf  Hf26  1  0.08990861  0.89996153  0.85530215  1
  Hf  Hf27  1  0.79803553  0.39153766  0.74933869  1
  Hf  Hf28  1  0.01626054  0.40109642  0.00562650  1
  Hf  Hf29  1  0.29830333  0.69489604  0.11252108  1
  Hf  Hf30  1  0.19022546  -0.00176740  0.24692475  1
  Hf  Hf31  1  0.60181117  0.58210290  0.00138114  1
  Hf  Hf32  1  0.52565445  0.70832428  0.63981786  1
  Hf  Hf33  1  0.80255996  0.80436571  0.25049192  1
  Hf  Hf34  1  0.01036812  0.80339189  0.49751197  1
  Hf  Hf35  1  0.89275030  0.91273324  0.38448515  1
  Hf  Hf36  1  0.69541897  0.68525374  0.36231728  1
  Hf  Hf37  1  0.18976904  0.80912657  -0.00413241  1
  Hf  Hf38  1  0.29803495  0.69341954  0.87737071  1
  Hf  Hf39  1  0.10975297  0.50079967  0.14207522  1
  Zr  Zr40  1  0.29938084  0.89157720  0.63424409  1
  Zr  Zr41  1  0.11104171  0.69498133  0.62181291  1
  Zr  Zr42  1  0.89442136  0.09962831  0.89031056  1
  Zr  Zr43  1  0.39307991  -0.00436423  0.50113903  1
  Zr  Zr44  1  0.80526904  0.41188075  0.00094212  1
  Zr  Zr45  1  0.30108051  0.30190805  0.39835671  1
  Zr  Zr46  1  0.70146653  0.70251155  0.11616845  1
  Zr  Zr47  1  -0.00446709  0.59528922  0.00573644  1
  Zr  Zr48  1  0.00159271  0.43077893  0.73984756  1
  Zr  Zr49  1  0.39404384  0.79494741  0.24581160  1
  Zr  Zr50  1  0.40424863  0.20075480  0.74012989  1
  Zr  Zr51  1  0.39340840  0.39695946  0.73257342  1
  Zr  Zr52  1  0.11073887  0.31495214  0.61515581  1
  Zr  Zr53  1  0.91864346  0.29589829  0.36076252  1
  Zr  Zr54  1  0.90652348  0.29618188  0.13386080  1
  Zr  Zr55  1  0.28674092  0.09389075  0.63322988  1
  Zr  Zr56  1  0.81439041  0.59565387  0.75771843  1
  Zr  Zr57  1  0.71170436  0.29401382  0.37396680  1
  Zr  Zr58  1  0.49795938  0.10585626  0.88203010  1
  Zr  Zr59  1  0.19226078  0.79868874  0.25031848  1
  Zr  Zr60  1  0.50190143  0.51074984  0.37638349  1
  Zr  Zr61  1  0.81097757  0.40230878  0.49523895  1
  Zr  Zr62  1  0.27240383  0.50056128  0.61306848  1
  Zr  Zr63  1  0.90623855  0.29761906  0.62149704  1
  Zr  Zr64  1  0.49304390  0.31732086  0.13798333  1
  Zr  Zr65  1  0.29266064  0.10011923  0.37669680  1
  Zr  Zr66  1  0.10065386  0.10737499  0.86169763  1
  Zr  Zr67  1  0.50816811  0.69063875  0.87200428  1
  Zr  Zr68  1  -0.02794517  0.00799859  0.74729553  1
  Zr  Zr69  1  0.79630770  0.79991203  0.74715063  1
  Zr  Zr70  1  0.70823108  0.49815354  0.13865584  1
  Zr  Zr71  1  0.61422316  0.19480273  0.75427507  1
  Zr  Zr72  1  0.50119993  0.48110778  0.86542286  1
  Zr  Zr73  1  0.52015233  0.08943372  0.63034565  1
  Zr  Zr74  1  0.78059012  0.78999097  0.50115777  1
  Zr  Zr75  1  0.69043026  0.09475673  0.11056472  1
  Zr  Zr76  1  0.59398024  -0.00833690  0.49099324  1
  Zr  Zr77  1  0.09209002  0.49455453  0.37948446  1
  Zr  Zr78  1  0.70526002  0.28464842  0.61286805  1
  Zr  Zr79  1  -0.01224270  0.00725103  0.24376714  1
  Ta  Ta80  1  0.08752173  0.10257848  0.38095287  1
  Ta  Ta81  1  0.29696872  0.10611710  0.13013929  1
  Ta  Ta82  1  0.69929522  0.50736927  0.86829517  1
  Ta  Ta83  1  0.77015046  0.00204099  0.76037474  1
  Ta  Ta84  1  0.69657148  0.89496016  0.10731090  1
  Ta  Ta85  1  0.70894012  0.71014480  0.88920205  1
  Ta  Ta86  1  0.69461397  0.09385723  0.89753336  1
  Ta  Ta87  1  0.00630084  0.80904592  0.25186920  1
  Ta  Ta88  1  0.10675890  0.29095772  0.38881140  1
  Ta  Ta89  1  0.18617421  0.19789114  0.24996971  1
  Ta  Ta90  1  0.28912107  0.10097978  0.86866344  1
  Ta  Ta91  1  0.60234592  0.80699803  0.24514573  1
  Ta  Ta92  1  0.41413332  0.80452718  0.49538974  1
  Ta  Ta93  1  0.09318787  0.50615938  0.87165844  1
  Ta  Ta94  1  0.30131530  0.89892331  0.37203338  1
  Ta  Ta95  1  0.58493706  0.21441861  0.00781493  1
  Ta  Ta96  1  0.38984528  0.20246757  0.01050053  1
  Ta  Ta97  1  0.49739077  0.70868511  0.36969349  1
  Ta  Ta98  1  0.80520016  0.18720948  0.75743715  1
  Ta  Ta99  1  0.38439920  0.21104002  0.24791814  1
  Ta  Ta100  1  0.39336979  0.00604400  -0.00521661  1
  Ta  Ta101  1  0.19907932  0.20046108  0.00584142  1
  Ta  Ta102  1  0.70619373  0.08778972  0.36909726  1
  Ta  Ta103  1  0.78523231  -0.00377923  0.23999372  1
  Ta  Ta104  1  0.49555559  0.90742471  0.35580436  1
  Ta  Ta105  1  0.11355720  0.69697068  0.38285990  1
  Ta  Ta106  1  0.80860976  0.18459637  0.24254343  1
  Ta  Ta107  1  0.20524410  0.79299061  0.75777430  1
  Ta  Ta108  1  0.89558193  0.09765665  0.11333888  1
  Ta  Ta109  1  0.40818358  0.18945558  0.50602099  1
  Ta  Ta110  1  0.90823228  0.49335069  0.15495304  1
  Ta  Ta111  1  0.50621823  0.50874812  0.62765974  1
  Ta  Ta112  1  0.88904692  0.49595736  0.34947248  1
  Ta  Ta113  1  0.29562505  0.29363962  0.60445133  1
  Ta  Ta114  1  0.21737420  0.80047600  0.49388989  1
  Ta  Ta115  1  0.39742203  0.59963325  0.74092599  1
  Ta  Ta116  1  0.69060941  0.89608494  0.37176440  1
  Ta  Ta117  1  0.60787788  0.41746293  0.49431067  1
  Ta  Ta118  1  0.09325698  0.10851710  0.63328521  1
  Ta  Ta119  1  0.60394955  0.40558117  0.26069898  1
  Ti  Ti120  1  0.09937918  0.90534515  0.38003049  1
  Ti  Ti121  1  0.70132815  0.30136730  0.12824057  1
  Ti  Ti122  1  0.79924156  -0.01484954  -0.00117099  1
  Ti  Ti123  1  0.19923109  0.00799424  0.00093889  1
  Ti  Ti124  1  0.49539477  0.09682460  0.36252543  1
  Ti  Ti125  1  0.30781115  0.70470443  0.63256225  1
  Ti  Ti126  1  0.10474696  0.29496590  0.13193373  1
  Ti  Ti127  1  0.60345075  0.81784173  0.77166525  1
  Ti  Ti128  1  0.80949791  0.60231693  -0.00844267  1
  Ti  Ti129  1  0.09855755  0.70784790  0.12849733  1
  Ti  Ti130  1  0.29499244  0.90419259  0.87629475  1
  Ti  Ti131  1  -0.00150501  0.19967836  0.50450724  1
  Ti  Ti132  1  0.60706710  0.61491969  0.50134860  1
  Ti  Ti133  1  -0.00095986  0.21048551  0.74520629  1
  Ti  Ti134  1  0.40484921  0.40919462  0.50870672  1
  Ti  Ti135  1  0.48835238  0.09954328  0.13019236  1
  Ti  Ti136  1  0.89642737  0.89585846  0.12209585  1
  Ti  Ti137  1  0.19046599  0.58668669  0.74743006  1
  Ti  Ti138  1  0.09617903  0.69841422  0.86188858  1
  Ti  Ti139  1  0.01285384  0.60817356  0.25565815  1
  Ti  Ti140  1  0.21575987  0.60918720  0.25294948  1
  Ti  Ti141  1  0.40131746  0.58642700  -0.00461522  1
  Ti  Ti142  1  0.00680734  0.20192908  0.00091421  1
  Ti  Ti143  1  0.09540501  0.10117277  0.12290099  1
  Ti  Ti144  1  0.21669702  0.39117852  0.01287554  1
  Ti  Ti145  1  -0.00473767  0.01019451  0.50751839  1
  Ti  Ti146  1  0.58886055  0.60253650  0.24260740  1
  Ti  Ti147  1  0.88041134  0.10376658  0.61755335  1
  Ti  Ti148  1  0.89393269  0.10423940  0.38111918  1
  Ti  Ti149  1  0.18643331  -0.00145644  0.50149816  1
  Ti  Ti150  1  0.79788635  0.58924980  0.49276929  1
  Ti  Ti151  1  0.79823289  0.20673740  0.00441031  1
  Ti  Ti152  1  0.42051643  0.39391625  -0.00045117  1
  Ti  Ti153  1  0.59998899  0.40002447  0.74331470  1
  Ti  Ti154  1  0.88338237  0.88877023  0.87444963  1
  Ti  Ti155  1  0.40466582  0.80605309  -0.01136544  1
  Ti  Ti156  1  0.49504607  0.89440560  0.63264134  1
  Ti  Ti157  1  0.61272908  0.18757272  0.49181667  1
  Ti  Ti158  1  0.40424445  0.79646499  0.76470241  1
  Ti  Ti159  1  0.90985889  0.69691638  0.86989369  1
  Mo  Mo160  1  0.00764344  0.19016552  0.24769186  1
  Mo  Mo161  1  0.19175746  0.18639658  0.50361816  1
  Mo  Mo162  1  0.09265178  0.90088969  0.12230328  1
  Mo  Mo163  1  0.19800637  0.61363174  0.49651781  1
  Mo  Mo164  1  0.01488623  0.39191090  0.24742351  1
  Mo  Mo165  1  0.59922039  -0.00090347  0.25030428  1
  Mo  Mo166  1  0.00652849  0.61259711  0.75096033  1
  Mo  Mo167  1  0.19955568  0.40085186  0.74631943  1
  Mo  Mo168  1  0.60606401  0.60168592  0.75706362  1
  Mo  Mo169  1  -0.00224021  0.40539464  0.49552816  1
  Mo  Mo170  1  0.49679940  0.89722290  0.88963525  1
  Mo  Mo171  1  0.70196717  0.70270161  0.62578877  1
  Mo  Mo172  1  0.79523907  0.00585792  0.49699455  1
  Mo  Mo173  1  0.79978679  0.59879104  0.25304873  1
  Mo  Mo174  1  0.19941763  0.40203756  0.49175085  1
  Mo  Mo175  1  0.30659772  0.70586238  0.37936409  1
  Mo  Mo176  1  0.07742152  0.51268904  0.59810867  1
  Mo  Mo177  1  0.40817099  0.40069141  0.26217637  1
  Mo  Mo178  1  -0.00685972  0.79298174  0.75125154  1
  Mo  Mo179  1  0.60076747  -0.00682951  0.76148128  1
  Mo  Mo180  1  0.20053586  -0.00041795  0.75603419  1
  Mo  Mo181  1  0.90236050  0.50286318  0.61357612  1
  Mo  Mo182  1  0.69880779  0.50012558  0.36981856  1
  Mo  Mo183  1  0.60482142  0.39527770  0.00511875  1
  Mo  Mo184  1  0.50794737  0.50539499  0.13381618  1
  Mo  Mo185  1  0.58805858  0.79418196  0.48956237  1
  Mo  Mo186  1  -0.01105426  0.59693237  0.48517033  1
  Mo  Mo187  1  0.20133063  0.20661998  0.74342532  1
  Mo  Mo188  1  0.39851199  0.01229975  0.24916861  1
  Mo  Mo189  1  0.70964368  0.09152511  0.62258836  1
  Mo  Mo190  1  0.79644502  0.38898622  0.25080082  1
  Mo  Mo191  1  0.59797663  0.80213936  -0.00901564  1
  Mo  Mo192  1  0.80691016  0.79617857  -0.00146650  1
  Mo  Mo193  1  0.50182138  0.29972494  0.88085465  1
  Mo  Mo194  1  0.40150338  0.60262546  0.25179899  1
  Mo  Mo195  1  0.69480201  0.90241629  0.89436769  1
  Mo  Mo196  1  0.90183600  0.50236948  0.87844439  1
  Mo  Mo197  1  0.80570723  0.18465821  0.49249458  1
  Mo  Mo198  1  0.29550026  0.29614527  0.12426014  1
  Mo  Mo199  1  0.58909961  0.00266505  0.00258137  1
