# generated using pymatgen
data_HfZrTaTiMo
_symmetry_space_group_name_H-M   'P 1'
_cell_length_a   15.20917085
_cell_length_b   15.24222485
_cell_length_c   16.80913259
_cell_angle_alpha   90.08368247
_cell_angle_beta   90.01429680
_cell_angle_gamma   90.08134364
_symmetry_Int_Tables_number   1
_chemical_formula_structural   HfZrTaTiMo
_chemical_formula_sum   'Hf40 Zr40 Ta40 Ti40 Mo40'
_cell_volume   3896.71183586
_cell_formula_units_Z   40
loop_
 _symmetry_equiv_pos_site_id
 _symmetry_equiv_pos_as_xyz
  1  'x, y, z'
loop_
 _atom_site_type_symbol
 _atom_site_label
 _atom_site_symmetry_multiplicity
 _atom_site_fract_x
 _atom_site_fract_y
 _atom_site_fract_z
 _atom_site_occupancy
  Hf  Hf0  1  0.58158360  0.80109896  0.02593377  1
  Hf  Hf1  1  0.60589456  -0.01830899  0.22977366  1
  Hf  Hf2  1  0.40678725  0.61070267  0.00819492  1
  Hf  Hf3  1  0.20700807  -0.02351449  0.26466022  1
  Hf  Hf4  1  0.51680077  0.89180094  0.37687651  1
  Hf  Hf5  1  0.89613040  0.69207189  0.13341613  1
  Hf  Hf6  1  0.78616209  0.19683367  0.48208717  1
  Hf  Hf7  1  0.10976808  0.88767896  0.12829533  1
  Hf  Hf8  1  0.49469274  0.90935377  0.88530958  1
  Hf  Hf9  1  0.19084757  0.40516193  0.01746659  1
  Hf  Hf10  1  0.62054998  0.00000730  0.51037178  1
  Hf  Hf11  1  0.70774499  0.30719788  0.12959991  1
  Hf  Hf12  1  0.30026511  0.07524647  0.12023831  1
  Hf  Hf13  1  0.81106433  0.42267609  0.00043216  1
  Hf  Hf14  1  0.69126663  0.71173183  0.61638103  1
  Hf  Hf15  1  0.80211318  -0.00246130  0.00036672  1
  Hf  Hf16  1  0.60899639  0.81012305  0.75010393  1
  Hf  Hf17  1  0.90392265  0.09522769  0.13264940  1
  Hf  Hf18  1  0.59842084  0.41114679  -0.00166810  1
  Hf  Hf19  1  0.90431450  0.89686324  0.63787565  1
  Hf  Hf20  1  0.69602832  0.70456676  0.14790113  1
  Hf  Hf21  1  0.90594709  0.30588209  0.87011845  1
  Hf  Hf22  1  0.40063896  0.41013227  0.00560628  1
  Hf  Hf23  1  0.20382276  0.40476581  0.73135131  1
  Hf  Hf24  1  0.68514272  0.09346941  0.88204621  1
  Hf  Hf25  1  0.19134751  0.40701903  0.24038460  1
  Hf  Hf26  1  0.39706116  0.79088707  0.49338475  1
  Hf  Hf27  1  0.09527440  0.68636103  0.12877711  1
  Hf  Hf28  1  0.00248267  0.19893620  0.00350029  1
  Hf  Hf29  1  0.30565418  0.51149340  0.38494937  1
  Hf  Hf30  1  0.69860613  0.70284332  0.87509056  1
  Hf  Hf31  1  0.00207920  0.20351361  0.48945029  1
  Hf  Hf32  1  0.40792375  0.40754839  0.75848447  1
  Hf  Hf33  1  0.70934685  0.29979698  0.88035796  1
  Hf  Hf34  1  0.60961149  0.60217739  0.00373964  1
  Hf  Hf35  1  0.90498310  0.49820223  0.39999137  1
  Hf  Hf36  1  0.88746976  0.31386183  0.60140673  1
  Hf  Hf37  1  0.79415912  0.79623455  0.00749743  1
  Hf  Hf38  1  0.00257083  0.20527309  0.26705973  1
  Hf  Hf39  1  0.48660318  0.69320375  0.36130193  1
  Zr  Zr40  1  0.89614223  0.69260688  0.87376694  1
  Zr  Zr41  1  0.29559424  0.70680945  0.87733472  1
  Zr  Zr42  1  0.31932558  0.09972357  0.62357964  1
  Zr  Zr43  1  0.90358444  0.10220925  0.62684416  1
  Zr  Zr44  1  0.20279152  0.19567748  0.74213487  1
  Zr  Zr45  1  0.20443761  0.20346970  0.50775042  1
  Zr  Zr46  1  0.90114421  0.10110277  0.86593217  1
  Zr  Zr47  1  0.21202808  -0.00903424  0.49448851  1
  Zr  Zr48  1  0.76781583  -0.00391385  0.74289783  1
  Zr  Zr49  1  0.51105976  0.09957704  0.37425900  1
  Zr  Zr50  1  0.00196632  -0.01578673  0.49296450  1
  Zr  Zr51  1  0.71227995  0.50637613  0.13955626  1
  Zr  Zr52  1  0.19301840  0.59750622  0.74866397  1
  Zr  Zr53  1  0.59141740  0.59374165  0.74806909  1
  Zr  Zr54  1  0.00295402  0.40700137  0.72393020  1
  Zr  Zr55  1  0.60209502  0.19631421  0.01672626  1
  Zr  Zr56  1  0.79699760  0.59094046  0.73000979  1
  Zr  Zr57  1  0.00342239  0.79875325  -0.00445170  1
  Zr  Zr58  1  -0.00104698  0.60797866  0.73260782  1
  Zr  Zr59  1  0.10398179  0.48561795  0.39328199  1
  Zr  Zr60  1  0.78356972  0.60880664  0.48856287  1
  Zr  Zr61  1  0.41425745  0.19531311  0.74932852  1
  Zr  Zr62  1  0.80173897  0.20453519  0.26717986  1
  Zr  Zr63  1  0.90385180  0.30607992  0.13153223  1
  Zr  Zr64  1  0.28773226  0.70517431  0.62745547  1
  Zr  Zr65  1  0.50402782  0.29501685  0.88398013  1
  Zr  Zr66  1  0.19265350  0.19546089  0.01180943  1
  Zr  Zr67  1  0.56046120  0.00582245  0.72497866  1
  Zr  Zr68  1  0.19831928  0.19911420  0.24259270  1
  Zr  Zr69  1  0.31320523  0.90393483  0.63735392  1
  Zr  Zr70  1  0.79903885  0.20788917  0.73967561  1
  Zr  Zr71  1  0.29146059  0.71749897  0.12587300  1
  Zr  Zr72  1  0.58565271  0.59528296  0.48921858  1
  Zr  Zr73  1  0.10146833  0.31257815  0.86824206  1
  Zr  Zr74  1  0.30040886  0.29640219  0.88247597  1
  Zr  Zr75  1  0.10739106  0.88677788  0.63600372  1
  Zr  Zr76  1  0.60791349  0.39998717  0.75318677  1
  Zr  Zr77  1  0.40998198  0.80044404  0.74944451  1
  Zr  Zr78  1  0.31512212  0.10689801  0.37698814  1
  Zr  Zr79  1  0.10398901  0.09544038  0.37369667  1
  Ta  Ta80  1  0.80283417  0.40530341  0.27946685  1
  Ta  Ta81  1  0.29267528  0.50230585  0.88136055  1
  Ta  Ta82  1  0.70912113  0.09672442  0.13017041  1
  Ta  Ta83  1  0.50000929  0.31160780  0.13773683  1
  Ta  Ta84  1  0.69016105  0.72066918  0.36242515  1
  Ta  Ta85  1  0.80350486  0.60378438  0.27575090  1
  Ta  Ta86  1  0.48817602  0.29933243  0.35353430  1
  Ta  Ta87  1  0.89943110  0.71478083  0.38524001  1
  Ta  Ta88  1  0.09624129  0.68800627  0.38850141  1
  Ta  Ta89  1  0.00644279  0.79302742  0.26222507  1
  Ta  Ta90  1  0.09447412  0.08426335  0.13349290  1
  Ta  Ta91  1  0.20738105  0.39291005  0.51191003  1
  Ta  Ta92  1  0.00617082  -0.00261771  -0.00521082  1
  Ta  Ta93  1  0.60751969  0.19576837  0.74534297  1
  Ta  Ta94  1  -0.00551807  -0.01430075  0.25969354  1
  Ta  Ta95  1  0.30434911  0.30596999  0.13011327  1
  Ta  Ta96  1  0.90228211  0.71013444  0.60648060  1
  Ta  Ta97  1  -0.00158582  0.59203160  0.26465523  1
  Ta  Ta98  1  0.00769170  0.40412894  0.00827823  1
  Ta  Ta99  1  0.41575601  -0.00196520  0.50093044  1
  Ta  Ta100  1  0.91438445  0.49791095  0.86837778  1
  Ta  Ta101  1  0.68085872  0.29378150  0.60860470  1
  Ta  Ta102  1  0.32457273  0.31178041  0.62142155  1
  Ta  Ta103  1  0.40361501  0.19582911  0.02061097  1
  Ta  Ta104  1  0.40595682  -0.00658494  0.24846574  1
  Ta  Ta105  1  -0.00623878  0.58548405  0.00135808  1
  Ta  Ta106  1  0.19800390  0.80022587  0.47936917  1
  Ta  Ta107  1  0.29912939  0.31306212  0.36711014  1
  Ta  Ta108  1  0.71479059  0.90688443  0.37030851  1
  Ta  Ta109  1  0.19414718  0.60718064  0.25827149  1
  Ta  Ta110  1  0.30271236  0.09281738  0.88917382  1
  Ta  Ta111  1  0.39947204  0.59219797  0.75372337  1
  Ta  Ta112  1  0.31170210  0.51011901  0.60842218  1
  Ta  Ta113  1  0.40057902  0.19658952  0.23518173  1
  Ta  Ta114  1  0.60274077  0.40022777  0.25913288  1
  Ta  Ta115  1  0.59870067  0.19634373  0.23903109  1
  Ta  Ta116  1  0.89890823  0.89842985  0.86228391  1
  Ta  Ta117  1  0.18781064  0.59819330  -0.00364118  1
  Ta  Ta118  1  0.49698206  0.48027190  0.61092410  1
  Ta  Ta119  1  0.28999533  0.90103315  0.87072820  1
  Ti  Ti120  1  0.79572803  0.81818419  0.49821069  1
  Ti  Ti121  1  0.38397734  0.81945271  0.00813616  1
  Ti  Ti122  1  0.41134812  0.22280666  0.49441487  1
  Ti  Ti123  1  0.58662136  -0.00322375  0.02606547  1
  Ti  Ti124  1  0.00990958  0.20378372  0.73799993  1
  Ti  Ti125  1  0.69938799  0.48284615  0.60608931  1
  Ti  Ti126  1  0.10554182  0.51107383  0.59852024  1
  Ti  Ti127  1  0.20334302  -0.00011387  0.75658414  1
  Ti  Ti128  1  -0.00065456  0.39530264  0.26013663  1
  Ti  Ti129  1  0.49391654  0.09952231  0.88570643  1
  Ti  Ti130  1  0.38842807  0.80854165  0.25145558  1
  Ti  Ti131  1  0.51827030  0.13163871  0.60025818  1
  Ti  Ti132  1  0.80066505  0.40500227  0.74148883  1
  Ti  Ti133  1  0.51922628  0.87337899  0.60303578  1
  Ti  Ti134  1  0.71391804  0.50798335  0.87327155  1
  Ti  Ti135  1  0.69755292  0.08992573  0.36013246  1
  Ti  Ti136  1  0.10376552  0.09103599  0.62604529  1
  Ti  Ti137  1  0.49154722  0.48874265  0.36764226  1
  Ti  Ti138  1  0.29195216  0.51233067  0.12649503  1
  Ti  Ti139  1  0.10385598  0.09535888  0.87424249  1
  Ti  Ti140  1  0.09359009  0.70517873  0.60720755  1
  Ti  Ti141  1  0.48910549  0.68260184  0.61977907  1
  Ti  Ti142  1  0.50114150  0.50614892  0.13822247  1
  Ti  Ti143  1  0.80594886  0.00143077  0.50789952  1
  Ti  Ti144  1  0.19750875  -0.01937300  -0.00291737  1
  Ti  Ti145  1  0.90696795  0.50270233  0.14143839  1
  Ti  Ti146  1  0.59599062  0.38379609  0.47795314  1
  Ti  Ti147  1  0.80516418  0.19933549  0.00199750  1
  Ti  Ti148  1  0.39096911  0.59824132  0.24192823  1
  Ti  Ti149  1  0.49963077  0.70080235  0.87662348  1
  Ti  Ti150  1  0.80366968  0.81771912  0.24941234  1
  Ti  Ti151  1  0.89900290  0.50769043  0.59484053  1
  Ti  Ti152  1  0.59873606  0.59607242  0.25990392  1
  Ti  Ti153  1  0.09568017  0.69689465  0.87439267  1
  Ti  Ti154  1  0.00652178  0.00304365  0.75500843  1
  Ti  Ti155  1  0.09800008  0.89247562  0.86589110  1
  Ti  Ti156  1  0.69212250  0.89863115  0.88732460  1
  Ti  Ti157  1  0.90383120  0.89987124  0.12832665  1
  Ti  Ti158  1  0.89035228  0.08004529  0.37108226  1
  Ti  Ti159  1  0.80488267  0.79397018  0.74680471  1
  Mo  Mo160  1  0.80538260  0.59824154  0.00208795  1
  Mo  Mo161  1  0.61019042  0.79357246  0.49258458  1
  Mo  Mo162  1  0.18510099  0.79849027  0.75695844  1
  Mo  Mo163  1  0.38676075  0.00700727  0.77221311  1
  Mo  Mo164  1  0.09371589  0.29619418  0.13018965  1
  Mo  Mo165  1  0.10932992  0.30672529  0.38006881  1
  Mo  Mo166  1  0.49265834  0.51451423  0.88009696  1
  Mo  Mo167  1  0.08829590  0.50279097  0.13651128  1
  Mo  Mo168  1  0.59819186  0.20283197  0.47922160  1
  Mo  Mo169  1  0.29304700  0.89691355  0.12683940  1
  Mo  Mo170  1  0.68896860  0.50360612  0.36931707  1
  Mo  Mo171  1  0.40123232  0.59744148  0.49918691  1
  Mo  Mo172  1  0.40522502  0.39732871  0.49061968  1
  Mo  Mo173  1  0.80482867  -0.00182930  0.24367713  1
  Mo  Mo174  1  0.09912619  0.50562821  0.87720780  1
  Mo  Mo175  1  0.70093880  0.10945770  0.61766842  1
  Mo  Mo176  1  0.50775567  0.30573512  0.61996905  1
  Mo  Mo177  1  0.89419444  0.89654781  0.37267164  1
  Mo  Mo178  1  -0.00019588  0.60681905  0.50564652  1
  Mo  Mo179  1  0.10432778  0.29612528  0.62305584  1
  Mo  Mo180  1  -0.00294110  0.80164609  0.49392244  1
  Mo  Mo181  1  0.29714493  0.70043260  0.36653498  1
  Mo  Mo182  1  0.00877171  0.39428702  0.51504771  1
  Mo  Mo183  1  0.70858586  0.90046022  0.12112310  1
  Mo  Mo184  1  0.31696953  0.89845733  0.37934464  1
  Mo  Mo185  1  0.68597786  0.29534640  0.36747934  1
  Mo  Mo186  1  0.39590673  0.40802582  0.23939559  1
  Mo  Mo187  1  0.09700739  0.88635729  0.37245805  1
  Mo  Mo188  1  0.19269594  0.79916687  -0.01012195  1
  Mo  Mo189  1  0.20486558  0.60860316  0.50087264  1
  Mo  Mo190  1  0.70817988  0.89897188  0.62304570  1
  Mo  Mo191  1  0.49952106  0.10036928  0.12963345  1
  Mo  Mo192  1  0.78426568  0.39893364  0.48253319  1
  Mo  Mo193  1  0.59084052  0.79865101  0.23966725  1
  Mo  Mo194  1  0.19737375  0.79074287  0.27189724  1
  Mo  Mo195  1  -0.00218591  0.79962777  0.75758519  1
  Mo  Mo196  1  0.49378425  0.69380353  0.14910672  1
  Mo  Mo197  1  0.90418907  0.30666128  0.38898446  1
  Mo  Mo198  1  0.39742286  0.00110937  -0.00183182  1
  Mo  Mo199  1  0.47515018  0.89777470  0.12683414  1
