# generated using pymatgen
data_HfZrTaTiMo
_symmetry_space_group_name_H-M   'P 1'
_cell_length_a   15.21395206
_cell_length_b   15.21285068
_cell_length_c   16.83898072
_cell_angle_alpha   90.05520264
_cell_angle_beta   89.96948887
_cell_angle_gamma   90.09160981
_symmetry_Int_Tables_number   1
_chemical_formula_structural   HfZrTaTiMo
_chemical_formula_sum   'Hf40 Zr40 Ta40 Ti40 Mo40'
_cell_volume   3897.33401150
_cell_formula_units_Z   40
loop_
 _symmetry_equiv_pos_site_id
 _symmetry_equiv_pos_as_xyz
  1  'x, y, z'
loop_
 _atom_site_type_symbol
 _atom_site_label
 _atom_site_symmetry_multiplicity
 _atom_site_fract_x
 _atom_site_fract_y
 _atom_site_fract_z
 _atom_site_occupancy
  Hf  Hf0  1  0.00136314  0.37234525  0.25731826  1
  Hf  Hf1  1  0.49037145  0.29329305  0.63062665  1
  Hf  Hf2  1  0.90835706  0.47614301  0.11743461  1
  Hf  Hf3  1  0.71366392  0.91556733  0.12286709  1
  Hf  Hf4  1  0.19665623  0.58936169  0.75553026  1
  Hf  Hf5  1  0.19202967  0.40446355  0.26204933  1
  Hf  Hf6  1  0.90283014  0.69902067  0.13381547  1
  Hf  Hf7  1  0.80291337  0.41552891  0.76148379  1
  Hf  Hf8  1  0.89214744  0.11143696  0.13406768  1
  Hf  Hf9  1  0.68394339  0.29899394  0.87849864  1
  Hf  Hf10  1  0.00620083  0.58733112  -0.00507139  1
  Hf  Hf11  1  0.20911337  0.19736324  -0.01479105  1
  Hf  Hf12  1  0.69704435  0.69929109  0.87551979  1
  Hf  Hf13  1  0.58618954  0.80018545  0.74708811  1
  Hf  Hf14  1  0.90814844  0.48983430  0.38283756  1
  Hf  Hf15  1  0.10175303  0.09799423  0.11898125  1
  Hf  Hf16  1  0.49338069  0.91999965  0.88685210  1
  Hf  Hf17  1  0.79345004  0.18970837  -0.00888785  1
  Hf  Hf18  1  0.39437697  0.41208957  0.24549936  1
  Hf  Hf19  1  0.57471432  0.79292563  0.49425920  1
  Hf  Hf20  1  0.80562413  0.80689637  0.00319758  1
  Hf  Hf21  1  0.28635404  0.30783669  0.12081274  1
  Hf  Hf22  1  0.59429407  0.59423787  0.50393860  1
  Hf  Hf23  1  0.49294389  0.10572341  0.35802903  1
  Hf  Hf24  1  0.29613186  0.28952715  0.62066426  1
  Hf  Hf25  1  0.30837412  0.71908487  0.62357020  1
  Hf  Hf26  1  0.19874994  0.18837768  0.76241899  1
  Hf  Hf27  1  0.80337975  0.00857370  0.26598942  1
  Hf  Hf28  1  0.11416740  0.90148683  0.61013942  1
  Hf  Hf29  1  0.08308955  0.29515444  0.11585523  1
  Hf  Hf30  1  0.50625230  0.29279081  0.12748270  1
  Hf  Hf31  1  0.01124364  0.41917449  0.76913091  1
  Hf  Hf32  1  0.49309811  0.49826337  0.63512235  1
  Hf  Hf33  1  0.79753489  -0.00057144  0.72896029  1
  Hf  Hf34  1  0.49508398  0.30453171  0.36875889  1
  Hf  Hf35  1  0.09813124  0.11137529  0.38894106  1
  Hf  Hf36  1  0.79993384  0.39171420  0.25033120  1
  Hf  Hf37  1  0.39494916  -0.01448676  0.48644800  1
  Hf  Hf38  1  0.39918047  0.59859559  0.01756713  1
  Hf  Hf39  1  0.90072476  0.11022096  0.38669627  1
  Zr  Zr40  1  0.59736054  0.39329881  0.50287696  1
  Zr  Zr41  1  0.19186713  0.00246494  0.25650825  1
  Zr  Zr42  1  0.10376755  0.90750207  0.88932807  1
  Zr  Zr43  1  0.10507144  0.31498204  0.63264917  1
  Zr  Zr44  1  0.58983241  0.00359266  0.48599334  1
  Zr  Zr45  1  0.82055194  0.79669801  0.50618054  1
  Zr  Zr46  1  0.68686061  0.70382744  0.13502204  1
  Zr  Zr47  1  0.69538436  0.69439261  0.62399346  1
  Zr  Zr48  1  0.80360133  0.59468327  0.49468683  1
  Zr  Zr49  1  0.90563206  0.11208319  0.62181015  1
  Zr  Zr50  1  0.89686922  0.08864845  0.85898069  1
  Zr  Zr51  1  0.70733020  0.30890591  0.11413872  1
  Zr  Zr52  1  0.30999157  0.71123815  0.35346271  1
  Zr  Zr53  1  0.10323321  0.89624774  0.11995976  1
  Zr  Zr54  1  0.09727164  0.70526928  0.62645205  1
  Zr  Zr55  1  0.39321918  0.80018485  0.01166492  1
  Zr  Zr56  1  0.80140105  0.00240840  0.50575941  1
  Zr  Zr57  1  0.80251311  0.59590729  0.25306464  1
  Zr  Zr58  1  -0.03395356  -0.01026504  0.00911827  1
  Zr  Zr59  1  0.80039495  0.80131384  0.73606938  1
  Zr  Zr60  1  -0.00355939  0.19706206  -0.01474935  1
  Zr  Zr61  1  0.69838612  0.29596032  0.62838175  1
  Zr  Zr62  1  0.50776722  0.90019463  0.13820727  1
  Zr  Zr63  1  0.19384096  0.80709879  0.76006016  1
  Zr  Zr64  1  -0.00043686  0.78829382  0.00237945  1
  Zr  Zr65  1  0.70091228  0.90942045  0.87958292  1
  Zr  Zr66  1  0.89841111  0.68670047  0.85859374  1
  Zr  Zr67  1  0.30644961  0.50649105  0.37978896  1
  Zr  Zr68  1  0.60882422  0.00874081  0.26029632  1
  Zr  Zr69  1  0.68168020  0.90455912  0.61295159  1
  Zr  Zr70  1  0.49246290  0.69125485  0.87765868  1
  Zr  Zr71  1  0.01706188  -0.00377036  0.73729986  1
  Zr  Zr72  1  0.38441220  0.81620077  0.76980516  1
  Zr  Zr73  1  0.50036667  0.12046824  0.88082433  1
  Zr  Zr74  1  0.28679802  0.49064217  0.62414452  1
  Zr  Zr75  1  0.11794336  0.69259819  0.12907150  1
  Zr  Zr76  1  0.68624108  0.49498348  0.37304320  1
  Zr  Zr77  1  0.50885964  0.67908436  0.34241931  1
  Zr  Zr78  1  0.01549467  0.58293381  0.25196636  1
  Zr  Zr79  1  0.40330120  0.61394990  0.50378737  1
  Ta  Ta80  1  0.49019268  0.88487925  0.34871210  1
  Ta  Ta81  1  0.59656140  0.80158041  0.00329389  1
  Ta  Ta82  1  0.11610986  0.10950512  0.61055545  1
  Ta  Ta83  1  0.60647528  0.59305006  0.74682738  1
  Ta  Ta84  1  0.21850430  0.80587581  0.48784982  1
  Ta  Ta85  1  0.90923260  0.68036860  0.63835318  1
  Ta  Ta86  1  0.00436210  0.60723370  0.49179148  1
  Ta  Ta87  1  0.39564428  0.39695807  0.49459309  1
  Ta  Ta88  1  0.11843211  0.48461418  0.11022555  1
  Ta  Ta89  1  0.10881664  0.70099799  0.36865653  1
  Ta  Ta90  1  0.49042671  0.09408500  0.62628586  1
  Ta  Ta91  1  0.70134286  0.28608895  0.37841780  1
  Ta  Ta92  1  0.20372586  0.39878011  -0.02556879  1
  Ta  Ta93  1  0.00606731  0.39245874  -0.02440479  1
  Ta  Ta94  1  0.19429992  0.60588259  0.49738178  1
  Ta  Ta95  1  0.47159848  0.89452821  0.62615119  1
  Ta  Ta96  1  0.70078231  0.89124707  0.37952944  1
  Ta  Ta97  1  0.30630944  0.07781566  0.88002529  1
  Ta  Ta98  1  0.80060597  0.59777256  0.00461155  1
  Ta  Ta99  1  0.80506436  0.80873757  0.25680245  1
  Ta  Ta100  1  0.32165087  0.50022754  0.87291128  1
  Ta  Ta101  1  0.51090313  0.50089799  0.12694869  1
  Ta  Ta102  1  0.10062763  0.69495710  0.87063916  1
  Ta  Ta103  1  0.69356534  0.09749769  0.86827316  1
  Ta  Ta104  1  0.91023843  0.89958099  0.37682156  1
  Ta  Ta105  1  0.00760672  0.22016994  0.50977412  1
  Ta  Ta106  1  0.21556879  0.38681311  0.77729784  1
  Ta  Ta107  1  0.59695921  0.40268808  0.75288589  1
  Ta  Ta108  1  0.29930341  0.10369834  0.13407473  1
  Ta  Ta109  1  0.39459742  0.00732393  0.01954915  1
  Ta  Ta110  1  0.79507328  0.20402945  0.74982456  1
  Ta  Ta111  1  0.18069828  0.20967381  0.25527573  1
  Ta  Ta112  1  0.89959791  0.32350479  0.62589748  1
  Ta  Ta113  1  0.89691900  0.29674128  0.86402242  1
  Ta  Ta114  1  0.71525864  0.49236886  0.62527630  1
  Ta  Ta115  1  0.68630205  0.11667038  0.12713872  1
  Ta  Ta116  1  0.90112419  0.89297511  0.86232780  1
  Ta  Ta117  1  0.58632283  0.00395925  0.74594315  1
  Ta  Ta118  1  0.00582208  0.80746720  0.25387494  1
  Ta  Ta119  1  0.10026035  0.89750092  0.38514915  1
  Ti  Ti120  1  0.38483679  0.20681270  0.24763847  1
  Ti  Ti121  1  0.20990627  0.79278713  -0.00768452  1
  Ti  Ti122  1  0.21188403  0.59911630  -0.00714432  1
  Ti  Ti123  1  0.20896708  0.00666902  0.49139400  1
  Ti  Ti124  1  0.59291923  0.19333464  0.49856874  1
  Ti  Ti125  1  0.21649886  0.59322344  0.24125814  1
  Ti  Ti126  1  0.59567315  0.19871739  0.74863605  1
  Ti  Ti127  1  0.60158796  0.39756248  0.25006240  1
  Ti  Ti128  1  0.80823866  0.40118164  -0.01400585  1
  Ti  Ti129  1  0.68647293  0.10600330  0.62513285  1
  Ti  Ti130  1  0.59417304  0.40513770  -0.00245157  1
  Ti  Ti131  1  0.70267743  0.50141554  0.11958660  1
  Ti  Ti132  1  -0.00143823  -0.00648045  0.50841539  1
  Ti  Ti133  1  -0.00207989  0.00491125  0.25271626  1
  Ti  Ti134  1  0.18229636  0.39917301  0.48819241  1
  Ti  Ti135  1  0.48592419  0.31469126  0.87264714  1
  Ti  Ti136  1  0.60065823  0.60377002  0.00546625  1
  Ti  Ti137  1  0.21937162  -0.00450814  0.74973627  1
  Ti  Ti138  1  0.30401344  0.08894698  0.62325695  1
  Ti  Ti139  1  0.79495104  0.20783345  0.50589144  1
  Ti  Ti140  1  0.00136151  0.20713541  0.74608916  1
  Ti  Ti141  1  0.60138669  0.01868169  0.00779871  1
  Ti  Ti142  1  0.30340559  0.90150030  0.35198019  1
  Ti  Ti143  1  0.29851938  0.10469278  0.36598177  1
  Ti  Ti144  1  0.50678730  0.49945582  0.87070563  1
  Ti  Ti145  1  0.39221880  0.19842136  0.75507350  1
  Ti  Ti146  1  0.79919259  0.20468925  0.25697083  1
  Ti  Ti147  1  0.40379703  0.20191338  0.00619702  1
  Ti  Ti148  1  0.10208394  0.09095976  0.88060415  1
  Ti  Ti149  1  0.29572688  0.89857959  0.14007111  1
  Ti  Ti150  1  0.70202211  0.70214496  0.36608121  1
  Ti  Ti151  1  0.28692433  0.29065159  0.38474686  1
  Ti  Ti152  1  0.39844387  0.40024806  0.00384504  1
  Ti  Ti153  1  0.40082685  0.60623283  0.74851200  1
  Ti  Ti154  1  0.49667546  0.10490484  0.14052287  1
  Ti  Ti155  1  0.08008554  0.50812730  0.61987308  1
  Ti  Ti156  1  0.90235437  0.29795892  0.39159730  1
  Ti  Ti157  1  0.70067359  0.50778979  0.88106817  1
  Ti  Ti158  1  0.91020793  0.70513485  0.36927590  1
  Ti  Ti159  1  0.39562244  0.19211866  0.49659296  1
  Mo  Mo160  1  0.60478178  0.58360314  0.24142453  1
  Mo  Mo161  1  0.39991609  0.79955982  0.22766688  1
  Mo  Mo162  1  0.92228769  0.88324865  0.62505685  1
  Mo  Mo163  1  0.40102559  0.80600701  0.48820737  1
  Mo  Mo164  1  0.78995753  0.00289281  0.00154651  1
  Mo  Mo165  1  -0.00046141  0.40957845  0.50202522  1
  Mo  Mo166  1  0.20876937  0.20162581  0.49819581  1
  Mo  Mo167  1  0.40022802  0.59660058  0.22261954  1
  Mo  Mo168  1  0.90041120  0.90126491  0.14624745  1
  Mo  Mo169  1  0.01152347  0.79451166  0.48939980  1
  Mo  Mo170  1  0.89700424  0.29888725  0.11759412  1
  Mo  Mo171  1  0.21559672  -0.00470116  0.01043636  1
  Mo  Mo172  1  0.29871432  0.90458472  0.89038324  1
  Mo  Mo173  1  0.29693830  0.91150862  0.61850408  1
  Mo  Mo174  1  0.40173160  0.39917610  0.75583790  1
  Mo  Mo175  1  0.60735425  0.20939784  0.25284178  1
  Mo  Mo176  1  0.61330883  0.80034690  0.25617127  1
  Mo  Mo177  1  0.80355703  0.38981879  0.50019786  1
  Mo  Mo178  1  0.29782810  0.70399009  0.13518253  1
  Mo  Mo179  1  0.79373635  0.59126452  0.74825938  1
  Mo  Mo180  1  0.29369018  0.49814894  0.11510826  1
  Mo  Mo181  1  0.49653462  0.70304818  0.63732873  1
  Mo  Mo182  1  0.70170478  0.10979641  0.38314385  1
  Mo  Mo183  1  -0.00014794  0.80269120  0.74870615  1
  Mo  Mo184  1  0.10197318  0.29034175  0.86594766  1
  Mo  Mo185  1  0.09453935  0.30188050  0.38489875  1
  Mo  Mo186  1  0.39706044  0.01019148  0.75013879  1
  Mo  Mo187  1  0.89565524  0.49909125  0.88841079  1
  Mo  Mo188  1  0.31697283  0.28803088  0.88055114  1
  Mo  Mo189  1  0.19567985  0.80134015  0.25739802  1
  Mo  Mo190  1  0.50429871  0.69711686  0.13418980  1
  Mo  Mo191  1  0.29202858  0.68969733  0.87868629  1
  Mo  Mo192  1  0.90616185  0.50119908  0.62137243  1
  Mo  Mo193  1  0.10422913  0.50773746  0.38173485  1
  Mo  Mo194  1  -0.00003936  0.59603151  0.75514126  1
  Mo  Mo195  1  0.11263471  0.50480778  0.88316873  1
  Mo  Mo196  1  -0.00695944  0.19222115  0.25606587  1
  Mo  Mo197  1  0.59103847  0.20407811  0.00046407  1
  Mo  Mo198  1  0.49459344  0.49087994  0.36919590  1
  Mo  Mo199  1  0.39403436  0.00802316  0.24238794  1
