# generated using pymatgen
data_HfZrTaTiMo
_symmetry_space_group_name_H-M   'P 1'
_cell_length_a   15.20965904
_cell_length_b   15.22070932
_cell_length_c   16.84102270
_cell_angle_alpha   89.96822788
_cell_angle_beta   90.00684244
_cell_angle_gamma   90.01417425
_symmetry_Int_Tables_number   1
_chemical_formula_structural   HfZrTaTiMo
_chemical_formula_sum   'Hf40 Zr40 Ta40 Ti40 Mo40'
_cell_volume   3898.72630709
_cell_formula_units_Z   40
loop_
 _symmetry_equiv_pos_site_id
 _symmetry_equiv_pos_as_xyz
  1  'x, y, z'
loop_
 _atom_site_type_symbol
 _atom_site_label
 _atom_site_symmetry_multiplicity
 _atom_site_fract_x
 _atom_site_fract_y
 _atom_site_fract_z
 _atom_site_occupancy
  Hf  Hf0  1  0.70945011  0.49230804  0.61686558  1
  Hf  Hf1  1  0.20705492  -0.00002852  0.50613990  1
  Hf  Hf2  1  0.10939241  0.11125676  0.36313422  1
  Hf  Hf3  1  0.50563708  0.50649314  0.86150200  1
  Hf  Hf4  1  0.80453769  0.00941530  0.74791781  1
  Hf  Hf5  1  0.69597672  0.29736660  0.14999194  1
  Hf  Hf6  1  0.40128603  0.78998742  0.76710556  1
  Hf  Hf7  1  0.87735035  0.30115378  0.62223422  1
  Hf  Hf8  1  0.18684852  0.17626839  0.74053089  1
  Hf  Hf9  1  0.38820727  0.39247074  0.50011676  1
  Hf  Hf10  1  0.90622575  0.89198056  0.63223054  1
  Hf  Hf11  1  0.82248928  0.40344435  0.75663248  1
  Hf  Hf12  1  0.29682485  0.92839027  0.86346316  1
  Hf  Hf13  1  0.02458712  0.00182881  0.76394676  1
  Hf  Hf14  1  0.70860322  0.90413152  0.88773492  1
  Hf  Hf15  1  0.48563805  0.10894674  0.14001834  1
  Hf  Hf16  1  0.60244997  0.40876583  0.00258384  1
  Hf  Hf17  1  0.69618825  0.71620911  0.62276541  1
  Hf  Hf18  1  0.50230527  0.29853772  0.62316349  1
  Hf  Hf19  1  0.20762337  0.59321733  0.23295370  1
  Hf  Hf20  1  0.39188149  0.21125911  0.00175361  1
  Hf  Hf21  1  0.61333379  0.19411475  0.74379387  1
  Hf  Hf22  1  0.51498789  0.88482451  0.62552822  1
  Hf  Hf23  1  -0.01360319  0.40652088  0.49667322  1
  Hf  Hf24  1  0.39655557  0.17375840  0.74452217  1
  Hf  Hf25  1  0.00432179  0.20769957  0.49565819  1
  Hf  Hf26  1  0.59435991  0.20812699  0.00658271  1
  Hf  Hf27  1  0.80308324  0.61524994  0.23706286  1
  Hf  Hf28  1  0.60749857  0.60743862  0.75021157  1
  Hf  Hf29  1  -0.01315782  0.20753684  0.75977216  1
  Hf  Hf30  1  0.60533586  -0.00176754  0.74307563  1
  Hf  Hf31  1  0.08664595  0.49072024  0.89141352  1
  Hf  Hf32  1  0.80295683  0.00022364  0.50843250  1
  Hf  Hf33  1  0.71540508  0.29740352  0.87914788  1
  Hf  Hf34  1  0.79594936  0.18581134  0.02115772  1
  Hf  Hf35  1  0.89998178  0.49806837  0.35896865  1
  Hf  Hf36  1  0.00327851  0.78686943  0.75765038  1
  Hf  Hf37  1  0.91738479  0.10244342  0.62284059  1
  Hf  Hf38  1  0.49258844  0.31811784  0.14152738  1
  Hf  Hf39  1  0.91607926  0.90408142  0.10866954  1
  Zr  Zr40  1  0.10181026  0.07263976  0.12678012  1
  Zr  Zr41  1  0.38605330  0.59725655  0.49749921  1
  Zr  Zr42  1  0.21832986  0.59870638  0.00343260  1
  Zr  Zr43  1  0.10114148  0.71109690  0.11117731  1
  Zr  Zr44  1  0.40845919  0.80111354  0.49173834  1
  Zr  Zr45  1  0.29905725  0.50535916  0.64223784  1
  Zr  Zr46  1  0.68738669  0.49923439  0.14077635  1
  Zr  Zr47  1  0.49122209  0.89785229  0.12117850  1
  Zr  Zr48  1  0.21403786  0.38286473  0.00215418  1
  Zr  Zr49  1  0.59554446  0.60853937  0.48879898  1
  Zr  Zr50  1  0.60237476  0.00663484  0.24618354  1
  Zr  Zr51  1  0.00454456  0.79572857  0.50775334  1
  Zr  Zr52  1  0.10243779  0.89260825  0.37532725  1
  Zr  Zr53  1  0.49614911  0.29945920  0.86323232  1
  Zr  Zr54  1  0.89950554  0.70229453  0.37184685  1
  Zr  Zr55  1  0.61532790  0.39945294  0.74636518  1
  Zr  Zr56  1  0.18757134  0.61456292  0.75347688  1
  Zr  Zr57  1  0.31012544  0.10247729  0.36113679  1
  Zr  Zr58  1  0.80595539  0.59313414  0.49733496  1
  Zr  Zr59  1  0.41203324  0.62065786  -0.00952072  1
  Zr  Zr60  1  0.20571476  0.20436185  0.51285099  1
  Zr  Zr61  1  0.50316158  0.91171086  0.88328900  1
  Zr  Zr62  1  0.60614738  0.20188626  0.49533082  1
  Zr  Zr63  1  0.09903563  0.68692241  0.36792309  1
  Zr  Zr64  1  -0.00232317  0.18667367  0.00594959  1
  Zr  Zr65  1  0.20312168  0.38807248  0.24029678  1
  Zr  Zr66  1  0.48831147  0.68781588  0.63046398  1
  Zr  Zr67  1  0.89910617  0.68957257  0.88794695  1
  Zr  Zr68  1  0.71607795  0.91188151  0.12108118  1
  Zr  Zr69  1  0.89805755  0.09799658  0.37633724  1
  Zr  Zr70  1  0.60650845  -0.01133296  0.49875753  1
  Zr  Zr71  1  0.18556019  0.40378463  0.50680530  1
  Zr  Zr72  1  0.29059637  0.91275219  0.12969446  1
  Zr  Zr73  1  -0.00277868  -0.01129379  0.25111585  1
  Zr  Zr74  1  0.70309330  0.29312099  0.35577422  1
  Zr  Zr75  1  0.58045416  0.61422539  0.26296229  1
  Zr  Zr76  1  0.30138259  0.49940160  0.85400096  1
  Zr  Zr77  1  0.59680660  0.79110107  0.00138311  1
  Zr  Zr78  1  0.00208581  0.39705315  0.23381972  1
  Zr  Zr79  1  0.40235022  0.41402592  0.00177140  1
  Ta  Ta80  1  0.30430311  0.89993058  0.36434829  1
  Ta  Ta81  1  0.20972590  0.79700171  0.50535949  1
  Ta  Ta82  1  0.90016018  0.49925356  0.11541527  1
  Ta  Ta83  1  0.89434409  0.89283617  0.37364067  1
  Ta  Ta84  1  0.79022540  0.60004701  0.01560661  1
  Ta  Ta85  1  0.19914177  0.80178129  0.24548965  1
  Ta  Ta86  1  0.11056077  0.28204388  0.11580042  1
  Ta  Ta87  1  0.40819250  0.79191450  0.25588591  1
  Ta  Ta88  1  0.10173600  0.28894806  0.88080664  1
  Ta  Ta89  1  -0.00165353  0.19832819  0.23454164  1
  Ta  Ta90  1  0.48295133  0.29927451  0.37221111  1
  Ta  Ta91  1  0.31321898  0.90654844  0.63600326  1
  Ta  Ta92  1  0.60698485  0.80286358  0.24908778  1
  Ta  Ta93  1  0.29413961  0.29280977  0.85335656  1
  Ta  Ta94  1  0.89990645  0.68641774  0.63146939  1
  Ta  Ta95  1  0.79767994  0.79791376  0.75510253  1
  Ta  Ta96  1  0.80306045  0.39060659  0.01594602  1
  Ta  Ta97  1  0.29894134  0.30152289  0.64413364  1
  Ta  Ta98  1  0.10029302  0.49362451  0.10504626  1
  Ta  Ta99  1  0.59418723  0.40538311  0.48294163  1
  Ta  Ta100  1  0.70481158  0.09628149  0.36863064  1
  Ta  Ta101  1  0.29726024  0.70011609  0.36888258  1
  Ta  Ta102  1  0.71323665  0.50499281  0.88410247  1
  Ta  Ta103  1  0.79355695  0.80376427  0.50377584  1
  Ta  Ta104  1  0.69638077  0.09908523  0.88060395  1
  Ta  Ta105  1  0.60178655  0.01740470  0.01074784  1
  Ta  Ta106  1  0.89883832  0.49417399  0.90255132  1
  Ta  Ta107  1  0.40397582  0.00112203  0.49585413  1
  Ta  Ta108  1  0.00262913  0.59976651  0.22573556  1
  Ta  Ta109  1  0.49751366  0.08919294  0.61819784  1
  Ta  Ta110  1  0.18977384  0.60688074  0.50664744  1
  Ta  Ta111  1  0.58365534  0.40637936  0.27002557  1
  Ta  Ta112  1  0.20799311  0.18031440  -0.00618431  1
  Ta  Ta113  1  0.10244644  0.69640197  0.88868605  1
  Ta  Ta114  1  0.21221862  0.80488173  -0.01349480  1
  Ta  Ta115  1  0.90459409  0.90197038  0.88145281  1
  Ta  Ta116  1  0.80262742  0.59937785  0.75227701  1
  Ta  Ta117  1  0.71029542  0.89911420  0.36549630  1
  Ta  Ta118  1  0.90088916  0.29632486  0.35828494  1
  Ta  Ta119  1  0.70263246  0.50035124  0.36412007  1
  Ti  Ti120  1  0.38070457  0.01911755  0.00239204  1
  Ti  Ti121  1  0.71523105  0.12077994  0.61870920  1
  Ti  Ti122  1  0.80489776  0.79499671  0.00175292  1
  Ti  Ti123  1  -0.01183510  0.57921955  0.75639155  1
  Ti  Ti124  1  0.78829913  0.38480729  0.48814661  1
  Ti  Ti125  1  0.70179643  0.71181867  0.37298279  1
  Ti  Ti126  1  0.48266320  0.50700055  0.37546855  1
  Ti  Ti127  1  0.00935404  -0.00294202  0.49829419  1
  Ti  Ti128  1  0.29234914  0.70968780  0.63162183  1
  Ti  Ti129  1  0.59916110  0.60345533  0.00407226  1
  Ti  Ti130  1  0.08164987  0.50106609  0.63241800  1
  Ti  Ti131  1  0.39775448  0.19458633  0.50382330  1
  Ti  Ti132  1  0.48448518  0.52373857  0.13607439  1
  Ti  Ti133  1  0.60757519  0.80125325  0.76364603  1
  Ti  Ti134  1  0.70012604  0.69531810  0.88049235  1
  Ti  Ti135  1  0.90946742  0.30710737  0.88884653  1
  Ti  Ti136  1  0.89224429  0.10249326  0.87902128  1
  Ti  Ti137  1  0.38762204  0.42032322  0.25336214  1
  Ti  Ti138  1  0.00249232  0.59624315  0.50503376  1
  Ti  Ti139  1  0.49734915  0.49328676  0.62979388  1
  Ti  Ti140  1  0.17927464  0.39335700  0.75004761  1
  Ti  Ti141  1  0.09735947  0.70143239  0.62672480  1
  Ti  Ti142  1  0.38630435  0.22107853  0.25225423  1
  Ti  Ti143  1  0.50499192  0.90080844  0.36842820  1
  Ti  Ti144  1  0.28533591  0.50432427  0.37681748  1
  Ti  Ti145  1  0.09804821  0.49418549  0.37059572  1
  Ti  Ti146  1  0.11256078  0.90311192  0.62948849  1
  Ti  Ti147  1  0.39486902  0.80554947  -0.01369579  1
  Ti  Ti148  1  0.19646918  0.81102222  0.75946841  1
  Ti  Ti149  1  0.32190615  0.70507810  0.12955082  1
  Ti  Ti150  1  0.80333436  0.17802753  0.23484588  1
  Ti  Ti151  1  0.08493135  0.30022799  0.63359897  1
  Ti  Ti152  1  -0.01068824  0.79060319  0.23791179  1
  Ti  Ti153  1  0.18037522  -0.00634978  -0.01125337  1
  Ti  Ti154  1  0.50181312  0.10424717  0.36550900  1
  Ti  Ti155  1  0.27885238  0.30128685  0.37492812  1
  Ti  Ti156  1  0.49401239  0.09686078  0.87829966  1
  Ti  Ti157  1  0.28912516  0.11205269  0.14746887  1
  Ti  Ti158  1  0.69430901  0.70893802  0.12815532  1
  Ti  Ti159  1  0.01359754  0.81019221  -0.00942505  1
  Mo  Mo160  1  0.90461821  0.50326628  0.62742506  1
  Mo  Mo161  1  0.89029989  0.08750802  0.12758568  1
  Mo  Mo162  1  0.80240465  0.20219033  0.49038320  1
  Mo  Mo163  1  0.08806989  0.30492805  0.37031003  1
  Mo  Mo164  1  0.40043458  -0.00233090  0.25741684  1
  Mo  Mo165  1  0.69164472  0.10077576  0.13123392  1
  Mo  Mo166  1  0.29654483  0.71062280  0.87196093  1
  Mo  Mo167  1  0.00410469  0.39925571  0.75774401  1
  Mo  Mo168  1  0.09705252  0.09340583  0.61851038  1
  Mo  Mo169  1  0.80228274  0.80535156  0.24446816  1
  Mo  Mo170  1  0.38925159  0.60300630  0.25800752  1
  Mo  Mo171  1  0.69865835  0.30195015  0.61592427  1
  Mo  Mo172  1  0.49709481  0.71222145  0.37544470  1
  Mo  Mo173  1  0.71170277  0.89976333  0.63169944  1
  Mo  Mo174  1  0.41306288  -0.00341637  0.74318319  1
  Mo  Mo175  1  0.58719440  0.20315670  0.26245344  1
  Mo  Mo176  1  0.30233999  0.10631384  0.87678097  1
  Mo  Mo177  1  0.80038878  0.40340491  0.24461830  1
  Mo  Mo178  1  -0.00281011  0.60037030  0.01267443  1
  Mo  Mo179  1  0.80403927  0.00340267  -0.00866641  1
  Mo  Mo180  1  0.50126861  0.70689160  0.12807855  1
  Mo  Mo181  1  0.19122328  0.20259885  0.24775451  1
  Mo  Mo182  1  0.30366681  0.29181486  0.12869066  1
  Mo  Mo183  1  0.30953854  0.09537677  0.61535566  1
  Mo  Mo184  1  0.39974202  0.39043128  0.74175747  1
  Mo  Mo185  1  0.10540884  0.89055290  0.11967461  1
  Mo  Mo186  1  0.40072591  0.59889130  0.75043766  1
  Mo  Mo187  1  0.21325884  0.00026958  0.73690247  1
  Mo  Mo188  1  0.79738770  0.19809665  0.75767342  1
  Mo  Mo189  1  -0.00114457  0.38794898  0.01534052  1
  Mo  Mo190  1  0.10317024  0.89114052  0.86994591  1
  Mo  Mo191  1  0.89939545  0.29536825  0.13647300  1
  Mo  Mo192  1  0.20288556  -0.00806479  0.25463885  1
  Mo  Mo193  1  0.61045135  0.80328356  0.48657383  1
  Mo  Mo194  1  0.89645324  0.70390949  0.11011749  1
  Mo  Mo195  1  0.30832998  0.50000525  0.12606758  1
  Mo  Mo196  1  0.80348618  -0.00596823  0.25172283  1
  Mo  Mo197  1  0.00041313  -0.00175071  -0.01923232  1
  Mo  Mo198  1  0.10699430  0.09620836  0.87963253  1
  Mo  Mo199  1  0.50850011  0.69945922  0.87064976  1
