# generated using pymatgen
data_HfZrTaTiMo
_symmetry_space_group_name_H-M   'P 1'
_cell_length_a   15.23076461
_cell_length_b   15.21281355
_cell_length_c   16.85234462
_cell_angle_alpha   90.03096753
_cell_angle_beta   90.03226240
_cell_angle_gamma   89.92027658
_symmetry_Int_Tables_number   1
_chemical_formula_structural   HfZrTaTiMo
_chemical_formula_sum   'Hf40 Zr40 Ta40 Ti40 Mo40'
_cell_volume   3904.73016816
_cell_formula_units_Z   40
loop_
 _symmetry_equiv_pos_site_id
 _symmetry_equiv_pos_as_xyz
  1  'x, y, z'
loop_
 _atom_site_type_symbol
 _atom_site_label
 _atom_site_symmetry_multiplicity
 _atom_site_fract_x
 _atom_site_fract_y
 _atom_site_fract_z
 _atom_site_occupancy
  Hf  Hf0  1  0.39284118  0.21072267  0.75166763  1
  Hf  Hf1  1  0.89526345  0.09164091  0.36255077  1
  Hf  Hf2  1  0.41446837  0.80891675  0.50597065  1
  Hf  Hf3  1  0.88273473  0.11522297  0.12787506  1
  Hf  Hf4  1  0.90625545  0.70065584  0.87747744  1
  Hf  Hf5  1  0.09399860  0.69595984  0.38066641  1
  Hf  Hf6  1  0.20075165  0.59881097  0.25528305  1
  Hf  Hf7  1  0.89728851  0.70746766  0.37615211  1
  Hf  Hf8  1  0.69970917  0.49035119  0.62027544  1
  Hf  Hf9  1  0.79543924  0.58796902  0.75896618  1
  Hf  Hf10  1  -0.00559404  0.40969009  0.01111100  1
  Hf  Hf11  1  0.00781371  0.21094433  0.24617969  1
  Hf  Hf12  1  0.81138593  0.18286604  0.51066476  1
  Hf  Hf13  1  0.30702478  0.68155386  0.86870677  1
  Hf  Hf14  1  0.31461398  0.91478769  0.38364017  1
  Hf  Hf15  1  0.29761314  0.91164665  0.61834738  1
  Hf  Hf16  1  0.58885633  -0.02232418  0.50204364  1
  Hf  Hf17  1  0.31078131  0.50204134  0.37968482  1
  Hf  Hf18  1  0.27600731  0.89215210  0.87980980  1
  Hf  Hf19  1  0.29278143  0.10581104  0.12383439  1
  Hf  Hf20  1  0.59205932  0.39958632  0.26732483  1
  Hf  Hf21  1  0.49087664  0.50294602  0.87902003  1
  Hf  Hf22  1  0.29190632  0.11841948  0.61412276  1
  Hf  Hf23  1  0.69705836  0.08643232  0.38587937  1
  Hf  Hf24  1  0.19785380  0.01151202  0.26197301  1
  Hf  Hf25  1  0.70334983  0.88732787  0.36662979  1
  Hf  Hf26  1  -0.00480219  -0.00348000  -0.01403622  1
  Hf  Hf27  1  0.40780728  0.00375683  0.23895681  1
  Hf  Hf28  1  0.20482219  0.41415299  0.00799051  1
  Hf  Hf29  1  0.20165422  0.80314668  0.48891709  1
  Hf  Hf30  1  0.90945446  0.90561559  0.12872299  1
  Hf  Hf31  1  0.29345004  0.69724893  0.63067189  1
  Hf  Hf32  1  0.40698305  0.59810112  0.25028773  1
  Hf  Hf33  1  0.12827204  0.90391352  0.11717835  1
  Hf  Hf34  1  0.89600214  0.70114551  0.62416673  1
  Hf  Hf35  1  0.70147854  0.27848163  0.11320053  1
  Hf  Hf36  1  0.80627737  0.40561042  0.49784312  1
  Hf  Hf37  1  0.89449717  0.91066182  0.62633853  1
  Hf  Hf38  1  0.07832915  0.10614562  0.61811377  1
  Hf  Hf39  1  0.78576798  0.00721469  -0.00289400  1
  Zr  Zr40  1  0.39119926  -0.00720795  0.00879876  1
  Zr  Zr41  1  0.80834441  0.79394903  0.23419416  1
  Zr  Zr42  1  0.40471018  0.78995141  0.00516328  1
  Zr  Zr43  1  0.80506267  0.80143201  0.00672601  1
  Zr  Zr44  1  0.59526685  0.19355964  0.75454704  1
  Zr  Zr45  1  0.09347881  0.90248058  0.61876747  1
  Zr  Zr46  1  0.59977178  0.77299010  0.50000606  1
  Zr  Zr47  1  0.01787052  0.79664227  -0.00717258  1
  Zr  Zr48  1  0.20050582  0.38420205  0.25682306  1
  Zr  Zr49  1  0.80322987  0.38802252  0.74548267  1
  Zr  Zr50  1  0.69692133  0.68733411  0.88289447  1
  Zr  Zr51  1  0.20272121  0.80543559  0.26222046  1
  Zr  Zr52  1  0.09323667  0.10178508  0.11681050  1
  Zr  Zr53  1  0.20880611  0.40153561  0.49602663  1
  Zr  Zr54  1  0.78922956  0.00424850  0.76229157  1
  Zr  Zr55  1  0.09591532  0.31166551  0.88026122  1
  Zr  Zr56  1  0.10260946  0.51179584  0.12935062  1
  Zr  Zr57  1  0.71037662  0.67737755  0.12287897  1
  Zr  Zr58  1  0.19129675  0.00881714  0.75034530  1
  Zr  Zr59  1  0.88510060  0.12024004  0.88160582  1
  Zr  Zr60  1  0.50103327  0.30403714  0.11690530  1
  Zr  Zr61  1  0.42033498  0.60815630  0.50369039  1
  Zr  Zr62  1  0.59179493  0.19758560  0.25768173  1
  Zr  Zr63  1  0.68873631  0.08555905  0.61621082  1
  Zr  Zr64  1  0.18417539  0.21727957  0.49117698  1
  Zr  Zr65  1  0.79075841  0.39346122  0.24897821  1
  Zr  Zr66  1  0.40254779  0.01147389  0.75637470  1
  Zr  Zr67  1  0.59193126  -0.00367398  0.00139337  1
  Zr  Zr68  1  0.10613553  0.50650291  0.61805976  1
  Zr  Zr69  1  0.30366051  0.31187162  0.87791595  1
  Zr  Zr70  1  0.21141649  0.39818108  0.73863918  1
  Zr  Zr71  1  -0.00193280  0.20601444  0.74940907  1
  Zr  Zr72  1  0.39911580  0.80493965  0.74868714  1
  Zr  Zr73  1  -0.00003527  0.40797601  0.74723083  1
  Zr  Zr74  1  0.10379712  0.10773635  0.88307924  1
  Zr  Zr75  1  0.09453412  0.70468756  0.61989189  1
  Zr  Zr76  1  0.49097332  0.10026453  0.38823717  1
  Zr  Zr77  1  0.00895346  0.60496945  0.75810538  1
  Zr  Zr78  1  0.68864167  0.68420974  0.63076398  1
  Zr  Zr79  1  0.90458838  0.29972092  0.37824779  1
  Ta  Ta80  1  0.50192750  0.30117058  0.61561789  1
  Ta  Ta81  1  0.41568953  0.40313102  0.74336122  1
  Ta  Ta82  1  0.60243283  0.79328406  0.75353297  1
  Ta  Ta83  1  0.70634796  0.68404054  0.36209973  1
  Ta  Ta84  1  0.40299152  0.80307772  0.24089440  1
  Ta  Ta85  1  0.50007733  0.50080574  0.12362198  1
  Ta  Ta86  1  -0.01006240  0.61018749  0.24553374  1
  Ta  Ta87  1  -0.00595396  0.40964161  0.24159584  1
  Ta  Ta88  1  0.80368722  0.80006977  0.75756099  1
  Ta  Ta89  1  0.20334663  0.20709470  0.00337661  1
  Ta  Ta90  1  0.51233827  0.30395834  0.88819262  1
  Ta  Ta91  1  0.79442974  0.20184890  0.73427516  1
  Ta  Ta92  1  0.58891189  0.59532252  0.00251419  1
  Ta  Ta93  1  0.29794071  0.10551676  0.88409504  1
  Ta  Ta94  1  0.40519386  0.20051193  -0.00421267  1
  Ta  Ta95  1  0.29672870  0.70004537  0.12693784  1
  Ta  Ta96  1  0.39912105  0.41352979  0.00531245  1
  Ta  Ta97  1  0.61260813  -0.00522979  0.23446867  1
  Ta  Ta98  1  0.60026512  0.79537780  0.23642062  1
  Ta  Ta99  1  0.29919126  0.11527629  0.38279051  1
  Ta  Ta100  1  0.68713624  0.29211838  0.39842888  1
  Ta  Ta101  1  0.89642476  0.50963531  0.36763400  1
  Ta  Ta102  1  0.60324689  0.39646248  0.75244907  1
  Ta  Ta103  1  0.69396085  0.89121750  0.87444240  1
  Ta  Ta104  1  0.79549853  0.80333875  0.49931887  1
  Ta  Ta105  1  0.50647905  0.69708653  0.87069276  1
  Ta  Ta106  1  0.31741199  0.49633154  0.61587471  1
  Ta  Ta107  1  0.50281138  0.69315253  0.12805299  1
  Ta  Ta108  1  0.20682532  0.61295560  0.00414148  1
  Ta  Ta109  1  0.69501909  0.47986944  0.88713564  1
  Ta  Ta110  1  -0.01077472  -0.00261844  0.76588528  1
  Ta  Ta111  1  0.59199475  -0.00705951  0.76101112  1
  Ta  Ta112  1  0.41859841  0.39844993  0.49133488  1
  Ta  Ta113  1  0.50689893  0.10918552  0.12120623  1
  Ta  Ta114  1  0.88607926  0.51181691  0.12793999  1
  Ta  Ta115  1  0.40783514  0.59290912  0.73962094  1
  Ta  Ta116  1  0.69805732  0.88665865  0.63247676  1
  Ta  Ta117  1  0.08335413  0.91122178  0.38233479  1
  Ta  Ta118  1  0.69080195  0.29498856  0.60833535  1
  Ta  Ta119  1  0.31372930  0.70654525  0.37623978  1
  Ti  Ti120  1  0.12148518  0.71300579  0.86737788  1
  Ti  Ti121  1  -0.02372444  0.01249580  0.49654978  1
  Ti  Ti122  1  0.89428914  0.90368316  0.36856519  1
  Ti  Ti123  1  0.60265836  0.80041875  0.01301496  1
  Ti  Ti124  1  0.70528547  0.28603426  0.88537965  1
  Ti  Ti125  1  0.50629342  0.89564379  0.36369712  1
  Ti  Ti126  1  0.80570136  0.58738098  -0.00345298  1
  Ti  Ti127  1  0.12064263  0.51670152  0.87465056  1
  Ti  Ti128  1  0.00476754  0.81229680  0.76114068  1
  Ti  Ti129  1  0.90311327  0.49751589  0.88162718  1
  Ti  Ti130  1  0.00063063  -0.00082394  0.24957890  1
  Ti  Ti131  1  0.51505517  0.50374605  0.62441195  1
  Ti  Ti132  1  0.91635724  0.29069398  0.61502810  1
  Ti  Ti133  1  0.50875763  0.70012531  0.36175544  1
  Ti  Ti134  1  0.60806449  0.57533678  0.47858050  1
  Ti  Ti135  1  0.30179085  0.30462014  0.12396940  1
  Ti  Ti136  1  0.10012708  0.70783222  0.12670625  1
  Ti  Ti137  1  -0.00632334  0.58981275  0.49604784  1
  Ti  Ti138  1  0.61037182  0.58863309  0.25201333  1
  Ti  Ti139  1  0.68910187  0.48456813  0.11441908  1
  Ti  Ti140  1  0.50525637  0.89814928  0.63478366  1
  Ti  Ti141  1  0.00616687  0.60242393  -0.00059026  1
  Ti  Ti142  1  0.20508546  0.60199924  0.49206243  1
  Ti  Ti143  1  0.79893050  0.60425719  0.49576464  1
  Ti  Ti144  1  0.19091822  0.00854276  0.49028145  1
  Ti  Ti145  1  0.49826558  0.89370201  0.87566749  1
  Ti  Ti146  1  0.08999304  0.11151255  0.37759034  1
  Ti  Ti147  1  0.80213980  0.39163737  0.00724889  1
  Ti  Ti148  1  0.01269559  0.38701900  0.50045298  1
  Ti  Ti149  1  0.40094609  0.39907014  0.25448875  1
  Ti  Ti150  1  0.78485186  0.19341449  0.25640061  1
  Ti  Ti151  1  0.90282218  0.50291589  0.62116689  1
  Ti  Ti152  1  0.89153887  0.30880205  0.87907090  1
  Ti  Ti153  1  -0.01197328  0.21632314  0.00928793  1
  Ti  Ti154  1  0.00923188  0.80464859  0.24895322  1
  Ti  Ti155  1  -0.00999828  0.80940472  0.49599055  1
  Ti  Ti156  1  0.48983367  0.10019021  0.61051478  1
  Ti  Ti157  1  0.38888120  0.20999496  0.25227531  1
  Ti  Ti158  1  0.10296528  0.29959349  0.12325705  1
  Ti  Ti159  1  0.08831249  0.49309370  0.37385563  1
  Mo  Mo160  1  0.90293732  0.30935743  0.12820035  1
  Mo  Mo161  1  0.59286611  0.19818202  0.50238211  1
  Mo  Mo162  1  0.20908628  0.59759857  0.74993773  1
  Mo  Mo163  1  0.70877055  0.49563060  0.37603902  1
  Mo  Mo164  1  0.20819618  0.79457682  0.00396693  1
  Mo  Mo165  1  0.89430943  0.09820740  0.63235950  1
  Mo  Mo166  1  0.50136313  0.69900356  0.64443143  1
  Mo  Mo167  1  0.50412370  0.89454875  0.13032444  1
  Mo  Mo168  1  0.59898939  0.39961938  0.49210905  1
  Mo  Mo169  1  0.39569138  0.59600489  0.01044509  1
  Mo  Mo170  1  0.31180605  0.29620226  0.37137740  1
  Mo  Mo171  1  0.70044675  0.89720513  0.12648533  1
  Mo  Mo172  1  0.10798136  0.29488735  0.62844990  1
  Mo  Mo173  1  0.31028600  0.49898677  0.13067787  1
  Mo  Mo174  1  0.09570532  0.89853414  0.87082175  1
  Mo  Mo175  1  0.30507906  0.89684722  0.12891920  1
  Mo  Mo176  1  0.80175339  0.58959761  0.24827109  1
  Mo  Mo177  1  0.19030922  0.79648731  0.74746024  1
  Mo  Mo178  1  0.68455407  0.10414893  0.87173684  1
  Mo  Mo179  1  0.79984165  0.00092671  0.24352745  1
  Mo  Mo180  1  0.29840320  0.50256274  0.87231849  1
  Mo  Mo181  1  0.69527863  0.09727393  0.12830062  1
  Mo  Mo182  1  0.89306076  0.89743300  0.87120648  1
  Mo  Mo183  1  0.79897723  0.20556666  -0.00167281  1
  Mo  Mo184  1  0.50507530  0.50437850  0.36905291  1
  Mo  Mo185  1  0.39348123  0.00311772  0.50778589  1
  Mo  Mo186  1  0.48803940  0.29800508  0.37831367  1
  Mo  Mo187  1  0.60465087  0.39977451  -0.00163680  1
  Mo  Mo188  1  0.20253467  0.19833466  0.25729887  1
  Mo  Mo189  1  -0.00512926  0.20208476  0.49617992  1
  Mo  Mo190  1  0.31403374  0.30862896  0.62148139  1
  Mo  Mo191  1  0.91889680  0.69096582  0.11873307  1
  Mo  Mo192  1  0.39478907  0.20968560  0.50403797  1
  Mo  Mo193  1  0.19899006  0.20684729  0.74132057  1
  Mo  Mo194  1  0.59551220  0.58227193  0.75781007  1
  Mo  Mo195  1  0.60161399  0.18990788  -0.01282793  1
  Mo  Mo196  1  0.79906181  -0.01884819  0.49966817  1
  Mo  Mo197  1  0.09584136  0.30610484  0.36685881  1
  Mo  Mo198  1  0.49241109  0.10328678  0.88041620  1
  Mo  Mo199  1  0.20052497  0.00468594  -0.00471323  1
