# generated using pymatgen
data_HfZrTaTiMo
_symmetry_space_group_name_H-M   'P 1'
_cell_length_a   15.20575206
_cell_length_b   15.22567199
_cell_length_c   16.86042274
_cell_angle_alpha   89.96193723
_cell_angle_beta   90.00848596
_cell_angle_gamma   89.97884386
_symmetry_Int_Tables_number   1
_chemical_formula_structural   HfZrTaTiMo
_chemical_formula_sum   'Hf40 Zr40 Ta40 Ti40 Mo40'
_cell_volume   3903.48669781
_cell_formula_units_Z   40
loop_
 _symmetry_equiv_pos_site_id
 _symmetry_equiv_pos_as_xyz
  1  'x, y, z'
loop_
 _atom_site_type_symbol
 _atom_site_label
 _atom_site_symmetry_multiplicity
 _atom_site_fract_x
 _atom_site_fract_y
 _atom_site_fract_z
 _atom_site_occupancy
  Hf  Hf0  1  0.19797682  -0.01364453  0.49974218  1
  Hf  Hf1  1  0.69839740  0.90614774  0.12565901  1
  Hf  Hf2  1  0.20962093  0.40235148  0.25076263  1
  Hf  Hf3  1  0.11524094  0.70397449  0.12597750  1
  Hf  Hf4  1  0.00873377  0.00509975  0.23193260  1
  Hf  Hf5  1  0.18438047  0.61110019  0.50955902  1
  Hf  Hf6  1  0.89261749  0.30985480  0.37303668  1
  Hf  Hf7  1  0.29375198  0.88620368  0.88655702  1
  Hf  Hf8  1  0.49433892  0.89637485  0.12582854  1
  Hf  Hf9  1  0.49525806  0.09606309  0.12141565  1
  Hf  Hf10  1  0.69701144  0.91621761  0.88006458  1
  Hf  Hf11  1  0.80166328  0.61889163  0.00204310  1
  Hf  Hf12  1  0.91851533  0.69730924  0.61149990  1
  Hf  Hf13  1  0.19403960  0.18988353  0.24971863  1
  Hf  Hf14  1  0.38904934  0.61129756  0.51509468  1
  Hf  Hf15  1  0.69764231  0.51575307  0.86945863  1
  Hf  Hf16  1  0.20844788  0.19094193  0.49541162  1
  Hf  Hf17  1  0.09844981  0.09792087  0.62750109  1
  Hf  Hf18  1  0.78583042  0.21201670  0.24994175  1
  Hf  Hf19  1  0.17873877  0.40278540  0.75177868  1
  Hf  Hf20  1  0.51845648  0.08988756  0.87678900  1
  Hf  Hf21  1  0.01148243  0.20547614  0.76014070  1
  Hf  Hf22  1  0.28491000  0.88504614  0.10919862  1
  Hf  Hf23  1  0.58734506  0.20788024  0.25724615  1
  Hf  Hf24  1  0.90891039  0.70399568  0.87083932  1
  Hf  Hf25  1  0.31708759  0.89169485  0.61710070  1
  Hf  Hf26  1  0.00033573  0.79648254  0.01084602  1
  Hf  Hf27  1  0.89161851  0.09664618  0.86861680  1
  Hf  Hf28  1  0.89038751  0.89915105  0.88203127  1
  Hf  Hf29  1  0.61319315  0.78789012  0.00513207  1
  Hf  Hf30  1  0.10205264  0.30876173  0.61337878  1
  Hf  Hf31  1  0.20817788  0.20540467  0.76944131  1
  Hf  Hf32  1  0.00278104  0.20044739  -0.01051360  1
  Hf  Hf33  1  0.41228607  0.58453194  0.00129989  1
  Hf  Hf34  1  0.89695935  0.11105707  0.13040393  1
  Hf  Hf35  1  0.91763188  0.50458820  0.86433323  1
  Hf  Hf36  1  0.79446642  0.20790094  0.00251351  1
  Hf  Hf37  1  0.79132789  0.41753170  0.24571118  1
  Hf  Hf38  1  0.40318229  0.77274548  0.75096677  1
  Hf  Hf39  1  0.21101798  0.59903244  0.73676822  1
  Zr  Zr40  1  0.80515307  0.60418603  0.73410299  1
  Zr  Zr41  1  0.39672932  0.77681089  -0.00492382  1
  Zr  Zr42  1  0.30862767  0.87897261  0.38873115  1
  Zr  Zr43  1  0.89894557  0.30943668  0.86522545  1
  Zr  Zr44  1  0.80834856  0.79707688  0.27322591  1
  Zr  Zr45  1  0.69766478  0.29321556  0.86351717  1
  Zr  Zr46  1  0.59316887  0.60013552  0.49822777  1
  Zr  Zr47  1  0.59223825  0.60862912  0.72389387  1
  Zr  Zr48  1  0.80882699  0.41701492  0.00862569  1
  Zr  Zr49  1  0.30540333  0.29408377  0.61694275  1
  Zr  Zr50  1  0.49045551  0.49756727  0.85963813  1
  Zr  Zr51  1  0.21800506  0.78326864  0.25926194  1
  Zr  Zr52  1  0.10078045  0.30706101  0.38277267  1
  Zr  Zr53  1  0.58672616  0.00433435  0.49895359  1
  Zr  Zr54  1  0.28582023  0.09380422  0.11110905  1
  Zr  Zr55  1  0.59660118  0.40859139  -0.00511446  1
  Zr  Zr56  1  0.19877125  0.79313212  0.74965827  1
  Zr  Zr57  1  0.80136881  0.80756557  0.73642582  1
  Zr  Zr58  1  0.50376224  0.89006691  0.87808020  1
  Zr  Zr59  1  0.40917802  0.39083789  0.25601518  1
  Zr  Zr60  1  0.19972678  0.00224033  0.75182468  1
  Zr  Zr61  1  0.60478533  0.80544718  0.26514099  1
  Zr  Zr62  1  -0.01094169  0.19810265  0.50408149  1
  Zr  Zr63  1  0.09648577  0.09335949  0.37310604  1
  Zr  Zr64  1  0.60449866  0.59421572  0.27441558  1
  Zr  Zr65  1  -0.00247050  0.41058344  0.24805884  1
  Zr  Zr66  1  0.38078445  0.39843767  0.74725507  1
  Zr  Zr67  1  0.10272309  0.29445378  0.11903997  1
  Zr  Zr68  1  0.08980415  0.90121223  0.87921416  1
  Zr  Zr69  1  0.59313734  0.39347722  0.73378825  1
  Zr  Zr70  1  0.40686049  0.19316984  0.75774355  1
  Zr  Zr71  1  0.69948704  0.89625809  0.60544438  1
  Zr  Zr72  1  0.50926353  0.68833860  0.13861784  1
  Zr  Zr73  1  0.89761184  0.10821437  0.36283262  1
  Zr  Zr74  1  0.06591294  0.51230695  0.62573096  1
  Zr  Zr75  1  0.49729889  0.29648333  0.11542553  1
  Zr  Zr76  1  0.31232107  0.29206646  0.38436519  1
  Zr  Zr77  1  0.90082360  0.31019963  0.63387831  1
  Zr  Zr78  1  0.78957110  -0.00180447  0.25827797  1
  Zr  Zr79  1  0.01229935  0.80774699  0.25547904  1
  Ta  Ta80  1  0.60228299  0.80116941  0.74235220  1
  Ta  Ta81  1  0.39122472  -0.01107166  0.24770538  1
  Ta  Ta82  1  0.48141218  0.71244897  0.37526051  1
  Ta  Ta83  1  0.79607046  0.40290687  0.50432856  1
  Ta  Ta84  1  0.50089184  0.49601631  0.13284942  1
  Ta  Ta85  1  0.30068451  0.09063348  0.88620564  1
  Ta  Ta86  1  0.30127522  0.49349927  0.12236411  1
  Ta  Ta87  1  0.80783223  0.60206032  0.27012917  1
  Ta  Ta88  1  0.71502571  0.70312405  0.13549361  1
  Ta  Ta89  1  0.02692398  0.79855813  0.48219151  1
  Ta  Ta90  1  0.90805356  0.90234464  0.61407701  1
  Ta  Ta91  1  0.38517614  0.59584543  0.26083771  1
  Ta  Ta92  1  0.79407572  0.00928410  0.74071766  1
  Ta  Ta93  1  0.89995264  0.30911375  0.12953013  1
  Ta  Ta94  1  0.29926368  0.29707834  0.11122218  1
  Ta  Ta95  1  0.00289709  0.00556235  0.01322199  1
  Ta  Ta96  1  0.40200688  -0.00355031  -0.00338848  1
  Ta  Ta97  1  0.80856066  0.00862203  0.49499398  1
  Ta  Ta98  1  0.10301426  0.51028463  0.13064735  1
  Ta  Ta99  1  0.19875843  -0.01598949  0.24983769  1
  Ta  Ta100  1  0.00366269  0.60725187  0.26521662  1
  Ta  Ta101  1  0.29431476  0.49917173  0.39016953  1
  Ta  Ta102  1  0.70338036  0.71320281  0.87058794  1
  Ta  Ta103  1  0.00492257  0.59541202  0.00647994  1
  Ta  Ta104  1  0.28275860  0.49826019  0.88057497  1
  Ta  Ta105  1  0.69303891  0.51812990  0.12704727  1
  Ta  Ta106  1  0.81550210  0.79980044  0.48372387  1
  Ta  Ta107  1  0.60936344  0.18885765  0.73785904  1
  Ta  Ta108  1  0.79294816  0.00805193  0.00700763  1
  Ta  Ta109  1  -0.00124330  -0.00397645  0.50252054  1
  Ta  Ta110  1  0.60082789  -0.00468014  0.73766233  1
  Ta  Ta111  1  0.69357313  0.30862642  0.12354885  1
  Ta  Ta112  1  0.59530441  0.20820630  0.51248196  1
  Ta  Ta113  1  0.49333647  0.90900508  0.37475056  1
  Ta  Ta114  1  0.68771721  0.10637699  0.12597729  1
  Ta  Ta115  1  0.49351467  0.09115666  0.62879993  1
  Ta  Ta116  1  0.70389326  0.10231255  0.61749188  1
  Ta  Ta117  1  0.09842369  0.88988286  0.62206245  1
  Ta  Ta118  1  0.51481650  0.68413521  0.87252785  1
  Ta  Ta119  1  0.79261175  0.20361358  0.50134138  1
  Ti  Ti120  1  0.68989585  0.30501099  0.38765968  1
  Ti  Ti121  1  0.90449710  0.69070164  0.13554071  1
  Ti  Ti122  1  0.89634842  0.10158368  0.63124961  1
  Ti  Ti123  1  0.48995994  0.10441276  0.37450344  1
  Ti  Ti124  1  0.11140916  0.68781574  0.88059766  1
  Ti  Ti125  1  0.39800989  0.19781837  -0.01226948  1
  Ti  Ti126  1  0.89342085  0.89284728  0.12088543  1
  Ti  Ti127  1  0.38791669  0.39241425  -0.00728222  1
  Ti  Ti128  1  0.70216784  0.49817253  0.61257852  1
  Ti  Ti129  1  0.49171613  0.49441056  0.38598790  1
  Ti  Ti130  1  0.30753493  0.68324445  0.13047023  1
  Ti  Ti131  1  -0.00495507  -0.00645349  0.74494278  1
  Ti  Ti132  1  0.40927582  0.18544200  0.50533493  1
  Ti  Ti133  1  0.39067412  0.19103753  0.24748843  1
  Ti  Ti134  1  0.60336392  0.19241815  -0.00425877  1
  Ti  Ti135  1  -0.00856243  0.60616060  0.47497884  1
  Ti  Ti136  1  -0.00937464  0.41688427  0.49267244  1
  Ti  Ti137  1  0.79955221  0.40746149  0.73924663  1
  Ti  Ti138  1  0.80514279  0.59830965  0.48672995  1
  Ti  Ti139  1  0.69917241  0.49045516  0.38856412  1
  Ti  Ti140  1  0.60180977  0.40087992  0.25363978  1
  Ti  Ti141  1  0.30792030  0.08290253  0.37299113  1
  Ti  Ti142  1  0.40336347  -0.01258664  0.75586531  1
  Ti  Ti143  1  0.91726950  0.91054380  0.37867417  1
  Ti  Ti144  1  0.70160506  0.70519047  0.60004891  1
  Ti  Ti145  1  0.69661648  0.90270313  0.39083796  1
  Ti  Ti146  1  0.00613643  0.41223539  0.01134340  1
  Ti  Ti147  1  0.50599288  0.30291004  0.39238117  1
  Ti  Ti148  1  0.69042162  0.10811297  0.38407261  1
  Ti  Ti149  1  0.20480184  0.59703221  0.00057842  1
  Ti  Ti150  1  0.48478419  0.49490680  0.62387331  1
  Ti  Ti151  1  0.10300292  0.50556165  0.37586620  1
  Ti  Ti152  1  0.59367112  0.00929734  0.25985613  1
  Ti  Ti153  1  0.10578943  0.32743382  0.88962561  1
  Ti  Ti154  1  0.49661101  0.29560336  0.87624778  1
  Ti  Ti155  1  0.30347946  0.09286982  0.62786536  1
  Ti  Ti156  1  0.19812247  0.19930374  -0.01655442  1
  Ti  Ti157  1  0.40264185  0.39874919  0.50764733  1
  Ti  Ti158  1  0.69947495  0.29989662  0.62431103  1
  Ti  Ti159  1  0.00253782  0.79582195  0.74570883  1
  Mo  Mo160  1  0.28659132  0.48843967  0.60885277  1
  Mo  Mo161  1  0.50527840  0.71661161  0.61693992  1
  Mo  Mo162  1  0.60139238  0.00543996  0.00692592  1
  Mo  Mo163  1  0.20006977  0.58579831  0.25223113  1
  Mo  Mo164  1  0.19053801  0.00173667  -0.00950312  1
  Mo  Mo165  1  0.10641919  0.90169706  0.37659914  1
  Mo  Mo166  1  0.40350158  0.79703602  0.24719576  1
  Mo  Mo167  1  0.10584594  0.90537650  0.11491925  1
  Mo  Mo168  1  0.80479940  0.80605364  0.00960459  1
  Mo  Mo169  1  0.60701921  0.60019797  0.00163559  1
  Mo  Mo170  1  0.39421306  0.59521710  0.73116027  1
  Mo  Mo171  1  0.89628734  0.49984622  0.38087709  1
  Mo  Mo172  1  0.19520771  0.78388680  -0.00720395  1
  Mo  Mo173  1  0.30313797  0.68479888  0.37930695  1
  Mo  Mo174  1  0.10051574  0.51134501  0.88118241  1
  Mo  Mo175  1  -0.00367776  0.40836151  0.75194430  1
  Mo  Mo176  1  0.29927159  0.30136942  0.89134763  1
  Mo  Mo177  1  0.70298170  0.09875337  0.86923228  1
  Mo  Mo178  1  0.88760721  0.50447726  0.61495530  1
  Mo  Mo179  1  0.21255257  0.78772218  0.50420988  1
  Mo  Mo180  1  0.79666981  0.19608540  0.73853668  1
  Mo  Mo181  1  0.19931785  0.40958253  0.49947908  1
  Mo  Mo182  1  0.19754598  0.40752002  0.00810782  1
  Mo  Mo183  1  0.01076214  0.61264696  0.75184486  1
  Mo  Mo184  1  0.69903318  0.70020577  0.39284987  1
  Mo  Mo185  1  0.50230359  0.29349378  0.61886754  1
  Mo  Mo186  1  0.30298525  0.67750806  0.87899597  1
  Mo  Mo187  1  -0.00364492  0.20949295  0.24126118  1
  Mo  Mo188  1  0.11109882  0.69557124  0.37007340  1
  Mo  Mo189  1  0.90560692  0.70360164  0.38034158  1
  Mo  Mo190  1  0.39699104  0.01054358  0.49967590  1
  Mo  Mo191  1  0.41958556  0.80328321  0.50688888  1
  Mo  Mo192  1  0.60080127  0.79996529  0.48359091  1
  Mo  Mo193  1  0.09854399  0.09686047  0.87698190  1
  Mo  Mo194  1  0.30147285  0.69945662  0.62389326  1
  Mo  Mo195  1  0.59594497  0.39938599  0.51066958  1
  Mo  Mo196  1  0.09633973  0.71175395  0.62368943  1
  Mo  Mo197  1  0.90332407  0.51750166  0.12863812  1
  Mo  Mo198  1  0.50235152  0.89914702  0.63009630  1
  Mo  Mo199  1  0.10227154  0.09897871  0.12087750  1
