# generated using pymatgen
data_HfZrTaTiMo
_symmetry_space_group_name_H-M   'P 1'
_cell_length_a   15.20392939
_cell_length_b   15.22077772
_cell_length_c   16.81516161
_cell_angle_alpha   89.96842326
_cell_angle_beta   90.06785750
_cell_angle_gamma   90.00821159
_symmetry_Int_Tables_number   1
_chemical_formula_structural   HfZrTaTiMo
_chemical_formula_sum   'Hf40 Zr40 Ta40 Ti40 Mo40'
_cell_volume   3891.28785203
_cell_formula_units_Z   40
loop_
 _symmetry_equiv_pos_site_id
 _symmetry_equiv_pos_as_xyz
  1  'x, y, z'
loop_
 _atom_site_type_symbol
 _atom_site_label
 _atom_site_symmetry_multiplicity
 _atom_site_fract_x
 _atom_site_fract_y
 _atom_site_fract_z
 _atom_site_occupancy
  Hf  Hf0  1  0.60011746  0.21597402  -0.01509946  1
  Hf  Hf1  1  0.59826774  0.20258226  0.75183593  1
  Hf  Hf2  1  0.59420670  0.19330610  0.27020468  1
  Hf  Hf3  1  0.00195754  0.40373961  0.00917992  1
  Hf  Hf4  1  0.19336586  0.00577366  0.73960670  1
  Hf  Hf5  1  -0.00304961  0.18963765  0.74884147  1
  Hf  Hf6  1  0.09589290  0.70671087  0.61542355  1
  Hf  Hf7  1  0.89336835  0.52286334  0.13214943  1
  Hf  Hf8  1  0.11342720  0.50967753  0.87168003  1
  Hf  Hf9  1  0.19806076  -0.00546300  0.49191873  1
  Hf  Hf10  1  0.00002028  0.59792373  0.49780157  1
  Hf  Hf11  1  0.89794178  0.08698444  0.87455954  1
  Hf  Hf12  1  0.87205956  0.89497465  0.14767048  1
  Hf  Hf13  1  0.09887609  0.10166376  0.88058165  1
  Hf  Hf14  1  0.69583480  0.29906034  0.61749539  1
  Hf  Hf15  1  0.18591637  -0.02376143  0.00290924  1
  Hf  Hf16  1  0.70910690  0.52477963  0.37003844  1
  Hf  Hf17  1  0.29894292  0.09905719  0.87977562  1
  Hf  Hf18  1  0.69868589  0.49610063  0.62990294  1
  Hf  Hf19  1  0.00026031  0.20747372  0.00565819  1
  Hf  Hf20  1  0.40523729  -0.01091161  0.73380659  1
  Hf  Hf21  1  0.29116672  0.88613313  0.61824172  1
  Hf  Hf22  1  0.49863411  0.08095716  0.39787527  1
  Hf  Hf23  1  -0.00801134  0.20023484  0.48700271  1
  Hf  Hf24  1  0.39915278  0.40062867  0.24032897  1
  Hf  Hf25  1  -0.02579750  -0.01026043  0.01066409  1
  Hf  Hf26  1  0.00046545  -0.00516386  0.47540480  1
  Hf  Hf27  1  0.40281521  0.19254893  0.74253594  1
  Hf  Hf28  1  0.40642678  -0.01747285  0.00098935  1
  Hf  Hf29  1  0.89484929  0.70754777  0.61648520  1
  Hf  Hf30  1  0.29607608  0.30466307  0.38729364  1
  Hf  Hf31  1  -0.00135115  0.40883025  0.74712053  1
  Hf  Hf32  1  0.31385731  0.89402012  0.38093139  1
  Hf  Hf33  1  0.00196684  0.61808735  0.00759116  1
  Hf  Hf34  1  0.40020587  0.58954975  -0.00516101  1
  Hf  Hf35  1  0.70259926  0.50275483  0.13137161  1
  Hf  Hf36  1  0.00455792  0.21159410  0.25242929  1
  Hf  Hf37  1  0.69870617  0.69750019  0.61649880  1
  Hf  Hf38  1  0.30724236  0.30753164  0.61530635  1
  Hf  Hf39  1  0.41411659  -0.00831499  0.25096043  1
  Zr  Zr40  1  0.80478451  0.00821745  0.73928991  1
  Zr  Zr41  1  0.32519266  0.50291423  0.63180701  1
  Zr  Zr42  1  0.39787462  0.38235644  -0.00050188  1
  Zr  Zr43  1  0.39838271  0.19368098  0.25744645  1
  Zr  Zr44  1  0.69769131  0.90625557  0.61382553  1
  Zr  Zr45  1  0.51311322  0.29118513  0.12712544  1
  Zr  Zr46  1  0.20767172  0.00063228  0.26572713  1
  Zr  Zr47  1  0.91276219  0.51020943  0.35493022  1
  Zr  Zr48  1  0.20318140  0.20864562  0.24154816  1
  Zr  Zr49  1  0.89215283  0.09888032  0.13759650  1
  Zr  Zr50  1  0.20506720  0.20598069  0.74416389  1
  Zr  Zr51  1  0.60484805  0.59782621  0.76164668  1
  Zr  Zr52  1  0.78516527  0.19484054  0.27075533  1
  Zr  Zr53  1  0.52139788  0.47543107  0.88228434  1
  Zr  Zr54  1  0.20962702  0.60432549  0.24749458  1
  Zr  Zr55  1  0.29277667  0.88695086  0.87313644  1
  Zr  Zr56  1  0.61971619  -0.01163795  0.26032042  1
  Zr  Zr57  1  0.06796554  0.89918553  0.86286978  1
  Zr  Zr58  1  0.18707400  0.79343893  0.74622947  1
  Zr  Zr59  1  0.39927606  0.77516515  0.50505462  1
  Zr  Zr60  1  0.69885448  0.09732027  0.12187663  1
  Zr  Zr61  1  0.10227769  0.30673316  0.62614721  1
  Zr  Zr62  1  0.80522958  0.41307968  0.49340465  1
  Zr  Zr63  1  0.09907061  0.09289113  0.12680089  1
  Zr  Zr64  1  0.30911218  0.09320612  0.11749861  1
  Zr  Zr65  1  0.20312735  0.40112980  0.23117962  1
  Zr  Zr66  1  0.61080363  0.79375302  -0.00870766  1
  Zr  Zr67  1  -0.00315656  -0.00271099  0.27220580  1
  Zr  Zr68  1  0.00807962  0.40607772  0.50405240  1
  Zr  Zr69  1  0.88988215  0.29970694  0.62811806  1
  Zr  Zr70  1  0.29092733  0.88458743  0.13093418  1
  Zr  Zr71  1  0.60909950  0.39834002  0.26268777  1
  Zr  Zr72  1  0.79877834  0.20783113  -0.00592991  1
  Zr  Zr73  1  0.90680248  0.50587333  0.87962165  1
  Zr  Zr74  1  0.20661119  0.21899390  0.00922147  1
  Zr  Zr75  1  0.50397395  0.08468941  0.87575322  1
  Zr  Zr76  1  0.87479568  0.31635219  0.13868375  1
  Zr  Zr77  1  0.58031541  0.59546243  0.49897725  1
  Zr  Zr78  1  0.50943903  0.69720142  0.11684651  1
  Zr  Zr79  1  0.79717457  0.79899174  0.75588523  1
  Ta  Ta80  1  0.48819271  0.67645155  0.63841552  1
  Ta  Ta81  1  0.40289232  0.78594541  0.25081317  1
  Ta  Ta82  1  0.51456048  0.09635044  0.61081329  1
  Ta  Ta83  1  0.80576596  0.59822438  0.76391935  1
  Ta  Ta84  1  0.89690465  0.31348262  0.36226882  1
  Ta  Ta85  1  0.50155058  0.88862307  0.86626945  1
  Ta  Ta86  1  0.10135938  0.70573548  0.87922449  1
  Ta  Ta87  1  0.29313263  0.68398687  0.86905654  1
  Ta  Ta88  1  0.80973051  0.81226110  -0.00592564  1
  Ta  Ta89  1  0.70073569  0.90932614  0.87041856  1
  Ta  Ta90  1  0.50954450  0.49860334  0.11833195  1
  Ta  Ta91  1  0.19525983  0.20505296  0.50195274  1
  Ta  Ta92  1  0.50969131  0.89286282  0.12733321  1
  Ta  Ta93  1  0.11676502  0.50359861  0.36978878  1
  Ta  Ta94  1  0.20545569  0.41208305  0.01479679  1
  Ta  Ta95  1  0.41275697  0.38771561  0.75882582  1
  Ta  Ta96  1  0.79263637  0.20892735  0.75695702  1
  Ta  Ta97  1  0.39996545  0.78469180  0.74720802  1
  Ta  Ta98  1  0.30345157  0.09935082  0.60573894  1
  Ta  Ta99  1  0.20669327  0.41677691  0.49986708  1
  Ta  Ta100  1  0.50800512  0.08999528  0.11893472  1
  Ta  Ta101  1  0.08206421  0.90157784  0.62027631  1
  Ta  Ta102  1  0.29075831  0.68373333  0.63192265  1
  Ta  Ta103  1  0.11917717  0.51286111  0.63710672  1
  Ta  Ta104  1  0.70222521  0.09945076  0.87602404  1
  Ta  Ta105  1  0.60648540  0.61894821  0.25202957  1
  Ta  Ta106  1  0.00462429  0.62006246  0.74994095  1
  Ta  Ta107  1  0.20430664  0.60580653  0.00661623  1
  Ta  Ta108  1  0.79664337  0.61868541  -0.01192727  1
  Ta  Ta109  1  0.86951159  0.70080362  0.38320887  1
  Ta  Ta110  1  0.89671474  0.30498612  0.86946151  1
  Ta  Ta111  1  0.10738736  0.31237084  0.87160656  1
  Ta  Ta112  1  0.80754410  0.00413364  0.47983891  1
  Ta  Ta113  1  0.49515738  0.69673107  0.87382999  1
  Ta  Ta114  1  0.30121783  0.69713081  0.12508420  1
  Ta  Ta115  1  0.59523055  0.40260577  0.48599434  1
  Ta  Ta116  1  0.18741046  0.79432884  0.48748811  1
  Ta  Ta117  1  0.32068604  0.50339005  0.38118748  1
  Ta  Ta118  1  0.09481620  0.09611108  0.61326244  1
  Ta  Ta119  1  0.70623055  0.10710262  0.60466791  1
  Ti  Ti120  1  0.89815735  0.51131960  0.63297801  1
  Ti  Ti121  1  0.90091716  0.90340048  0.61525774  1
  Ti  Ti122  1  0.71964396  0.70855681  0.12601333  1
  Ti  Ti123  1  0.49069505  0.30986587  0.38289429  1
  Ti  Ti124  1  0.19107597  0.79866666  0.26507941  1
  Ti  Ti125  1  0.69990511  0.88913647  0.39408447  1
  Ti  Ti126  1  0.41695197  -0.02238735  0.51836682  1
  Ti  Ti127  1  0.10307268  0.71419068  0.12948960  1
  Ti  Ti128  1  0.30050296  0.69264574  0.37250950  1
  Ti  Ti129  1  0.30010928  0.48843159  0.86298487  1
  Ti  Ti130  1  0.90914716  0.71810845  0.87274912  1
  Ti  Ti131  1  0.76558343  0.79773230  0.26245219  1
  Ti  Ti132  1  0.60892890  -0.00896285  0.00054788  1
  Ti  Ti133  1  0.40379583  0.19444355  -0.00318768  1
  Ti  Ti134  1  0.51194332  0.87718030  0.37547616  1
  Ti  Ti135  1  0.60252519  0.20441281  0.48757118  1
  Ti  Ti136  1  0.50374792  0.31311310  0.61734511  1
  Ti  Ti137  1  0.40913285  0.59343186  0.24179929  1
  Ti  Ti138  1  0.61482648  0.59273813  -0.01090218  1
  Ti  Ti139  1  0.20714149  0.60319649  0.49418634  1
  Ti  Ti140  1  0.09039301  0.69573429  0.37519186  1
  Ti  Ti141  1  -0.01898426  0.79014557  0.26190467  1
  Ti  Ti142  1  0.58730619  0.80120760  0.51063237  1
  Ti  Ti143  1  0.30681127  0.10295619  0.39351341  1
  Ti  Ti144  1  0.10335299  0.51324379  0.12615474  1
  Ti  Ti145  1  0.89868223  0.09801559  0.61504164  1
  Ti  Ti146  1  0.49477246  0.68609792  0.37052395  1
  Ti  Ti147  1  0.08671538  0.89269430  0.14320637  1
  Ti  Ti148  1  0.79884001  0.20415873  0.47938481  1
  Ti  Ti149  1  -0.01183487  0.80654209  0.47995143  1
  Ti  Ti150  1  0.38833655  0.78999216  -0.00476657  1
  Ti  Ti151  1  0.40705926  0.20406441  0.50488169  1
  Ti  Ti152  1  0.11114709  0.11410517  0.37561697  1
  Ti  Ti153  1  0.78190956  0.40670836  -0.00716959  1
  Ti  Ti154  1  0.00833447  0.40730368  0.24023373  1
  Ti  Ti155  1  0.59538873  0.80048744  0.74924352  1
  Ti  Ti156  1  0.10041859  0.31511843  0.37690842  1
  Ti  Ti157  1  0.00175102  0.80530148  0.01164392  1
  Ti  Ti158  1  0.60221126  -0.00118060  0.74222773  1
  Ti  Ti159  1  0.00414729  0.61370865  0.24407901  1
  Mo  Mo160  1  0.69510931  0.09728022  0.39781847  1
  Mo  Mo161  1  0.30559406  0.29855411  0.11978383  1
  Mo  Mo162  1  0.69904065  0.30689315  0.38826952  1
  Mo  Mo163  1  0.70369599  0.70382209  0.87631720  1
  Mo  Mo164  1  0.50251389  0.88591459  0.63731198  1
  Mo  Mo165  1  0.79427016  -0.00724479  0.27688085  1
  Mo  Mo166  1  0.09295001  0.31472153  0.12071310  1
  Mo  Mo167  1  -0.00267175  0.00098020  0.73286112  1
  Mo  Mo168  1  0.80158849  0.40842425  0.25832850  1
  Mo  Mo169  1  0.90105482  0.10702018  0.37130222  1
  Mo  Mo170  1  0.90468310  0.71288745  0.12846964  1
  Mo  Mo171  1  0.10156380  0.88416406  0.36787365  1
  Mo  Mo172  1  0.78519906  -0.00722515  -0.00173660  1
  Mo  Mo173  1  0.79665605  0.40214576  0.75651900  1
  Mo  Mo174  1  0.60602725  0.38843825  0.74677103  1
  Mo  Mo175  1  0.50781093  0.48631674  0.63470591  1
  Mo  Mo176  1  0.20650162  0.39991746  0.75372108  1
  Mo  Mo177  1  0.39434099  0.59471327  0.49973955  1
  Mo  Mo178  1  0.58909431  0.79662041  0.25423570  1
  Mo  Mo179  1  0.18749370  0.78561402  0.00348354  1
  Mo  Mo180  1  0.41335912  0.40385825  0.49731563  1
  Mo  Mo181  1  0.60244831  -0.00800770  0.50187852  1
  Mo  Mo182  1  0.19943866  0.59743330  0.75228235  1
  Mo  Mo183  1  0.68027940  0.71361731  0.38930808  1
  Mo  Mo184  1  0.71303812  0.49845681  0.87514352  1
  Mo  Mo185  1  0.60897450  0.40212852  0.00770722  1
  Mo  Mo186  1  0.40423125  0.59472471  0.76657410  1
  Mo  Mo187  1  0.69581187  0.31624535  0.86496307  1
  Mo  Mo188  1  0.89130349  0.89942102  0.87471035  1
  Mo  Mo189  1  0.88874011  0.89055694  0.36242882  1
  Mo  Mo190  1  -0.01042060  0.80299316  0.74118053  1
  Mo  Mo191  1  0.29532583  0.30633662  0.86908946  1
  Mo  Mo192  1  0.79853210  0.80557193  0.49773927  1
  Mo  Mo193  1  0.49291488  0.28810559  0.87229329  1
  Mo  Mo194  1  0.69257429  0.89156391  0.12585222  1
  Mo  Mo195  1  0.80088172  0.62302971  0.24748316  1
  Mo  Mo196  1  0.69869957  0.30733358  0.12550694  1
  Mo  Mo197  1  0.31169574  0.50843390  0.11908682  1
  Mo  Mo198  1  0.49906937  0.50364016  0.36428756  1
  Mo  Mo199  1  0.79968707  0.60459691  0.50525398  1
