# generated using pymatgen
data_HfZrTaTiMo
_symmetry_space_group_name_H-M   'P 1'
_cell_length_a   15.19517930
_cell_length_b   15.21008962
_cell_length_c   16.79091546
_cell_angle_alpha   90.01943877
_cell_angle_beta   90.04307773
_cell_angle_gamma   89.95856306
_symmetry_Int_Tables_number   1
_chemical_formula_structural   HfZrTaTiMo
_chemical_formula_sum   'Hf40 Zr40 Ta40 Ti40 Mo40'
_cell_volume   3880.71469987
_cell_formula_units_Z   40
loop_
 _symmetry_equiv_pos_site_id
 _symmetry_equiv_pos_as_xyz
  1  'x, y, z'
loop_
 _atom_site_type_symbol
 _atom_site_label
 _atom_site_symmetry_multiplicity
 _atom_site_fract_x
 _atom_site_fract_y
 _atom_site_fract_z
 _atom_site_occupancy
  Hf  Hf0  1  0.50932687  0.29491406  0.13097494  1
  Hf  Hf1  1  0.40625334  0.00283713  0.49568244  1
  Hf  Hf2  1  0.32762871  0.69692850  0.86876389  1
  Hf  Hf3  1  0.89139169  0.08091887  0.37226421  1
  Hf  Hf4  1  0.20390636  0.80178584  0.25087289  1
  Hf  Hf5  1  0.09794813  0.49968589  0.37617816  1
  Hf  Hf6  1  0.10548145  0.89445815  0.11243901  1
  Hf  Hf7  1  0.09558060  0.11842933  0.37842707  1
  Hf  Hf8  1  0.79421205  -0.00887683  0.23108184  1
  Hf  Hf9  1  0.00404858  0.40222099  0.76086416  1
  Hf  Hf10  1  -0.00570973  -0.00624071  0.23365119  1
  Hf  Hf11  1  0.89434230  0.09758225  0.88491488  1
  Hf  Hf12  1  -0.00907727  0.81029920  0.77507864  1
  Hf  Hf13  1  0.71675096  0.89066609  0.61476089  1
  Hf  Hf14  1  0.59948048  0.39434498  -0.00006475  1
  Hf  Hf15  1  0.69398695  0.49979504  0.13096618  1
  Hf  Hf16  1  0.31504043  0.70152399  0.11601410  1
  Hf  Hf17  1  0.20338875  0.80796742  0.76527124  1
  Hf  Hf18  1  0.19397677  0.40486454  0.24985817  1
  Hf  Hf19  1  0.80353762  0.60760313  0.25012657  1
  Hf  Hf20  1  0.09784470  0.50442809  0.10385810  1
  Hf  Hf21  1  0.58443113  0.59575138  0.49141694  1
  Hf  Hf22  1  0.68703459  0.70277940  0.87443313  1
  Hf  Hf23  1  0.80269007  0.40116826  0.26027828  1
  Hf  Hf24  1  0.08442658  0.89999702  0.38130186  1
  Hf  Hf25  1  0.20711440  0.60637119  0.24825072  1
  Hf  Hf26  1  0.88278333  0.30416825  0.63739519  1
  Hf  Hf27  1  0.21406800  0.01003727  0.72996426  1
  Hf  Hf28  1  0.89149435  0.71766284  0.63883667  1
  Hf  Hf29  1  0.40343344  0.20600604  0.51280417  1
  Hf  Hf30  1  0.30983111  0.29962411  0.12944332  1
  Hf  Hf31  1  0.58205092  0.61603948  0.00933628  1
  Hf  Hf32  1  0.60609867  0.80432680  0.25863723  1
  Hf  Hf33  1  0.19991066  0.20715938  0.52134699  1
  Hf  Hf34  1  0.79841480  0.18543693  0.50075535  1
  Hf  Hf35  1  0.68326954  0.10682710  0.11488954  1
  Hf  Hf36  1  -0.01633294  0.39423348  -0.00874432  1
  Hf  Hf37  1  0.09797751  0.69637752  0.09632920  1
  Hf  Hf38  1  0.31425668  0.52089753  0.39291784  1
  Hf  Hf39  1  0.51400508  0.89606681  0.60491578  1
  Zr  Zr40  1  0.19445561  0.41968803  0.51295574  1
  Zr  Zr41  1  0.09892940  0.50686398  0.88939403  1
  Zr  Zr42  1  0.89575458  0.51160517  0.64539622  1
  Zr  Zr43  1  -0.00700191  0.39928777  0.50441313  1
  Zr  Zr44  1  0.69673196  0.90233497  0.88870300  1
  Zr  Zr45  1  0.31495431  0.93229105  0.87773893  1
  Zr  Zr46  1  0.80037933  0.60415675  0.49121599  1
  Zr  Zr47  1  0.79123080  0.39766300  0.48676611  1
  Zr  Zr48  1  0.80595211  -0.01746765  0.75520603  1
  Zr  Zr49  1  0.19485592  0.00072690  0.25763231  1
  Zr  Zr50  1  0.21206041  0.19510003  -0.00410029  1
  Zr  Zr51  1  0.29206184  0.30862475  0.38373582  1
  Zr  Zr52  1  0.39385208  0.18673650  0.73151089  1
  Zr  Zr53  1  0.00040796  0.19198541  0.52290944  1
  Zr  Zr54  1  0.69271955  0.49253954  0.62767083  1
  Zr  Zr55  1  0.00590804  -0.00086710  0.74709663  1
  Zr  Zr56  1  0.49722729  0.30171724  0.86393801  1
  Zr  Zr57  1  0.40167254  0.40634203  0.25347287  1
  Zr  Zr58  1  0.43326829  0.79771305  0.00209440  1
  Zr  Zr59  1  0.49154794  0.51525740  0.86489520  1
  Zr  Zr60  1  0.59657308  0.19246209  0.73442348  1
  Zr  Zr61  1  0.69633615  0.50470893  0.86556517  1
  Zr  Zr62  1  0.19501080  0.20626150  0.74033467  1
  Zr  Zr63  1  0.09821628  0.88808893  0.61931177  1
  Zr  Zr64  1  0.00546663  0.60234639  0.24704780  1
  Zr  Zr65  1  0.11503038  0.08525574  0.88350865  1
  Zr  Zr66  1  0.00460295  0.59722931  0.50259562  1
  Zr  Zr67  1  0.70847347  0.30250356  0.86252373  1
  Zr  Zr68  1  0.10278272  0.68995872  0.63155877  1
  Zr  Zr69  1  0.68677116  0.10550386  0.89088185  1
  Zr  Zr70  1  0.21275533  0.81161208  -0.01552562  1
  Zr  Zr71  1  0.91340200  0.28930819  0.37024169  1
  Zr  Zr72  1  0.19372561  0.00593183  0.50514754  1
  Zr  Zr73  1  -0.00494420  0.19291796  0.74410003  1
  Zr  Zr74  1  0.39842819  -0.01401108  0.26970459  1
  Zr  Zr75  1  0.10275358  0.30245212  0.11402556  1
  Zr  Zr76  1  0.48744546  0.07936755  0.87313807  1
  Zr  Zr77  1  0.41255009  0.19550691  -0.00318546  1
  Zr  Zr78  1  0.00271044  0.19487915  0.23197908  1
  Zr  Zr79  1  0.59891754  0.19682105  0.50361822  1
  Ta  Ta80  1  0.49051610  0.09185632  0.13773519  1
  Ta  Ta81  1  0.79632015  0.19114195  0.24093438  1
  Ta  Ta82  1  -0.00710908  0.19296076  0.00599185  1
  Ta  Ta83  1  0.59463242  0.60165940  0.26056283  1
  Ta  Ta84  1  0.90065856  0.88506903  0.11219886  1
  Ta  Ta85  1  0.60837993  0.79100154  0.48735460  1
  Ta  Ta86  1  0.58967300  0.60805060  0.73933067  1
  Ta  Ta87  1  -0.00614524  0.79875953  0.49798745  1
  Ta  Ta88  1  0.79486999  0.59795859  0.00585558  1
  Ta  Ta89  1  0.20604270  0.20237534  0.25010891  1
  Ta  Ta90  1  0.91112563  0.70368903  0.36993668  1
  Ta  Ta91  1  0.30185322  0.70153344  0.63092206  1
  Ta  Ta92  1  0.31168323  0.90805966  0.12219090  1
  Ta  Ta93  1  0.40067795  0.40774908  0.00051688  1
  Ta  Ta94  1  0.30530566  0.11121751  0.37528245  1
  Ta  Ta95  1  0.30968824  0.88498697  0.61204243  1
  Ta  Ta96  1  0.30862957  0.32463632  0.62961800  1
  Ta  Ta97  1  0.30449262  0.09827523  0.13620056  1
  Ta  Ta98  1  0.69573082  0.69824417  0.62680269  1
  Ta  Ta99  1  0.59849107  0.40265998  0.26201073  1
  Ta  Ta100  1  0.71026167  0.71110353  0.36849236  1
  Ta  Ta101  1  0.79974434  0.21221562  0.00976783  1
  Ta  Ta102  1  0.88412025  0.50138282  0.86604114  1
  Ta  Ta103  1  0.69351577  0.28670894  0.36731478  1
  Ta  Ta104  1  0.40707853  0.60768471  0.25437794  1
  Ta  Ta105  1  0.29985528  0.50476499  0.11559358  1
  Ta  Ta106  1  0.09720331  0.69913739  0.89186971  1
  Ta  Ta107  1  0.88726949  0.69496722  0.87651947  1
  Ta  Ta108  1  0.60073165  0.80456217  0.74261786  1
  Ta  Ta109  1  0.50872938  0.10417195  0.37147301  1
  Ta  Ta110  1  0.80287128  0.00250637  0.01431328  1
  Ta  Ta111  1  0.60193998  0.00242382  0.25664901  1
  Ta  Ta112  1  0.30424306  0.49781397  0.87128406  1
  Ta  Ta113  1  0.60008272  -0.00511236  0.74348348  1
  Ta  Ta114  1  0.69970859  0.08180872  0.61755306  1
  Ta  Ta115  1  0.21187063  0.39864247  -0.00948825  1
  Ta  Ta116  1  0.89259245  0.30412462  0.12759827  1
  Ta  Ta117  1  0.09913355  0.29547262  0.88141036  1
  Ta  Ta118  1  -0.00232598  0.40341574  0.24792417  1
  Ta  Ta119  1  0.49234836  0.70327422  0.62373682  1
  Ti  Ti120  1  0.69954587  0.30344732  0.13323023  1
  Ti  Ti121  1  0.89444078  0.29571552  0.86852807  1
  Ti  Ti122  1  0.90129683  0.69905938  0.11562232  1
  Ti  Ti123  1  0.69582120  0.50160305  0.37224397  1
  Ti  Ti124  1  0.79885333  0.79518778  0.00182283  1
  Ti  Ti125  1  0.39851627  0.77612537  0.48700423  1
  Ti  Ti126  1  0.29391913  0.51542786  0.62860228  1
  Ti  Ti127  1  0.50237052  0.89336337  0.13531677  1
  Ti  Ti128  1  0.50054119  0.31486791  0.62570542  1
  Ti  Ti129  1  0.59230194  0.40293385  0.74518682  1
  Ti  Ti130  1  0.89926154  0.50137271  0.12039014  1
  Ti  Ti131  1  0.79570785  0.40329232  0.00197741  1
  Ti  Ti132  1  0.80880618  0.80218942  0.49374335  1
  Ti  Ti133  1  0.19948330  0.60124381  0.75996009  1
  Ti  Ti134  1  0.11504254  0.70454355  0.38621671  1
  Ti  Ti135  1  0.69370088  0.89472521  0.11682228  1
  Ti  Ti136  1  0.89031825  0.88607178  0.36456186  1
  Ti  Ti137  1  0.57718683  -0.00859683  0.00825960  1
  Ti  Ti138  1  0.69913714  0.70717153  0.13055507  1
  Ti  Ti139  1  0.70784739  0.91288176  0.38095452  1
  Ti  Ti140  1  -0.02257566  -0.00382565  0.51667543  1
  Ti  Ti141  1  0.50537194  0.88258750  0.86725076  1
  Ti  Ti142  1  0.10813345  0.09427824  0.11444158  1
  Ti  Ti143  1  0.09801922  0.31845222  0.63454283  1
  Ti  Ti144  1  0.59700602  0.19845088  0.25537584  1
  Ti  Ti145  1  0.30285355  0.30104827  0.86409364  1
  Ti  Ti146  1  0.69546851  0.29973197  0.62852684  1
  Ti  Ti147  1  0.58797448  0.39638251  0.48859862  1
  Ti  Ti148  1  0.20253409  0.40876395  0.75351261  1
  Ti  Ti149  1  0.49369953  0.50696322  0.12826367  1
  Ti  Ti150  1  0.79427269  0.18397584  0.74245964  1
  Ti  Ti151  1  0.49187118  0.30052407  0.37387067  1
  Ti  Ti152  1  0.40425256  0.79165190  0.26281416  1
  Ti  Ti153  1  0.50805332  0.89397433  0.38630950  1
  Ti  Ti154  1  0.40978005  -0.01066784  0.72614811  1
  Ti  Ti155  1  0.48061075  0.50000068  0.62907927  1
  Ti  Ti156  1  0.29114031  0.88923602  0.39214930  1
  Ti  Ti157  1  0.00228851  -0.00860612  -0.00033083  1
  Ti  Ti158  1  -0.00293560  0.79429910  0.24437559  1
  Ti  Ti159  1  0.00191754  0.60527495  0.76185489  1
  Mo  Mo160  1  0.30857477  0.10798663  0.86949354  1
  Mo  Mo161  1  -0.02412880  0.59979350  -0.00708768  1
  Mo  Mo162  1  0.50806944  0.69906383  0.14380439  1
  Mo  Mo163  1  0.09582348  0.09883240  0.62243579  1
  Mo  Mo164  1  0.90072983  0.89274091  0.62264136  1
  Mo  Mo165  1  0.89920498  0.09796737  0.11147961  1
  Mo  Mo166  1  -0.00811066  0.79952047  -0.01479060  1
  Mo  Mo167  1  0.20119199  0.79510109  0.49670950  1
  Mo  Mo168  1  0.70038161  0.10009035  0.36362108  1
  Mo  Mo169  1  0.39992384  -0.00218804  0.01439760  1
  Mo  Mo170  1  0.40186966  0.59426294  0.00208734  1
  Mo  Mo171  1  0.60915657  -0.00265898  0.48310068  1
  Mo  Mo172  1  0.39782800  0.60003285  0.51254877  1
  Mo  Mo173  1  0.80918586  0.79989758  0.24102604  1
  Mo  Mo174  1  0.50959504  0.08879345  0.61911309  1
  Mo  Mo175  1  0.49877068  0.69802715  0.37470412  1
  Mo  Mo176  1  0.10238733  0.90000166  0.88615064  1
  Mo  Mo177  1  0.40246840  0.19374861  0.25796067  1
  Mo  Mo178  1  0.88479797  0.08748514  0.62635880  1
  Mo  Mo179  1  0.10567613  0.50487420  0.64547132  1
  Mo  Mo180  1  0.50677587  0.70665926  0.86107475  1
  Mo  Mo181  1  0.39308861  0.40344176  0.74552110  1
  Mo  Mo182  1  0.50428835  0.49516475  0.37661160  1
  Mo  Mo183  1  0.39370038  0.60242908  0.73607805  1
  Mo  Mo184  1  0.79322354  0.79521620  0.75873320  1
  Mo  Mo185  1  0.79517449  0.39351636  0.75038752  1
  Mo  Mo186  1  0.60305227  0.20217286  0.00522169  1
  Mo  Mo187  1  0.89660368  0.89855433  0.89909715  1
  Mo  Mo188  1  0.40708788  0.80790358  0.74009012  1
  Mo  Mo189  1  0.20610506  0.61710144  0.50544712  1
  Mo  Mo190  1  0.30227174  0.70633559  0.37376531  1
  Mo  Mo191  1  0.80203086  -0.00932552  0.49437010  1
  Mo  Mo192  1  0.89905705  0.50501858  0.36827135  1
  Mo  Mo193  1  0.20864114  0.00569615  0.01176269  1
  Mo  Mo194  1  0.79361919  0.60719226  0.75058488  1
  Mo  Mo195  1  0.30682008  0.09545171  0.61558370  1
  Mo  Mo196  1  0.60910194  0.80386389  0.01119855  1
  Mo  Mo197  1  0.21880931  0.59671192  -0.00902554  1
  Mo  Mo198  1  0.10469495  0.30015521  0.36920723  1
  Mo  Mo199  1  0.41185788  0.40682044  0.50582889  1
