# generated using pymatgen
data_HfZrTaTiMo
_symmetry_space_group_name_H-M   'P 1'
_cell_length_a   15.20632026
_cell_length_b   15.21610617
_cell_length_c   16.86825251
_cell_angle_alpha   89.97105986
_cell_angle_beta   90.00307976
_cell_angle_gamma   89.82648634
_symmetry_Int_Tables_number   1
_chemical_formula_structural   HfZrTaTiMo
_chemical_formula_sum   'Hf40 Zr40 Ta40 Ti40 Mo40'
_cell_volume   3902.97445308
_cell_formula_units_Z   40
loop_
 _symmetry_equiv_pos_site_id
 _symmetry_equiv_pos_as_xyz
  1  'x, y, z'
loop_
 _atom_site_type_symbol
 _atom_site_label
 _atom_site_symmetry_multiplicity
 _atom_site_fract_x
 _atom_site_fract_y
 _atom_site_fract_z
 _atom_site_occupancy
  Hf  Hf0  1  0.69341458  0.50492931  0.12311731  1
  Hf  Hf1  1  0.88859048  0.50627836  0.87780013  1
  Hf  Hf2  1  0.79555188  0.61899276  0.00589003  1
  Hf  Hf3  1  0.31844143  0.09584142  0.13784683  1
  Hf  Hf4  1  0.00071112  0.40726926  0.74548901  1
  Hf  Hf5  1  0.21717379  0.20719084  -0.00055185  1
  Hf  Hf6  1  0.10653323  0.90675114  0.36510492  1
  Hf  Hf7  1  0.81098839  0.18529927  0.22906330  1
  Hf  Hf8  1  0.91322319  0.88228027  0.61650424  1
  Hf  Hf9  1  0.00289607  0.22260644  0.24306787  1
  Hf  Hf10  1  0.70539877  0.30635959  0.10155558  1
  Hf  Hf11  1  0.49468796  0.48669566  0.37984962  1
  Hf  Hf12  1  0.09891294  0.50333101  0.39477020  1
  Hf  Hf13  1  0.89927974  0.68607166  0.61672606  1
  Hf  Hf14  1  0.39134024  0.00163722  0.50317742  1
  Hf  Hf15  1  0.70711248  0.30203967  0.88934135  1
  Hf  Hf16  1  0.38694756  0.79043629  0.23959450  1
  Hf  Hf17  1  0.19359349  0.41112148  0.26043022  1
  Hf  Hf18  1  0.40933034  0.60406290  0.51958303  1
  Hf  Hf19  1  0.48651541  0.90014829  0.36591991  1
  Hf  Hf20  1  0.31786180  0.30772338  0.13282105  1
  Hf  Hf21  1  0.10843281  0.69709243  0.12322121  1
  Hf  Hf22  1  0.29570441  0.49990635  0.86700921  1
  Hf  Hf23  1  0.68827051  0.88974412  0.15363866  1
  Hf  Hf24  1  0.80572541  0.39442292  0.24621613  1
  Hf  Hf25  1  0.78549740  -0.02157120  0.00656900  1
  Hf  Hf26  1  0.00356267  -0.02077615  0.74919538  1
  Hf  Hf27  1  0.60540616  0.00023058  0.49135194  1
  Hf  Hf28  1  0.59721958  0.78649154  0.49014556  1
  Hf  Hf29  1  0.90570486  0.29521948  0.86982992  1
  Hf  Hf30  1  0.20071107  0.62119319  0.26572208  1
  Hf  Hf31  1  0.10467185  0.29781279  0.61707859  1
  Hf  Hf32  1  0.71857510  0.10598815  0.36424558  1
  Hf  Hf33  1  0.60021860  0.40981566  0.74565042  1
  Hf  Hf34  1  0.89020020  0.28550264  0.38263305  1
  Hf  Hf35  1  0.09521989  0.70663514  0.87840738  1
  Hf  Hf36  1  0.10876144  0.10022830  0.13478778  1
  Hf  Hf37  1  0.21027519  0.20010778  0.49588068  1
  Hf  Hf38  1  0.09397737  0.31154532  0.39470366  1
  Hf  Hf39  1  0.01837051  0.19408811  -0.00755837  1
  Zr  Zr40  1  0.38699800  0.60301711  0.00894181  1
  Zr  Zr41  1  0.30000190  0.10935206  0.85660098  1
  Zr  Zr42  1  0.69542424  0.89814044  0.35833703  1
  Zr  Zr43  1  0.51470630  0.28318028  0.11725172  1
  Zr  Zr44  1  0.30754185  0.09140528  0.36557647  1
  Zr  Zr45  1  0.61747569  0.18571453  0.75687022  1
  Zr  Zr46  1  0.68276431  0.10231567  0.12119562  1
  Zr  Zr47  1  0.39487141  0.39914025  0.73181818  1
  Zr  Zr48  1  0.50131549  0.89253661  0.62314148  1
  Zr  Zr49  1  0.77419833  -0.01032759  0.75797254  1
  Zr  Zr50  1  0.08624719  0.51309444  0.60543027  1
  Zr  Zr51  1  0.58580819  0.61388992  -0.00065440  1
  Zr  Zr52  1  0.00964299  0.40794475  -0.01332326  1
  Zr  Zr53  1  0.27912176  0.50552671  0.12257211  1
  Zr  Zr54  1  0.81141174  0.01792397  0.50301505  1
  Zr  Zr55  1  0.19588739  0.00454169  -0.00003362  1
  Zr  Zr56  1  0.70644603  0.89463282  0.61492953  1
  Zr  Zr57  1  0.89464867  0.29794382  0.63600235  1
  Zr  Zr58  1  0.30304610  0.69487566  0.86488623  1
  Zr  Zr59  1  0.41118528  0.78649586  0.74187060  1
  Zr  Zr60  1  0.39926281  0.58704951  0.24618637  1
  Zr  Zr61  1  0.79967018  0.58543510  0.49365581  1
  Zr  Zr62  1  0.41534381  0.80182068  0.01871955  1
  Zr  Zr63  1  0.29748566  0.90020754  0.86653841  1
  Zr  Zr64  1  0.91012971  0.31116337  0.10535734  1
  Zr  Zr65  1  0.20472726  0.61970163  0.50317129  1
  Zr  Zr66  1  0.70536128  0.71783511  0.87156168  1
  Zr  Zr67  1  0.89219063  0.10359173  0.64910156  1
  Zr  Zr68  1  0.21124513  0.20996743  0.25899886  1
  Zr  Zr69  1  0.08900268  0.10224750  0.36842332  1
  Zr  Zr70  1  0.90215382  0.91252720  0.37023989  1
  Zr  Zr71  1  0.20544632  0.79616318  0.00716882  1
  Zr  Zr72  1  0.30514764  0.11763966  0.64072958  1
  Zr  Zr73  1  -0.00176239  0.61121861  0.75120339  1
  Zr  Zr74  1  -0.00850816  -0.00305282  0.00723952  1
  Zr  Zr75  1  0.89158678  0.87220644  0.87951508  1
  Zr  Zr76  1  0.51606689  0.09643844  0.62654357  1
  Zr  Zr77  1  0.49700028  0.29686853  0.86830530  1
  Zr  Zr78  1  -0.00184222  0.59227250  0.25682864  1
  Zr  Zr79  1  0.51155824  0.88581109  0.87418120  1
  Ta  Ta80  1  -0.00102000  0.60892747  -0.00018207  1
  Ta  Ta81  1  0.57718639  0.00011802  0.00694962  1
  Ta  Ta82  1  0.62106745  0.20369658  0.50407449  1
  Ta  Ta83  1  0.11622929  0.30038306  0.85919367  1
  Ta  Ta84  1  0.41381924  0.20977326  0.49751802  1
  Ta  Ta85  1  0.89741065  0.48622240  0.37563630  1
  Ta  Ta86  1  0.20396385  0.40244830  -0.00696797  1
  Ta  Ta87  1  0.41622517  0.18519789  -0.00406224  1
  Ta  Ta88  1  0.59085046  0.40939937  -0.00895981  1
  Ta  Ta89  1  0.78211457  0.38693241  0.50495287  1
  Ta  Ta90  1  0.39760994  0.39418808  -0.00695103  1
  Ta  Ta91  1  0.60296862  0.58913921  0.50105061  1
  Ta  Ta92  1  0.01475317  -0.00325568  0.51073230  1
  Ta  Ta93  1  0.78993964  0.59456550  0.74604486  1
  Ta  Ta94  1  0.81184806  0.18351044  -0.00229018  1
  Ta  Ta95  1  0.69342340  0.48467171  0.37279634  1
  Ta  Ta96  1  0.40224128  0.59407568  0.72559325  1
  Ta  Ta97  1  -0.01048654  0.18493835  0.50644146  1
  Ta  Ta98  1  0.79884368  0.59324948  0.25558163  1
  Ta  Ta99  1  0.00669143  0.79662632  0.25187773  1
  Ta  Ta100  1  0.19970184  0.40950690  0.73312450  1
  Ta  Ta101  1  0.89807419  0.09508423  0.86529228  1
  Ta  Ta102  1  0.59428345  0.39395937  0.51346424  1
  Ta  Ta103  1  0.42835818  0.20047060  0.25801844  1
  Ta  Ta104  1  0.81017976  0.78654990  0.48039240  1
  Ta  Ta105  1  0.49465457  0.69203101  0.37262589  1
  Ta  Ta106  1  0.49220085  0.48348205  0.12617326  1
  Ta  Ta107  1  0.38908891  0.80041605  0.50292740  1
  Ta  Ta108  1  -0.01689238  0.01016430  0.23591016  1
  Ta  Ta109  1  0.31901121  0.31635671  0.37935539  1
  Ta  Ta110  1  0.51127686  0.10883872  0.38194891  1
  Ta  Ta111  1  0.09718505  0.90035976  0.87499445  1
  Ta  Ta112  1  0.50027035  0.29023001  0.62887578  1
  Ta  Ta113  1  0.59107909  0.61302120  0.74355250  1
  Ta  Ta114  1  0.40875481  -0.00141632  0.74772594  1
  Ta  Ta115  1  0.10291124  0.09831192  0.64204610  1
  Ta  Ta116  1  0.69026489  0.50688862  0.87584362  1
  Ta  Ta117  1  0.62124120  0.80612738  0.01344303  1
  Ta  Ta118  1  0.69494416  0.68814369  0.36595246  1
  Ta  Ta119  1  0.11460075  0.31371242  0.12295636  1
  Ti  Ti120  1  0.19981956  0.60451645  0.73188953  1
  Ti  Ti121  1  0.80500946  0.78841953  0.25879452  1
  Ti  Ti122  1  0.30230887  0.30138685  0.86319824  1
  Ti  Ti123  1  0.49156614  0.51305886  0.86938823  1
  Ti  Ti124  1  0.39197637  -0.00325491  0.00073634  1
  Ti  Ti125  1  0.60014552  0.59270930  0.25358404  1
  Ti  Ti126  1  0.08913570  0.72677732  0.61706229  1
  Ti  Ti127  1  0.89630486  0.50108786  0.11774075  1
  Ti  Ti128  1  0.58509228  0.02346902  0.25303571  1
  Ti  Ti129  1  0.69485471  0.29836612  0.37179437  1
  Ti  Ti130  1  0.29455133  0.71532062  0.62673791  1
  Ti  Ti131  1  0.27799453  0.90161111  0.14031759  1
  Ti  Ti132  1  0.08670918  0.49663313  0.12257434  1
  Ti  Ti133  1  0.19902042  0.00654125  0.50737361  1
  Ti  Ti134  1  0.81322752  0.78677715  0.74470211  1
  Ti  Ti135  1  0.51036152  0.30049630  0.37912258  1
  Ti  Ti136  1  0.29358859  0.89971913  0.36393483  1
  Ti  Ti137  1  0.19346382  0.81890532  0.50273702  1
  Ti  Ti138  1  0.69346801  0.08960182  0.89008131  1
  Ti  Ti139  1  0.18175205  0.80914961  0.74369575  1
  Ti  Ti140  1  0.10126959  0.10265726  0.85215393  1
  Ti  Ti141  1  0.49934031  0.09072945  0.86733150  1
  Ti  Ti142  1  0.59186608  0.38998971  0.24719267  1
  Ti  Ti143  1  0.89415185  0.89483690  0.13694643  1
  Ti  Ti144  1  0.49125401  0.91489007  0.14304053  1
  Ti  Ti145  1  0.10703151  0.50572969  0.87097577  1
  Ti  Ti146  1  0.89546351  0.69843907  0.13491159  1
  Ti  Ti147  1  0.70255608  0.49856448  0.62658822  1
  Ti  Ti148  1  0.39363296  0.40310333  0.52226476  1
  Ti  Ti149  1  -0.00924789  0.62457529  0.47874655  1
  Ti  Ti150  1  0.70042241  0.69877897  0.61991729  1
  Ti  Ti151  1  0.30382538  0.50283742  0.38723966  1
  Ti  Ti152  1  0.79350398  0.39945009  0.75005474  1
  Ti  Ti153  1  0.61500458  0.80567881  0.74556856  1
  Ti  Ti154  1  -0.01055984  0.79970399  0.01431417  1
  Ti  Ti155  1  0.29962501  0.71332136  0.38270581  1
  Ti  Ti156  1  0.70411225  0.28266714  0.63373511  1
  Ti  Ti157  1  0.28887072  0.90969499  0.63533929  1
  Ti  Ti158  1  0.51938417  0.70211800  0.14045414  1
  Ti  Ti159  1  -0.02526639  0.40626014  0.51176542  1
  Mo  Mo160  1  0.00646415  0.19654312  0.75752075  1
  Mo  Mo161  1  0.91183548  0.10028434  0.37379069  1
  Mo  Mo162  1  0.19557217  0.80008502  0.24949935  1
  Mo  Mo163  1  0.30283179  0.70155093  0.12527351  1
  Mo  Mo164  1  0.50753893  0.68889936  0.87169026  1
  Mo  Mo165  1  0.29126016  0.50736387  0.62387418  1
  Mo  Mo166  1  0.40729768  0.20150515  0.74988253  1
  Mo  Mo167  1  0.19418916  -0.00567323  0.24296407  1
  Mo  Mo168  1  0.49634462  0.09473602  0.12500754  1
  Mo  Mo169  1  -0.00087775  0.40609531  0.25101618  1
  Mo  Mo170  1  0.00112777  0.79444138  0.74902399  1
  Mo  Mo171  1  0.79954642  0.20458170  0.50334624  1
  Mo  Mo172  1  0.88324952  0.49581525  0.62990839  1
  Mo  Mo173  1  0.60772729  0.20890149  0.25618964  1
  Mo  Mo174  1  0.30034442  0.30456184  0.61557117  1
  Mo  Mo175  1  0.80246172  0.79715091  0.02174220  1
  Mo  Mo176  1  0.80067104  -0.00370993  0.23850981  1
  Mo  Mo177  1  0.70260156  0.69733571  0.14821276  1
  Mo  Mo178  1  0.10033399  0.71505010  0.38190482  1
  Mo  Mo179  1  0.69203655  0.90125342  0.88458328  1
  Mo  Mo180  1  0.18249103  0.58763379  -0.00498376  1
  Mo  Mo181  1  0.79356605  0.41175877  -0.00347809  1
  Mo  Mo182  1  0.21149070  0.40263700  0.50136076  1
  Mo  Mo183  1  0.51087361  0.49809622  0.62140763  1
  Mo  Mo184  1  0.10886709  0.90132934  0.62002567  1
  Mo  Mo185  1  0.59661651  -0.00997679  0.75571933  1
  Mo  Mo186  1  0.51294324  0.69953215  0.61816296  1
  Mo  Mo187  1  0.60006625  0.18933555  -0.01637320  1
  Mo  Mo188  1  0.90040362  0.09825129  0.11247253  1
  Mo  Mo189  1  0.89542615  0.70021863  0.36614737  1
  Mo  Mo190  1  0.00507263  0.80108250  0.48583723  1
  Mo  Mo191  1  0.58922253  0.78431560  0.26207979  1
  Mo  Mo192  1  0.39966039  -0.00107375  0.25488648  1
  Mo  Mo193  1  0.90048981  0.69679494  0.87892858  1
  Mo  Mo194  1  0.79956900  0.19811740  0.76998769  1
  Mo  Mo195  1  0.70236696  0.10214253  0.62596427  1
  Mo  Mo196  1  0.19960517  0.21542561  0.74504552  1
  Mo  Mo197  1  0.08793653  0.89686612  0.13815041  1
  Mo  Mo198  1  0.19933966  -0.00270775  0.74886274  1
  Mo  Mo199  1  0.40295782  0.39188460  0.25498589  1
