# generated using pymatgen
data_HfZrTaTiMo
_symmetry_space_group_name_H-M   'P 1'
_cell_length_a   15.20898341
_cell_length_b   15.20708051
_cell_length_c   16.86572341
_cell_angle_alpha   89.96306520
_cell_angle_beta   90.00387367
_cell_angle_gamma   90.07299630
_symmetry_Int_Tables_number   1
_chemical_formula_structural   HfZrTaTiMo
_chemical_formula_sum   'Hf40 Zr40 Ta40 Ti40 Mo40'
_cell_volume   3900.77195501
_cell_formula_units_Z   40
loop_
 _symmetry_equiv_pos_site_id
 _symmetry_equiv_pos_as_xyz
  1  'x, y, z'
loop_
 _atom_site_type_symbol
 _atom_site_label
 _atom_site_symmetry_multiplicity
 _atom_site_fract_x
 _atom_site_fract_y
 _atom_site_fract_z
 _atom_site_occupancy
  Hf  Hf0  1  0.10900354  0.69727361  0.36171881  1
  Hf  Hf1  1  0.79736503  0.79239507  0.00227673  1
  Hf  Hf2  1  0.00168861  0.58880983  0.24161760  1
  Hf  Hf3  1  0.20620376  0.82099005  0.00531317  1
  Hf  Hf4  1  0.80443516  0.19768327  0.25224023  1
  Hf  Hf5  1  0.69667936  0.49260738  0.36460801  1
  Hf  Hf6  1  0.28923493  0.50573762  0.60676757  1
  Hf  Hf7  1  0.20044134  0.21120969  0.25978733  1
  Hf  Hf8  1  0.29375318  0.08534349  0.60844353  1
  Hf  Hf9  1  0.39838015  0.81429515  0.49379636  1
  Hf  Hf10  1  0.90108100  0.09314304  0.61175460  1
  Hf  Hf11  1  0.28549383  0.50592009  0.39803262  1
  Hf  Hf12  1  0.69197461  0.30523725  0.63009146  1
  Hf  Hf13  1  0.31471549  0.70990835  0.88652612  1
  Hf  Hf14  1  -0.00097000  0.20231095  0.74269192  1
  Hf  Hf15  1  0.41965502  0.20916296  0.23393216  1
  Hf  Hf16  1  0.81562253  -0.01234812  -0.00072340  1
  Hf  Hf17  1  0.68002095  0.09612116  0.62415176  1
  Hf  Hf18  1  0.00058566  0.00385783  0.26326221  1
  Hf  Hf19  1  0.01206027  0.20639624  0.49850699  1
  Hf  Hf20  1  0.12126251  0.90162299  0.62093399  1
  Hf  Hf21  1  0.70283640  0.89361962  0.63037043  1
  Hf  Hf22  1  0.80688191  0.59020758  0.01838792  1
  Hf  Hf23  1  0.78287209  0.19547556  0.49949032  1
  Hf  Hf24  1  0.80265373  0.40874439  0.74911235  1
  Hf  Hf25  1  0.19018249  0.39211513  -0.00646269  1
  Hf  Hf26  1  0.58717219  0.21039250  0.00737624  1
  Hf  Hf27  1  0.52163273  0.50445815  0.13336331  1
  Hf  Hf28  1  0.90827989  0.10025919  0.87907873  1
  Hf  Hf29  1  0.80723318  -0.00877500  0.24398557  1
  Hf  Hf30  1  0.80196178  0.59835627  0.23722809  1
  Hf  Hf31  1  0.09546517  0.70044986  0.88023860  1
  Hf  Hf32  1  0.39346791  0.60850435  0.74587036  1
  Hf  Hf33  1  0.48778575  0.49483898  0.38493439  1
  Hf  Hf34  1  0.39720934  0.18982023  0.74463800  1
  Hf  Hf35  1  0.90464143  0.89292416  0.61818285  1
  Hf  Hf36  1  0.69930722  0.50357882  0.61966241  1
  Hf  Hf37  1  0.40455966  0.41240039  0.01125090  1
  Hf  Hf38  1  0.29615170  0.28623006  0.87578267  1
  Hf  Hf39  1  0.70087926  0.30496456  0.88109969  1
  Zr  Zr40  1  0.80797801  -0.00000491  0.75620759  1
  Zr  Zr41  1  0.38898285  -0.01012128  0.02862892  1
  Zr  Zr42  1  0.40458004  0.40223838  0.74614328  1
  Zr  Zr43  1  0.67737961  0.69564305  0.13441827  1
  Zr  Zr44  1  0.38272890  0.41129039  0.24761207  1
  Zr  Zr45  1  0.09041058  0.90942396  0.12884066  1
  Zr  Zr46  1  0.28383947  0.71431054  0.61275468  1
  Zr  Zr47  1  0.58842993  -0.00198212  0.76235139  1
  Zr  Zr48  1  0.69942549  0.89009053  0.87009838  1
  Zr  Zr49  1  0.20907089  0.59394496  0.00633748  1
  Zr  Zr50  1  0.70321851  0.69975487  0.62635334  1
  Zr  Zr51  1  0.19387084  0.19459331  0.73751905  1
  Zr  Zr52  1  0.49873736  0.49316349  0.60889735  1
  Zr  Zr53  1  0.47989113  0.09563787  0.88827865  1
  Zr  Zr54  1  0.41167933  0.00991833  0.49134676  1
  Zr  Zr55  1  0.71224678  0.10747755  0.11132113  1
  Zr  Zr56  1  0.49408020  0.88385604  0.88962467  1
  Zr  Zr57  1  0.01680102  0.78966145  0.49648834  1
  Zr  Zr58  1  0.89937009  0.50408827  0.38373745  1
  Zr  Zr59  1  0.31724595  0.10489893  0.36704360  1
  Zr  Zr60  1  0.79439739  0.40227941  0.00880081  1
  Zr  Zr61  1  0.92228977  0.09863821  0.11786900  1
  Zr  Zr62  1  0.11149571  0.69958307  0.12925496  1
  Zr  Zr63  1  0.41017261  0.61559441  0.24743058  1
  Zr  Zr64  1  0.30007086  0.30194262  0.60809914  1
  Zr  Zr65  1  0.59450207  0.20338372  0.76536688  1
  Zr  Zr66  1  0.50280264  0.70150366  0.61544880  1
  Zr  Zr67  1  0.89564899  0.30465427  0.38535032  1
  Zr  Zr68  1  0.50508974  0.91034780  0.62432032  1
  Zr  Zr69  1  0.27927139  0.90329127  0.36280851  1
  Zr  Zr70  1  0.50451130  0.87581646  0.13081337  1
  Zr  Zr71  1  0.38250470  0.19442642  0.02161255  1
  Zr  Zr72  1  0.70073861  0.68852361  0.87210565  1
  Zr  Zr73  1  0.80255912  0.19975065  0.74916431  1
  Zr  Zr74  1  0.20295452  0.80248172  0.75883398  1
  Zr  Zr75  1  -0.00695481  0.80248687  0.25556648  1
  Zr  Zr76  1  0.29930711  0.50150110  0.87106875  1
  Zr  Zr77  1  0.29989301  0.69696141  0.38775594  1
  Zr  Zr78  1  0.28032644  0.31617844  0.12919702  1
  Zr  Zr79  1  0.01563860  0.20237169  -0.00810037  1
  Ta  Ta80  1  0.09464988  0.30829295  0.86416532  1
  Ta  Ta81  1  0.90551872  0.31135150  0.87875324  1
  Ta  Ta82  1  0.30187465  0.31032387  0.38799168  1
  Ta  Ta83  1  0.59435602  0.59139021  0.75219797  1
  Ta  Ta84  1  0.11246093  0.48311233  0.13418986  1
  Ta  Ta85  1  0.91712172  0.88754869  0.86709026  1
  Ta  Ta86  1  0.89825896  0.31198869  0.61273428  1
  Ta  Ta87  1  0.61027963  0.00254167  0.48887209  1
  Ta  Ta88  1  0.70191917  0.10110697  0.89688112  1
  Ta  Ta89  1  0.89345019  0.89983279  0.38967032  1
  Ta  Ta90  1  0.50460951  0.91128353  0.35866776  1
  Ta  Ta91  1  0.78909819  0.40269499  0.49998339  1
  Ta  Ta92  1  0.08565591  0.50143671  0.87072456  1
  Ta  Ta93  1  0.90503564  0.50729193  0.60872184  1
  Ta  Ta94  1  0.01547978  -0.00296650  0.49285974  1
  Ta  Ta95  1  0.50529762  0.28928153  0.62115529  1
  Ta  Ta96  1  0.60784641  0.60159105  0.48573634  1
  Ta  Ta97  1  0.81434597  0.78802481  0.75183671  1
  Ta  Ta98  1  0.01553552  0.00068715  0.74611113  1
  Ta  Ta99  1  0.80028363  0.39595349  0.23928935  1
  Ta  Ta100  1  0.49868960  0.31717023  0.87946559  1
  Ta  Ta101  1  0.40728380  0.80883382  0.74864762  1
  Ta  Ta102  1  0.70423068  0.69927288  0.36949713  1
  Ta  Ta103  1  0.59250417  0.37848563  0.48829332  1
  Ta  Ta104  1  0.60214739  -0.00749436  0.00950966  1
  Ta  Ta105  1  0.29959695  0.92011800  0.87932181  1
  Ta  Ta106  1  0.08546044  0.29243262  0.12989367  1
  Ta  Ta107  1  0.19997949  0.02703066  0.01579813  1
  Ta  Ta108  1  0.00301034  0.19966204  0.26462910  1
  Ta  Ta109  1  0.68204475  0.28400894  0.36761416  1
  Ta  Ta110  1  0.89457540  0.69782745  0.38153727  1
  Ta  Ta111  1  -0.00288484  0.38859276  0.24860422  1
  Ta  Ta112  1  0.89912398  0.09354313  0.38982411  1
  Ta  Ta113  1  0.60305385  0.80946973  0.48305707  1
  Ta  Ta114  1  -0.00545315  0.80274886  0.00161830  1
  Ta  Ta115  1  0.52542774  0.11211861  0.35989484  1
  Ta  Ta116  1  -0.00303162  0.40966467  0.00542914  1
  Ta  Ta117  1  0.19024642  0.40638284  0.74529888  1
  Ta  Ta118  1  0.68573176  0.31106217  0.12659143  1
  Ta  Ta119  1  0.11207087  0.09168428  0.37697844  1
  Ti  Ti120  1  0.70088419  0.89989682  0.36807411  1
  Ti  Ti121  1  0.20540160  0.00277906  0.74840807  1
  Ti  Ti122  1  0.19956975  0.19267968  0.49259443  1
  Ti  Ti123  1  0.00476710  0.79420556  0.74424217  1
  Ti  Ti124  1  0.79354096  0.79718265  0.49510206  1
  Ti  Ti125  1  0.11849459  0.10148019  0.87276405  1
  Ti  Ti126  1  0.18493451  0.59975425  0.74327130  1
  Ti  Ti127  1  -0.00396740  0.60107779  0.74307620  1
  Ti  Ti128  1  0.89997254  0.69263800  0.61226830  1
  Ti  Ti129  1  0.80137405  0.80086111  0.24953395  1
  Ti  Ti130  1  0.20109004  0.00383049  0.23640450  1
  Ti  Ti131  1  0.50771266  0.69708028  0.88278806  1
  Ti  Ti132  1  0.42216152  0.20738577  0.49353613  1
  Ti  Ti133  1  0.50220646  0.50773489  0.88094286  1
  Ti  Ti134  1  -0.00310068  0.40949253  0.74419143  1
  Ti  Ti135  1  0.40427217  0.00516630  0.23334484  1
  Ti  Ti136  1  0.21542610  0.59168472  0.24203070  1
  Ti  Ti137  1  0.39305830  0.80373698  0.25417189  1
  Ti  Ti138  1  0.17402264  0.39417584  0.49928517  1
  Ti  Ti139  1  0.16385621  0.60975579  0.51009259  1
  Ti  Ti140  1  0.58790731  0.38288115  0.25639330  1
  Ti  Ti141  1  0.09342992  0.31017946  0.62553185  1
  Ti  Ti142  1  0.80867423  0.59967463  0.74916744  1
  Ti  Ti143  1  0.60356734  0.00756906  0.23559835  1
  Ti  Ti144  1  0.59432874  0.78949852  0.26228314  1
  Ti  Ti145  1  0.89310018  0.29376460  0.11880195  1
  Ti  Ti146  1  0.70702950  0.08816742  0.37114487  1
  Ti  Ti147  1  0.01254219  -0.00590977  -0.00557950  1
  Ti  Ti148  1  0.60195441  0.59423573  0.00149652  1
  Ti  Ti149  1  0.89938962  0.50385277  0.87713543  1
  Ti  Ti150  1  0.00125306  0.59560134  0.01178773  1
  Ti  Ti151  1  0.39000191  -0.00165037  0.74596775  1
  Ti  Ti152  1  0.50256110  0.70241303  0.38341794  1
  Ti  Ti153  1  0.70337131  0.89363081  0.12539333  1
  Ti  Ti154  1  0.90666180  0.69327345  0.87778270  1
  Ti  Ti155  1  0.10368040  0.90819167  0.87448050  1
  Ti  Ti156  1  0.09312713  0.49055652  0.37378519  1
  Ti  Ti157  1  0.69111769  0.49606538  0.87214332  1
  Ti  Ti158  1  0.31786454  0.70791486  0.11687428  1
  Ti  Ti159  1  0.90411908  0.70857653  0.12473439  1
  Mo  Mo160  1  0.70104425  0.49299650  0.14221436  1
  Mo  Mo161  1  0.10424906  0.30245069  0.37749806  1
  Mo  Mo162  1  0.29450996  0.10304321  0.14329895  1
  Mo  Mo163  1  0.59528689  0.40780029  0.75640922  1
  Mo  Mo164  1  0.40705826  0.60436286  0.49961028  1
  Mo  Mo165  1  -0.00342260  0.59703524  0.49531267  1
  Mo  Mo166  1  0.29110517  0.09189126  0.87560475  1
  Mo  Mo167  1  0.89528014  0.89205596  0.12343951  1
  Mo  Mo168  1  0.41513662  0.60593708  0.00758116  1
  Mo  Mo169  1  0.00055880  0.40313877  0.50453072  1
  Mo  Mo170  1  0.60234552  0.79606148  0.00271436  1
  Mo  Mo171  1  0.10019758  0.90059253  0.36878988  1
  Mo  Mo172  1  0.39904160  0.79456498  0.00322104  1
  Mo  Mo173  1  0.80356291  0.20400067  -0.00497496  1
  Mo  Mo174  1  0.30788206  0.90006697  0.62805384  1
  Mo  Mo175  1  0.29319456  0.89381201  0.14364186  1
  Mo  Mo176  1  0.29776431  0.51479463  0.12472541  1
  Mo  Mo177  1  0.50383336  0.30711015  0.12293245  1
  Mo  Mo178  1  0.18531392  0.40835931  0.26381991  1
  Mo  Mo179  1  0.49279009  0.29530112  0.37357530  1
  Mo  Mo180  1  0.09736542  0.09943257  0.61730758  1
  Mo  Mo181  1  0.79783948  -0.01178016  0.49483234  1
  Mo  Mo182  1  0.39411242  0.39344081  0.50091178  1
  Mo  Mo183  1  0.49634751  0.10532743  0.62378462  1
  Mo  Mo184  1  0.20806287  0.79198602  0.23744986  1
  Mo  Mo185  1  0.10426129  0.11174422  0.13551003  1
  Mo  Mo186  1  0.19405198  0.20091457  0.00057803  1
  Mo  Mo187  1  0.19913556  -0.00107599  0.49345806  1
  Mo  Mo188  1  0.50124151  0.69620417  0.12146060  1
  Mo  Mo189  1  0.79489156  0.60489503  0.49595815  1
  Mo  Mo190  1  0.09294300  0.49845423  0.62965156  1
  Mo  Mo191  1  0.59918649  0.59951370  0.27218639  1
  Mo  Mo192  1  0.59473623  0.18990674  0.49562585  1
  Mo  Mo193  1  0.61005716  0.19748951  0.23857787  1
  Mo  Mo194  1  0.59761451  0.41033322  -0.00298716  1
  Mo  Mo195  1  0.08347880  0.69302805  0.63473905  1
  Mo  Mo196  1  0.19479308  0.80671676  0.49818347  1
  Mo  Mo197  1  0.59498404  0.78307131  0.75213275  1
  Mo  Mo198  1  0.91211047  0.48958343  0.12909489  1
  Mo  Mo199  1  0.51076179  0.09312677  0.12985607  1
