# generated using pymatgen
data_HfZrTaTiMo
_symmetry_space_group_name_H-M   'P 1'
_cell_length_a   15.20766589
_cell_length_b   15.21096570
_cell_length_c   16.85620892
_cell_angle_alpha   89.99013488
_cell_angle_beta   90.01034823
_cell_angle_gamma   89.98431713
_symmetry_Int_Tables_number   1
_chemical_formula_structural   HfZrTaTiMo
_chemical_formula_sum   'Hf40 Zr40 Ta40 Ti40 Mo40'
_cell_volume   3899.23333925
_cell_formula_units_Z   40
loop_
 _symmetry_equiv_pos_site_id
 _symmetry_equiv_pos_as_xyz
  1  'x, y, z'
loop_
 _atom_site_type_symbol
 _atom_site_label
 _atom_site_symmetry_multiplicity
 _atom_site_fract_x
 _atom_site_fract_y
 _atom_site_fract_z
 _atom_site_occupancy
  Hf  Hf0  1  0.30710670  0.89327753  0.38424147  1
  Hf  Hf1  1  0.30288266  0.29048674  0.88049675  1
  Hf  Hf2  1  0.21405401  -0.00760099  0.01129318  1
  Hf  Hf3  1  0.79767720  0.39804237  0.24645895  1
  Hf  Hf4  1  0.58290616  0.41095916  0.73990472  1
  Hf  Hf5  1  0.51953855  0.68205024  0.63409809  1
  Hf  Hf6  1  -0.00491777  0.02040631  0.74311654  1
  Hf  Hf7  1  0.79612710  0.60480476  0.50073299  1
  Hf  Hf8  1  0.38449081  0.39229995  0.49476338  1
  Hf  Hf9  1  0.39870626  0.59421739  0.76789763  1
  Hf  Hf10  1  0.60238670  0.01288235  0.26050242  1
  Hf  Hf11  1  0.69708308  0.88703287  0.62742276  1
  Hf  Hf12  1  0.90906907  0.30995112  0.37516536  1
  Hf  Hf13  1  0.11350534  0.10106581  0.13370856  1
  Hf  Hf14  1  0.39515388  0.60062596  -0.01289426  1
  Hf  Hf15  1  0.29110309  0.49507543  0.36342311  1
  Hf  Hf16  1  0.10634320  0.90830014  0.87034983  1
  Hf  Hf17  1  0.10805109  0.50942216  0.13198616  1
  Hf  Hf18  1  0.09696343  0.12762654  0.62264412  1
  Hf  Hf19  1  0.58797726  0.59735490  0.25644446  1
  Hf  Hf20  1  0.81000263  0.18518975  0.74345628  1
  Hf  Hf21  1  0.72028982  0.70429793  0.35805028  1
  Hf  Hf22  1  0.09542571  0.90262343  0.37792673  1
  Hf  Hf23  1  0.19807729  0.39419851  0.00627545  1
  Hf  Hf24  1  0.48578165  0.10468661  0.12303002  1
  Hf  Hf25  1  -0.00272824  0.60944996  0.24971448  1
  Hf  Hf26  1  0.00016822  0.20702643  0.23983100  1
  Hf  Hf27  1  0.48080687  0.29004485  0.37937040  1
  Hf  Hf28  1  0.59637940  0.00302928  0.74765044  1
  Hf  Hf29  1  0.89307119  0.51238647  0.12780229  1
  Hf  Hf30  1  0.68424825  0.49890269  0.12843185  1
  Hf  Hf31  1  0.79831137  0.79926783  -0.01348063  1
  Hf  Hf32  1  0.00401530  0.79679181  0.00060284  1
  Hf  Hf33  1  0.91359155  0.69302788  0.86295098  1
  Hf  Hf34  1  0.30272038  0.68591514  0.62956785  1
  Hf  Hf35  1  0.20857197  0.00990575  0.73670758  1
  Hf  Hf36  1  0.89962139  0.29641645  0.87494089  1
  Hf  Hf37  1  0.20945051  0.79793749  0.00365736  1
  Hf  Hf38  1  0.10817745  0.52263717  0.64074888  1
  Hf  Hf39  1  0.00147162  0.60828802  0.50253857  1
  Zr  Zr40  1  0.68948459  0.30347916  0.87510615  1
  Zr  Zr41  1  0.21919778  0.78958456  0.24192091  1
  Zr  Zr42  1  0.20157386  0.01070400  0.50402343  1
  Zr  Zr43  1  0.31656252  0.49051300  0.12903767  1
  Zr  Zr44  1  0.31474551  0.48913914  0.63043330  1
  Zr  Zr45  1  0.78454003  0.18780073  0.25695109  1
  Zr  Zr46  1  0.88282743  0.09503542  0.13044922  1
  Zr  Zr47  1  0.01332437  0.20878092  0.48913208  1
  Zr  Zr48  1  0.00585252  0.80851509  0.73712589  1
  Zr  Zr49  1  0.38730336  0.61203713  0.25715314  1
  Zr  Zr50  1  0.79620883  0.39527855  0.73979728  1
  Zr  Zr51  1  0.00345985  0.21194021  0.02112383  1
  Zr  Zr52  1  0.21072203  -0.00857849  0.24188772  1
  Zr  Zr53  1  0.80745733  0.18828788  0.49992906  1
  Zr  Zr54  1  0.61138126  0.79181893  0.49236187  1
  Zr  Zr55  1  0.79136152  0.80277833  0.76426404  1
  Zr  Zr56  1  0.90611590  0.49191551  0.86773195  1
  Zr  Zr57  1  0.79303474  -0.00820875  0.48934032  1
  Zr  Zr58  1  0.59726845  0.81670764  0.25763546  1
  Zr  Zr59  1  0.58479334  0.41078635  0.50300354  1
  Zr  Zr60  1  0.80404778  0.60307116  -0.00569770  1
  Zr  Zr61  1  0.09291553  0.30917047  0.88161045  1
  Zr  Zr62  1  0.69272251  0.29282715  0.62171374  1
  Zr  Zr63  1  0.69169925  0.10221152  0.87931507  1
  Zr  Zr64  1  0.69194894  0.29493002  0.38130208  1
  Zr  Zr65  1  0.59464094  0.60780960  -0.00226733  1
  Zr  Zr66  1  0.21413259  0.80059800  0.73531381  1
  Zr  Zr67  1  0.80162919  0.40195280  0.50934114  1
  Zr  Zr68  1  0.19884515  0.59784072  -0.01797878  1
  Zr  Zr69  1  0.79037625  -0.00960774  -0.00419574  1
  Zr  Zr70  1  0.18468027  0.39537071  0.50569068  1
  Zr  Zr71  1  0.71016526  0.70605538  0.13667841  1
  Zr  Zr72  1  0.68525037  0.52714966  0.62888673  1
  Zr  Zr73  1  0.11350747  0.70309612  0.37141256  1
  Zr  Zr74  1  0.39607239  0.18297806  0.75236161  1
  Zr  Zr75  1  0.49319396  0.71550885  0.12786950  1
  Zr  Zr76  1  0.09059736  0.49382179  0.36620956  1
  Zr  Zr77  1  0.68780004  0.28897679  0.12464056  1
  Zr  Zr78  1  0.40737257  0.80145148  0.51879150  1
  Zr  Zr79  1  0.00301171  -0.00576073  0.01500340  1
  Ta  Ta80  1  0.68079323  0.09213835  0.11460532  1
  Ta  Ta81  1  0.00811404  0.39106080  0.73488924  1
  Ta  Ta82  1  0.58313266  0.39986934  0.25594494  1
  Ta  Ta83  1  -0.00559019  0.40838156  0.51707582  1
  Ta  Ta84  1  0.90836226  0.08836334  0.36335793  1
  Ta  Ta85  1  0.89149445  0.50899281  0.37033684  1
  Ta  Ta86  1  0.40329082  0.00809778  0.51587876  1
  Ta  Ta87  1  0.60300626  0.81263234  -0.01165727  1
  Ta  Ta88  1  0.59546639  -0.00394405  0.50238705  1
  Ta  Ta89  1  0.20729864  0.40385591  0.75710971  1
  Ta  Ta90  1  0.69579114  0.50244170  0.87412262  1
  Ta  Ta91  1  0.10554627  0.10280941  0.36154868  1
  Ta  Ta92  1  0.90847718  0.10224748  0.88455661  1
  Ta  Ta93  1  0.81352116  0.79447621  0.50281178  1
  Ta  Ta94  1  0.40550718  0.00135701  0.25416819  1
  Ta  Ta95  1  -0.00042462  0.80624724  0.51365990  1
  Ta  Ta96  1  0.59074384  0.20497312  0.74574206  1
  Ta  Ta97  1  0.90111487  0.88899852  0.37223727  1
  Ta  Ta98  1  0.59024096  0.39604493  -0.00000264  1
  Ta  Ta99  1  0.69734028  0.49995347  0.36878405  1
  Ta  Ta100  1  0.79191619  -0.01508306  0.25890019  1
  Ta  Ta101  1  0.57689462  0.00095248  -0.00700874  1
  Ta  Ta102  1  0.41005640  0.81198293  -0.00485605  1
  Ta  Ta103  1  0.59056603  0.18738574  0.50398299  1
  Ta  Ta104  1  0.22036203  0.20034111  0.24715683  1
  Ta  Ta105  1  0.11121936  0.29937850  0.35988029  1
  Ta  Ta106  1  0.49849072  0.48644661  0.87862411  1
  Ta  Ta107  1  0.20941500  0.60093023  0.49809259  1
  Ta  Ta108  1  0.90122260  0.50836464  0.63897369  1
  Ta  Ta109  1  0.89582033  0.69936951  0.63550770  1
  Ta  Ta110  1  0.30900020  0.88882493  0.86705123  1
  Ta  Ta111  1  0.90523971  0.90912148  0.87105382  1
  Ta  Ta112  1  0.79806232  0.39689104  0.00665516  1
  Ta  Ta113  1  0.79713651  0.20205246  0.00477077  1
  Ta  Ta114  1  -0.00765375  0.00683435  0.50130593  1
  Ta  Ta115  1  0.49310341  0.90957378  0.86394156  1
  Ta  Ta116  1  0.10420644  0.10709617  0.87935465  1
  Ta  Ta117  1  -0.00518019  -0.01499442  0.23905330  1
  Ta  Ta118  1  0.18951539  0.20712665  0.75497803  1
  Ta  Ta119  1  0.19743351  0.79570063  0.51500967  1
  Ti  Ti120  1  0.30446373  0.08045262  0.87645444  1
  Ti  Ti121  1  0.50046166  0.90755769  0.38335963  1
  Ti  Ti122  1  0.89555388  0.91013972  0.62615456  1
  Ti  Ti123  1  0.29097497  0.28424183  0.63157479  1
  Ti  Ti124  1  0.39792124  -0.01707484  0.72585486  1
  Ti  Ti125  1  0.31071749  0.10905415  0.37527305  1
  Ti  Ti126  1  0.10069048  0.90924580  0.61813447  1
  Ti  Ti127  1  0.58310559  0.20171962  0.25575747  1
  Ti  Ti128  1  0.40302479  0.39247225  -0.00422690  1
  Ti  Ti129  1  0.20866065  0.19122120  0.00399629  1
  Ti  Ti130  1  0.39918934  0.38534601  0.75824031  1
  Ti  Ti131  1  0.69807277  0.90152163  0.12454135  1
  Ti  Ti132  1  -0.00110485  0.39754294  0.23517095  1
  Ti  Ti133  1  0.49472787  0.71197054  0.86983077  1
  Ti  Ti134  1  0.40675100  0.59253935  0.48904555  1
  Ti  Ti135  1  0.59173866  0.60048504  0.47912294  1
  Ti  Ti136  1  0.20104476  0.38900513  0.23784305  1
  Ti  Ti137  1  0.00558486  0.60001809  0.00016565  1
  Ti  Ti138  1  0.70315695  0.09265140  0.62611448  1
  Ti  Ti139  1  0.59782237  0.79444148  0.75834455  1
  Ti  Ti140  1  0.30948964  0.27668631  0.11838534  1
  Ti  Ti141  1  0.48215905  0.71069379  0.37250625  1
  Ti  Ti142  1  0.29980895  0.69379432  0.11981979  1
  Ti  Ti143  1  0.49503047  0.30597612  0.12462507  1
  Ti  Ti144  1  0.09574644  0.50858011  0.85957158  1
  Ti  Ti145  1  0.33694246  0.89997847  0.12551989  1
  Ti  Ti146  1  0.48450617  0.30016295  0.61910876  1
  Ti  Ti147  1  0.10245011  0.70362588  0.12895135  1
  Ti  Ti148  1  0.91824808  0.28349459  0.62775648  1
  Ti  Ti149  1  0.41508656  0.18760019  -0.01477607  1
  Ti  Ti150  1  0.91093050  0.70699556  0.36898433  1
  Ti  Ti151  1  0.79900591  -0.00382063  0.75811679  1
  Ti  Ti152  1  0.11159727  0.70226327  0.86175730  1
  Ti  Ti153  1  0.50022111  0.10301440  0.62304793  1
  Ti  Ti154  1  0.78591978  0.60589356  0.75518620  1
  Ti  Ti155  1  0.21702436  0.20714646  0.49059608  1
  Ti  Ti156  1  0.39652004  0.38353679  0.25168648  1
  Ti  Ti157  1  -0.00473712  0.40459617  0.01697739  1
  Ti  Ti158  1  0.90386258  0.71675653  0.13348093  1
  Ti  Ti159  1  0.49566279  0.09901774  0.38484242  1
  Mo  Mo160  1  0.11051689  0.30390558  0.13368057  1
  Mo  Mo161  1  0.49614406  0.49764139  0.37197243  1
  Mo  Mo162  1  0.70247147  0.90092636  0.37948573  1
  Mo  Mo163  1  0.39480459  0.19361369  0.50848227  1
  Mo  Mo164  1  0.41287820  0.80475608  0.73975102  1
  Mo  Mo165  1  0.81534078  0.80730191  0.24786596  1
  Mo  Mo166  1  0.30204290  0.70094451  0.39198890  1
  Mo  Mo167  1  0.59945547  0.60409165  0.77157632  1
  Mo  Mo168  1  0.09451608  0.88784553  0.12890949  1
  Mo  Mo169  1  0.29034940  0.29469708  0.36921664  1
  Mo  Mo170  1  0.89428597  0.30736780  0.12130625  1
  Mo  Mo171  1  0.69074736  0.69696700  0.87654849  1
  Mo  Mo172  1  0.10104299  0.70370821  0.62203573  1
  Mo  Mo173  1  0.20067778  0.59761208  0.24401797  1
  Mo  Mo174  1  0.68991436  0.90021822  0.87133328  1
  Mo  Mo175  1  0.39685371  -0.00408747  -0.00800206  1
  Mo  Mo176  1  0.88816389  0.89034609  0.13026190  1
  Mo  Mo177  1  0.68782513  0.09764450  0.38033680  1
  Mo  Mo178  1  0.70958601  0.70105464  0.62705851  1
  Mo  Mo179  1  0.50590885  0.89954586  0.63075567  1
  Mo  Mo180  1  0.80120703  0.59840956  0.25403825  1
  Mo  Mo181  1  0.59377185  0.20148987  0.00026243  1
  Mo  Mo182  1  0.29927347  0.48703163  0.87513232  1
  Mo  Mo183  1  0.10744082  0.31239881  0.63017086  1
  Mo  Mo184  1  0.89632824  0.09531754  0.62137927  1
  Mo  Mo185  1  0.00774064  0.80647601  0.24405922  1
  Mo  Mo186  1  0.30236948  0.90221288  0.61558591  1
  Mo  Mo187  1  0.48930006  0.50265061  0.62578630  1
  Mo  Mo188  1  0.30107892  0.10872413  0.62195124  1
  Mo  Mo189  1  0.30763947  0.10039846  0.12170464  1
  Mo  Mo190  1  0.40236954  0.19538065  0.25023620  1
  Mo  Mo191  1  -0.00114348  0.60330981  0.74762267  1
  Mo  Mo192  1  0.00173286  0.20220172  0.75597229  1
  Mo  Mo193  1  0.49226223  0.10146727  0.86815518  1
  Mo  Mo194  1  0.51357143  0.91110192  0.12173652  1
  Mo  Mo195  1  0.30592627  0.70828102  0.87166062  1
  Mo  Mo196  1  0.50131872  0.29610674  0.87532042  1
  Mo  Mo197  1  0.49419532  0.48727712  0.12230122  1
  Mo  Mo198  1  0.40398944  0.81737112  0.25719255  1
  Mo  Mo199  1  0.20252797  0.60038395  0.76832997  1
