# generated using pymatgen
data_HfZrTaTiMo
_symmetry_space_group_name_H-M   'P 1'
_cell_length_a   15.21026531
_cell_length_b   15.21092370
_cell_length_c   16.82815931
_cell_angle_alpha   90.00756163
_cell_angle_beta   89.99686987
_cell_angle_gamma   89.91789794
_symmetry_Int_Tables_number   1
_chemical_formula_structural   HfZrTaTiMo
_chemical_formula_sum   'Hf40 Zr40 Ta40 Ti40 Mo40'
_cell_volume   3893.39567282
_cell_formula_units_Z   40
loop_
 _symmetry_equiv_pos_site_id
 _symmetry_equiv_pos_as_xyz
  1  'x, y, z'
loop_
 _atom_site_type_symbol
 _atom_site_label
 _atom_site_symmetry_multiplicity
 _atom_site_fract_x
 _atom_site_fract_y
 _atom_site_fract_z
 _atom_site_occupancy
  Hf  Hf0  1  0.90794368  0.11014127  0.87178378  1
  Hf  Hf1  1  0.80150711  0.20678332  0.74361595  1
  Hf  Hf2  1  0.81858601  0.39968788  0.00318631  1
  Hf  Hf3  1  0.90165664  0.90706246  0.36155969  1
  Hf  Hf4  1  0.00214041  0.01422476  0.01193370  1
  Hf  Hf5  1  0.01446802  0.40903788  0.49959400  1
  Hf  Hf6  1  0.69488989  0.69411069  0.89087782  1
  Hf  Hf7  1  0.38779790  0.80041922  0.00478341  1
  Hf  Hf8  1  0.21818920  -0.00380151  0.23896856  1
  Hf  Hf9  1  0.29729086  0.70049130  0.37463712  1
  Hf  Hf10  1  0.51262761  0.30458285  0.37118421  1
  Hf  Hf11  1  0.61560780  0.38225443  0.23254299  1
  Hf  Hf12  1  0.39911324  0.60363806  0.50656414  1
  Hf  Hf13  1  0.50337237  0.69754887  0.11260958  1
  Hf  Hf14  1  0.59606765  0.78016895  0.51618419  1
  Hf  Hf15  1  0.70676879  0.50344727  0.11425173  1
  Hf  Hf16  1  0.70098671  0.88482044  0.10945166  1
  Hf  Hf17  1  0.03295137  0.41323970  0.26773040  1
  Hf  Hf18  1  0.20273463  0.39246155  -0.02498495  1
  Hf  Hf19  1  0.67509924  0.08862871  0.11539820  1
  Hf  Hf20  1  0.79312188  0.60835846  0.24420323  1
  Hf  Hf21  1  0.39655483  0.20265767  0.49528380  1
  Hf  Hf22  1  0.80127279  -0.00249786  -0.01296124  1
  Hf  Hf23  1  0.41064957  0.39718086  -0.01044466  1
  Hf  Hf24  1  0.39930174  0.19681361  0.26637251  1
  Hf  Hf25  1  0.39376609  -0.00648845  0.51092243  1
  Hf  Hf26  1  0.30683788  0.49161902  0.64578842  1
  Hf  Hf27  1  0.00988230  0.00527160  0.24391418  1
  Hf  Hf28  1  0.88313977  0.12212820  0.13881294  1
  Hf  Hf29  1  0.00142223  0.22538958  0.00053674  1
  Hf  Hf30  1  0.30225940  0.89160804  0.86415239  1
  Hf  Hf31  1  0.29992832  0.08173065  0.37767148  1
  Hf  Hf32  1  0.69242803  0.69270465  0.37663455  1
  Hf  Hf33  1  0.69563710  0.10062326  0.86910581  1
  Hf  Hf34  1  0.31353452  0.50766743  0.85924634  1
  Hf  Hf35  1  0.10013212  0.91046854  0.87320004  1
  Hf  Hf36  1  0.79406742  0.61464785  0.51724590  1
  Hf  Hf37  1  -0.00396121  0.62537249  0.74947526  1
  Hf  Hf38  1  0.29126876  0.09647542  0.87160429  1
  Hf  Hf39  1  0.88937316  0.71433231  0.37655678  1
  Zr  Zr40  1  0.38645344  0.59909847  0.23504612  1
  Zr  Zr41  1  0.82637898  0.39388602  0.23674441  1
  Zr  Zr42  1  0.50040159  0.10859115  0.62835467  1
  Zr  Zr43  1  0.19354856  0.79848110  0.50733182  1
  Zr  Zr44  1  0.79603118  0.60871067  0.75430047  1
  Zr  Zr45  1  0.68629258  0.29984879  0.62074229  1
  Zr  Zr46  1  0.19717952  0.79314708  0.23101645  1
  Zr  Zr47  1  0.88564310  0.69624322  0.10555171  1
  Zr  Zr48  1  0.49579403  0.27891289  0.13087901  1
  Zr  Zr49  1  0.20556946  -0.00905080  0.01956193  1
  Zr  Zr50  1  0.00019945  0.81384850  0.00398787  1
  Zr  Zr51  1  0.59426153  0.57838206  0.51188931  1
  Zr  Zr52  1  0.79282437  0.21045734  0.00147042  1
  Zr  Zr53  1  0.88224098  0.11138956  0.36553363  1
  Zr  Zr54  1  0.60402651  -0.00833737  0.74829904  1
  Zr  Zr55  1  0.71640953  0.88620240  0.62120662  1
  Zr  Zr56  1  0.58699891  0.58727136  0.75786598  1
  Zr  Zr57  1  0.10750026  0.11851244  0.13308734  1
  Zr  Zr58  1  0.90794586  0.30671285  0.38678336  1
  Zr  Zr59  1  0.10403281  0.29357700  0.63132681  1
  Zr  Zr60  1  0.11993315  0.31915109  0.12472811  1
  Zr  Zr61  1  0.10337658  0.49668762  0.64345285  1
  Zr  Zr62  1  0.30528700  0.70140303  0.64659997  1
  Zr  Zr63  1  0.60241670  0.78949463  0.75157634  1
  Zr  Zr64  1  0.39869164  -0.00353095  0.74438534  1
  Zr  Zr65  1  0.51407655  0.90883216  0.11694564  1
  Zr  Zr66  1  0.70089261  0.89349894  0.38844083  1
  Zr  Zr67  1  -0.00454214  0.60150885  0.24695080  1
  Zr  Zr68  1  0.41407969  0.40178699  0.50391482  1
  Zr  Zr69  1  0.40779365  0.01265711  0.00262506  1
  Zr  Zr70  1  0.70021648  0.48751465  0.37089078  1
  Zr  Zr71  1  0.49233120  0.90564022  0.37481119  1
  Zr  Zr72  1  0.88841142  0.90614504  0.13673184  1
  Zr  Zr73  1  0.00353616  0.61556607  0.51894783  1
  Zr  Zr74  1  0.28781129  0.89989029  0.63776929  1
  Zr  Zr75  1  0.60932456  0.38081131  0.00134400  1
  Zr  Zr76  1  0.39554147  0.81015000  0.23733117  1
  Zr  Zr77  1  0.09402980  0.69887643  0.37481062  1
  Zr  Zr78  1  0.49753847  0.50364206  0.35957730  1
  Zr  Zr79  1  0.71544261  0.28180404  0.38352907  1
  Ta  Ta80  1  0.90391645  0.91758863  0.62747561  1
  Ta  Ta81  1  0.29096138  0.48445229  0.11545565  1
  Ta  Ta82  1  -0.00056791  0.19507597  0.50284176  1
  Ta  Ta83  1  0.48152796  0.69447386  0.88043256  1
  Ta  Ta84  1  0.09336175  0.50763305  0.86464128  1
  Ta  Ta85  1  0.89388623  0.73004096  0.62972836  1
  Ta  Ta86  1  0.09598147  0.70569061  0.88512579  1
  Ta  Ta87  1  0.59662907  0.60158838  0.23700124  1
  Ta  Ta88  1  0.80838320  0.00818369  0.50023410  1
  Ta  Ta89  1  0.89568811  0.50039494  0.63302353  1
  Ta  Ta90  1  0.49330658  0.09896998  0.86542206  1
  Ta  Ta91  1  0.19641888  0.20162896  0.49055428  1
  Ta  Ta92  1  -0.00231007  0.22055119  0.25154258  1
  Ta  Ta93  1  0.29175750  0.70131296  0.86350316  1
  Ta  Ta94  1  0.28941242  0.49459021  0.37567830  1
  Ta  Ta95  1  0.60509886  0.16567892  0.26314088  1
  Ta  Ta96  1  -0.00130891  0.00527265  0.75084544  1
  Ta  Ta97  1  0.60037608  0.19110754  0.49675967  1
  Ta  Ta98  1  0.09449589  0.10798943  0.37086770  1
  Ta  Ta99  1  -0.00159964  0.80018430  0.23624135  1
  Ta  Ta100  1  0.61341675  0.79514073  0.24612412  1
  Ta  Ta101  1  0.58373139  0.18666490  -0.00988248  1
  Ta  Ta102  1  0.21250540  0.39473564  0.50150757  1
  Ta  Ta103  1  -0.00801108  0.81966164  0.50190290  1
  Ta  Ta104  1  0.58642765  0.58270061  -0.00967220  1
  Ta  Ta105  1  0.19960585  0.59815221  -0.01025845  1
  Ta  Ta106  1  0.70373639  0.49049395  0.63621141  1
  Ta  Ta107  1  0.70956453  0.09528881  0.62139446  1
  Ta  Ta108  1  0.20271565  0.22208776  0.26943441  1
  Ta  Ta109  1  0.69329109  0.69794503  0.09828353  1
  Ta  Ta110  1  0.20003489  0.59036876  0.51079522  1
  Ta  Ta111  1  0.90238001  0.51348602  0.38574872  1
  Ta  Ta112  1  0.39853141  0.79649324  0.50043393  1
  Ta  Ta113  1  0.80002038  0.40991394  0.50717028  1
  Ta  Ta114  1  0.76576353  0.00502876  0.25352325  1
  Ta  Ta115  1  0.19140126  0.58409259  0.24308932  1
  Ta  Ta116  1  0.89791521  0.30772759  0.62180058  1
  Ta  Ta117  1  0.09519535  0.68939714  0.11035966  1
  Ta  Ta118  1  0.30596511  0.29740887  0.63455601  1
  Ta  Ta119  1  0.50001728  0.70217896  0.36740745  1
  Ti  Ti120  1  0.19644643  0.19624325  0.75095916  1
  Ti  Ti121  1  0.41676090  0.01062477  0.23822240  1
  Ti  Ti122  1  0.80606838  -0.00433672  0.75809341  1
  Ti  Ti123  1  0.20540266  0.20192935  -0.00505678  1
  Ti  Ti124  1  0.30988859  0.12329642  0.12857102  1
  Ti  Ti125  1  0.49125822  0.88057854  0.62859964  1
  Ti  Ti126  1  0.00336854  0.00565017  0.49340219  1
  Ti  Ti127  1  0.59134922  0.20447851  0.75207607  1
  Ti  Ti128  1  0.17383339  0.79616239  0.74789830  1
  Ti  Ti129  1  0.20051357  0.79614529  0.01327380  1
  Ti  Ti130  1  0.19603340  0.38775208  0.76584957  1
  Ti  Ti131  1  0.81419498  0.80680867  0.77200604  1
  Ti  Ti132  1  0.59597201  -0.00435909  0.51126531  1
  Ti  Ti133  1  0.80406394  0.80304208  -0.02420647  1
  Ti  Ti134  1  0.18888948  0.00804936  0.74486209  1
  Ti  Ti135  1  0.09578760  0.09492968  0.62088536  1
  Ti  Ti136  1  0.10306440  0.50533291  0.10957526  1
  Ti  Ti137  1  0.70137478  0.29799385  0.86927404  1
  Ti  Ti138  1  0.00390264  0.20416681  0.74774853  1
  Ti  Ti139  1  0.08630187  0.89948052  0.63003072  1
  Ti  Ti140  1  0.38266188  0.39162164  0.24561884  1
  Ti  Ti141  1  -0.01036583  0.40416965  0.75561902  1
  Ti  Ti142  1  0.49640489  0.49263031  0.12676783  1
  Ti  Ti143  1  0.90392030  0.10549709  0.62524087  1
  Ti  Ti144  1  0.71169908  0.48927924  0.87766188  1
  Ti  Ti145  1  0.28462251  0.10731508  0.62218742  1
  Ti  Ti146  1  0.30594044  0.29014582  0.86294160  1
  Ti  Ti147  1  0.60431685  0.39137968  0.76331273  1
  Ti  Ti148  1  0.10047272  0.11176221  0.87590174  1
  Ti  Ti149  1  0.11221649  0.90367626  0.37064367  1
  Ti  Ti150  1  0.41969935  0.39083523  0.76080298  1
  Ti  Ti151  1  0.18968084  -0.00010755  0.49934053  1
  Ti  Ti152  1  0.39534443  0.20643042  -0.00698034  1
  Ti  Ti153  1  0.89942167  0.31451346  0.86384224  1
  Ti  Ti154  1  0.38974325  0.59446584  0.00357157  1
  Ti  Ti155  1  0.19305440  0.60478893  0.75388178  1
  Ti  Ti156  1  0.39900873  0.20300369  0.74699170  1
  Ti  Ti157  1  0.91773588  0.50320193  0.11439324  1
  Ti  Ti158  1  0.50509961  0.48194827  0.63513471  1
  Ti  Ti159  1  0.00768158  0.41434637  -0.01861770  1
  Mo  Mo160  1  0.69199197  0.08805140  0.39140179  1
  Mo  Mo161  1  0.30470502  0.30395965  0.38113945  1
  Mo  Mo162  1  0.50311952  0.28779228  0.87014276  1
  Mo  Mo163  1  0.11028360  0.30083955  0.38519711  1
  Mo  Mo164  1  0.80720916  0.80752496  0.50460302  1
  Mo  Mo165  1  0.90488047  0.90822419  0.86997608  1
  Mo  Mo166  1  0.50552273  0.89363272  0.88127572  1
  Mo  Mo167  1  0.91967895  0.31321913  0.12844529  1
  Mo  Mo168  1  0.09340559  0.29804202  0.86120647  1
  Mo  Mo169  1  0.21363421  0.40860223  0.25297587  1
  Mo  Mo170  1  0.59841472  -0.00531577  -0.02347417  1
  Mo  Mo171  1  0.50755478  0.09476850  0.38712555  1
  Mo  Mo172  1  0.28923285  0.89434649  0.38421532  1
  Mo  Mo173  1  0.90126533  0.50358111  0.86884267  1
  Mo  Mo174  1  0.00148237  0.59678783  -0.01197324  1
  Mo  Mo175  1  0.49726755  0.10276722  0.12370242  1
  Mo  Mo176  1  0.28829763  0.68226188  0.11312878  1
  Mo  Mo177  1  0.40405320  0.59739013  0.75167452  1
  Mo  Mo178  1  0.49500977  0.30181869  0.63184549  1
  Mo  Mo179  1  -0.00702374  0.81455689  0.75597347  1
  Mo  Mo180  1  0.09921698  0.89648913  0.12907442  1
  Mo  Mo181  1  0.60471341  0.39376900  0.50401708  1
  Mo  Mo182  1  0.80664137  0.19670805  0.51817113  1
  Mo  Mo183  1  0.29927836  0.29414688  0.12078702  1
  Mo  Mo184  1  0.10861226  0.50985271  0.38751538  1
  Mo  Mo185  1  0.90501385  0.70019995  0.88687515  1
  Mo  Mo186  1  0.70181711  0.89858062  0.87451407  1
  Mo  Mo187  1  0.59308057  0.79704503  -0.01741274  1
  Mo  Mo188  1  0.59405798  -0.01510512  0.25327398  1
  Mo  Mo189  1  0.49568945  0.69304529  0.63099815  1
  Mo  Mo190  1  0.09636274  0.71306309  0.62756532  1
  Mo  Mo191  1  0.71129756  0.28149887  0.12790181  1
  Mo  Mo192  1  0.30517149  0.90055611  0.12241959  1
  Mo  Mo193  1  0.78640057  0.20574868  0.24462294  1
  Mo  Mo194  1  0.70473577  0.69249944  0.63407642  1
  Mo  Mo195  1  0.80141439  0.59234443  -0.01240901  1
  Mo  Mo196  1  0.79928972  0.40107536  0.75106826  1
  Mo  Mo197  1  0.40804714  0.79356804  0.76018624  1
  Mo  Mo198  1  0.50692482  0.49468625  0.87806676  1
  Mo  Mo199  1  0.79345404  0.79870330  0.24369681  1
