# generated using pymatgen
data_HfZrTaTiMo
_symmetry_space_group_name_H-M   'P 1'
_cell_length_a   15.21020138
_cell_length_b   15.20205720
_cell_length_c   16.86293288
_cell_angle_alpha   89.93174540
_cell_angle_beta   89.97238405
_cell_angle_gamma   89.96944836
_symmetry_Int_Tables_number   1
_chemical_formula_structural   HfZrTaTiMo
_chemical_formula_sum   'Hf40 Zr40 Ta40 Ti40 Mo40'
_cell_volume   3899.15067167
_cell_formula_units_Z   40
loop_
 _symmetry_equiv_pos_site_id
 _symmetry_equiv_pos_as_xyz
  1  'x, y, z'
loop_
 _atom_site_type_symbol
 _atom_site_label
 _atom_site_symmetry_multiplicity
 _atom_site_fract_x
 _atom_site_fract_y
 _atom_site_fract_z
 _atom_site_occupancy
  Hf  Hf0  1  0.48496080  0.49283492  0.39250441  1
  Hf  Hf1  1  -0.02114958  0.81840168  0.01143519  1
  Hf  Hf2  1  0.69743448  0.49215234  0.87331718  1
  Hf  Hf3  1  0.81539891  0.19061753  0.24734268  1
  Hf  Hf4  1  0.60745139  0.19195811  0.00051240  1
  Hf  Hf5  1  0.69329981  0.88956432  0.37478190  1
  Hf  Hf6  1  0.80505409  0.18873555  0.49410244  1
  Hf  Hf7  1  0.68721531  0.89286002  0.65220697  1
  Hf  Hf8  1  0.41708405  -0.00202838  0.74652054  1
  Hf  Hf9  1  0.50712919  0.29942545  0.87096525  1
  Hf  Hf10  1  0.40716903  0.00211138  0.50526074  1
  Hf  Hf11  1  0.49733445  0.69946861  0.37418786  1
  Hf  Hf12  1  0.29269151  0.70871750  0.36420640  1
  Hf  Hf13  1  0.70185682  0.08980097  0.62991116  1
  Hf  Hf14  1  0.90450769  0.09016037  0.62182036  1
  Hf  Hf15  1  0.48586141  0.89937180  0.10506347  1
  Hf  Hf16  1  0.40505149  0.20549713  0.74104183  1
  Hf  Hf17  1  0.80852762  0.19581630  0.75786231  1
  Hf  Hf18  1  0.91375441  0.29475614  0.61049273  1
  Hf  Hf19  1  0.19893832  0.19960202  0.00238350  1
  Hf  Hf20  1  0.30805467  0.30723733  0.88305403  1
  Hf  Hf21  1  0.49156226  0.69552370  0.11843479  1
  Hf  Hf22  1  0.57810070  0.38945601  0.25163725  1
  Hf  Hf23  1  0.79655888  0.78928228  0.51234838  1
  Hf  Hf24  1  0.10967333  0.68205750  0.86493240  1
  Hf  Hf25  1  0.69954038  0.68744541  0.37573585  1
  Hf  Hf26  1  0.09900208  0.91086917  0.13832994  1
  Hf  Hf27  1  -0.01330913  0.61062361  0.51166389  1
  Hf  Hf28  1  0.48695699  0.49144926  0.12468482  1
  Hf  Hf29  1  0.81061753  0.39244630  0.00157649  1
  Hf  Hf30  1  0.19256864  0.59872722  0.48673510  1
  Hf  Hf31  1  0.40362166  0.20393772  0.50863924  1
  Hf  Hf32  1  0.81441483  -0.01647924  -0.01432375  1
  Hf  Hf33  1  0.70828661  0.29422747  0.12736711  1
  Hf  Hf34  1  0.09358912  0.89582048  0.87599100  1
  Hf  Hf35  1  0.00405117  -0.00928881  0.49347164  1
  Hf  Hf36  1  0.31833887  0.09947717  0.88427814  1
  Hf  Hf37  1  0.01131639  0.40543342  0.48315245  1
  Hf  Hf38  1  0.92899377  0.09956505  0.88975424  1
  Hf  Hf39  1  0.69467425  0.50407160  0.12491659  1
  Zr  Zr40  1  0.77927602  0.58514727  0.51450931  1
  Zr  Zr41  1  0.67144667  0.68765859  0.63823301  1
  Zr  Zr42  1  0.89861893  0.88994085  0.63536940  1
  Zr  Zr43  1  0.18533784  0.80630915  0.49452508  1
  Zr  Zr44  1  0.21128106  0.21179701  0.25769133  1
  Zr  Zr45  1  0.29389067  0.90039868  0.62121091  1
  Zr  Zr46  1  0.09333179  0.90209564  0.35572969  1
  Zr  Zr47  1  -0.01080817  0.60669089  0.73859019  1
  Zr  Zr48  1  0.79828421  0.39786821  0.25593062  1
  Zr  Zr49  1  -0.02941915  0.80653962  0.23568746  1
  Zr  Zr50  1  0.60594373  0.18788984  0.24258011  1
  Zr  Zr51  1  0.31725321  0.31068233  0.11863385  1
  Zr  Zr52  1  0.10536869  0.10402277  0.61682175  1
  Zr  Zr53  1  0.60110380  -0.01127234  0.50522888  1
  Zr  Zr54  1  0.59839669  0.39295423  -0.00020743  1
  Zr  Zr55  1  0.59576869  -0.01072144  0.24180396  1
  Zr  Zr56  1  0.90570594  0.49409439  0.13183667  1
  Zr  Zr57  1  0.67887596  0.89017809  0.87052352  1
  Zr  Zr58  1  0.19943127  0.41865981  -0.00611524  1
  Zr  Zr59  1  0.89732135  0.52129295  0.36759450  1
  Zr  Zr60  1  0.20148305  0.00546152  0.76160287  1
  Zr  Zr61  1  0.01225544  0.19730792  0.74921739  1
  Zr  Zr62  1  0.19119800  0.79859546  0.01050179  1
  Zr  Zr63  1  0.11147833  0.49922345  0.62324986  1
  Zr  Zr64  1  0.69813643  0.88157661  0.10354026  1
  Zr  Zr65  1  0.80757048  -0.01236641  0.24293856  1
  Zr  Zr66  1  0.29182400  0.70643629  0.14036396  1
  Zr  Zr67  1  0.80595298  0.78108883  0.75935821  1
  Zr  Zr68  1  0.41194328  0.42560533  0.75267872  1
  Zr  Zr69  1  0.00696262  0.39680510  0.75123948  1
  Zr  Zr70  1  0.79789065  0.60722228  -0.01021063  1
  Zr  Zr71  1  0.09934178  0.11001158  0.13143786  1
  Zr  Zr72  1  0.20458721  0.41196881  0.75981391  1
  Zr  Zr73  1  0.32327064  0.31662043  0.37634373  1
  Zr  Zr74  1  0.29586273  0.11110890  0.62444624  1
  Zr  Zr75  1  0.80553175  0.39746708  0.75125620  1
  Zr  Zr76  1  0.07006148  0.69377835  0.35716476  1
  Zr  Zr77  1  0.01127766  0.60553028  0.00961322  1
  Zr  Zr78  1  0.50799462  0.31201917  0.62414960  1
  Zr  Zr79  1  0.21783515  0.00996056  0.25961441  1
  Ta  Ta80  1  0.09527840  0.31271090  0.12970658  1
  Ta  Ta81  1  0.09756693  0.90233394  0.63144391  1
  Ta  Ta82  1  0.39986629  0.79929924  0.49787938  1
  Ta  Ta83  1  0.60374226  0.19322990  0.50483124  1
  Ta  Ta84  1  0.79861902  0.00199883  0.77297497  1
  Ta  Ta85  1  0.90091401  0.29691639  0.37856969  1
  Ta  Ta86  1  0.60652920  0.18363942  0.75194954  1
  Ta  Ta87  1  0.20377700  0.01371353  0.47928499  1
  Ta  Ta88  1  0.41397340  0.20418937  0.24856621  1
  Ta  Ta89  1  0.79836129  0.39336605  0.49406074  1
  Ta  Ta90  1  0.50716003  0.52398507  0.60947958  1
  Ta  Ta91  1  0.01498787  0.19725635  0.47889811  1
  Ta  Ta92  1  0.20675216  -0.00493082  -0.00127777  1
  Ta  Ta93  1  0.00599609  0.40078403  0.00025086  1
  Ta  Ta94  1  0.20189092  0.20971342  0.76101505  1
  Ta  Ta95  1  0.71217266  0.08657119  0.11226944  1
  Ta  Ta96  1  0.10728315  0.50247104  0.14040664  1
  Ta  Ta97  1  0.29866211  0.53595880  0.87276494  1
  Ta  Ta98  1  0.39862686  0.62814149  0.74671880  1
  Ta  Ta99  1  0.70123215  0.09425645  0.37743989  1
  Ta  Ta100  1  0.68610005  0.69434335  0.11543601  1
  Ta  Ta101  1  0.59630781  0.59605509  0.24990677  1
  Ta  Ta102  1  0.39677304  0.58735893  0.25681667  1
  Ta  Ta103  1  0.70787505  0.29654471  0.62210877  1
  Ta  Ta104  1  0.31170669  0.51078915  0.61645536  1
  Ta  Ta105  1  0.29578971  0.69981989  0.61883917  1
  Ta  Ta106  1  0.39577482  0.81624188  0.24840556  1
  Ta  Ta107  1  0.09566283  0.29409881  0.88531828  1
  Ta  Ta108  1  0.78057456  0.79174802  0.24452061  1
  Ta  Ta109  1  -0.00151701  -0.00535374  0.75509408  1
  Ta  Ta110  1  0.01075295  0.39882301  0.26389828  1
  Ta  Ta111  1  0.58168622  0.59012303  0.76051315  1
  Ta  Ta112  1  0.30506170  0.72580637  0.87937118  1
  Ta  Ta113  1  0.69799263  0.29268613  0.37936865  1
  Ta  Ta114  1  0.50187865  0.10165764  0.37594283  1
  Ta  Ta115  1  0.90777720  0.08666991  0.37300904  1
  Ta  Ta116  1  0.58284808  0.59461265  -0.01055307  1
  Ta  Ta117  1  0.47430073  0.89126940  0.88934523  1
  Ta  Ta118  1  0.91460609  0.50509780  0.87702867  1
  Ta  Ta119  1  0.81103645  0.19445128  0.00202282  1
  Ti  Ti120  1  0.11379135  0.29648119  0.61411826  1
  Ti  Ti121  1  0.20541950  0.60488966  0.00792127  1
  Ti  Ti122  1  0.31504718  0.09561200  0.11351718  1
  Ti  Ti123  1  0.68749291  0.49238977  0.37205336  1
  Ti  Ti124  1  0.60846886  0.39628852  0.74656239  1
  Ti  Ti125  1  0.90532761  0.30202798  0.88084360  1
  Ti  Ti126  1  0.29937606  0.50742889  0.12942876  1
  Ti  Ti127  1  0.00839011  0.20279682  0.26516325  1
  Ti  Ti128  1  0.59952520  -0.00272415  -0.00615413  1
  Ti  Ti129  1  0.09272712  0.69871390  0.14516504  1
  Ti  Ti130  1  0.19238539  0.59512941  0.25968609  1
  Ti  Ti131  1  0.87832106  0.70689127  0.11686137  1
  Ti  Ti132  1  0.90873421  0.70955392  0.87903621  1
  Ti  Ti133  1  0.50048280  0.88292079  0.63326718  1
  Ti  Ti134  1  -0.00946024  0.79612420  0.50284485  1
  Ti  Ti135  1  0.49736437  0.89895909  0.37419175  1
  Ti  Ti136  1  0.30846566  0.90627822  0.37545812  1
  Ti  Ti137  1  0.51318519  0.09242384  0.87929914  1
  Ti  Ti138  1  0.40655888  0.01064106  0.24904457  1
  Ti  Ti139  1  0.20859969  0.40352700  0.48594278  1
  Ti  Ti140  1  0.40500735  0.42288511  -0.01407768  1
  Ti  Ti141  1  0.68225861  0.69537835  0.86960524  1
  Ti  Ti142  1  0.91354049  0.09057810  0.11439083  1
  Ti  Ti143  1  0.20338161  0.20552763  0.47730098  1
  Ti  Ti144  1  0.59061554  0.79247185  0.24446899  1
  Ti  Ti145  1  0.89108079  0.49179940  0.62190446  1
  Ti  Ti146  1  0.29436486  0.31629778  0.62107518  1
  Ti  Ti147  1  0.48577711  0.69931665  0.88885301  1
  Ti  Ti148  1  0.59232656  0.78832418  0.50478181  1
  Ti  Ti149  1  0.49881344  0.10486999  0.11373086  1
  Ti  Ti150  1  0.89169620  0.88477030  0.37635768  1
  Ti  Ti151  1  0.20581814  0.79646686  0.74902179  1
  Ti  Ti152  1  0.79781882  0.60949970  0.24482836  1
  Ti  Ti153  1  0.70638572  0.28608588  0.87596739  1
  Ti  Ti154  1  0.80071225  -0.01109444  0.49613227  1
  Ti  Ti155  1  0.21022298  0.40896262  0.25991232  1
  Ti  Ti156  1  0.51192979  0.29580581  0.38891253  1
  Ti  Ti157  1  0.79072812  0.58763211  0.74524211  1
  Ti  Ti158  1  0.09687658  0.71018266  0.63357452  1
  Ti  Ti159  1  0.61061595  0.40478284  0.50551040  1
  Mo  Mo160  1  0.89468665  0.69092949  0.62783752  1
  Mo  Mo161  1  0.38610899  0.80324456  0.00573306  1
  Mo  Mo162  1  0.48453648  0.70421794  0.61918850  1
  Mo  Mo163  1  0.59657076  0.59791309  0.49577149  1
  Mo  Mo164  1  0.30049115  0.91323144  0.13072935  1
  Mo  Mo165  1  0.49630347  0.29206343  0.11667903  1
  Mo  Mo166  1  -0.00750047  0.01535293  0.25304499  1
  Mo  Mo167  1  0.90354250  0.89577615  0.86392295  1
  Mo  Mo168  1  0.59143286  0.78463464  -0.01007459  1
  Mo  Mo169  1  0.01774683  0.00600619  0.00088017  1
  Mo  Mo170  1  0.29688030  0.90149868  0.87685400  1
  Mo  Mo171  1  0.10230381  0.50234117  0.36165974  1
  Mo  Mo172  1  0.68920070  0.48216961  0.63343496  1
  Mo  Mo173  1  0.10732801  0.30564724  0.37129786  1
  Mo  Mo174  1  0.21149718  0.60875925  0.74243599  1
  Mo  Mo175  1  0.20290291  0.80445232  0.24720043  1
  Mo  Mo176  1  0.10430456  0.10469674  0.37184641  1
  Mo  Mo177  1  0.11331214  0.10338874  0.88290840  1
  Mo  Mo178  1  0.38435286  0.60258306  0.00135056  1
  Mo  Mo179  1  0.56230519  0.78680487  0.76213800  1
  Mo  Mo180  1  0.88371837  0.70972199  0.37309555  1
  Mo  Mo181  1  0.09943139  0.50176116  0.87682237  1
  Mo  Mo182  1  0.31908083  0.10369193  0.37795373  1
  Mo  Mo183  1  0.51287441  0.09721026  0.62969865  1
  Mo  Mo184  1  0.29906846  0.51014560  0.37490853  1
  Mo  Mo185  1  0.59627316  -0.00283349  0.75958243  1
  Mo  Mo186  1  0.39139869  0.80520763  0.75019764  1
  Mo  Mo187  1  0.39647473  0.39762871  0.24933404  1
  Mo  Mo188  1  0.39781426  0.40745159  0.51389125  1
  Mo  Mo189  1  0.70443289  0.09992508  0.88040331  1
  Mo  Mo190  1  -0.00018417  0.21358076  0.00888607  1
  Mo  Mo191  1  0.41330491  0.20623640  0.00054854  1
  Mo  Mo192  1  0.39217020  0.61156368  0.49669562  1
  Mo  Mo193  1  0.49353907  0.50832941  0.87408101  1
  Mo  Mo194  1  0.91830557  0.28559633  0.12971889  1
  Mo  Mo195  1  0.01066398  0.80123938  0.74920198  1
  Mo  Mo196  1  0.79264310  0.78691305  -0.01776854  1
  Mo  Mo197  1  -0.01084199  0.60057424  0.23234699  1
  Mo  Mo198  1  0.88918808  0.90663037  0.12111363  1
  Mo  Mo199  1  0.40073158  0.00901527  -0.00017232  1
