# generated using pymatgen
data_HfZrTaTiMo
_symmetry_space_group_name_H-M   'P 1'
_cell_length_a   15.22151287
_cell_length_b   15.21994164
_cell_length_c   16.83810253
_cell_angle_alpha   90.08064524
_cell_angle_beta   90.05984582
_cell_angle_gamma   89.96337708
_symmetry_Int_Tables_number   1
_chemical_formula_structural   HfZrTaTiMo
_chemical_formula_sum   'Hf40 Zr40 Ta40 Ti40 Mo40'
_cell_volume   3900.88547864
_cell_formula_units_Z   40
loop_
 _symmetry_equiv_pos_site_id
 _symmetry_equiv_pos_as_xyz
  1  'x, y, z'
loop_
 _atom_site_type_symbol
 _atom_site_label
 _atom_site_symmetry_multiplicity
 _atom_site_fract_x
 _atom_site_fract_y
 _atom_site_fract_z
 _atom_site_occupancy
  Hf  Hf0  1  0.49068390  0.90046927  0.62112775  1
  Hf  Hf1  1  0.40294403  0.39663067  -0.01102358  1
  Hf  Hf2  1  0.89876848  0.70824359  0.62694732  1
  Hf  Hf3  1  0.38485237  0.19750583  -0.00302792  1
  Hf  Hf4  1  0.30946779  0.30095230  0.13864105  1
  Hf  Hf5  1  0.28701100  0.70383536  0.09465042  1
  Hf  Hf6  1  0.59282741  0.00621936  0.49167370  1
  Hf  Hf7  1  0.80724126  -0.00129738  0.49462442  1
  Hf  Hf8  1  0.08261118  0.69019421  0.37558138  1
  Hf  Hf9  1  0.22412562  0.18945055  0.73980282  1
  Hf  Hf10  1  0.69516149  0.88740947  0.36878501  1
  Hf  Hf11  1  0.50686765  0.28959907  0.61972607  1
  Hf  Hf12  1  0.39568786  0.38195664  0.75460772  1
  Hf  Hf13  1  0.69575175  0.10006115  0.88055050  1
  Hf  Hf14  1  0.29443903  0.49474121  0.11789883  1
  Hf  Hf15  1  0.09591635  0.68798150  0.62383088  1
  Hf  Hf16  1  0.39871350  -0.00879312  0.00359959  1
  Hf  Hf17  1  -0.01562045  0.19285910  0.74005770  1
  Hf  Hf18  1  0.58581621  0.59175945  0.25181043  1
  Hf  Hf19  1  0.50880604  0.49435335  0.87225672  1
  Hf  Hf20  1  0.69829082  0.90279767  0.62293195  1
  Hf  Hf21  1  0.30479080  0.09516983  0.37294800  1
  Hf  Hf22  1  0.48343515  0.89572794  0.38013960  1
  Hf  Hf23  1  0.69818651  0.49397226  0.13677064  1
  Hf  Hf24  1  0.19954448  0.79535919  0.75992252  1
  Hf  Hf25  1  0.89507521  0.30502777  0.88077555  1
  Hf  Hf26  1  0.18825810  0.00892979  0.49948156  1
  Hf  Hf27  1  0.57081704  0.78979471  0.23476638  1
  Hf  Hf28  1  -0.01149911  0.80789972  0.49513615  1
  Hf  Hf29  1  0.19519970  0.79827598  0.49913727  1
  Hf  Hf30  1  0.70275912  0.29986824  0.14259913  1
  Hf  Hf31  1  0.48259246  0.69429690  0.39232145  1
  Hf  Hf32  1  0.70478804  0.11816231  0.61626695  1
  Hf  Hf33  1  0.19041350  0.58256022  0.25359039  1
  Hf  Hf34  1  0.69589091  0.69621575  0.61983646  1
  Hf  Hf35  1  0.83017954  0.41861937  0.26133171  1
  Hf  Hf36  1  -0.00199628  0.40809251  0.75550868  1
  Hf  Hf37  1  0.80890495  0.59957729  0.75171880  1
  Hf  Hf38  1  0.40733575  0.42130789  0.26309775  1
  Hf  Hf39  1  0.39279527  0.79489738  0.75256551  1
  Zr  Zr40  1  0.19511579  0.78891939  0.24380502  1
  Zr  Zr41  1  -0.00257377  0.00224636  -0.00869441  1
  Zr  Zr42  1  0.50847486  0.28144095  0.87239268  1
  Zr  Zr43  1  0.10404673  0.27803044  0.86463950  1
  Zr  Zr44  1  0.01973103  0.19546374  0.00797135  1
  Zr  Zr45  1  0.59742329  0.59691452  0.74518149  1
  Zr  Zr46  1  0.69567594  0.71374499  0.88812053  1
  Zr  Zr47  1  0.80867042  -0.00483030  0.25386886  1
  Zr  Zr48  1  0.60520363  0.20400789  0.48633058  1
  Zr  Zr49  1  0.79982516  0.01603970  0.74897137  1
  Zr  Zr50  1  0.92113725  0.10417799  0.38782268  1
  Zr  Zr51  1  -0.00497286  0.80450639  0.77979059  1
  Zr  Zr52  1  -0.01099760  0.59701229  0.23923468  1
  Zr  Zr53  1  0.82895687  0.19103771  0.24367553  1
  Zr  Zr54  1  0.70783780  0.50069574  0.88132059  1
  Zr  Zr55  1  0.92092337  0.31228404  0.12917199  1
  Zr  Zr56  1  0.89072937  0.70185165  0.89520031  1
  Zr  Zr57  1  0.90530146  0.91973652  0.63163024  1
  Zr  Zr58  1  0.01208394  0.60297576  0.76991599  1
  Zr  Zr59  1  0.09567066  0.09263908  0.63191860  1
  Zr  Zr60  1  0.50948287  0.30590973  0.13919803  1
  Zr  Zr61  1  0.29261932  0.89220337  0.37032434  1
  Zr  Zr62  1  0.09517356  0.89339677  0.63528394  1
  Zr  Zr63  1  0.70125094  0.89306920  0.12878541  1
  Zr  Zr64  1  0.29369379  0.48938380  0.61717643  1
  Zr  Zr65  1  0.80523619  0.19930916  0.01279434  1
  Zr  Zr66  1  0.49056015  0.70090043  0.88524582  1
  Zr  Zr67  1  0.08413863  0.91471156  0.36017037  1
  Zr  Zr68  1  0.38851412  0.62467372  0.24206491  1
  Zr  Zr69  1  0.59544844  0.80389887  0.74877799  1
  Zr  Zr70  1  0.50046771  0.10013869  0.12168109  1
  Zr  Zr71  1  0.59418751  0.00398897  0.25621918  1
  Zr  Zr72  1  0.81390906  0.40159759  0.48105612  1
  Zr  Zr73  1  0.89557958  0.30626727  0.61382641  1
  Zr  Zr74  1  0.71290646  0.29974998  0.35519209  1
  Zr  Zr75  1  0.21194439  0.59384871  0.76797432  1
  Zr  Zr76  1  0.28834648  0.29867754  0.37335927  1
  Zr  Zr77  1  0.70941993  0.48697750  0.61549908  1
  Zr  Zr78  1  0.49704532  0.49532922  0.61878822  1
  Zr  Zr79  1  0.00160947  0.80855906  -0.00474384  1
  Ta  Ta80  1  0.29929423  0.69541522  0.61605177  1
  Ta  Ta81  1  0.18316221  0.58722622  0.49533350  1
  Ta  Ta82  1  0.11062867  0.12515890  0.37149054  1
  Ta  Ta83  1  0.58548606  0.80181909  0.01562659  1
  Ta  Ta84  1  0.78613284  0.21868642  0.74848976  1
  Ta  Ta85  1  0.59590630  0.79679790  0.50093438  1
  Ta  Ta86  1  0.60574338  -0.00639085  -0.00017599  1
  Ta  Ta87  1  0.79387410  0.80674464  0.75544933  1
  Ta  Ta88  1  0.09889396  0.90592883  0.12968673  1
  Ta  Ta89  1  0.11009533  0.30625605  0.63152768  1
  Ta  Ta90  1  0.20224011  0.39810609  0.76426471  1
  Ta  Ta91  1  0.61710274  0.38327681  0.74640524  1
  Ta  Ta92  1  0.70607558  0.09534361  0.12227142  1
  Ta  Ta93  1  0.39769565  -0.01184420  0.23941796  1
  Ta  Ta94  1  0.88851402  0.71196266  0.11455602  1
  Ta  Ta95  1  0.48793764  0.69596412  0.60939837  1
  Ta  Ta96  1  0.00741070  -0.00279139  0.78020472  1
  Ta  Ta97  1  0.29786658  0.89958516  0.12445884  1
  Ta  Ta98  1  0.70312234  0.51061870  0.36838025  1
  Ta  Ta99  1  0.79309334  0.60259237  0.01764858  1
  Ta  Ta100  1  0.89771143  0.10865708  0.87742958  1
  Ta  Ta101  1  0.40498092  0.18727026  0.25691758  1
  Ta  Ta102  1  0.60702022  0.39688917  0.00358067  1
  Ta  Ta103  1  0.60136485  0.40210783  0.48003727  1
  Ta  Ta104  1  0.88564228  0.70044258  0.36971856  1
  Ta  Ta105  1  0.39286230  0.00382285  0.50707593  1
  Ta  Ta106  1  0.49676418  0.50197605  0.11851296  1
  Ta  Ta107  1  0.80400116  0.60437115  0.49080087  1
  Ta  Ta108  1  0.58576830  0.01098078  0.74773056  1
  Ta  Ta109  1  0.70103450  0.30163967  0.88128325  1
  Ta  Ta110  1  0.19650812  0.01155422  0.24186860  1
  Ta  Ta111  1  0.12373257  0.30203052  0.12920148  1
  Ta  Ta112  1  0.90140815  0.50096722  0.89420682  1
  Ta  Ta113  1  0.20957693  0.37917830  -0.01952723  1
  Ta  Ta114  1  0.29316755  0.90351956  0.62736684  1
  Ta  Ta115  1  0.19510777  0.01489311  0.00636617  1
  Ta  Ta116  1  0.79231134  0.79680118  0.49412147  1
  Ta  Ta117  1  0.01684517  0.40393185  -0.00477765  1
  Ta  Ta118  1  0.29875991  0.50573865  0.38813805  1
  Ta  Ta119  1  0.49947040  0.29826581  0.36596486  1
  Ti  Ti120  1  0.79618105  0.60995518  0.24137726  1
  Ti  Ti121  1  0.39613451  0.59801450  0.75456339  1
  Ti  Ti122  1  0.29326800  0.69823544  0.38693852  1
  Ti  Ti123  1  0.00555761  0.59800729  -0.00052107  1
  Ti  Ti124  1  0.29985473  0.89499884  0.88175960  1
  Ti  Ti125  1  0.60233420  0.19197300  0.25804995  1
  Ti  Ti126  1  0.86116390  0.90846700  0.88759447  1
  Ti  Ti127  1  0.28948847  0.10604810  0.13053304  1
  Ti  Ti128  1  0.18842542  0.38690664  0.49795622  1
  Ti  Ti129  1  0.89606301  0.90874230  0.11746566  1
  Ti  Ti130  1  0.09398340  0.70120830  0.11371608  1
  Ti  Ti131  1  0.30459108  0.28863273  0.61231726  1
  Ti  Ti132  1  0.19895788  0.57347296  -0.01912488  1
  Ti  Ti133  1  0.80181167  0.40263370  0.00835195  1
  Ti  Ti134  1  0.49465223  0.09157263  0.87727668  1
  Ti  Ti135  1  0.79492823  0.79045115  0.24524222  1
  Ti  Ti136  1  0.90830110  0.50569436  0.11191496  1
  Ti  Ti137  1  0.59898413  0.59443916  0.49381850  1
  Ti  Ti138  1  0.40342694  0.19185799  0.49470746  1
  Ti  Ti139  1  0.50266016  0.90312800  0.87496062  1
  Ti  Ti140  1  0.12047193  0.70705382  0.89912226  1
  Ti  Ti141  1  -0.01281710  0.80206739  0.23847517  1
  Ti  Ti142  1  0.40498706  0.39711866  0.49004524  1
  Ti  Ti143  1  -0.00129115  0.02131516  0.23510803  1
  Ti  Ti144  1  0.03134817  0.40391250  0.25697728  1
  Ti  Ti145  1  0.38975048  0.00803922  0.74649820  1
  Ti  Ti146  1  0.60000599  0.20008575  0.00594006  1
  Ti  Ti147  1  0.59780733  0.59938854  0.01372768  1
  Ti  Ti148  1  0.69097221  0.69929010  0.37412176  1
  Ti  Ti149  1  0.59876509  0.19433611  0.74563576  1
  Ti  Ti150  1  0.09783197  0.49365780  0.62509179  1
  Ti  Ti151  1  0.89719573  0.89416255  0.36839518  1
  Ti  Ti152  1  0.10351626  0.49226074  0.11635009  1
  Ti  Ti153  1  0.91228309  0.51096912  0.61507522  1
  Ti  Ti154  1  0.02142239  0.21087558  0.50844411  1
  Ti  Ti155  1  0.80254651  0.40287149  0.75047497  1
  Ti  Ti156  1  0.28990271  0.09462438  0.87445176  1
  Ti  Ti157  1  0.93584022  0.30508313  0.37795583  1
  Ti  Ti158  1  0.70985731  0.10143448  0.37577002  1
  Ti  Ti159  1  0.39731550  0.59629764  -0.00733917  1
  Mo  Mo160  1  0.09920294  0.49148754  0.88259489  1
  Mo  Mo161  1  0.10292190  0.10406689  0.13206075  1
  Mo  Mo162  1  0.38608743  0.59563103  0.50208387  1
  Mo  Mo163  1  0.10631084  0.09663889  0.86617034  1
  Mo  Mo164  1  0.39704007  0.80372535  -0.00793304  1
  Mo  Mo165  1  0.69833634  0.30827602  0.62001705  1
  Mo  Mo166  1  0.41642106  0.17819290  0.74583888  1
  Mo  Mo167  1  0.12459768  0.91015611  0.88006881  1
  Mo  Mo168  1  0.68494138  0.90654237  0.87636603  1
  Mo  Mo169  1  0.78598762  0.80823137  0.00922441  1
  Mo  Mo170  1  0.20478522  0.40684740  0.25155701  1
  Mo  Mo171  1  0.20968593  -0.00969107  0.75586121  1
  Mo  Mo172  1  0.00336507  0.00330688  0.49508580  1
  Mo  Mo173  1  0.30793345  0.49364550  0.87486462  1
  Mo  Mo174  1  0.20766405  0.20183460  0.51347532  1
  Mo  Mo175  1  0.79577529  0.00325928  0.00248624  1
  Mo  Mo176  1  0.69365680  0.69405003  0.12419414  1
  Mo  Mo177  1  0.48915490  0.89744711  0.12185822  1
  Mo  Mo178  1  0.81109725  0.20250215  0.49199634  1
  Mo  Mo179  1  0.01632021  0.41168832  0.50248473  1
  Mo  Mo180  1  0.10393085  0.29901776  0.37730333  1
  Mo  Mo181  1  0.38947493  0.80164437  0.51061934  1
  Mo  Mo182  1  0.60270786  0.40388402  0.26737631  1
  Mo  Mo183  1  0.20853718  0.19553999  0.00042622  1
  Mo  Mo184  1  0.49633168  0.09775521  0.62536621  1
  Mo  Mo185  1  0.48863457  0.69304848  0.10646715  1
  Mo  Mo186  1  0.91294638  0.51582955  0.37593281  1
  Mo  Mo187  1  0.89877371  0.11391461  0.60279157  1
  Mo  Mo188  1  0.20305567  0.20216840  0.24817900  1
  Mo  Mo189  1  0.49686176  0.50086680  0.38864280  1
  Mo  Mo190  1  -0.00853090  0.59676263  0.49956345  1
  Mo  Mo191  1  0.30596902  0.28717691  0.86687574  1
  Mo  Mo192  1  0.02042159  0.20512968  0.24337810  1
  Mo  Mo193  1  0.30977650  0.09581348  0.61764831  1
  Mo  Mo194  1  0.19729188  0.82345852  0.00457395  1
  Mo  Mo195  1  0.29767906  0.70104705  0.89539692  1
  Mo  Mo196  1  0.09838781  0.48775847  0.38070720  1
  Mo  Mo197  1  0.90384876  0.09473583  0.12321846  1
  Mo  Mo198  1  0.49471337  0.10100212  0.37027586  1
  Mo  Mo199  1  0.38747804  0.79865954  0.24433653  1
