# generated using pymatgen
data_HfZrTaTiMo
_symmetry_space_group_name_H-M   'P 1'
_cell_length_a   15.20376012
_cell_length_b   15.21198241
_cell_length_c   16.83813752
_cell_angle_alpha   90.02726799
_cell_angle_beta   89.93492119
_cell_angle_gamma   90.04117720
_symmetry_Int_Tables_number   1
_chemical_formula_structural   HfZrTaTiMo
_chemical_formula_sum   'Hf40 Zr40 Ta40 Ti40 Mo40'
_cell_volume   3894.30923177
_cell_formula_units_Z   40
loop_
 _symmetry_equiv_pos_site_id
 _symmetry_equiv_pos_as_xyz
  1  'x, y, z'
loop_
 _atom_site_type_symbol
 _atom_site_label
 _atom_site_symmetry_multiplicity
 _atom_site_fract_x
 _atom_site_fract_y
 _atom_site_fract_z
 _atom_site_occupancy
  Hf  Hf0  1  0.81438304  0.60633128  0.50147601  1
  Hf  Hf1  1  0.39799703  0.19869584  0.23801397  1
  Hf  Hf2  1  0.80694400  0.41163070  -0.00399698  1
  Hf  Hf3  1  0.69566138  0.11214015  0.61680832  1
  Hf  Hf4  1  0.29205773  0.10033274  0.88357895  1
  Hf  Hf5  1  0.00076608  0.19225395  0.49739727  1
  Hf  Hf6  1  0.60551837  0.00375348  0.23784728  1
  Hf  Hf7  1  0.20682892  0.58080150  -0.00462280  1
  Hf  Hf8  1  0.80977501  0.01688847  0.01457684  1
  Hf  Hf9  1  0.58630492  0.79294717  0.49948300  1
  Hf  Hf10  1  -0.01890227  0.18692501  0.01611405  1
  Hf  Hf11  1  0.38582696  0.79236368  0.25218303  1
  Hf  Hf12  1  0.00944230  0.79955958  0.25226620  1
  Hf  Hf13  1  0.61443914  0.58856156  0.25233263  1
  Hf  Hf14  1  -0.00736737  0.59065173  0.00105391  1
  Hf  Hf15  1  0.69417370  0.32704047  0.11457918  1
  Hf  Hf16  1  0.60225927  0.39478336  0.25872140  1
  Hf  Hf17  1  0.18111311  0.60372109  0.72999087  1
  Hf  Hf18  1  -0.00282473  0.57546355  0.25667530  1
  Hf  Hf19  1  0.38325999  0.39577287  0.51084312  1
  Hf  Hf20  1  0.59839127  0.80065163  0.25415266  1
  Hf  Hf21  1  0.41274085  0.78950643  -0.01273403  1
  Hf  Hf22  1  0.49922083  0.29568908  0.37683660  1
  Hf  Hf23  1  0.52134411  0.49193339  0.11292836  1
  Hf  Hf24  1  0.01424366  0.79206632  0.75231748  1
  Hf  Hf25  1  0.79894071  0.81326337  0.25267935  1
  Hf  Hf26  1  0.71118997  0.90641479  0.87535257  1
  Hf  Hf27  1  0.09953259  0.30206418  0.13178051  1
  Hf  Hf28  1  0.30345480  0.09227813  0.63093034  1
  Hf  Hf29  1  0.69515847  0.50190551  0.61748262  1
  Hf  Hf30  1  -0.00459920  0.78810793  0.48870997  1
  Hf  Hf31  1  0.49586907  0.10787405  0.63803077  1
  Hf  Hf32  1  0.21036693  0.78842465  -0.00788168  1
  Hf  Hf33  1  0.10798654  0.91135480  0.11555508  1
  Hf  Hf34  1  0.11197719  0.69777873  0.12860951  1
  Hf  Hf35  1  0.90211259  0.49707682  0.63049670  1
  Hf  Hf36  1  0.70761910  0.90878116  0.62844829  1
  Hf  Hf37  1  0.11123039  0.89069522  0.37627757  1
  Hf  Hf38  1  0.29832206  0.10299895  0.37283193  1
  Hf  Hf39  1  0.20120090  0.22311277  0.50899422  1
  Zr  Zr40  1  0.69974453  0.70154222  0.37953080  1
  Zr  Zr41  1  0.49817893  0.10895710  0.88395242  1
  Zr  Zr42  1  0.29615007  0.71156549  0.61823546  1
  Zr  Zr43  1  0.69570206  0.50888542  0.87909133  1
  Zr  Zr44  1  0.70293513  0.49621260  0.39668035  1
  Zr  Zr45  1  0.20862541  0.60124419  0.25159641  1
  Zr  Zr46  1  0.49105182  0.90176063  0.63104549  1
  Zr  Zr47  1  0.90669353  0.90239911  0.88176042  1
  Zr  Zr48  1  0.29406086  0.70159116  0.39260342  1
  Zr  Zr49  1  0.19465258  -0.01177017  0.75332354  1
  Zr  Zr50  1  0.59030503  0.00827166  0.49653104  1
  Zr  Zr51  1  0.39009193  0.40033678  -0.00242934  1
  Zr  Zr52  1  -0.00405032  0.79545899  0.00469485  1
  Zr  Zr53  1  0.68634655  0.11587015  0.37633437  1
  Zr  Zr54  1  0.50619284  0.69253098  0.12539869  1
  Zr  Zr55  1  0.61143653  0.01110558  0.75854509  1
  Zr  Zr56  1  0.10177668  0.48853385  0.86841534  1
  Zr  Zr57  1  0.49782989  0.31117021  0.87347474  1
  Zr  Zr58  1  0.41693500  0.59797206  0.50523639  1
  Zr  Zr59  1  0.09234320  0.08897423  0.62545076  1
  Zr  Zr60  1  0.49392318  0.49832170  0.64571155  1
  Zr  Zr61  1  0.00663161  0.39343443  0.00157166  1
  Zr  Zr62  1  0.19439137  0.01087635  0.49236776  1
  Zr  Zr63  1  0.80653920  0.81401260  0.49121193  1
  Zr  Zr64  1  0.78640187  0.22085787  0.25556116  1
  Zr  Zr65  1  0.10503129  0.88121566  0.61206565  1
  Zr  Zr66  1  0.79649800  0.20280618  0.74472234  1
  Zr  Zr67  1  0.40773663  0.19327866  0.49992664  1
  Zr  Zr68  1  0.19508127  0.18828262  0.24255656  1
  Zr  Zr69  1  0.80777194  0.21147574  0.50091201  1
  Zr  Zr70  1  0.10426122  0.48108414  0.38887178  1
  Zr  Zr71  1  0.89775654  0.10086812  0.86906925  1
  Zr  Zr72  1  0.89212873  0.69280061  0.13425962  1
  Zr  Zr73  1  0.70003911  0.70298698  0.62728870  1
  Zr  Zr74  1  0.50494558  0.89383289  0.11851209  1
  Zr  Zr75  1  0.88807897  0.69432575  0.87125704  1
  Zr  Zr76  1  0.00544932  0.00854758  0.25582915  1
  Zr  Zr77  1  0.29278175  0.29753276  0.87045327  1
  Zr  Zr78  1  0.40785492  0.59635595  -0.01121497  1
  Zr  Zr79  1  0.19221072  0.39448789  0.72468540  1
  Ta  Ta80  1  0.89942632  0.90889059  0.12403666  1
  Ta  Ta81  1  0.39739954  -0.00657017  0.76305752  1
  Ta  Ta82  1  0.49470006  0.89905029  0.37200978  1
  Ta  Ta83  1  0.60887237  -0.00350678  0.00686100  1
  Ta  Ta84  1  0.79580826  0.39582903  0.75122420  1
  Ta  Ta85  1  0.89480520  0.08600002  0.62780429  1
  Ta  Ta86  1  -0.00850695  0.20330276  0.24844038  1
  Ta  Ta87  1  0.30885370  0.90070532  0.38669871  1
  Ta  Ta88  1  0.19333986  0.19399172  0.74762403  1
  Ta  Ta89  1  0.39788115  -0.00452117  -0.00191082  1
  Ta  Ta90  1  0.49545504  0.10237052  0.11117264  1
  Ta  Ta91  1  0.30599304  0.49469641  0.37949812  1
  Ta  Ta92  1  0.09757061  0.29225987  0.36787685  1
  Ta  Ta93  1  0.10435898  0.90324643  0.88847261  1
  Ta  Ta94  1  0.39903720  0.39865833  0.24656962  1
  Ta  Ta95  1  0.90077220  0.49628857  0.85907175  1
  Ta  Ta96  1  0.10218526  0.69479972  0.87465984  1
  Ta  Ta97  1  0.90545288  0.32496926  0.37204238  1
  Ta  Ta98  1  0.30073917  0.89070051  0.11798916  1
  Ta  Ta99  1  0.29131730  0.08714838  0.11155121  1
  Ta  Ta100  1  0.60274783  0.21483087  0.75562318  1
  Ta  Ta101  1  0.49511034  0.70525224  0.64501599  1
  Ta  Ta102  1  0.30221254  0.49228686  0.12853681  1
  Ta  Ta103  1  0.50449428  0.90013628  0.87892052  1
  Ta  Ta104  1  0.18872127  0.19863194  0.00706743  1
  Ta  Ta105  1  0.30397569  0.49599225  0.84959896  1
  Ta  Ta106  1  0.39804139  -0.00340182  0.24129985  1
  Ta  Ta107  1  0.40965290  0.58474261  0.25589048  1
  Ta  Ta108  1  0.20957424  -0.01308587  0.25159650  1
  Ta  Ta109  1  0.91124281  0.70043239  0.63441075  1
  Ta  Ta110  1  0.60278404  0.20671204  0.00550209  1
  Ta  Ta111  1  0.78134640  0.79814083  0.00843220  1
  Ta  Ta112  1  0.00131371  0.19895307  0.74378002  1
  Ta  Ta113  1  0.30556451  0.69121165  0.85600424  1
  Ta  Ta114  1  0.70221846  0.30113187  0.88707270  1
  Ta  Ta115  1  0.09338916  0.28347547  0.87438368  1
  Ta  Ta116  1  -0.00565994  0.38827808  0.74180294  1
  Ta  Ta117  1  -0.01300950  -0.00676219  0.48255671  1
  Ta  Ta118  1  0.59934072  0.80224220  0.76042251  1
  Ta  Ta119  1  0.80522091  0.00687541  0.49027342  1
  Ti  Ti120  1  0.10451743  0.49311349  0.12651723  1
  Ti  Ti121  1  0.49381239  0.09210918  0.36742341  1
  Ti  Ti122  1  0.58334114  0.40643952  0.50205167  1
  Ti  Ti123  1  0.70116564  0.69697799  0.12604459  1
  Ti  Ti124  1  0.20766552  0.80114062  0.75579663  1
  Ti  Ti125  1  0.20170721  0.40091124  0.24997077  1
  Ti  Ti126  1  0.89158103  0.30453630  0.13530431  1
  Ti  Ti127  1  0.70443323  0.11516583  0.12130215  1
  Ti  Ti128  1  0.90406758  0.90114461  0.62614242  1
  Ti  Ti129  1  0.61266984  0.62638159  -0.01476926  1
  Ti  Ti130  1  0.69838668  0.31079434  0.61495266  1
  Ti  Ti131  1  0.30218495  0.89621999  0.87832391  1
  Ti  Ti132  1  0.88913361  0.49966146  0.12871421  1
  Ti  Ti133  1  0.49916251  0.68707861  0.37549922  1
  Ti  Ti134  1  0.10671923  0.68827673  0.37839071  1
  Ti  Ti135  1  0.49254585  0.50817900  0.85852438  1
  Ti  Ti136  1  0.70331568  0.11115048  0.88606345  1
  Ti  Ti137  1  0.90233984  0.68923148  0.36308040  1
  Ti  Ti138  1  0.00101182  0.38538264  0.51612682  1
  Ti  Ti139  1  0.29150615  0.30976407  0.37180046  1
  Ti  Ti140  1  0.29803256  0.29854916  0.11633268  1
  Ti  Ti141  1  0.60836769  0.40054916  0.75216163  1
  Ti  Ti142  1  0.59149054  0.20159048  0.23616824  1
  Ti  Ti143  1  0.60219856  0.60920439  0.75922470  1
  Ti  Ti144  1  0.79810841  0.60097497  0.74678403  1
  Ti  Ti145  1  0.89784326  0.10740611  0.36689103  1
  Ti  Ti146  1  0.50609258  0.29924086  0.63550330  1
  Ti  Ti147  1  0.89907765  0.29779056  0.87500075  1
  Ti  Ti148  1  0.31483268  0.29200144  0.64287109  1
  Ti  Ti149  1  0.09258698  0.09390188  0.88147047  1
  Ti  Ti150  1  0.80222159  0.01138469  0.24310698  1
  Ti  Ti151  1  0.00926476  0.59237728  0.50032541  1
  Ti  Ti152  1  0.30729947  0.69075184  0.12434630  1
  Ti  Ti153  1  0.70024822  0.30903031  0.39561073  1
  Ti  Ti154  1  0.69814619  0.91393134  0.37471567  1
  Ti  Ti155  1  0.30590225  0.89983883  0.60747428  1
  Ti  Ti156  1  0.80313204  0.80624752  0.74813769  1
  Ti  Ti157  1  0.80499553  0.43019220  0.25541331  1
  Ti  Ti158  1  0.49521934  0.29970344  0.11333074  1
  Ti  Ti159  1  -0.00373028  -0.00638078  0.75113326  1
  Mo  Mo160  1  0.09561925  0.10615566  0.37522800  1
  Mo  Mo161  1  0.50360788  0.69980788  0.85649216  1
  Mo  Mo162  1  0.80020977  0.60586342  0.00105062  1
  Mo  Mo163  1  0.89465278  0.90864583  0.36677058  1
  Mo  Mo164  1  0.90556968  0.49888964  0.38719707  1
  Mo  Mo165  1  0.89710232  0.29440359  0.63021630  1
  Mo  Mo166  1  0.40241993  -0.00308481  0.49393681  1
  Mo  Mo167  1  0.59507810  0.60065308  0.50567430  1
  Mo  Mo168  1  0.40597812  0.80542458  0.49585465  1
  Mo  Mo169  1  0.79359807  0.21089358  0.00406729  1
  Mo  Mo170  1  0.70327956  0.70906485  0.86562284  1
  Mo  Mo171  1  -0.00594246  0.59368943  0.75059384  1
  Mo  Mo172  1  0.19761683  0.79389011  0.49834103  1
  Mo  Mo173  1  0.59602765  0.21795292  0.50629572  1
  Mo  Mo174  1  0.09313608  0.29127809  0.62900561  1
  Mo  Mo175  1  0.60577698  0.80280383  -0.01093414  1
  Mo  Mo176  1  -0.00148216  0.39448417  0.24603410  1
  Mo  Mo177  1  0.89431503  0.10856341  0.14248764  1
  Mo  Mo178  1  0.19961322  0.39455756  0.00082038  1
  Mo  Mo179  1  0.39575924  0.80953012  0.75919591  1
  Mo  Mo180  1  0.39288788  0.60508203  0.74458779  1
  Mo  Mo181  1  0.80232352  0.60126060  0.25788386  1
  Mo  Mo182  1  0.80812843  -0.00292204  0.74457214  1
  Mo  Mo183  1  0.19674911  0.39851769  0.51520583  1
  Mo  Mo184  1  0.40065281  0.39668045  0.74519687  1
  Mo  Mo185  1  0.09042367  0.69271978  0.61561455  1
  Mo  Mo186  1  0.81017083  0.39961672  0.50702577  1
  Mo  Mo187  1  0.20663263  0.80503892  0.24556765  1
  Mo  Mo188  1  0.09327923  0.49754347  0.60975942  1
  Mo  Mo189  1  0.20131374  -0.00265739  -0.00814983  1
  Mo  Mo190  1  0.00516231  0.00389110  0.00952481  1
  Mo  Mo191  1  0.70688644  0.90250543  0.12281491  1
  Mo  Mo192  1  0.59529191  0.41020630  -0.00864571  1
  Mo  Mo193  1  0.09981021  0.09776640  0.12041548  1
  Mo  Mo194  1  0.49297443  0.49257195  0.37483969  1
  Mo  Mo195  1  0.39903424  0.19652173  0.74990816  1
  Mo  Mo196  1  0.39516844  0.19616442  0.01492770  1
  Mo  Mo197  1  0.71036835  0.52122317  0.11325055  1
  Mo  Mo198  1  0.29743409  0.50041939  0.62861219  1
  Mo  Mo199  1  0.20055665  0.58545947  0.51472361  1
