# generated using pymatgen
data_HfZrTaTiMo
_symmetry_space_group_name_H-M   'P 1'
_cell_length_a   15.20858699
_cell_length_b   15.20182862
_cell_length_c   16.86328541
_cell_angle_alpha   89.97807007
_cell_angle_beta   89.98792044
_cell_angle_gamma   90.02900738
_symmetry_Int_Tables_number   1
_chemical_formula_structural   HfZrTaTiMo
_chemical_formula_sum   'Hf40 Zr40 Ta40 Ti40 Mo40'
_cell_volume   3898.76260489
_cell_formula_units_Z   40
loop_
 _symmetry_equiv_pos_site_id
 _symmetry_equiv_pos_as_xyz
  1  'x, y, z'
loop_
 _atom_site_type_symbol
 _atom_site_label
 _atom_site_symmetry_multiplicity
 _atom_site_fract_x
 _atom_site_fract_y
 _atom_site_fract_z
 _atom_site_occupancy
  Hf  Hf0  1  0.61265579  0.79241295  0.00343103  1
  Hf  Hf1  1  0.00852082  0.79245191  0.50863820  1
  Hf  Hf2  1  0.48975538  0.69160408  0.12911875  1
  Hf  Hf3  1  0.09382113  0.47103431  0.63636410  1
  Hf  Hf4  1  0.49926055  0.10738481  0.12016428  1
  Hf  Hf5  1  0.09726311  0.70957478  0.11616205  1
  Hf  Hf6  1  0.01366537  0.00084355  0.26306689  1
  Hf  Hf7  1  0.11765719  0.91270376  0.12232262  1
  Hf  Hf8  1  0.57803523  0.39383214  -0.00179901  1
  Hf  Hf9  1  0.79643887  0.59209730  0.24406266  1
  Hf  Hf10  1  0.60041324  0.80814237  0.24771311  1
  Hf  Hf11  1  0.78684542  0.39408386  -0.00258423  1
  Hf  Hf12  1  0.58622922  0.60909758  0.74281328  1
  Hf  Hf13  1  0.88582193  0.70940651  0.87199182  1
  Hf  Hf14  1  0.50378878  0.10461181  0.88595440  1
  Hf  Hf15  1  -0.00024248  0.39332483  -0.00289310  1
  Hf  Hf16  1  -0.00213118  0.20550135  0.74787942  1
  Hf  Hf17  1  0.69801398  0.70566756  0.37675148  1
  Hf  Hf18  1  0.50988715  0.49531003  0.39028014  1
  Hf  Hf19  1  0.00126723  0.60249012  0.24635350  1
  Hf  Hf20  1  0.09656237  0.28660357  0.36530998  1
  Hf  Hf21  1  0.31930234  0.67378822  0.85289520  1
  Hf  Hf22  1  0.31641178  0.89545432  0.62938871  1
  Hf  Hf23  1  0.30429631  0.29758106  0.13322931  1
  Hf  Hf24  1  0.00270123  0.80633839  0.75721282  1
  Hf  Hf25  1  0.70546202  0.09156413  0.89192231  1
  Hf  Hf26  1  0.08924129  0.50169158  0.38001075  1
  Hf  Hf27  1  0.89124854  0.49282433  0.11849190  1
  Hf  Hf28  1  0.20113110  0.20872463  0.74857861  1
  Hf  Hf29  1  0.37002852  0.41876718  0.74167430  1
  Hf  Hf30  1  0.60250949  -0.00760496  0.75227023  1
  Hf  Hf31  1  0.60429933  0.19685023  0.74333240  1
  Hf  Hf32  1  0.69133130  0.29066212  0.87575226  1
  Hf  Hf33  1  0.39771975  0.39324949  0.27491734  1
  Hf  Hf34  1  -0.00484041  0.00079088  0.49860361  1
  Hf  Hf35  1  0.78314038  0.18975020  0.50077590  1
  Hf  Hf36  1  0.80718976  0.81146163  0.50064869  1
  Hf  Hf37  1  0.70552729  0.71244856  0.62672518  1
  Hf  Hf38  1  0.10459764  0.49906171  0.12131750  1
  Hf  Hf39  1  0.21307086  0.59478806  -0.00910129  1
  Zr  Zr40  1  0.20210717  0.79751515  -0.02283329  1
  Zr  Zr41  1  0.20553403  0.82426055  0.26441941  1
  Zr  Zr42  1  0.89672983  0.71504442  0.11001229  1
  Zr  Zr43  1  0.51186918  0.90815671  0.89499414  1
  Zr  Zr44  1  0.80112228  0.81279498  0.25033519  1
  Zr  Zr45  1  0.20409404  0.61229765  0.25478424  1
  Zr  Zr46  1  0.47679828  0.50550468  0.60616066  1
  Zr  Zr47  1  0.49642196  0.72011479  0.60054760  1
  Zr  Zr48  1  0.39605913  0.59772453  0.26842132  1
  Zr  Zr49  1  0.10434398  0.89511687  0.62904214  1
  Zr  Zr50  1  0.19606102  0.00033417  -0.01805141  1
  Zr  Zr51  1  -0.00605787  0.20717123  0.49667135  1
  Zr  Zr52  1  -0.00023089  0.83142479  -0.02694794  1
  Zr  Zr53  1  0.59299639  0.59093850  0.00680614  1
  Zr  Zr54  1  0.41357009  0.01053241  0.49813498  1
  Zr  Zr55  1  -0.00062941  0.58305564  0.51817013  1
  Zr  Zr56  1  0.90484590  0.31270994  0.62999692  1
  Zr  Zr57  1  0.78954844  0.60016091  -0.00265243  1
  Zr  Zr58  1  0.00665888  0.60480192  -0.02038571  1
  Zr  Zr59  1  0.20292106  0.40069553  0.25532482  1
  Zr  Zr60  1  0.31195224  0.11002608  0.86881833  1
  Zr  Zr61  1  0.50865784  0.90920168  0.37778247  1
  Zr  Zr62  1  0.00621993  0.80358742  0.26081113  1
  Zr  Zr63  1  0.39559044  0.21668473  0.00345366  1
  Zr  Zr64  1  0.58180228  0.40218134  0.74012880  1
  Zr  Zr65  1  0.28407208  0.30806931  0.61781411  1
  Zr  Zr66  1  0.19761581  0.00045848  0.75021584  1
  Zr  Zr67  1  0.61184299  0.59471443  0.50490627  1
  Zr  Zr68  1  0.29933004  0.71752868  0.12297945  1
  Zr  Zr69  1  0.90511662  0.69000425  0.37841862  1
  Zr  Zr70  1  0.31100564  0.89677174  0.85837483  1
  Zr  Zr71  1  0.42847592  0.79819043  0.75111625  1
  Zr  Zr72  1  0.39525361  -0.00002193  0.25366074  1
  Zr  Zr73  1  0.80769615  0.59682779  0.51132126  1
  Zr  Zr74  1  0.39514129  0.38203366  0.48675995  1
  Zr  Zr75  1  0.80324470  0.39576971  0.50314127  1
  Zr  Zr76  1  0.59969501  0.59164352  0.24929787  1
  Zr  Zr77  1  -0.00910687  0.39190930  0.24439085  1
  Zr  Zr78  1  0.79171247  0.38983816  0.75078830  1
  Zr  Zr79  1  0.48689887  0.90039529  0.11282709  1
  Ta  Ta80  1  0.20523784  0.39237091  0.00391608  1
  Ta  Ta81  1  0.10226014  0.10712352  0.62098680  1
  Ta  Ta82  1  0.71504588  0.10456433  0.11214298  1
  Ta  Ta83  1  0.68989531  0.28867009  0.37237605  1
  Ta  Ta84  1  0.89429628  0.28929816  0.87370014  1
  Ta  Ta85  1  0.70468581  0.48551455  0.37562909  1
  Ta  Ta86  1  0.47939818  0.51181899  0.87428385  1
  Ta  Ta87  1  0.89171031  0.09858374  0.62928621  1
  Ta  Ta88  1  0.39714921  0.79912279  0.26344913  1
  Ta  Ta89  1  0.49666383  0.70797187  0.39113119  1
  Ta  Ta90  1  0.89043529  0.27990259  0.12826084  1
  Ta  Ta91  1  0.82532953  -0.00104321  0.00163837  1
  Ta  Ta92  1  -0.00308352  0.58926820  0.75470617  1
  Ta  Ta93  1  0.20530744  0.00571511  0.50802075  1
  Ta  Ta94  1  0.31660980  0.10642746  0.63238007  1
  Ta  Ta95  1  0.78400708  0.38955068  0.24500320  1
  Ta  Ta96  1  0.72013874  0.89475953  0.88886685  1
  Ta  Ta97  1  -0.00946306  0.19083259  -0.00109722  1
  Ta  Ta98  1  0.48078478  0.30575757  0.86344185  1
  Ta  Ta99  1  0.09673215  0.29698806  0.87919824  1
  Ta  Ta100  1  0.30803577  0.50387005  0.12176977  1
  Ta  Ta101  1  0.28730960  0.50637708  0.40066986  1
  Ta  Ta102  1  0.59333436  0.38803876  0.24989936  1
  Ta  Ta103  1  0.61360580  0.00629352  0.23563201  1
  Ta  Ta104  1  0.29840683  0.10573757  0.37385725  1
  Ta  Ta105  1  0.30576046  0.68419180  0.62626354  1
  Ta  Ta106  1  0.29145460  0.08665353  0.12231216  1
  Ta  Ta107  1  0.68779730  0.50275189  0.86613986  1
  Ta  Ta108  1  0.71014223  0.93036591  0.37910488  1
  Ta  Ta109  1  0.69250131  0.29869339  0.12289569  1
  Ta  Ta110  1  0.11399060  0.49111285  0.86343883  1
  Ta  Ta111  1  0.91361380  0.91335367  0.12381063  1
  Ta  Ta112  1  0.11295082  0.70311969  0.38941431  1
  Ta  Ta113  1  -0.00810694  0.00570761  0.74736406  1
  Ta  Ta114  1  0.18835466  0.20225282  0.00199339  1
  Ta  Ta115  1  0.79847584  0.81405260  0.74856552  1
  Ta  Ta116  1  0.48985439  0.47952134  0.12977118  1
  Ta  Ta117  1  0.11527856  0.68449017  0.64445966  1
  Ta  Ta118  1  0.09489109  0.10510073  0.12724874  1
  Ta  Ta119  1  0.88371468  0.10086791  0.36510601  1
  Ti  Ti120  1  0.20161008  0.18606328  0.25025066  1
  Ti  Ti121  1  0.90572746  0.70091831  0.64029602  1
  Ti  Ti122  1  0.89473475  0.48837497  0.36920921  1
  Ti  Ti123  1  0.20792260  0.79878989  0.50985182  1
  Ti  Ti124  1  0.89489378  0.90552478  0.62720063  1
  Ti  Ti125  1  0.88834750  0.29365343  0.36206702  1
  Ti  Ti126  1  0.60707078  0.82259241  0.49529198  1
  Ti  Ti127  1  0.40763623  0.20479368  0.26023290  1
  Ti  Ti128  1  0.39973484  0.19722860  0.49026296  1
  Ti  Ti129  1  0.61440872  0.80512642  0.75676547  1
  Ti  Ti130  1  0.71280511  0.90530207  0.11175605  1
  Ti  Ti131  1  0.51350944  0.91871501  0.61705758  1
  Ti  Ti132  1  0.11782689  0.69636400  0.84621084  1
  Ti  Ti133  1  0.70311520  0.49021199  0.63081376  1
  Ti  Ti134  1  0.29441942  0.90559887  0.39045741  1
  Ti  Ti135  1  0.80018561  0.00762756  0.24329729  1
  Ti  Ti136  1  0.60258696  0.20419110  0.00677563  1
  Ti  Ti137  1  0.69573598  0.09711093  0.62542936  1
  Ti  Ti138  1  0.90322383  0.90587407  0.37848189  1
  Ti  Ti139  1  0.69374198  0.69800555  0.87052129  1
  Ti  Ti140  1  0.10667522  0.09067638  0.37956785  1
  Ti  Ti141  1  0.40329870  0.78343366  -0.01392904  1
  Ti  Ti142  1  0.29070826  0.31240534  0.87431089  1
  Ti  Ti143  1  0.48608851  0.28374442  0.62885570  1
  Ti  Ti144  1  0.52093592  0.10769091  0.36815749  1
  Ti  Ti145  1  0.09008947  0.09978224  0.87397586  1
  Ti  Ti146  1  0.20381309  0.19726097  0.49916638  1
  Ti  Ti147  1  0.70103928  0.69880048  0.12832733  1
  Ti  Ti148  1  0.70618279  0.91205327  0.61823790  1
  Ti  Ti149  1  0.90722213  0.09963162  0.13254482  1
  Ti  Ti150  1  0.60509900  0.37902304  0.51078908  1
  Ti  Ti151  1  0.89306142  0.49478070  0.86970508  1
  Ti  Ti152  1  0.30412050  0.70641639  0.39686962  1
  Ti  Ti153  1  0.89640023  0.09987673  0.87238139  1
  Ti  Ti154  1  0.79733085  0.00524780  0.75250938  1
  Ti  Ti155  1  0.60876263  0.19995532  0.24277921  1
  Ti  Ti156  1  0.58818531  0.19271657  0.50750710  1
  Ti  Ti157  1  0.79488564  0.60096723  0.74869255  1
  Ti  Ti158  1  0.17853849  0.39151303  0.49394172  1
  Ti  Ti159  1  0.09389031  0.28913336  0.13135125  1
  Mo  Mo160  1  0.29137138  0.28783317  0.37695473  1
  Mo  Mo161  1  0.39465177  0.60368055  0.48829280  1
  Mo  Mo162  1  0.30025003  0.48610656  0.87934448  1
  Mo  Mo163  1  0.10907132  0.90166697  0.39799326  1
  Mo  Mo164  1  0.20394671  0.00897226  0.25706479  1
  Mo  Mo165  1  0.41563613  0.01347205  0.73905222  1
  Mo  Mo166  1  0.27938587  0.50832400  0.60179345  1
  Mo  Mo167  1  0.69488548  0.10330201  0.36654344  1
  Mo  Mo168  1  0.40708013  0.59429800  0.73786017  1
  Mo  Mo169  1  0.69136843  0.48897496  0.13214038  1
  Mo  Mo170  1  0.21117458  0.57929988  0.74387698  1
  Mo  Mo171  1  -0.00663066  0.39829415  0.77185943  1
  Mo  Mo172  1  0.00586790  0.01616726  -0.00209858  1
  Mo  Mo173  1  0.79983524  0.18293736  0.74596079  1
  Mo  Mo174  1  0.19164506  0.60638268  0.50627294  1
  Mo  Mo175  1  0.39794457  0.80960755  0.49606685  1
  Mo  Mo176  1  0.40484028  0.21301568  0.75021152  1
  Mo  Mo177  1  0.69016219  0.29352727  0.62187539  1
  Mo  Mo178  1  0.80460791  0.00438268  0.50187156  1
  Mo  Mo179  1  0.89266566  0.50909770  0.64708904  1
  Mo  Mo180  1  0.40249924  0.59574508  0.00351871  1
  Mo  Mo181  1  -0.00334149  0.19156786  0.25195175  1
  Mo  Mo182  1  0.80250281  0.80474059  0.00444538  1
  Mo  Mo183  1  0.18467675  0.39112962  0.75268811  1
  Mo  Mo184  1  0.89524101  0.91749964  0.86543729  1
  Mo  Mo185  1  -0.00719269  0.39276057  0.48831554  1
  Mo  Mo186  1  0.51283881  0.69629537  0.87701494  1
  Mo  Mo187  1  0.61265322  0.00311608  0.01800270  1
  Mo  Mo188  1  0.09989373  0.90678712  0.85464636  1
  Mo  Mo189  1  0.39117663  0.40684166  -0.00159236  1
  Mo  Mo190  1  0.51090276  0.28498211  0.37790849  1
  Mo  Mo191  1  0.39478633  -0.00059402  0.00756816  1
  Mo  Mo192  1  0.49742434  0.29798527  0.13456802  1
  Mo  Mo193  1  0.49990582  0.10065654  0.62883115  1
  Mo  Mo194  1  0.79594890  0.19635597  0.24640986  1
  Mo  Mo195  1  0.20906869  0.78883622  0.74442660  1
  Mo  Mo196  1  0.61765809  0.01591210  0.50395572  1
  Mo  Mo197  1  0.09605935  0.28854252  0.61780170  1
  Mo  Mo198  1  0.80573608  0.20085061  0.00189329  1
  Mo  Mo199  1  0.30685168  0.90517918  0.11746951  1
