# generated using pymatgen
data_HfZrTaTiMo
_symmetry_space_group_name_H-M   'P 1'
_cell_length_a   15.21916145
_cell_length_b   15.21184295
_cell_length_c   16.86215858
_cell_angle_alpha   89.99738345
_cell_angle_beta   89.99137735
_cell_angle_gamma   89.96874867
_symmetry_Int_Tables_number   1
_chemical_formula_structural   HfZrTaTiMo
_chemical_formula_sum   'Hf40 Zr40 Ta40 Ti40 Mo40'
_cell_volume   3903.78289260
_cell_formula_units_Z   40
loop_
 _symmetry_equiv_pos_site_id
 _symmetry_equiv_pos_as_xyz
  1  'x, y, z'
loop_
 _atom_site_type_symbol
 _atom_site_label
 _atom_site_symmetry_multiplicity
 _atom_site_fract_x
 _atom_site_fract_y
 _atom_site_fract_z
 _atom_site_occupancy
  Hf  Hf0  1  0.39209932  0.77654286  0.75907466  1
  Hf  Hf1  1  0.69577450  0.28587924  0.13433246  1
  Hf  Hf2  1  0.92158053  0.28306850  0.13704135  1
  Hf  Hf3  1  0.00711078  0.79743521  0.24201471  1
  Hf  Hf4  1  0.31503726  0.51490586  0.62405883  1
  Hf  Hf5  1  0.79347953  0.59020313  0.74386905  1
  Hf  Hf6  1  0.79606956  0.58767164  0.23679624  1
  Hf  Hf7  1  0.10328792  0.69997443  0.86886783  1
  Hf  Hf8  1  0.30618326  0.51650104  0.86725115  1
  Hf  Hf9  1  0.49986878  0.88875717  0.63915032  1
  Hf  Hf10  1  0.28798128  0.71370100  0.37751324  1
  Hf  Hf11  1  0.49788969  0.10838321  0.64614677  1
  Hf  Hf12  1  0.61505815  0.57934558  0.49936923  1
  Hf  Hf13  1  0.79617464  0.80102211  -0.01015472  1
  Hf  Hf14  1  -0.00126718  0.59953514  0.75212916  1
  Hf  Hf15  1  0.81359752  0.39950825  0.02403732  1
  Hf  Hf16  1  0.39325227  0.20527070  0.24101871  1
  Hf  Hf17  1  0.17706360  0.21038929  -0.00200300  1
  Hf  Hf18  1  0.30171977  0.90830949  0.12422842  1
  Hf  Hf19  1  0.60110082  0.78201645  -0.02039881  1
  Hf  Hf20  1  0.70405747  0.69232148  0.37499274  1
  Hf  Hf21  1  0.78617992  0.60011992  0.01874472  1
  Hf  Hf22  1  0.19119827  0.60103382  0.00274380  1
  Hf  Hf23  1  0.40694535  0.38954665  0.74635963  1
  Hf  Hf24  1  0.10300311  0.70619328  0.63066467  1
  Hf  Hf25  1  0.80778904  0.19255683  -0.00282895  1
  Hf  Hf26  1  0.29576795  0.11687269  0.86884222  1
  Hf  Hf27  1  0.69905154  0.90228621  0.37975910  1
  Hf  Hf28  1  0.90611512  0.68757995  0.36695558  1
  Hf  Hf29  1  0.50000345  0.90009879  0.86090977  1
  Hf  Hf30  1  0.70294812  0.89626126  0.12624958  1
  Hf  Hf31  1  0.40709126  0.00985634  0.24792788  1
  Hf  Hf32  1  0.28728209  0.31509388  0.12036531  1
  Hf  Hf33  1  0.78606136  0.20897405  0.75330561  1
  Hf  Hf34  1  0.88935454  0.09055241  0.86265826  1
  Hf  Hf35  1  0.19828047  0.00499115  0.51375641  1
  Hf  Hf36  1  0.00129110  0.79152679  0.00228510  1
  Hf  Hf37  1  0.91128466  0.08414811  0.13206550  1
  Hf  Hf38  1  0.09518426  0.10426013  0.86286367  1
  Hf  Hf39  1  0.40507848  0.60172794  0.48317847  1
  Zr  Zr40  1  0.89432613  0.70459867  0.13000920  1
  Zr  Zr41  1  0.10030007  0.90442463  0.37248207  1
  Zr  Zr42  1  0.90457561  0.48582032  0.87970210  1
  Zr  Zr43  1  0.58873268  0.59559026  0.73530358  1
  Zr  Zr44  1  0.90482309  0.30086321  0.36176460  1
  Zr  Zr45  1  0.50010630  0.47072819  0.38073640  1
  Zr  Zr46  1  0.00643870  0.38690918  0.74869609  1
  Zr  Zr47  1  0.60359851  0.20149471  -0.01369113  1
  Zr  Zr48  1  0.60365090  0.40703921  0.01214388  1
  Zr  Zr49  1  0.50455387  0.10746035  0.10927211  1
  Zr  Zr50  1  0.19349723  0.23025862  0.73946038  1
  Zr  Zr51  1  0.00648003  0.79226185  0.49917111  1
  Zr  Zr52  1  0.79404825  0.19686666  0.49243174  1
  Zr  Zr53  1  0.62133777  0.39559308  0.75061780  1
  Zr  Zr54  1  0.39401602  0.00333019  0.51880199  1
  Zr  Zr55  1  -0.00491429  0.19186915  0.49348865  1
  Zr  Zr56  1  0.79692922  0.40712586  0.49446535  1
  Zr  Zr57  1  0.19914741  0.21278254  0.50032042  1
  Zr  Zr58  1  0.09351439  0.92301531  0.11970136  1
  Zr  Zr59  1  0.70294446  0.51325329  0.88355746  1
  Zr  Zr60  1  0.50255626  0.49897269  0.87830603  1
  Zr  Zr61  1  0.30295042  0.51800551  0.12602252  1
  Zr  Zr62  1  0.79762113  0.18276582  0.25764006  1
  Zr  Zr63  1  0.58583509  0.59511928  0.26258285  1
  Zr  Zr64  1  0.49816636  0.27609267  0.37010467  1
  Zr  Zr65  1  0.80136826  -0.00079643  0.50039493  1
  Zr  Zr66  1  0.40211136  0.79666416  0.25638826  1
  Zr  Zr67  1  0.70509055  0.90214511  0.63567266  1
  Zr  Zr68  1  0.08812313  0.10907728  0.62856472  1
  Zr  Zr69  1  0.39839163  0.79772253  -0.01315929  1
  Zr  Zr70  1  0.20307082  0.42629520  0.26481883  1
  Zr  Zr71  1  0.39373856  0.00876908  -0.00422921  1
  Zr  Zr72  1  0.59551017  0.79233038  0.50121033  1
  Zr  Zr73  1  0.02644508  0.38599687  0.00523979  1
  Zr  Zr74  1  0.11450972  0.49575310  0.63317112  1
  Zr  Zr75  1  0.51174579  0.89487012  0.11882032  1
  Zr  Zr76  1  0.49349462  0.10302522  0.86562515  1
  Zr  Zr77  1  0.20091435  0.80357707  0.00465864  1
  Zr  Zr78  1  0.19118458  0.02167390  0.25269539  1
  Zr  Zr79  1  0.69079452  0.31208241  0.36366416  1
  Ta  Ta80  1  0.59542498  0.80044848  0.26222188  1
  Ta  Ta81  1  0.39637427  0.80606399  0.49695621  1
  Ta  Ta82  1  0.38566922  0.59170423  0.26821425  1
  Ta  Ta83  1  0.30301567  0.31435473  0.61703992  1
  Ta  Ta84  1  0.28651456  0.90961776  0.86943102  1
  Ta  Ta85  1  0.80745193  0.79072189  0.75837042  1
  Ta  Ta86  1  0.31240441  0.31850051  0.37949710  1
  Ta  Ta87  1  0.49760803  0.90898985  0.38108941  1
  Ta  Ta88  1  -0.00038572  -0.01020777  0.74523511  1
  Ta  Ta89  1  0.40127974  0.20145001  0.51114607  1
  Ta  Ta90  1  0.01565746  0.58556603  0.23600622  1
  Ta  Ta91  1  0.69376442  0.10899264  0.63079124  1
  Ta  Ta92  1  -0.01413972  0.20391422  0.74707506  1
  Ta  Ta93  1  0.59328062  0.00756122  0.50767447  1
  Ta  Ta94  1  0.59449623  0.19813154  0.50582806  1
  Ta  Ta95  1  0.90509500  0.89035171  0.63232397  1
  Ta  Ta96  1  0.80574745  0.79279325  0.50312513  1
  Ta  Ta97  1  0.19389241  0.60930365  0.49540362  1
  Ta  Ta98  1  0.91430076  0.07612987  0.36902355  1
  Ta  Ta99  1  0.30085527  0.91415263  0.37489424  1
  Ta  Ta100  1  0.89877214  0.69550980  0.62655511  1
  Ta  Ta101  1  0.89840624  0.88805194  0.37144236  1
  Ta  Ta102  1  0.81054291  0.59997601  0.50393422  1
  Ta  Ta103  1  0.19751319  0.00190201  0.73367601  1
  Ta  Ta104  1  0.20348891  0.41774499  0.48771297  1
  Ta  Ta105  1  0.02187229  0.18082182  0.26300657  1
  Ta  Ta106  1  0.67419398  0.69905934  0.13251984  1
  Ta  Ta107  1  0.60846596  0.78518215  0.76218153  1
  Ta  Ta108  1  0.28315109  0.31891136  0.88108994  1
  Ta  Ta109  1  0.90903285  0.89459379  0.86973762  1
  Ta  Ta110  1  0.00707029  0.39747489  0.50059839  1
  Ta  Ta111  1  0.30883220  0.11137341  0.38020979  1
  Ta  Ta112  1  0.61666010  -0.00525065  -0.01718028  1
  Ta  Ta113  1  0.89898869  0.49150245  0.62544282  1
  Ta  Ta114  1  0.80473439  -0.00412733  -0.00439454  1
  Ta  Ta115  1  0.20266162  0.21446792  0.26132546  1
  Ta  Ta116  1  0.00191592  0.58886768  0.50209631  1
  Ta  Ta117  1  0.40370081  0.61275487  -0.00230722  1
  Ta  Ta118  1  0.38445401  -0.00383600  0.74182452  1
  Ta  Ta119  1  0.88577021  0.09054189  0.63708723  1
  Ti  Ti120  1  0.10318331  0.30834528  0.37482492  1
  Ti  Ti121  1  0.09949823  0.69207017  0.36807992  1
  Ti  Ti122  1  0.70301627  0.69750345  0.62258027  1
  Ti  Ti123  1  0.70198769  0.08707206  0.12323985  1
  Ti  Ti124  1  0.72117435  0.31197078  0.88057208  1
  Ti  Ti125  1  0.59106544  0.21274937  0.76245582  1
  Ti  Ti126  1  0.30339466  0.70974428  0.61537335  1
  Ti  Ti127  1  0.89593968  0.90012459  0.12670182  1
  Ti  Ti128  1  0.80108931  0.40295600  0.23798555  1
  Ti  Ti129  1  0.00228666  0.79928979  0.75325851  1
  Ti  Ti130  1  0.60212012  -0.00180550  0.25283016  1
  Ti  Ti131  1  0.50961477  0.47432783  0.60968556  1
  Ti  Ti132  1  0.59212036  0.18216768  0.24632073  1
  Ti  Ti133  1  0.69633065  0.30869432  0.62046531  1
  Ti  Ti134  1  -0.00367491  0.58638056  0.02596818  1
  Ti  Ti135  1  0.49183601  0.68736182  0.62041520  1
  Ti  Ti136  1  0.00466822  0.01208194  -0.00720666  1
  Ti  Ti137  1  0.59600315  0.40189592  0.23605105  1
  Ti  Ti138  1  0.10094219  0.90809224  0.87715528  1
  Ti  Ti139  1  0.90578892  0.49573345  0.36792997  1
  Ti  Ti140  1  0.79928463  -0.00877347  0.25591680  1
  Ti  Ti141  1  0.89524035  0.68942619  0.88078246  1
  Ti  Ti142  1  -0.00124004  -0.00949106  0.50891059  1
  Ti  Ti143  1  0.48902483  0.30666566  0.12073707  1
  Ti  Ti144  1  0.79323462  0.79822423  0.25117849  1
  Ti  Ti145  1  0.21801969  0.61765948  0.74971543  1
  Ti  Ti146  1  0.49846254  0.50680882  0.12647678  1
  Ti  Ti147  1  0.48363479  0.69522503  0.12969157  1
  Ti  Ti148  1  0.19868228  0.81528074  0.74599275  1
  Ti  Ti149  1  0.11830544  0.48529048  0.86427134  1
  Ti  Ti150  1  0.28310023  0.11012707  0.11159541  1
  Ti  Ti151  1  0.71407336  0.90681257  0.86162394  1
  Ti  Ti152  1  0.20196278  0.79841623  0.23693896  1
  Ti  Ti153  1  0.89821301  0.29433508  0.62066171  1
  Ti  Ti154  1  0.01139582  0.39827886  0.24370715  1
  Ti  Ti155  1  0.61256720  0.00826690  0.75753191  1
  Ti  Ti156  1  0.68169342  0.09789202  0.37663836  1
  Ti  Ti157  1  0.39309121  0.40656681  -0.00028631  1
  Ti  Ti158  1  0.20286687  0.81326061  0.50810034  1
  Ti  Ti159  1  0.47683289  0.29430129  0.88566839  1
  Mo  Mo160  1  0.58873955  0.60547545  0.01271803  1
  Mo  Mo161  1  0.71009190  0.49836893  0.62233512  1
  Mo  Mo162  1  0.60267453  0.38429210  0.50572085  1
  Mo  Mo163  1  0.20380030  0.41006604  -0.00281082  1
  Mo  Mo164  1  0.49835707  0.08988207  0.37898253  1
  Mo  Mo165  1  0.29623240  0.89121122  0.63198122  1
  Mo  Mo166  1  0.10783926  0.69580915  0.12889416  1
  Mo  Mo167  1  0.08778553  0.50980403  0.37950158  1
  Mo  Mo168  1  0.81050786  0.39099429  0.74316486  1
  Mo  Mo169  1  0.39749297  0.39105511  0.50569991  1
  Mo  Mo170  1  0.10759544  0.09932241  0.38360067  1
  Mo  Mo171  1  0.69657910  0.09585619  0.86938770  1
  Mo  Mo172  1  0.39284936  0.20732428  0.74475247  1
  Mo  Mo173  1  0.80111791  -0.00623352  0.74563759  1
  Mo  Mo174  1  0.09454061  0.89827007  0.62840052  1
  Mo  Mo175  1  0.09624618  0.11839594  0.12341018  1
  Mo  Mo176  1  0.49786417  0.70615261  0.38206118  1
  Mo  Mo177  1  0.70444561  0.69867510  0.86966750  1
  Mo  Mo178  1  -0.00865641  0.19348662  -0.00407983  1
  Mo  Mo179  1  0.40377457  0.59617514  0.73784783  1
  Mo  Mo180  1  0.49892753  0.68499459  0.86998426  1
  Mo  Mo181  1  0.10719047  0.29325929  0.14053026  1
  Mo  Mo182  1  0.39021976  0.21845064  0.00342699  1
  Mo  Mo183  1  0.50791808  0.29436794  0.62396599  1
  Mo  Mo184  1  0.68933275  0.49724435  0.13015782  1
  Mo  Mo185  1  0.29465947  0.50827174  0.38076359  1
  Mo  Mo186  1  0.09464945  0.30132032  0.87057966  1
  Mo  Mo187  1  0.30054762  0.11008471  0.63782049  1
  Mo  Mo188  1  0.19563114  0.62017013  0.24909690  1
  Mo  Mo189  1  0.71537206  0.49374109  0.36918031  1
  Mo  Mo190  1  0.90596750  0.49006903  0.13123263  1
  Mo  Mo191  1  0.20907390  0.41271527  0.74675593  1
  Mo  Mo192  1  0.19497879  0.00692885  -0.00850987  1
  Mo  Mo193  1  0.40744495  0.40655219  0.24488209  1
  Mo  Mo194  1  0.29405434  0.70308802  0.87190901  1
  Mo  Mo195  1  0.30432747  0.70474846  0.13103457  1
  Mo  Mo196  1  0.90440593  0.29176990  0.87884156  1
  Mo  Mo197  1  -0.00792599  -0.00608389  0.25253902  1
  Mo  Mo198  1  0.10523009  0.49221722  0.12657878  1
  Mo  Mo199  1  0.09399267  0.31046535  0.61114211  1
