# generated using pymatgen
data_HfZrTaTiMo
_symmetry_space_group_name_H-M   'P 1'
_cell_length_a   15.18398185
_cell_length_b   15.17120610
_cell_length_c   16.79609396
_cell_angle_alpha   90.00528091
_cell_angle_beta   90.01190375
_cell_angle_gamma   89.88663587
_symmetry_Int_Tables_number   1
_chemical_formula_structural   HfZrTaTiMo
_chemical_formula_sum   'Hf40 Zr40 Ta40 Ti40 Mo40'
_cell_volume   3869.12907821
_cell_formula_units_Z   40
loop_
 _symmetry_equiv_pos_site_id
 _symmetry_equiv_pos_as_xyz
  1  'x, y, z'
loop_
 _atom_site_type_symbol
 _atom_site_label
 _atom_site_symmetry_multiplicity
 _atom_site_fract_x
 _atom_site_fract_y
 _atom_site_fract_z
 _atom_site_occupancy
  Hf  Hf0  1  0.78367889  0.60540917  0.75266311  1
  Hf  Hf1  1  -0.01826784  0.58017757  0.74377121  1
  Hf  Hf2  1  0.70524637  0.09962781  0.63191492  1
  Hf  Hf3  1  0.19983717  0.60369394  -0.00915353  1
  Hf  Hf4  1  0.61184281  0.60260801  0.26132884  1
  Hf  Hf5  1  0.80684068  -0.00347193  0.75896446  1
  Hf  Hf6  1  0.21573199  -0.00456232  0.74875400  1
  Hf  Hf7  1  -0.01395637  0.39816550  0.24270311  1
  Hf  Hf8  1  -0.01894211  0.58803817  0.49154609  1
  Hf  Hf9  1  0.50617058  0.10593072  0.63541657  1
  Hf  Hf10  1  0.10104643  0.89778496  0.11846880  1
  Hf  Hf11  1  0.70676743  0.30813244  0.88328605  1
  Hf  Hf12  1  0.78599180  0.58352930  0.01454606  1
  Hf  Hf13  1  0.19682458  0.39650983  0.23443927  1
  Hf  Hf14  1  0.88588063  0.49327425  0.88876614  1
  Hf  Hf15  1  0.40784765  0.61402389  0.00743729  1
  Hf  Hf16  1  -0.00713657  0.60254348  0.25640935  1
  Hf  Hf17  1  0.11280324  0.87559061  0.62821938  1
  Hf  Hf18  1  0.90778208  0.09763106  0.36378466  1
  Hf  Hf19  1  0.60216282  -0.00640304  0.24800838  1
  Hf  Hf20  1  0.58103200  0.61417530  0.73031658  1
  Hf  Hf21  1  0.21706678  0.00525146  -0.01706743  1
  Hf  Hf22  1  0.49933795  0.51907988  0.87137814  1
  Hf  Hf23  1  0.20408799  0.39270172  0.00584738  1
  Hf  Hf24  1  -0.00005564  0.38683496  0.48128391  1
  Hf  Hf25  1  0.60769436  0.60236426  0.50154537  1
  Hf  Hf26  1  0.10004188  0.70093151  0.12253780  1
  Hf  Hf27  1  0.20122067  0.78692932  0.26356804  1
  Hf  Hf28  1  0.40502690  0.40374011  0.02039475  1
  Hf  Hf29  1  0.50492720  0.32122934  0.87548829  1
  Hf  Hf30  1  0.29330291  0.52023842  0.13418134  1
  Hf  Hf31  1  0.68788283  0.69447597  0.88625126  1
  Hf  Hf32  1  -0.00938735  0.79628103  0.25789358  1
  Hf  Hf33  1  0.39828337  0.61362515  0.25718382  1
  Hf  Hf34  1  0.21192598  0.79990322  -0.00990530  1
  Hf  Hf35  1  0.70710444  0.09615731  0.36735656  1
  Hf  Hf36  1  0.69766204  0.89988843  0.88696675  1
  Hf  Hf37  1  0.70046347  0.30998963  0.36125684  1
  Hf  Hf38  1  0.39628822  0.20003962  -0.00625544  1
  Hf  Hf39  1  0.30661653  0.69419846  0.85781811  1
  Zr  Zr40  1  0.11851091  0.09311955  0.36275140  1
  Zr  Zr41  1  0.19345676  0.61103897  0.49453862  1
  Zr  Zr42  1  0.20596295  0.20984340  0.50087280  1
  Zr  Zr43  1  0.21424322  -0.00478956  0.51849378  1
  Zr  Zr44  1  0.39797162  0.20175974  0.77181264  1
  Zr  Zr45  1  0.29734073  0.50035951  0.36600861  1
  Zr  Zr46  1  0.29036766  0.31063936  0.62665640  1
  Zr  Zr47  1  0.79204602  0.79623073  0.24307785  1
  Zr  Zr48  1  0.18912174  0.59625937  0.75148230  1
  Zr  Zr49  1  -0.00564418  0.19134995  0.49469947  1
  Zr  Zr50  1  0.08123147  0.49855302  0.89193558  1
  Zr  Zr51  1  0.19006758  0.39589588  0.76501868  1
  Zr  Zr52  1  0.10629559  0.29283715  0.35902827  1
  Zr  Zr53  1  0.41675141  -0.00497101  -0.00371985  1
  Zr  Zr54  1  0.08571511  0.50457589  0.11661255  1
  Zr  Zr55  1  0.12130626  0.09269203  0.12270679  1
  Zr  Zr56  1  0.88219347  0.89661812  0.38442123  1
  Zr  Zr57  1  0.70992313  0.29710181  0.62850496  1
  Zr  Zr58  1  0.49734721  0.29496328  0.36964515  1
  Zr  Zr59  1  0.09874926  0.89026539  0.86807334  1
  Zr  Zr60  1  0.50968906  0.90257787  0.61967448  1
  Zr  Zr61  1  0.08727509  0.09864051  0.87872486  1
  Zr  Zr62  1  0.50397063  0.49293268  0.37448700  1
  Zr  Zr63  1  0.89873291  0.28959271  0.88035686  1
  Zr  Zr64  1  0.09919243  0.11192333  0.63275079  1
  Zr  Zr65  1  0.38635183  0.81221134  0.50159959  1
  Zr  Zr66  1  0.09577500  0.47355935  0.61484627  1
  Zr  Zr67  1  0.81002887  0.40256822  0.74339183  1
  Zr  Zr68  1  0.19912928  0.20173509  0.76978053  1
  Zr  Zr69  1  0.40668574  0.81495362  0.26302743  1
  Zr  Zr70  1  0.09634017  0.90172611  0.38242639  1
  Zr  Zr71  1  0.60218487  0.19651266  0.49660363  1
  Zr  Zr72  1  0.71521201  0.89001391  0.62450041  1
  Zr  Zr73  1  0.30027975  0.92400473  0.36934728  1
  Zr  Zr74  1  0.28569942  0.71479109  0.63307529  1
  Zr  Zr75  1  0.68449532  0.28557109  0.13313172  1
  Zr  Zr76  1  0.49998565  0.30580567  0.63329580  1
  Zr  Zr77  1  0.87603645  0.69829593  0.61466893  1
  Zr  Zr78  1  -0.00470233  -0.00515639  0.73971895  1
  Zr  Zr79  1  0.80263212  -0.00309152  0.00631477  1
  Ta  Ta80  1  0.58501605  0.80028668  0.00354680  1
  Ta  Ta81  1  0.49640356  0.89705392  0.12487283  1
  Ta  Ta82  1  0.08738076  0.30110441  0.89567276  1
  Ta  Ta83  1  0.60278782  0.41561811  0.01756279  1
  Ta  Ta84  1  0.41243247  0.79416739  0.73537003  1
  Ta  Ta85  1  0.80182012  0.20140884  0.01805108  1
  Ta  Ta86  1  0.50281543  0.70343036  0.13150005  1
  Ta  Ta87  1  0.59977678  0.19530372  -0.00522709  1
  Ta  Ta88  1  0.80304736  0.40634399  0.49895793  1
  Ta  Ta89  1  0.51044025  0.91125805  0.38539384  1
  Ta  Ta90  1  0.90699263  0.08924179  0.12441208  1
  Ta  Ta91  1  0.60630497  0.40357835  0.50346526  1
  Ta  Ta92  1  0.79082464  0.41234049  0.23018471  1
  Ta  Ta93  1  0.30897218  0.49310534  0.87729676  1
  Ta  Ta94  1  0.39214933  0.40255957  0.50166088  1
  Ta  Ta95  1  0.80205576  -0.00811104  0.23380959  1
  Ta  Ta96  1  0.61158997  0.20249043  0.76441868  1
  Ta  Ta97  1  0.60610127  -0.00004559  0.75795149  1
  Ta  Ta98  1  0.68589025  0.49585496  0.87805178  1
  Ta  Ta99  1  0.00359006  0.19600520  0.23303026  1
  Ta  Ta100  1  0.39927953  0.38977998  0.22747159  1
  Ta  Ta101  1  0.80914580  0.78418561  0.00432534  1
  Ta  Ta102  1  0.70915693  0.10675871  0.87827879  1
  Ta  Ta103  1  0.00503226  0.78655146  0.49382285  1
  Ta  Ta104  1  0.80528329  0.00751486  0.50379732  1
  Ta  Ta105  1  0.41183986  0.02008421  0.50081330  1
  Ta  Ta106  1  0.60211267  0.79950928  0.25910491  1
  Ta  Ta107  1  0.51581553  0.10903681  0.12688557  1
  Ta  Ta108  1  0.69011938  0.70274206  0.11866512  1
  Ta  Ta109  1  0.39974813  0.60591784  0.50111476  1
  Ta  Ta110  1  0.31872643  0.88912925  0.85996909  1
  Ta  Ta111  1  0.30486517  0.72003351  0.12559872  1
  Ta  Ta112  1  -0.00018800  -0.00613160  0.24251984  1
  Ta  Ta113  1  -0.00115312  -0.00481238  0.51297336  1
  Ta  Ta114  1  0.91674764  0.30473731  0.62667259  1
  Ta  Ta115  1  0.30596425  0.30172074  0.36786173  1
  Ta  Ta116  1  -0.00122153  0.19367817  0.01538636  1
  Ta  Ta117  1  0.09978544  0.49965083  0.36821639  1
  Ta  Ta118  1  0.29754257  0.91104191  0.13119026  1
  Ta  Ta119  1  0.50340372  0.70890674  0.38733283  1
  Ti  Ti120  1  0.20919657  0.20078201  -0.00926154  1
  Ti  Ti121  1  -0.02817960  0.39238998  0.02239410  1
  Ti  Ti122  1  0.41176581  -0.00186730  0.75558572  1
  Ti  Ti123  1  0.49447764  0.71273211  0.87305063  1
  Ti  Ti124  1  0.08690174  0.68978765  0.62633974  1
  Ti  Ti125  1  0.70800119  0.50844145  0.62016086  1
  Ti  Ti126  1  0.29829868  0.50625995  0.62171446  1
  Ti  Ti127  1  0.31335347  0.11492898  0.37100707  1
  Ti  Ti128  1  0.50673544  0.89429744  0.87131817  1
  Ti  Ti129  1  0.80312988  0.19330799  0.23521006  1
  Ti  Ti130  1  0.80450747  0.20707604  0.49457161  1
  Ti  Ti131  1  0.09999467  0.29248362  0.11871467  1
  Ti  Ti132  1  0.80360618  0.79737321  0.76256570  1
  Ti  Ti133  1  0.49168049  0.50260688  0.61836195  1
  Ti  Ti134  1  -0.00592958  0.21156971  0.75232172  1
  Ti  Ti135  1  0.60801941  0.80147444  0.74576224  1
  Ti  Ti136  1  0.60385366  0.41198249  0.74209984  1
  Ti  Ti137  1  0.90050927  0.09613921  0.88579270  1
  Ti  Ti138  1  -0.00899160  0.78568914  0.74909742  1
  Ti  Ti139  1  0.49944780  0.10312806  0.36475156  1
  Ti  Ti140  1  0.51357909  0.09291976  0.87486188  1
  Ti  Ti141  1  0.71872379  0.70079348  0.38204593  1
  Ti  Ti142  1  0.39693899  0.41552747  0.74864182  1
  Ti  Ti143  1  0.90871944  0.88738084  0.88739336  1
  Ti  Ti144  1  0.90480590  0.89192967  0.61573851  1
  Ti  Ti145  1  0.89460343  0.10866206  0.62832017  1
  Ti  Ti146  1  0.22539943  0.19254744  0.23593338  1
  Ti  Ti147  1  0.89070755  0.29561823  0.35868633  1
  Ti  Ti148  1  0.59034066  0.40256666  0.23462159  1
  Ti  Ti149  1  -0.02307349  0.62300782  0.00371221  1
  Ti  Ti150  1  0.68943979  0.89958418  0.11241083  1
  Ti  Ti151  1  0.40249272  0.20533750  0.50213149  1
  Ti  Ti152  1  0.87524761  0.50038646  0.36747641  1
  Ti  Ti153  1  0.39773366  0.01919304  0.23984124  1
  Ti  Ti154  1  0.90732610  0.88732096  0.11436297  1
  Ti  Ti155  1  0.31316493  0.10379529  0.63095682  1
  Ti  Ti156  1  0.61175630  0.80095666  0.49593456  1
  Ti  Ti157  1  0.61002975  0.00152873  0.49508548  1
  Ti  Ti158  1  0.80206611  0.60210765  0.23689213  1
  Ti  Ti159  1  0.08094460  0.69963538  0.87307128  1
  Mo  Mo160  1  0.29444457  0.28846324  0.12313909  1
  Mo  Mo161  1  0.89509474  0.69348327  0.38236253  1
  Mo  Mo162  1  0.30336911  0.70374463  0.38481898  1
  Mo  Mo163  1  0.39956734  0.80436115  0.00000723  1
  Mo  Mo164  1  0.20767316  -0.00187314  0.24621409  1
  Mo  Mo165  1  0.89360898  0.50346142  0.12366401  1
  Mo  Mo166  1  0.80679860  0.19005067  0.75531193  1
  Mo  Mo167  1  0.31048870  0.91012772  0.63939643  1
  Mo  Mo168  1  0.40646823  0.20063377  0.24165306  1
  Mo  Mo169  1  0.79959756  0.79765478  0.49488443  1
  Mo  Mo170  1  0.00300895  0.39113166  0.75629858  1
  Mo  Mo171  1  0.59866687  0.19359939  0.25272516  1
  Mo  Mo172  1  0.19392109  0.60607715  0.25663895  1
  Mo  Mo173  1  0.19335631  0.79578233  0.76110126  1
  Mo  Mo174  1  0.89895147  0.70125282  0.12443484  1
  Mo  Mo175  1  0.79035704  0.39209819  0.01924064  1
  Mo  Mo176  1  0.20589760  0.40178216  0.48922927  1
  Mo  Mo177  1  0.89610976  0.69943937  0.87310689  1
  Mo  Mo178  1  0.59155725  0.60393868  0.00463918  1
  Mo  Mo179  1  0.79060726  0.59202845  0.49467376  1
  Mo  Mo180  1  -0.00089276  -0.00363644  0.00275658  1
  Mo  Mo181  1  0.69184637  0.70635407  0.62290046  1
  Mo  Mo182  1  0.39672680  0.59503830  0.73613499  1
  Mo  Mo183  1  0.68760215  0.50509166  0.13192585  1
  Mo  Mo184  1  0.31010602  0.09237889  0.87240074  1
  Mo  Mo185  1  0.30113307  0.30999971  0.88248888  1
  Mo  Mo186  1  0.09511616  0.29619848  0.62540675  1
  Mo  Mo187  1  0.60159417  0.00461909  0.00284550  1
  Mo  Mo188  1  0.19506580  0.79798398  0.49101394  1
  Mo  Mo189  1  0.89223465  0.48933525  0.61875943  1
  Mo  Mo190  1  0.50177315  0.50880127  0.13697468  1
  Mo  Mo191  1  0.09643079  0.69299181  0.37747439  1
  Mo  Mo192  1  0.49775255  0.29649246  0.12180481  1
  Mo  Mo193  1  -0.00074611  0.79911357  -0.00343485  1
  Mo  Mo194  1  0.89731739  0.29297998  0.13208115  1
  Mo  Mo195  1  0.70296899  0.49492380  0.37248034  1
  Mo  Mo196  1  0.49731089  0.70217105  0.60706192  1
  Mo  Mo197  1  0.70275907  0.09105062  0.12849039  1
  Mo  Mo198  1  0.31444291  0.09714935  0.12186549  1
  Mo  Mo199  1  0.69356386  0.89953368  0.37971021  1
