# generated using pymatgen
data_HfZrTaTiMo
_symmetry_space_group_name_H-M   'P 1'
_cell_length_a   15.20855036
_cell_length_b   15.21212361
_cell_length_c   16.84497988
_cell_angle_alpha   90.07726546
_cell_angle_beta   89.97528140
_cell_angle_gamma   90.07151812
_symmetry_Int_Tables_number   1
_chemical_formula_structural   HfZrTaTiMo
_chemical_formula_sum   'Hf40 Zr40 Ta40 Ti40 Mo40'
_cell_volume   3897.15239880
_cell_formula_units_Z   40
loop_
 _symmetry_equiv_pos_site_id
 _symmetry_equiv_pos_as_xyz
  1  'x, y, z'
loop_
 _atom_site_type_symbol
 _atom_site_label
 _atom_site_symmetry_multiplicity
 _atom_site_fract_x
 _atom_site_fract_y
 _atom_site_fract_z
 _atom_site_occupancy
  Hf  Hf0  1  0.59219150  0.39470891  0.74260507  1
  Hf  Hf1  1  0.70355725  0.89566349  0.13154829  1
  Hf  Hf2  1  0.90506904  0.71014301  0.62922560  1
  Hf  Hf3  1  0.79868509  0.20598821  0.49485538  1
  Hf  Hf4  1  -0.01069730  0.80136494  0.24974520  1
  Hf  Hf5  1  0.79415389  0.41417463  0.74656719  1
  Hf  Hf6  1  0.09854839  0.49867479  0.63821264  1
  Hf  Hf7  1  0.80911349  0.62651630  0.76929453  1
  Hf  Hf8  1  0.07946056  0.09987027  0.61764708  1
  Hf  Hf9  1  0.10742139  0.49562674  0.86736870  1
  Hf  Hf10  1  0.08891400  0.90937119  0.12292405  1
  Hf  Hf11  1  0.58878893  -0.00163010  0.25105395  1
  Hf  Hf12  1  0.50101809  0.50306813  0.88005585  1
  Hf  Hf13  1  0.00408783  0.80785238  0.49107056  1
  Hf  Hf14  1  0.00077202  0.59805972  0.49990800  1
  Hf  Hf15  1  -0.00216893  0.20192584  0.76011640  1
  Hf  Hf16  1  0.47884005  0.89692151  0.61030102  1
  Hf  Hf17  1  0.21138899  0.81077098  0.49223643  1
  Hf  Hf18  1  0.69930120  0.30599400  0.88017838  1
  Hf  Hf19  1  0.61675980  0.39686786  0.51509438  1
  Hf  Hf20  1  0.60244853  0.58658471  0.24053588  1
  Hf  Hf21  1  0.29724569  0.92031216  0.34619691  1
  Hf  Hf22  1  0.39555237  0.59127987  0.26023523  1
  Hf  Hf23  1  0.10044713  0.70278036  0.87312320  1
  Hf  Hf24  1  0.37365026  -0.00295359  0.00364271  1
  Hf  Hf25  1  0.10598410  0.90318772  0.62584961  1
  Hf  Hf26  1  0.48236861  0.89270425  0.88659494  1
  Hf  Hf27  1  0.80777646  0.19869847  0.24973655  1
  Hf  Hf28  1  0.48426784  0.10310419  0.11643246  1
  Hf  Hf29  1  0.39274728  0.19482389  0.75852801  1
  Hf  Hf30  1  0.80336941  0.18100817  -0.00466465  1
  Hf  Hf31  1  0.20693083  0.40565111  0.50093410  1
  Hf  Hf32  1  0.70532038  0.09816634  0.13160069  1
  Hf  Hf33  1  0.20830541  0.82179915  0.75929520  1
  Hf  Hf34  1  0.31571068  0.70102685  0.87303250  1
  Hf  Hf35  1  0.59599895  0.00228793  0.49276065  1
  Hf  Hf36  1  0.49304806  0.09678507  0.62717968  1
  Hf  Hf37  1  0.41056110  0.60161250  0.74531161  1
  Hf  Hf38  1  -0.01116308  0.80255800  0.76874487  1
  Hf  Hf39  1  0.50614548  0.70185722  0.61455132  1
  Zr  Zr40  1  0.91127304  0.30276352  0.62555006  1
  Zr  Zr41  1  0.01371291  0.39510548  0.23974249  1
  Zr  Zr42  1  0.00572843  0.40526879  0.01016222  1
  Zr  Zr43  1  0.49057351  0.30036897  0.88748095  1
  Zr  Zr44  1  0.28865367  0.89929943  0.14290859  1
  Zr  Zr45  1  0.80549725  0.40709495  0.22333156  1
  Zr  Zr46  1  0.00534188  0.61150773  0.01420238  1
  Zr  Zr47  1  0.79932432  0.79597541  0.48902027  1
  Zr  Zr48  1  0.58774184  0.60422286  0.00496997  1
  Zr  Zr49  1  0.91037208  0.49446117  0.37086449  1
  Zr  Zr50  1  0.58678580  0.21156735  0.24628351  1
  Zr  Zr51  1  0.58061203  -0.00690018  0.75409369  1
  Zr  Zr52  1  0.30695180  0.29584053  0.37252577  1
  Zr  Zr53  1  0.59240616  0.78436127  0.25289088  1
  Zr  Zr54  1  0.80586342  0.00781226  0.50221003  1
  Zr  Zr55  1  0.90721783  0.50761423  0.87347464  1
  Zr  Zr56  1  0.70361514  0.31685241  0.37315341  1
  Zr  Zr57  1  0.30959966  0.29064812  0.12456178  1
  Zr  Zr58  1  0.69522792  0.10389822  0.36610462  1
  Zr  Zr59  1  0.88920273  0.92938822  0.87887983  1
  Zr  Zr60  1  0.21500724  0.60365422  -0.00260485  1
  Zr  Zr61  1  0.01147981  0.19628998  0.25125690  1
  Zr  Zr62  1  0.48219820  0.88864786  0.37619645  1
  Zr  Zr63  1  0.20579386  0.01174268  0.49240740  1
  Zr  Zr64  1  0.00710339  0.60831143  0.23646157  1
  Zr  Zr65  1  0.30324817  0.71205875  0.62456217  1
  Zr  Zr66  1  0.90251189  0.30445710  0.88417317  1
  Zr  Zr67  1  0.61162587  0.59817058  0.49979886  1
  Zr  Zr68  1  0.42128507  0.38812037  0.24910324  1
  Zr  Zr69  1  0.69701585  0.90006717  0.63184633  1
  Zr  Zr70  1  0.60707907  -0.00320237  -0.00112419  1
  Zr  Zr71  1  0.30242011  0.70915370  0.36502148  1
  Zr  Zr72  1  0.19695855  0.60356166  0.50083618  1
  Zr  Zr73  1  0.90517025  0.91628646  0.63306912  1
  Zr  Zr74  1  0.70421168  0.27869819  0.63454960  1
  Zr  Zr75  1  0.61422650  0.59015226  0.75407015  1
  Zr  Zr76  1  0.79344673  0.59187152  -0.00167951  1
  Zr  Zr77  1  0.51201539  0.48294056  0.38092227  1
  Zr  Zr78  1  0.90955025  0.28565239  0.11054891  1
  Zr  Zr79  1  0.12477155  0.50216498  0.12979026  1
  Ta  Ta80  1  -0.00880875  0.00293854  0.25221292  1
  Ta  Ta81  1  0.50420044  0.29862238  0.10385456  1
  Ta  Ta82  1  0.11270133  0.29497165  0.88222367  1
  Ta  Ta83  1  0.50354927  0.28396422  0.39363161  1
  Ta  Ta84  1  0.70167996  0.89822205  0.36654105  1
  Ta  Ta85  1  0.40727170  0.81251605  0.75165491  1
  Ta  Ta86  1  0.39550308  0.39623340  0.74193104  1
  Ta  Ta87  1  0.59971935  0.78593998  0.76067517  1
  Ta  Ta88  1  -0.00268556  0.81255459  -0.00612393  1
  Ta  Ta89  1  0.38599292  0.18277224  0.50566620  1
  Ta  Ta90  1  0.21459594  0.39244678  -0.00588910  1
  Ta  Ta91  1  0.89380046  0.71743567  0.11502442  1
  Ta  Ta92  1  0.09731704  0.90789355  0.36400364  1
  Ta  Ta93  1  0.00794138  0.39661544  0.50102114  1
  Ta  Ta94  1  0.11917505  0.28773058  0.11180177  1
  Ta  Ta95  1  0.70711719  0.09177148  0.86657366  1
  Ta  Ta96  1  0.70839178  0.70163365  0.62979978  1
  Ta  Ta97  1  0.79860565  0.79666010  0.25559447  1
  Ta  Ta98  1  0.19324634  0.19145142  0.75525885  1
  Ta  Ta99  1  0.31889256  0.49995551  0.12363032  1
  Ta  Ta100  1  0.59453069  0.79486511  -0.00130016  1
  Ta  Ta101  1  0.39410170  0.78211786  0.01381840  1
  Ta  Ta102  1  0.39510781  0.59035694  0.49423281  1
  Ta  Ta103  1  0.40177282  0.39225028  0.50799065  1
  Ta  Ta104  1  0.29045352  0.08458407  0.63690648  1
  Ta  Ta105  1  0.49196808  0.29210594  0.62061570  1
  Ta  Ta106  1  0.80359708  0.60848551  0.23455549  1
  Ta  Ta107  1  0.71774634  0.51172723  0.36800829  1
  Ta  Ta108  1  0.30623263  0.48706441  0.86851443  1
  Ta  Ta109  1  0.20639505  0.59764233  0.75040083  1
  Ta  Ta110  1  0.47038351  0.09551435  0.37207282  1
  Ta  Ta111  1  0.49213459  0.09783864  0.88297621  1
  Ta  Ta112  1  0.19544465  0.20546328  0.50116983  1
  Ta  Ta113  1  0.79213200  0.80244836  -0.01112601  1
  Ta  Ta114  1  0.49285046  0.89158951  0.12404439  1
  Ta  Ta115  1  0.49849369  0.49561435  0.61899627  1
  Ta  Ta116  1  0.10176192  0.30417379  0.38011353  1
  Ta  Ta117  1  0.80185918  0.59578773  0.50591858  1
  Ta  Ta118  1  0.61673880  0.40826364  0.01227361  1
  Ta  Ta119  1  0.60553986  0.79726206  0.48853603  1
  Ti  Ti120  1  0.28720986  0.69184516  0.13610740  1
  Ti  Ti121  1  0.89073608  0.69038730  0.37298778  1
  Ti  Ti122  1  0.87192475  0.11099790  0.64713111  1
  Ti  Ti123  1  0.00791346  0.01010112  0.76028599  1
  Ti  Ti124  1  0.61340570  0.39804793  0.22418623  1
  Ti  Ti125  1  0.10856208  0.92436630  0.88951295  1
  Ti  Ti126  1  0.59699115  0.19259642  0.50464840  1
  Ti  Ti127  1  0.90692767  0.30210941  0.37718604  1
  Ti  Ti128  1  0.21547412  0.18658191  -0.01097325  1
  Ti  Ti129  1  0.01291420  0.18041235  -0.01180804  1
  Ti  Ti130  1  0.11525384  0.50260991  0.36709047  1
  Ti  Ti131  1  0.09649357  0.69832862  0.37114872  1
  Ti  Ti132  1  0.90537006  0.08392250  0.12245788  1
  Ti  Ti133  1  0.90488369  0.09518255  0.37463580  1
  Ti  Ti134  1  0.18406817  0.78701267  0.24590319  1
  Ti  Ti135  1  0.89003032  0.90679992  0.11776820  1
  Ti  Ti136  1  0.10114291  0.10104925  0.12053101  1
  Ti  Ti137  1  0.50293389  0.69257667  0.38120357  1
  Ti  Ti138  1  0.28630912  0.07934158  0.86773566  1
  Ti  Ti139  1  0.29778275  0.28934635  0.62554722  1
  Ti  Ti140  1  0.10419998  0.10308687  0.37439756  1
  Ti  Ti141  1  0.28690187  0.09984719  0.13569070  1
  Ti  Ti142  1  0.59992218  0.19238669  0.75528446  1
  Ti  Ti143  1  0.09884609  0.70076554  0.64025324  1
  Ti  Ti144  1  0.20130705  0.81115255  0.00055865  1
  Ti  Ti145  1  -0.00159488  0.19566857  0.49173623  1
  Ti  Ti146  1  0.69560134  0.89595340  0.86675212  1
  Ti  Ti147  1  0.20736497  0.38483709  0.75113065  1
  Ti  Ti148  1  0.69779759  0.70348638  0.12070158  1
  Ti  Ti149  1  0.30334752  0.49565458  0.63042504  1
  Ti  Ti150  1  0.89805152  0.90661027  0.37201396  1
  Ti  Ti151  1  0.60061188  0.19718589  -0.00317811  1
  Ti  Ti152  1  0.21583567  0.40809487  0.25511304  1
  Ti  Ti153  1  0.90368624  0.51107883  0.63518608  1
  Ti  Ti154  1  0.40237378  0.40505898  0.00207514  1
  Ti  Ti155  1  0.81133343  0.41085216  0.50909743  1
  Ti  Ti156  1  0.20332978  0.20465319  0.25340005  1
  Ti  Ti157  1  0.10478800  0.29748266  0.62476279  1
  Ti  Ti158  1  0.00514415  0.39910226  0.75222335  1
  Ti  Ti159  1  0.48227056  0.68789203  0.12847621  1
  Mo  Mo160  1  0.39431661  0.59549830  0.00278145  1
  Mo  Mo161  1  0.19125535  0.00618698  0.75082946  1
  Mo  Mo162  1  0.78941711  0.80783579  0.76223214  1
  Mo  Mo163  1  0.79596943  -0.00276392  0.00195474  1
  Mo  Mo164  1  0.38711107  0.00049129  0.49663694  1
  Mo  Mo165  1  0.71378104  0.50699868  0.62576227  1
  Mo  Mo166  1  0.10500072  0.71965071  0.11936002  1
  Mo  Mo167  1  0.30032360  0.90530199  0.62423456  1
  Mo  Mo168  1  0.79020896  0.00699034  0.74579670  1
  Mo  Mo169  1  0.70377765  0.69401932  0.36956508  1
  Mo  Mo170  1  0.89735701  0.10642380  0.86544790  1
  Mo  Mo171  1  0.09735149  0.10068512  0.87759664  1
  Mo  Mo172  1  0.70364030  0.50725280  0.12570236  1
  Mo  Mo173  1  0.69065458  0.09876444  0.63269028  1
  Mo  Mo174  1  0.40134691  0.79394156  0.49223502  1
  Mo  Mo175  1  0.39521935  0.19568642  -0.01291698  1
  Mo  Mo176  1  0.90435028  0.50975310  0.12254900  1
  Mo  Mo177  1  0.17983926  0.01933358  0.25029182  1
  Mo  Mo178  1  0.20184945  0.59735868  0.25371932  1
  Mo  Mo179  1  0.38081068  -0.00809105  0.75993556  1
  Mo  Mo180  1  0.39736790  0.00590210  0.23491698  1
  Mo  Mo181  1  0.00373832  0.00335879  0.48071395  1
  Mo  Mo182  1  0.40313017  0.19424732  0.24866928  1
  Mo  Mo183  1  0.29552593  0.29781484  0.87306659  1
  Mo  Mo184  1  0.90253847  0.71554583  0.89106369  1
  Mo  Mo185  1  0.69455104  0.70774672  0.88248625  1
  Mo  Mo186  1  0.79275888  0.20080843  0.76468130  1
  Mo  Mo187  1  0.49691966  0.49320793  0.12128400  1
  Mo  Mo188  1  0.30299561  0.49665886  0.38133965  1
  Mo  Mo189  1  0.29269785  0.10973748  0.36408532  1
  Mo  Mo190  1  -0.00777773  0.00899681  0.00373536  1
  Mo  Mo191  1  0.39773626  0.79363158  0.23085129  1
  Mo  Mo192  1  0.49980086  0.70424714  0.87733848  1
  Mo  Mo193  1  0.18785210  0.00804099  0.00534330  1
  Mo  Mo194  1  0.00935128  0.60513465  0.74886753  1
  Mo  Mo195  1  0.29030107  0.89371688  0.88702303  1
  Mo  Mo196  1  0.80821376  -0.00835445  0.25378736  1
  Mo  Mo197  1  0.70068726  0.29407386  0.10917916  1
  Mo  Mo198  1  0.79745608  0.39739875  0.01593392  1
  Mo  Mo199  1  0.70093514  0.49365962  0.88079169  1
