# generated using pymatgen
data_HfZrTaTiMo
_symmetry_space_group_name_H-M   'P 1'
_cell_length_a   15.19947541
_cell_length_b   15.20896406
_cell_length_c   16.84656994
_cell_angle_alpha   90.00675405
_cell_angle_beta   89.97402851
_cell_angle_gamma   89.99869568
_symmetry_Int_Tables_number   1
_chemical_formula_structural   HfZrTaTiMo
_chemical_formula_sum   'Hf40 Zr40 Ta40 Ti40 Mo40'
_cell_volume   3894.39208690
_cell_formula_units_Z   40
loop_
 _symmetry_equiv_pos_site_id
 _symmetry_equiv_pos_as_xyz
  1  'x, y, z'
loop_
 _atom_site_type_symbol
 _atom_site_label
 _atom_site_symmetry_multiplicity
 _atom_site_fract_x
 _atom_site_fract_y
 _atom_site_fract_z
 _atom_site_occupancy
  Hf  Hf0  1  0.69912777  0.49093695  0.86518978  1
  Hf  Hf1  1  0.49955308  0.69960317  0.86826208  1
  Hf  Hf2  1  0.39626192  0.19083889  0.50262950  1
  Hf  Hf3  1  0.28880944  0.07450953  0.64379157  1
  Hf  Hf4  1  0.18918811  0.39469814  -0.01251872  1
  Hf  Hf5  1  0.49805799  0.09585283  0.36246805  1
  Hf  Hf6  1  0.89566679  0.69979711  0.61118493  1
  Hf  Hf7  1  0.59938329  0.80739804  0.51109432  1
  Hf  Hf8  1  0.89696727  0.31039392  0.88630802  1
  Hf  Hf9  1  0.10068697  0.30495523  0.62692708  1
  Hf  Hf10  1  0.59129174  0.21881597  0.25361552  1
  Hf  Hf11  1  0.08721573  0.52888617  0.86187760  1
  Hf  Hf12  1  0.19614014  0.20444827  0.25444134  1
  Hf  Hf13  1  0.00683584  0.00177302  0.25188794  1
  Hf  Hf14  1  0.10212611  0.88854574  0.12611255  1
  Hf  Hf15  1  0.18354346  0.59899602  0.00290268  1
  Hf  Hf16  1  0.29634483  0.70808031  0.12376657  1
  Hf  Hf17  1  0.80071110  0.61566105  0.25560696  1
  Hf  Hf18  1  0.80399233  0.00796661  0.50354443  1
  Hf  Hf19  1  0.50747778  0.30421716  0.61449752  1
  Hf  Hf20  1  0.60308446  0.00582513  0.49831153  1
  Hf  Hf21  1  0.40429186  0.37269487  0.23510905  1
  Hf  Hf22  1  0.88105457  0.90281431  0.13174189  1
  Hf  Hf23  1  0.29993314  0.29662719  0.62875921  1
  Hf  Hf24  1  0.48340491  0.30509455  0.38600074  1
  Hf  Hf25  1  0.49769942  0.90028363  0.87013685  1
  Hf  Hf26  1  0.60546780  0.60400689  0.49699086  1
  Hf  Hf27  1  0.20465841  0.79556824  0.25310735  1
  Hf  Hf28  1  0.51627830  0.29780980  0.89357192  1
  Hf  Hf29  1  0.70207637  0.29980423  0.61746479  1
  Hf  Hf30  1  0.50337135  0.49808140  0.63700565  1
  Hf  Hf31  1  0.91355572  0.90832867  0.61817898  1
  Hf  Hf32  1  0.39487335  -0.01557490  0.50641918  1
  Hf  Hf33  1  -0.01288924  0.41100137  0.74548834  1
  Hf  Hf34  1  0.19976376  0.40863323  0.76414690  1
  Hf  Hf35  1  0.70333670  0.50499189  0.63353933  1
  Hf  Hf36  1  0.19368102  0.19774835  0.49737598  1
  Hf  Hf37  1  0.39399921  -0.02101956  0.23598090  1
  Hf  Hf38  1  0.80847196  0.00611931  0.74672267  1
  Hf  Hf39  1  0.50019460  0.89202742  0.37032696  1
  Zr  Zr40  1  0.61083431  -0.00137436  -0.00271025  1
  Zr  Zr41  1  0.89421883  0.10299290  0.88264463  1
  Zr  Zr42  1  0.51179948  0.10267717  0.62343293  1
  Zr  Zr43  1  0.50034091  0.69231675  0.64492875  1
  Zr  Zr44  1  0.30171490  0.47064589  0.38578548  1
  Zr  Zr45  1  0.90870679  0.31029713  0.38570826  1
  Zr  Zr46  1  0.50535033  0.88350530  0.11646008  1
  Zr  Zr47  1  0.30232676  0.68807982  0.37645740  1
  Zr  Zr48  1  0.51607258  0.48792620  0.11747921  1
  Zr  Zr49  1  0.80417194  0.24320580  0.23445748  1
  Zr  Zr50  1  0.38947359  -0.00425890  0.00452514  1
  Zr  Zr51  1  0.41579584  0.18770805  0.75147153  1
  Zr  Zr52  1  0.29953813  0.28466055  0.87631024  1
  Zr  Zr53  1  0.70551504  0.09610457  0.13790282  1
  Zr  Zr54  1  0.40309251  0.39527340  0.75848349  1
  Zr  Zr55  1  0.09841085  0.70679146  0.61077824  1
  Zr  Zr56  1  0.60841707  0.60661456  0.25360064  1
  Zr  Zr57  1  0.50277236  0.50499609  0.86905488  1
  Zr  Zr58  1  -0.00976193  0.79144477  0.26158393  1
  Zr  Zr59  1  0.90966158  0.11013690  0.12991981  1
  Zr  Zr60  1  0.50298730  0.50059046  0.37066274  1
  Zr  Zr61  1  0.28644677  0.89482354  0.86557558  1
  Zr  Zr62  1  -0.01241069  0.58577632  0.49062892  1
  Zr  Zr63  1  0.39435015  0.39941580  0.00066302  1
  Zr  Zr64  1  0.10542649  0.10179672  0.11657423  1
  Zr  Zr65  1  0.91227942  0.51533787  0.13230808  1
  Zr  Zr66  1  -0.00180526  0.38595514  0.24354965  1
  Zr  Zr67  1  0.89677939  0.10984274  0.35941435  1
  Zr  Zr68  1  0.82193168  0.59416155  0.74961017  1
  Zr  Zr69  1  0.07577603  0.09971221  0.62366211  1
  Zr  Zr70  1  0.29601391  0.09231968  0.36660014  1
  Zr  Zr71  1  0.10457143  0.09458742  0.87709555  1
  Zr  Zr72  1  0.79022069  0.40502646  0.02469775  1
  Zr  Zr73  1  0.89380761  0.90024936  0.37986636  1
  Zr  Zr74  1  0.80122144  0.61330987  -0.00161083  1
  Zr  Zr75  1  0.50532143  0.69608517  0.11340311  1
  Zr  Zr76  1  0.60617719  0.01662740  0.75769331  1
  Zr  Zr77  1  0.39110725  0.59182174  0.24203150  1
  Zr  Zr78  1  0.49646425  0.11378018  0.12546844  1
  Zr  Zr79  1  -0.00027101  0.79421025  -0.00064781  1
  Ta  Ta80  1  0.10138551  0.69911823  0.38709501  1
  Ta  Ta81  1  0.00985021  0.21781803  -0.00497712  1
  Ta  Ta82  1  0.61023927  0.80344130  0.75049090  1
  Ta  Ta83  1  0.61134379  0.20155690  0.48130928  1
  Ta  Ta84  1  0.60705025  0.40572248  0.49322777  1
  Ta  Ta85  1  0.49460659  0.70626538  0.37583504  1
  Ta  Ta86  1  0.91610230  0.69640324  0.87021721  1
  Ta  Ta87  1  0.20307537  0.39797255  0.24406301  1
  Ta  Ta88  1  0.11352224  0.90590140  0.62567343  1
  Ta  Ta89  1  0.08712919  0.68025189  0.13275695  1
  Ta  Ta90  1  0.30504272  0.88661303  0.37631929  1
  Ta  Ta91  1  0.30680799  0.08729502  0.86285286  1
  Ta  Ta92  1  0.00386627  0.59858845  0.27038422  1
  Ta  Ta93  1  0.19580669  -0.00850066  0.49796855  1
  Ta  Ta94  1  0.79264150  0.20098832  0.01198922  1
  Ta  Ta95  1  0.90160857  0.28852363  0.61661656  1
  Ta  Ta96  1  0.49206934  0.90105827  0.64308879  1
  Ta  Ta97  1  0.79959111  0.20417112  0.49443504  1
  Ta  Ta98  1  0.00162880  0.80208053  0.75124928  1
  Ta  Ta99  1  0.29671155  0.09598241  0.12879174  1
  Ta  Ta100  1  0.19135470  0.79289796  0.74879391  1
  Ta  Ta101  1  0.70703983  0.90147880  0.87080588  1
  Ta  Ta102  1  0.19801333  0.58993695  0.49977684  1
  Ta  Ta103  1  0.79833402  0.38372034  0.74604206  1
  Ta  Ta104  1  0.80174948  -0.00103213  -0.00375863  1
  Ta  Ta105  1  0.38825392  0.59853199  -0.00462713  1
  Ta  Ta106  1  0.60994454  -0.01135328  0.24576425  1
  Ta  Ta107  1  0.40077385  0.59574728  0.50636838  1
  Ta  Ta108  1  0.90451231  0.89726321  0.87423757  1
  Ta  Ta109  1  0.89652716  0.71007906  0.12839520  1
  Ta  Ta110  1  0.30194950  0.28204275  0.11338483  1
  Ta  Ta111  1  0.29592360  0.49457013  0.61793929  1
  Ta  Ta112  1  0.70400875  0.70457555  0.63031737  1
  Ta  Ta113  1  0.80682674  0.80293909  0.75129667  1
  Ta  Ta114  1  -0.00825614  0.20719665  0.75739928  1
  Ta  Ta115  1  0.09979978  0.48987015  0.37648930  1
  Ta  Ta116  1  0.39999150  0.79100947  0.51316109  1
  Ta  Ta117  1  0.09937771  0.50966717  0.63237841  1
  Ta  Ta118  1  0.10850866  0.90297808  0.37884620  1
  Ta  Ta119  1  0.00534630  0.41736590  0.00505808  1
  Ti  Ti120  1  0.80653516  0.41726736  0.50673404  1
  Ti  Ti121  1  0.60775446  0.79956959  0.25085712  1
  Ti  Ti122  1  0.80108981  0.19852641  0.75177030  1
  Ti  Ti123  1  0.19674072  -0.01100299  0.00047653  1
  Ti  Ti124  1  0.70475506  0.10242364  0.35960528  1
  Ti  Ti125  1  0.10794805  0.30402163  0.38161107  1
  Ti  Ti126  1  0.08761168  0.10234184  0.38194837  1
  Ti  Ti127  1  0.21169634  0.80146020  0.50122282  1
  Ti  Ti128  1  0.19788293  0.79804911  -0.00519119  1
  Ti  Ti129  1  0.18881169  0.19611948  0.75594501  1
  Ti  Ti130  1  0.38909994  0.79778073  0.74682930  1
  Ti  Ti131  1  0.70862040  0.10897872  0.62198757  1
  Ti  Ti132  1  0.70312144  0.71212664  0.38532826  1
  Ti  Ti133  1  0.70367541  0.90211925  0.62950300  1
  Ti  Ti134  1  0.20046343  -0.00763028  0.24861177  1
  Ti  Ti135  1  0.19045136  0.58929800  0.25170929  1
  Ti  Ti136  1  0.70389258  0.29506000  0.88484749  1
  Ti  Ti137  1  0.88347324  0.49688620  0.36737840  1
  Ti  Ti138  1  0.00703292  -0.00169635  0.75689141  1
  Ti  Ti139  1  0.70881896  0.32107042  0.37766068  1
  Ti  Ti140  1  0.88833987  0.70514568  0.39454022  1
  Ti  Ti141  1  0.20755787  0.18965037  -0.00616751  1
  Ti  Ti142  1  0.61434701  0.21565216  0.75620413  1
  Ti  Ti143  1  0.62313070  0.40763224  0.24796196  1
  Ti  Ti144  1  0.70459734  0.90064059  0.37533643  1
  Ti  Ti145  1  0.29388290  0.69220499  0.62678408  1
  Ti  Ti146  1  0.10017581  0.30155213  0.12231205  1
  Ti  Ti147  1  0.50580692  0.10550259  0.88670406  1
  Ti  Ti148  1  0.00732683  0.39800995  0.50824955  1
  Ti  Ti149  1  0.79169121  0.80678672  -0.00923159  1
  Ti  Ti150  1  0.89673549  0.50349853  0.88371086  1
  Ti  Ti151  1  0.28663156  0.68692786  0.87087003  1
  Ti  Ti152  1  0.00713628  0.81574523  0.49284300  1
  Ti  Ti153  1  0.70266603  0.69972263  0.86561590  1
  Ti  Ti154  1  0.60721858  0.60082256  -0.00348503  1
  Ti  Ti155  1  0.70134430  0.71877866  0.11877892  1
  Ti  Ti156  1  -0.00044873  -0.00256494  -0.00117903  1
  Ti  Ti157  1  0.37569337  0.59318888  0.75483650  1
  Ti  Ti158  1  0.28744276  0.49394049  0.12205526  1
  Ti  Ti159  1  0.39249239  0.79327040  -0.00901278  1
  Mo  Mo160  1  0.00848075  0.00555168  0.49196027  1
  Mo  Mo161  1  0.70944236  0.50093772  0.38055074  1
  Mo  Mo162  1  0.40248852  -0.00862747  0.75329757  1
  Mo  Mo163  1  0.01068537  0.20721884  0.24784421  1
  Mo  Mo164  1  0.10301804  0.71514885  0.87071324  1
  Mo  Mo165  1  0.39191265  0.19705022  0.24668978  1
  Mo  Mo166  1  0.50230851  0.29238699  0.10697021  1
  Mo  Mo167  1  0.69973504  0.11317087  0.88101899  1
  Mo  Mo168  1  0.29781687  0.88218997  0.63250630  1
  Mo  Mo169  1  0.40422108  0.79174141  0.25103747  1
  Mo  Mo170  1  0.08986732  0.30059924  0.86971692  1
  Mo  Mo171  1  0.29262299  0.29650472  0.37826730  1
  Mo  Mo172  1  0.09237590  0.89668732  0.87653020  1
  Mo  Mo173  1  0.40030180  0.40287732  0.51186244  1
  Mo  Mo174  1  -0.00569174  0.20137706  0.49825131  1
  Mo  Mo175  1  0.19260605  0.40258781  0.50665394  1
  Mo  Mo176  1  0.69951654  0.89161930  0.12078688  1
  Mo  Mo177  1  0.00490173  0.61286578  0.73971920  1
  Mo  Mo178  1  0.29064659  0.89592728  0.11687186  1
  Mo  Mo179  1  0.39484042  0.18858269  -0.00666610  1
  Mo  Mo180  1  0.89426092  0.10888316  0.62568396  1
  Mo  Mo181  1  0.10748094  0.49769397  0.13386948  1
  Mo  Mo182  1  0.60783985  0.20157497  0.00318197  1
  Mo  Mo183  1  0.79288796  -0.00808387  0.25564620  1
  Mo  Mo184  1  -0.00368353  0.60288339  0.00174406  1
  Mo  Mo185  1  0.19085086  -0.00684348  0.75147152  1
  Mo  Mo186  1  0.29643003  0.51031916  0.87976878  1
  Mo  Mo187  1  0.78238524  0.80282933  0.25300591  1
  Mo  Mo188  1  0.79141822  0.80286905  0.50757612  1
  Mo  Mo189  1  0.61235025  0.38906116  0.75107800  1
  Mo  Mo190  1  0.60621154  0.40645415  0.00006571  1
  Mo  Mo191  1  0.69825069  0.52181303  0.12599580  1
  Mo  Mo192  1  0.61365978  0.78985071  -0.01917524  1
  Mo  Mo193  1  0.90865527  0.30320078  0.10679329  1
  Mo  Mo194  1  0.67695117  0.31029785  0.11764028  1
  Mo  Mo195  1  0.60887181  0.60666506  0.75225795  1
  Mo  Mo196  1  0.90205777  0.48724445  0.62105444  1
  Mo  Mo197  1  0.79237002  0.41820056  0.23577835  1
  Mo  Mo198  1  0.79225142  0.60082266  0.49509422  1
  Mo  Mo199  1  0.20256340  0.60583834  0.74048725  1
