# generated using pymatgen
data_HfZrTaTiMo
_symmetry_space_group_name_H-M   'P 1'
_cell_length_a   15.18373156
_cell_length_b   15.16696188
_cell_length_c   16.81968722
_cell_angle_alpha   89.96291814
_cell_angle_beta   90.09954110
_cell_angle_gamma   89.93730340
_symmetry_Int_Tables_number   1
_chemical_formula_structural   HfZrTaTiMo
_chemical_formula_sum   'Hf40 Zr40 Ta40 Ti40 Mo40'
_cell_volume   3873.41491561
_cell_formula_units_Z   40
loop_
 _symmetry_equiv_pos_site_id
 _symmetry_equiv_pos_as_xyz
  1  'x, y, z'
loop_
 _atom_site_type_symbol
 _atom_site_label
 _atom_site_symmetry_multiplicity
 _atom_site_fract_x
 _atom_site_fract_y
 _atom_site_fract_z
 _atom_site_occupancy
  Hf  Hf0  1  0.81993667  0.19629635  0.50171638  1
  Hf  Hf1  1  0.19259673  0.00949486  0.25437044  1
  Hf  Hf2  1  0.59616765  0.00650939  0.22804587  1
  Hf  Hf3  1  0.30008785  0.47682869  0.12007943  1
  Hf  Hf4  1  0.68864270  0.92112850  0.87041475  1
  Hf  Hf5  1  0.90415500  0.89554185  0.61474906  1
  Hf  Hf6  1  0.40751866  0.19458930  -0.01033657  1
  Hf  Hf7  1  0.49812217  0.70550688  0.89724699  1
  Hf  Hf8  1  0.49616122  0.30378438  0.63143492  1
  Hf  Hf9  1  0.71220742  0.69945738  0.38293201  1
  Hf  Hf10  1  0.80199996  0.02209446  0.74774660  1
  Hf  Hf11  1  0.10401884  0.70765607  0.60886541  1
  Hf  Hf12  1  0.59800531  0.40798559  0.75669369  1
  Hf  Hf13  1  0.80446878  0.59441194  0.75384812  1
  Hf  Hf14  1  0.79589293  0.40368357  0.49144304  1
  Hf  Hf15  1  0.00051169  0.02826940  0.50409208  1
  Hf  Hf16  1  0.91241810  0.70242988  0.87505037  1
  Hf  Hf17  1  0.88231040  0.29029236  0.86317629  1
  Hf  Hf18  1  0.40830584  0.20259826  0.50137145  1
  Hf  Hf19  1  0.40446276  -0.01358762  0.00715504  1
  Hf  Hf20  1  0.89603364  0.70008374  0.60740550  1
  Hf  Hf21  1  0.89960467  0.89977573  0.87619056  1
  Hf  Hf22  1  0.02320344  0.20095972  0.25444678  1
  Hf  Hf23  1  0.62199932  0.20311796  0.75543389  1
  Hf  Hf24  1  0.58728456  0.39148619  0.48837530  1
  Hf  Hf25  1  0.10457369  0.50129959  0.86173504  1
  Hf  Hf26  1  -0.01193205  0.00317156  0.26121990  1
  Hf  Hf27  1  0.00291647  0.40924543  0.26405715  1
  Hf  Hf28  1  0.69263010  0.90338540  0.62963193  1
  Hf  Hf29  1  0.20004174  0.38039112  0.25724569  1
  Hf  Hf30  1  0.60694173  0.60473463  0.01304659  1
  Hf  Hf31  1  0.18958484  0.79554462  0.01182613  1
  Hf  Hf32  1  0.81810683  0.59361119  -0.00118299  1
  Hf  Hf33  1  0.60994168  0.79813104  0.23436816  1
  Hf  Hf34  1  0.09617751  0.09721954  0.86287475  1
  Hf  Hf35  1  0.30448888  0.68284540  0.89179898  1
  Hf  Hf36  1  0.49068729  0.30170636  0.12013985  1
  Hf  Hf37  1  0.89319231  0.90464529  0.39055969  1
  Hf  Hf38  1  0.50719884  0.69326757  0.36337856  1
  Hf  Hf39  1  0.10570615  0.70427742  0.86864279  1
  Zr  Zr40  1  0.40371491  0.20220783  0.75800196  1
  Zr  Zr41  1  0.79670135  0.38835620  0.26716322  1
  Zr  Zr42  1  0.80267183  0.02103485  -0.00984439  1
  Zr  Zr43  1  0.29586615  0.88498389  0.87723310  1
  Zr  Zr44  1  0.60993135  0.20133119  0.23498248  1
  Zr  Zr45  1  0.29328094  0.49213030  0.61824805  1
  Zr  Zr46  1  0.58665860  0.00795880  0.50080573  1
  Zr  Zr47  1  0.59479298  0.39715314  -0.00210762  1
  Zr  Zr48  1  0.70991142  0.49744239  0.87936771  1
  Zr  Zr49  1  0.70337875  0.09591686  0.37671864  1
  Zr  Zr50  1  0.49262708  0.91156444  0.36041296  1
  Zr  Zr51  1  0.09806630  0.30726412  0.11789613  1
  Zr  Zr52  1  0.69541092  0.89737503  0.37592957  1
  Zr  Zr53  1  0.30412078  0.89662487  0.13555039  1
  Zr  Zr54  1  0.80589423  0.60876317  0.24533704  1
  Zr  Zr55  1  0.40296828  -0.01598701  0.74316061  1
  Zr  Zr56  1  -0.00808476  0.19621393  -0.00759144  1
  Zr  Zr57  1  0.48989654  0.70502081  0.12369226  1
  Zr  Zr58  1  0.49490117  0.50756283  0.62287112  1
  Zr  Zr59  1  0.92106001  0.50433705  0.12999474  1
  Zr  Zr60  1  0.52516314  0.08896402  0.86986246  1
  Zr  Zr61  1  0.39638838  0.77542709  0.74405512  1
  Zr  Zr62  1  0.00012012  0.39850737  0.50798976  1
  Zr  Zr63  1  0.38624519  0.00587185  0.50335948  1
  Zr  Zr64  1  0.88955263  0.90766872  0.11992260  1
  Zr  Zr65  1  0.59873777  0.02450502  0.02973862  1
  Zr  Zr66  1  0.29864009  0.68651879  0.12211395  1
  Zr  Zr67  1  0.18798444  0.58978604  0.24619203  1
  Zr  Zr68  1  0.39627516  0.79465209  0.48515498  1
  Zr  Zr69  1  0.09394398  0.89777895  0.87570529  1
  Zr  Zr70  1  0.58887335  0.61096413  0.75698521  1
  Zr  Zr71  1  0.21802296  0.59849005  0.74109262  1
  Zr  Zr72  1  0.70688816  0.48595479  0.12699737  1
  Zr  Zr73  1  0.69756140  0.69655015  0.61951858  1
  Zr  Zr74  1  0.58976251  0.39638148  0.25556998  1
  Zr  Zr75  1  0.18602068  0.79594830  0.26073797  1
  Zr  Zr76  1  0.19426377  0.38185939  0.49829369  1
  Zr  Zr77  1  0.70447856  0.72222030  0.88601750  1
  Zr  Zr78  1  0.88742622  0.29396583  0.12601658  1
  Zr  Zr79  1  0.29629147  0.08987149  0.86759316  1
  Ta  Ta80  1  0.82125925  0.18361040  0.26392286  1
  Ta  Ta81  1  0.49238336  0.49563197  0.36731558  1
  Ta  Ta82  1  0.08755760  0.89747075  0.12617236  1
  Ta  Ta83  1  0.01384774  0.60315409  -0.00141969  1
  Ta  Ta84  1  0.69192953  0.50706125  0.37335687  1
  Ta  Ta85  1  0.79821787  0.00311654  0.51161204  1
  Ta  Ta86  1  -0.00988128  0.40818841  0.74483690  1
  Ta  Ta87  1  0.29740656  0.49146752  0.37339446  1
  Ta  Ta88  1  0.09704453  0.29922552  0.85742590  1
  Ta  Ta89  1  0.39157606  0.79936524  0.26193456  1
  Ta  Ta90  1  0.89335999  0.50094525  0.62198056  1
  Ta  Ta91  1  0.90530298  0.70409296  0.39428985  1
  Ta  Ta92  1  0.70122548  0.11158613  0.61783129  1
  Ta  Ta93  1  0.10156219  0.90204628  0.39776364  1
  Ta  Ta94  1  0.18935255  0.80427693  0.73799030  1
  Ta  Ta95  1  0.28779825  0.30081190  0.86706764  1
  Ta  Ta96  1  0.29945315  0.28562930  0.12047837  1
  Ta  Ta97  1  0.81222171  0.80819983  0.25046952  1
  Ta  Ta98  1  0.59503856  0.79793255  0.50113916  1
  Ta  Ta99  1  0.91856251  0.28766547  0.38229263  1
  Ta  Ta100  1  0.09888234  0.50661498  0.38135240  1
  Ta  Ta101  1  0.00355434  0.60612298  0.73530173  1
  Ta  Ta102  1  0.59645859  0.59559279  0.49495118  1
  Ta  Ta103  1  0.39435856  0.39456663  0.48824799  1
  Ta  Ta104  1  0.00278341  -0.01121165  0.73488150  1
  Ta  Ta105  1  -0.00646633  0.41015312  -0.01719201  1
  Ta  Ta106  1  0.50063343  0.89312918  0.87838314  1
  Ta  Ta107  1  0.28857475  0.88848222  0.61399474  1
  Ta  Ta108  1  0.39835615  0.59276443  0.48592222  1
  Ta  Ta109  1  0.29555955  0.10194970  0.12380334  1
  Ta  Ta110  1  0.59713432  0.82771465  0.02111857  1
  Ta  Ta111  1  0.48766323  0.49999279  0.12670340  1
  Ta  Ta112  1  0.39069647  0.41390405  0.76147984  1
  Ta  Ta113  1  0.69910354  0.30399020  0.61501105  1
  Ta  Ta114  1  0.19373397  0.00213580  0.00814891  1
  Ta  Ta115  1  0.50901414  0.10002589  0.63367852  1
  Ta  Ta116  1  0.19926189  0.19689381  -0.00725610  1
  Ta  Ta117  1  0.19552367  -0.00482182  0.73095873  1
  Ta  Ta118  1  0.80862362  0.80396919  0.74734425  1
  Ta  Ta119  1  0.19083209  0.39002350  -0.00714736  1
  Ti  Ti120  1  -0.00093556  0.80036355  0.26402637  1
  Ti  Ti121  1  0.48509308  0.50789512  0.88765087  1
  Ti  Ti122  1  0.49843380  0.30774178  0.87668625  1
  Ti  Ti123  1  0.20641355  0.18912763  0.50871893  1
  Ti  Ti124  1  0.30048935  0.10053190  0.63487603  1
  Ti  Ti125  1  0.60402102  0.59736853  0.23816172  1
  Ti  Ti126  1  0.49480597  0.89389327  0.62322149  1
  Ti  Ti127  1  0.39569649  0.58946739  0.25402378  1
  Ti  Ti128  1  0.29531433  0.29479487  0.64017806  1
  Ti  Ti129  1  0.69809658  0.50039103  0.61820795  1
  Ti  Ti130  1  0.90293302  0.29551885  0.62767298  1
  Ti  Ti131  1  0.10541368  0.30653481  0.64706382  1
  Ti  Ti132  1  0.19942271  0.59625960  0.49588084  1
  Ti  Ti133  1  0.00309769  0.00032826  0.00285063  1
  Ti  Ti134  1  0.10396129  0.90108575  0.60179694  1
  Ti  Ti135  1  0.30456878  0.69609768  0.61035746  1
  Ti  Ti136  1  0.00075869  0.61412334  0.26218666  1
  Ti  Ti137  1  0.69346076  0.28777563  0.38273596  1
  Ti  Ti138  1  0.00292414  0.59376113  0.50215056  1
  Ti  Ti139  1  0.49521415  0.11455254  0.36776087  1
  Ti  Ti140  1  0.79868969  0.38452816  -0.00359783  1
  Ti  Ti141  1  -0.01008959  0.19169057  0.74449018  1
  Ti  Ti142  1  0.10269434  0.11075603  0.63008386  1
  Ti  Ti143  1  0.28953226  0.91274186  0.37809368  1
  Ti  Ti144  1  0.39377756  0.20048896  0.25196948  1
  Ti  Ti145  1  0.62631348  0.20786925  0.00247681  1
  Ti  Ti146  1  0.72068270  0.71643476  0.11343481  1
  Ti  Ti147  1  0.09919589  0.09967383  0.12180628  1
  Ti  Ti148  1  0.49627249  0.69896507  0.61652179  1
  Ti  Ti149  1  0.30027895  0.28051622  0.37247615  1
  Ti  Ti150  1  0.79337545  0.39412216  0.74259025  1
  Ti  Ti151  1  0.19349090  0.58340620  0.00931767  1
  Ti  Ti152  1  0.08748622  0.69482355  0.12721798  1
  Ti  Ti153  1  0.89516679  0.51163492  0.38097682  1
  Ti  Ti154  1  0.30094880  0.49106754  0.88692773  1
  Ti  Ti155  1  0.59498030  0.80969828  0.74935091  1
  Ti  Ti156  1  0.11503705  0.11366141  0.38666480  1
  Ti  Ti157  1  0.74250200  0.10627154  0.13251875  1
  Ti  Ti158  1  0.28885585  0.69093657  0.37378630  1
  Ti  Ti159  1  0.90930620  0.71504411  0.11566103  1
  Mo  Mo160  1  0.09836764  0.50062957  0.12029030  1
  Mo  Mo161  1  0.10863240  0.29780334  0.38161800  1
  Mo  Mo162  1  0.69592337  0.30194761  0.87286295  1
  Mo  Mo163  1  0.19838490  0.39589812  0.75082871  1
  Mo  Mo164  1  -0.00148238  0.79818702  0.00701428  1
  Mo  Mo165  1  0.91069113  0.10279612  0.38144537  1
  Mo  Mo166  1  0.79588352  0.80367128  -0.00159254  1
  Mo  Mo167  1  0.30221971  0.09983630  0.37607397  1
  Mo  Mo168  1  0.49202607  0.29419548  0.36966825  1
  Mo  Mo169  1  0.39349922  0.39358293  0.25751971  1
  Mo  Mo170  1  0.20033983  0.00731612  0.51325967  1
  Mo  Mo171  1  0.80662084  0.21231870  0.73005992  1
  Mo  Mo172  1  0.00230335  0.80200442  0.49187870  1
  Mo  Mo173  1  0.70615492  0.90325759  0.12671253  1
  Mo  Mo174  1  0.47048589  0.10945193  0.13234323  1
  Mo  Mo175  1  0.91024213  0.09659510  0.86124732  1
  Mo  Mo176  1  0.38878579  0.01254926  0.25729168  1
  Mo  Mo177  1  0.19511937  0.19588358  0.74274858  1
  Mo  Mo178  1  0.90807562  0.10457456  0.63001756  1
  Mo  Mo179  1  0.60311561  0.20110231  0.50339478  1
  Mo  Mo180  1  0.02382722  0.21490282  0.51134612  1
  Mo  Mo181  1  -0.00021669  0.80016699  0.73947165  1
  Mo  Mo182  1  0.40161414  0.58373742  0.00593329  1
  Mo  Mo183  1  0.40305536  0.80019585  0.00332011  1
  Mo  Mo184  1  0.49123942  0.90232688  0.14322968  1
  Mo  Mo185  1  0.20822161  0.19081717  0.24926022  1
  Mo  Mo186  1  0.91058409  0.49758102  0.86827202  1
  Mo  Mo187  1  0.79125384  0.80292623  0.50304409  1
  Mo  Mo188  1  0.72041351  0.12368647  0.87454694  1
  Mo  Mo189  1  0.79922411  -0.00053514  0.25258398  1
  Mo  Mo190  1  0.08995204  0.50324608  0.63127482  1
  Mo  Mo191  1  0.91703322  0.10134054  0.12831442  1
  Mo  Mo192  1  0.79915764  0.20363776  -0.00124697  1
  Mo  Mo193  1  0.38815017  0.38911689  -0.01279303  1
  Mo  Mo194  1  0.79977676  0.59032945  0.49666588  1
  Mo  Mo195  1  0.40565526  0.59537167  0.75563312  1
  Mo  Mo196  1  0.59975936  0.00041949  0.74206559  1
  Mo  Mo197  1  0.20503241  0.79754004  0.48730510  1
  Mo  Mo198  1  0.70543577  0.29381372  0.12812163  1
  Mo  Mo199  1  0.09547953  0.69735138  0.38842305  1
