# generated using pymatgen
data_HfZrTaTiMo
_symmetry_space_group_name_H-M   'P 1'
_cell_length_a   15.21969240
_cell_length_b   15.21725867
_cell_length_c   16.85139087
_cell_angle_alpha   89.98182322
_cell_angle_beta   90.07854095
_cell_angle_gamma   89.98348998
_symmetry_Int_Tables_number   1
_chemical_formula_structural   HfZrTaTiMo
_chemical_formula_sum   'Hf40 Zr40 Ta40 Ti40 Mo40'
_cell_volume   3902.81173594
_cell_formula_units_Z   40
loop_
 _symmetry_equiv_pos_site_id
 _symmetry_equiv_pos_as_xyz
  1  'x, y, z'
loop_
 _atom_site_type_symbol
 _atom_site_label
 _atom_site_symmetry_multiplicity
 _atom_site_fract_x
 _atom_site_fract_y
 _atom_site_fract_z
 _atom_site_occupancy
  Hf  Hf0  1  0.38173832  0.39220679  0.75101021  1
  Hf  Hf1  1  0.49063771  0.29260181  0.61797909  1
  Hf  Hf2  1  0.88780258  0.50708003  0.14648463  1
  Hf  Hf3  1  0.48819160  0.50197878  0.63239238  1
  Hf  Hf4  1  0.38364481  0.80397298  0.23194157  1
  Hf  Hf5  1  0.09282822  0.71272636  0.11554940  1
  Hf  Hf6  1  0.70630582  0.09044301  0.86734324  1
  Hf  Hf7  1  0.09152851  0.70778571  0.62330423  1
  Hf  Hf8  1  0.07785056  0.30605118  0.86783733  1
  Hf  Hf9  1  0.40498145  0.21279548  0.25416985  1
  Hf  Hf10  1  0.48971555  0.69886754  0.37349564  1
  Hf  Hf11  1  -0.00522272  0.40359123  0.00839446  1
  Hf  Hf12  1  0.27809827  0.50362648  0.38228968  1
  Hf  Hf13  1  0.81659454  0.00674332  0.26673495  1
  Hf  Hf14  1  0.90391923  0.10120804  0.12709964  1
  Hf  Hf15  1  0.40080248  -0.00244843  0.00493305  1
  Hf  Hf16  1  0.81146947  -0.00374675  -0.01068902  1
  Hf  Hf17  1  0.28693943  0.71873462  0.37789387  1
  Hf  Hf18  1  0.82720890  0.78900861  0.76404996  1
  Hf  Hf19  1  0.40043365  0.20494653  -0.00676502  1
  Hf  Hf20  1  0.89410473  0.49223336  0.87019009  1
  Hf  Hf21  1  0.20301980  0.00795097  -0.00583504  1
  Hf  Hf22  1  0.59489401  0.19767867  0.75560619  1
  Hf  Hf23  1  0.38339155  0.60902345  0.51139279  1
  Hf  Hf24  1  0.01828751  0.00151068  0.26591608  1
  Hf  Hf25  1  0.02626177  0.21689258  0.50717025  1
  Hf  Hf26  1  0.79683585  0.80465433  0.25636638  1
  Hf  Hf27  1  0.09761916  0.50230621  0.87292980  1
  Hf  Hf28  1  0.12709019  0.89268183  0.38879644  1
  Hf  Hf29  1  0.19500559  0.20864431  0.00730160  1
  Hf  Hf30  1  0.79533228  0.39112902  0.00228960  1
  Hf  Hf31  1  0.91608514  0.89660281  0.12724490  1
  Hf  Hf32  1  0.69036291  0.28998553  0.12689538  1
  Hf  Hf33  1  0.58701032  0.59667025  0.24065719  1
  Hf  Hf34  1  -0.01308176  0.61257869  0.75680393  1
  Hf  Hf35  1  0.81299270  0.78806565  -0.00943433  1
  Hf  Hf36  1  0.20642722  0.60179402  -0.00072854  1
  Hf  Hf37  1  0.89703688  0.30272029  0.14390114  1
  Hf  Hf38  1  0.10488933  0.70993542  0.87048732  1
  Hf  Hf39  1  -0.00141360  0.42410982  0.49630042  1
  Zr  Zr40  1  0.61734937  -0.02246083  0.26637574  1
  Zr  Zr41  1  0.70150863  0.48413955  0.62336224  1
  Zr  Zr42  1  0.60278771  0.80090454  0.50088591  1
  Zr  Zr43  1  0.80325369  0.77420425  0.49360576  1
  Zr  Zr44  1  0.40602414  0.78876020  0.01664698  1
  Zr  Zr45  1  0.59659997  0.38651180  0.76337318  1
  Zr  Zr46  1  0.52184322  0.89618754  0.12656132  1
  Zr  Zr47  1  0.38719180  0.40820463  -0.02037600  1
  Zr  Zr48  1  0.59474818  0.59153518  0.00837236  1
  Zr  Zr49  1  0.79520639  -0.01494309  0.50137899  1
  Zr  Zr50  1  0.70149022  0.09185527  0.62462789  1
  Zr  Zr51  1  0.58496492  0.38787494  -0.01783367  1
  Zr  Zr52  1  0.11168003  0.11501703  0.86486708  1
  Zr  Zr53  1  0.40977088  0.01049055  0.24781959  1
  Zr  Zr54  1  0.31293932  0.70334779  0.85615753  1
  Zr  Zr55  1  0.81338760  0.20231207  0.73432613  1
  Zr  Zr56  1  0.70201696  0.49710205  0.36970388  1
  Zr  Zr57  1  0.49741554  0.88964750  0.86819092  1
  Zr  Zr58  1  0.90833559  0.88535850  0.61964541  1
  Zr  Zr59  1  0.00438969  0.01660643  0.48971727  1
  Zr  Zr60  1  0.00375280  -0.00559647  0.75750348  1
  Zr  Zr61  1  0.49763398  0.09333221  0.61978678  1
  Zr  Zr62  1  0.59862607  0.59994363  0.50241623  1
  Zr  Zr63  1  0.38582070  0.59434425  0.24195250  1
  Zr  Zr64  1  0.70005095  0.69997787  0.13145008  1
  Zr  Zr65  1  0.59996962  0.18631714  0.26480489  1
  Zr  Zr66  1  0.71459994  0.68735723  0.63903711  1
  Zr  Zr67  1  0.70195711  0.08905976  0.12184398  1
  Zr  Zr68  1  0.37962045  0.39165535  0.50365457  1
  Zr  Zr69  1  0.10840358  0.91270460  0.61490287  1
  Zr  Zr70  1  0.09144171  0.50605747  0.13261931  1
  Zr  Zr71  1  0.21157874  0.81194943  -0.00135746  1
  Zr  Zr72  1  0.70771125  0.09981898  0.38896811  1
  Zr  Zr73  1  0.82194952  0.19917725  0.50351439  1
  Zr  Zr74  1  0.58305900  0.38369063  0.26025335  1
  Zr  Zr75  1  0.31301895  0.31389906  0.12988368  1
  Zr  Zr76  1  0.50695582  0.69280208  0.86491760  1
  Zr  Zr77  1  0.50036251  0.71616362  0.64707062  1
  Zr  Zr78  1  0.60504680  0.19465851  -0.01680293  1
  Zr  Zr79  1  0.91370269  0.88350199  0.38471702  1
  Ta  Ta80  1  0.20458842  0.40790675  0.25183859  1
  Ta  Ta81  1  0.11003335  0.91099293  0.12806851  1
  Ta  Ta82  1  0.10106355  0.10167139  0.13057831  1
  Ta  Ta83  1  0.90325222  0.67607606  0.36271688  1
  Ta  Ta84  1  0.39919750  0.00195657  0.74326660  1
  Ta  Ta85  1  0.70297428  0.88931795  0.86445038  1
  Ta  Ta86  1  0.60384646  0.59141824  0.75263621  1
  Ta  Ta87  1  0.19330426  0.40100135  -0.00080405  1
  Ta  Ta88  1  0.29760766  0.11429103  0.61595749  1
  Ta  Ta89  1  0.90587344  0.12140028  0.87195605  1
  Ta  Ta90  1  -0.00746819  0.20414670  0.00516864  1
  Ta  Ta91  1  0.59127825  -0.01332220  0.49642286  1
  Ta  Ta92  1  0.48549063  0.49685444  0.38094397  1
  Ta  Ta93  1  0.29865999  0.09962926  0.12791805  1
  Ta  Ta94  1  0.20945737  0.02210640  0.74148577  1
  Ta  Ta95  1  0.29775667  0.91300511  0.85894588  1
  Ta  Ta96  1  -0.01434705  0.61362074  -0.00456473  1
  Ta  Ta97  1  0.27281520  0.48860999  0.62306932  1
  Ta  Ta98  1  0.69641840  0.69822256  0.36117709  1
  Ta  Ta99  1  0.28870269  0.28901327  0.37613374  1
  Ta  Ta100  1  0.19502789  0.59714921  0.74003513  1
  Ta  Ta101  1  0.09947914  0.30177379  0.13916356  1
  Ta  Ta102  1  0.20310355  0.19794948  0.24542562  1
  Ta  Ta103  1  0.69833560  0.49872799  0.87162260  1
  Ta  Ta104  1  0.59769067  0.19971913  0.49485370  1
  Ta  Ta105  1  0.12412527  0.11813470  0.37462440  1
  Ta  Ta106  1  0.69833560  0.29771492  0.61153665  1
  Ta  Ta107  1  0.69231884  0.88881238  0.64437226  1
  Ta  Ta108  1  0.89758531  0.50697823  0.63121783  1
  Ta  Ta109  1  0.49050297  0.89202974  0.37301670  1
  Ta  Ta110  1  0.40145640  0.81141670  0.51141375  1
  Ta  Ta111  1  0.00426651  0.81920767  -0.01930741  1
  Ta  Ta112  1  0.21749808  -0.00439721  0.25644496  1
  Ta  Ta113  1  0.01870733  0.79151632  0.25694903  1
  Ta  Ta114  1  0.18660718  0.62352313  0.24903317  1
  Ta  Ta115  1  0.49025496  0.09210031  0.86863806  1
  Ta  Ta116  1  0.48587428  0.47287300  0.12780917  1
  Ta  Ta117  1  0.00866586  0.00707399  -0.01095736  1
  Ta  Ta118  1  0.61296715  0.79600584  -0.00655378  1
  Ta  Ta119  1  0.10173046  0.31526066  0.36522189  1
  Ti  Ti120  1  0.40020363  0.59847400  0.01372536  1
  Ti  Ti121  1  0.09338876  0.69690106  0.39028595  1
  Ti  Ti122  1  0.01515799  0.21443304  0.72514322  1
  Ti  Ti123  1  0.89493939  0.48999803  0.34828874  1
  Ti  Ti124  1  0.90529683  0.69117616  0.61742895  1
  Ti  Ti125  1  0.28940145  0.50306760  0.12677379  1
  Ti  Ti126  1  0.27959997  0.29412769  0.86902247  1
  Ti  Ti127  1  0.39567297  -0.00420000  0.49959730  1
  Ti  Ti128  1  0.38420779  0.19468710  0.75300371  1
  Ti  Ti129  1  0.71333182  0.89651495  0.11877220  1
  Ti  Ti130  1  0.80403041  0.39590388  0.74922721  1
  Ti  Ti131  1  0.72831612  0.29100628  0.87379047  1
  Ti  Ti132  1  0.50659383  0.11304962  0.11971512  1
  Ti  Ti133  1  0.91804248  0.09358205  0.62712384  1
  Ti  Ti134  1  0.59816193  0.39975611  0.49568576  1
  Ti  Ti135  1  0.19633978  0.81632127  0.74596561  1
  Ti  Ti136  1  0.31151881  0.90369303  0.63198009  1
  Ti  Ti137  1  0.29803059  0.70154106  0.64019560  1
  Ti  Ti138  1  0.70880715  0.68673567  0.86911008  1
  Ti  Ti139  1  0.00233305  0.19974057  0.26006405  1
  Ti  Ti140  1  0.49107579  0.09729204  0.38850397  1
  Ti  Ti141  1  0.90386653  0.31883064  0.61860395  1
  Ti  Ti142  1  0.69607234  0.48649684  0.13741608  1
  Ti  Ti143  1  0.79625099  0.59273795  0.00232571  1
  Ti  Ti144  1  0.29094610  0.50635226  0.86277781  1
  Ti  Ti145  1  0.90270205  0.30651824  0.37139070  1
  Ti  Ti146  1  0.49069079  0.29814768  0.39189908  1
  Ti  Ti147  1  0.21173833  0.01814955  0.49932740  1
  Ti  Ti148  1  0.81060537  0.57574198  0.49085041  1
  Ti  Ti149  1  0.18196442  0.39595567  0.74387592  1
  Ti  Ti150  1  0.08202178  0.51280469  0.36090651  1
  Ti  Ti151  1  0.80713617  -0.00519998  0.75063207  1
  Ti  Ti152  1  0.60291037  -0.00951789  -0.00870904  1
  Ti  Ti153  1  0.17442210  0.58705602  0.51242664  1
  Ti  Ti154  1  0.90182802  0.69888464  0.13677647  1
  Ti  Ti155  1  0.70954673  0.30565800  0.38974960  1
  Ti  Ti156  1  0.59665196  -0.00934650  0.75035692  1
  Ti  Ti157  1  0.80148822  0.20241805  0.26547175  1
  Ti  Ti158  1  0.21382136  0.79946642  0.51457296  1
  Ti  Ti159  1  0.48722835  0.50546743  0.86043883  1
  Mo  Mo160  1  0.28738380  0.69293645  0.12627853  1
  Mo  Mo161  1  0.01213545  0.80550379  0.76412378  1
  Mo  Mo162  1  0.79628765  0.58885997  0.75355345  1
  Mo  Mo163  1  0.20497375  0.21351672  0.74218109  1
  Mo  Mo164  1  0.18316278  0.39909112  0.49492845  1
  Mo  Mo165  1  0.47200324  0.28450934  0.86225524  1
  Mo  Mo166  1  0.80313019  0.39699627  0.49678041  1
  Mo  Mo167  1  0.39272752  0.80884347  0.74189903  1
  Mo  Mo168  1  0.39698826  0.19130192  0.49074133  1
  Mo  Mo169  1  0.10924207  0.90818908  0.86647816  1
  Mo  Mo170  1  0.39305321  0.40302094  0.26860315  1
  Mo  Mo171  1  -0.01297934  0.60782272  0.49602535  1
  Mo  Mo172  1  0.79028686  0.38618495  0.25277724  1
  Mo  Mo173  1  0.00278253  0.39658438  0.25660363  1
  Mo  Mo174  1  0.49755391  0.68817809  0.12042559  1
  Mo  Mo175  1  -0.00797292  0.40308355  0.73618018  1
  Mo  Mo176  1  0.90116894  0.69482968  0.88437799  1
  Mo  Mo177  1  0.29219634  0.29722512  0.62600756  1
  Mo  Mo178  1  0.30930677  0.10768307  0.86988392  1
  Mo  Mo179  1  0.69517188  0.88777891  0.38067984  1
  Mo  Mo180  1  0.30387794  0.09796710  0.37959329  1
  Mo  Mo181  1  0.90220568  0.29788242  0.86941917  1
  Mo  Mo182  1  0.20968093  0.21236545  0.49925549  1
  Mo  Mo183  1  0.79316631  0.59890782  0.24862477  1
  Mo  Mo184  1  0.49957798  0.29925467  0.12337143  1
  Mo  Mo185  1  0.00719548  0.78929341  0.49318402  1
  Mo  Mo186  1  0.29597593  0.91164955  0.12635971  1
  Mo  Mo187  1  0.38803328  0.59318985  0.73688258  1
  Mo  Mo188  1  0.31002991  0.90318134  0.38609444  1
  Mo  Mo189  1  0.90133429  0.91078168  0.87608825  1
  Mo  Mo190  1  0.11267486  0.32312573  0.62134041  1
  Mo  Mo191  1  0.10863724  0.11272109  0.62980627  1
  Mo  Mo192  1  0.19463101  0.80923577  0.24812326  1
  Mo  Mo193  1  0.81183226  0.19872286  -0.00276102  1
  Mo  Mo194  1  0.61302488  0.79901687  0.75868207  1
  Mo  Mo195  1  0.91907540  0.11653210  0.37231987  1
  Mo  Mo196  1  0.50270240  0.90636001  0.62963830  1
  Mo  Mo197  1  0.59146562  0.79228336  0.25637697  1
  Mo  Mo198  1  0.08812236  0.50821090  0.63101763  1
  Mo  Mo199  1  0.00098667  0.60645508  0.25113495  1
