# generated using pymatgen
data_HfZrTaTiMo
_symmetry_space_group_name_H-M   'P 1'
_cell_length_a   15.17030396
_cell_length_b   15.17111613
_cell_length_c   16.84863578
_cell_angle_alpha   90.02265055
_cell_angle_beta   90.03278170
_cell_angle_gamma   90.09539477
_symmetry_Int_Tables_number   1
_chemical_formula_structural   HfZrTaTiMo
_chemical_formula_sum   'Hf40 Zr40 Ta40 Ti40 Mo40'
_cell_volume   3877.71467726
_cell_formula_units_Z   40
loop_
 _symmetry_equiv_pos_site_id
 _symmetry_equiv_pos_as_xyz
  1  'x, y, z'
loop_
 _atom_site_type_symbol
 _atom_site_label
 _atom_site_symmetry_multiplicity
 _atom_site_fract_x
 _atom_site_fract_y
 _atom_site_fract_z
 _atom_site_occupancy
  Hf  Hf0  1  0.19904660  0.00410025  0.24805620  1
  Hf  Hf1  1  0.78475183  0.17962694  0.24653108  1
  Hf  Hf2  1  0.50949005  0.91123439  0.12311669  1
  Hf  Hf3  1  0.48109690  0.30150664  0.12046485  1
  Hf  Hf4  1  0.68231711  0.09496343  0.39524335  1
  Hf  Hf5  1  0.50467881  0.50216716  0.62391825  1
  Hf  Hf6  1  0.41246685  0.01039455  0.24558977  1
  Hf  Hf7  1  0.81731883  0.58702413  0.49169577  1
  Hf  Hf8  1  0.19735045  0.78780928  0.24192177  1
  Hf  Hf9  1  0.89370245  0.10085427  0.38861113  1
  Hf  Hf10  1  0.10886554  0.50079481  0.12396874  1
  Hf  Hf11  1  0.38732638  0.18594021  0.52349197  1
  Hf  Hf12  1  0.79523538  0.38808262  0.47833443  1
  Hf  Hf13  1  0.30000695  0.71212828  0.63039130  1
  Hf  Hf14  1  0.08897376  0.90065944  0.12154689  1
  Hf  Hf15  1  0.40362929  0.39792696  0.50739021  1
  Hf  Hf16  1  0.69247702  0.49764210  0.36389094  1
  Hf  Hf17  1  0.12040059  0.90944332  0.62936916  1
  Hf  Hf18  1  -0.00609874  -0.00309515  0.25845490  1
  Hf  Hf19  1  0.20576994  0.21226416  0.00749236  1
  Hf  Hf20  1  0.18096459  0.40271195  0.74395041  1
  Hf  Hf21  1  0.20272128  0.21594944  0.24438482  1
  Hf  Hf22  1  0.51248673  0.91941720  0.38239741  1
  Hf  Hf23  1  0.58658100  0.19739726  0.52056645  1
  Hf  Hf24  1  0.61337107  0.02153182  0.24658605  1
  Hf  Hf25  1  0.19120632  0.40563581  0.50876498  1
  Hf  Hf26  1  0.01158147  0.80074748  0.74142906  1
  Hf  Hf27  1  0.91171890  0.88933682  0.39524992  1
  Hf  Hf28  1  0.48799041  0.50509193  0.11104869  1
  Hf  Hf29  1  0.91155314  0.11071907  0.61961147  1
  Hf  Hf30  1  0.80891984  0.61057618  0.23827341  1
  Hf  Hf31  1  0.61029735  0.61002706  0.75223945  1
  Hf  Hf32  1  0.92062765  0.09163599  0.87608708  1
  Hf  Hf33  1  0.49326991  0.29085648  0.37989109  1
  Hf  Hf34  1  0.70846372  0.70556472  0.37733026  1
  Hf  Hf35  1  0.89836100  0.29389634  0.12186655  1
  Hf  Hf36  1  0.29285841  0.67697481  0.10375471  1
  Hf  Hf37  1  0.39370587  0.60045674  0.24742814  1
  Hf  Hf38  1  0.38090630  0.39991350  0.25128860  1
  Hf  Hf39  1  0.37624726  0.39662634  -0.00835239  1
  Zr  Zr40  1  0.89337540  0.07758249  0.11703150  1
  Zr  Zr41  1  0.40845203  0.80457361  -0.01514696  1
  Zr  Zr42  1  0.30519703  0.89419055  0.12734805  1
  Zr  Zr43  1  0.88986076  0.87229601  0.12280283  1
  Zr  Zr44  1  0.07130689  0.29555071  0.61935441  1
  Zr  Zr45  1  0.62370351  0.81304882  -0.01315594  1
  Zr  Zr46  1  0.18406678  0.19291680  0.51048037  1
  Zr  Zr47  1  0.29989714  0.51148246  0.62811830  1
  Zr  Zr48  1  0.30586941  0.90188262  0.36788460  1
  Zr  Zr49  1  0.30697394  0.69359404  0.37715324  1
  Zr  Zr50  1  0.40497204  0.80290287  0.50376652  1
  Zr  Zr51  1  0.59844872  0.60749162  0.24163631  1
  Zr  Zr52  1  0.70977013  0.10775242  0.86252405  1
  Zr  Zr53  1  0.60192881  0.79416535  0.50530828  1
  Zr  Zr54  1  0.31195222  0.10754981  0.37552522  1
  Zr  Zr55  1  0.08341061  0.30642693  0.37786462  1
  Zr  Zr56  1  0.28206711  0.50344837  0.86386921  1
  Zr  Zr57  1  0.50766096  0.71087151  0.11718842  1
  Zr  Zr58  1  0.71207714  0.49946455  0.61945755  1
  Zr  Zr59  1  0.20178655  0.81255947  0.49796999  1
  Zr  Zr60  1  0.90563213  0.87826541  0.87696106  1
  Zr  Zr61  1  0.80930201  0.78279670  0.73035991  1
  Zr  Zr62  1  0.00621936  0.19418756  0.00643721  1
  Zr  Zr63  1  0.70404560  0.91283224  0.61368695  1
  Zr  Zr64  1  0.81397662  -0.00466206  0.74470703  1
  Zr  Zr65  1  0.79080352  0.40606446  0.01189015  1
  Zr  Zr66  1  0.41553365  0.80481318  0.76311153  1
  Zr  Zr67  1  0.69079415  0.30777922  0.62591586  1
  Zr  Zr68  1  0.60032870  0.40634768  0.76024939  1
  Zr  Zr69  1  0.71618709  0.90520870  0.39606761  1
  Zr  Zr70  1  0.19349000  0.80957314  -0.00748332  1
  Zr  Zr71  1  -0.01945808  0.39623456  0.76039992  1
  Zr  Zr72  1  0.60233704  0.01548758  -0.01846181  1
  Zr  Zr73  1  0.10089588  0.69560685  0.87952911  1
  Zr  Zr74  1  0.80275074  0.38990380  0.24916762  1
  Zr  Zr75  1  0.39596720  0.00207997  -0.01454311  1
  Zr  Zr76  1  0.28442068  0.09900059  0.86584357  1
  Zr  Zr77  1  0.49436855  0.50610217  0.88273808  1
  Zr  Zr78  1  0.31094728  0.11029759  0.12147832  1
  Zr  Zr79  1  -0.00306709  0.59500994  0.75727659  1
  Ta  Ta80  1  0.17314779  0.18348923  0.73754556  1
  Ta  Ta81  1  0.49163516  0.08262319  0.64490810  1
  Ta  Ta82  1  0.69490973  0.30145103  0.87791443  1
  Ta  Ta83  1  0.49314922  0.29588639  0.86304227  1
  Ta  Ta84  1  0.51780031  0.69589794  0.88317072  1
  Ta  Ta85  1  0.88582823  0.31407086  0.62020725  1
  Ta  Ta86  1  0.30765856  0.69208262  0.88219491  1
  Ta  Ta87  1  0.38706115  0.19948805  0.73897469  1
  Ta  Ta88  1  0.59307881  0.59133728  0.49432203  1
  Ta  Ta89  1  0.79761325  -0.01997558  -0.01307150  1
  Ta  Ta90  1  0.09519910  0.10552003  0.13242768  1
  Ta  Ta91  1  0.29320944  0.50035679  0.38735229  1
  Ta  Ta92  1  0.72712457  0.69566474  0.87695208  1
  Ta  Ta93  1  0.62126930  0.60343856  0.00755763  1
  Ta  Ta94  1  0.19129146  0.61152745  0.50487682  1
  Ta  Ta95  1  -0.00675300  0.20639353  0.24966710  1
  Ta  Ta96  1  0.49595765  0.10717221  0.85254394  1
  Ta  Ta97  1  0.40845670  0.20280180  -0.01399353  1
  Ta  Ta98  1  0.52157564  0.11815221  0.11549628  1
  Ta  Ta99  1  0.91213377  0.69177191  0.37548803  1
  Ta  Ta100  1  0.09425863  0.51301800  0.37631656  1
  Ta  Ta101  1  0.08006326  0.51568987  0.61668705  1
  Ta  Ta102  1  0.68773089  0.28849557  0.37331841  1
  Ta  Ta103  1  0.91977485  0.90653878  0.60960781  1
  Ta  Ta104  1  0.88686896  0.29375684  0.88671821  1
  Ta  Ta105  1  0.18173698  0.40070642  -0.00622111  1
  Ta  Ta106  1  0.59260035  0.39215817  -0.00309802  1
  Ta  Ta107  1  0.09956942  0.70410304  0.37236780  1
  Ta  Ta108  1  0.80803173  0.21280611  0.74723432  1
  Ta  Ta109  1  0.58835963  0.39215942  0.24649729  1
  Ta  Ta110  1  0.60109355  -0.00947290  0.75592848  1
  Ta  Ta111  1  0.67871988  0.28160388  0.12231789  1
  Ta  Ta112  1  0.09893395  0.10274911  0.37183921  1
  Ta  Ta113  1  -0.01910619  0.41766129  0.49093710  1
  Ta  Ta114  1  0.29263509  0.30574708  0.38399458  1
  Ta  Ta115  1  0.09265919  0.28721480  0.86871514  1
  Ta  Ta116  1  0.81909361  0.78704310  0.51602388  1
  Ta  Ta117  1  0.89188925  0.50869755  0.89147709  1
  Ta  Ta118  1  0.49012964  0.50106534  0.37855915  1
  Ta  Ta119  1  0.70548125  0.90784911  0.12512546  1
  Ti  Ti120  1  0.40880601  0.20383263  0.25071255  1
  Ti  Ti121  1  0.21981916  0.00855239  0.50182453  1
  Ti  Ti122  1  0.50527165  0.69970646  0.37440743  1
  Ti  Ti123  1  0.18486378  0.01062653  0.00192310  1
  Ti  Ti124  1  0.21249725  0.80714974  0.76486652  1
  Ti  Ti125  1  0.00999405  0.59701320  0.24552544  1
  Ti  Ti126  1  0.31900944  0.92187496  0.63609610  1
  Ti  Ti127  1  0.69334720  0.49550941  0.13008583  1
  Ti  Ti128  1  0.10389770  0.90095035  0.37493061  1
  Ti  Ti129  1  0.79529987  0.40564602  0.76279122  1
  Ti  Ti130  1  0.78420789  0.18871677  0.00324227  1
  Ti  Ti131  1  0.18930570  0.40601341  0.25228025  1
  Ti  Ti132  1  0.60248124  0.19856566  0.73997988  1
  Ti  Ti133  1  0.20196729  0.59399788  0.25065740  1
  Ti  Ti134  1  0.02055947  0.01062079  0.49676766  1
  Ti  Ti135  1  0.28852840  0.29955594  0.63423364  1
  Ti  Ti136  1  0.50369500  0.89653613  0.62921802  1
  Ti  Ti137  1  0.80097692  -0.01861962  0.25651575  1
  Ti  Ti138  1  0.91041224  0.49570698  0.12706935  1
  Ti  Ti139  1  0.91996571  0.67743883  0.61722542  1
  Ti  Ti140  1  0.19165524  0.61050048  0.74485564  1
  Ti  Ti141  1  0.01601471  0.78374137  0.51112530  1
  Ti  Ti142  1  0.28992146  0.29614008  0.85872153  1
  Ti  Ti143  1  0.81175240  0.61403210  0.02029759  1
  Ti  Ti144  1  -0.00152812  0.39604324  -0.00499640  1
  Ti  Ti145  1  0.61561428  0.80157595  0.75849535  1
  Ti  Ti146  1  0.01010774  0.59314931  0.00294574  1
  Ti  Ti147  1  0.50123901  0.69556082  0.62510900  1
  Ti  Ti148  1  0.49065904  0.30373707  0.63922073  1
  Ti  Ti149  1  -0.00607617  0.78769961  0.24888242  1
  Ti  Ti150  1  0.69969291  0.69224442  0.61602490  1
  Ti  Ti151  1  0.80833351  0.59158273  0.74933541  1
  Ti  Ti152  1  0.61927529  0.80974491  0.25038426  1
  Ti  Ti153  1  0.79194552  0.19420908  0.50922731  1
  Ti  Ti154  1  0.41771186  0.80055033  0.25211544  1
  Ti  Ti155  1  0.70171306  0.50522050  0.88614304  1
  Ti  Ti156  1  0.39199627  0.40208634  0.74983334  1
  Ti  Ti157  1  0.40395572  0.60552065  0.75457658  1
  Ti  Ti158  1  0.10189750  0.92433173  0.86841427  1
  Ti  Ti159  1  -0.00885411  0.78371447  0.00284285  1
  Mo  Mo160  1  0.80820319  0.00204127  0.51464878  1
  Mo  Mo161  1  0.40665057  0.60035920  -0.00874855  1
  Mo  Mo162  1  0.70936663  0.89392121  0.86127842  1
  Mo  Mo163  1  0.19825927  -0.00587886  0.75145413  1
  Mo  Mo164  1  0.00931156  -0.01456804  0.00111250  1
  Mo  Mo165  1  0.29294752  0.89773250  0.87290961  1
  Mo  Mo166  1  0.91791732  0.68661384  0.12767486  1
  Mo  Mo167  1  0.59535052  0.40096098  0.48810323  1
  Mo  Mo168  1  0.40948214  0.00266310  0.51072157  1
  Mo  Mo169  1  0.88891982  0.29177093  0.36911877  1
  Mo  Mo170  1  0.69926411  0.10585123  0.63898187  1
  Mo  Mo171  1  0.80048071  0.78690766  0.00004093  1
  Mo  Mo172  1  0.00073414  0.40466609  0.25098820  1
  Mo  Mo173  1  0.50866210  0.90391340  0.86633754  1
  Mo  Mo174  1  0.28810884  0.09018593  0.63957004  1
  Mo  Mo175  1  -0.01093633  0.20110503  0.75444381  1
  Mo  Mo176  1  0.70315944  0.09473692  0.11344447  1
  Mo  Mo177  1  0.59432766  0.20475922  0.25072885  1
  Mo  Mo178  1  0.59547108  0.20892317  -0.01379626  1
  Mo  Mo179  1  0.01625108  0.01067923  0.74315240  1
  Mo  Mo180  1  0.58876216  0.00753662  0.52075467  1
  Mo  Mo181  1  0.91038531  0.49649764  0.35731269  1
  Mo  Mo182  1  0.09174975  0.09168131  0.61828092  1
  Mo  Mo183  1  0.49786379  0.10391993  0.38214638  1
  Mo  Mo184  1  -0.01828166  0.21224937  0.48822851  1
  Mo  Mo185  1  0.29650490  0.48984323  0.12154749  1
  Mo  Mo186  1  0.71525943  0.71733739  0.12703020  1
  Mo  Mo187  1  0.40417692  0.60323042  0.49746893  1
  Mo  Mo188  1  0.09088613  0.30475499  0.13284424  1
  Mo  Mo189  1  0.00381904  0.60665464  0.49460172  1
  Mo  Mo190  1  0.89768897  0.49118690  0.62425386  1
  Mo  Mo191  1  0.10007078  0.10249768  0.87675117  1
  Mo  Mo192  1  0.28630099  0.31571639  0.12243893  1
  Mo  Mo193  1  0.90274743  0.68540721  0.88028451  1
  Mo  Mo194  1  0.10943708  0.70182731  0.63248832  1
  Mo  Mo195  1  0.09264992  0.69748231  0.12214388  1
  Mo  Mo196  1  0.08825539  0.48995877  0.88298010  1
  Mo  Mo197  1  0.20042196  0.58976537  -0.00592255  1
  Mo  Mo198  1  0.39933544  -0.00422918  0.76244949  1
  Mo  Mo199  1  0.80534064  0.80060218  0.25833284  1
