# generated using pymatgen
data_HfZrTaTiMo
_symmetry_space_group_name_H-M   'P 1'
_cell_length_a   15.20866522
_cell_length_b   15.21085374
_cell_length_c   16.83980549
_cell_angle_alpha   90.00602765
_cell_angle_beta   90.02465632
_cell_angle_gamma   90.02457534
_symmetry_Int_Tables_number   1
_chemical_formula_structural   HfZrTaTiMo
_chemical_formula_sum   'Hf40 Zr40 Ta40 Ti40 Mo40'
_cell_volume   3895.66567489
_cell_formula_units_Z   40
loop_
 _symmetry_equiv_pos_site_id
 _symmetry_equiv_pos_as_xyz
  1  'x, y, z'
loop_
 _atom_site_type_symbol
 _atom_site_label
 _atom_site_symmetry_multiplicity
 _atom_site_fract_x
 _atom_site_fract_y
 _atom_site_fract_z
 _atom_site_occupancy
  Hf  Hf0  1  0.61349915  0.41025757  0.00120023  1
  Hf  Hf1  1  0.79888948  0.21037220  0.75445342  1
  Hf  Hf2  1  0.20426164  0.19678674  -0.02038553  1
  Hf  Hf3  1  0.89712817  0.10790959  0.61943537  1
  Hf  Hf4  1  0.29720856  0.68787181  0.88144555  1
  Hf  Hf5  1  0.41079956  0.39314080  0.50669875  1
  Hf  Hf6  1  0.50680396  0.71006274  0.13981767  1
  Hf  Hf7  1  0.01092366  0.61700834  0.75930576  1
  Hf  Hf8  1  0.31359751  0.69499779  0.11067226  1
  Hf  Hf9  1  0.40898747  0.39445145  0.75107297  1
  Hf  Hf10  1  0.08243350  0.90329254  0.37750553  1
  Hf  Hf11  1  0.49587938  0.71030997  0.61341738  1
  Hf  Hf12  1  0.39741181  0.19411217  0.76675305  1
  Hf  Hf13  1  0.59731889  0.80696500  0.00741983  1
  Hf  Hf14  1  0.81488690  0.40852918  0.25044041  1
  Hf  Hf15  1  0.80873365  0.40580646  0.49037514  1
  Hf  Hf16  1  0.20122278  -0.01051054  0.25699956  1
  Hf  Hf17  1  0.20312784  0.20494804  0.49102480  1
  Hf  Hf18  1  0.00494577  -0.00577033  0.73857261  1
  Hf  Hf19  1  0.51188701  0.30413658  0.35459352  1
  Hf  Hf20  1  -0.01276967  0.80213380  0.24201951  1
  Hf  Hf21  1  0.49422452  0.70020392  0.37626505  1
  Hf  Hf22  1  0.49640111  0.51463564  0.12740037  1
  Hf  Hf23  1  0.61147022  0.39495925  0.49493287  1
  Hf  Hf24  1  0.40097993  0.79143554  0.75230381  1
  Hf  Hf25  1  0.29306246  0.49501063  0.12514706  1
  Hf  Hf26  1  0.21033041  0.40602228  0.50356742  1
  Hf  Hf27  1  0.09054509  0.49067021  0.38056113  1
  Hf  Hf28  1  0.88522013  0.89816889  0.87029069  1
  Hf  Hf29  1  0.21654461  0.60751102  0.26086115  1
  Hf  Hf30  1  0.60043728  0.62385052  0.77063131  1
  Hf  Hf31  1  0.48588848  0.10219624  0.13118494  1
  Hf  Hf32  1  0.28157488  0.69000126  0.61860221  1
  Hf  Hf33  1  0.39051768  0.59002026  0.74612708  1
  Hf  Hf34  1  0.69270985  0.70462878  0.62272033  1
  Hf  Hf35  1  0.50047579  0.89645067  0.87973663  1
  Hf  Hf36  1  0.29984163  0.09616603  0.62320512  1
  Hf  Hf37  1  0.09116777  0.70175730  0.37921124  1
  Hf  Hf38  1  0.12107417  0.50407152  0.86237017  1
  Hf  Hf39  1  0.60764761  0.19997054  0.00961928  1
  Zr  Zr40  1  0.78874157  0.79620477  0.00885751  1
  Zr  Zr41  1  -0.00284244  0.58961022  0.24404498  1
  Zr  Zr42  1  0.10057676  0.30900827  0.63606078  1
  Zr  Zr43  1  0.40437793  0.19554150  0.49725923  1
  Zr  Zr44  1  0.92642653  0.29368329  0.12370101  1
  Zr  Zr45  1  0.69085657  0.10140373  0.62189049  1
  Zr  Zr46  1  0.40392636  -0.00502103  0.75501506  1
  Zr  Zr47  1  0.89917825  0.48901866  0.10291885  1
  Zr  Zr48  1  0.78459126  -0.00879073  0.73794810  1
  Zr  Zr49  1  0.90467084  0.09898729  0.87387322  1
  Zr  Zr50  1  0.49442759  0.10213325  0.35398316  1
  Zr  Zr51  1  0.08758955  0.10698898  0.38190325  1
  Zr  Zr52  1  0.30194036  0.88950948  0.61368512  1
  Zr  Zr53  1  0.10539609  0.69183044  0.12477891  1
  Zr  Zr54  1  0.71175983  0.69404539  0.37562023  1
  Zr  Zr55  1  0.92844629  0.30454768  0.36673571  1
  Zr  Zr56  1  0.21098447  0.19554991  0.26535228  1
  Zr  Zr57  1  0.59865283  0.61387169  -0.01452523  1
  Zr  Zr58  1  0.61123764  0.59068966  0.49556623  1
  Zr  Zr59  1  0.49677480  0.30508118  0.12574198  1
  Zr  Zr60  1  0.60428319  0.20364155  0.49417258  1
  Zr  Zr61  1  0.70548381  0.09475943  0.36827731  1
  Zr  Zr62  1  0.09720451  0.09917645  0.12724178  1
  Zr  Zr63  1  0.80311626  0.58385725  0.77238369  1
  Zr  Zr64  1  0.37990736  0.80136248  0.25884160  1
  Zr  Zr65  1  0.59914072  -0.01653736  0.23551545  1
  Zr  Zr66  1  0.52548964  0.49518173  0.63609502  1
  Zr  Zr67  1  0.79334343  0.00148014  0.01459851  1
  Zr  Zr68  1  0.39392685  0.40634780  -0.00794529  1
  Zr  Zr69  1  0.08368447  0.89313394  0.87455126  1
  Zr  Zr70  1  0.19293029  0.39829546  0.26019254  1
  Zr  Zr71  1  0.11603408  0.30072689  0.11994139  1
  Zr  Zr72  1  0.39542340  0.58526275  0.50550219  1
  Zr  Zr73  1  -0.00368451  0.80731601  0.01705066  1
  Zr  Zr74  1  0.59801029  0.20583474  0.75587617  1
  Zr  Zr75  1  0.19310137  0.19071362  0.76660604  1
  Zr  Zr76  1  0.89204729  0.68748444  0.62976490  1
  Zr  Zr77  1  0.48507251  0.90385246  0.38383492  1
  Zr  Zr78  1  0.10021521  0.09908942  0.61894966  1
  Zr  Zr79  1  0.28783086  0.90167263  0.11490147  1
  Ta  Ta80  1  0.59818649  0.00233218  0.01542533  1
  Ta  Ta81  1  0.61200095  0.40778279  0.23906106  1
  Ta  Ta82  1  0.18066396  0.79115404  0.75276430  1
  Ta  Ta83  1  -0.01278619  0.80461596  0.49961942  1
  Ta  Ta84  1  0.79415767  0.59633589  -0.01894637  1
  Ta  Ta85  1  0.19500880  -0.00993366  0.49843209  1
  Ta  Ta86  1  0.51024285  0.09566066  0.88325295  1
  Ta  Ta87  1  0.89754832  0.09657739  0.38389321  1
  Ta  Ta88  1  0.89005145  0.31459767  0.62726066  1
  Ta  Ta89  1  0.89541948  0.52500449  0.37969985  1
  Ta  Ta90  1  0.61794236  0.20211520  0.23238744  1
  Ta  Ta91  1  0.08866375  0.30803959  0.86690411  1
  Ta  Ta92  1  -0.01685499  0.01394645  0.24691190  1
  Ta  Ta93  1  0.79835192  -0.00906563  0.50403051  1
  Ta  Ta94  1  0.11012829  0.51780228  0.63387005  1
  Ta  Ta95  1  0.59820071  -0.00348169  0.49634242  1
  Ta  Ta96  1  0.90705614  0.70699228  0.87868600  1
  Ta  Ta97  1  0.39793387  0.19881750  -0.01644465  1
  Ta  Ta98  1  0.78387156  0.80217855  0.23566913  1
  Ta  Ta99  1  0.50915626  0.30379956  0.88186935  1
  Ta  Ta100  1  0.79823685  0.79900728  0.49953200  1
  Ta  Ta101  1  0.73387701  0.49755727  0.62934445  1
  Ta  Ta102  1  0.80283058  0.20729691  0.49712989  1
  Ta  Ta103  1  0.51363147  0.90000267  0.61711045  1
  Ta  Ta104  1  0.82088766  0.18651045  0.23927850  1
  Ta  Ta105  1  0.39790018  0.40469567  0.24905301  1
  Ta  Ta106  1  0.29484782  0.89083646  0.88273431  1
  Ta  Ta107  1  0.39376652  0.00449871  -0.00746262  1
  Ta  Ta108  1  0.71890788  0.30969842  0.12657209  1
  Ta  Ta109  1  -0.01025186  0.40951301  0.74989263  1
  Ta  Ta110  1  0.29949698  0.10385010  0.12168744  1
  Ta  Ta111  1  0.69364716  0.89169732  0.37586627  1
  Ta  Ta112  1  0.88781842  0.68674742  0.11618628  1
  Ta  Ta113  1  0.20246166  -0.01049148  0.75920005  1
  Ta  Ta114  1  0.49767177  0.09105595  0.62508931  1
  Ta  Ta115  1  0.19277807  0.79805679  -0.00248663  1
  Ta  Ta116  1  0.00556223  0.60035329  -0.01254608  1
  Ta  Ta117  1  0.69762146  0.09614355  0.87825034  1
  Ta  Ta118  1  0.19080019  0.00222039  -0.01209458  1
  Ta  Ta119  1  0.80475506  0.20065297  0.00831392  1
  Ti  Ti120  1  0.19286542  0.60142929  0.49342028  1
  Ti  Ti121  1  0.90519821  0.48554487  0.88918536  1
  Ti  Ti122  1  0.70000944  0.31042959  0.63014104  1
  Ti  Ti123  1  0.49353825  0.50695273  0.87621197  1
  Ti  Ti124  1  -0.00614071  0.20517672  0.75205641  1
  Ti  Ti125  1  0.30133355  0.29889555  0.63478105  1
  Ti  Ti126  1  0.71036875  0.30536267  0.88459633  1
  Ti  Ti127  1  -0.01039558  0.60407747  0.50433230  1
  Ti  Ti128  1  0.70130013  0.49528449  0.36605543  1
  Ti  Ti129  1  0.20316473  0.59179456  -0.00196774  1
  Ti  Ti130  1  0.79624884  -0.00178011  0.23826301  1
  Ti  Ti131  1  0.29312019  0.31694961  0.86681397  1
  Ti  Ti132  1  0.48011423  0.90049081  0.12268842  1
  Ti  Ti133  1  0.28816266  0.88067258  0.39480472  1
  Ti  Ti134  1  0.88455935  0.90093995  0.36986223  1
  Ti  Ti135  1  0.00761525  0.19566333  -0.01130051  1
  Ti  Ti136  1  0.18846904  0.79918409  0.24895618  1
  Ti  Ti137  1  0.89962560  0.30370563  0.88424515  1
  Ti  Ti138  1  0.31361175  0.30055673  0.37199738  1
  Ti  Ti139  1  0.80271885  0.60792735  0.24546193  1
  Ti  Ti140  1  0.71413590  0.29517554  0.35755071  1
  Ti  Ti141  1  0.89670699  0.88671664  0.62844671  1
  Ti  Ti142  1  0.68917010  0.90559046  0.87223923  1
  Ti  Ti143  1  0.00315946  0.41023008  0.51369201  1
  Ti  Ti144  1  0.31245538  0.50484052  0.37332144  1
  Ti  Ti145  1  -0.00016195  0.00441667  0.00699049  1
  Ti  Ti146  1  -0.00826415  -0.00635680  0.50994658  1
  Ti  Ti147  1  0.09268441  0.49035970  0.11541050  1
  Ti  Ti148  1  0.62272024  0.41043077  0.76576764  1
  Ti  Ti149  1  -0.00378239  0.21459336  0.50525537  1
  Ti  Ti150  1  0.30762837  0.29070184  0.12507686  1
  Ti  Ti151  1  0.50579019  0.28969301  0.62925988  1
  Ti  Ti152  1  0.19562708  0.39932178  -0.00754366  1
  Ti  Ti153  1  0.78784120  0.79121916  0.75297629  1
  Ti  Ti154  1  0.89873347  0.90778765  0.12947994  1
  Ti  Ti155  1  0.31106544  0.07643862  0.38075367  1
  Ti  Ti156  1  0.60725019  0.60500786  0.25213492  1
  Ti  Ti157  1  0.09018989  0.71640077  0.61771713  1
  Ti  Ti158  1  0.70682118  0.51651065  0.12248561  1
  Ti  Ti159  1  0.50394019  0.49984177  0.36053507  1
  Mo  Mo160  1  0.49437527  0.70725512  0.87661092  1
  Mo  Mo161  1  0.00625491  0.19721531  0.25478564  1
  Mo  Mo162  1  0.10127753  0.70314500  0.88451630  1
  Mo  Mo163  1  0.10783493  0.30396382  0.38876734  1
  Mo  Mo164  1  0.69911601  0.89422607  0.61402028  1
  Mo  Mo165  1  0.38252966  0.00166385  0.24517988  1
  Mo  Mo166  1  0.39744125  0.20310161  0.24973101  1
  Mo  Mo167  1  0.09436559  0.09613804  0.87282839  1
  Mo  Mo168  1  0.59724488  -0.00225926  0.75038796  1
  Mo  Mo169  1  0.89869330  0.71389723  0.37542121  1
  Mo  Mo170  1  0.39286945  0.79580911  0.49720548  1
  Mo  Mo171  1  -0.01044386  0.80171556  0.74559287  1
  Mo  Mo172  1  0.30469394  0.49477524  0.87772505  1
  Mo  Mo173  1  0.90317625  0.10048126  0.12040547  1
  Mo  Mo174  1  0.39923155  0.79994558  -0.00396958  1
  Mo  Mo175  1  0.80133484  0.39289463  0.00007717  1
  Mo  Mo176  1  0.80819785  0.59763005  0.50099757  1
  Mo  Mo177  1  0.29340147  0.48801458  0.62801755  1
  Mo  Mo178  1  0.70305084  0.10527638  0.12916650  1
  Mo  Mo179  1  0.70711394  0.71809468  0.87186886  1
  Mo  Mo180  1  0.80518193  0.39238838  0.75802521  1
  Mo  Mo181  1  0.20279612  0.60876219  0.74554804  1
  Mo  Mo182  1  0.30192547  0.08845378  0.87726684  1
  Mo  Mo183  1  0.40270657  0.60454065  -0.00510218  1
  Mo  Mo184  1  0.20696675  0.40613884  0.74251860  1
  Mo  Mo185  1  0.70143048  0.49575344  0.87852696  1
  Mo  Mo186  1  0.69892614  0.68771725  0.13125245  1
  Mo  Mo187  1  0.00554630  0.40490897  0.25022089  1
  Mo  Mo188  1  0.01216160  0.39794243  -0.01563316  1
  Mo  Mo189  1  0.60399310  0.81952629  0.75011607  1
  Mo  Mo190  1  0.40254077  0.59363502  0.25951971  1
  Mo  Mo191  1  0.60354223  0.80612017  0.49599544  1
  Mo  Mo192  1  0.29462981  0.69803658  0.39310624  1
  Mo  Mo193  1  0.91580282  0.49601588  0.62707584  1
  Mo  Mo194  1  0.59933854  0.79643597  0.25041031  1
  Mo  Mo195  1  0.69027080  0.89481739  0.12971947  1
  Mo  Mo196  1  0.09755582  0.89223991  0.62049562  1
  Mo  Mo197  1  0.09365360  0.90375607  0.12806828  1
  Mo  Mo198  1  0.18273020  0.79694384  0.50116558  1
  Mo  Mo199  1  0.39758666  -0.00155735  0.50458851  1
