# generated using pymatgen
data_HfZrTaTiMo
_symmetry_space_group_name_H-M   'P 1'
_cell_length_a   15.21517729
_cell_length_b   15.20369191
_cell_length_c   16.87324727
_cell_angle_alpha   90.00201285
_cell_angle_beta   90.01555096
_cell_angle_gamma   90.02530004
_symmetry_Int_Tables_number   1
_chemical_formula_structural   HfZrTaTiMo
_chemical_formula_sum   'Hf40 Zr40 Ta40 Ti40 Mo40'
_cell_volume   3903.23491417
_cell_formula_units_Z   40
loop_
 _symmetry_equiv_pos_site_id
 _symmetry_equiv_pos_as_xyz
  1  'x, y, z'
loop_
 _atom_site_type_symbol
 _atom_site_label
 _atom_site_symmetry_multiplicity
 _atom_site_fract_x
 _atom_site_fract_y
 _atom_site_fract_z
 _atom_site_occupancy
  Hf  Hf0  1  0.08392211  0.10164568  0.37728353  1
  Hf  Hf1  1  0.58230056  -0.00436401  0.00696057  1
  Hf  Hf2  1  0.50648902  0.29964924  0.63399913  1
  Hf  Hf3  1  0.30176858  0.08474640  0.86379165  1
  Hf  Hf4  1  0.39495664  0.40150086  0.51483181  1
  Hf  Hf5  1  0.09626581  0.70044462  0.62624591  1
  Hf  Hf6  1  0.59775997  0.40501690  0.49227670  1
  Hf  Hf7  1  0.68290252  0.50880065  0.36216278  1
  Hf  Hf8  1  0.10870714  0.91479860  0.63600205  1
  Hf  Hf9  1  0.40238865  0.19573399  0.51053569  1
  Hf  Hf10  1  0.41633695  0.81338479  0.01778444  1
  Hf  Hf11  1  0.09707514  0.88949841  0.10667581  1
  Hf  Hf12  1  0.30509679  0.90592594  0.13635036  1
  Hf  Hf13  1  0.18868054  0.20600546  0.50914661  1
  Hf  Hf14  1  0.69330182  0.89177170  0.62427015  1
  Hf  Hf15  1  0.88899457  0.10348134  0.38243607  1
  Hf  Hf16  1  0.69780889  0.71339464  0.36376720  1
  Hf  Hf17  1  0.30804515  0.90282885  0.37902076  1
  Hf  Hf18  1  0.18340525  0.80100799  0.25675977  1
  Hf  Hf19  1  0.81227192  0.81848456  0.25160775  1
  Hf  Hf20  1  0.68821357  0.10204345  0.87892630  1
  Hf  Hf21  1  0.39752661  0.21930789  0.24715525  1
  Hf  Hf22  1  0.11012567  0.69161184  0.12181276  1
  Hf  Hf23  1  0.20694821  0.40950777  0.25046408  1
  Hf  Hf24  1  0.38680423  0.61580028  -0.00054480  1
  Hf  Hf25  1  0.40174376  0.18582689  0.00231638  1
  Hf  Hf26  1  0.18428258  0.21290397  0.24786813  1
  Hf  Hf27  1  0.07945014  0.29185818  0.63896812  1
  Hf  Hf28  1  0.89250498  0.51962805  0.63368571  1
  Hf  Hf29  1  0.61663480  0.80361792  0.00388824  1
  Hf  Hf30  1  0.91458991  0.70553945  0.12539412  1
  Hf  Hf31  1  0.19742690  0.00475196  0.25575611  1
  Hf  Hf32  1  0.10314272  0.70529793  0.38835390  1
  Hf  Hf33  1  0.78392469  0.41476194  0.75854547  1
  Hf  Hf34  1  0.69977356  0.50501153  0.12638286  1
  Hf  Hf35  1  0.79484190  0.00264196  0.74842579  1
  Hf  Hf36  1  -0.02286950  0.39371075  0.75428429  1
  Hf  Hf37  1  0.48721175  0.49167413  0.12353811  1
  Hf  Hf38  1  0.80119020  -0.00219280  0.51376136  1
  Hf  Hf39  1  0.71455291  0.70254598  0.87065225  1
  Zr  Zr40  1  0.29720205  0.10739813  0.38008655  1
  Zr  Zr41  1  0.49521476  0.09121371  0.36632922  1
  Zr  Zr42  1  0.09279683  0.50050755  0.85989319  1
  Zr  Zr43  1  0.69589539  0.10314384  0.38812485  1
  Zr  Zr44  1  0.29747028  0.50590377  0.85944668  1
  Zr  Zr45  1  0.29471691  0.07978460  0.62072240  1
  Zr  Zr46  1  0.28796082  0.29276565  0.85317623  1
  Zr  Zr47  1  -0.00360240  -0.01603368  0.24499838  1
  Zr  Zr48  1  -0.01498679  0.19922196  0.00002445  1
  Zr  Zr49  1  0.89829329  0.49909108  0.11815096  1
  Zr  Zr50  1  0.40247490  0.61213500  0.74493117  1
  Zr  Zr51  1  0.00348292  0.59711917  0.49660279  1
  Zr  Zr52  1  0.43065540  0.80720973  0.50227571  1
  Zr  Zr53  1  0.70424474  0.30423051  0.62347235  1
  Zr  Zr54  1  0.70730173  0.70735342  0.13418644  1
  Zr  Zr55  1  0.59297963  0.60522767  0.00045833  1
  Zr  Zr56  1  0.80511410  0.39622031  0.25918366  1
  Zr  Zr57  1  0.39357760  0.39432366  -0.01003335  1
  Zr  Zr58  1  0.60994955  0.59178730  0.75682538  1
  Zr  Zr59  1  0.19599381  0.39697947  -0.00600141  1
  Zr  Zr60  1  0.59347463  0.39160882  -0.00178529  1
  Zr  Zr61  1  0.49358997  0.71826946  0.87072486  1
  Zr  Zr62  1  0.39670800  0.77850321  0.24472627  1
  Zr  Zr63  1  0.50436653  0.28217976  0.86402727  1
  Zr  Zr64  1  0.61272048  0.19478909  0.24399317  1
  Zr  Zr65  1  0.09110883  0.49665843  0.11907969  1
  Zr  Zr66  1  0.30314849  0.68935540  0.39981098  1
  Zr  Zr67  1  0.50541931  0.68035645  0.37074878  1
  Zr  Zr68  1  0.10403145  0.09620544  0.88638022  1
  Zr  Zr69  1  0.40395850  0.18449960  0.73647722  1
  Zr  Zr70  1  0.90759602  0.90518867  0.38389934  1
  Zr  Zr71  1  0.00870317  0.59016233  0.26564151  1
  Zr  Zr72  1  0.90899480  0.11084077  0.63122313  1
  Zr  Zr73  1  0.89258096  0.90809251  0.10748216  1
  Zr  Zr74  1  -0.00802360  0.39646562  0.49768259  1
  Zr  Zr75  1  0.71132770  0.29687315  0.11377454  1
  Zr  Zr76  1  0.57710258  0.39358613  0.25082669  1
  Zr  Zr77  1  0.80228578  0.59924440  0.48719739  1
  Zr  Zr78  1  0.11912943  0.89714296  0.87045880  1
  Zr  Zr79  1  0.09145163  0.09020272  0.11275509  1
  Ta  Ta80  1  0.19191404  0.60569472  -0.01163499  1
  Ta  Ta81  1  0.28971559  0.51463099  0.12161823  1
  Ta  Ta82  1  0.01001205  0.38406548  0.26325688  1
  Ta  Ta83  1  0.20365617  0.20195624  0.00465061  1
  Ta  Ta84  1  0.60054579  0.81312332  0.75268275  1
  Ta  Ta85  1  0.22490664  -0.00407088  0.00249228  1
  Ta  Ta86  1  -0.00104238  0.81233506  0.50906333  1
  Ta  Ta87  1  0.00514030  0.00585596  0.76066524  1
  Ta  Ta88  1  0.89175894  0.51556294  0.88007240  1
  Ta  Ta89  1  0.57931241  -0.01143765  0.50403538  1
  Ta  Ta90  1  0.09046242  0.29168044  0.86173235  1
  Ta  Ta91  1  0.89034974  0.10638404  0.86926515  1
  Ta  Ta92  1  0.30639339  0.69459756  0.60749129  1
  Ta  Ta93  1  0.31237165  0.50039944  0.38830568  1
  Ta  Ta94  1  0.71057524  0.29563433  0.88592735  1
  Ta  Ta95  1  0.69677287  0.90884658  0.37557830  1
  Ta  Ta96  1  0.90558621  0.70626382  0.36953575  1
  Ta  Ta97  1  0.69316593  0.50439981  0.62150218  1
  Ta  Ta98  1  0.51230926  0.89536992  0.35553810  1
  Ta  Ta99  1  0.29308417  0.49929410  0.63304593  1
  Ta  Ta100  1  0.80632418  0.21470868  0.75111512  1
  Ta  Ta101  1  0.49379666  0.08855845  0.13975833  1
  Ta  Ta102  1  0.22123814  0.79801532  0.74355421  1
  Ta  Ta103  1  0.09320108  0.30132849  0.12013891  1
  Ta  Ta104  1  -0.01953955  0.19423653  0.23856966  1
  Ta  Ta105  1  0.21975435  0.79078463  -0.00413052  1
  Ta  Ta106  1  -0.00989320  0.39914669  -0.01458098  1
  Ta  Ta107  1  0.32838229  0.89274759  0.87259969  1
  Ta  Ta108  1  0.28826410  0.31247835  0.38237798  1
  Ta  Ta109  1  0.19278872  0.40332867  0.51193924  1
  Ta  Ta110  1  0.00156374  0.78728409  -0.01833260  1
  Ta  Ta111  1  0.19890517  0.60693047  0.74143749  1
  Ta  Ta112  1  0.59927320  0.60804871  0.50599444  1
  Ta  Ta113  1  0.30064256  0.10509075  0.13088590  1
  Ta  Ta114  1  0.79470371  0.02333576  0.24511780  1
  Ta  Ta115  1  0.17745562  0.17380369  0.73924342  1
  Ta  Ta116  1  0.10561082  0.69827285  0.86298143  1
  Ta  Ta117  1  0.52283736  0.70907707  0.62532551  1
  Ta  Ta118  1  0.71776351  0.69369292  0.63226409  1
  Ta  Ta119  1  0.90215132  0.29268141  0.37449557  1
  Ti  Ti120  1  -0.01253961  -0.01172722  -0.02102383  1
  Ti  Ti121  1  0.90790819  0.89911639  0.62986784  1
  Ti  Ti122  1  0.69978533  0.90210675  0.86959522  1
  Ti  Ti123  1  0.48591536  0.30847320  0.37995109  1
  Ti  Ti124  1  0.49555815  0.07604350  0.87085750  1
  Ti  Ti125  1  0.81080775  0.79949378  0.74854882  1
  Ti  Ti126  1  0.19784793  0.80417534  0.50522702  1
  Ti  Ti127  1  0.80301802  0.79466384  0.50251681  1
  Ti  Ti128  1  0.59735169  0.39781653  0.76048617  1
  Ti  Ti129  1  0.21404805  0.60454473  0.25768855  1
  Ti  Ti130  1  0.51031360  0.89749161  0.15262794  1
  Ti  Ti131  1  0.80690247  0.60073250  0.25630589  1
  Ti  Ti132  1  0.40613139  0.80287037  0.73402425  1
  Ti  Ti133  1  0.59510614  0.19435176  0.01083153  1
  Ti  Ti134  1  0.18594390  -0.00446777  0.49256825  1
  Ti  Ti135  1  0.42016458  -0.01548139  0.73685452  1
  Ti  Ti136  1  0.40215123  0.40335914  0.74663328  1
  Ti  Ti137  1  0.30420143  0.31121490  0.12280564  1
  Ti  Ti138  1  0.11688753  0.49172564  0.38386262  1
  Ti  Ti139  1  0.40143199  0.58032216  0.24888749  1
  Ti  Ti140  1  0.70389739  0.50074021  0.89325509  1
  Ti  Ti141  1  0.28700480  0.30247738  0.64207356  1
  Ti  Ti142  1  0.59647761  0.20222753  0.50051186  1
  Ti  Ti143  1  0.89920398  0.30005144  0.12181854  1
  Ti  Ti144  1  0.70225141  0.29480363  0.37839630  1
  Ti  Ti145  1  0.68712207  0.10131409  0.61963942  1
  Ti  Ti146  1  0.90787576  0.70134970  0.86713981  1
  Ti  Ti147  1  0.79489619  -0.00150679  -0.01172641  1
  Ti  Ti148  1  0.69938204  0.90864555  0.13068032  1
  Ti  Ti149  1  0.30972510  0.89473654  0.61340546  1
  Ti  Ti150  1  0.70805490  0.09634440  0.11505892  1
  Ti  Ti151  1  0.49889925  0.49914976  0.87480426  1
  Ti  Ti152  1  0.81094640  0.61821719  0.00014466  1
  Ti  Ti153  1  0.80048911  0.40586211  0.48961329  1
  Ti  Ti154  1  0.09851706  0.49791333  0.63909270  1
  Ti  Ti155  1  0.00199867  0.80225422  0.75329389  1
  Ti  Ti156  1  0.80295729  0.21482091  0.50915435  1
  Ti  Ti157  1  0.60849320  0.18805154  0.74643322  1
  Ti  Ti158  1  -0.00464450  0.19907281  0.50320305  1
  Ti  Ti159  1  0.50090428  0.50667412  0.62905969  1
  Mo  Mo160  1  0.60051794  0.00519061  0.74614963  1
  Mo  Mo161  1  0.80459991  0.40325021  -0.00737156  1
  Mo  Mo162  1  0.81035753  0.81002440  -0.01423052  1
  Mo  Mo163  1  0.50230133  0.89895345  0.62594912  1
  Mo  Mo164  1  0.10225448  0.89859870  0.38828942  1
  Mo  Mo165  1  0.40083948  0.00281119  0.25151545  1
  Mo  Mo166  1  0.80512127  0.60611717  0.75421780  1
  Mo  Mo167  1  0.00017597  0.60526851  -0.01148785  1
  Mo  Mo168  1  0.90113569  0.49606643  0.36771073  1
  Mo  Mo169  1  0.20242661  0.58624680  0.51483181  1
  Mo  Mo170  1  0.40163059  -0.00060400  0.00708948  1
  Mo  Mo171  1  -0.01031655  0.19258636  0.76112401  1
  Mo  Mo172  1  0.79372261  0.19372544  -0.00498801  1
  Mo  Mo173  1  0.29709246  0.69500465  0.12773606  1
  Mo  Mo174  1  0.89716400  0.89789029  0.87085856  1
  Mo  Mo175  1  0.59088386  0.60163837  0.23803461  1
  Mo  Mo176  1  0.48909078  0.49710236  0.38020981  1
  Mo  Mo177  1  0.80501239  0.20421353  0.25053992  1
  Mo  Mo178  1  0.29342488  0.71323262  0.86898225  1
  Mo  Mo179  1  0.88220895  0.10531076  0.11681899  1
  Mo  Mo180  1  0.89262673  0.30560792  0.87975626  1
  Mo  Mo181  1  0.09803906  0.29799419  0.37820574  1
  Mo  Mo182  1  0.89919209  0.71749676  0.62884655  1
  Mo  Mo183  1  0.41081649  0.59274260  0.51998681  1
  Mo  Mo184  1  0.88770159  0.30858355  0.62154121  1
  Mo  Mo185  1  0.62088540  0.79963405  0.49746390  1
  Mo  Mo186  1  0.09441596  0.09234396  0.62286763  1
  Mo  Mo187  1  0.19290409  0.39354130  0.73979582  1
  Mo  Mo188  1  0.00222061  0.79519734  0.25224388  1
  Mo  Mo189  1  0.49184180  0.28558244  0.12239033  1
  Mo  Mo190  1  0.00365530  0.00227727  0.50914965  1
  Mo  Mo191  1  0.21749370  -0.01256975  0.74984552  1
  Mo  Mo192  1  0.50249342  0.69245088  0.13651480  1
  Mo  Mo193  1  0.50862225  0.90561368  0.87127187  1
  Mo  Mo194  1  0.38473899  0.40242435  0.25302647  1
  Mo  Mo195  1  -0.00339047  0.61026260  0.74723986  1
  Mo  Mo196  1  0.51203920  0.09442719  0.62070705  1
  Mo  Mo197  1  0.60692861  0.80076797  0.24459340  1
  Mo  Mo198  1  0.61065289  -0.00359448  0.24431160  1
  Mo  Mo199  1  0.39796894  -0.00298797  0.49899295  1
