# generated using pymatgen
data_HfZrTaTiMo
_symmetry_space_group_name_H-M   'P 1'
_cell_length_a   15.20904714
_cell_length_b   15.19361924
_cell_length_c   16.85575488
_cell_angle_alpha   89.96435969
_cell_angle_beta   89.96941990
_cell_angle_gamma   89.95124843
_symmetry_Int_Tables_number   1
_chemical_formula_structural   HfZrTaTiMo
_chemical_formula_sum   'Hf40 Zr40 Ta40 Ti40 Mo40'
_cell_volume   3895.03306704
_cell_formula_units_Z   40
loop_
 _symmetry_equiv_pos_site_id
 _symmetry_equiv_pos_as_xyz
  1  'x, y, z'
loop_
 _atom_site_type_symbol
 _atom_site_label
 _atom_site_symmetry_multiplicity
 _atom_site_fract_x
 _atom_site_fract_y
 _atom_site_fract_z
 _atom_site_occupancy
  Hf  Hf0  1  0.28505035  0.28277828  0.11475553  1
  Hf  Hf1  1  0.11453550  0.71921285  0.87522391  1
  Hf  Hf2  1  0.40226019  0.00401325  0.26234261  1
  Hf  Hf3  1  0.29600594  0.88460698  0.87660145  1
  Hf  Hf4  1  0.49135731  0.28346215  0.62132327  1
  Hf  Hf5  1  0.20659945  0.80527705  0.01818052  1
  Hf  Hf6  1  0.39875623  0.18933489  -0.00064634  1
  Hf  Hf7  1  0.72032924  0.89042246  0.12938309  1
  Hf  Hf8  1  0.08099332  0.51718846  0.87784890  1
  Hf  Hf9  1  0.28707447  0.91729803  0.61061900  1
  Hf  Hf10  1  0.91727579  0.10416539  0.12445114  1
  Hf  Hf11  1  0.61940023  0.80836248  0.51671078  1
  Hf  Hf12  1  0.69531003  0.50067838  0.12496664  1
  Hf  Hf13  1  0.01096781  0.80281045  0.73908282  1
  Hf  Hf14  1  0.69101457  0.28224866  0.37904938  1
  Hf  Hf15  1  0.52067089  0.70486416  0.39140682  1
  Hf  Hf16  1  0.00831395  0.20023729  0.49418521  1
  Hf  Hf17  1  0.91685647  0.50758922  0.13909475  1
  Hf  Hf18  1  -0.01452576  0.41084041  0.75921150  1
  Hf  Hf19  1  0.89301295  0.29999384  0.38292552  1
  Hf  Hf20  1  0.50583588  0.11274321  0.13161953  1
  Hf  Hf21  1  0.37671368  0.41194586  0.25953610  1
  Hf  Hf22  1  0.59024010  0.40053712  0.73785789  1
  Hf  Hf23  1  0.19109931  0.61898064  0.73624012  1
  Hf  Hf24  1  0.30196134  0.30325614  0.88840720  1
  Hf  Hf25  1  0.29559908  0.51751985  0.88284070  1
  Hf  Hf26  1  0.30776264  0.67590029  0.37069868  1
  Hf  Hf27  1  0.39652123  -0.01489376  0.00285119  1
  Hf  Hf28  1  0.79411834  0.60361666  0.26246811  1
  Hf  Hf29  1  0.30015173  0.48314140  0.10488918  1
  Hf  Hf30  1  0.58307241  0.61126987  0.25158221  1
  Hf  Hf31  1  0.89628189  0.50290521  0.60958286  1
  Hf  Hf32  1  0.39885713  0.79835015  0.50180885  1
  Hf  Hf33  1  0.30517793  0.90031754  0.14035429  1
  Hf  Hf34  1  0.58986775  0.40164433  0.50600350  1
  Hf  Hf35  1  0.40633075  0.19351497  0.48015641  1
  Hf  Hf36  1  0.71276857  0.49444446  0.88226159  1
  Hf  Hf37  1  0.41148986  0.78874390  0.25978331  1
  Hf  Hf38  1  -0.00773799  0.81363002  0.25465163  1
  Hf  Hf39  1  0.18892016  0.60758762  0.01482766  1
  Zr  Zr40  1  0.38343497  0.39825365  0.49406499  1
  Zr  Zr41  1  0.28991778  0.49178772  0.63250272  1
  Zr  Zr42  1  0.10048895  0.30958598  0.37599990  1
  Zr  Zr43  1  0.18871176  0.39665856  0.76514477  1
  Zr  Zr44  1  0.61726903  0.00592187  0.24479358  1
  Zr  Zr45  1  0.90584468  0.09788419  0.62378628  1
  Zr  Zr46  1  -0.00027735  0.81121234  0.00823424  1
  Zr  Zr47  1  0.60974794  0.59833168  0.74783605  1
  Zr  Zr48  1  0.39512537  0.20603093  0.25995973  1
  Zr  Zr49  1  0.89672091  0.29916135  0.61312516  1
  Zr  Zr50  1  0.90920804  0.68518627  0.86758002  1
  Zr  Zr51  1  0.00597584  0.00476585  0.48974643  1
  Zr  Zr52  1  0.51045425  0.09690933  0.88029752  1
  Zr  Zr53  1  0.00182830  0.79716986  0.49305373  1
  Zr  Zr54  1  0.70674733  0.90144136  0.86918035  1
  Zr  Zr55  1  0.38313325  0.01350053  0.75724522  1
  Zr  Zr56  1  0.59953704  0.60938545  -0.01141477  1
  Zr  Zr57  1  0.49213723  0.49881469  0.88631371  1
  Zr  Zr58  1  0.58960282  0.40253009  0.24774774  1
  Zr  Zr59  1  0.80202383  0.38453338  0.24535750  1
  Zr  Zr60  1  0.80347932  0.38843364  0.01937748  1
  Zr  Zr61  1  0.68964956  0.70211576  0.12505839  1
  Zr  Zr62  1  0.39121190  0.79486532  0.73318615  1
  Zr  Zr63  1  0.50643023  0.92633249  0.63113350  1
  Zr  Zr64  1  0.78741525  0.39086608  0.74266976  1
  Zr  Zr65  1  0.20324838  0.17727277  0.77028086  1
  Zr  Zr66  1  0.40421871  0.59569157  0.73672439  1
  Zr  Zr67  1  0.60813704  0.19278486  0.74630883  1
  Zr  Zr68  1  0.61253456  0.01102829  0.01413878  1
  Zr  Zr69  1  0.80653303  0.00397565  0.74071686  1
  Zr  Zr70  1  0.71890372  0.10894054  0.87682197  1
  Zr  Zr71  1  0.40150147  0.00167761  0.47719475  1
  Zr  Zr72  1  0.20212992  0.57416420  0.23862879  1
  Zr  Zr73  1  0.88886324  0.90805140  0.37787839  1
  Zr  Zr74  1  0.80678050  0.79478918  0.73638122  1
  Zr  Zr75  1  0.29005822  0.28583046  0.63076378  1
  Zr  Zr76  1  0.59350924  0.80682383  -0.01081189  1
  Zr  Zr77  1  0.09633182  0.30517899  0.62479089  1
  Zr  Zr78  1  0.82660734  -0.00942149  0.00228092  1
  Zr  Zr79  1  0.08126352  0.30470476  0.11479837  1
  Ta  Ta80  1  0.78761499  0.40696752  0.49572960  1
  Ta  Ta81  1  0.80670839  0.78874389  -0.00654265  1
  Ta  Ta82  1  0.91904278  0.10287393  0.87599586  1
  Ta  Ta83  1  0.60889279  0.59319595  0.51269839  1
  Ta  Ta84  1  0.79989279  0.60530512  0.48859711  1
  Ta  Ta85  1  0.18732977  0.17618680  -0.01242661  1
  Ta  Ta86  1  -0.00252660  0.20017255  0.75152411  1
  Ta  Ta87  1  0.12227670  0.09602140  0.62261778  1
  Ta  Ta88  1  0.09462712  0.90720902  0.61507420  1
  Ta  Ta89  1  0.89154905  0.71105764  0.13607040  1
  Ta  Ta90  1  0.18584556  0.40762340  0.50040914  1
  Ta  Ta91  1  0.69349276  0.29664089  0.88375656  1
  Ta  Ta92  1  0.10668719  0.50889425  0.37562561  1
  Ta  Ta93  1  0.79071999  -0.01748233  0.51503746  1
  Ta  Ta94  1  0.48860932  0.51080264  0.11196197  1
  Ta  Ta95  1  0.09022480  0.69831540  0.14859843  1
  Ta  Ta96  1  -0.00672092  0.20833486  0.25381822  1
  Ta  Ta97  1  0.20108100  0.60828610  0.50558080  1
  Ta  Ta98  1  0.88501658  0.29185994  0.87558196  1
  Ta  Ta99  1  0.48670843  0.31342037  0.11957052  1
  Ta  Ta100  1  0.90567957  0.49715357  0.37591602  1
  Ta  Ta101  1  0.10069456  0.91066635  0.13779362  1
  Ta  Ta102  1  0.40442235  0.59514707  0.51684689  1
  Ta  Ta103  1  0.10975409  0.70542753  0.35800559  1
  Ta  Ta104  1  0.69958441  0.28658440  0.60965332  1
  Ta  Ta105  1  0.60023519  0.80008942  0.74422016  1
  Ta  Ta106  1  0.71566339  0.08221964  0.37464565  1
  Ta  Ta107  1  0.50012284  0.89729727  0.86256462  1
  Ta  Ta108  1  0.11808925  0.10547274  0.13125027  1
  Ta  Ta109  1  0.50938853  0.69955172  0.61951115  1
  Ta  Ta110  1  0.70036914  0.88215736  0.36967241  1
  Ta  Ta111  1  0.81110576  0.59942875  0.00387000  1
  Ta  Ta112  1  0.19399002  0.20563008  0.25638226  1
  Ta  Ta113  1  0.48548186  0.51247490  0.38024039  1
  Ta  Ta114  1  0.50013100  0.30844477  0.37365308  1
  Ta  Ta115  1  0.50835245  0.89109924  0.13521009  1
  Ta  Ta116  1  0.00581030  0.60369638  0.48455270  1
  Ta  Ta117  1  0.59610110  0.39317832  0.00796531  1
  Ta  Ta118  1  0.50472965  0.30162949  0.88381987  1
  Ta  Ta119  1  0.60430765  0.01091075  0.49252534  1
  Ti  Ti120  1  0.80189179  0.19641246  0.01295639  1
  Ti  Ti121  1  0.10987786  0.90713147  0.36864169  1
  Ti  Ti122  1  0.01512855  0.40945594  0.24941389  1
  Ti  Ti123  1  0.29041033  0.88713538  0.36854150  1
  Ti  Ti124  1  0.70657643  0.69960554  0.86791345  1
  Ti  Ti125  1  0.48753884  0.70449310  0.11664237  1
  Ti  Ti126  1  0.46983428  0.70752313  0.87731866  1
  Ti  Ti127  1  -0.00506607  0.60970187  0.01049634  1
  Ti  Ti128  1  0.10720383  0.92087093  0.87580113  1
  Ti  Ti129  1  0.31351930  0.10335913  0.61517810  1
  Ti  Ti130  1  0.79183658  0.18439494  0.24215019  1
  Ti  Ti131  1  0.02641306  0.01545857  0.00216372  1
  Ti  Ti132  1  0.80684968  0.79445577  0.51474171  1
  Ti  Ti133  1  0.01435195  0.00303517  0.74513168  1
  Ti  Ti134  1  0.78852007  0.17985170  0.49927001  1
  Ti  Ti135  1  0.20162050  0.81054948  0.73302181  1
  Ti  Ti136  1  0.08536269  0.51248850  0.62008857  1
  Ti  Ti137  1  0.40334338  0.20290392  0.76365473  1
  Ti  Ti138  1  0.89795410  0.10359894  0.37166153  1
  Ti  Ti139  1  0.81863042  -0.00824503  0.24132670  1
  Ti  Ti140  1  0.20097839  0.00364444  0.25417225  1
  Ti  Ti141  1  0.51400936  0.90364024  0.37091289  1
  Ti  Ti142  1  0.00850751  0.01512939  0.25651234  1
  Ti  Ti143  1  0.52773660  0.11446525  0.36225329  1
  Ti  Ti144  1  0.91518127  0.90171845  0.86991058  1
  Ti  Ti145  1  0.07776722  0.28639734  0.88687785  1
  Ti  Ti146  1  0.71380454  0.68574087  0.62890917  1
  Ti  Ti147  1  0.30537428  0.69364765  0.13833764  1
  Ti  Ti148  1  0.20365208  0.19640073  0.49091850  1
  Ti  Ti149  1  -0.01308963  0.40799252  -0.00427932  1
  Ti  Ti150  1  0.19643528  0.80146385  0.49657486  1
  Ti  Ti151  1  0.27860391  0.09736744  0.37592165  1
  Ti  Ti152  1  0.68461290  0.27700361  0.12734177  1
  Ti  Ti153  1  0.39726442  0.39509791  0.75315195  1
  Ti  Ti154  1  0.68940618  0.50304846  0.37629526  1
  Ti  Ti155  1  0.89473782  0.70375855  0.36974258  1
  Ti  Ti156  1  0.81585276  0.58620518  0.74826278  1
  Ti  Ti157  1  0.18241086  0.39845753  -0.01040799  1
  Ti  Ti158  1  0.68320582  0.08916825  0.62516581  1
  Ti  Ti159  1  0.91853321  0.69202373  0.62191545  1
  Mo  Mo160  1  0.59952976  -0.00666651  0.75227052  1
  Mo  Mo161  1  0.49994527  0.49709217  0.62426933  1
  Mo  Mo162  1  0.10443954  0.70432455  0.61410355  1
  Mo  Mo163  1  0.29953704  0.70796168  0.60966923  1
  Mo  Mo164  1  0.40029289  0.79422565  0.00651412  1
  Mo  Mo165  1  0.19427130  0.38942815  0.24505125  1
  Mo  Mo166  1  -0.00203227  0.60428337  0.74213338  1
  Mo  Mo167  1  0.29190319  0.30009349  0.37804319  1
  Mo  Mo168  1  0.19079684  -0.01215053  0.74641794  1
  Mo  Mo169  1  0.80696790  0.20302848  0.75004020  1
  Mo  Mo170  1  0.09696646  0.10276131  0.36232015  1
  Mo  Mo171  1  0.29530296  0.70091354  0.87578766  1
  Mo  Mo172  1  0.19825774  0.00273399  0.48588645  1
  Mo  Mo173  1  0.70424592  0.49713234  0.61769543  1
  Mo  Mo174  1  0.20079507  -0.00272054  0.00881742  1
  Mo  Mo175  1  0.60104188  0.80341268  0.25186601  1
  Mo  Mo176  1  0.29068301  0.49888154  0.38463161  1
  Mo  Mo177  1  0.89354147  0.29563105  0.13457155  1
  Mo  Mo178  1  0.29437697  0.09446366  0.13356874  1
  Mo  Mo179  1  0.09464947  0.09348272  0.87319590  1
  Mo  Mo180  1  -0.00306722  0.41330454  0.49516286  1
  Mo  Mo181  1  0.20024751  0.79893624  0.24690309  1
  Mo  Mo182  1  0.60119771  0.19109293  0.50068944  1
  Mo  Mo183  1  0.79767696  0.80057872  0.25242409  1
  Mo  Mo184  1  0.90485257  0.89654703  0.62019474  1
  Mo  Mo185  1  0.60599664  0.20959846  0.00381176  1
  Mo  Mo186  1  0.89544033  0.49510168  0.88255463  1
  Mo  Mo187  1  0.70192941  0.89782859  0.62967736  1
  Mo  Mo188  1  0.38865562  0.61749935  0.00291332  1
  Mo  Mo189  1  0.60460822  0.20684171  0.24968747  1
  Mo  Mo190  1  0.09293742  0.50126203  0.11457954  1
  Mo  Mo191  1  -0.00157806  0.60370802  0.26811884  1
  Mo  Mo192  1  -0.00922808  0.20367716  -0.00282147  1
  Mo  Mo193  1  0.40657455  0.59389029  0.24572689  1
  Mo  Mo194  1  0.39761492  0.39904792  -0.00149836  1
  Mo  Mo195  1  0.91467837  0.89909219  0.12539656  1
  Mo  Mo196  1  0.49577096  0.10390143  0.62292168  1
  Mo  Mo197  1  0.29706864  0.08830009  0.88139873  1
  Mo  Mo198  1  0.71561604  0.10040395  0.12469132  1
  Mo  Mo199  1  0.70689736  0.69812235  0.38441820  1
