# generated using pymatgen
data_HfZrTaTiMo
_symmetry_space_group_name_H-M   'P 1'
_cell_length_a   15.20675976
_cell_length_b   15.21242678
_cell_length_c   16.83920672
_cell_angle_alpha   89.98961895
_cell_angle_beta   89.96673565
_cell_angle_gamma   89.99823425
_symmetry_Int_Tables_number   1
_chemical_formula_structural   HfZrTaTiMo
_chemical_formula_sum   'Hf40 Zr40 Ta40 Ti40 Mo40'
_cell_volume   3895.44192148
_cell_formula_units_Z   40
loop_
 _symmetry_equiv_pos_site_id
 _symmetry_equiv_pos_as_xyz
  1  'x, y, z'
loop_
 _atom_site_type_symbol
 _atom_site_label
 _atom_site_symmetry_multiplicity
 _atom_site_fract_x
 _atom_site_fract_y
 _atom_site_fract_z
 _atom_site_occupancy
  Hf  Hf0  1  0.49982850  0.30181342  0.62468270  1
  Hf  Hf1  1  0.70374907  0.30603913  0.87612080  1
  Hf  Hf2  1  0.40351554  0.39858057  0.23940566  1
  Hf  Hf3  1  0.09904272  0.09973603  0.63145421  1
  Hf  Hf4  1  0.19298418  0.41914397  0.76437032  1
  Hf  Hf5  1  0.29682220  0.71900971  0.12936885  1
  Hf  Hf6  1  0.40364804  0.40610941  0.75884079  1
  Hf  Hf7  1  0.80857462  -0.01410666  0.00834990  1
  Hf  Hf8  1  0.70521263  0.30252134  0.38585080  1
  Hf  Hf9  1  0.39736620  0.00026184  0.76096004  1
  Hf  Hf10  1  0.90766977  0.10746163  0.36990175  1
  Hf  Hf11  1  0.58722554  0.79550088  0.48785317  1
  Hf  Hf12  1  0.29537504  0.30325505  0.62741882  1
  Hf  Hf13  1  0.09808809  0.51456840  0.38410392  1
  Hf  Hf14  1  -0.00531200  0.40448804  0.24604431  1
  Hf  Hf15  1  0.41097948  0.61497543  0.25107297  1
  Hf  Hf16  1  0.09619697  0.89787584  0.63189679  1
  Hf  Hf17  1  0.09302043  0.71781132  0.38151532  1
  Hf  Hf18  1  0.51381980  0.49645044  0.37129978  1
  Hf  Hf19  1  0.39815169  0.19835632  0.75938786  1
  Hf  Hf20  1  0.80177830  0.39163700  0.24016083  1
  Hf  Hf21  1  0.03592310  -0.00417280  0.26330429  1
  Hf  Hf22  1  0.39909241  0.17251877  0.25214027  1
  Hf  Hf23  1  0.39683535  0.60212847  0.49494496  1
  Hf  Hf24  1  0.07697719  0.30667061  0.64113521  1
  Hf  Hf25  1  0.00790300  0.80701315  -0.01060938  1
  Hf  Hf26  1  0.58629358  0.60331040  0.74476142  1
  Hf  Hf27  1  0.79517855  0.77967513  0.24678327  1
  Hf  Hf28  1  0.09526974  0.71027481  0.12733526  1
  Hf  Hf29  1  -0.00139293  0.21117011  0.24145028  1
  Hf  Hf30  1  0.59840565  0.59332198  0.51239415  1
  Hf  Hf31  1  0.38229094  -0.00748099  -0.01433471  1
  Hf  Hf32  1  0.19139234  0.61957359  -0.01607210  1
  Hf  Hf33  1  0.50952931  0.88735488  0.87968928  1
  Hf  Hf34  1  0.28638131  0.28513950  0.12687996  1
  Hf  Hf35  1  0.51105487  0.29173063  0.36862929  1
  Hf  Hf36  1  0.20307184  0.19113497  -0.01642055  1
  Hf  Hf37  1  0.91993864  0.88984462  0.13542338  1
  Hf  Hf38  1  0.49862743  0.08387666  0.12023390  1
  Hf  Hf39  1  0.71165179  0.09638765  0.87610054  1
  Zr  Zr40  1  0.29368270  0.89886276  0.63081238  1
  Zr  Zr41  1  0.70443068  0.89793243  0.61177324  1
  Zr  Zr42  1  0.60624884  0.78671231  -0.00391959  1
  Zr  Zr43  1  0.01375518  0.60856606  0.76170899  1
  Zr  Zr44  1  0.40978226  0.78375533  0.75510344  1
  Zr  Zr45  1  0.89347096  0.68977616  0.38062042  1
  Zr  Zr46  1  0.69047762  0.89612895  0.13496459  1
  Zr  Zr47  1  0.39628444  0.40719186  0.00493985  1
  Zr  Zr48  1  0.28720866  0.69224822  0.63109633  1
  Zr  Zr49  1  0.71407475  0.09576450  0.62033567  1
  Zr  Zr50  1  0.51091085  0.31238312  0.88292563  1
  Zr  Zr51  1  0.41709354  0.00599441  0.48746922  1
  Zr  Zr52  1  0.51342476  0.29343001  0.12777831  1
  Zr  Zr53  1  0.39931869  0.19524003  -0.00107067  1
  Zr  Zr54  1  0.79275817  0.59921640  0.73764512  1
  Zr  Zr55  1  0.60949221  0.20417426  0.74355167  1
  Zr  Zr56  1  0.30210855  0.29729293  0.37208592  1
  Zr  Zr57  1  0.10864465  0.51573504  0.62053923  1
  Zr  Zr58  1  0.48647154  0.88930830  0.12172292  1
  Zr  Zr59  1  0.51047486  0.10247793  0.88375349  1
  Zr  Zr60  1  0.18674825  0.39639801  0.24938165  1
  Zr  Zr61  1  0.50538092  0.89395878  0.62726691  1
  Zr  Zr62  1  0.09904567  0.50669889  0.10796535  1
  Zr  Zr63  1  0.12094588  0.09679622  0.12010799  1
  Zr  Zr64  1  0.80443140  0.00078222  0.24793660  1
  Zr  Zr65  1  0.38824706  0.79940051  0.49146262  1
  Zr  Zr66  1  -0.00384081  0.60558571  0.24993867  1
  Zr  Zr67  1  0.29439653  0.51342394  0.12397391  1
  Zr  Zr68  1  0.70152722  0.11084045  0.36930723  1
  Zr  Zr69  1  0.29853545  0.50654703  0.36525408  1
  Zr  Zr70  1  0.59442451  0.18729329  0.50695245  1
  Zr  Zr71  1  0.19793785  0.20008514  0.75985711  1
  Zr  Zr72  1  0.70864635  0.49412035  0.38120374  1
  Zr  Zr73  1  0.70236331  0.89857047  0.37634806  1
  Zr  Zr74  1  0.60963287  -0.00646649  0.75608680  1
  Zr  Zr75  1  0.90644236  0.09549443  0.88074827  1
  Zr  Zr76  1  0.18761112  0.19903042  0.49688343  1
  Zr  Zr77  1  0.20216726  0.40503562  0.49857979  1
  Zr  Zr78  1  0.90743010  0.09797109  0.12510949  1
  Zr  Zr79  1  0.89669380  0.50656337  0.10240835  1
  Ta  Ta80  1  0.61578462  0.79022908  0.75681784  1
  Ta  Ta81  1  0.90817455  0.49147965  0.62974084  1
  Ta  Ta82  1  0.88197522  0.51069135  0.88152319  1
  Ta  Ta83  1  0.81299896  -0.01710844  0.75095353  1
  Ta  Ta84  1  0.41192390  0.39986475  0.49967172  1
  Ta  Ta85  1  0.80262201  0.39665289  0.74465194  1
  Ta  Ta86  1  0.20234071  -0.00205627  0.49527969  1
  Ta  Ta87  1  0.00235646  0.19871297  -0.00096524  1
  Ta  Ta88  1  0.89810281  0.30395382  0.10318907  1
  Ta  Ta89  1  0.89324962  0.30212020  0.37910852  1
  Ta  Ta90  1  0.91376548  0.89122764  0.37144664  1
  Ta  Ta91  1  0.61313957  0.60032333  0.24200860  1
  Ta  Ta92  1  0.61032410  -0.00128365  -0.00044667  1
  Ta  Ta93  1  0.30523151  0.50001707  0.62627027  1
  Ta  Ta94  1  0.30356318  0.09828258  0.62296618  1
  Ta  Ta95  1  0.19799470  -0.00140572  0.76145053  1
  Ta  Ta96  1  0.38626979  0.79073431  -0.01207473  1
  Ta  Ta97  1  0.80485767  0.39559980  0.51844835  1
  Ta  Ta98  1  0.61116952  0.58949711  -0.00045877  1
  Ta  Ta99  1  0.90072869  0.90621043  0.61891303  1
  Ta  Ta100  1  -0.00108215  0.40732682  -0.01742987  1
  Ta  Ta101  1  0.09017034  0.30021203  0.87501446  1
  Ta  Ta102  1  0.57867101  0.00223068  0.26352236  1
  Ta  Ta103  1  0.80451074  0.79229289  0.49911208  1
  Ta  Ta104  1  0.89434484  0.29999334  0.88639500  1
  Ta  Ta105  1  0.61191557  0.41163799  0.74093307  1
  Ta  Ta106  1  0.19391249  0.18176712  0.26478703  1
  Ta  Ta107  1  0.28298099  0.70208378  0.36975152  1
  Ta  Ta108  1  0.18825601  -0.01313232  -0.02173877  1
  Ta  Ta109  1  0.39275573  0.81273352  0.26479313  1
  Ta  Ta110  1  0.81678969  0.00151507  0.49146000  1
  Ta  Ta111  1  0.80267541  0.59652157  0.52061911  1
  Ta  Ta112  1  0.50895757  0.50657617  0.12198172  1
  Ta  Ta113  1  -0.00519526  0.39651660  0.50298589  1
  Ta  Ta114  1  0.18728716  0.81861930  0.25539422  1
  Ta  Ta115  1  0.58632862  0.78720761  0.26007696  1
  Ta  Ta116  1  0.89839499  0.49234648  0.38769958  1
  Ta  Ta117  1  0.69325453  0.68705430  0.37996847  1
  Ta  Ta118  1  0.89538466  0.69415699  0.11316022  1
  Ta  Ta119  1  0.89373035  0.71843424  0.86762026  1
  Ti  Ti120  1  0.72182602  0.88545900  0.87566300  1
  Ti  Ti121  1  0.11234577  0.90295208  0.11783467  1
  Ti  Ti122  1  0.49441230  0.50146991  0.62525672  1
  Ti  Ti123  1  0.29255419  0.70099596  0.86414662  1
  Ti  Ti124  1  0.80032405  0.58841196  0.24674907  1
  Ti  Ti125  1  0.39472810  0.59343208  0.75852303  1
  Ti  Ti126  1  0.09878391  0.70936035  0.62159403  1
  Ti  Ti127  1  0.61241348  0.20307118  0.00746458  1
  Ti  Ti128  1  0.28842785  0.90442211  0.37617973  1
  Ti  Ti129  1  0.70146077  0.50097792  0.12004397  1
  Ti  Ti130  1  0.90425626  0.71177095  0.63161860  1
  Ti  Ti131  1  0.29368707  0.91752188  0.12848853  1
  Ti  Ti132  1  0.69334564  0.70487499  0.62276071  1
  Ti  Ti133  1  0.29730608  0.50398560  0.88625373  1
  Ti  Ti134  1  0.09648820  0.30655439  0.10640773  1
  Ti  Ti135  1  0.78160216  0.40820721  -0.00284064  1
  Ti  Ti136  1  0.51145499  0.50593439  0.88217548  1
  Ti  Ti137  1  0.49977501  0.09406991  0.62876354  1
  Ti  Ti138  1  0.08581159  0.89188625  0.85740254  1
  Ti  Ti139  1  0.00843278  0.00586925  0.49340498  1
  Ti  Ti140  1  -0.01283281  0.40298228  0.77074268  1
  Ti  Ti141  1  0.81843906  0.20143305  0.74873275  1
  Ti  Ti142  1  -0.00525652  0.00432138  0.75027947  1
  Ti  Ti143  1  0.61033775  0.39579931  0.23886304  1
  Ti  Ti144  1  0.69494823  0.11124908  0.13859602  1
  Ti  Ti145  1  0.28372916  0.88512551  0.86329094  1
  Ti  Ti146  1  -0.00341763  0.81030174  0.50442795  1
  Ti  Ti147  1  0.29683826  0.30711022  0.88033159  1
  Ti  Ti148  1  0.70199256  0.68457670  0.87199408  1
  Ti  Ti149  1  0.39404495  0.19826195  0.49558720  1
  Ti  Ti150  1  0.79765063  0.19646364  0.00812842  1
  Ti  Ti151  1  0.08577673  0.29789446  0.37732296  1
  Ti  Ti152  1  -0.01417915  0.20289710  0.50320611  1
  Ti  Ti153  1  -0.00635662  0.60419474  0.50998933  1
  Ti  Ti154  1  0.79928636  0.78873786  0.00575485  1
  Ti  Ti155  1  0.50536033  0.69908725  0.12031955  1
  Ti  Ti156  1  0.40798570  0.60966302  -0.00491313  1
  Ti  Ti157  1  0.09378710  0.09584081  0.87013532  1
  Ti  Ti158  1  0.90502273  0.10506337  0.62670060  1
  Ti  Ti159  1  0.70820940  0.29918533  0.62045428  1
  Mo  Mo160  1  0.60790072  -0.00361320  0.48370814  1
  Mo  Mo161  1  0.10209506  0.71388813  0.86643018  1
  Mo  Mo162  1  0.49858009  0.68775481  0.88316770  1
  Mo  Mo163  1  0.19236619  0.80559435  0.49774052  1
  Mo  Mo164  1  0.69895522  0.49173243  0.62130792  1
  Mo  Mo165  1  0.20908593  0.59905591  0.76551284  1
  Mo  Mo166  1  0.89816208  0.29604841  0.63229916  1
  Mo  Mo167  1  0.39281954  -0.00794291  0.25997054  1
  Mo  Mo168  1  0.60929275  0.20047710  0.24436602  1
  Mo  Mo169  1  0.49782364  0.69299672  0.36815259  1
  Mo  Mo170  1  0.80255748  0.21181695  0.23699091  1
  Mo  Mo171  1  0.79197597  0.61098931  -0.00923578  1
  Mo  Mo172  1  0.49939095  0.69485322  0.62773122  1
  Mo  Mo173  1  0.19830435  0.61197929  0.50201506  1
  Mo  Mo174  1  0.19388363  0.39901521  -0.01651737  1
  Mo  Mo175  1  0.18439055  0.79162477  0.75245605  1
  Mo  Mo176  1  0.50158032  0.10141786  0.37378645  1
  Mo  Mo177  1  -0.01800078  0.81079506  0.74632897  1
  Mo  Mo178  1  -0.01045349  0.61393314  -0.02302183  1
  Mo  Mo179  1  0.01171478  -0.00035970  -0.00413737  1
  Mo  Mo180  1  0.09260099  0.50554284  0.88553587  1
  Mo  Mo181  1  -0.00825884  0.20357742  0.76030870  1
  Mo  Mo182  1  0.59956896  0.39814812  0.51556016  1
  Mo  Mo183  1  0.29716748  0.08852214  0.12151127  1
  Mo  Mo184  1  -0.00187410  0.80334707  0.24990716  1
  Mo  Mo185  1  0.22119563  0.00203553  0.26171203  1
  Mo  Mo186  1  0.49642967  0.89744373  0.36959514  1
  Mo  Mo187  1  0.29854103  0.09825386  0.38520567  1
  Mo  Mo188  1  0.81318392  0.19990415  0.50514812  1
  Mo  Mo189  1  0.20824927  0.81266776  -0.00434783  1
  Mo  Mo190  1  0.10187970  0.90355762  0.38873016  1
  Mo  Mo191  1  0.70891957  0.29935384  0.11728782  1
  Mo  Mo192  1  0.60291385  0.40400121  0.00820969  1
  Mo  Mo193  1  0.69576054  0.49550969  0.87146734  1
  Mo  Mo194  1  0.29225191  0.09330338  0.86923770  1
  Mo  Mo195  1  0.69914393  0.68702526  0.12647238  1
  Mo  Mo196  1  0.20217869  0.61780231  0.24890104  1
  Mo  Mo197  1  0.89723432  0.90080206  0.87550459  1
  Mo  Mo198  1  0.10090305  0.10698833  0.38432025  1
  Mo  Mo199  1  0.79712467  0.79762191  0.74380820  1
