# generated using pymatgen
data_HfZrTaTiMo
_symmetry_space_group_name_H-M   'P 1'
_cell_length_a   15.20777858
_cell_length_b   15.21391123
_cell_length_c   16.85121944
_cell_angle_alpha   89.96335018
_cell_angle_beta   90.01550664
_cell_angle_gamma   90.11111484
_symmetry_Int_Tables_number   1
_chemical_formula_structural   HfZrTaTiMo
_chemical_formula_sum   'Hf40 Zr40 Ta40 Ti40 Mo40'
_cell_volume   3898.85488844
_cell_formula_units_Z   40
loop_
 _symmetry_equiv_pos_site_id
 _symmetry_equiv_pos_as_xyz
  1  'x, y, z'
loop_
 _atom_site_type_symbol
 _atom_site_label
 _atom_site_symmetry_multiplicity
 _atom_site_fract_x
 _atom_site_fract_y
 _atom_site_fract_z
 _atom_site_occupancy
  Hf  Hf0  1  0.21050463  0.20944766  0.48459789  1
  Hf  Hf1  1  0.82175841  0.81024937  0.75429899  1
  Hf  Hf2  1  0.79241871  0.20227038  0.26045994  1
  Hf  Hf3  1  0.40520840  0.80218872  0.47832101  1
  Hf  Hf4  1  0.49103722  0.48988893  0.61226979  1
  Hf  Hf5  1  0.00129631  0.61151696  0.25473621  1
  Hf  Hf6  1  0.38920197  0.60311832  0.48753495  1
  Hf  Hf7  1  0.59777772  0.38918535  0.25086913  1
  Hf  Hf8  1  0.09977456  0.31397385  0.62538098  1
  Hf  Hf9  1  0.31014760  0.71377684  0.61959793  1
  Hf  Hf10  1  0.09598590  0.08972834  0.62233126  1
  Hf  Hf11  1  0.48555857  0.29084358  0.38650741  1
  Hf  Hf12  1  0.70273716  0.89349327  0.12462719  1
  Hf  Hf13  1  0.70562234  0.90170845  0.62832935  1
  Hf  Hf14  1  0.00303681  0.40962322  0.49376886  1
  Hf  Hf15  1  0.18927280  0.20846120  0.75785854  1
  Hf  Hf16  1  0.00667301  0.39309727  -0.00882553  1
  Hf  Hf17  1  0.68930673  0.11874178  0.12185036  1
  Hf  Hf18  1  0.59741209  0.19218807  0.49943508  1
  Hf  Hf19  1  0.38838248  0.19406361  0.75437061  1
  Hf  Hf20  1  0.89735421  0.50484242  0.37179019  1
  Hf  Hf21  1  0.50177208  0.28343617  0.11413380  1
  Hf  Hf22  1  0.90367373  0.50607217  0.63280866  1
  Hf  Hf23  1  0.89083799  0.09531703  0.61730167  1
  Hf  Hf24  1  0.58260301  0.00421729  0.00792092  1
  Hf  Hf25  1  0.59744515  0.20249036  0.74846915  1
  Hf  Hf26  1  0.48689132  0.08812977  0.62920556  1
  Hf  Hf27  1  0.19032422  -0.00047201  0.47874882  1
  Hf  Hf28  1  0.60186377  0.79256043  0.49168874  1
  Hf  Hf29  1  0.39561159  0.00630571  0.48727468  1
  Hf  Hf30  1  0.91056134  0.90166371  0.60338586  1
  Hf  Hf31  1  -0.00459504  0.00281699  0.25540056  1
  Hf  Hf32  1  0.60307047  0.60279931  0.51112895  1
  Hf  Hf33  1  0.92130281  0.71221836  0.87837766  1
  Hf  Hf34  1  0.10659903  0.68858780  0.61433577  1
  Hf  Hf35  1  0.70051667  0.50055244  0.87504803  1
  Hf  Hf36  1  0.79187806  0.20093856  0.74687327  1
  Hf  Hf37  1  0.89080814  0.09778961  0.39226381  1
  Hf  Hf38  1  0.79722124  0.00324959  0.24539811  1
  Hf  Hf39  1  0.30419360  0.30498951  0.61909079  1
  Zr  Zr40  1  0.49472384  0.88630837  0.62670836  1
  Zr  Zr41  1  0.81528449  0.79756696  0.26401690  1
  Zr  Zr42  1  0.69764333  0.50561144  0.11932713  1
  Zr  Zr43  1  0.10378920  0.30184831  0.11996470  1
  Zr  Zr44  1  0.49700280  0.29855946  0.61193071  1
  Zr  Zr45  1  0.00726856  0.39829161  0.76100970  1
  Zr  Zr46  1  0.49558830  0.89418616  0.13813824  1
  Zr  Zr47  1  0.69394140  0.49245019  0.37844076  1
  Zr  Zr48  1  0.80229720  0.01240142  0.01198799  1
  Zr  Zr49  1  0.90252653  0.27914212  0.12594062  1
  Zr  Zr50  1  0.30429238  0.09797705  0.89891067  1
  Zr  Zr51  1  0.59610536  0.79047136  -0.01573838  1
  Zr  Zr52  1  0.59422779  0.79220330  0.76127814  1
  Zr  Zr53  1  0.08860663  0.10128485  0.13018571  1
  Zr  Zr54  1  0.70592005  0.92105353  0.86871903  1
  Zr  Zr55  1  0.01854183  0.39642703  0.25839370  1
  Zr  Zr56  1  0.49431300  0.48597150  0.38640584  1
  Zr  Zr57  1  0.80324385  0.78695481  0.49208439  1
  Zr  Zr58  1  0.91129634  0.70687307  0.11678804  1
  Zr  Zr59  1  0.49806377  0.09096402  0.87684491  1
  Zr  Zr60  1  0.50256574  0.29417776  0.89044532  1
  Zr  Zr61  1  0.40042229  0.40645666  0.76390288  1
  Zr  Zr62  1  0.27392353  0.50631458  0.61884154  1
  Zr  Zr63  1  0.09424191  0.08487740  0.87838779  1
  Zr  Zr64  1  0.27719064  0.31089682  0.89493987  1
  Zr  Zr65  1  0.20657155  -0.00066903  0.75027460  1
  Zr  Zr66  1  0.88807411  0.08270253  0.86447347  1
  Zr  Zr67  1  0.40608884  0.61142877  0.74929236  1
  Zr  Zr68  1  0.30660169  0.70717981  0.87795179  1
  Zr  Zr69  1  0.60216885  0.59398248  0.74519433  1
  Zr  Zr70  1  0.00498361  0.20627363  0.49823796  1
  Zr  Zr71  1  0.40870883  0.60383473  0.26207467  1
  Zr  Zr72  1  0.60449823  0.77510631  0.26322566  1
  Zr  Zr73  1  0.20805178  0.21935618  0.25483826  1
  Zr  Zr74  1  0.80393273  0.39644420  -0.00212106  1
  Zr  Zr75  1  0.18985265  0.80007791  0.74861170  1
  Zr  Zr76  1  0.39951480  0.41280622  0.00280245  1
  Zr  Zr77  1  0.11601137  0.49920880  0.88863710  1
  Zr  Zr78  1  0.80291293  0.39901155  0.24641393  1
  Zr  Zr79  1  0.70267494  0.69989544  0.11251338  1
  Ta  Ta80  1  0.39132657  0.38411922  0.24030908  1
  Ta  Ta81  1  0.90123122  0.51189004  0.86958055  1
  Ta  Ta82  1  0.90734382  0.50430729  0.12363910  1
  Ta  Ta83  1  0.89212744  0.29303103  0.87224800  1
  Ta  Ta84  1  0.29198632  0.89634153  0.13913035  1
  Ta  Ta85  1  0.90522236  0.90826818  0.39112982  1
  Ta  Ta86  1  -0.00042750  -0.01642378  0.00577403  1
  Ta  Ta87  1  0.30639184  0.10420064  0.11845590  1
  Ta  Ta88  1  0.50550275  0.90638300  0.36049292  1
  Ta  Ta89  1  0.69003763  0.09495057  0.38006252  1
  Ta  Ta90  1  0.70192445  0.90638571  0.37663947  1
  Ta  Ta91  1  0.89406482  0.30355105  0.62735717  1
  Ta  Ta92  1  0.20048599  0.60089830  0.25539948  1
  Ta  Ta93  1  0.10473641  0.50903106  0.12029239  1
  Ta  Ta94  1  0.60334414  0.39550379  0.75376186  1
  Ta  Ta95  1  0.90941323  0.90015400  0.12751782  1
  Ta  Ta96  1  0.79082255  0.60696674  0.25342260  1
  Ta  Ta97  1  0.20717691  0.79869100  0.47690201  1
  Ta  Ta98  1  0.29552207  0.91020536  0.61522849  1
  Ta  Ta99  1  0.20177289  0.79369770  0.26299128  1
  Ta  Ta100  1  0.71605809  0.69195122  0.63657122  1
  Ta  Ta101  1  -0.00830883  -0.02423005  0.74615934  1
  Ta  Ta102  1  0.91105110  0.70123900  0.62765090  1
  Ta  Ta103  1  0.50542158  0.50020639  0.12792868  1
  Ta  Ta104  1  0.20121543  0.00259286  0.25295845  1
  Ta  Ta105  1  0.80826505  0.60394635  -0.00708292  1
  Ta  Ta106  1  0.38973705  0.80183523  0.01171853  1
  Ta  Ta107  1  0.49929337  0.68716623  0.12257075  1
  Ta  Ta108  1  0.69422487  0.09500496  0.62068681  1
  Ta  Ta109  1  0.47549062  0.89853118  0.87787838  1
  Ta  Ta110  1  0.28825981  0.48267907  0.36425474  1
  Ta  Ta111  1  -0.00254562  0.60606364  0.48948582  1
  Ta  Ta112  1  0.80366053  0.59621734  0.50154982  1
  Ta  Ta113  1  0.30608704  0.51475016  0.12997293  1
  Ta  Ta114  1  0.70149720  0.30472253  0.62133918  1
  Ta  Ta115  1  0.19509876  -0.01400843  0.01542050  1
  Ta  Ta116  1  -0.00524350  0.19524591  0.74779303  1
  Ta  Ta117  1  0.10906832  0.69741880  0.88372932  1
  Ta  Ta118  1  0.28862629  0.90387467  0.88678842  1
  Ta  Ta119  1  0.01651038  0.79776626  0.48052292  1
  Ti  Ti120  1  0.69482166  0.12377746  0.88820350  1
  Ti  Ti121  1  0.49732910  0.09550871  0.36980468  1
  Ti  Ti122  1  0.19967507  0.59659197  0.75322706  1
  Ti  Ti123  1  0.29431864  0.10118589  0.62029972  1
  Ti  Ti124  1  0.79825025  0.40349682  0.75334923  1
  Ti  Ti125  1  0.79602245  0.39484031  0.49904601  1
  Ti  Ti126  1  0.69784535  0.30410403  0.11619795  1
  Ti  Ti127  1  0.18390393  0.20011646  0.00008489  1
  Ti  Ti128  1  0.59061276  0.19609713  0.25826820  1
  Ti  Ti129  1  0.19904360  0.40645206  0.75370052  1
  Ti  Ti130  1  0.59953707  0.00368859  0.24685018  1
  Ti  Ti131  1  0.19496077  0.79975654  0.00929169  1
  Ti  Ti132  1  0.90222210  0.29684535  0.37531852  1
  Ti  Ti133  1  0.40062411  0.01172958  0.24536786  1
  Ti  Ti134  1  0.00897511  0.60400650  0.00292865  1
  Ti  Ti135  1  0.39734614  0.79306920  0.25712093  1
  Ti  Ti136  1  0.30399619  0.90701552  0.35765995  1
  Ti  Ti137  1  0.30003000  0.29973669  0.10972923  1
  Ti  Ti138  1  0.10297580  0.89216354  0.61390169  1
  Ti  Ti139  1  0.59478753  -0.00032647  0.75229495  1
  Ti  Ti140  1  0.00939424  0.80499619  0.27162879  1
  Ti  Ti141  1  0.60029297  0.40575913  -0.00641626  1
  Ti  Ti142  1  0.09300149  0.11219511  0.36496503  1
  Ti  Ti143  1  0.31133071  0.11482711  0.36283905  1
  Ti  Ti144  1  0.71425924  0.69448715  0.87274415  1
  Ti  Ti145  1  0.59683495  -0.00936065  0.49742202  1
  Ti  Ti146  1  0.81855587  0.81280537  -0.01129028  1
  Ti  Ti147  1  0.11488114  0.70301990  0.12824594  1
  Ti  Ti148  1  0.08534304  0.88335097  0.88016855  1
  Ti  Ti149  1  0.21742326  0.60857277  0.01159501  1
  Ti  Ti150  1  0.18823713  0.60017014  0.47442760  1
  Ti  Ti151  1  0.09812415  0.89099247  0.13790474  1
  Ti  Ti152  1  -0.01803957  0.18462992  -0.00756484  1
  Ti  Ti153  1  0.79098311  0.20716345  0.49910669  1
  Ti  Ti154  1  0.70551717  0.49148211  0.62619401  1
  Ti  Ti155  1  0.41645083  0.60813700  -0.00246830  1
  Ti  Ti156  1  0.19347989  0.40728363  0.48901200  1
  Ti  Ti157  1  0.00982478  0.60704445  0.75288812  1
  Ti  Ti158  1  0.30582692  0.51096031  0.88265472  1
  Ti  Ti159  1  0.39328636  0.81441929  0.75205352  1
  Mo  Mo160  1  0.08649808  0.28481803  0.88213688  1
  Mo  Mo161  1  0.39272815  -0.00896276  0.75051764  1
  Mo  Mo162  1  0.10199713  0.69946381  0.37365232  1
  Mo  Mo163  1  0.40654297  0.19663834  0.24381561  1
  Mo  Mo164  1  0.50552955  0.69584937  0.37267396  1
  Mo  Mo165  1  0.30530567  0.70630297  0.12725011  1
  Mo  Mo166  1  0.38886036  -0.01274618  0.01675593  1
  Mo  Mo167  1  0.30314074  0.30643994  0.37267607  1
  Mo  Mo168  1  0.01659949  0.80215792  0.00806159  1
  Mo  Mo169  1  0.91014030  0.90364980  0.87784437  1
  Mo  Mo170  1  0.59582332  0.59461679  -0.01045884  1
  Mo  Mo171  1  0.50131068  0.50756163  0.87914652  1
  Mo  Mo172  1  0.50289783  0.70183184  0.62267708  1
  Mo  Mo173  1  0.49498075  0.09810965  0.13329550  1
  Mo  Mo174  1  0.69999912  0.29085255  0.38412834  1
  Mo  Mo175  1  0.09598279  0.50956739  0.62531926  1
  Mo  Mo176  1  0.60414627  0.20635635  -0.00129424  1
  Mo  Mo177  1  0.79798534  0.20559334  -0.00495909  1
  Mo  Mo178  1  0.79285770  0.00250870  0.74200263  1
  Mo  Mo179  1  0.60125396  0.59082257  0.24872529  1
  Mo  Mo180  1  0.70151011  0.30453675  0.87193740  1
  Mo  Mo181  1  -0.00601653  0.19970569  0.26600496  1
  Mo  Mo182  1  0.01195098  0.79625104  0.74239838  1
  Mo  Mo183  1  0.20344870  0.41419828  0.01985043  1
  Mo  Mo184  1  0.30024323  0.69796560  0.37124915  1
  Mo  Mo185  1  0.70489893  0.68742606  0.37777080  1
  Mo  Mo186  1  0.37705609  0.39366597  0.49520527  1
  Mo  Mo187  1  0.50048935  0.70328551  0.88178144  1
  Mo  Mo188  1  0.10309986  0.50242373  0.36876704  1
  Mo  Mo189  1  0.00498347  -0.00223925  0.49387555  1
  Mo  Mo190  1  0.78443092  0.00255619  0.49777407  1
  Mo  Mo191  1  0.61234259  0.39341753  0.50502970  1
  Mo  Mo192  1  0.89910184  0.09608085  0.12510769  1
  Mo  Mo193  1  0.81167478  0.60229481  0.75375099  1
  Mo  Mo194  1  0.10620573  0.90654987  0.36458679  1
  Mo  Mo195  1  0.21131140  0.41112961  0.23035644  1
  Mo  Mo196  1  0.39357875  0.18778283  0.49891176  1
  Mo  Mo197  1  0.89982726  0.69976574  0.37667213  1
  Mo  Mo198  1  0.10724372  0.30989916  0.37248476  1
  Mo  Mo199  1  0.39556533  0.19197486  0.00629085  1
