# generated using pymatgen
data_HfZrTaTiMo
_symmetry_space_group_name_H-M   'P 1'
_cell_length_a   15.21414603
_cell_length_b   15.20237816
_cell_length_c   16.81758157
_cell_angle_alpha   90.04391422
_cell_angle_beta   90.02205998
_cell_angle_gamma   89.93927445
_symmetry_Int_Tables_number   1
_chemical_formula_structural   HfZrTaTiMo
_chemical_formula_sum   'Hf40 Zr40 Ta40 Ti40 Mo40'
_cell_volume   3889.75502842
_cell_formula_units_Z   40
loop_
 _symmetry_equiv_pos_site_id
 _symmetry_equiv_pos_as_xyz
  1  'x, y, z'
loop_
 _atom_site_type_symbol
 _atom_site_label
 _atom_site_symmetry_multiplicity
 _atom_site_fract_x
 _atom_site_fract_y
 _atom_site_fract_z
 _atom_site_occupancy
  Hf  Hf0  1  0.60625412  -0.00363335  0.73450413  1
  Hf  Hf1  1  0.50263047  0.29125575  0.87850484  1
  Hf  Hf2  1  0.68173991  0.89527184  0.12342993  1
  Hf  Hf3  1  0.57784088  -0.00570763  0.00457308  1
  Hf  Hf4  1  0.10069208  0.10599853  0.62085238  1
  Hf  Hf5  1  0.89772695  0.51289360  0.37480993  1
  Hf  Hf6  1  0.90366879  0.08427615  0.37331710  1
  Hf  Hf7  1  0.67801819  0.30856646  0.62542069  1
  Hf  Hf8  1  0.11218435  0.89017506  0.12748790  1
  Hf  Hf9  1  0.28702992  0.89316645  0.38148197  1
  Hf  Hf10  1  0.49845814  0.50565876  0.11506811  1
  Hf  Hf11  1  0.91638655  0.30061500  0.62056606  1
  Hf  Hf12  1  -0.01590155  0.80128202  0.75581311  1
  Hf  Hf13  1  0.90370370  0.07888684  0.62565597  1
  Hf  Hf14  1  0.78881587  0.19417667  0.74137093  1
  Hf  Hf15  1  0.10778216  0.68384590  0.86571744  1
  Hf  Hf16  1  0.19788103  0.81242075  0.51705613  1
  Hf  Hf17  1  0.12584512  0.09402899  0.87012317  1
  Hf  Hf18  1  0.30237265  0.28691829  0.12664998  1
  Hf  Hf19  1  0.69285309  0.30302046  0.37169661  1
  Hf  Hf20  1  0.79924830  0.60770936  0.73804931  1
  Hf  Hf21  1  0.89374573  0.30911429  0.88350729  1
  Hf  Hf22  1  0.78530289  0.40856035  0.50639889  1
  Hf  Hf23  1  0.11369406  0.88936149  0.86589477  1
  Hf  Hf24  1  0.80542455  -0.01506042  0.75426039  1
  Hf  Hf25  1  0.20428651  0.59970832  0.50601322  1
  Hf  Hf26  1  0.40625180  0.58656063  0.74245249  1
  Hf  Hf27  1  0.79578760  0.19140838  0.51258261  1
  Hf  Hf28  1  0.60924890  0.59235611  0.74396787  1
  Hf  Hf29  1  0.80470401  0.39541623  0.24333844  1
  Hf  Hf30  1  0.50450453  0.72054492  0.12365843  1
  Hf  Hf31  1  0.89595409  0.30158242  0.37789982  1
  Hf  Hf32  1  0.90306074  0.30551925  0.11571358  1
  Hf  Hf33  1  0.39952859  0.20041796  0.26965294  1
  Hf  Hf34  1  0.58614091  0.57421479  0.51188317  1
  Hf  Hf35  1  0.10386476  0.68476812  0.15408395  1
  Hf  Hf36  1  0.39715512  0.19952908  0.73231551  1
  Hf  Hf37  1  0.59410139  0.19776232  0.24626478  1
  Hf  Hf38  1  0.19978230  0.20756539  0.27162143  1
  Hf  Hf39  1  0.68484143  0.09980658  0.87887068  1
  Zr  Zr40  1  0.68347477  0.50393465  0.35705996  1
  Zr  Zr41  1  0.01019229  0.58549527  0.01035872  1
  Zr  Zr42  1  0.70041944  0.69746473  0.14507800  1
  Zr  Zr43  1  0.88925095  0.09449735  0.88449550  1
  Zr  Zr44  1  0.58810739  -0.00592574  0.25282427  1
  Zr  Zr45  1  0.80205132  0.40711298  0.73867341  1
  Zr  Zr46  1  0.78475419  0.61508033  0.50339173  1
  Zr  Zr47  1  0.11048044  0.10905258  0.11753329  1
  Zr  Zr48  1  0.91991007  0.51573609  0.60554773  1
  Zr  Zr49  1  0.38789162  0.61430667  -0.00898922  1
  Zr  Zr50  1  0.20929063  0.78694253  -0.00153077  1
  Zr  Zr51  1  0.29982287  0.70509839  0.14298692  1
  Zr  Zr52  1  -0.00288042  0.59099606  0.74760875  1
  Zr  Zr53  1  0.38772286  0.39927727  0.00214865  1
  Zr  Zr54  1  0.40517012  0.82180671  -0.00734231  1
  Zr  Zr55  1  0.89393330  0.89438070  0.11853511  1
  Zr  Zr56  1  0.69529977  0.09482864  0.38201764  1
  Zr  Zr57  1  0.10671003  0.71823904  0.36901615  1
  Zr  Zr58  1  0.00692316  0.19733458  0.48718219  1
  Zr  Zr59  1  -0.00194189  0.20028327  0.76075366  1
  Zr  Zr60  1  0.29006821  0.50263122  0.86441310  1
  Zr  Zr61  1  0.10828084  0.32317619  0.11524253  1
  Zr  Zr62  1  0.71534263  0.88556286  0.61080101  1
  Zr  Zr63  1  0.61015216  0.60827670  -0.00764741  1
  Zr  Zr64  1  0.39571588  0.00393112  0.27036698  1
  Zr  Zr65  1  0.32692992  0.50637195  0.38003126  1
  Zr  Zr66  1  -0.00127668  0.78430720  0.00108870  1
  Zr  Zr67  1  0.19199076  0.00615884  0.25291159  1
  Zr  Zr68  1  0.30841552  0.91808532  0.85038225  1
  Zr  Zr69  1  0.00673482  0.20333380  -0.00998004  1
  Zr  Zr70  1  0.80934433  0.59694265  0.01274421  1
  Zr  Zr71  1  0.08207525  0.69483606  0.61919887  1
  Zr  Zr72  1  0.00897859  -0.00918472  -0.00568378  1
  Zr  Zr73  1  0.02427754  0.41123118  0.48968698  1
  Zr  Zr74  1  0.50546483  0.71017027  0.86634702  1
  Zr  Zr75  1  0.19927783  0.21390904  0.73968422  1
  Zr  Zr76  1  0.38707947  -0.01178268  0.51527231  1
  Zr  Zr77  1  0.88217108  0.10389648  0.10993132  1
  Zr  Zr78  1  0.00144838  0.20161934  0.25409869  1
  Zr  Zr79  1  0.59019040  0.20848525  0.49861087  1
  Ta  Ta80  1  0.20974840  0.40265651  0.26810740  1
  Ta  Ta81  1  0.01535616  0.40523271  0.26286287  1
  Ta  Ta82  1  0.69663997  0.89988703  0.38288079  1
  Ta  Ta83  1  0.19859458  0.21603225  0.50393565  1
  Ta  Ta84  1  0.50545420  0.90750335  0.85728217  1
  Ta  Ta85  1  0.09798343  0.48587073  0.87139506  1
  Ta  Ta86  1  0.79416754  0.19262843  0.24440675  1
  Ta  Ta87  1  0.79150121  0.00249530  0.24438737  1
  Ta  Ta88  1  0.88564467  0.72376129  0.61418289  1
  Ta  Ta89  1  0.39698971  0.77670101  0.50898794  1
  Ta  Ta90  1  0.81406829  -0.01484454  0.49744107  1
  Ta  Ta91  1  0.40622937  0.80472927  0.26252893  1
  Ta  Ta92  1  0.60471335  0.77834190  0.49110922  1
  Ta  Ta93  1  0.21808473  -0.00085505  0.00248408  1
  Ta  Ta94  1  0.40122794  0.18865761  -0.00405493  1
  Ta  Ta95  1  0.49624191  0.67833685  0.37756445  1
  Ta  Ta96  1  0.90365963  0.69751394  0.15338466  1
  Ta  Ta97  1  0.70713080  0.49529308  0.87623341  1
  Ta  Ta98  1  0.29329896  0.69569577  0.64156100  1
  Ta  Ta99  1  0.22032651  0.39918630  0.49225790  1
  Ta  Ta100  1  0.30367022  0.69889862  0.36877424  1
  Ta  Ta101  1  0.48091356  0.09771440  0.12720620  1
  Ta  Ta102  1  0.50930899  0.09871538  0.60934798  1
  Ta  Ta103  1  0.88961180  0.69318836  0.87859979  1
  Ta  Ta104  1  0.70015442  0.49390933  0.13349069  1
  Ta  Ta105  1  0.50417768  0.49140442  0.87743126  1
  Ta  Ta106  1  0.69983640  0.29158631  0.11742616  1
  Ta  Ta107  1  0.28760987  0.10100527  0.40239570  1
  Ta  Ta108  1  0.29456434  0.71359258  0.84229656  1
  Ta  Ta109  1  0.51118887  0.88476207  0.61005443  1
  Ta  Ta110  1  0.39082963  0.21866487  0.50855576  1
  Ta  Ta111  1  0.40295783  0.39832991  0.24308967  1
  Ta  Ta112  1  0.59315400  0.19420576  0.74098658  1
  Ta  Ta113  1  0.90145056  0.70362067  0.35698170  1
  Ta  Ta114  1  0.79627843  0.81358856  0.25961796  1
  Ta  Ta115  1  0.69165165  0.88583256  0.88182387  1
  Ta  Ta116  1  0.69670536  0.69592359  0.35643076  1
  Ta  Ta117  1  0.48644959  0.09336354  0.86378101  1
  Ta  Ta118  1  0.90265321  0.49779229  0.87576323  1
  Ta  Ta119  1  0.08583614  0.90675007  0.62891039  1
  Ti  Ti120  1  0.58893432  0.80064473  0.26693616  1
  Ti  Ti121  1  0.21439680  0.00437193  0.72611739  1
  Ti  Ti122  1  0.31428352  0.91097979  0.13518221  1
  Ti  Ti123  1  0.60700962  0.79359760  0.74130390  1
  Ti  Ti124  1  0.41894977  0.41472892  0.51144628  1
  Ti  Ti125  1  0.58946230  0.39957225  0.23761543  1
  Ti  Ti126  1  0.59218366  0.39640415  0.75624679  1
  Ti  Ti127  1  0.80461157  0.79910755  0.47547388  1
  Ti  Ti128  1  0.78019966  -0.00139522  0.00203249  1
  Ti  Ti129  1  -0.00805362  0.00458491  0.24054968  1
  Ti  Ti130  1  0.00309911  -0.00253800  0.76118910  1
  Ti  Ti131  1  0.08892063  0.92487655  0.38198240  1
  Ti  Ti132  1  0.30018227  0.29880170  0.87051529  1
  Ti  Ti133  1  0.28336437  0.49659365  0.13435556  1
  Ti  Ti134  1  0.40676967  0.00468047  0.72167882  1
  Ti  Ti135  1  0.30090259  0.32893473  0.63113596  1
  Ti  Ti136  1  0.40983151  0.59631964  0.24544968  1
  Ti  Ti137  1  0.19992050  0.58301511  0.00632954  1
  Ti  Ti138  1  0.21826937  0.19690239  -0.00789432  1
  Ti  Ti139  1  0.49986167  0.88836387  0.39984529  1
  Ti  Ti140  1  0.91943305  0.50160633  0.14109567  1
  Ti  Ti141  1  0.10948059  0.51903824  0.37072513  1
  Ti  Ti142  1  0.12546716  0.48432873  0.63556648  1
  Ti  Ti143  1  0.49458151  0.09038499  0.40050928  1
  Ti  Ti144  1  0.50143020  0.69100070  0.62398754  1
  Ti  Ti145  1  0.49365912  0.32188543  0.37783860  1
  Ti  Ti146  1  0.50017199  0.29732106  0.11808933  1
  Ti  Ti147  1  0.10974943  0.30928849  0.88665372  1
  Ti  Ti148  1  0.59819042  0.19132302  0.00979579  1
  Ti  Ti149  1  0.39269639  0.00864745  -0.00284943  1
  Ti  Ti150  1  0.01382039  0.39077851  0.74833580  1
  Ti  Ti151  1  0.40682216  0.80820791  0.73103533  1
  Ti  Ti152  1  0.69827839  0.29941308  0.88005056  1
  Ti  Ti153  1  0.79043342  0.79415279  0.75730524  1
  Ti  Ti154  1  0.78655863  0.78801609  0.00020837  1
  Ti  Ti155  1  0.00268121  0.81762078  0.25667217  1
  Ti  Ti156  1  0.89069381  0.88942555  0.89028372  1
  Ti  Ti157  1  -0.01254574  0.81562124  0.49063783  1
  Ti  Ti158  1  0.60650854  0.39776562  -0.00017423  1
  Ti  Ti159  1  0.79990814  0.40557167  0.00666906  1
  Mo  Mo160  1  0.50143970  0.47510208  0.63785110  1
  Mo  Mo161  1  0.90661744  0.89261755  0.62569206  1
  Mo  Mo162  1  0.10782284  0.31300379  0.37625365  1
  Mo  Mo163  1  0.69985775  0.09515288  0.61831670  1
  Mo  Mo164  1  0.48542800  0.90163672  0.13258469  1
  Mo  Mo165  1  -0.00315235  0.62457892  0.47897052  1
  Mo  Mo166  1  0.78098871  0.20877096  -0.00463630  1
  Mo  Mo167  1  0.19708952  0.59737720  0.73980988  1
  Mo  Mo168  1  0.30067767  0.10520910  0.60719204  1
  Mo  Mo169  1  0.70749702  0.69986951  0.87306988  1
  Mo  Mo170  1  0.50133404  0.49495626  0.36654489  1
  Mo  Mo171  1  0.40452509  0.39340843  0.76033340  1
  Mo  Mo172  1  0.39782343  0.60090376  0.51763489  1
  Mo  Mo173  1  0.30609327  0.50204945  0.62750944  1
  Mo  Mo174  1  0.21278597  0.59430692  0.26201476  1
  Mo  Mo175  1  0.58928425  0.59848949  0.24269264  1
  Mo  Mo176  1  0.20922821  0.81069988  0.25612437  1
  Mo  Mo177  1  0.10327663  0.10099777  0.38533423  1
  Mo  Mo178  1  0.69826064  0.49781427  0.63180710  1
  Mo  Mo179  1  0.60079335  0.80564622  -0.00511434  1
  Mo  Mo180  1  0.00390395  0.59698549  0.26206118  1
  Mo  Mo181  1  0.60237595  -0.00975010  0.50472785  1
  Mo  Mo182  1  0.31071162  0.30554473  0.38472628  1
  Mo  Mo183  1  0.80180702  0.59871515  0.24338521  1
  Mo  Mo184  1  0.19720246  0.40295710  -0.00231114  1
  Mo  Mo185  1  0.68971554  0.10176217  0.12134060  1
  Mo  Mo186  1  0.68935339  0.70707685  0.62027282  1
  Mo  Mo187  1  0.30037738  0.89409611  0.63538196  1
  Mo  Mo188  1  0.10622262  0.31075124  0.62155001  1
  Mo  Mo189  1  0.19415265  0.80506117  0.73233103  1
  Mo  Mo190  1  0.89984934  0.90039802  0.36238746  1
  Mo  Mo191  1  0.30211173  0.10033518  0.12495477  1
  Mo  Mo192  1  -0.00396241  0.40994989  -0.00194024  1
  Mo  Mo193  1  0.59375606  0.39668262  0.49734585  1
  Mo  Mo194  1  0.49186234  0.30130956  0.62989493  1
  Mo  Mo195  1  0.00231027  -0.00826552  0.49949128  1
  Mo  Mo196  1  0.18887815  0.00481121  0.51231957  1
  Mo  Mo197  1  0.20209842  0.39881219  0.75399399  1
  Mo  Mo198  1  0.10973214  0.49765688  0.14107379  1
  Mo  Mo199  1  0.31083292  0.10703987  0.86781792  1
