# generated using pymatgen
data_HfZrTaTiMo
_symmetry_space_group_name_H-M   'P 1'
_cell_length_a   15.19346702
_cell_length_b   15.17342827
_cell_length_c   16.79438210
_cell_angle_alpha   89.99458819
_cell_angle_beta   90.02223417
_cell_angle_gamma   90.00965517
_symmetry_Int_Tables_number   1
_chemical_formula_structural   HfZrTaTiMo
_chemical_formula_sum   'Hf40 Zr40 Ta40 Ti40 Mo40'
_cell_volume   3871.72580178
_cell_formula_units_Z   40
loop_
 _symmetry_equiv_pos_site_id
 _symmetry_equiv_pos_as_xyz
  1  'x, y, z'
loop_
 _atom_site_type_symbol
 _atom_site_label
 _atom_site_symmetry_multiplicity
 _atom_site_fract_x
 _atom_site_fract_y
 _atom_site_fract_z
 _atom_site_occupancy
  Hf  Hf0  1  0.78833998  -0.00289133  0.25097481  1
  Hf  Hf1  1  0.68759699  0.29366617  0.64381897  1
  Hf  Hf2  1  0.68840025  0.71728104  0.63401236  1
  Hf  Hf3  1  0.90491328  0.10090608  0.37016780  1
  Hf  Hf4  1  -0.00034676  0.39733767  0.00350126  1
  Hf  Hf5  1  0.32653853  0.90091866  0.38111745  1
  Hf  Hf6  1  0.08459760  0.49478439  0.36871261  1
  Hf  Hf7  1  0.09994415  0.50711411  0.88737853  1
  Hf  Hf8  1  0.31204850  0.10694789  0.11241412  1
  Hf  Hf9  1  -0.00407202  0.18747613  -0.00678316  1
  Hf  Hf10  1  0.90123821  0.88861243  0.35397850  1
  Hf  Hf11  1  0.68922268  0.09799744  0.37682418  1
  Hf  Hf12  1  0.40199843  0.77858532  0.73837275  1
  Hf  Hf13  1  0.89157183  0.50146832  0.88819916  1
  Hf  Hf14  1  0.09508611  0.09691613  0.61917840  1
  Hf  Hf15  1  0.39376500  0.38089744  0.24538391  1
  Hf  Hf16  1  -0.00273109  0.61505647  0.75000056  1
  Hf  Hf17  1  0.70900336  0.89262113  0.11433553  1
  Hf  Hf18  1  0.79465987  -0.01156073  0.49023252  1
  Hf  Hf19  1  0.00851588  0.19537366  0.24907811  1
  Hf  Hf20  1  0.82124991  0.00782391  0.76882080  1
  Hf  Hf21  1  0.29481676  0.29729379  0.85782579  1
  Hf  Hf22  1  0.81298158  0.79484716  -0.00165982  1
  Hf  Hf23  1  0.39450560  0.61273913  -0.00009535  1
  Hf  Hf24  1  0.69831870  0.31681378  0.12186443  1
  Hf  Hf25  1  -0.00265268  0.40683993  0.75639156  1
  Hf  Hf26  1  0.50615170  0.90116827  0.11308926  1
  Hf  Hf27  1  0.09878288  0.08906906  0.87467274  1
  Hf  Hf28  1  0.59332853  0.19877610  0.25041167  1
  Hf  Hf29  1  0.88914473  0.29481378  0.11800658  1
  Hf  Hf30  1  0.39379835  0.39551852  0.50971405  1
  Hf  Hf31  1  0.89269570  0.30091455  0.63689359  1
  Hf  Hf32  1  0.10510288  0.10345655  0.38692928  1
  Hf  Hf33  1  0.68899008  0.30202694  0.85917787  1
  Hf  Hf34  1  0.20907551  0.79297268  0.49112355  1
  Hf  Hf35  1  0.39471204  0.39855689  -0.00519930  1
  Hf  Hf36  1  0.50847553  0.88880680  0.86767468  1
  Hf  Hf37  1  0.40382588  -0.00099196  0.74568573  1
  Hf  Hf38  1  0.51247953  0.70103934  0.13366992  1
  Hf  Hf39  1  0.29598878  0.09356061  0.40050626  1
  Zr  Zr40  1  0.69230642  0.49722261  0.86515779  1
  Zr  Zr41  1  0.20277841  0.60527684  0.75309520  1
  Zr  Zr42  1  0.51320511  0.71171178  0.36259426  1
  Zr  Zr43  1  0.50125278  0.49382143  0.12568054  1
  Zr  Zr44  1  0.68607485  0.10675713  0.11502584  1
  Zr  Zr45  1  0.09272833  0.70272742  0.62052309  1
  Zr  Zr46  1  0.92813552  0.89034048  0.87218185  1
  Zr  Zr47  1  -0.00818356  0.18492070  0.75524638  1
  Zr  Zr48  1  0.81268163  0.00383878  -0.01144372  1
  Zr  Zr49  1  0.29239478  0.50531504  0.62549004  1
  Zr  Zr50  1  -0.00346220  0.79247728  0.48425094  1
  Zr  Zr51  1  0.19184886  0.61538362  0.01854471  1
  Zr  Zr52  1  0.89684163  0.09415967  0.13130154  1
  Zr  Zr53  1  0.52461767  0.89066797  0.63581288  1
  Zr  Zr54  1  -0.01626500  0.59604694  0.49049968  1
  Zr  Zr55  1  0.69479053  0.50097990  0.63890551  1
  Zr  Zr56  1  0.42268431  0.79215084  0.51132668  1
  Zr  Zr57  1  0.21639996  0.01237395  0.24626374  1
  Zr  Zr58  1  0.28952461  0.29529001  0.38032450  1
  Zr  Zr59  1  0.40984683  0.00500406  -0.01241848  1
  Zr  Zr60  1  0.40048624  0.20335692  0.52454155  1
  Zr  Zr61  1  0.79649709  0.20586693  0.49740261  1
  Zr  Zr62  1  0.30280390  0.87527119  0.88089045  1
  Zr  Zr63  1  0.50865258  0.48952240  0.37655708  1
  Zr  Zr64  1  0.49460307  0.28182847  0.11677136  1
  Zr  Zr65  1  0.11019341  0.90388803  0.36229585  1
  Zr  Zr66  1  0.60205925  0.61252976  0.50011429  1
  Zr  Zr67  1  0.69441569  0.31741055  0.37568417  1
  Zr  Zr68  1  -0.01349525  0.39296518  0.23725858  1
  Zr  Zr69  1  0.91387465  0.88523799  0.63130145  1
  Zr  Zr70  1  0.79962776  0.41494825  0.50189360  1
  Zr  Zr71  1  0.49423959  0.09013839  0.39145190  1
  Zr  Zr72  1  0.71482982  0.91784786  0.63712465  1
  Zr  Zr73  1  -0.01013486  0.59136035  0.23031257  1
  Zr  Zr74  1  0.28277380  0.49781720  0.36558322  1
  Zr  Zr75  1  0.39410385  0.18219660  0.25288022  1
  Zr  Zr76  1  0.40518778  0.59436556  0.25139612  1
  Zr  Zr77  1  0.38986023  0.60393844  0.49276832  1
  Zr  Zr78  1  0.19928068  -0.00400032  0.74701853  1
  Zr  Zr79  1  0.79998356  0.60609539  0.75213529  1
  Ta  Ta80  1  0.29884730  0.89626826  0.61793048  1
  Ta  Ta81  1  0.10518853  0.69690179  0.34721897  1
  Ta  Ta82  1  0.89141272  0.30143960  0.87159575  1
  Ta  Ta83  1  0.68976813  0.51411738  0.11843839  1
  Ta  Ta84  1  0.52249847  0.10267735  0.63899846  1
  Ta  Ta85  1  0.49811195  0.50560927  0.63137913  1
  Ta  Ta86  1  0.50008959  0.29414674  0.38199127  1
  Ta  Ta87  1  0.60073076  0.78964782  -0.01019700  1
  Ta  Ta88  1  0.10634512  0.90064688  0.61662732  1
  Ta  Ta89  1  0.10365515  0.71231646  0.88223526  1
  Ta  Ta90  1  -0.00330997  0.39418187  0.50258067  1
  Ta  Ta91  1  0.89065566  0.09183490  0.61962094  1
  Ta  Ta92  1  0.62604972  0.79955123  0.24825306  1
  Ta  Ta93  1  0.59583435  0.40040472  -0.00982653  1
  Ta  Ta94  1  0.01358127  -0.01680971  0.01290482  1
  Ta  Ta95  1  0.20281956  -0.00480646  0.00321610  1
  Ta  Ta96  1  0.61921223  0.01313594  0.76682470  1
  Ta  Ta97  1  0.09722575  0.30093336  0.37940721  1
  Ta  Ta98  1  0.79825241  0.21675595  0.25698559  1
  Ta  Ta99  1  0.87507169  0.49565175  0.10965383  1
  Ta  Ta100  1  0.29146603  0.49947542  0.12835650  1
  Ta  Ta101  1  0.10181589  0.29772687  0.87311505  1
  Ta  Ta102  1  0.30128130  0.71634845  0.14581148  1
  Ta  Ta103  1  0.49078882  0.30417380  0.65038597  1
  Ta  Ta104  1  0.11140983  0.89158438  0.87979858  1
  Ta  Ta105  1  0.29828174  0.70515376  0.35128667  1
  Ta  Ta106  1  0.59029314  0.60027599  -0.01649322  1
  Ta  Ta107  1  -0.00343315  0.20655875  0.50312277  1
  Ta  Ta108  1  0.10561441  0.09306778  0.12210156  1
  Ta  Ta109  1  0.18924617  0.60189447  0.49182652  1
  Ta  Ta110  1  0.18705706  0.39797007  0.23302617  1
  Ta  Ta111  1  -0.00819212  0.60820140  0.01930062  1
  Ta  Ta112  1  0.10058274  0.30203356  0.63195315  1
  Ta  Ta113  1  0.09122582  0.49685142  0.61941779  1
  Ta  Ta114  1  0.59203034  -0.00699609  0.24606912  1
  Ta  Ta115  1  0.29739528  0.10290170  0.86861059  1
  Ta  Ta116  1  0.11563794  0.89032718  0.14080981  1
  Ta  Ta117  1  0.57642691  0.61371741  0.76305811  1
  Ta  Ta118  1  0.78966740  0.20694589  -0.01564386  1
  Ta  Ta119  1  0.10690569  0.28971105  0.11505638  1
  Ti  Ti120  1  0.02025406  0.79174999  0.02136546  1
  Ti  Ti121  1  0.89197120  0.68971804  0.35497003  1
  Ti  Ti122  1  0.59709889  0.19806114  0.51122072  1
  Ti  Ti123  1  0.29480140  0.50468074  0.88082536  1
  Ti  Ti124  1  0.91597816  0.89581207  0.14213488  1
  Ti  Ti125  1  0.79853536  0.79227621  0.49396825  1
  Ti  Ti126  1  0.88757015  0.70490357  0.13109783  1
  Ti  Ti127  1  0.78852107  0.18721911  0.76108313  1
  Ti  Ti128  1  0.19032254  0.40131437  0.50668688  1
  Ti  Ti129  1  0.58778266  0.19963469  -0.01388056  1
  Ti  Ti130  1  0.41177724  -0.00622301  0.24439849  1
  Ti  Ti131  1  0.29614534  0.10596302  0.63155325  1
  Ti  Ti132  1  0.78102309  0.60532970  0.24027192  1
  Ti  Ti133  1  -0.00042274  -0.00338244  0.49746233  1
  Ti  Ti134  1  0.20081315  0.79368949  0.74220029  1
  Ti  Ti135  1  0.69814955  0.70539750  0.87062485  1
  Ti  Ti136  1  0.60618812  0.40999622  0.25054371  1
  Ti  Ti137  1  0.20112190  0.39639666  0.00632455  1
  Ti  Ti138  1  0.20353291  0.20071272  -0.00448101  1
  Ti  Ti139  1  0.52574955  0.90507653  0.38394257  1
  Ti  Ti140  1  0.20355925  0.20862226  0.24480024  1
  Ti  Ti141  1  0.70858689  0.51843394  0.36956796  1
  Ti  Ti142  1  0.19441227  0.40360677  0.74895299  1
  Ti  Ti143  1  0.39271925  0.59831953  0.76273558  1
  Ti  Ti144  1  0.91171803  0.69779663  0.88526787  1
  Ti  Ti145  1  0.31121343  0.89602751  0.12066921  1
  Ti  Ti146  1  0.39383966  0.41242906  0.75249974  1
  Ti  Ti147  1  0.89850454  0.50604988  0.62960223  1
  Ti  Ti148  1  0.70939965  0.89452891  0.87320008  1
  Ti  Ti149  1  0.41188320  -0.00003695  0.52555788  1
  Ti  Ti150  1  0.49369800  0.30721307  0.85544414  1
  Ti  Ti151  1  0.60575693  0.00443720  -0.01825897  1
  Ti  Ti152  1  0.59191816  0.39460663  0.51072237  1
  Ti  Ti153  1  0.78548240  0.60513389  -0.00014575  1
  Ti  Ti154  1  0.49774931  0.11369509  0.85833190  1
  Ti  Ti155  1  0.79881929  0.61028398  0.50192033  1
  Ti  Ti156  1  0.19670765  0.21182826  0.51564375  1
  Ti  Ti157  1  0.81594100  0.79372161  0.75706121  1
  Ti  Ti158  1  0.39795062  0.20390164  -0.01366451  1
  Ti  Ti159  1  0.90093566  0.31344166  0.37236767  1
  Mo  Mo160  1  0.48996872  0.70067029  0.87940294  1
  Mo  Mo161  1  0.62367979  0.81509097  0.49504901  1
  Mo  Mo162  1  0.58513212  0.41006679  0.75031999  1
  Mo  Mo163  1  0.28866701  0.30203593  0.64601749  1
  Mo  Mo164  1  0.69455145  0.10095534  0.88574064  1
  Mo  Mo165  1  0.80523114  0.39562484  0.74789442  1
  Mo  Mo166  1  0.09397394  0.49291337  0.11288445  1
  Mo  Mo167  1  0.80359565  0.79199246  0.23970380  1
  Mo  Mo168  1  0.61271559  0.79962123  0.76709269  1
  Mo  Mo169  1  0.88705591  0.69717238  0.62279644  1
  Mo  Mo170  1  0.48770558  0.49550238  0.87415811  1
  Mo  Mo171  1  0.20656580  -0.00045583  0.51282117  1
  Mo  Mo172  1  0.29492130  0.70156110  0.61879676  1
  Mo  Mo173  1  0.79496124  0.41607102  0.25056826  1
  Mo  Mo174  1  0.01405044  0.79943505  0.75194299  1
  Mo  Mo175  1  0.78827179  0.40037618  -0.00493376  1
  Mo  Mo176  1  0.61207427  0.59807111  0.25363496  1
  Mo  Mo177  1  0.19463547  0.20492337  0.74687467  1
  Mo  Mo178  1  0.69877772  0.69630055  0.11159539  1
  Mo  Mo179  1  0.00246952  0.79438875  0.24329520  1
  Mo  Mo180  1  0.28902289  0.69795386  0.87817818  1
  Mo  Mo181  1  0.59440809  0.19709496  0.75727488  1
  Mo  Mo182  1  0.70852697  0.10395350  0.62809407  1
  Mo  Mo183  1  0.69808028  0.89331439  0.37264818  1
  Mo  Mo184  1  0.00815601  -0.00838825  0.74325972  1
  Mo  Mo185  1  0.71584036  0.70628000  0.37429079  1
  Mo  Mo186  1  0.42190176  0.81922383  0.25213991  1
  Mo  Mo187  1  0.10178798  0.70293749  0.14535563  1
  Mo  Mo188  1  0.90378464  0.10205444  0.88336150  1
  Mo  Mo189  1  0.60223708  0.00581825  0.50868439  1
  Mo  Mo190  1  0.19674962  0.59647144  0.23443139  1
  Mo  Mo191  1  0.21774476  0.80768690  0.25459370  1
  Mo  Mo192  1  0.50129040  0.68695680  0.63005021  1
  Mo  Mo193  1  0.50781715  0.09243024  0.11469553  1
  Mo  Mo194  1  0.29123351  0.29964841  0.11689398  1
  Mo  Mo195  1  0.00623166  0.00100810  0.23802572  1
  Mo  Mo196  1  0.88404482  0.49954423  0.36817545  1
  Mo  Mo197  1  0.39369737  0.19636593  0.74306579  1
  Mo  Mo198  1  0.20043762  0.80603462  0.01347262  1
  Mo  Mo199  1  0.40064512  0.79179257  0.00610931  1
