# generated using pymatgen
data_HfZrTaTiMo
_symmetry_space_group_name_H-M   'P 1'
_cell_length_a   15.22384072
_cell_length_b   15.21191869
_cell_length_c   16.85624240
_cell_angle_alpha   89.99385289
_cell_angle_beta   89.95278316
_cell_angle_gamma   90.00559544
_symmetry_Int_Tables_number   1
_chemical_formula_structural   HfZrTaTiMo
_chemical_formula_sum   'Hf40 Zr40 Ta40 Ti40 Mo40'
_cell_volume   3903.63176176
_cell_formula_units_Z   40
loop_
 _symmetry_equiv_pos_site_id
 _symmetry_equiv_pos_as_xyz
  1  'x, y, z'
loop_
 _atom_site_type_symbol
 _atom_site_label
 _atom_site_symmetry_multiplicity
 _atom_site_fract_x
 _atom_site_fract_y
 _atom_site_fract_z
 _atom_site_occupancy
  Hf  Hf0  1  0.00840430  0.39191919  -0.00281152  1
  Hf  Hf1  1  0.59381896  0.80236491  0.75569157  1
  Hf  Hf2  1  0.02758827  0.60771776  0.74451559  1
  Hf  Hf3  1  0.49514760  0.70473512  0.62724393  1
  Hf  Hf4  1  0.49107018  0.08268399  0.87774332  1
  Hf  Hf5  1  0.69571471  0.90391936  0.62891477  1
  Hf  Hf6  1  0.78870906  0.00460369  0.25145001  1
  Hf  Hf7  1  0.68461626  0.89414937  0.36307192  1
  Hf  Hf8  1  0.79233867  0.40346262  0.74723179  1
  Hf  Hf9  1  0.11618155  0.50845333  0.88016628  1
  Hf  Hf10  1  0.92120939  0.70945043  0.61545273  1
  Hf  Hf11  1  0.29564264  0.91812370  0.87150668  1
  Hf  Hf12  1  0.70815034  0.70230540  0.86793013  1
  Hf  Hf13  1  0.49713134  0.50058652  0.38550954  1
  Hf  Hf14  1  0.30274477  0.49824030  0.39112263  1
  Hf  Hf15  1  0.02103391  0.38477575  0.24956185  1
  Hf  Hf16  1  0.38007578  0.20803719  0.00114428  1
  Hf  Hf17  1  0.88327761  0.89470073  0.87848867  1
  Hf  Hf18  1  0.68214674  0.09473441  0.12144062  1
  Hf  Hf19  1  0.78800599  0.01043323  0.48972747  1
  Hf  Hf20  1  0.91252204  0.28582503  0.37301867  1
  Hf  Hf21  1  0.33560457  0.50177653  0.88645764  1
  Hf  Hf22  1  0.09337136  0.89716665  0.87342308  1
  Hf  Hf23  1  0.80429684  0.60781828  -0.00393880  1
  Hf  Hf24  1  0.50120935  0.29460840  0.37704890  1
  Hf  Hf25  1  0.11088013  0.28653534  0.86816760  1
  Hf  Hf26  1  0.91519307  0.91769629  0.35790642  1
  Hf  Hf27  1  0.90357249  0.49782400  0.60996017  1
  Hf  Hf28  1  0.91800087  0.70012373  0.87416264  1
  Hf  Hf29  1  -0.00530927  0.20591224  0.73841263  1
  Hf  Hf30  1  0.60404290  0.58245386  0.74163809  1
  Hf  Hf31  1  0.60377084  0.19743900  0.50040979  1
  Hf  Hf32  1  0.20966939  0.60743298  0.26028223  1
  Hf  Hf33  1  0.79255785  0.00208753  0.75109323  1
  Hf  Hf34  1  0.31317096  0.50694979  0.11675121  1
  Hf  Hf35  1  0.11784242  0.49243461  0.11719343  1
  Hf  Hf36  1  0.30464901  0.08753823  0.63418769  1
  Hf  Hf37  1  0.48522628  0.08684243  0.36945765  1
  Hf  Hf38  1  0.89070717  0.88898187  0.13782224  1
  Hf  Hf39  1  0.67984104  0.91051347  0.88586011  1
  Zr  Zr40  1  0.09773237  0.89244162  0.61709555  1
  Zr  Zr41  1  0.28839948  0.11471866  0.85878303  1
  Zr  Zr42  1  0.90091385  0.69707448  0.36297925  1
  Zr  Zr43  1  0.21446343  0.40302637  0.74805526  1
  Zr  Zr44  1  0.30021867  0.50710547  0.60901654  1
  Zr  Zr45  1  0.90389713  0.10269480  0.87721916  1
  Zr  Zr46  1  0.10715120  0.90161470  0.12290740  1
  Zr  Zr47  1  0.18226693  0.20574009  0.25579595  1
  Zr  Zr48  1  0.89735956  0.09747886  0.12526145  1
  Zr  Zr49  1  0.60757410  0.79114508  0.50269282  1
  Zr  Zr50  1  0.40034491  0.80355833  0.26181784  1
  Zr  Zr51  1  0.02885391  0.79701150  0.26001555  1
  Zr  Zr52  1  0.79548559  0.40443852  0.00140365  1
  Zr  Zr53  1  0.58229720  -0.00323688  0.49724116  1
  Zr  Zr54  1  0.00862500  0.00611177  0.00097958  1
  Zr  Zr55  1  0.80937110  0.80978867  0.48954745  1
  Zr  Zr56  1  0.81571392  0.60146569  0.74629717  1
  Zr  Zr57  1  0.90580231  0.49428541  0.38444358  1
  Zr  Zr58  1  0.60045652  0.20322887  0.75734401  1
  Zr  Zr59  1  0.38791679  0.79845374  0.75726912  1
  Zr  Zr60  1  0.59673167  0.39418188  0.25226479  1
  Zr  Zr61  1  0.39251269  0.19816287  0.24918059  1
  Zr  Zr62  1  0.80509519  0.40169615  0.25063702  1
  Zr  Zr63  1  0.18778916  0.78650280  0.75007036  1
  Zr  Zr64  1  0.90961261  0.69416241  0.13918314  1
  Zr  Zr65  1  0.59214376  0.79076776  -0.00078612  1
  Zr  Zr66  1  0.00158838  0.78951813  0.00686014  1
  Zr  Zr67  1  0.79044195  0.60711986  0.50182330  1
  Zr  Zr68  1  0.70181626  0.10711622  0.88990021  1
  Zr  Zr69  1  0.39491442  0.79759019  -0.01178309  1
  Zr  Zr70  1  0.00175381  0.40404520  0.74365549  1
  Zr  Zr71  1  0.69820511  0.29740692  0.12558129  1
  Zr  Zr72  1  0.00224366  0.21967691  0.52192944  1
  Zr  Zr73  1  0.07168796  0.10381601  0.37337608  1
  Zr  Zr74  1  -0.00818457  0.00587437  0.50813741  1
  Zr  Zr75  1  0.58634313  0.20423074  -0.00227759  1
  Zr  Zr76  1  0.70203569  0.70094772  0.12386311  1
  Zr  Zr77  1  0.28676680  0.30268597  0.13084797  1
  Zr  Zr78  1  0.90536662  0.49978420  0.12771299  1
  Zr  Zr79  1  0.69500137  0.50518440  0.38000875  1
  Ta  Ta80  1  0.50295714  0.50435362  0.12420236  1
  Ta  Ta81  1  0.10895771  0.09851637  0.63713313  1
  Ta  Ta82  1  0.40250828  0.59442323  0.74087129  1
  Ta  Ta83  1  0.19263948  0.38105180  0.50261843  1
  Ta  Ta84  1  0.01998550  0.58727138  0.25575506  1
  Ta  Ta85  1  0.39613011  0.19246512  0.50211840  1
  Ta  Ta86  1  0.28421344  0.09615596  0.38581190  1
  Ta  Ta87  1  0.49406743  0.89850598  0.12436384  1
  Ta  Ta88  1  0.89382867  0.30103610  0.87641427  1
  Ta  Ta89  1  0.88580159  0.10424493  0.63038583  1
  Ta  Ta90  1  0.41333352  0.40583356  0.73815597  1
  Ta  Ta91  1  0.48620962  0.31737567  0.87826053  1
  Ta  Ta92  1  0.10148620  0.50366876  0.60248786  1
  Ta  Ta93  1  0.91265449  0.29078033  0.12805930  1
  Ta  Ta94  1  0.20503902  0.40709693  0.26351801  1
  Ta  Ta95  1  0.01916655  0.79747060  0.47685011  1
  Ta  Ta96  1  0.19442668  -0.00429010  0.25758227  1
  Ta  Ta97  1  0.39947427  0.21351645  0.75043673  1
  Ta  Ta98  1  0.49798841  0.29521743  0.62127586  1
  Ta  Ta99  1  0.70517782  0.29441271  0.62364200  1
  Ta  Ta100  1  0.80080107  0.38518125  0.50420489  1
  Ta  Ta101  1  -0.00371841  -0.00268717  0.74131406  1
  Ta  Ta102  1  0.29644658  0.90468642  0.12211070  1
  Ta  Ta103  1  0.60376563  0.39966494  0.51250270  1
  Ta  Ta104  1  0.59702062  0.58442491  -0.00779377  1
  Ta  Ta105  1  0.90556321  0.49834534  0.87686325  1
  Ta  Ta106  1  0.48999112  0.67895275  0.86966260  1
  Ta  Ta107  1  0.21834843  0.38382679  -0.01105817  1
  Ta  Ta108  1  0.59223105  0.60241238  0.24820740  1
  Ta  Ta109  1  0.40781515  0.81200689  0.49307863  1
  Ta  Ta110  1  0.30650232  0.70885107  0.12536913  1
  Ta  Ta111  1  0.59433446  0.79291249  0.24355754  1
  Ta  Ta112  1  0.49345433  0.30705776  0.12572285  1
  Ta  Ta113  1  0.10075759  0.49848416  0.39477499  1
  Ta  Ta114  1  0.48330785  0.91144849  0.62962847  1
  Ta  Ta115  1  0.71323857  0.70497317  0.63801716  1
  Ta  Ta116  1  0.29331842  0.89236825  0.61327633  1
  Ta  Ta117  1  0.51147920  0.69896799  0.38123162  1
  Ta  Ta118  1  0.10548817  0.09073370  0.85463349  1
  Ta  Ta119  1  0.68818756  0.32180187  0.88016559  1
  Ti  Ti120  1  0.57942113  -0.00402987  0.24495058  1
  Ti  Ti121  1  -0.01103793  0.80373921  0.74872078  1
  Ti  Ti122  1  0.29763146  0.28993629  0.62373681  1
  Ti  Ti123  1  0.49661548  0.10191191  0.63048640  1
  Ti  Ti124  1  0.12711389  0.69453872  0.59772567  1
  Ti  Ti125  1  0.30375573  0.70348487  0.39211272  1
  Ti  Ti126  1  0.39661602  0.40812985  0.25384492  1
  Ti  Ti127  1  0.79228870  -0.00956615  0.00958411  1
  Ti  Ti128  1  0.79497601  0.20837270  0.75336427  1
  Ti  Ti129  1  0.68640371  0.11094167  0.36092601  1
  Ti  Ti130  1  0.40549106  0.60672583  0.25393110  1
  Ti  Ti131  1  0.59752310  0.39698172  0.73705590  1
  Ti  Ti132  1  0.58640016  0.00132694  0.74920138  1
  Ti  Ti133  1  0.21291345  0.80495213  0.26615866  1
  Ti  Ti134  1  0.69397785  0.10259565  0.62801180  1
  Ti  Ti135  1  0.00459901  0.20088599  -0.00182984  1
  Ti  Ti136  1  0.69576340  0.50225840  0.12745468  1
  Ti  Ti137  1  0.09866983  0.10612913  0.13431914  1
  Ti  Ti138  1  0.48458439  0.09923588  0.12774320  1
  Ti  Ti139  1  0.60033543  0.59590141  0.51800620  1
  Ti  Ti140  1  0.69158060  0.89638292  0.12454831  1
  Ti  Ti141  1  0.89281856  0.90108688  0.62493376  1
  Ti  Ti142  1  0.38259560  -0.00165584  0.24435964  1
  Ti  Ti143  1  0.40290946  0.38884939  0.50845917  1
  Ti  Ti144  1  0.20184703  0.79998332  -0.00742259  1
  Ti  Ti145  1  0.80540605  0.20562806  0.00161184  1
  Ti  Ti146  1  0.01421300  0.59760826  0.00037548  1
  Ti  Ti147  1  0.29754452  0.29591250  0.38158164  1
  Ti  Ti148  1  0.30478920  0.91404994  0.39089239  1
  Ti  Ti149  1  0.40576083  0.60961051  0.50663441  1
  Ti  Ti150  1  0.19711397  0.19248140  0.50449610  1
  Ti  Ti151  1  0.21753135  0.61278279  -0.00564242  1
  Ti  Ti152  1  0.79549745  0.20129219  0.25087906  1
  Ti  Ti153  1  0.70287226  0.29744343  0.37549478  1
  Ti  Ti154  1  0.18931420  0.18415820  0.00518686  1
  Ti  Ti155  1  0.21991871  0.60431366  0.74926173  1
  Ti  Ti156  1  0.80111244  0.19733490  0.49756903  1
  Ti  Ti157  1  0.79197423  0.60454125  0.25310218  1
  Ti  Ti158  1  0.11769513  0.69387509  0.12563086  1
  Ti  Ti159  1  0.39021430  0.00366519  0.00831315  1
  Mo  Mo160  1  0.49417949  0.90249235  0.87340167  1
  Mo  Mo161  1  0.11874921  0.90998742  0.38198809  1
  Mo  Mo162  1  0.00521606  0.60640961  0.49626151  1
  Mo  Mo163  1  0.00484792  0.00640270  0.24575204  1
  Mo  Mo164  1  -0.01093179  0.19564532  0.24473613  1
  Mo  Mo165  1  0.59837070  0.18850875  0.24826331  1
  Mo  Mo166  1  0.78771708  0.79686607  0.25602717  1
  Mo  Mo167  1  0.30309310  0.30610255  0.87088048  1
  Mo  Mo168  1  0.79626136  0.80511995  0.00236879  1
  Mo  Mo169  1  0.11036644  0.30305739  0.38156489  1
  Mo  Mo170  1  0.09996936  0.29582812  0.11492414  1
  Mo  Mo171  1  0.80269490  0.80647071  0.74425023  1
  Mo  Mo172  1  0.19368906  -0.00820157  0.74288489  1
  Mo  Mo173  1  0.28559046  0.08620052  0.12489085  1
  Mo  Mo174  1  0.87887913  0.10855284  0.37152098  1
  Mo  Mo175  1  0.49945869  0.49473135  0.61378716  1
  Mo  Mo176  1  0.11295272  0.69387626  0.38113800  1
  Mo  Mo177  1  0.40341711  -0.00046462  0.74647138  1
  Mo  Mo178  1  0.21030962  0.80600071  0.48706852  1
  Mo  Mo179  1  0.57949135  -0.00711896  0.01588759  1
  Mo  Mo180  1  0.52153100  0.49141843  0.86986136  1
  Mo  Mo181  1  0.20400290  0.00800599  0.00216462  1
  Mo  Mo182  1  0.70107268  0.49491930  0.61636549  1
  Mo  Mo183  1  0.30461432  0.70757752  0.61023764  1
  Mo  Mo184  1  0.41258243  0.40120385  0.00633225  1
  Mo  Mo185  1  0.88934131  0.29716601  0.62541195  1
  Mo  Mo186  1  0.19686557  0.00635086  0.49942645  1
  Mo  Mo187  1  0.49162501  0.89617854  0.36832702  1
  Mo  Mo188  1  0.10938022  0.69630939  0.87902700  1
  Mo  Mo189  1  0.59689051  0.40327087  0.00638734  1
  Mo  Mo190  1  0.41298378  0.60831098  0.00491773  1
  Mo  Mo191  1  0.49125027  0.69180892  0.12684489  1
  Mo  Mo192  1  0.29420961  0.69097407  0.87540400  1
  Mo  Mo193  1  0.39252172  0.00293614  0.50195768  1
  Mo  Mo194  1  0.69329363  0.69719978  0.36250999  1
  Mo  Mo195  1  0.10983750  0.30447116  0.63226722  1
  Mo  Mo196  1  0.20620839  0.60179234  0.48936282  1
  Mo  Mo197  1  0.70351386  0.50040018  0.87444334  1
  Mo  Mo198  1  0.00082075  0.39934677  0.50582340  1
  Mo  Mo199  1  0.19946584  0.20460117  0.73690993  1
