# generated using pymatgen
data_HfZrTaTiMo
_symmetry_space_group_name_H-M   'P 1'
_cell_length_a   15.20749988
_cell_length_b   15.21619363
_cell_length_c   16.87058785
_cell_angle_alpha   89.96071785
_cell_angle_beta   90.05420971
_cell_angle_gamma   89.94006014
_symmetry_Int_Tables_number   1
_chemical_formula_structural   HfZrTaTiMo
_chemical_formula_sum   'Hf40 Zr40 Ta40 Ti40 Mo40'
_cell_volume   3903.85365689
_cell_formula_units_Z   40
loop_
 _symmetry_equiv_pos_site_id
 _symmetry_equiv_pos_as_xyz
  1  'x, y, z'
loop_
 _atom_site_type_symbol
 _atom_site_label
 _atom_site_symmetry_multiplicity
 _atom_site_fract_x
 _atom_site_fract_y
 _atom_site_fract_z
 _atom_site_occupancy
  Hf  Hf0  1  0.78247045  0.79734656  0.75853639  1
  Hf  Hf1  1  0.49846671  0.30438951  0.12657507  1
  Hf  Hf2  1  0.48835203  0.30389100  0.86460464  1
  Hf  Hf3  1  0.89786646  0.68088280  0.87322612  1
  Hf  Hf4  1  0.81029008  0.80433432  0.49821763  1
  Hf  Hf5  1  0.60042669  0.20444198  0.00137791  1
  Hf  Hf6  1  0.21151889  -0.01288279  0.51054794  1
  Hf  Hf7  1  0.50879289  0.50505398  0.87254474  1
  Hf  Hf8  1  0.60617784  -0.00637376  0.75143585  1
  Hf  Hf9  1  0.50264930  0.90731256  0.89172186  1
  Hf  Hf10  1  0.28198400  0.30650318  0.13111486  1
  Hf  Hf11  1  0.71058720  0.29589035  0.87235027  1
  Hf  Hf12  1  0.69652584  0.48714029  0.61154331  1
  Hf  Hf13  1  0.80810193  0.38798686  0.74244805  1
  Hf  Hf14  1  0.39769877  0.40498206  0.00076799  1
  Hf  Hf15  1  0.21888187  0.40830686  0.51301192  1
  Hf  Hf16  1  0.58893360  0.59080798  0.48913277  1
  Hf  Hf17  1  0.10332211  0.90700593  0.12117947  1
  Hf  Hf18  1  0.39049790  0.20190113  0.24424955  1
  Hf  Hf19  1  0.71679821  0.50963282  0.87956117  1
  Hf  Hf20  1  0.08683061  0.09963908  0.85993686  1
  Hf  Hf21  1  0.42221438  0.00923015  0.50176289  1
  Hf  Hf22  1  0.10808434  0.90706203  0.86968396  1
  Hf  Hf23  1  0.10113418  0.49383690  0.38224267  1
  Hf  Hf24  1  0.60620492  0.61870058  0.01372746  1
  Hf  Hf25  1  0.08235836  0.31206769  0.85004298  1
  Hf  Hf26  1  0.90135597  0.09004164  0.37458855  1
  Hf  Hf27  1  0.61055920  0.60367381  0.74598269  1
  Hf  Hf28  1  0.21379027  0.60535990  0.26083459  1
  Hf  Hf29  1  0.21181056  0.20725224  0.74645350  1
  Hf  Hf30  1  0.90080675  0.47887889  0.13131776  1
  Hf  Hf31  1  0.90176485  0.90565176  0.86218150  1
  Hf  Hf32  1  0.18195740  0.20875776  0.25843685  1
  Hf  Hf33  1  0.21233307  -0.00083126  0.25831249  1
  Hf  Hf34  1  0.20992784  0.79374082  -0.00351238  1
  Hf  Hf35  1  0.78345785  0.18984434  0.49052399  1
  Hf  Hf36  1  0.69667034  0.71137556  0.37045193  1
  Hf  Hf37  1  0.30403904  0.50379330  0.13464345  1
  Hf  Hf38  1  0.30188704  0.12287639  0.39403492  1
  Hf  Hf39  1  0.59728395  0.18436680  0.24797331  1
  Zr  Zr40  1  0.80767087  0.59252143  0.73859325  1
  Zr  Zr41  1  0.88871275  0.29898226  0.60849630  1
  Zr  Zr42  1  0.19105118  0.62192728  0.50301072  1
  Zr  Zr43  1  0.09539658  0.09657999  0.39288642  1
  Zr  Zr44  1  0.50439037  0.90045555  0.13248313  1
  Zr  Zr45  1  0.49304444  0.70051654  0.35464025  1
  Zr  Zr46  1  0.49753703  0.10114725  0.88136709  1
  Zr  Zr47  1  0.39677457  0.62170104  0.75330745  1
  Zr  Zr48  1  0.49300892  0.70091640  0.61727877  1
  Zr  Zr49  1  0.69562538  0.09476183  0.12074358  1
  Zr  Zr50  1  0.50943681  0.71263933  0.87818046  1
  Zr  Zr51  1  -0.00638312  0.59550156  0.24854907  1
  Zr  Zr52  1  0.29430899  0.09155837  0.10865376  1
  Zr  Zr53  1  0.61100258  0.40939601  0.00600146  1
  Zr  Zr54  1  0.10538609  0.89640989  0.37341880  1
  Zr  Zr55  1  0.52346078  0.90703889  0.35798937  1
  Zr  Zr56  1  0.00127582  0.58712208  0.00654024  1
  Zr  Zr57  1  0.09810272  0.50718001  0.86784787  1
  Zr  Zr58  1  -0.01633453  0.21635252  -0.00730831  1
  Zr  Zr59  1  0.09890104  0.29492982  0.40036687  1
  Zr  Zr60  1  0.38395037  0.81013055  0.48229107  1
  Zr  Zr61  1  0.09152540  0.10547929  0.12530491  1
  Zr  Zr62  1  0.31303618  0.12731259  0.61242307  1
  Zr  Zr63  1  0.38631221  0.59291266  0.48794498  1
  Zr  Zr64  1  0.89708654  0.10176357  0.13989860  1
  Zr  Zr65  1  0.70087123  0.70408148  0.61355397  1
  Zr  Zr66  1  -0.00604806  0.79985476  -0.00494296  1
  Zr  Zr67  1  0.61305724  0.38949363  0.25230422  1
  Zr  Zr68  1  0.29405303  0.08580523  0.88157833  1
  Zr  Zr69  1  0.90047622  0.88407711  0.63930227  1
  Zr  Zr70  1  0.80084030  0.58876387  0.25958414  1
  Zr  Zr71  1  0.80464806  0.59574433  0.49122458  1
  Zr  Zr72  1  0.10358433  0.69734307  0.12781152  1
  Zr  Zr73  1  0.18775364  0.20511830  -0.01401582  1
  Zr  Zr74  1  0.80880334  -0.00581931  -0.00281531  1
  Zr  Zr75  1  0.18847146  0.40200829  -0.00549342  1
  Zr  Zr76  1  0.09761043  0.70762174  0.36516219  1
  Zr  Zr77  1  0.39585955  -0.00189521  0.74156810  1
  Zr  Zr78  1  0.30172609  0.49705955  0.86233458  1
  Zr  Zr79  1  0.78252577  -0.01696000  0.25644956  1
  Ta  Ta80  1  0.79282802  0.21165730  0.27154996  1
  Ta  Ta81  1  0.51629354  0.10861291  0.62945350  1
  Ta  Ta82  1  0.69123557  0.90693759  0.62102585  1
  Ta  Ta83  1  0.39126652  0.20779294  -0.00087165  1
  Ta  Ta84  1  0.31300744  0.70587656  0.13426212  1
  Ta  Ta85  1  0.29167029  0.72524557  0.62443770  1
  Ta  Ta86  1  0.70131822  0.09072146  0.87968212  1
  Ta  Ta87  1  0.79761014  -0.00305544  0.50597895  1
  Ta  Ta88  1  0.60671000  0.19625630  0.75255035  1
  Ta  Ta89  1  0.10107548  0.30298946  0.61901412  1
  Ta  Ta90  1  0.19368826  0.61330278  0.73916663  1
  Ta  Ta91  1  0.67834689  0.28723616  0.62181953  1
  Ta  Ta92  1  -0.00317789  -0.01435880  0.51991428  1
  Ta  Ta93  1  0.49883231  0.51111769  0.14056032  1
  Ta  Ta94  1  0.07982041  0.30589924  0.13236715  1
  Ta  Ta95  1  0.70903378  0.70673253  0.13873685  1
  Ta  Ta96  1  0.58017230  0.38439359  0.49349870  1
  Ta  Ta97  1  0.00152559  0.00161286  0.73062790  1
  Ta  Ta98  1  0.89395994  0.88488930  0.12523129  1
  Ta  Ta99  1  -0.01811719  0.20013782  0.73059509  1
  Ta  Ta100  1  0.71921533  0.30219535  0.12723123  1
  Ta  Ta101  1  0.40482787  0.01092795  0.25286062  1
  Ta  Ta102  1  0.01605781  0.78856629  0.51034059  1
  Ta  Ta103  1  0.59870823  0.81580670  0.49663945  1
  Ta  Ta104  1  0.48331459  0.48656672  0.35639591  1
  Ta  Ta105  1  0.79057152  0.78343926  -0.00369721  1
  Ta  Ta106  1  0.89114056  0.11179609  0.86085739  1
  Ta  Ta107  1  0.58626273  0.19194123  0.49603968  1
  Ta  Ta108  1  0.22096874  0.80110997  0.76213486  1
  Ta  Ta109  1  0.10193216  0.10136820  0.62063174  1
  Ta  Ta110  1  0.60068922  0.39758613  0.74665373  1
  Ta  Ta111  1  0.40052215  0.60662841  0.00257418  1
  Ta  Ta112  1  0.49236042  0.48646117  0.62962437  1
  Ta  Ta113  1  0.69286963  0.48508840  0.37687878  1
  Ta  Ta114  1  0.40913018  0.79233011  0.01085378  1
  Ta  Ta115  1  0.00302696  0.58757734  0.74161218  1
  Ta  Ta116  1  0.79805970  0.01412257  0.74044882  1
  Ta  Ta117  1  0.30460828  0.51171549  0.63557383  1
  Ta  Ta118  1  0.30416274  0.32770187  0.37140242  1
  Ta  Ta119  1  0.10611796  0.48704434  0.13769216  1
  Ti  Ti120  1  0.30276606  0.90314156  0.11733333  1
  Ti  Ti121  1  0.11012031  0.69696296  0.87433321  1
  Ti  Ti122  1  0.21081258  0.59992554  0.00310892  1
  Ti  Ti123  1  -0.00698157  0.18850646  0.51447832  1
  Ti  Ti124  1  0.09291325  0.50692936  0.61623016  1
  Ti  Ti125  1  0.50596354  0.70757936  0.14583033  1
  Ti  Ti126  1  0.89750859  0.29211895  0.14246615  1
  Ti  Ti127  1  0.37560599  0.81237833  0.25790611  1
  Ti  Ti128  1  -0.00069950  0.38332185  0.26325075  1
  Ti  Ti129  1  0.60373567  0.59834964  0.25153264  1
  Ti  Ti130  1  -0.00213164  0.80160991  0.24053255  1
  Ti  Ti131  1  0.69492271  0.89490904  0.11523880  1
  Ti  Ti132  1  0.90168396  0.29861628  0.38645492  1
  Ti  Ti133  1  0.69317030  0.89027009  0.88706803  1
  Ti  Ti134  1  0.82138295  0.38926965  -0.00292225  1
  Ti  Ti135  1  0.90916289  0.89434840  0.37836105  1
  Ti  Ti136  1  0.81270265  0.79355882  0.25480800  1
  Ti  Ti137  1  0.58858735  0.80158998  0.74558181  1
  Ti  Ti138  1  0.80035719  0.20020582  -0.00019280  1
  Ti  Ti139  1  0.90651829  0.49400156  0.60797855  1
  Ti  Ti140  1  0.01363809  0.78448427  0.75147543  1
  Ti  Ti141  1  -0.00011774  0.00617692  -0.00313716  1
  Ti  Ti142  1  0.91450368  0.68876553  0.62161104  1
  Ti  Ti143  1  -0.00164295  -0.00424687  0.24965894  1
  Ti  Ti144  1  0.91343754  0.47192710  0.86978738  1
  Ti  Ti145  1  0.20175772  -0.00132533  0.73356179  1
  Ti  Ti146  1  0.91038978  0.69768989  0.38173584  1
  Ti  Ti147  1  0.48313928  0.29519389  0.63510391  1
  Ti  Ti148  1  0.68510161  0.08238532  0.37723698  1
  Ti  Ti149  1  0.70433599  0.49543911  0.13400275  1
  Ti  Ti150  1  0.49402131  0.09074766  0.10892947  1
  Ti  Ti151  1  0.80493455  0.59507472  0.01422623  1
  Ti  Ti152  1  0.19933939  0.40819852  0.73439329  1
  Ti  Ti153  1  0.49807835  0.10426501  0.37392497  1
  Ti  Ti154  1  0.11628772  0.88038998  0.63256833  1
  Ti  Ti155  1  0.78574845  0.38916167  0.48812200  1
  Ti  Ti156  1  0.31195556  0.89183307  0.88500923  1
  Ti  Ti157  1  0.49246299  0.29561750  0.36928028  1
  Ti  Ti158  1  0.49520577  0.89649738  0.62328737  1
  Ti  Ti159  1  0.90443966  0.48798687  0.38597896  1
  Mo  Mo160  1  0.41054614  0.22863839  0.49581511  1
  Mo  Mo161  1  0.29109913  0.71910870  0.36562010  1
  Mo  Mo162  1  0.69919361  0.09989561  0.62285307  1
  Mo  Mo163  1  0.40529313  0.60583445  0.25012533  1
  Mo  Mo164  1  0.31187336  0.32159548  0.63136078  1
  Mo  Mo165  1  -0.00208846  0.40200530  0.50510994  1
  Mo  Mo166  1  0.39570775  0.40283671  0.74802957  1
  Mo  Mo167  1  0.59543276  0.00522142  0.24652957  1
  Mo  Mo168  1  0.40455387  0.20626821  0.75352896  1
  Mo  Mo169  1  0.40193223  0.81037110  0.75173101  1
  Mo  Mo170  1  -0.00470660  0.39492816  0.00438648  1
  Mo  Mo171  1  -0.00361381  0.59908829  0.50113111  1
  Mo  Mo172  1  0.89794650  0.29747751  0.86299340  1
  Mo  Mo173  1  0.79099571  0.19352332  0.74155806  1
  Mo  Mo174  1  0.18998763  0.40186961  0.25495941  1
  Mo  Mo175  1  0.19093861  -0.01197656  -0.00753900  1
  Mo  Mo176  1  0.09759857  0.70356329  0.63607993  1
  Mo  Mo177  1  -0.01373873  0.20261406  0.26126618  1
  Mo  Mo178  1  0.60522851  -0.00172447  -0.00223675  1
  Mo  Mo179  1  0.39665440  0.40081105  0.24531849  1
  Mo  Mo180  1  0.30586248  0.90509341  0.63025785  1
  Mo  Mo181  1  0.60701214  0.00323178  0.50548709  1
  Mo  Mo182  1  0.30659769  0.91553606  0.37062264  1
  Mo  Mo183  1  0.62740835  0.80711455  0.24460552  1
  Mo  Mo184  1  0.29985425  0.50502962  0.36860375  1
  Mo  Mo185  1  0.80925343  0.39165610  0.26860282  1
  Mo  Mo186  1  0.29824257  0.29630187  0.86801724  1
  Mo  Mo187  1  0.89299207  0.70141413  0.12370019  1
  Mo  Mo188  1  0.00250865  0.40278460  0.72590431  1
  Mo  Mo189  1  0.19859643  0.80792414  0.50269182  1
  Mo  Mo190  1  0.89994669  0.09388473  0.61808942  1
  Mo  Mo191  1  0.70369575  0.69997597  0.87926340  1
  Mo  Mo192  1  0.39399598  -0.00548063  0.00541358  1
  Mo  Mo193  1  0.20227098  0.20826418  0.51375452  1
  Mo  Mo194  1  0.30009280  0.70103905  0.88337418  1
  Mo  Mo195  1  0.71434800  0.90184188  0.38298472  1
  Mo  Mo196  1  0.20278044  0.80860425  0.23752703  1
  Mo  Mo197  1  0.60606510  0.79852090  0.01341991  1
  Mo  Mo198  1  0.68901288  0.29060036  0.38287530  1
  Mo  Mo199  1  0.40853800  0.40548074  0.49941651  1
