# generated using pymatgen
data_HfZrTaTiMo
_symmetry_space_group_name_H-M   'P 1'
_cell_length_a   15.21657312
_cell_length_b   15.23472883
_cell_length_c   16.80648112
_cell_angle_alpha   89.99779003
_cell_angle_beta   90.02086560
_cell_angle_gamma   90.01561672
_symmetry_Int_Tables_number   1
_chemical_formula_structural   HfZrTaTiMo
_chemical_formula_sum   'Hf40 Zr40 Ta40 Ti40 Mo40'
_cell_volume   3896.08418661
_cell_formula_units_Z   40
loop_
 _symmetry_equiv_pos_site_id
 _symmetry_equiv_pos_as_xyz
  1  'x, y, z'
loop_
 _atom_site_type_symbol
 _atom_site_label
 _atom_site_symmetry_multiplicity
 _atom_site_fract_x
 _atom_site_fract_y
 _atom_site_fract_z
 _atom_site_occupancy
  Hf  Hf0  1  0.30857301  0.70079360  0.86031257  1
  Hf  Hf1  1  0.10401384  0.69008251  0.12500750  1
  Hf  Hf2  1  0.81531227  0.79875668  0.73282574  1
  Hf  Hf3  1  0.49246755  0.09571958  0.62025396  1
  Hf  Hf4  1  0.81427954  0.20436000  0.26894119  1
  Hf  Hf5  1  0.60698815  0.58831660  0.49538268  1
  Hf  Hf6  1  0.08582400  0.08690056  0.86167595  1
  Hf  Hf7  1  0.00152980  0.40639459  0.75096448  1
  Hf  Hf8  1  0.60195651  0.20950805  0.49220361  1
  Hf  Hf9  1  0.19533291  0.78593669  -0.01472817  1
  Hf  Hf10  1  0.30213400  0.89883921  0.12405532  1
  Hf  Hf11  1  0.29116374  0.29912760  0.11252902  1
  Hf  Hf12  1  0.19411885  0.00942866  0.25300218  1
  Hf  Hf13  1  0.20244384  0.38230767  0.25888177  1
  Hf  Hf14  1  0.79386555  0.19365592  -0.01094978  1
  Hf  Hf15  1  0.50621877  0.89318025  0.87313918  1
  Hf  Hf16  1  0.09888582  0.09761571  0.64220137  1
  Hf  Hf17  1  -0.00489682  0.79666734  0.00156048  1
  Hf  Hf18  1  0.89565284  0.10925351  0.13034898  1
  Hf  Hf19  1  0.70668354  0.70588787  0.86938847  1
  Hf  Hf20  1  0.49210754  0.29765394  0.61955471  1
  Hf  Hf21  1  0.78457815  -0.00064542  0.00793866  1
  Hf  Hf22  1  0.80267589  0.59887782  0.24037532  1
  Hf  Hf23  1  0.40214744  0.59443012  0.50050632  1
  Hf  Hf24  1  0.50874986  0.29136595  0.11698957  1
  Hf  Hf25  1  0.59345525  0.19918059  0.76104501  1
  Hf  Hf26  1  -0.00559026  0.39292498  0.26373408  1
  Hf  Hf27  1  0.79759322  0.80435153  0.01583510  1
  Hf  Hf28  1  0.29593066  0.50371877  0.11989265  1
  Hf  Hf29  1  0.70076016  0.91119453  0.62928394  1
  Hf  Hf30  1  -0.01096221  -0.00607667  0.00023403  1
  Hf  Hf31  1  0.19867531  -0.00302198  -0.01365834  1
  Hf  Hf32  1  0.50344395  0.70305452  0.36574387  1
  Hf  Hf33  1  0.39654551  0.60686400  0.00151546  1
  Hf  Hf34  1  0.20964418  0.19050438  0.50679313  1
  Hf  Hf35  1  0.70625225  0.90801605  0.86318451  1
  Hf  Hf36  1  0.81005228  0.00169392  0.50005611  1
  Hf  Hf37  1  0.79749117  -0.00900460  0.24656107  1
  Hf  Hf38  1  0.70800761  0.11302717  0.62640684  1
  Hf  Hf39  1  0.80921718  0.20410087  0.48576732  1
  Zr  Zr40  1  0.10197297  0.48611403  0.12088111  1
  Zr  Zr41  1  0.30681449  0.69986644  0.63519428  1
  Zr  Zr42  1  0.90063790  0.71306024  0.38441430  1
  Zr  Zr43  1  0.10136081  0.10866874  0.11549123  1
  Zr  Zr44  1  0.30279886  0.50772699  0.86068193  1
  Zr  Zr45  1  0.70439571  0.29516937  0.13000784  1
  Zr  Zr46  1  0.59824164  0.79609322  0.51213828  1
  Zr  Zr47  1  0.80101305  0.39843473  -0.00474773  1
  Zr  Zr48  1  0.30809859  0.90981822  0.63799579  1
  Zr  Zr49  1  0.11019152  0.30432674  0.39523259  1
  Zr  Zr50  1  0.69850226  0.51248932  0.86977914  1
  Zr  Zr51  1  0.40606722  0.40078966  -0.01431189  1
  Zr  Zr52  1  0.59209972  0.40503366  0.76334092  1
  Zr  Zr53  1  0.40878149  0.39825260  0.25133266  1
  Zr  Zr54  1  0.19846837  0.59336069  0.26209418  1
  Zr  Zr55  1  0.40354463  0.19164230  -0.01937741  1
  Zr  Zr56  1  0.89712147  0.51432529  0.86784880  1
  Zr  Zr57  1  0.02283434  0.19265142  0.26790584  1
  Zr  Zr58  1  0.49378808  0.10977696  0.37685642  1
  Zr  Zr59  1  0.78609797  0.39848960  0.51102362  1
  Zr  Zr60  1  -0.00740407  0.80111331  0.23864482  1
  Zr  Zr61  1  0.30313820  0.29871607  0.63763162  1
  Zr  Zr62  1  0.90586917  0.49535010  0.11594039  1
  Zr  Zr63  1  0.08578306  0.90328558  0.37479034  1
  Zr  Zr64  1  0.29674012  0.70327068  0.37802001  1
  Zr  Zr65  1  0.50821737  0.49350139  0.62164797  1
  Zr  Zr66  1  0.80850625  0.59719336  0.51226098  1
  Zr  Zr67  1  0.39063602  0.00355684  0.49244781  1
  Zr  Zr68  1  0.70146225  0.89610155  0.37671624  1
  Zr  Zr69  1  0.09668840  0.30114728  0.62865968  1
  Zr  Zr70  1  -0.00275082  0.59381740  0.25924817  1
  Zr  Zr71  1  0.18608962  0.80032471  0.75766434  1
  Zr  Zr72  1  0.50014741  0.70625186  0.13156876  1
  Zr  Zr73  1  0.31031672  0.90466599  0.86742311  1
  Zr  Zr74  1  0.29962242  0.10368717  0.12059437  1
  Zr  Zr75  1  0.10332122  0.70474016  0.38974667  1
  Zr  Zr76  1  -0.00355707  0.19239602  0.49801668  1
  Zr  Zr77  1  0.58416895  0.79105798  0.73225950  1
  Zr  Zr78  1  0.70209846  0.70110748  0.36475783  1
  Zr  Zr79  1  -0.01037491  0.20319899  -0.02510893  1
  Ta  Ta80  1  0.30483477  0.49494669  0.63973426  1
  Ta  Ta81  1  0.01506332  0.59881684  -0.01179340  1
  Ta  Ta82  1  -0.02022050  0.20500511  0.75758057  1
  Ta  Ta83  1  0.19178516  0.40674661  -0.02171780  1
  Ta  Ta84  1  0.69550939  0.30657984  0.36698311  1
  Ta  Ta85  1  0.59272466  0.00401590  0.74534720  1
  Ta  Ta86  1  0.21073791  0.40892627  0.50957085  1
  Ta  Ta87  1  0.69939840  0.29648578  0.87478103  1
  Ta  Ta88  1  0.69767521  0.49427073  0.36730336  1
  Ta  Ta89  1  0.50569248  0.49845406  0.12062357  1
  Ta  Ta90  1  0.39877238  0.18823115  0.77052683  1
  Ta  Ta91  1  0.39353753  0.20142546  0.24909044  1
  Ta  Ta92  1  0.40230769  0.59446245  0.25230259  1
  Ta  Ta93  1  -0.00333091  0.61321937  0.73745239  1
  Ta  Ta94  1  0.80057552  0.80149861  0.22597038  1
  Ta  Ta95  1  0.19242637  0.20754198  -0.02587330  1
  Ta  Ta96  1  0.29432254  0.89871323  0.37058427  1
  Ta  Ta97  1  0.40597489  -0.00254720  0.25438322  1
  Ta  Ta98  1  0.50379453  0.09064515  0.13148295  1
  Ta  Ta99  1  0.80507672  0.61102420  0.01029627  1
  Ta  Ta100  1  0.39459428  0.80425874  0.25076970  1
  Ta  Ta101  1  0.80845185  0.80317271  0.51870395  1
  Ta  Ta102  1  0.43130237  0.60311297  0.74722601  1
  Ta  Ta103  1  0.91269728  0.29934379  0.12311570  1
  Ta  Ta104  1  0.51038161  0.69473172  0.88131914  1
  Ta  Ta105  1  0.29404067  0.70362681  0.13380328  1
  Ta  Ta106  1  0.80494254  0.38766698  0.74489258  1
  Ta  Ta107  1  0.60418329  0.60259440  0.00509882  1
  Ta  Ta108  1  0.68601764  0.09837360  0.13569665  1
  Ta  Ta109  1  0.19093137  -0.00030060  0.49939328  1
  Ta  Ta110  1  0.31963358  0.29409256  0.38917187  1
  Ta  Ta111  1  0.40367262  0.80361501  0.50309351  1
  Ta  Ta112  1  0.09855783  0.29793577  0.11486653  1
  Ta  Ta113  1  -0.00019832  -0.00202922  0.51415538  1
  Ta  Ta114  1  -0.01464440  0.40336416  0.51436427  1
  Ta  Ta115  1  0.00573304  0.39459087  -0.02474312  1
  Ta  Ta116  1  0.30405459  0.49204423  0.38356527  1
  Ta  Ta117  1  0.69256363  0.49831542  0.12230912  1
  Ta  Ta118  1  0.10607952  0.89641645  0.12648558  1
  Ta  Ta119  1  0.41646337  -0.00341150  -0.00015987  1
  Ti  Ti120  1  0.70626030  0.49996312  0.64249646  1
  Ti  Ti121  1  0.69313538  0.69820799  0.12953282  1
  Ti  Ti122  1  0.10121432  0.90271664  0.62935771  1
  Ti  Ti123  1  -0.00538681  -0.00607377  0.23895024  1
  Ti  Ti124  1  0.20429434  0.81064827  0.50890161  1
  Ti  Ti125  1  0.59859185  0.40139110  0.25228014  1
  Ti  Ti126  1  0.10270212  0.50367045  0.62237068  1
  Ti  Ti127  1  0.59557999  0.58968578  0.24858129  1
  Ti  Ti128  1  0.69110361  0.30532211  0.62989074  1
  Ti  Ti129  1  0.89531729  0.49588259  0.38307588  1
  Ti  Ti130  1  -0.00045245  0.59916658  0.51517562  1
  Ti  Ti131  1  0.40370923  0.80138563  0.00542095  1
  Ti  Ti132  1  0.59849657  0.39925430  -0.01067301  1
  Ti  Ti133  1  0.29789933  0.29966232  0.86895248  1
  Ti  Ti134  1  0.59996967  0.81554535  0.01188302  1
  Ti  Ti135  1  0.59919095  0.17756432  -0.01454224  1
  Ti  Ti136  1  0.90235650  0.70592898  0.87147996  1
  Ti  Ti137  1  0.18827620  0.59755389  0.74586591  1
  Ti  Ti138  1  0.91584005  0.07283195  0.37147319  1
  Ti  Ti139  1  0.09883669  0.50053513  0.39720040  1
  Ti  Ti140  1  0.20339399  0.00215602  0.76060351  1
  Ti  Ti141  1  0.59428894  0.20123313  0.25815758  1
  Ti  Ti142  1  0.80062892  0.40130253  0.24883997  1
  Ti  Ti143  1  0.30058571  0.10312874  0.63756993  1
  Ti  Ti144  1  0.20341611  0.59900559  0.50948068  1
  Ti  Ti145  1  0.79879989  0.19069296  0.76138188  1
  Ti  Ti146  1  -0.02085711  -0.00286769  0.74206266  1
  Ti  Ti147  1  0.90187268  0.90341131  0.86803803  1
  Ti  Ti148  1  0.19566323  0.20189518  0.76598632  1
  Ti  Ti149  1  0.40711829  0.39442055  0.76591659  1
  Ti  Ti150  1  0.49852081  0.90155291  0.37378004  1
  Ti  Ti151  1  -0.00289193  0.81145905  0.51425715  1
  Ti  Ti152  1  0.19686764  0.40218639  0.75821343  1
  Ti  Ti153  1  0.29007627  0.10423123  0.37016665  1
  Ti  Ti154  1  0.59927234  -0.00085280  0.50048495  1
  Ti  Ti155  1  0.70169684  0.68710656  0.63283685  1
  Ti  Ti156  1  0.69583294  0.09591266  0.36912768  1
  Ti  Ti157  1  0.10204648  0.70473654  0.61811535  1
  Ti  Ti158  1  0.59787969  0.82393977  0.24010294  1
  Ti  Ti159  1  0.00300595  0.80368770  0.74696864  1
  Mo  Mo160  1  0.88199166  0.08625224  0.86512750  1
  Mo  Mo161  1  0.49945082  0.08383317  0.87095663  1
  Mo  Mo162  1  0.50539910  0.30798112  0.37643482  1
  Mo  Mo163  1  0.10227091  0.51038342  0.86684165  1
  Mo  Mo164  1  0.10458656  0.09281744  0.38076374  1
  Mo  Mo165  1  0.08626460  0.89453157  0.86759591  1
  Mo  Mo166  1  0.89512700  0.89441359  0.37929329  1
  Mo  Mo167  1  0.39535330  0.20091886  0.50242644  1
  Mo  Mo168  1  0.10187778  0.30226309  0.85917594  1
  Mo  Mo169  1  0.40653411  0.00248649  0.74954275  1
  Mo  Mo170  1  0.20330213  0.80591072  0.24503130  1
  Mo  Mo171  1  0.90091699  0.90397585  0.12297942  1
  Mo  Mo172  1  0.69338796  0.09361369  0.86757472  1
  Mo  Mo173  1  0.49648977  0.90555812  0.12728359  1
  Mo  Mo174  1  0.40665494  0.79590866  0.74588080  1
  Mo  Mo175  1  0.89862675  0.10543366  0.63143549  1
  Mo  Mo176  1  0.40043739  0.40067449  0.49769139  1
  Mo  Mo177  1  0.21229476  0.20654663  0.25368855  1
  Mo  Mo178  1  0.59707987  0.39998232  0.48865482  1
  Mo  Mo179  1  0.29524222  0.09872411  0.87141579  1
  Mo  Mo180  1  0.88372464  0.28888985  0.63481653  1
  Mo  Mo181  1  0.90509446  0.49714668  0.63467795  1
  Mo  Mo182  1  0.50398352  0.51204214  0.88279428  1
  Mo  Mo183  1  0.89656254  0.32019122  0.37963528  1
  Mo  Mo184  1  0.60836354  0.60273068  0.74875707  1
  Mo  Mo185  1  0.50355275  0.49896403  0.37198128  1
  Mo  Mo186  1  0.09037846  0.69200099  0.86805405  1
  Mo  Mo187  1  0.50170043  0.69618825  0.61413465  1
  Mo  Mo188  1  0.50406605  0.29740368  0.88210777  1
  Mo  Mo189  1  0.68534442  0.90485567  0.12944678  1
  Mo  Mo190  1  0.80003420  0.00618743  0.74669108  1
  Mo  Mo191  1  0.59501773  0.00614391  0.25765225  1
  Mo  Mo192  1  0.80781057  0.59947444  0.73512537  1
  Mo  Mo193  1  0.90862101  0.90637104  0.62795682  1
  Mo  Mo194  1  0.20024395  0.59932140  -0.00490357  1
  Mo  Mo195  1  0.59763262  0.00360696  0.00083200  1
  Mo  Mo196  1  0.89886036  0.69393400  0.11795365  1
  Mo  Mo197  1  0.89139543  0.30163568  0.86569536  1
  Mo  Mo198  1  0.91311682  0.70298875  0.61869558  1
  Mo  Mo199  1  0.49606595  0.90303853  0.61911207  1
