# generated using pymatgen
data_HfZrTaTiMo
_symmetry_space_group_name_H-M   'P 1'
_cell_length_a   15.20157798
_cell_length_b   15.22613276
_cell_length_c   16.87027020
_cell_angle_alpha   89.98519976
_cell_angle_beta   90.01876099
_cell_angle_gamma   90.08785520
_symmetry_Int_Tables_number   1
_chemical_formula_structural   HfZrTaTiMo
_chemical_formula_sum   'Hf40 Zr40 Ta40 Ti40 Mo40'
_cell_volume   3904.80880513
_cell_formula_units_Z   40
loop_
 _symmetry_equiv_pos_site_id
 _symmetry_equiv_pos_as_xyz
  1  'x, y, z'
loop_
 _atom_site_type_symbol
 _atom_site_label
 _atom_site_symmetry_multiplicity
 _atom_site_fract_x
 _atom_site_fract_y
 _atom_site_fract_z
 _atom_site_occupancy
  Hf  Hf0  1  0.32068946  0.49223400  0.61651207  1
  Hf  Hf1  1  0.40130267  0.60600668  0.01310902  1
  Hf  Hf2  1  0.60917479  -0.00904610  0.00060143  1
  Hf  Hf3  1  0.41932996  0.20615283  0.25300351  1
  Hf  Hf4  1  0.88993103  0.30701419  0.61559606  1
  Hf  Hf5  1  0.78685619  0.20787176  0.74948534  1
  Hf  Hf6  1  0.47852782  0.91066569  0.38255743  1
  Hf  Hf7  1  0.90714821  0.50352885  0.36511992  1
  Hf  Hf8  1  0.12053702  0.12552130  0.87781145  1
  Hf  Hf9  1  0.40565107  0.17494098  0.50287983  1
  Hf  Hf10  1  0.81039202  0.60813056  0.25493115  1
  Hf  Hf11  1  0.69394310  0.49226796  0.13584802  1
  Hf  Hf12  1  0.00261089  0.62071815  0.50557810  1
  Hf  Hf13  1  0.88995755  0.50409100  0.13252841  1
  Hf  Hf14  1  0.30894004  0.07722486  0.37084897  1
  Hf  Hf15  1  0.30627863  0.49419916  0.35767570  1
  Hf  Hf16  1  0.21111373  -0.00477717  0.50430248  1
  Hf  Hf17  1  0.68703490  0.90353576  0.37920587  1
  Hf  Hf18  1  0.59302483  0.39590389  0.74684749  1
  Hf  Hf19  1  0.78439166  0.79890702  0.00616290  1
  Hf  Hf20  1  -0.00221107  -0.00168076  0.25293909  1
  Hf  Hf21  1  0.91130397  0.11135228  0.11434859  1
  Hf  Hf22  1  0.30102901  0.49224037  0.13606371  1
  Hf  Hf23  1  0.69527689  0.69667699  0.36683404  1
  Hf  Hf24  1  0.51114245  0.49561652  0.89126738  1
  Hf  Hf25  1  0.89376346  0.29396046  0.38522976  1
  Hf  Hf26  1  0.00435531  0.01207131  -0.01133884  1
  Hf  Hf27  1  0.18434636  0.79568377  0.49819158  1
  Hf  Hf28  1  0.20942196  0.60364770  0.48976499  1
  Hf  Hf29  1  0.40622683  0.00529245  0.00508234  1
  Hf  Hf30  1  0.40125239  0.61037240  0.24360159  1
  Hf  Hf31  1  0.59336363  0.00978009  0.25520785  1
  Hf  Hf32  1  0.29155441  0.28782480  0.61391191  1
  Hf  Hf33  1  0.39030948  0.78616921  0.50187370  1
  Hf  Hf34  1  0.10847429  0.51046712  0.62880957  1
  Hf  Hf35  1  0.89932642  0.09806143  0.62324483  1
  Hf  Hf36  1  0.68705302  0.29854419  0.60232293  1
  Hf  Hf37  1  -0.01571027  0.41202195  0.74760810  1
  Hf  Hf38  1  0.68058193  0.50474963  0.61023634  1
  Hf  Hf39  1  0.09649789  0.29794976  0.36831712  1
  Zr  Zr40  1  0.41274474  0.58946185  0.75547854  1
  Zr  Zr41  1  0.39330110  0.39352450  0.76262174  1
  Zr  Zr42  1  0.19973300  0.39931194  0.49318215  1
  Zr  Zr43  1  0.20917357  0.00813545  0.75665769  1
  Zr  Zr44  1  0.00437628  0.21206480  0.75177407  1
  Zr  Zr45  1  0.82238314  0.80188946  0.49816812  1
  Zr  Zr46  1  0.09045210  0.48744243  0.14159404  1
  Zr  Zr47  1  -0.01272332  0.40112000  -0.00143402  1
  Zr  Zr48  1  0.60820298  0.80528106  0.73554079  1
  Zr  Zr49  1  0.60449417  0.79131120  0.50569808  1
  Zr  Zr50  1  0.88112969  0.91260344  0.11560121  1
  Zr  Zr51  1  0.21483103  0.59934483  0.76416719  1
  Zr  Zr52  1  0.50375712  0.91604938  0.61104429  1
  Zr  Zr53  1  -0.00202274  0.41218666  0.50779955  1
  Zr  Zr54  1  0.50456310  0.28353240  0.87926947  1
  Zr  Zr55  1  0.88552027  0.90415702  0.88711263  1
  Zr  Zr56  1  0.50278531  0.48981931  0.12953227  1
  Zr  Zr57  1  0.30264501  0.89101057  0.87611276  1
  Zr  Zr58  1  0.39145709  0.18975332  0.74120616  1
  Zr  Zr59  1  0.80405788  0.81162049  0.25331017  1
  Zr  Zr60  1  0.49778886  0.69870278  0.87636156  1
  Zr  Zr61  1  0.80828689  0.00779458  0.48578403  1
  Zr  Zr62  1  0.29411431  0.89367941  0.63411731  1
  Zr  Zr63  1  0.20007397  0.80130456  0.23688803  1
  Zr  Zr64  1  0.90161694  0.69826278  0.88347939  1
  Zr  Zr65  1  0.00813038  -0.01359704  0.49520818  1
  Zr  Zr66  1  0.08712127  0.90106263  0.11374159  1
  Zr  Zr67  1  0.79953730  0.19411395  0.26007818  1
  Zr  Zr68  1  0.00163412  0.61919685  0.74611270  1
  Zr  Zr69  1  0.79122451  0.00099079  0.74902868  1
  Zr  Zr70  1  0.20973624  0.18531516  0.23935854  1
  Zr  Zr71  1  0.18998678  0.38113941  0.75920039  1
  Zr  Zr72  1  0.09042849  0.50472549  0.88070078  1
  Zr  Zr73  1  0.71493904  0.09121236  0.12184904  1
  Zr  Zr74  1  0.70186839  0.69611330  0.86822178  1
  Zr  Zr75  1  0.00035857  0.00316553  0.76293281  1
  Zr  Zr76  1  0.19295091  0.38938824  0.00715683  1
  Zr  Zr77  1  0.10099571  0.50323470  0.35250546  1
  Zr  Zr78  1  0.39954273  0.79004375  0.74406326  1
  Zr  Zr79  1  0.40268329  0.80334593  0.01308482  1
  Ta  Ta80  1  0.79394028  0.41462504  0.49399676  1
  Ta  Ta81  1  -0.00572974  0.60918828  0.01533190  1
  Ta  Ta82  1  0.20688536  0.19830249  0.02168871  1
  Ta  Ta83  1  0.19533229  0.18890994  0.49349572  1
  Ta  Ta84  1  0.28595468  0.27568137  0.88361238  1
  Ta  Ta85  1  0.10468517  0.70785241  0.89459902  1
  Ta  Ta86  1  0.20434349  0.79509578  0.01263081  1
  Ta  Ta87  1  0.51358922  0.90136629  0.87014070  1
  Ta  Ta88  1  0.50051095  0.70179929  0.36408854  1
  Ta  Ta89  1  0.20183422  0.60278643  0.01365758  1
  Ta  Ta90  1  0.10099581  0.09586187  0.36989858  1
  Ta  Ta91  1  0.68897191  0.29213141  0.12533412  1
  Ta  Ta92  1  0.60169747  0.01015180  0.74981529  1
  Ta  Ta93  1  0.42058590  0.58475158  0.48878002  1
  Ta  Ta94  1  0.39600528  0.38988222  -0.00224612  1
  Ta  Ta95  1  0.00088027  0.18989874  0.49850152  1
  Ta  Ta96  1  0.29124946  0.91573792  0.12249408  1
  Ta  Ta97  1  0.71891220  0.69157608  0.62619240  1
  Ta  Ta98  1  0.08221985  0.70639908  0.36282418  1
  Ta  Ta99  1  0.80033306  0.60533788  0.49016992  1
  Ta  Ta100  1  0.18737543  0.79013270  0.75541129  1
  Ta  Ta101  1  0.51163719  0.67142534  0.61884116  1
  Ta  Ta102  1  0.58979955  0.38453558  0.25893991  1
  Ta  Ta103  1  0.89320005  0.30505223  0.13075446  1
  Ta  Ta104  1  0.08403407  0.89088997  0.63261737  1
  Ta  Ta105  1  0.79689928  0.21369795  -0.00262255  1
  Ta  Ta106  1  0.30328987  0.29213110  0.37700246  1
  Ta  Ta107  1  0.51783937  0.71172854  0.13981466  1
  Ta  Ta108  1  0.70333975  0.69330479  0.13478763  1
  Ta  Ta109  1  0.69151827  0.30515995  0.39396214  1
  Ta  Ta110  1  0.69424919  0.10535891  0.88194541  1
  Ta  Ta111  1  0.89279857  0.11760768  0.88447430  1
  Ta  Ta112  1  0.41235625  0.00214324  0.75188123  1
  Ta  Ta113  1  0.67681921  0.88766401  0.13894534  1
  Ta  Ta114  1  0.80900653  0.79980276  0.74073271  1
  Ta  Ta115  1  0.11189451  0.10324421  0.62759065  1
  Ta  Ta116  1  0.39485321  0.00710301  0.23343742  1
  Ta  Ta117  1  0.89064793  0.31120130  0.87392596  1
  Ta  Ta118  1  0.51241027  0.11735565  0.11971500  1
  Ta  Ta119  1  0.59497277  0.79682935  0.00396283  1
  Ti  Ti120  1  0.20153755  0.37729834  0.24214165  1
  Ti  Ti121  1  0.59892965  0.38067222  0.00584437  1
  Ti  Ti122  1  0.49932180  0.29890812  0.39050080  1
  Ti  Ti123  1  0.00020326  0.20051422  0.24875751  1
  Ti  Ti124  1  0.61178845  0.59253954  0.75010246  1
  Ti  Ti125  1  0.71135683  0.90677604  0.61291620  1
  Ti  Ti126  1  0.60795548  0.20211065  0.26087210  1
  Ti  Ti127  1  0.30069044  0.49916614  0.89166653  1
  Ti  Ti128  1  0.50621143  0.50061066  0.36270714  1
  Ti  Ti129  1  0.09575632  0.29552876  0.61798968  1
  Ti  Ti130  1  0.32106105  0.29814681  0.12946904  1
  Ti  Ti131  1  0.19356940  0.61364210  0.23599971  1
  Ti  Ti132  1  0.11885736  0.90003128  0.36272001  1
  Ti  Ti133  1  0.59351433  0.19431721  0.73874823  1
  Ti  Ti134  1  0.29843162  0.68653953  0.62371985  1
  Ti  Ti135  1  0.69231054  0.49924171  0.37166768  1
  Ti  Ti136  1  0.88270644  0.50999645  0.87621111  1
  Ti  Ti137  1  0.11076040  0.09350710  0.12448343  1
  Ti  Ti138  1  0.87999476  0.52228431  0.62654763  1
  Ti  Ti139  1  0.10113077  0.89465610  0.88777894  1
  Ti  Ti140  1  0.68818656  0.09958350  0.60627682  1
  Ti  Ti141  1  0.50025567  0.09760284  0.87803713  1
  Ti  Ti142  1  0.00103481  0.81024186  0.76030306  1
  Ti  Ti143  1  0.70428976  0.49770316  0.87890908  1
  Ti  Ti144  1  0.78825227  0.41316831  0.74729173  1
  Ti  Ti145  1  0.92547702  0.88166574  0.36890926  1
  Ti  Ti146  1  0.00928351  0.21725918  -0.00067121  1
  Ti  Ti147  1  0.91791391  0.72211275  0.62713974  1
  Ti  Ti148  1  0.69863729  0.30293439  0.87778689  1
  Ti  Ti149  1  0.80135553  0.00605534  0.27002733  1
  Ti  Ti150  1  0.49326123  0.31314805  0.60429386  1
  Ti  Ti151  1  0.40061698  0.81379078  0.23952265  1
  Ti  Ti152  1  0.61522582  0.60270790  0.00693464  1
  Ti  Ti153  1  0.69432613  0.11219790  0.39309864  1
  Ti  Ti154  1  0.79098238  0.40482441  0.00144447  1
  Ti  Ti155  1  -0.00748494  0.77675594  0.22952114  1
  Ti  Ti156  1  0.40490447  0.20068399  0.00610392  1
  Ti  Ti157  1  0.21057662  0.00730672  -0.00670654  1
  Ti  Ti158  1  0.29867010  0.70803755  0.36560695  1
  Ti  Ti159  1  0.79112603  0.39009393  0.25851749  1
  Mo  Mo160  1  0.08477192  0.28236931  0.13440344  1
  Mo  Mo161  1  0.09872828  0.69782887  0.11222703  1
  Mo  Mo162  1  0.90046089  0.90190363  0.63265303  1
  Mo  Mo163  1  0.50037378  0.48996610  0.61959316  1
  Mo  Mo164  1  0.91218286  0.09963718  0.37568696  1
  Mo  Mo165  1  0.11047540  0.70707561  0.63236186  1
  Mo  Mo166  1  0.30140049  0.09171513  0.62255451  1
  Mo  Mo167  1  0.60239695  0.60133921  0.48832954  1
  Mo  Mo168  1  0.20015506  -0.00177620  0.24647342  1
  Mo  Mo169  1  0.49862376  0.90874478  0.13169952  1
  Mo  Mo170  1  0.58919634  0.80228509  0.25739535  1
  Mo  Mo171  1  0.31403451  0.10386353  0.88353118  1
  Mo  Mo172  1  0.30946639  0.10315097  0.12009444  1
  Mo  Mo173  1  0.50850150  0.10155062  0.37295010  1
  Mo  Mo174  1  0.30333681  0.70303624  0.13166080  1
  Mo  Mo175  1  0.19947117  0.20170141  0.74261984  1
  Mo  Mo176  1  0.59618638  0.20184653  0.49904291  1
  Mo  Mo177  1  0.09302023  0.30100732  0.88035580  1
  Mo  Mo178  1  0.00898821  0.80408078  0.49682847  1
  Mo  Mo179  1  0.80304238  0.20337239  0.49829361  1
  Mo  Mo180  1  0.50758215  0.10752111  0.62897136  1
  Mo  Mo181  1  0.79300516  0.59209677  0.00626432  1
  Mo  Mo182  1  0.40096969  0.39207608  0.26252423  1
  Mo  Mo183  1  0.90757512  0.69906469  0.37289783  1
  Mo  Mo184  1  0.39815550  -0.00837334  0.50487790  1
  Mo  Mo185  1  0.50599238  0.30078489  0.12329335  1
  Mo  Mo186  1  0.29782732  0.88936318  0.36740780  1
  Mo  Mo187  1  0.80092376  0.59708907  0.74406460  1
  Mo  Mo188  1  0.60191187  0.59692330  0.25260816  1
  Mo  Mo189  1  0.69107828  0.89925302  0.86969719  1
  Mo  Mo190  1  -0.01390626  0.38637713  0.24819874  1
  Mo  Mo191  1  0.00009874  0.80064905  0.00368055  1
  Mo  Mo192  1  0.28732839  0.69294654  0.88398481  1
  Mo  Mo193  1  0.00342939  0.60520931  0.23636962  1
  Mo  Mo194  1  0.39871988  0.39513715  0.48263570  1
  Mo  Mo195  1  0.89612259  0.70400095  0.11364931  1
  Mo  Mo196  1  0.60354802  0.19560281  -0.00166667  1
  Mo  Mo197  1  0.79536013  0.00989403  -0.00798493  1
  Mo  Mo198  1  0.59186306  0.01399718  0.49298857  1
  Mo  Mo199  1  0.58440991  0.41291459  0.48403406  1
