# generated using pymatgen
data_HfZrTaTiMo
_symmetry_space_group_name_H-M   'P 1'
_cell_length_a   15.15644574
_cell_length_b   15.16756725
_cell_length_c   16.81071958
_cell_angle_alpha   89.97842040
_cell_angle_beta   90.00944201
_cell_angle_gamma   89.82277076
_symmetry_Int_Tables_number   1
_chemical_formula_structural   HfZrTaTiMo
_chemical_formula_sum   'Hf40 Zr40 Ta40 Ti40 Mo40'
_cell_volume   3864.53715846
_cell_formula_units_Z   40
loop_
 _symmetry_equiv_pos_site_id
 _symmetry_equiv_pos_as_xyz
  1  'x, y, z'
loop_
 _atom_site_type_symbol
 _atom_site_label
 _atom_site_symmetry_multiplicity
 _atom_site_fract_x
 _atom_site_fract_y
 _atom_site_fract_z
 _atom_site_occupancy
  Hf  Hf0  1  0.80393398  0.59806019  0.01003164  1
  Hf  Hf1  1  0.09419796  0.50560704  0.36690402  1
  Hf  Hf2  1  0.91032474  0.90298425  0.13093728  1
  Hf  Hf3  1  0.60088639  0.62360249  0.75671818  1
  Hf  Hf4  1  0.39890748  -0.01015684  -0.00914720  1
  Hf  Hf5  1  0.19756914  0.60883765  0.00640896  1
  Hf  Hf6  1  0.81533126  0.80749632  -0.00373384  1
  Hf  Hf7  1  0.29369992  0.49835816  0.88488481  1
  Hf  Hf8  1  0.91342796  0.90820879  0.62213172  1
  Hf  Hf9  1  0.22172543  0.80220890  -0.00306993  1
  Hf  Hf10  1  0.29501143  0.29095257  0.86908906  1
  Hf  Hf11  1  0.82473131  0.77894970  0.25577174  1
  Hf  Hf12  1  0.50048423  0.50219632  0.87022997  1
  Hf  Hf13  1  0.78088892  0.40422214  0.73830494  1
  Hf  Hf14  1  0.31413355  0.48297089  0.11865269  1
  Hf  Hf15  1  0.30715872  0.48155520  0.37482749  1
  Hf  Hf16  1  0.59256280  0.40163176  0.00268549  1
  Hf  Hf17  1  0.18527109  -0.01311722  0.76018145  1
  Hf  Hf18  1  0.49259827  0.49837878  0.63461391  1
  Hf  Hf19  1  0.08130414  0.30435327  0.87383793  1
  Hf  Hf20  1  0.93513972  0.69885507  0.63366916  1
  Hf  Hf21  1  -0.01620912  0.18029005  0.75753921  1
  Hf  Hf22  1  0.87377739  0.28939643  0.87092056  1
  Hf  Hf23  1  0.50265521  0.09681044  0.61510156  1
  Hf  Hf24  1  0.60104570  0.61351076  -0.00342611  1
  Hf  Hf25  1  0.29643076  0.09668807  0.63279807  1
  Hf  Hf26  1  0.50775207  0.10519462  0.88069614  1
  Hf  Hf27  1  0.39615334  0.39577025  0.75155731  1
  Hf  Hf28  1  0.28708804  0.29239249  0.63912876  1
  Hf  Hf29  1  0.58931351  0.20077357  0.25569206  1
  Hf  Hf30  1  0.39157398  0.20743896  0.00303473  1
  Hf  Hf31  1  0.70191896  0.49309361  0.37203931  1
  Hf  Hf32  1  0.51107080  0.89757376  0.12819000  1
  Hf  Hf33  1  0.61639055  0.81035972  0.26720577  1
  Hf  Hf34  1  0.18182968  0.19033360  -0.00464381  1
  Hf  Hf35  1  0.01960378  0.80420872  -0.00623281  1
  Hf  Hf36  1  0.89594979  0.52656631  0.36385876  1
  Hf  Hf37  1  0.19688656  0.80121839  0.49427620  1
  Hf  Hf38  1  0.68939187  0.29348538  0.13608251  1
  Hf  Hf39  1  0.60687648  0.61019550  0.24996974  1
  Zr  Zr40  1  0.89921241  0.49728667  0.87788250  1
  Zr  Zr41  1  0.78482847  0.38900650  0.52065034  1
  Zr  Zr42  1  0.30605565  0.88972975  0.62688906  1
  Zr  Zr43  1  0.31357457  0.69527772  0.13546944  1
  Zr  Zr44  1  0.49487465  0.10363687  0.39371297  1
  Zr  Zr45  1  0.88669811  0.31908620  0.35974806  1
  Zr  Zr46  1  -0.01353617  0.41764236  0.50473584  1
  Zr  Zr47  1  0.68579127  0.29935730  0.36851062  1
  Zr  Zr48  1  0.29099328  0.08813319  0.38168716  1
  Zr  Zr49  1  0.18481099  0.40818755  0.75363855  1
  Zr  Zr50  1  -0.02777592  0.19041110  0.00011812  1
  Zr  Zr51  1  0.09886370  0.50396706  0.11874136  1
  Zr  Zr52  1  0.51995376  0.69646805  0.60733175  1
  Zr  Zr53  1  0.18906882  0.38854340  0.50190480  1
  Zr  Zr54  1  0.02135854  0.00453031  0.48373209  1
  Zr  Zr55  1  0.30440348  0.69055038  0.37845823  1
  Zr  Zr56  1  -0.00754330  0.21349736  0.49087489  1
  Zr  Zr57  1  0.79702607  -0.01419697  0.27777452  1
  Zr  Zr58  1  0.41409114  -0.00503317  0.74891405  1
  Zr  Zr59  1  0.78931304  0.80952330  0.73457139  1
  Zr  Zr60  1  0.71807055  0.69068162  0.38736368  1
  Zr  Zr61  1  0.57996538  0.40728568  0.50115261  1
  Zr  Zr62  1  0.10865329  0.89847836  0.13490138  1
  Zr  Zr63  1  0.20108029  0.59820185  0.24712165  1
  Zr  Zr64  1  0.70195273  0.71824265  0.12222854  1
  Zr  Zr65  1  0.08824299  0.51861857  0.62868807  1
  Zr  Zr66  1  0.92148917  0.91256952  0.86260860  1
  Zr  Zr67  1  0.08243929  0.09739051  0.13491211  1
  Zr  Zr68  1  0.70435143  0.71673728  0.87527762  1
  Zr  Zr69  1  0.90248060  0.10780769  0.60937254  1
  Zr  Zr70  1  0.79511198  0.39261302  0.01059774  1
  Zr  Zr71  1  0.09147436  0.29010811  0.34907214  1
  Zr  Zr72  1  0.31636875  0.89662138  0.13577473  1
  Zr  Zr73  1  0.52102381  0.89351283  0.87015120  1
  Zr  Zr74  1  0.59909549  0.00866468  0.26472433  1
  Zr  Zr75  1  0.77236617  0.20325832  0.73197398  1
  Zr  Zr76  1  0.18543134  0.18583404  0.50136031  1
  Zr  Zr77  1  0.81699512  0.59285130  0.52309022  1
  Zr  Zr78  1  0.39023631  0.18095890  0.24234540  1
  Zr  Zr79  1  0.51593343  0.10010201  0.10779139  1
  Ta  Ta80  1  0.09054653  0.50729481  0.88753871  1
  Ta  Ta81  1  0.19630441  0.38817867  0.00224006  1
  Ta  Ta82  1  0.31302323  0.69796416  0.87203641  1
  Ta  Ta83  1  0.71454006  0.92440766  0.87604834  1
  Ta  Ta84  1  0.40899358  0.79493651  0.49276560  1
  Ta  Ta85  1  0.19065437  -0.00619762  -0.01216426  1
  Ta  Ta86  1  0.80903919  0.60338348  0.74022792  1
  Ta  Ta87  1  0.70849669  0.92516575  0.11993878  1
  Ta  Ta88  1  0.79500617  0.18396517  0.26180271  1
  Ta  Ta89  1  0.48978188  0.29295640  0.63148194  1
  Ta  Ta90  1  0.20157566  0.39219725  0.24258207  1
  Ta  Ta91  1  0.19754886  0.59748719  0.49889039  1
  Ta  Ta92  1  0.40500466  0.60233252  -0.00279730  1
  Ta  Ta93  1  0.50106903  0.50980605  0.12001667  1
  Ta  Ta94  1  0.29653990  0.09386424  0.86964173  1
  Ta  Ta95  1  0.39152497  0.20966215  0.50135837  1
  Ta  Ta96  1  0.41617584  0.79162312  0.26873774  1
  Ta  Ta97  1  0.80696448  0.00078981  0.48169443  1
  Ta  Ta98  1  0.62223942  0.00258692  0.73684737  1
  Ta  Ta99  1  0.20834834  0.00446606  0.25305833  1
  Ta  Ta100  1  0.47798921  0.31453236  0.36944851  1
  Ta  Ta101  1  0.29132362  0.08884868  0.11939751  1
  Ta  Ta102  1  0.91508041  0.69777170  0.86196609  1
  Ta  Ta103  1  0.68337812  0.51652156  0.63130808  1
  Ta  Ta104  1  0.69964526  0.11168378  0.87378826  1
  Ta  Ta105  1  0.41900621  0.58507742  0.25969036  1
  Ta  Ta106  1  0.30773525  0.68738815  0.61463387  1
  Ta  Ta107  1  0.09056675  0.29762227  0.13359477  1
  Ta  Ta108  1  0.49958592  0.89874335  0.38578285  1
  Ta  Ta109  1  0.42021945  0.78554884  0.74528868  1
  Ta  Ta110  1  0.29267330  0.28875386  0.36498384  1
  Ta  Ta111  1  -0.01394654  0.41704886  0.23405133  1
  Ta  Ta112  1  0.80328522  0.80216262  0.51508251  1
  Ta  Ta113  1  0.19881182  0.79746788  0.25989617  1
  Ta  Ta114  1  0.48265780  0.31389855  0.12551923  1
  Ta  Ta115  1  -0.00648582  0.62822058  0.23372314  1
  Ta  Ta116  1  0.80913596  0.01428737  0.74347992  1
  Ta  Ta117  1  0.39096985  0.60273417  0.74805672  1
  Ta  Ta118  1  0.58350283  0.41472727  0.24539105  1
  Ta  Ta119  1  0.08440871  0.29146328  0.64010697  1
  Ti  Ti120  1  0.58392370  0.20465236  0.74515774  1
  Ti  Ti121  1  0.07312468  0.07597632  0.87932608  1
  Ti  Ti122  1  0.91445399  0.87785185  0.38743108  1
  Ti  Ti123  1  0.08580325  0.70667900  0.37446020  1
  Ti  Ti124  1  0.70021714  0.50197886  0.86716166  1
  Ti  Ti125  1  0.50121941  0.70578819  0.12861757  1
  Ti  Ti126  1  -0.00585953  0.39722008  0.01071420  1
  Ti  Ti127  1  0.89365648  0.29290394  0.14063331  1
  Ti  Ti128  1  0.69747294  0.10130023  0.60406346  1
  Ti  Ti129  1  0.02827639  0.80372397  0.75320140  1
  Ti  Ti130  1  0.59520093  0.21165860  0.50058669  1
  Ti  Ti131  1  0.38765322  0.39333948  0.50806048  1
  Ti  Ti132  1  0.11054125  0.69852071  0.87003712  1
  Ti  Ti133  1  0.61135660  -0.01052334  0.49265556  1
  Ti  Ti134  1  0.41844487  0.78912164  -0.00752022  1
  Ti  Ti135  1  0.39293461  -0.00785329  0.50695495  1
  Ti  Ti136  1  -0.00627666  0.00546587  0.27115923  1
  Ti  Ti137  1  0.18477317  0.18874345  0.76027029  1
  Ti  Ti138  1  0.28757722  0.28927133  0.12848043  1
  Ti  Ti139  1  0.30902461  0.89205161  0.86535967  1
  Ti  Ti140  1  0.88187477  0.09522036  0.13680653  1
  Ti  Ti141  1  0.49407669  0.29964977  0.87409542  1
  Ti  Ti142  1  0.67701281  0.30448195  0.87220632  1
  Ti  Ti143  1  0.30672291  0.89941641  0.37240791  1
  Ti  Ti144  1  0.11197961  0.90493087  0.36911569  1
  Ti  Ti145  1  0.09818623  0.09066621  0.63021294  1
  Ti  Ti146  1  0.81397667  0.01150219  -0.00212540  1
  Ti  Ti147  1  0.10505314  0.89391517  0.62040308  1
  Ti  Ti148  1  0.29415223  0.50101724  0.62137314  1
  Ti  Ti149  1  0.52011601  0.89331300  0.61520810  1
  Ti  Ti150  1  0.19903654  0.60398370  0.75007426  1
  Ti  Ti151  1  0.61004719  0.81801983  0.00070988  1
  Ti  Ti152  1  0.79248149  0.19965873  0.48879711  1
  Ti  Ti153  1  0.80554075  0.58127600  0.21800115  1
  Ti  Ti154  1  0.77301062  0.19179297  0.00702057  1
  Ti  Ti155  1  0.21749439  0.78758979  0.74840217  1
  Ti  Ti156  1  -0.01328137  0.41054374  0.74864840  1
  Ti  Ti157  1  0.41227328  0.58720325  0.49191720  1
  Ti  Ti158  1  -0.00412442  0.61178381  0.01111640  1
  Ti  Ti159  1  0.89682371  0.30458030  0.63154725  1
  Mo  Mo160  1  0.59991183  0.21077483  -0.00253277  1
  Mo  Mo161  1  0.49838351  0.70303649  0.87554320  1
  Mo  Mo162  1  0.70746857  0.89188911  0.39093942  1
  Mo  Mo163  1  0.10393167  0.71226196  0.12877551  1
  Mo  Mo164  1  0.40304694  -0.01389531  0.25245053  1
  Mo  Mo165  1  0.91454700  0.70089916  0.39019157  1
  Mo  Mo166  1  0.00004812  0.00041468  0.00301865  1
  Mo  Mo167  1  0.00820896  0.81064071  0.25786358  1
  Mo  Mo168  1  -0.01556279  0.19948186  0.24404177  1
  Mo  Mo169  1  0.90226052  0.10884124  0.37559798  1
  Mo  Mo170  1  0.00242129  -0.00468939  0.74024821  1
  Mo  Mo171  1  0.91110113  0.70552605  0.11760967  1
  Mo  Mo172  1  0.39644814  0.39332105  0.24663785  1
  Mo  Mo173  1  0.89866076  0.50049531  0.63989512  1
  Mo  Mo174  1  0.69744581  0.10299917  0.39457971  1
  Mo  Mo175  1  0.70926542  0.09960800  0.12866560  1
  Mo  Mo176  1  0.12462127  0.71056041  0.63137395  1
  Mo  Mo177  1  0.20387459  -0.00785265  0.50241340  1
  Mo  Mo178  1  0.90249964  0.49474868  0.11694636  1
  Mo  Mo179  1  0.01535899  0.61301414  0.49795342  1
  Mo  Mo180  1  0.39687679  0.19313671  0.75495584  1
  Mo  Mo181  1  0.50818698  0.69431677  0.38975842  1
  Mo  Mo182  1  0.79110885  0.40152187  0.23575050  1
  Mo  Mo183  1  0.70927278  0.70883813  0.62151036  1
  Mo  Mo184  1  0.11615989  0.88900571  0.87323088  1
  Mo  Mo185  1  0.60618481  0.59668220  0.49850582  1
  Mo  Mo186  1  0.19587835  0.19499256  0.23933795  1
  Mo  Mo187  1  0.67480882  0.29940003  0.62323525  1
  Mo  Mo188  1  0.59651338  0.39813393  0.75344031  1
  Mo  Mo189  1  0.01241240  0.60342703  0.76421182  1
  Mo  Mo190  1  0.69061954  0.49816051  0.12830976  1
  Mo  Mo191  1  0.87851631  0.09371109  0.87454099  1
  Mo  Mo192  1  0.60201870  0.81837195  0.74220518  1
  Mo  Mo193  1  0.39547979  0.39841975  -0.00436094  1
  Mo  Mo194  1  0.09926901  0.09686101  0.35600280  1
  Mo  Mo195  1  0.62178421  0.00792815  -0.00335834  1
  Mo  Mo196  1  0.60886074  0.80172639  0.48914457  1
  Mo  Mo197  1  0.49945695  0.50177200  0.37691143  1
  Mo  Mo198  1  0.00651510  0.79927442  0.50175061  1
  Mo  Mo199  1  0.70363023  0.91485597  0.60924786  1
