# generated using pymatgen
data_HfZrTaTiMo
_symmetry_space_group_name_H-M   'P 1'
_cell_length_a   15.20514939
_cell_length_b   15.20683321
_cell_length_c   16.82926648
_cell_angle_alpha   90.01111579
_cell_angle_beta   89.97358068
_cell_angle_gamma   89.88166584
_symmetry_Int_Tables_number   1
_chemical_formula_structural   HfZrTaTiMo
_chemical_formula_sum   'Hf40 Zr40 Ta40 Ti40 Mo40'
_cell_volume   3891.29073987
_cell_formula_units_Z   40
loop_
 _symmetry_equiv_pos_site_id
 _symmetry_equiv_pos_as_xyz
  1  'x, y, z'
loop_
 _atom_site_type_symbol
 _atom_site_label
 _atom_site_symmetry_multiplicity
 _atom_site_fract_x
 _atom_site_fract_y
 _atom_site_fract_z
 _atom_site_occupancy
  Hf  Hf0  1  0.80379413  0.79214623  0.74575661  1
  Hf  Hf1  1  0.19465149  0.00024340  -0.00487334  1
  Hf  Hf2  1  0.11537651  0.90406700  0.37510053  1
  Hf  Hf3  1  0.28190086  0.71108447  0.61679260  1
  Hf  Hf4  1  0.69268600  0.69275983  0.87302696  1
  Hf  Hf5  1  0.89366395  0.30438298  0.36475380  1
  Hf  Hf6  1  0.18633341  0.60983998  0.74505350  1
  Hf  Hf7  1  0.89533875  0.69731312  0.88545827  1
  Hf  Hf8  1  0.51172467  0.90577869  0.11830829  1
  Hf  Hf9  1  0.09011399  0.50203209  0.38173593  1
  Hf  Hf10  1  -0.01429500  0.59431018  0.74960968  1
  Hf  Hf11  1  0.79391811  -0.00961255  0.50161577  1
  Hf  Hf12  1  0.70391751  0.90058144  0.87062459  1
  Hf  Hf13  1  0.30357464  0.08199468  0.37902096  1
  Hf  Hf14  1  -0.01368348  0.39656064  0.49851646  1
  Hf  Hf15  1  0.49856440  0.49772531  0.36328062  1
  Hf  Hf16  1  0.78782726  0.39615577  0.49985039  1
  Hf  Hf17  1  0.21001436  -0.00509261  0.51725068  1
  Hf  Hf18  1  0.31283591  0.50796890  0.13509305  1
  Hf  Hf19  1  0.49369624  0.69707610  0.14028062  1
  Hf  Hf20  1  0.40272680  0.18977492  0.51730734  1
  Hf  Hf21  1  0.20697465  0.40995565  0.01317544  1
  Hf  Hf22  1  0.08718082  0.50838193  0.61198700  1
  Hf  Hf23  1  0.78533283  0.20035555  0.24005826  1
  Hf  Hf24  1  0.51223725  0.48877321  0.14300068  1
  Hf  Hf25  1  -0.01116827  0.82096565  -0.00496034  1
  Hf  Hf26  1  0.00169938  0.79335808  0.74712279  1
  Hf  Hf27  1  0.69628571  0.29716194  0.87931887  1
  Hf  Hf28  1  0.29675472  0.28789513  0.38011281  1
  Hf  Hf29  1  0.19527314  0.40378178  0.74620345  1
  Hf  Hf30  1  0.09284294  0.91834407  0.86373457  1
  Hf  Hf31  1  0.20143547  0.20260403  -0.00604741  1
  Hf  Hf32  1  0.20413399  0.20221876  0.75986133  1
  Hf  Hf33  1  0.31291164  0.09135585  0.87642231  1
  Hf  Hf34  1  0.30049070  0.69478454  0.87386871  1
  Hf  Hf35  1  0.60706798  0.60270451  0.49032564  1
  Hf  Hf36  1  0.29091732  0.49693846  0.60557568  1
  Hf  Hf37  1  0.19589684  0.60257089  0.25632290  1
  Hf  Hf38  1  0.10038608  0.11953441  0.63140788  1
  Hf  Hf39  1  0.81157391  0.19303323  0.50174726  1
  Zr  Zr40  1  0.39528932  0.59810848  0.73946915  1
  Zr  Zr41  1  0.79857708  0.60362208  0.24582268  1
  Zr  Zr42  1  0.29806506  0.70390007  0.12145212  1
  Zr  Zr43  1  0.79077388  -0.00221175  0.25639963  1
  Zr  Zr44  1  0.50282867  0.49722630  0.61825695  1
  Zr  Zr45  1  0.30950213  0.90441967  0.11670135  1
  Zr  Zr46  1  0.41738799  0.19158517  0.74520512  1
  Zr  Zr47  1  0.71693934  0.87797744  0.11516641  1
  Zr  Zr48  1  0.09762702  0.50850032  0.88040323  1
  Zr  Zr49  1  0.49823013  0.72842723  0.62222564  1
  Zr  Zr50  1  0.59856390  0.78762102  -0.00351831  1
  Zr  Zr51  1  0.20016920  0.80124820  0.25378157  1
  Zr  Zr52  1  0.69294879  0.08570909  0.10483869  1
  Zr  Zr53  1  0.31444692  0.89240689  0.65206772  1
  Zr  Zr54  1  0.79477395  0.59888101  0.02372893  1
  Zr  Zr55  1  0.39886551  0.61164290  0.49531283  1
  Zr  Zr56  1  0.00197492  0.00673917  0.51268421  1
  Zr  Zr57  1  0.50560642  0.92021120  0.37423725  1
  Zr  Zr58  1  0.69117446  0.09585154  0.37640674  1
  Zr  Zr59  1  0.89025008  0.30375470  0.11999982  1
  Zr  Zr60  1  0.09719650  0.29566968  0.11916243  1
  Zr  Zr61  1  0.91123595  0.90788213  0.14442898  1
  Zr  Zr62  1  0.59314866  0.58513876  0.01304464  1
  Zr  Zr63  1  0.91483168  0.89894079  0.37539204  1
  Zr  Zr64  1  0.61341603  0.80584270  0.26186943  1
  Zr  Zr65  1  -0.00902621  0.00527691  0.73285813  1
  Zr  Zr66  1  0.50249418  0.11620834  0.37839969  1
  Zr  Zr67  1  0.69913113  0.29915025  0.63525691  1
  Zr  Zr68  1  0.70056358  0.49282808  0.87729052  1
  Zr  Zr69  1  0.40711879  0.00858068  0.23888224  1
  Zr  Zr70  1  0.19861516  0.39170453  0.24672753  1
  Zr  Zr71  1  0.68866963  0.89432177  0.63456005  1
  Zr  Zr72  1  0.49665193  0.90061310  0.85740070  1
  Zr  Zr73  1  0.00051292  0.20107455  0.25375447  1
  Zr  Zr74  1  0.29731401  0.50021462  0.38458875  1
  Zr  Zr75  1  0.10049963  0.90404194  0.13142004  1
  Zr  Zr76  1  0.80524804  0.39856203  0.74670548  1
  Zr  Zr77  1  -0.00306318  0.41047411  0.00856325  1
  Zr  Zr78  1  0.49620438  0.49825686  0.86989858  1
  Zr  Zr79  1  0.39722775  0.20751987  0.23550907  1
  Ta  Ta80  1  0.09873918  0.70713773  0.88313877  1
  Ta  Ta81  1  0.60224031  0.60752136  0.74236844  1
  Ta  Ta82  1  0.89870146  0.29964953  0.88476384  1
  Ta  Ta83  1  0.30876256  0.30765593  0.87881410  1
  Ta  Ta84  1  0.90756135  0.09935359  0.11446200  1
  Ta  Ta85  1  0.41065373  -0.00856957  0.52445514  1
  Ta  Ta86  1  0.29965124  0.49623297  0.87854864  1
  Ta  Ta87  1  0.10637227  0.10497008  0.37436459  1
  Ta  Ta88  1  0.69843463  0.48693523  0.36545349  1
  Ta  Ta89  1  0.70328284  0.10415432  0.63457658  1
  Ta  Ta90  1  0.89409308  0.50396501  0.36702196  1
  Ta  Ta91  1  0.60407821  0.80994257  0.48795560  1
  Ta  Ta92  1  0.39159552  0.39259950  0.74360091  1
  Ta  Ta93  1  -0.00140901  0.20514099  0.76406747  1
  Ta  Ta94  1  0.40686688  0.39885318  0.00521053  1
  Ta  Ta95  1  0.80106165  0.59449810  0.49000949  1
  Ta  Ta96  1  0.90050640  0.69106578  0.61047291  1
  Ta  Ta97  1  0.29287381  0.29377133  0.62283136  1
  Ta  Ta98  1  0.01737114  0.78765901  0.50171798  1
  Ta  Ta99  1  0.51041968  0.09904367  0.88822176  1
  Ta  Ta100  1  0.90856517  0.09157221  0.88213607  1
  Ta  Ta101  1  0.70440101  0.69634277  0.61717784  1
  Ta  Ta102  1  0.18355792  0.37814461  0.50017167  1
  Ta  Ta103  1  -0.00062905  0.39504653  0.75035335  1
  Ta  Ta104  1  0.70390325  0.09617567  0.87894376  1
  Ta  Ta105  1  0.80818950  0.78782161  0.27328376  1
  Ta  Ta106  1  0.20252191  0.19065098  0.24308804  1
  Ta  Ta107  1  0.01316326  0.20892806  0.49039272  1
  Ta  Ta108  1  0.89419085  0.49588232  0.88393046  1
  Ta  Ta109  1  0.39786109  0.80019949  0.26447150  1
  Ta  Ta110  1  0.09755876  0.30259302  0.88355286  1
  Ta  Ta111  1  0.68864079  0.30741464  0.10651048  1
  Ta  Ta112  1  0.91473740  0.28303286  0.62943959  1
  Ta  Ta113  1  0.80516880  0.19475557  -0.00389195  1
  Ta  Ta114  1  0.39895368  0.80069334  -0.01458667  1
  Ta  Ta115  1  0.19678799  0.80053689  -0.00877966  1
  Ta  Ta116  1  -0.00006313  0.41540685  0.24584505  1
  Ta  Ta117  1  0.29502899  0.89793625  0.85754402  1
  Ta  Ta118  1  0.89981677  0.88543965  0.61283729  1
  Ta  Ta119  1  0.50344563  0.29843954  0.62803873  1
  Ti  Ti120  1  0.20480858  0.00730375  0.24429765  1
  Ti  Ti121  1  0.59054773  0.39662939  0.74841799  1
  Ti  Ti122  1  0.81742000  -0.01623688  -0.00803295  1
  Ti  Ti123  1  0.80456897  -0.00061802  0.74764845  1
  Ti  Ti124  1  0.60418495  0.37605495  0.24946066  1
  Ti  Ti125  1  0.59409946  0.01827307  0.74611892  1
  Ti  Ti126  1  -0.00179420  0.61809539  0.25025756  1
  Ti  Ti127  1  0.59614480  0.20301991  -0.00276458  1
  Ti  Ti128  1  0.80730633  0.18926052  0.75672595  1
  Ti  Ti129  1  0.49331644  0.29390600  0.11415984  1
  Ti  Ti130  1  0.09366131  0.09623606  0.12479334  1
  Ti  Ti131  1  0.39744306  0.39496806  0.25052565  1
  Ti  Ti132  1  0.49904564  0.29745840  0.87751238  1
  Ti  Ti133  1  0.69115253  0.29371021  0.37352069  1
  Ti  Ti134  1  0.79840375  0.78835596  0.48358521  1
  Ti  Ti135  1  0.60778368  0.60212186  0.25588858  1
  Ti  Ti136  1  0.11334527  0.88481362  0.63460720  1
  Ti  Ti137  1  0.90610999  0.50584630  0.13153038  1
  Ti  Ti138  1  0.20116973  0.19455571  0.50494709  1
  Ti  Ti139  1  0.09062301  0.70525086  0.12316657  1
  Ti  Ti140  1  0.00283332  0.60821526  0.01175545  1
  Ti  Ti141  1  0.60481338  0.20468472  0.50793004  1
  Ti  Ti142  1  0.50174301  0.30211456  0.37571219  1
  Ti  Ti143  1  0.19604571  0.60340944  0.00758357  1
  Ti  Ti144  1  0.59722248  0.00633199  0.51561216  1
  Ti  Ti145  1  0.17301034  0.62513120  0.49319466  1
  Ti  Ti146  1  0.49256461  0.09524635  0.09303917  1
  Ti  Ti147  1  0.59428912  0.39588009  0.49612284  1
  Ti  Ti148  1  0.59248800  0.18531124  0.23172060  1
  Ti  Ti149  1  0.89236755  0.71895996  0.12515861  1
  Ti  Ti150  1  0.90729928  0.09786044  0.37139216  1
  Ti  Ti151  1  0.39939415  0.38778082  0.50089511  1
  Ti  Ti152  1  0.49700649  0.70559787  0.37309408  1
  Ti  Ti153  1  0.79662126  0.59594592  0.74401412  1
  Ti  Ti154  1  0.29186521  0.71645393  0.38764402  1
  Ti  Ti155  1  0.30350567  0.10843267  0.10779541  1
  Ti  Ti156  1  0.39995693  0.60087185  -0.00272417  1
  Ti  Ti157  1  0.69657251  0.50296827  0.62380264  1
  Ti  Ti158  1  0.88944140  0.49610358  0.62072111  1
  Ti  Ti159  1  0.79283222  0.40161140  0.24338873  1
  Mo  Mo160  1  0.08981062  0.70662341  0.62437826  1
  Mo  Mo161  1  0.79610587  0.39981911  0.00319288  1
  Mo  Mo162  1  0.00068191  0.01392115  -0.00241858  1
  Mo  Mo163  1  0.10124200  0.10857105  0.86628650  1
  Mo  Mo164  1  0.20117125  0.00617227  0.74266903  1
  Mo  Mo165  1  0.09574738  0.51875400  0.13117439  1
  Mo  Mo166  1  0.60295026  0.78991253  0.75265981  1
  Mo  Mo167  1  0.01534067  0.01170066  0.25747809  1
  Mo  Mo168  1  0.40152292  0.81410094  0.48864308  1
  Mo  Mo169  1  0.61082558  0.20051572  0.76099385  1
  Mo  Mo170  1  0.40253005  0.20562947  -0.00357055  1
  Mo  Mo171  1  0.49512325  0.69502552  0.86936521  1
  Mo  Mo172  1  0.19363238  0.79939816  0.76415217  1
  Mo  Mo173  1  0.59209128  0.39270908  0.00168451  1
  Mo  Mo174  1  0.89335380  0.10087242  0.62864640  1
  Mo  Mo175  1  0.30643944  0.29993743  0.12104239  1
  Mo  Mo176  1  0.40151498  -0.00578684  -0.00430677  1
  Mo  Mo177  1  0.30166211  0.09753363  0.63419921  1
  Mo  Mo178  1  -0.01276363  0.59900243  0.49614472  1
  Mo  Mo179  1  0.70087508  0.89805340  0.38289433  1
  Mo  Mo180  1  0.50781040  0.90452260  0.63814551  1
  Mo  Mo181  1  0.31041033  0.90147055  0.38086796  1
  Mo  Mo182  1  0.09385807  0.70473219  0.37331955  1
  Mo  Mo183  1  0.20572091  0.80716675  0.49927686  1
  Mo  Mo184  1  0.09890662  0.30437280  0.62811103  1
  Mo  Mo185  1  0.90792449  0.69282317  0.38517602  1
  Mo  Mo186  1  0.40525082  0.00673164  0.74002883  1
  Mo  Mo187  1  0.00044418  0.19418933  -0.00939912  1
  Mo  Mo188  1  0.60563796  -0.00096033  -0.01304511  1
  Mo  Mo189  1  0.10269798  0.29617479  0.37077564  1
  Mo  Mo190  1  0.60285432  0.01215195  0.24028825  1
  Mo  Mo191  1  0.89208873  0.90351277  0.86931063  1
  Mo  Mo192  1  0.69848617  0.69186699  0.38278691  1
  Mo  Mo193  1  0.70055953  0.48725327  0.14087737  1
  Mo  Mo194  1  0.40102017  0.60955720  0.26734183  1
  Mo  Mo195  1  0.00040246  0.79082325  0.25496753  1
  Mo  Mo196  1  0.69838447  0.69565735  0.13397659  1
  Mo  Mo197  1  0.40391476  0.79081367  0.76326244  1
  Mo  Mo198  1  0.80277660  0.79654253  -0.00257654  1
  Mo  Mo199  1  0.51722964  0.10189148  0.62530955  1
