# generated using pymatgen
data_HfZrTaTiMo
_symmetry_space_group_name_H-M   'P 1'
_cell_length_a   15.21199645
_cell_length_b   15.22313883
_cell_length_c   16.84128045
_cell_angle_alpha   90.03469438
_cell_angle_beta   89.99247430
_cell_angle_gamma   89.99665559
_symmetry_Int_Tables_number   1
_chemical_formula_structural   HfZrTaTiMo
_chemical_formula_sum   'Hf40 Zr40 Ta40 Ti40 Mo40'
_cell_volume   3900.00754506
_cell_formula_units_Z   40
loop_
 _symmetry_equiv_pos_site_id
 _symmetry_equiv_pos_as_xyz
  1  'x, y, z'
loop_
 _atom_site_type_symbol
 _atom_site_label
 _atom_site_symmetry_multiplicity
 _atom_site_fract_x
 _atom_site_fract_y
 _atom_site_fract_z
 _atom_site_occupancy
  Hf  Hf0  1  0.29362727  0.49012233  0.62317998  1
  Hf  Hf1  1  0.29420325  0.91705285  0.13151560  1
  Hf  Hf2  1  0.90058581  0.70448599  0.36649509  1
  Hf  Hf3  1  0.30207680  0.89693684  0.64429761  1
  Hf  Hf4  1  0.79405502  0.39865433  0.01340486  1
  Hf  Hf5  1  0.88655692  0.91452020  0.12685781  1
  Hf  Hf6  1  0.40024139  0.39278726  0.24006297  1
  Hf  Hf7  1  0.70112038  0.29049114  0.37232471  1
  Hf  Hf8  1  0.68901429  0.06915186  0.11759028  1
  Hf  Hf9  1  0.58266882  0.79849496  0.49910289  1
  Hf  Hf10  1  0.00050464  0.00347357  -0.01164642  1
  Hf  Hf11  1  0.69425067  0.91612582  0.61736072  1
  Hf  Hf12  1  0.09866989  0.71057468  0.37475902  1
  Hf  Hf13  1  0.90018868  0.69387340  0.87009571  1
  Hf  Hf14  1  0.22726425  0.60480734  0.24289231  1
  Hf  Hf15  1  0.10276092  0.50352889  0.36827671  1
  Hf  Hf16  1  0.78996978  0.80190881  -0.00437195  1
  Hf  Hf17  1  0.80210192  0.60070561  -0.00189637  1
  Hf  Hf18  1  0.79039872  0.80411167  0.75258581  1
  Hf  Hf19  1  0.01044624  0.20680893  0.50657712  1
  Hf  Hf20  1  0.48451460  0.11348162  0.37610873  1
  Hf  Hf21  1  0.31502583  0.49961596  0.38055018  1
  Hf  Hf22  1  0.58070867  0.19310245  0.22774358  1
  Hf  Hf23  1  0.10021486  0.89626494  0.64773146  1
  Hf  Hf24  1  0.20400118  0.59184333  0.75144171  1
  Hf  Hf25  1  0.12581973  0.49103534  0.12121089  1
  Hf  Hf26  1  0.19017245  0.39145258  0.76422059  1
  Hf  Hf27  1  0.20107899  0.38188748  0.49222147  1
  Hf  Hf28  1  0.01681801  0.39115480  0.24267084  1
  Hf  Hf29  1  0.11396709  0.90734739  0.36266180  1
  Hf  Hf30  1  0.70368166  0.69654041  0.37875830  1
  Hf  Hf31  1  0.90862111  0.29686703  0.36801045  1
  Hf  Hf32  1  0.20840090  0.61174579  -0.00005136  1
  Hf  Hf33  1  0.19388148  0.60101148  0.50505483  1
  Hf  Hf34  1  0.78625289  0.40050987  0.22844712  1
  Hf  Hf35  1  0.10617395  0.10040343  0.63702457  1
  Hf  Hf36  1  0.39317240  0.78758579  0.23459656  1
  Hf  Hf37  1  0.60893520  0.58932876  0.24021547  1
  Hf  Hf38  1  0.08817961  0.89666846  0.13683825  1
  Hf  Hf39  1  0.90364510  0.31306673  0.62465220  1
  Zr  Zr40  1  0.50761049  0.49037405  0.37416037  1
  Zr  Zr41  1  0.50264230  0.49444031  0.63593794  1
  Zr  Zr42  1  0.59554176  0.00730769  0.49442121  1
  Zr  Zr43  1  0.20248335  -0.00052219  -0.00973113  1
  Zr  Zr44  1  0.10372449  0.71694839  0.86242470  1
  Zr  Zr45  1  0.90358553  0.90150036  0.37709430  1
  Zr  Zr46  1  0.70216725  0.49341125  0.87049014  1
  Zr  Zr47  1  0.51781955  0.90342102  0.11539008  1
  Zr  Zr48  1  0.89797407  0.50897574  0.35649101  1
  Zr  Zr49  1  0.47285017  0.89834066  0.37290028  1
  Zr  Zr50  1  0.09723083  0.10799375  0.37365692  1
  Zr  Zr51  1  -0.01094802  0.60150772  0.50661344  1
  Zr  Zr52  1  0.30003184  0.72448818  0.38788708  1
  Zr  Zr53  1  0.10423933  0.12067925  0.86272472  1
  Zr  Zr54  1  0.40056455  0.39758304  0.75615261  1
  Zr  Zr55  1  0.09824654  0.70230588  0.63407191  1
  Zr  Zr56  1  -0.01318270  0.00713482  0.75668289  1
  Zr  Zr57  1  0.58599381  0.81387320  0.74465020  1
  Zr  Zr58  1  0.60026454  0.80251170  0.25606980  1
  Zr  Zr59  1  0.38714903  0.79569620  0.00828874  1
  Zr  Zr60  1  0.31757457  0.09958293  0.85802649  1
  Zr  Zr61  1  0.38546927  0.00307622  0.50997213  1
  Zr  Zr62  1  0.80197339  0.59336856  0.74717698  1
  Zr  Zr63  1  0.90110909  0.51305302  0.13488230  1
  Zr  Zr64  1  0.89792643  0.29989102  0.88329102  1
  Zr  Zr65  1  0.48882277  0.89772260  0.88858251  1
  Zr  Zr66  1  0.79632573  0.18788761  0.23060144  1
  Zr  Zr67  1  0.77918831  0.01934558  0.75510568  1
  Zr  Zr68  1  0.40427842  0.60403138  0.50968994  1
  Zr  Zr69  1  0.70332726  0.48254223  0.63447919  1
  Zr  Zr70  1  0.88883004  0.09957000  0.38631654  1
  Zr  Zr71  1  0.80268167  0.39875650  0.49992379  1
  Zr  Zr72  1  0.01092737  0.39736363  0.00544259  1
  Zr  Zr73  1  0.70202599  0.49272887  0.37548203  1
  Zr  Zr74  1  0.19757685  0.21382220  0.00499789  1
  Zr  Zr75  1  0.60253966  0.59136660  0.50865680  1
  Zr  Zr76  1  0.00157880  0.80162389  -0.00203623  1
  Zr  Zr77  1  0.50789458  0.30096458  0.37566174  1
  Zr  Zr78  1  0.59181114  0.39212572  0.00332279  1
  Zr  Zr79  1  0.20099582  0.21137360  0.24349613  1
  Ta  Ta80  1  0.68502312  0.90518549  0.88128899  1
  Ta  Ta81  1  0.59897511  0.61054067  0.75385222  1
  Ta  Ta82  1  0.51619953  0.09738448  0.87377268  1
  Ta  Ta83  1  0.50969745  0.28679040  0.63270073  1
  Ta  Ta84  1  0.28793717  0.89280880  0.85702084  1
  Ta  Ta85  1  0.31122076  0.70156104  0.86776148  1
  Ta  Ta86  1  0.08798579  0.48664102  0.62633512  1
  Ta  Ta87  1  0.22056324  0.18475427  0.50662592  1
  Ta  Ta88  1  0.10221225  0.09418006  0.12777962  1
  Ta  Ta89  1  0.87920158  0.10870525  0.61667029  1
  Ta  Ta90  1  0.40894395  0.37838569  0.50962910  1
  Ta  Ta91  1  0.90508234  0.71403169  0.13351422  1
  Ta  Ta92  1  0.79937287  0.00134548  -0.01034498  1
  Ta  Ta93  1  0.11055229  0.29974001  0.63012247  1
  Ta  Ta94  1  0.41138972  0.59335313  -0.01006107  1
  Ta  Ta95  1  0.70106709  0.70125433  0.12441705  1
  Ta  Ta96  1  0.50093250  0.68487812  0.11727878  1
  Ta  Ta97  1  -0.00312453  0.59327476  0.74736987  1
  Ta  Ta98  1  0.89758210  0.90468820  0.62324525  1
  Ta  Ta99  1  0.30706457  0.10189174  0.65075953  1
  Ta  Ta100  1  0.69549606  0.70357293  0.62268662  1
  Ta  Ta101  1  0.29271070  0.08397971  0.36757606  1
  Ta  Ta102  1  0.89717253  0.90127055  0.86948895  1
  Ta  Ta103  1  -0.00358432  0.19585912  0.01434294  1
  Ta  Ta104  1  0.50103955  0.28553646  0.87187514  1
  Ta  Ta105  1  0.49343727  0.68765427  0.36863546  1
  Ta  Ta106  1  0.80331398  0.60562728  0.51543105  1
  Ta  Ta107  1  -0.00597660  0.21457281  0.74476507  1
  Ta  Ta108  1  0.01982667  0.61740570  0.23545054  1
  Ta  Ta109  1  0.31236151  0.27871668  0.37987630  1
  Ta  Ta110  1  0.00848532  0.81022257  0.50607044  1
  Ta  Ta111  1  0.29967083  0.29359657  0.87385791  1
  Ta  Ta112  1  0.69390619  0.09969308  0.37517448  1
  Ta  Ta113  1  0.29897403  0.70807240  0.62719902  1
  Ta  Ta114  1  0.79443608  0.19603236  0.01729574  1
  Ta  Ta115  1  -0.00623703  0.40740933  0.76120452  1
  Ta  Ta116  1  0.09128100  0.50508472  0.88375489  1
  Ta  Ta117  1  -0.00024413  0.19641689  0.23389804  1
  Ta  Ta118  1  0.79528423  0.80298954  0.24725739  1
  Ta  Ta119  1  0.00713523  0.40276461  0.49278831  1
  Ti  Ti120  1  0.40461902  0.60656410  0.75208076  1
  Ti  Ti121  1  0.40069424  0.01330877  0.24355085  1
  Ti  Ti122  1  0.59001185  0.19187394  0.01520323  1
  Ti  Ti123  1  0.59841596  0.38709332  0.22237702  1
  Ti  Ti124  1  0.40458780  0.01330555  0.00242319  1
  Ti  Ti125  1  0.48964891  0.71472930  0.63021598  1
  Ti  Ti126  1  0.39652126  0.39635091  -0.00785260  1
  Ti  Ti127  1  0.60653311  0.60295065  -0.00563870  1
  Ti  Ti128  1  0.50797488  0.09455938  0.63370099  1
  Ti  Ti129  1  0.78687174  -0.00550902  0.25397043  1
  Ti  Ti130  1  -0.00973379  0.00894669  0.24815670  1
  Ti  Ti131  1  0.89938347  0.70952833  0.63254902  1
  Ti  Ti132  1  0.30805079  0.11547981  0.12864302  1
  Ti  Ti133  1  0.70779482  0.28125537  0.62699985  1
  Ti  Ti134  1  0.50133799  0.49834924  0.86938693  1
  Ti  Ti135  1  0.60038740  0.20621414  0.50707309  1
  Ti  Ti136  1  0.30155357  0.50064502  0.88005531  1
  Ti  Ti137  1  0.29179031  0.32005482  0.11450089  1
  Ti  Ti138  1  0.19441004  0.80502977  0.00212690  1
  Ti  Ti139  1  0.69724860  0.28419140  0.87935730  1
  Ti  Ti140  1  -0.00142972  -0.00039872  0.50922083  1
  Ti  Ti141  1  0.61560999  0.18710732  0.74949147  1
  Ti  Ti142  1  0.50789138  0.69945047  0.87777527  1
  Ti  Ti143  1  0.90410890  0.29591373  0.12447562  1
  Ti  Ti144  1  0.32135259  0.51220637  0.11497578  1
  Ti  Ti145  1  0.69636756  0.10452787  0.89015283  1
  Ti  Ti146  1  0.70696613  0.90303324  0.38701801  1
  Ti  Ti147  1  0.80298243  0.38592336  0.75648627  1
  Ti  Ti148  1  0.88994072  0.11283640  0.87633179  1
  Ti  Ti149  1  0.60524674  0.38562290  0.75870517  1
  Ti  Ti150  1  0.42390084  -0.01211847  0.74747168  1
  Ti  Ti151  1  0.50195412  0.49562153  0.11778645  1
  Ti  Ti152  1  0.20944906  0.39672797  0.26207163  1
  Ti  Ti153  1  0.80404931  0.80235861  0.50734866  1
  Ti  Ti154  1  0.19499831  0.79408310  0.23682067  1
  Ti  Ti155  1  0.30816435  0.28640183  0.63474345  1
  Ti  Ti156  1  0.59831089  -0.00407624  0.26046270  1
  Ti  Ti157  1  0.19424843  -0.01231270  0.50448257  1
  Ti  Ti158  1  0.40407589  0.20466035  0.00234630  1
  Ti  Ti159  1  0.00486555  0.60604404  0.01001967  1
  Mo  Mo160  1  0.41943988  0.19748160  0.74931742  1
  Mo  Mo161  1  0.80149637  -0.00127704  0.50326425  1
  Mo  Mo162  1  0.40061326  0.19596811  0.51262488  1
  Mo  Mo163  1  0.59841775  0.00598819  0.75316627  1
  Mo  Mo164  1  0.20207351  0.79243754  0.75325670  1
  Mo  Mo165  1  0.19842399  0.81423059  0.50509420  1
  Mo  Mo166  1  0.69229069  0.11245919  0.61988282  1
  Mo  Mo167  1  0.47905917  0.29552927  0.11434899  1
  Mo  Mo168  1  0.48595759  0.09276933  0.11887095  1
  Mo  Mo169  1  0.70203332  0.88963050  0.12443516  1
  Mo  Mo170  1  0.59928150  0.38345485  0.51381219  1
  Mo  Mo171  1  0.90187607  0.09564177  0.12087595  1
  Mo  Mo172  1  0.09713433  0.30202165  0.87269924  1
  Mo  Mo173  1  0.29320732  0.90875087  0.36055897  1
  Mo  Mo174  1  0.41355623  0.59863377  0.24244303  1
  Mo  Mo175  1  0.10414470  0.29651254  0.12157057  1
  Mo  Mo176  1  0.20756892  0.20594834  0.74721706  1
  Mo  Mo177  1  0.09826422  0.90554798  0.85838746  1
  Mo  Mo178  1  -0.00080831  0.80500402  0.24653056  1
  Mo  Mo179  1  0.39188890  0.80291567  0.50586878  1
  Mo  Mo180  1  -0.01674917  0.80114635  0.74799400  1
  Mo  Mo181  1  0.30321655  0.70044050  0.11713999  1
  Mo  Mo182  1  0.68920212  0.50794892  0.11653002  1
  Mo  Mo183  1  0.38993315  0.20114252  0.24325152  1
  Mo  Mo184  1  0.80032605  0.20831952  0.75376867  1
  Mo  Mo185  1  0.21264568  0.40785459  -0.01692393  1
  Mo  Mo186  1  0.60120864  0.78580138  -0.00225203  1
  Mo  Mo187  1  0.10543647  0.69993190  0.12268248  1
  Mo  Mo188  1  0.10683027  0.29871792  0.37836095  1
  Mo  Mo189  1  0.60223771  -0.00150578  -0.00599520  1
  Mo  Mo190  1  0.20190189  0.00100428  0.75976869  1
  Mo  Mo191  1  0.69125389  0.29118484  0.11837565  1
  Mo  Mo192  1  0.68743395  0.70535703  0.87502129  1
  Mo  Mo193  1  0.20198794  0.00787017  0.23946731  1
  Mo  Mo194  1  0.49366370  0.90178928  0.62245209  1
  Mo  Mo195  1  0.79422810  0.19569093  0.49858902  1
  Mo  Mo196  1  0.80329326  0.61037791  0.23853726  1
  Mo  Mo197  1  0.40093379  0.78780067  0.75562026  1
  Mo  Mo198  1  0.90964304  0.50279970  0.88281040  1
  Mo  Mo199  1  0.90511288  0.50257413  0.62612114  1
