# generated using pymatgen
data_HfZrTaTiMo
_symmetry_space_group_name_H-M   'P 1'
_cell_length_a   15.21265446
_cell_length_b   15.22280493
_cell_length_c   16.85374328
_cell_angle_alpha   89.97542986
_cell_angle_beta   89.95492066
_cell_angle_gamma   90.01185737
_symmetry_Int_Tables_number   1
_chemical_formula_structural   HfZrTaTiMo
_chemical_formula_sum   'Hf40 Zr40 Ta40 Ti40 Mo40'
_cell_volume   3902.97593872
_cell_formula_units_Z   40
loop_
 _symmetry_equiv_pos_site_id
 _symmetry_equiv_pos_as_xyz
  1  'x, y, z'
loop_
 _atom_site_type_symbol
 _atom_site_label
 _atom_site_symmetry_multiplicity
 _atom_site_fract_x
 _atom_site_fract_y
 _atom_site_fract_z
 _atom_site_occupancy
  Hf  Hf0  1  0.18864027  0.60596817  0.74375308  1
  Hf  Hf1  1  0.30050417  0.91923450  0.61396106  1
  Hf  Hf2  1  0.91443169  0.91385415  0.88670175  1
  Hf  Hf3  1  0.90682557  0.70532846  0.61270158  1
  Hf  Hf4  1  -0.00662771  0.41396497  0.25412822  1
  Hf  Hf5  1  0.79677699  0.40446846  0.49270273  1
  Hf  Hf6  1  0.20218488  0.00391502  0.75101697  1
  Hf  Hf7  1  0.19476276  0.19622490  0.49416754  1
  Hf  Hf8  1  0.00594725  0.38448524  0.49075660  1
  Hf  Hf9  1  0.29707781  0.29693496  0.14155675  1
  Hf  Hf10  1  0.80663358  -0.00850396  0.25073577  1
  Hf  Hf11  1  0.10875493  0.89461707  0.88945730  1
  Hf  Hf12  1  0.59005401  0.20126359  0.49635690  1
  Hf  Hf13  1  0.60371390  0.39334361  0.23123470  1
  Hf  Hf14  1  0.49214653  0.07702226  0.13053771  1
  Hf  Hf15  1  0.89928207  0.70219222  0.88549623  1
  Hf  Hf16  1  0.00678228  0.79736046  0.74845227  1
  Hf  Hf17  1  0.11046316  0.51060245  0.37888675  1
  Hf  Hf18  1  0.79037484  0.19920166  0.24498880  1
  Hf  Hf19  1  0.39840287  0.79038647  0.49594447  1
  Hf  Hf20  1  0.68967194  0.11182662  0.63054820  1
  Hf  Hf21  1  -0.00830473  0.40151385  0.00482067  1
  Hf  Hf22  1  0.30354621  0.69861034  0.87509090  1
  Hf  Hf23  1  0.30292120  0.69421548  0.35947539  1
  Hf  Hf24  1  0.89983823  0.89343805  0.38735732  1
  Hf  Hf25  1  0.40363123  0.79120432  0.74747240  1
  Hf  Hf26  1  0.29992228  0.29849369  0.62775890  1
  Hf  Hf27  1  0.78997104  0.21702622  0.75348550  1
  Hf  Hf28  1  0.70415208  0.90338941  0.63586573  1
  Hf  Hf29  1  0.31666361  0.51515385  0.63206951  1
  Hf  Hf30  1  0.59250612  0.17779126  0.00476134  1
  Hf  Hf31  1  0.51434302  0.90084098  0.86593818  1
  Hf  Hf32  1  0.02259316  -0.00522639  0.49253979  1
  Hf  Hf33  1  0.59241243  -0.00918407  0.49240801  1
  Hf  Hf34  1  0.08613811  0.09354778  0.87990855  1
  Hf  Hf35  1  0.69658041  0.09096862  0.37345629  1
  Hf  Hf36  1  0.91258131  0.10427851  0.61146101  1
  Hf  Hf37  1  0.40336350  0.19954545  0.75273418  1
  Hf  Hf38  1  0.63070633  0.59611544  0.25779653  1
  Hf  Hf39  1  0.21544144  0.61042071  0.49815888  1
  Zr  Zr40  1  0.40034040  0.40564466  0.50149183  1
  Zr  Zr41  1  0.79409767  0.43446431  0.26115293  1
  Zr  Zr42  1  0.70479638  0.89983714  0.86912728  1
  Zr  Zr43  1  0.19846364  0.40038286  0.00510677  1
  Zr  Zr44  1  -0.01095526  0.18789907  0.00807268  1
  Zr  Zr45  1  0.38922570  0.19138815  0.00165509  1
  Zr  Zr46  1  0.09847420  0.89757725  0.12072591  1
  Zr  Zr47  1  0.41725847  0.60867462  0.23432577  1
  Zr  Zr48  1  0.81460876  0.01412775  0.75330821  1
  Zr  Zr49  1  0.50898448  0.88747141  0.63211346  1
  Zr  Zr50  1  0.48197275  0.09331451  0.62004180  1
  Zr  Zr51  1  0.69336554  0.30326386  0.36885230  1
  Zr  Zr52  1  0.21590134  0.79272626  0.01318953  1
  Zr  Zr53  1  0.10364024  0.50146694  0.61188383  1
  Zr  Zr54  1  0.28803907  0.89835621  0.36524988  1
  Zr  Zr55  1  -0.01110445  0.18987462  0.24476609  1
  Zr  Zr56  1  0.80305887  0.20551139  0.49780921  1
  Zr  Zr57  1  0.69317898  0.49947856  0.89359523  1
  Zr  Zr58  1  0.90273637  0.50547275  0.61549492  1
  Zr  Zr59  1  0.68824523  0.70431492  0.63085891  1
  Zr  Zr60  1  0.78676273  0.61214848  0.48760944  1
  Zr  Zr61  1  0.09961540  0.69196207  0.89356639  1
  Zr  Zr62  1  0.21546168  0.00639006  0.00921221  1
  Zr  Zr63  1  0.80225308  0.80330721  0.00925743  1
  Zr  Zr64  1  0.29615999  0.50427929  0.87569843  1
  Zr  Zr65  1  0.49196359  0.49838024  0.37007516  1
  Zr  Zr66  1  0.40912916  0.81175791  0.00973098  1
  Zr  Zr67  1  0.50643872  0.29689574  0.87785199  1
  Zr  Zr68  1  0.40060649  0.39951951  0.00740720  1
  Zr  Zr69  1  0.48949138  0.28736618  0.36237049  1
  Zr  Zr70  1  0.00508695  0.40378869  0.75063415  1
  Zr  Zr71  1  0.70809781  0.67088745  0.11700328  1
  Zr  Zr72  1  0.79234237  0.19413342  -0.00446564  1
  Zr  Zr73  1  0.09995873  0.30032847  0.87056189  1
  Zr  Zr74  1  0.09670664  0.29700786  0.13477317  1
  Zr  Zr75  1  0.29440673  0.31251745  0.36199810  1
  Zr  Zr76  1  0.89931722  0.50141278  0.88173416  1
  Zr  Zr77  1  0.87434369  0.31540401  0.12654644  1
  Zr  Zr78  1  0.58674983  0.59298581  0.75568788  1
  Zr  Zr79  1  0.61375506  0.38548793  0.74233598  1
  Ta  Ta80  1  0.20166377  0.80613520  0.74756760  1
  Ta  Ta81  1  0.30171859  0.11187590  0.35595710  1
  Ta  Ta82  1  0.39770557  0.61314377  0.01704245  1
  Ta  Ta83  1  0.50449823  0.69690283  0.88097741  1
  Ta  Ta84  1  0.88710900  0.52889463  0.11608941  1
  Ta  Ta85  1  0.69805015  0.08392056  0.12728062  1
  Ta  Ta86  1  -0.00674808  0.19023468  0.75036793  1
  Ta  Ta87  1  0.29893746  0.10161491  0.87453148  1
  Ta  Ta88  1  0.29342969  0.10335374  0.14654890  1
  Ta  Ta89  1  -0.00814747  0.79668867  0.24856998  1
  Ta  Ta90  1  0.60394090  0.40243431  0.50598475  1
  Ta  Ta91  1  0.10501276  0.09520136  0.36892667  1
  Ta  Ta92  1  0.69923652  0.88052874  0.37357438  1
  Ta  Ta93  1  0.50127979  0.88991629  0.36518948  1
  Ta  Ta94  1  0.59034645  0.18284012  0.24168132  1
  Ta  Ta95  1  0.58729373  0.59794319  0.49340137  1
  Ta  Ta96  1  0.48493698  0.68120182  0.62137432  1
  Ta  Ta97  1  0.40123962  0.00290494  0.75617486  1
  Ta  Ta98  1  0.30826976  0.90377552  0.87274237  1
  Ta  Ta99  1  0.19177833  -0.00170860  0.24835968  1
  Ta  Ta100  1  0.31428539  0.90864161  0.14711326  1
  Ta  Ta101  1  -0.00106817  -0.00745542  0.25699329  1
  Ta  Ta102  1  0.19660766  0.41353289  0.24883817  1
  Ta  Ta103  1  0.08946547  0.69585207  0.12108876  1
  Ta  Ta104  1  0.80694913  0.79656518  0.75269824  1
  Ta  Ta105  1  0.10066869  0.89447362  0.62372738  1
  Ta  Ta106  1  0.09262857  0.28672340  0.62604730  1
  Ta  Ta107  1  0.79735243  0.78543193  0.24619336  1
  Ta  Ta108  1  0.59983976  0.79762331  0.00776022  1
  Ta  Ta109  1  0.29567496  0.50906928  0.12943042  1
  Ta  Ta110  1  0.11309384  0.09512589  0.62087912  1
  Ta  Ta111  1  0.79845474  0.60388435  0.75101172  1
  Ta  Ta112  1  0.90330713  0.89888524  0.61418930  1
  Ta  Ta113  1  0.51938123  0.51027045  0.11053579  1
  Ta  Ta114  1  0.40820213  0.40870650  0.75287507  1
  Ta  Ta115  1  0.89921333  0.30178424  0.62652270  1
  Ta  Ta116  1  0.18441186  0.80916437  0.49819779  1
  Ta  Ta117  1  0.09278414  0.50861359  0.12440859  1
  Ta  Ta118  1  0.19804472  0.19842822  0.00195894  1
  Ta  Ta119  1  0.29683044  0.29861626  0.86751960  1
  Ti  Ti120  1  0.09746345  0.29218361  0.36269282  1
  Ti  Ti121  1  0.51021091  0.29597760  0.62894792  1
  Ti  Ti122  1  0.60479161  0.79134770  0.49668435  1
  Ti  Ti123  1  0.41614468  0.00101325  -0.00674625  1
  Ti  Ti124  1  -0.00587127  0.60273521  0.74862499  1
  Ti  Ti125  1  0.19678012  0.19715034  0.74711912  1
  Ti  Ti126  1  0.80415367  0.40965612  0.74445001  1
  Ti  Ti127  1  0.50483857  0.49702365  0.62307356  1
  Ti  Ti128  1  0.09744692  0.71660339  0.36904780  1
  Ti  Ti129  1  0.30016353  0.71156729  0.14204252  1
  Ti  Ti130  1  0.50799911  0.88537478  0.14458049  1
  Ti  Ti131  1  0.51216390  0.70666018  0.36792138  1
  Ti  Ti132  1  0.90547523  0.10175024  0.38517711  1
  Ti  Ti133  1  0.90291109  0.90288443  0.12047202  1
  Ti  Ti134  1  0.91156438  0.51624317  0.38990448  1
  Ti  Ti135  1  0.79459893  -0.00387425  0.50046125  1
  Ti  Ti136  1  0.29236263  0.71062408  0.62694615  1
  Ti  Ti137  1  0.67976488  0.09648607  0.86584851  1
  Ti  Ti138  1  0.90104506  0.29660198  0.36911577  1
  Ti  Ti139  1  0.40278973  0.40907847  0.23602401  1
  Ti  Ti140  1  0.49308109  0.50375578  0.89116276  1
  Ti  Ti141  1  0.39186970  0.00792527  0.47873023  1
  Ti  Ti142  1  0.69807472  0.30281717  0.88553677  1
  Ti  Ti143  1  0.70039832  0.50208753  0.62336909  1
  Ti  Ti144  1  0.69684961  0.70016298  0.87847492  1
  Ti  Ti145  1  0.40761806  0.00482496  0.26511037  1
  Ti  Ti146  1  0.09375250  0.09443474  0.12802040  1
  Ti  Ti147  1  0.20427509  0.39757684  0.74741943  1
  Ti  Ti148  1  0.39179176  0.19592182  0.49711164  1
  Ti  Ti149  1  0.69611165  0.89430739  0.13024582  1
  Ti  Ti150  1  0.90336540  0.70896456  0.38976188  1
  Ti  Ti151  1  0.49899849  0.29116894  0.12470698  1
  Ti  Ti152  1  0.79754938  0.00796269  0.00119404  1
  Ti  Ti153  1  0.19156667  0.60665294  0.24452780  1
  Ti  Ti154  1  0.60268077  -0.01247668  0.25833785  1
  Ti  Ti155  1  0.10000588  0.50632040  0.88546490  1
  Ti  Ti156  1  -0.00852111  0.60873761  0.25202717  1
  Ti  Ti157  1  0.89674941  0.29707252  0.87538862  1
  Ti  Ti158  1  0.20572441  0.39945414  0.49674447  1
  Ti  Ti159  1  0.00698656  -0.00239885  0.74206240  1
  Mo  Mo160  1  0.59195868  0.60398828  -0.00731972  1
  Mo  Mo161  1  0.01369199  0.61393095  0.49085550  1
  Mo  Mo162  1  0.89558971  0.08236295  0.12724583  1
  Mo  Mo163  1  0.09684855  0.89275164  0.36300841  1
  Mo  Mo164  1  0.60480096  0.79417735  0.24588025  1
  Mo  Mo165  1  0.19421518  0.79594969  0.23957087  1
  Mo  Mo166  1  0.00100769  0.60089813  0.00671215  1
  Mo  Mo167  1  0.19086337  0.19827985  0.25497899  1
  Mo  Mo168  1  0.49539899  0.09047060  0.37227729  1
  Mo  Mo169  1  0.59813058  0.19282265  0.75133404  1
  Mo  Mo170  1  0.50931244  0.70262841  0.12587856  1
  Mo  Mo171  1  0.89167115  0.10372571  0.86901860  1
  Mo  Mo172  1  0.90776570  0.70873630  0.12480063  1
  Mo  Mo173  1  0.39982182  0.59614511  0.75454564  1
  Mo  Mo174  1  0.70257141  0.31058275  0.62115888  1
  Mo  Mo175  1  0.68462044  0.28590338  0.12208325  1
  Mo  Mo176  1  0.20734080  0.00314265  0.49110140  1
  Mo  Mo177  1  0.80006555  0.60048500  -0.00589573  1
  Mo  Mo178  1  0.40437046  0.19837761  0.24284210  1
  Mo  Mo179  1  0.69265431  0.50347534  0.38201834  1
  Mo  Mo180  1  0.10576063  0.70555160  0.62421213  1
  Mo  Mo181  1  0.82561306  0.61702062  0.27369547  1
  Mo  Mo182  1  0.60451076  -0.01696719  0.00941356  1
  Mo  Mo183  1  0.60895607  0.78879855  0.75364934  1
  Mo  Mo184  1  0.59891424  0.38731372  0.01121927  1
  Mo  Mo185  1  -0.00874449  0.00251591  0.00827490  1
  Mo  Mo186  1  0.59551580  0.00944746  0.74766604  1
  Mo  Mo187  1  0.69966910  0.70798063  0.37849686  1
  Mo  Mo188  1  0.00526243  0.79705785  0.50118109  1
  Mo  Mo189  1  0.40510886  0.60633595  0.49364296  1
  Mo  Mo190  1  0.29431867  0.10688608  0.62186362  1
  Mo  Mo191  1  0.70532920  0.47690821  0.09840873  1
  Mo  Mo192  1  0.79870580  0.39214958  -0.00167604  1
  Mo  Mo193  1  0.79457241  0.81217696  0.50545345  1
  Mo  Mo194  1  0.20564862  0.59658982  0.01776659  1
  Mo  Mo195  1  0.00052633  0.80349539  0.00955609  1
  Mo  Mo196  1  0.00425691  0.20110510  0.49187612  1
  Mo  Mo197  1  0.49615142  0.08987737  0.87329739  1
  Mo  Mo198  1  0.40652940  0.80500149  0.25146134  1
  Mo  Mo199  1  0.29850381  0.50477831  0.35527387  1
