# generated using pymatgen
data_HfZrTaTiMo
_symmetry_space_group_name_H-M   'P 1'
_cell_length_a   15.19772746
_cell_length_b   15.22340117
_cell_length_c   16.86618485
_cell_angle_alpha   90.02626519
_cell_angle_beta   89.91918123
_cell_angle_gamma   90.13084227
_symmetry_Int_Tables_number   1
_chemical_formula_structural   HfZrTaTiMo
_chemical_formula_sum   'Hf40 Zr40 Ta40 Ti40 Mo40'
_cell_volume   3902.16465252
_cell_formula_units_Z   40
loop_
 _symmetry_equiv_pos_site_id
 _symmetry_equiv_pos_as_xyz
  1  'x, y, z'
loop_
 _atom_site_type_symbol
 _atom_site_label
 _atom_site_symmetry_multiplicity
 _atom_site_fract_x
 _atom_site_fract_y
 _atom_site_fract_z
 _atom_site_occupancy
  Hf  Hf0  1  0.59670936  0.39312230  0.49735815  1
  Hf  Hf1  1  0.61723933  0.00699901  0.74409507  1
  Hf  Hf2  1  0.19651095  0.39468467  0.23253872  1
  Hf  Hf3  1  0.91515502  0.51004932  0.63699308  1
  Hf  Hf4  1  0.82306693  0.00217605  0.75102443  1
  Hf  Hf5  1  0.21004321  0.01201093  0.24468417  1
  Hf  Hf6  1  0.80425285  0.41124377  0.24357412  1
  Hf  Hf7  1  0.50228539  0.10629857  0.62601299  1
  Hf  Hf8  1  0.48762110  0.89516808  0.37866772  1
  Hf  Hf9  1  0.00516394  0.18594039  0.74797439  1
  Hf  Hf10  1  0.61163472  -0.00301657  0.00421853  1
  Hf  Hf11  1  0.89799371  0.68943215  0.88919539  1
  Hf  Hf12  1  0.10185519  0.30461453  0.86730777  1
  Hf  Hf13  1  0.38220529  0.39301511  0.01034600  1
  Hf  Hf14  1  0.90461784  0.30171057  0.63326037  1
  Hf  Hf15  1  0.19444319  0.00079224  0.74985549  1
  Hf  Hf16  1  0.89605104  0.89405143  0.13224479  1
  Hf  Hf17  1  0.09769699  0.88905942  0.61191797  1
  Hf  Hf18  1  0.00371858  0.20743670  0.50466515  1
  Hf  Hf19  1  0.50368075  0.09614791  0.37183668  1
  Hf  Hf20  1  0.80036199  0.60530946  0.51286988  1
  Hf  Hf21  1  0.18431373  0.60179245  0.48688815  1
  Hf  Hf22  1  0.47943703  0.28545819  0.12996285  1
  Hf  Hf23  1  0.40364070  0.20820075  0.49400805  1
  Hf  Hf24  1  0.79755831  0.60733906  0.74165576  1
  Hf  Hf25  1  0.40852663  0.00010446  0.00352983  1
  Hf  Hf26  1  0.90417795  0.10957999  0.36894695  1
  Hf  Hf27  1  0.80473423  0.40255193  0.50684458  1
  Hf  Hf28  1  0.22403790  0.80326424  0.25255624  1
  Hf  Hf29  1  0.90475747  0.88935589  0.37125371  1
  Hf  Hf30  1  0.70415619  0.70030598  0.12378836  1
  Hf  Hf31  1  0.00478783  0.81572458  -0.00793612  1
  Hf  Hf32  1  0.29566916  0.31063397  0.86442436  1
  Hf  Hf33  1  0.58964246  0.19816366  0.00810725  1
  Hf  Hf34  1  0.28933893  0.68613444  0.61817745  1
  Hf  Hf35  1  0.48472641  0.48801291  0.87790231  1
  Hf  Hf36  1  0.59872975  0.40114144  0.25040484  1
  Hf  Hf37  1  0.79756530  0.19858580  0.75400311  1
  Hf  Hf38  1  0.80124656  0.20513323  0.00141689  1
  Hf  Hf39  1  0.49044561  0.90410436  0.63403160  1
  Zr  Zr40  1  0.58995435  0.59412789  0.00274605  1
  Zr  Zr41  1  0.90424649  0.68659318  0.10961606  1
  Zr  Zr42  1  0.10434835  0.69431026  0.89215689  1
  Zr  Zr43  1  0.78846533  0.00388055  0.25426101  1
  Zr  Zr44  1  0.11153301  0.09941428  0.88326761  1
  Zr  Zr45  1  0.39620360  0.19236297  0.75262039  1
  Zr  Zr46  1  0.00066692  0.82024349  0.76788558  1
  Zr  Zr47  1  0.60787004  0.79505927  0.73667610  1
  Zr  Zr48  1  0.08400166  0.49946811  0.36625265  1
  Zr  Zr49  1  0.90082881  0.10689912  0.12272142  1
  Zr  Zr50  1  0.58916803  0.80715807  0.00622426  1
  Zr  Zr51  1  0.69915974  0.49900778  0.87745153  1
  Zr  Zr52  1  0.31546165  0.11364266  0.11360252  1
  Zr  Zr53  1  0.69317292  0.70339952  0.88327021  1
  Zr  Zr54  1  0.47190200  0.49116549  0.61928234  1
  Zr  Zr55  1  0.48481720  0.69068856  0.14365116  1
  Zr  Zr56  1  0.59115185  0.58911186  0.74230844  1
  Zr  Zr57  1  0.21401469  0.40384225  0.50148161  1
  Zr  Zr58  1  0.80353301  0.80924243  0.75642068  1
  Zr  Zr59  1  0.19635426  0.79087916  0.74925034  1
  Zr  Zr60  1  0.10486767  0.90085991  0.37213179  1
  Zr  Zr61  1  0.50393770  0.09737319  0.86968792  1
  Zr  Zr62  1  0.49324451  0.89905028  0.85822141  1
  Zr  Zr63  1  0.19184302  0.60468798  0.25041179  1
  Zr  Zr64  1  0.10787607  0.88970514  0.12935597  1
  Zr  Zr65  1  0.69605461  0.89889353  0.38138302  1
  Zr  Zr66  1  0.81052500  0.41183170  -0.00314225  1
  Zr  Zr67  1  0.90806725  0.30993193  0.37191106  1
  Zr  Zr68  1  0.60501900  0.80475725  0.25114699  1
  Zr  Zr69  1  0.00781186  0.00822863  0.24350978  1
  Zr  Zr70  1  0.38282643  0.79839853  0.00691919  1
  Zr  Zr71  1  0.36707582  0.20105524  0.27265933  1
  Zr  Zr72  1  0.59847033  0.00143134  0.50774205  1
  Zr  Zr73  1  0.40349517  0.79404799  0.50556504  1
  Zr  Zr74  1  0.48429679  0.69584435  0.86474163  1
  Zr  Zr75  1  0.21372068  0.20028266  0.50078615  1
  Zr  Zr76  1  0.59313168  0.60261110  0.50677141  1
  Zr  Zr77  1  0.11253960  0.29787343  0.36852189  1
  Zr  Zr78  1  0.10080015  0.09291453  0.61805257  1
  Zr  Zr79  1  0.60968463  0.19858644  0.24433188  1
  Ta  Ta80  1  0.90782880  0.10023864  0.88514536  1
  Ta  Ta81  1  0.81085801  0.78364980  0.25372592  1
  Ta  Ta82  1  0.69576145  0.29555702  0.62538041  1
  Ta  Ta83  1  0.20496842  -0.01160715  0.00790448  1
  Ta  Ta84  1  0.69703846  0.50243893  0.37535099  1
  Ta  Ta85  1  0.69173931  0.30236128  0.88158658  1
  Ta  Ta86  1  0.60734776  0.20856629  0.75407718  1
  Ta  Ta87  1  0.79415227  0.39786047  0.75293482  1
  Ta  Ta88  1  0.39515789  -0.01646365  0.25005139  1
  Ta  Ta89  1  0.50410513  0.29817547  0.62730023  1
  Ta  Ta90  1  0.50247907  0.30399701  0.37131293  1
  Ta  Ta91  1  0.70508087  0.29877653  0.37727397  1
  Ta  Ta92  1  0.20055553  0.79599077  0.48730566  1
  Ta  Ta93  1  0.70138718  0.10933644  0.38232061  1
  Ta  Ta94  1  0.79695025  0.20120339  0.50341137  1
  Ta  Ta95  1  0.89086010  0.50741739  0.37753608  1
  Ta  Ta96  1  0.80525371  0.79630466  0.49874963  1
  Ta  Ta97  1  0.71678367  0.89966138  0.61487072  1
  Ta  Ta98  1  0.31024277  0.31502476  0.63995614  1
  Ta  Ta99  1  0.50475877  0.69128844  0.36672891  1
  Ta  Ta100  1  0.38448302  0.59578278  0.00447265  1
  Ta  Ta101  1  0.10728940  0.49887025  0.87907591  1
  Ta  Ta102  1  0.80953265  0.00289219  0.49593685  1
  Ta  Ta103  1  0.48825169  0.69495539  0.63282643  1
  Ta  Ta104  1  0.79569343  0.81309584  -0.00323605  1
  Ta  Ta105  1  0.90605849  0.71407190  0.62622652  1
  Ta  Ta106  1  0.70450498  0.50712234  0.11960929  1
  Ta  Ta107  1  0.10972804  0.68482255  0.10481577  1
  Ta  Ta108  1  0.70875395  0.69220788  0.37252922  1
  Ta  Ta109  1  0.50008872  0.49006553  0.12348235  1
  Ta  Ta110  1  0.31465304  0.68974995  0.37564121  1
  Ta  Ta111  1  0.00816531  0.41253893  0.50849662  1
  Ta  Ta112  1  0.00596750  0.21328422  0.00363118  1
  Ta  Ta113  1  0.10938646  0.10636686  0.37334942  1
  Ta  Ta114  1  0.50041769  0.29945856  0.88134946  1
  Ta  Ta115  1  0.37108623  0.58195475  0.75294772  1
  Ta  Ta116  1  0.28824955  0.89918918  0.87447576  1
  Ta  Ta117  1  0.91061107  0.90305464  0.61139060  1
  Ta  Ta118  1  0.47902032  0.50076155  0.37757990  1
  Ta  Ta119  1  0.00466836  0.21361977  0.23480760  1
  Ti  Ti120  1  0.91232081  0.50111706  0.86512014  1
  Ti  Ti121  1  0.21198902  -0.00386268  0.49463263  1
  Ti  Ti122  1  0.80711490  -0.00077928  0.00065070  1
  Ti  Ti123  1  0.69486315  0.31098641  0.11525178  1
  Ti  Ti124  1  0.11427798  0.30581931  0.64030355  1
  Ti  Ti125  1  0.50651937  0.08694262  0.14221197  1
  Ti  Ti126  1  -0.01679480  0.58774684  0.23891096  1
  Ti  Ti127  1  0.49608428  0.89757410  0.13815316  1
  Ti  Ti128  1  0.00556177  0.00802810  0.00749931  1
  Ti  Ti129  1  0.00519728  0.00080324  0.48767092  1
  Ti  Ti130  1  0.18333435  0.40758978  0.01715826  1
  Ti  Ti131  1  0.01304561  0.77805597  0.24906568  1
  Ti  Ti132  1  0.90252569  0.09265904  0.61736879  1
  Ti  Ti133  1  0.60336452  0.59076960  0.25169422  1
  Ti  Ti134  1  0.80148602  0.21251425  0.24124859  1
  Ti  Ti135  1  0.08443796  0.68863231  0.62541311  1
  Ti  Ti136  1  0.10795933  0.50227191  0.62925319  1
  Ti  Ti137  1  0.70005262  0.90468198  0.13271941  1
  Ti  Ti138  1  0.29534582  0.51610308  0.12932323  1
  Ti  Ti139  1  0.30317544  0.09994330  0.88036356  1
  Ti  Ti140  1  0.70710345  0.10429994  0.88049871  1
  Ti  Ti141  1  0.70094522  0.09915598  0.12692131  1
  Ti  Ti142  1  0.90836715  0.68667033  0.37234808  1
  Ti  Ti143  1  0.01058876  0.41035442  0.75098340  1
  Ti  Ti144  1  0.70687789  0.10462967  0.61667843  1
  Ti  Ti145  1  0.20741517  0.21200540  0.00942217  1
  Ti  Ti146  1  0.39296084  0.40766871  0.24456987  1
  Ti  Ti147  1  0.18397037  0.19907121  0.22162707  1
  Ti  Ti148  1  0.70668446  0.91027908  0.87641589  1
  Ti  Ti149  1  0.60832978  0.78986654  0.51117837  1
  Ti  Ti150  1  0.91136375  0.32115939  0.12242269  1
  Ti  Ti151  1  0.38434241  0.79528956  0.74572736  1
  Ti  Ti152  1  0.29737931  0.90281250  0.62222729  1
  Ti  Ti153  1  0.69718216  0.49242451  0.62990962  1
  Ti  Ti154  1  0.29099017  0.68830469  0.87940699  1
  Ti  Ti155  1  0.30436721  0.09654298  0.62830538  1
  Ti  Ti156  1  0.90088324  0.30408774  0.86888010  1
  Ti  Ti157  1  0.00531642  0.77775859  0.49006394  1
  Ti  Ti158  1  0.18555787  0.59150681  0.75224578  1
  Ti  Ti159  1  0.59623100  0.39260877  0.74836762  1
  Mo  Mo160  1  0.79440210  0.60088072  0.25427044  1
  Mo  Mo161  1  0.29506783  0.30851980  0.12303293  1
  Mo  Mo162  1  0.38929915  0.59580694  0.49437472  1
  Mo  Mo163  1  0.40167689  0.79298630  0.25479337  1
  Mo  Mo164  1  0.40143588  0.39982216  0.49644745  1
  Mo  Mo165  1  0.00681532  0.60534857  0.75270093  1
  Mo  Mo166  1  0.39986564  0.59137925  0.25000221  1
  Mo  Mo167  1  0.31737852  0.33075821  0.37470455  1
  Mo  Mo168  1  0.00046317  0.57364944  0.00117684  1
  Mo  Mo169  1  -0.00220435  0.40189855  0.24278372  1
  Mo  Mo170  1  0.59649947  0.00173874  0.24853022  1
  Mo  Mo171  1  0.39303515  0.19968090  -0.01387555  1
  Mo  Mo172  1  -0.00723609  0.59922536  0.49995611  1
  Mo  Mo173  1  0.60775714  0.20465040  0.49741791  1
  Mo  Mo174  1  0.07956595  0.49776575  0.12270894  1
  Mo  Mo175  1  0.79726347  0.60424224  -0.00426302  1
  Mo  Mo176  1  0.29379292  0.70004642  0.12521693  1
  Mo  Mo177  1  0.89944994  0.91590403  0.89113887  1
  Mo  Mo178  1  0.38939267  0.00464867  0.50627437  1
  Mo  Mo179  1  0.38599355  -0.00973913  0.75074498  1
  Mo  Mo180  1  0.10610823  0.91151144  0.88629480  1
  Mo  Mo181  1  0.40711161  0.39999828  0.75520546  1
  Mo  Mo182  1  0.59488027  0.39340401  0.01090249  1
  Mo  Mo183  1  0.30403064  0.89658350  0.38309288  1
  Mo  Mo184  1  0.20641275  0.59085072  0.00637241  1
  Mo  Mo185  1  0.09441511  0.30060387  0.11415597  1
  Mo  Mo186  1  0.31031401  0.90154966  0.12536290  1
  Mo  Mo187  1  -0.00095365  -0.00272665  0.75050212  1
  Mo  Mo188  1  0.20549029  0.79855785  0.00059391  1
  Mo  Mo189  1  0.89678168  0.50305481  0.12124224  1
  Mo  Mo190  1  0.28791561  0.50309122  0.88189438  1
  Mo  Mo191  1  0.20731714  0.41450364  0.74597753  1
  Mo  Mo192  1  -0.00050225  0.39811230  -0.01312996  1
  Mo  Mo193  1  0.20150899  0.20478548  0.73829090  1
  Mo  Mo194  1  0.09299523  0.70454380  0.36835268  1
  Mo  Mo195  1  0.28656359  0.50078956  0.62626938  1
  Mo  Mo196  1  0.70201683  0.70521109  0.61978657  1
  Mo  Mo197  1  0.10286243  0.10343588  0.10604272  1
  Mo  Mo198  1  0.30560539  0.07265547  0.38359196  1
  Mo  Mo199  1  0.29883326  0.50183867  0.36405414  1
