# generated using pymatgen
data_HfZrTaTiMo
_symmetry_space_group_name_H-M   'P 1'
_cell_length_a   15.21832767
_cell_length_b   15.21175517
_cell_length_c   16.83973444
_cell_angle_alpha   89.95090640
_cell_angle_beta   89.95960619
_cell_angle_gamma   89.98822653
_symmetry_Int_Tables_number   1
_chemical_formula_structural   HfZrTaTiMo
_chemical_formula_sum   'Hf40 Zr40 Ta40 Ti40 Mo40'
_cell_volume   3898.35351358
_cell_formula_units_Z   40
loop_
 _symmetry_equiv_pos_site_id
 _symmetry_equiv_pos_as_xyz
  1  'x, y, z'
loop_
 _atom_site_type_symbol
 _atom_site_label
 _atom_site_symmetry_multiplicity
 _atom_site_fract_x
 _atom_site_fract_y
 _atom_site_fract_z
 _atom_site_occupancy
  Hf  Hf0  1  0.62239158  0.01545392  -0.00670818  1
  Hf  Hf1  1  0.82076181  0.40611802  0.73702251  1
  Hf  Hf2  1  0.08298141  0.69588828  0.87465666  1
  Hf  Hf3  1  0.78863836  0.59495347  0.49237188  1
  Hf  Hf4  1  0.19806543  0.19624066  0.74680553  1
  Hf  Hf5  1  0.50028015  0.08387691  0.61224756  1
  Hf  Hf6  1  0.09929105  0.70550964  0.63028124  1
  Hf  Hf7  1  0.39949504  0.40305079  0.72924295  1
  Hf  Hf8  1  0.19729498  0.80569745  0.76529426  1
  Hf  Hf9  1  0.59446603  0.80292991  0.75648269  1
  Hf  Hf10  1  0.78860595  0.78321554  0.73854156  1
  Hf  Hf11  1  0.19742535  0.40051531  0.50789173  1
  Hf  Hf12  1  -0.01245507  0.80924782  0.74995977  1
  Hf  Hf13  1  0.79468291  0.01181709  0.49213229  1
  Hf  Hf14  1  0.20858485  0.59558159  0.76048080  1
  Hf  Hf15  1  0.91307074  0.89971717  0.38179979  1
  Hf  Hf16  1  0.59985827  0.79805674  0.00684094  1
  Hf  Hf17  1  0.39391614  0.80359703  0.76636551  1
  Hf  Hf18  1  0.39135281  0.38446528  0.24835845  1
  Hf  Hf19  1  0.09104353  0.70949937  0.37161201  1
  Hf  Hf20  1  0.60636743  0.41132600  0.72365439  1
  Hf  Hf21  1  0.00123701  0.59577710  0.50476059  1
  Hf  Hf22  1  0.39801073  0.41522342  0.51729000  1
  Hf  Hf23  1  0.11006671  0.91524012  0.37602812  1
  Hf  Hf24  1  0.70913748  0.90492464  0.13387830  1
  Hf  Hf25  1  0.30682960  0.69889269  0.62571560  1
  Hf  Hf26  1  -0.02451477  0.59301514  0.74562350  1
  Hf  Hf27  1  0.19316353  -0.00147483  0.51357574  1
  Hf  Hf28  1  0.89292651  0.12220434  0.63474747  1
  Hf  Hf29  1  0.00306312  0.39306408  0.24738914  1
  Hf  Hf30  1  0.69264527  0.29717691  0.12882097  1
  Hf  Hf31  1  0.20277792  0.01214740  0.22972576  1
  Hf  Hf32  1  0.49660901  0.11304179  0.38236337  1
  Hf  Hf33  1  0.28515864  0.10283830  0.37156176  1
  Hf  Hf34  1  0.67880207  0.89463384  0.61122045  1
  Hf  Hf35  1  -0.02135379  0.81048176  -0.01002052  1
  Hf  Hf36  1  0.59272148  0.60348977  0.26451304  1
  Hf  Hf37  1  0.69759154  0.10165265  0.13791125  1
  Hf  Hf38  1  0.09132753  0.49010901  0.63354529  1
  Hf  Hf39  1  0.69069339  0.49418872  0.12940562  1
  Zr  Zr40  1  0.00505128  0.00468216  0.24500758  1
  Zr  Zr41  1  0.50071138  0.30705210  0.39253339  1
  Zr  Zr42  1  0.70276487  0.29800662  0.85906543  1
  Zr  Zr43  1  0.39341308  -0.00939961  0.48318222  1
  Zr  Zr44  1  0.81502960  0.79329372  0.25720036  1
  Zr  Zr45  1  0.61036685  0.40818895  0.51836495  1
  Zr  Zr46  1  0.00633632  0.00336842  0.74031176  1
  Zr  Zr47  1  0.79433732  0.59293014  0.26003267  1
  Zr  Zr48  1  0.09025072  0.48040488  0.87991752  1
  Zr  Zr49  1  0.79893904  0.38856871  0.25666830  1
  Zr  Zr50  1  0.19672925  0.38820967  0.75036303  1
  Zr  Zr51  1  0.78785171  0.18499836  -0.00939732  1
  Zr  Zr52  1  0.31049296  0.08527828  0.88114188  1
  Zr  Zr53  1  0.10768670  0.50584263  0.36566467  1
  Zr  Zr54  1  0.40706559  0.79818118  0.47516231  1
  Zr  Zr55  1  0.79696672  -0.01113376  0.74573587  1
  Zr  Zr56  1  0.08899513  0.71329891  0.11994147  1
  Zr  Zr57  1  -0.01313352  0.61259314  0.24690797  1
  Zr  Zr58  1  0.59854782  0.00300100  0.75661299  1
  Zr  Zr59  1  0.29140939  0.69032548  0.13694440  1
  Zr  Zr60  1  0.20635142  -0.00554210  0.74132778  1
  Zr  Zr61  1  0.41637781  0.00422515  0.01928955  1
  Zr  Zr62  1  0.10149953  0.11033419  0.88358282  1
  Zr  Zr63  1  0.39310558  0.79782401  0.00151257  1
  Zr  Zr64  1  0.10686992  0.29630059  0.37299357  1
  Zr  Zr65  1  0.10558050  0.50575397  0.12436555  1
  Zr  Zr66  1  0.20253834  0.00202316  0.01586570  1
  Zr  Zr67  1  0.79605952  0.60949772  0.01162270  1
  Zr  Zr68  1  0.20136375  0.21876495  0.23363330  1
  Zr  Zr69  1  0.20599479  0.79959374  0.49462806  1
  Zr  Zr70  1  0.29905035  0.48872145  0.12665769  1
  Zr  Zr71  1  0.49808951  0.90922012  0.88474703  1
  Zr  Zr72  1  0.50001778  0.30743921  0.86350168  1
  Zr  Zr73  1  0.40406111  0.59879227  0.00005286  1
  Zr  Zr74  1  0.29960983  0.28865961  0.88312414  1
  Zr  Zr75  1  0.79902793  0.39233914  -0.00292459  1
  Zr  Zr76  1  0.89381561  0.09299580  0.87271955  1
  Zr  Zr77  1  0.29727534  0.67737504  0.35839974  1
  Zr  Zr78  1  0.41548930  0.59934527  0.74594675  1
  Zr  Zr79  1  0.40861505  0.80078033  0.25623114  1
  Ta  Ta80  1  0.59237482  0.60690702  0.49297611  1
  Ta  Ta81  1  0.90167561  0.48716243  0.38443422  1
  Ta  Ta82  1  0.70135009  0.50646255  0.87094046  1
  Ta  Ta83  1  0.70551696  0.28942430  0.38020622  1
  Ta  Ta84  1  0.61684889  0.19247259  0.50441574  1
  Ta  Ta85  1  0.31292269  0.89548311  0.62522952  1
  Ta  Ta86  1  0.69052645  0.69489186  0.88025831  1
  Ta  Ta87  1  -0.00867550  0.59852794  0.00208960  1
  Ta  Ta88  1  0.51140214  0.71884951  0.61661807  1
  Ta  Ta89  1  0.19269540  0.81061924  0.25024218  1
  Ta  Ta90  1  0.09433066  0.11597923  0.62312297  1
  Ta  Ta91  1  0.59851328  -0.00673533  0.48038834  1
  Ta  Ta92  1  0.51551335  0.49884419  0.87258904  1
  Ta  Ta93  1  0.87703625  0.70056701  0.87484414  1
  Ta  Ta94  1  0.80577586  0.01526045  0.26528146  1
  Ta  Ta95  1  0.20228484  0.60285259  -0.01569920  1
  Ta  Ta96  1  0.40269754  0.19210663  0.73845659  1
  Ta  Ta97  1  0.80567255  0.39368103  0.50793653  1
  Ta  Ta98  1  0.40686052  0.19522168  0.24341577  1
  Ta  Ta99  1  0.69545909  0.70384820  0.13197865  1
  Ta  Ta100  1  0.59195090  0.39677295  0.26053928  1
  Ta  Ta101  1  0.60670128  0.80065871  0.26591551  1
  Ta  Ta102  1  0.59641425  0.59068140  0.00509129  1
  Ta  Ta103  1  0.20931781  0.59283363  0.50693507  1
  Ta  Ta104  1  0.60039747  0.79897606  0.47270089  1
  Ta  Ta105  1  0.50175993  0.28489830  0.61600835  1
  Ta  Ta106  1  0.31443082  0.49253444  0.88058108  1
  Ta  Ta107  1  0.90118348  0.49148909  0.12071906  1
  Ta  Ta108  1  0.19883141  0.80121443  -0.01438458  1
  Ta  Ta109  1  0.89564990  0.49925220  0.88185048  1
  Ta  Ta110  1  0.29759875  0.28935287  0.61719874  1
  Ta  Ta111  1  0.41636730  0.39483286  0.00343315  1
  Ta  Ta112  1  -0.00506389  0.38463962  0.50295417  1
  Ta  Ta113  1  0.89839109  0.28750750  0.12677158  1
  Ta  Ta114  1  0.89761836  0.09050023  0.11572485  1
  Ta  Ta115  1  0.50623591  0.11645700  0.87227389  1
  Ta  Ta116  1  0.90222479  0.89310813  0.12852770  1
  Ta  Ta117  1  -0.00548995  0.21251668  -0.00186747  1
  Ta  Ta118  1  -0.00412908  0.00895338  0.51245347  1
  Ta  Ta119  1  0.61629912  0.60812198  0.73645338  1
  Ti  Ti120  1  0.60004769  0.00621058  0.26752667  1
  Ti  Ti121  1  0.50223060  0.69446256  0.13318369  1
  Ti  Ti122  1  0.88567356  0.69067180  0.61785629  1
  Ti  Ti123  1  0.79505607  0.79852353  0.49896097  1
  Ti  Ti124  1  0.60222784  0.20254708  0.25954391  1
  Ti  Ti125  1  0.50233374  0.69089303  0.87819179  1
  Ti  Ti126  1  -0.00860264  0.19267550  0.24170360  1
  Ti  Ti127  1  -0.00594955  0.22814063  0.75959438  1
  Ti  Ti128  1  0.81420651  0.20365782  0.49604358  1
  Ti  Ti129  1  0.89897123  0.70032787  0.38764770  1
  Ti  Ti130  1  0.60438590  0.19685621  0.74029069  1
  Ti  Ti131  1  0.40247254  0.60212726  0.50463017  1
  Ti  Ti132  1  0.69177119  0.48653534  0.37813850  1
  Ti  Ti133  1  0.30545789  0.10023694  0.61849889  1
  Ti  Ti134  1  0.09819404  0.30856525  0.11564957  1
  Ti  Ti135  1  0.72567643  0.89283428  0.88552967  1
  Ti  Ti136  1  0.50062365  0.29654492  0.12643230  1
  Ti  Ti137  1  0.31494652  0.10993035  0.12581915  1
  Ti  Ti138  1  0.08225577  0.10856331  0.38345989  1
  Ti  Ti139  1  0.51479704  0.91080382  0.13929793  1
  Ti  Ti140  1  0.30358728  0.89357794  0.13055379  1
  Ti  Ti141  1  0.30690409  0.29424289  0.38778448  1
  Ti  Ti142  1  0.70756120  0.90075619  0.37163543  1
  Ti  Ti143  1  0.20033245  0.20316053  0.01560197  1
  Ti  Ti144  1  0.69963368  0.09902639  0.62440307  1
  Ti  Ti145  1  0.09217048  0.91478383  0.88455024  1
  Ti  Ti146  1  0.00295078  0.80732118  0.51290370  1
  Ti  Ti147  1  0.48318719  0.50636946  0.37323955  1
  Ti  Ti148  1  0.40663784  0.19983867  0.00974311  1
  Ti  Ti149  1  0.19338737  0.19947845  0.50526320  1
  Ti  Ti150  1  0.40249844  -0.00258174  0.74754864  1
  Ti  Ti151  1  0.40575959  0.00467454  0.24913208  1
  Ti  Ti152  1  0.50122756  0.49405275  0.13239686  1
  Ti  Ti153  1  0.90412234  0.28562834  0.37302911  1
  Ti  Ti154  1  0.89661998  0.89939864  0.61494336  1
  Ti  Ti155  1  0.09354475  0.90587545  0.11710219  1
  Ti  Ti156  1  0.72045000  0.28506838  0.63059809  1
  Ti  Ti157  1  0.20296091  0.39485148  -0.00400393  1
  Ti  Ti158  1  0.59204212  0.21234219  -0.00185992  1
  Ti  Ti159  1  0.29499460  0.48735068  0.36250079  1
  Mo  Mo160  1  0.09436835  0.29165750  0.62338466  1
  Mo  Mo161  1  0.78920378  0.80262617  0.00623815  1
  Mo  Mo162  1  0.50006230  0.69293617  0.37455713  1
  Mo  Mo163  1  0.79291621  0.59878140  0.74898647  1
  Mo  Mo164  1  0.70438433  0.70313068  0.37879548  1
  Mo  Mo165  1  0.09849139  0.29547858  0.88908787  1
  Mo  Mo166  1  -0.00011435  0.19605063  0.49765665  1
  Mo  Mo167  1  0.50610051  0.90692002  0.35732386  1
  Mo  Mo168  1  0.19962764  0.39501283  0.24636968  1
  Mo  Mo169  1  -0.00040191  0.39815311  0.75133063  1
  Mo  Mo170  1  0.90113947  0.89279756  0.87067034  1
  Mo  Mo171  1  0.69461098  0.70254687  0.60969139  1
  Mo  Mo172  1  0.19920448  0.60073968  0.24853591  1
  Mo  Mo173  1  -0.00446735  0.00639544  0.00706754  1
  Mo  Mo174  1  0.90484930  0.10510788  0.37766239  1
  Mo  Mo175  1  0.91143071  0.30034892  0.62237867  1
  Mo  Mo176  1  -0.00466495  0.40068380  0.01158229  1
  Mo  Mo177  1  0.30652344  0.29782943  0.10755503  1
  Mo  Mo178  1  0.79497807  0.20064980  0.75294861  1
  Mo  Mo179  1  0.89297624  0.70012195  0.12130461  1
  Mo  Mo180  1  0.49150802  0.89404727  0.61987452  1
  Mo  Mo181  1  0.69390833  0.09835155  0.86837806  1
  Mo  Mo182  1  0.29214461  0.90091783  0.88322513  1
  Mo  Mo183  1  0.80734279  0.19626121  0.25259841  1
  Mo  Mo184  1  0.51087397  0.10675675  0.13694073  1
  Mo  Mo185  1  0.91445205  0.30954926  0.87587584  1
  Mo  Mo186  1  0.59429168  0.40280610  0.00034137  1
  Mo  Mo187  1  0.08702263  0.11577875  0.11252339  1
  Mo  Mo188  1  0.29626690  0.69277206  0.87812963  1
  Mo  Mo189  1  0.29509995  0.90850664  0.35240169  1
  Mo  Mo190  1  0.50405391  0.51901960  0.61914172  1
  Mo  Mo191  1  0.71109467  0.51496121  0.62142437  1
  Mo  Mo192  1  0.39454158  0.20021219  0.50918422  1
  Mo  Mo193  1  0.89951044  0.50050298  0.60929263  1
  Mo  Mo194  1  0.70155418  0.10755858  0.37297137  1
  Mo  Mo195  1  0.81285054  -0.01637300  0.00089873  1
  Mo  Mo196  1  0.29642687  0.50500060  0.62328216  1
  Mo  Mo197  1  0.40618932  0.58424735  0.24741804  1
  Mo  Mo198  1  0.09646239  0.90014036  0.61900008  1
  Mo  Mo199  1  0.00474980  0.81144282  0.24727196  1
