# generated using pymatgen
data_HfZrTaTiMo
_symmetry_space_group_name_H-M   'P 1'
_cell_length_a   15.17455201
_cell_length_b   15.18199037
_cell_length_c   16.78667722
_cell_angle_alpha   89.99689804
_cell_angle_beta   90.01185797
_cell_angle_gamma   90.05598123
_symmetry_Int_Tables_number   1
_chemical_formula_structural   HfZrTaTiMo
_chemical_formula_sum   'Hf40 Zr40 Ta40 Ti40 Mo40'
_cell_volume   3867.31112667
_cell_formula_units_Z   40
loop_
 _symmetry_equiv_pos_site_id
 _symmetry_equiv_pos_as_xyz
  1  'x, y, z'
loop_
 _atom_site_type_symbol
 _atom_site_label
 _atom_site_symmetry_multiplicity
 _atom_site_fract_x
 _atom_site_fract_y
 _atom_site_fract_z
 _atom_site_occupancy
  Hf  Hf0  1  0.89346988  0.30472124  0.89061816  1
  Hf  Hf1  1  0.41163488  0.80677327  0.50730362  1
  Hf  Hf2  1  0.09806932  0.07537811  0.12456214  1
  Hf  Hf3  1  0.70279635  0.91228358  0.13460918  1
  Hf  Hf4  1  0.60611681  0.20203691  0.48472454  1
  Hf  Hf5  1  0.81006949  0.01529234  0.49615352  1
  Hf  Hf6  1  0.58587360  0.01760880  0.00734161  1
  Hf  Hf7  1  0.60235649  0.81370483  0.00049084  1
  Hf  Hf8  1  0.89495511  0.10253672  0.87282945  1
  Hf  Hf9  1  0.71620001  0.11439859  0.35555732  1
  Hf  Hf10  1  0.10316747  0.49834593  0.36549117  1
  Hf  Hf11  1  0.38807866  -0.00806557  -0.00243686  1
  Hf  Hf12  1  0.18525524  0.19630721  0.26581014  1
  Hf  Hf13  1  0.11504518  0.69490954  0.12921862  1
  Hf  Hf14  1  0.59281484  0.41984418  0.00215012  1
  Hf  Hf15  1  0.30270559  0.50482517  0.13043674  1
  Hf  Hf16  1  0.49824664  0.49143659  0.62664906  1
  Hf  Hf17  1  0.80115711  0.39587770  0.48172474  1
  Hf  Hf18  1  0.80900029  0.80493453  0.24715070  1
  Hf  Hf19  1  0.63181709  0.81144064  0.76088297  1
  Hf  Hf20  1  0.70192171  0.30930705  0.62113995  1
  Hf  Hf21  1  0.08529820  0.08406076  0.61286503  1
  Hf  Hf22  1  0.68191854  0.10277601  0.86629317  1
  Hf  Hf23  1  0.00767326  0.79741284  -0.00214104  1
  Hf  Hf24  1  0.80782871  0.40841614  0.24716315  1
  Hf  Hf25  1  0.41722340  0.59523471  -0.00407391  1
  Hf  Hf26  1  0.40328712  0.00637671  0.50692433  1
  Hf  Hf27  1  0.19835109  0.18015036  -0.00324319  1
  Hf  Hf28  1  0.39447752  0.20384369  0.26422125  1
  Hf  Hf29  1  0.60095924  0.60507463  0.49081981  1
  Hf  Hf30  1  0.06935210  0.29475885  0.38818891  1
  Hf  Hf31  1  0.50911059  0.70942086  0.63418124  1
  Hf  Hf32  1  0.00055723  -0.00689207  0.76018256  1
  Hf  Hf33  1  0.19334540  -0.00841182  0.26817217  1
  Hf  Hf34  1  0.50156957  0.29461637  0.87170345  1
  Hf  Hf35  1  0.19648644  0.39884197  0.00246119  1
  Hf  Hf36  1  0.20153268  0.59724562  0.49992605  1
  Hf  Hf37  1  0.39902692  0.39177126  0.00154605  1
  Hf  Hf38  1  0.80614844  0.61266365  0.74990825  1
  Hf  Hf39  1  0.70167403  0.71568301  0.37892349  1
  Zr  Zr40  1  0.79177013  0.21467029  0.75190488  1
  Zr  Zr41  1  0.30091692  0.49428226  0.87729204  1
  Zr  Zr42  1  0.30157367  0.09454200  0.13648125  1
  Zr  Zr43  1  -0.00109996  0.38905137  0.23443523  1
  Zr  Zr44  1  0.79022583  0.19773991  0.01475323  1
  Zr  Zr45  1  -0.00244359  0.39466797  0.75386097  1
  Zr  Zr46  1  0.70721664  0.90480437  0.61587531  1
  Zr  Zr47  1  0.90334857  0.69619044  0.37055273  1
  Zr  Zr48  1  0.19201912  0.59692368  0.76230016  1
  Zr  Zr49  1  0.90206501  0.48912848  0.61723828  1
  Zr  Zr50  1  0.28614202  0.08863201  0.85156531  1
  Zr  Zr51  1  0.59118494  0.80613280  0.24300795  1
  Zr  Zr52  1  0.20616800  0.81108919  -0.01134633  1
  Zr  Zr53  1  0.29693062  0.69980806  0.63807534  1
  Zr  Zr54  1  0.90348587  0.68579571  0.89172198  1
  Zr  Zr55  1  0.71250857  0.70933533  0.61092146  1
  Zr  Zr56  1  0.10629016  0.49443305  0.61907360  1
  Zr  Zr57  1  -0.02224344  0.18413927  0.24154808  1
  Zr  Zr58  1  0.39988994  0.59019099  0.50087439  1
  Zr  Zr59  1  0.19732782  0.19239493  0.49090359  1
  Zr  Zr60  1  0.01725065  -0.00350104  -0.01944252  1
  Zr  Zr61  1  0.40167141  0.21975899  0.48915630  1
  Zr  Zr62  1  0.31195001  0.69347815  0.36514445  1
  Zr  Zr63  1  0.20624298  0.80137167  0.49480623  1
  Zr  Zr64  1  0.08212152  0.29512480  0.60679689  1
  Zr  Zr65  1  0.21039851  0.80290825  0.25376525  1
  Zr  Zr66  1  0.58964433  0.40963568  0.26835568  1
  Zr  Zr67  1  0.00150149  0.78604213  0.76166293  1
  Zr  Zr68  1  0.31588271  0.88845377  0.84997646  1
  Zr  Zr69  1  0.69400877  0.30630856  0.13744378  1
  Zr  Zr70  1  0.49346945  0.29800464  0.13608910  1
  Zr  Zr71  1  0.09480020  0.29062597  0.88357902  1
  Zr  Zr72  1  0.79405460  -0.00260686  0.00301253  1
  Zr  Zr73  1  0.58472498  0.40205647  0.47769834  1
  Zr  Zr74  1  0.40184181  0.18800087  0.00173779  1
  Zr  Zr75  1  0.50388810  0.70855465  0.87138674  1
  Zr  Zr76  1  0.29491812  0.10083152  0.62938204  1
  Zr  Zr77  1  0.61122968  0.59878984  0.75410303  1
  Zr  Zr78  1  0.09777374  0.69318990  0.36491875  1
  Zr  Zr79  1  0.60302967  0.39842110  0.75825392  1
  Ta  Ta80  1  0.59293535  0.20609841  0.00485520  1
  Ta  Ta81  1  0.21264540  0.39523415  0.48890325  1
  Ta  Ta82  1  0.69896675  0.91439478  0.37032844  1
  Ta  Ta83  1  -0.01030225  0.59365170  0.23531837  1
  Ta  Ta84  1  0.89863901  0.49543750  0.88922186  1
  Ta  Ta85  1  0.29773486  0.28868353  0.86590234  1
  Ta  Ta86  1  0.79939023  0.59783505  0.01324481  1
  Ta  Ta87  1  0.88058479  0.88698123  0.87748234  1
  Ta  Ta88  1  0.20142313  0.38811950  0.75086790  1
  Ta  Ta89  1  0.40297818  0.79749162  0.00330212  1
  Ta  Ta90  1  0.60319567  0.60821393  0.25706786  1
  Ta  Ta91  1  0.10589277  0.88803060  0.62865528  1
  Ta  Ta92  1  -0.00430740  0.39924781  0.01868309  1
  Ta  Ta93  1  0.79849327  0.41564734  0.75612777  1
  Ta  Ta94  1  0.88957890  0.10178392  0.63224500  1
  Ta  Ta95  1  0.51001068  0.91610971  0.85851251  1
  Ta  Ta96  1  -0.00117844  0.59163731  0.75399274  1
  Ta  Ta97  1  0.10319154  0.28720171  0.12114801  1
  Ta  Ta98  1  0.40143927  0.20671138  0.73803774  1
  Ta  Ta99  1  0.90579093  0.90943365  0.37478557  1
  Ta  Ta100  1  0.70612292  0.51191476  0.88771038  1
  Ta  Ta101  1  0.68740729  0.10471400  0.63013246  1
  Ta  Ta102  1  0.69073687  0.51664894  0.13165992  1
  Ta  Ta103  1  0.39881585  -0.01168220  0.25489714  1
  Ta  Ta104  1  -0.00459396  0.19672070  0.74635889  1
  Ta  Ta105  1  0.50781958  0.09360278  0.36392929  1
  Ta  Ta106  1  0.70191758  0.50367824  0.61613556  1
  Ta  Ta107  1  0.30207421  0.09017356  0.37828650  1
  Ta  Ta108  1  0.80708891  0.59946932  0.49700506  1
  Ta  Ta109  1  0.00527185  0.80718722  0.24087107  1
  Ta  Ta110  1  0.09170264  0.69728653  0.62384055  1
  Ta  Ta111  1  0.59911735  0.00208483  0.49661735  1
  Ta  Ta112  1  0.30203021  0.89877364  0.64501964  1
  Ta  Ta113  1  0.90795965  0.89867835  0.62436173  1
  Ta  Ta114  1  0.28957625  0.29867798  0.13288676  1
  Ta  Ta115  1  0.70260160  0.70534970  0.12055617  1
  Ta  Ta116  1  0.40349479  0.59666473  0.76013766  1
  Ta  Ta117  1  0.90162801  0.70089780  0.12252544  1
  Ta  Ta118  1  0.50173700  0.90003402  0.37514704  1
  Ta  Ta119  1  0.50742899  0.91563811  0.64179041  1
  Ti  Ti120  1  0.39515336  0.40313001  0.25673370  1
  Ti  Ti121  1  0.91026604  0.49536391  0.37396811  1
  Ti  Ti122  1  0.69931658  0.30939684  0.88575585  1
  Ti  Ti123  1  0.09078438  0.49856090  0.88302992  1
  Ti  Ti124  1  0.49039531  0.90863210  0.12825637  1
  Ti  Ti125  1  0.00990584  0.58968720  0.01309327  1
  Ti  Ti126  1  0.48949891  0.10073833  0.85736275  1
  Ti  Ti127  1  0.80832432  0.80974553  0.49097819  1
  Ti  Ti128  1  0.50762918  0.68995177  0.12014647  1
  Ti  Ti129  1  0.79161654  -0.01183566  0.75248582  1
  Ti  Ti130  1  0.30481194  0.49522948  0.36725899  1
  Ti  Ti131  1  0.41310006  0.59687453  0.24634168  1
  Ti  Ti132  1  0.30219849  0.49280219  0.63051339  1
  Ti  Ti133  1  -0.00018579  -0.00982242  0.25202457  1
  Ti  Ti134  1  0.18544634  0.19830794  0.74315823  1
  Ti  Ti135  1  0.20736808  0.61007068  -0.01068416  1
  Ti  Ti136  1  0.29871467  0.30942567  0.62568890  1
  Ti  Ti137  1  -0.00002251  0.79831745  0.50178096  1
  Ti  Ti138  1  0.20163373  -0.01350259  0.49511830  1
  Ti  Ti139  1  -0.00132245  0.59434273  0.49895744  1
  Ti  Ti140  1  0.28871231  0.89826082  0.12353587  1
  Ti  Ti141  1  0.81733998  0.01257528  0.24459047  1
  Ti  Ti142  1  0.50230547  0.70458550  0.37485571  1
  Ti  Ti143  1  0.91421001  0.90687474  0.11987296  1
  Ti  Ti144  1  0.79771522  0.40570373  0.01697329  1
  Ti  Ti145  1  0.10902472  0.49676983  0.13326963  1
  Ti  Ti146  1  -0.00802699  0.19239995  0.01359973  1
  Ti  Ti147  1  0.40283268  0.80088226  0.24551235  1
  Ti  Ti148  1  0.30977994  0.69939690  0.12626974  1
  Ti  Ti149  1  0.80454756  0.20583352  0.49908411  1
  Ti  Ti150  1  0.71768797  0.71655179  0.89383028  1
  Ti  Ti151  1  0.71118601  0.51606464  0.36668596  1
  Ti  Ti152  1  0.09300385  0.89302088  0.38408563  1
  Ti  Ti153  1  0.68439918  0.10812755  0.14777914  1
  Ti  Ti154  1  0.49975185  0.29746724  0.62417764  1
  Ti  Ti155  1  0.90485442  0.70215506  0.61946758  1
  Ti  Ti156  1  0.07599793  0.08378318  0.39281109  1
  Ti  Ti157  1  0.19206828  0.79220939  0.76461706  1
  Ti  Ti158  1  0.20243522  0.39240477  0.25369744  1
  Ti  Ti159  1  0.39738426  0.39988083  0.75503395  1
  Mo  Mo160  1  0.10383653  0.68666791  0.88536791  1
  Mo  Mo161  1  0.89851271  0.50466155  0.11761307  1
  Mo  Mo162  1  0.79820900  0.60442564  0.24071268  1
  Mo  Mo163  1  0.89533060  0.29323265  0.62393347  1
  Mo  Mo164  1  0.49177841  0.30204487  0.36847488  1
  Mo  Mo165  1  0.40655122  0.00666777  0.73760853  1
  Mo  Mo166  1  0.81603600  0.80630911  0.74870268  1
  Mo  Mo167  1  0.60572235  0.01055626  0.74852397  1
  Mo  Mo168  1  -0.02685579  0.18536475  0.50102911  1
  Mo  Mo169  1  0.70052062  0.90610750  0.88092088  1
  Mo  Mo170  1  0.90020468  0.29555852  0.11033405  1
  Mo  Mo171  1  0.60706255  0.60940231  -0.00109158  1
  Mo  Mo172  1  0.80212955  0.20489742  0.23302255  1
  Mo  Mo173  1  0.87887137  0.28594118  0.36813033  1
  Mo  Mo174  1  0.31125615  0.90378115  0.37837134  1
  Mo  Mo175  1  0.50259591  0.09422606  0.14473912  1
  Mo  Mo176  1  0.28610227  0.30783585  0.36788623  1
  Mo  Mo177  1  0.50113682  0.51092765  0.13566777  1
  Mo  Mo178  1  0.20615897  0.58798208  0.24425569  1
  Mo  Mo179  1  0.18967681  -0.00890829  0.74139353  1
  Mo  Mo180  1  0.41282230  0.79642404  0.74319712  1
  Mo  Mo181  1  0.00003474  -0.01603515  0.50509335  1
  Mo  Mo182  1  0.48861019  0.51585693  0.36895770  1
  Mo  Mo183  1  0.89295033  0.08451372  0.11938804  1
  Mo  Mo184  1  0.70346393  0.30411289  0.36225324  1
  Mo  Mo185  1  0.59127149  0.20409953  0.74314548  1
  Mo  Mo186  1  0.50620305  0.11014597  0.62561520  1
  Mo  Mo187  1  -0.00605192  0.40190359  0.48968180  1
  Mo  Mo188  1  0.30656054  0.69706386  0.87214058  1
  Mo  Mo189  1  0.90495289  0.09898139  0.37458113  1
  Mo  Mo190  1  0.10195427  0.89553334  0.12810315  1
  Mo  Mo191  1  0.50470658  0.49827058  0.86842737  1
  Mo  Mo192  1  0.10782094  0.90297386  0.86317908  1
  Mo  Mo193  1  0.20700762  -0.00748664  -0.00524784  1
  Mo  Mo194  1  0.59650010  0.00249601  0.24940844  1
  Mo  Mo195  1  0.38915506  0.40260355  0.50114400  1
  Mo  Mo196  1  0.09731396  0.10432770  0.86634901  1
  Mo  Mo197  1  0.59629676  0.20568667  0.26520880  1
  Mo  Mo198  1  0.80518966  0.80183961  0.01600488  1
  Mo  Mo199  1  0.59926588  0.81784225  0.49220772  1
