# generated using pymatgen
data_HfZrTaTiMo
_symmetry_space_group_name_H-M   'P 1'
_cell_length_a   15.21038872
_cell_length_b   15.19586708
_cell_length_c   16.86330919
_cell_angle_alpha   90.03377814
_cell_angle_beta   89.99968198
_cell_angle_gamma   89.96437159
_symmetry_Int_Tables_number   1
_chemical_formula_structural   HfZrTaTiMo
_chemical_formula_sum   'Hf40 Zr40 Ta40 Ti40 Mo40'
_cell_volume   3897.70030267
_cell_formula_units_Z   40
loop_
 _symmetry_equiv_pos_site_id
 _symmetry_equiv_pos_as_xyz
  1  'x, y, z'
loop_
 _atom_site_type_symbol
 _atom_site_label
 _atom_site_symmetry_multiplicity
 _atom_site_fract_x
 _atom_site_fract_y
 _atom_site_fract_z
 _atom_site_occupancy
  Hf  Hf0  1  0.49840137  0.29691504  0.62267987  1
  Hf  Hf1  1  -0.00894023  0.20472695  0.49133849  1
  Hf  Hf2  1  0.70774267  0.29495355  0.62101374  1
  Hf  Hf3  1  0.58664564  -0.00343476  0.02298367  1
  Hf  Hf4  1  0.77858655  0.00249003  0.75310159  1
  Hf  Hf5  1  0.79406817  0.21038850  0.77054858  1
  Hf  Hf6  1  0.10476596  0.88949040  0.85780025  1
  Hf  Hf7  1  0.28765265  0.08099216  0.39184116  1
  Hf  Hf8  1  0.68109217  0.09277977  0.89456615  1
  Hf  Hf9  1  -0.01716449  0.59788776  0.50727831  1
  Hf  Hf10  1  0.77831518  0.60230693  0.75485451  1
  Hf  Hf11  1  0.19984974  0.79353207  0.72068749  1
  Hf  Hf12  1  0.29163931  0.71758730  0.37968366  1
  Hf  Hf13  1  0.80524593  0.19568621  0.24405901  1
  Hf  Hf14  1  0.49456822  0.68353949  0.13858508  1
  Hf  Hf15  1  0.90281436  0.90059163  0.61253308  1
  Hf  Hf16  1  0.81339802  0.40242344  0.50921041  1
  Hf  Hf17  1  0.61103465  0.79290855  0.01722131  1
  Hf  Hf18  1  0.00381503  0.40779003  0.74263906  1
  Hf  Hf19  1  0.79455466  0.60408468  0.26291619  1
  Hf  Hf20  1  0.08930909  0.68844874  0.86506609  1
  Hf  Hf21  1  0.30733953  0.50753558  0.12165006  1
  Hf  Hf22  1  0.40003120  0.40224895  0.74846532  1
  Hf  Hf23  1  0.89581216  0.89471997  0.87544463  1
  Hf  Hf24  1  0.21144456  0.18551360  0.25046635  1
  Hf  Hf25  1  0.09979152  0.29646270  0.62872245  1
  Hf  Hf26  1  0.60054306  0.19961869  0.25104182  1
  Hf  Hf27  1  0.59641345  0.40295517  0.49871885  1
  Hf  Hf28  1  0.01683270  0.00474526  0.49328272  1
  Hf  Hf29  1  0.00636699  -0.01363408  -0.00682048  1
  Hf  Hf30  1  0.80098154  0.78393588  0.48326167  1
  Hf  Hf31  1  0.58408654  0.58405555  0.00289967  1
  Hf  Hf32  1  0.18888519  0.80343185  0.00312748  1
  Hf  Hf33  1  0.09880405  0.30394859  0.37704119  1
  Hf  Hf34  1  0.51029167  0.30312727  0.12381495  1
  Hf  Hf35  1  0.20123273  0.82452358  0.24551876  1
  Hf  Hf36  1  0.82146384  0.79557939  0.01279897  1
  Hf  Hf37  1  0.09033575  0.50512811  0.37533265  1
  Hf  Hf38  1  -0.01624399  0.61166120  0.00164435  1
  Hf  Hf39  1  0.67938842  0.69956063  0.61285910  1
  Zr  Zr40  1  0.19405426  0.39270856  0.23196826  1
  Zr  Zr41  1  -0.00494915  -0.00016653  0.75715011  1
  Zr  Zr42  1  0.49281889  0.89800694  0.36387850  1
  Zr  Zr43  1  0.61096808  0.79387956  0.24885564  1
  Zr  Zr44  1  -0.01041634  0.40603834  0.23314388  1
  Zr  Zr45  1  0.69715257  0.09019587  0.37274078  1
  Zr  Zr46  1  0.40411018  0.20150363  0.49604295  1
  Zr  Zr47  1  0.31556449  0.30875340  0.87956189  1
  Zr  Zr48  1  0.20668600  0.19952789  0.76647713  1
  Zr  Zr49  1  0.59317853  0.18247016  0.75470921  1
  Zr  Zr50  1  0.89946895  0.32371966  0.88875134  1
  Zr  Zr51  1  0.68732858  0.49670728  0.13071685  1
  Zr  Zr52  1  0.00314290  0.20309551  0.77734962  1
  Zr  Zr53  1  0.79909912  0.80300809  0.74274383  1
  Zr  Zr54  1  0.29585661  0.69268947  0.86583759  1
  Zr  Zr55  1  0.50126904  0.52722880  0.62195161  1
  Zr  Zr56  1  0.10810299  0.09795874  0.11820645  1
  Zr  Zr57  1  0.40206934  0.80634045  0.00742150  1
  Zr  Zr58  1  0.69942131  0.49264093  0.88033658  1
  Zr  Zr59  1  0.00163326  0.19617693  0.24887543  1
  Zr  Zr60  1  0.29726440  0.50609306  0.37105491  1
  Zr  Zr61  1  0.60793934  0.40608557  0.74809126  1
  Zr  Zr62  1  0.37375563  -0.00054783  0.25349013  1
  Zr  Zr63  1  0.69393157  0.09401755  0.61054731  1
  Zr  Zr64  1  0.50559078  0.69925147  0.87709160  1
  Zr  Zr65  1  0.18747819  0.61218037  0.24832787  1
  Zr  Zr66  1  0.91534838  0.89731054  0.37956561  1
  Zr  Zr67  1  0.50905158  0.91652447  0.87288536  1
  Zr  Zr68  1  0.08016256  0.71632011  0.12396678  1
  Zr  Zr69  1  0.10182568  0.09671621  0.63123240  1
  Zr  Zr70  1  0.21186182  0.00819388  -0.01783622  1
  Zr  Zr71  1  0.89395806  0.11621110  0.62954090  1
  Zr  Zr72  1  0.18795857  0.60780666  0.50686641  1
  Zr  Zr73  1  0.47808156  0.10315827  0.13556367  1
  Zr  Zr74  1  0.31161065  0.89093281  0.86094797  1
  Zr  Zr75  1  0.30121170  0.30123097  0.37810331  1
  Zr  Zr76  1  0.01564369  0.21185950  -0.00859485  1
  Zr  Zr77  1  0.70191263  0.49608441  0.37635553  1
  Zr  Zr78  1  0.31281288  0.68150679  0.62177591  1
  Zr  Zr79  1  0.19280016  0.39251599  0.00592189  1
  Ta  Ta80  1  0.00140227  0.40333747  0.51633931  1
  Ta  Ta81  1  0.78548660  0.21199514  0.00218448  1
  Ta  Ta82  1  0.21124810  -0.00236201  0.74106086  1
  Ta  Ta83  1  0.92307960  0.89468049  0.13491501  1
  Ta  Ta84  1  0.88660483  0.09686959  0.89906621  1
  Ta  Ta85  1  0.69619526  0.90111788  0.60525011  1
  Ta  Ta86  1  0.09042608  0.50672756  0.11620115  1
  Ta  Ta87  1  0.70159416  0.88967090  0.88943488  1
  Ta  Ta88  1  0.39697883  0.41354302  0.50246189  1
  Ta  Ta89  1  0.41530606  0.00465585  0.73552747  1
  Ta  Ta90  1  0.41750103  0.40736079  0.00282882  1
  Ta  Ta91  1  0.60994121  -0.00256978  0.23540024  1
  Ta  Ta92  1  0.29747047  0.29901877  0.62328462  1
  Ta  Ta93  1  0.40795800  0.19014701  -0.00863177  1
  Ta  Ta94  1  0.60896925  0.79952761  0.75029546  1
  Ta  Ta95  1  0.50263328  0.30336536  0.37205898  1
  Ta  Ta96  1  0.30206512  0.70703494  0.12789137  1
  Ta  Ta97  1  0.70863706  0.69237856  0.13216406  1
  Ta  Ta98  1  0.39771813  0.79869227  0.50865627  1
  Ta  Ta99  1  0.80274469  0.20078543  0.48698081  1
  Ta  Ta100  1  0.19645632  0.39924186  0.50829070  1
  Ta  Ta101  1  0.31013656  0.28207907  0.11681750  1
  Ta  Ta102  1  0.60308464  0.39664597  0.25590108  1
  Ta  Ta103  1  0.90423399  0.51308065  0.87606891  1
  Ta  Ta104  1  0.19360526  0.19190107  0.50297270  1
  Ta  Ta105  1  0.40973177  -0.00956414  0.50577097  1
  Ta  Ta106  1  0.89512865  0.30890002  0.37050738  1
  Ta  Ta107  1  0.58970971  0.61435156  0.47604883  1
  Ta  Ta108  1  0.49102634  0.50103436  0.36215992  1
  Ta  Ta109  1  0.30930254  0.10296887  0.62382795  1
  Ta  Ta110  1  0.89404755  0.08871563  0.10885836  1
  Ta  Ta111  1  0.50694374  0.09160375  0.61547043  1
  Ta  Ta112  1  -0.01228323  0.59791969  0.73661377  1
  Ta  Ta113  1  0.80901816  0.41063490  0.01571925  1
  Ta  Ta114  1  0.01640109  -0.00134926  0.25847747  1
  Ta  Ta115  1  0.41768789  0.79910892  0.73209785  1
  Ta  Ta116  1  0.81395280  0.79755230  0.25688628  1
  Ta  Ta117  1  0.88444501  0.69091503  0.62021796  1
  Ta  Ta118  1  0.80593961  0.00292216  0.48853123  1
  Ta  Ta119  1  0.70371860  0.29917049  0.37570930  1
  Ti  Ti120  1  0.00813859  0.79847519  0.26538868  1
  Ti  Ti121  1  0.20725784  0.19834130  -0.01742104  1
  Ti  Ti122  1  0.49257893  0.49549098  0.87432843  1
  Ti  Ti123  1  0.90645590  0.29666075  0.11341563  1
  Ti  Ti124  1  0.40431508  0.19859100  0.75104318  1
  Ti  Ti125  1  0.39717184  0.38556421  0.24719804  1
  Ti  Ti126  1  0.89080648  0.52173251  0.12603526  1
  Ti  Ti127  1  0.48551613  0.89175440  0.14203784  1
  Ti  Ti128  1  0.81447100  -0.00064029  0.25265782  1
  Ti  Ti129  1  -0.00247770  0.79236908  0.73224983  1
  Ti  Ti130  1  0.70067916  0.89990219  0.37187762  1
  Ti  Ti131  1  0.72401449  0.90614484  0.12921270  1
  Ti  Ti132  1  0.51812072  0.29291656  0.88110344  1
  Ti  Ti133  1  0.78632451  0.60727293  -0.00493384  1
  Ti  Ti134  1  0.49678453  0.09736659  0.36859439  1
  Ti  Ti135  1  0.89857306  0.49791579  0.37529620  1
  Ti  Ti136  1  0.51581835  0.89792592  0.62018133  1
  Ti  Ti137  1  0.89098575  0.70221693  0.86716872  1
  Ti  Ti138  1  0.12989613  0.90030988  0.38732598  1
  Ti  Ti139  1  0.59078177  0.80629816  0.48378212  1
  Ti  Ti140  1  0.80955139  0.40624256  0.73982310  1
  Ti  Ti141  1  0.21310625  -0.02308277  0.52526318  1
  Ti  Ti142  1  0.32013276  0.09026632  0.86681229  1
  Ti  Ti143  1  0.70040154  0.10666563  0.11706890  1
  Ti  Ti144  1  0.30055195  0.50673004  0.88342373  1
  Ti  Ti145  1  0.09557525  0.49321409  0.88406035  1
  Ti  Ti146  1  0.29621167  0.49107470  0.62398554  1
  Ti  Ti147  1  0.20013416  0.40243793  0.75470421  1
  Ti  Ti148  1  0.29065967  0.91993045  0.11912527  1
  Ti  Ti149  1  0.49341689  0.49821280  0.14699735  1
  Ti  Ti150  1  0.70397956  0.51162638  0.61444996  1
  Ti  Ti151  1  0.18645285  0.58586547  0.74007248  1
  Ti  Ti152  1  0.40752614  0.60021685  0.75339328  1
  Ti  Ti153  1  0.79824367  0.39175925  0.23708030  1
  Ti  Ti154  1  0.60030255  0.19413942  0.48825633  1
  Ti  Ti155  1  0.61819676  0.37692204  -0.00069169  1
  Ti  Ti156  1  0.48444904  0.69603275  0.35649409  1
  Ti  Ti157  1  0.19991482  0.60362284  0.00242387  1
  Ti  Ti158  1  -0.01118823  0.61244583  0.25614238  1
  Ti  Ti159  1  0.02216093  0.79192544  0.50661981  1
  Mo  Mo160  1  0.09995127  0.89750482  0.62918537  1
  Mo  Mo161  1  0.89850382  0.29657381  0.62915504  1
  Mo  Mo162  1  0.19756992  0.80458549  0.51989221  1
  Mo  Mo163  1  0.69257312  0.70763376  0.37441965  1
  Mo  Mo164  1  0.19030250  0.00299563  0.25318179  1
  Mo  Mo165  1  0.08862012  0.71269535  0.37802779  1
  Mo  Mo166  1  0.59712785  -0.00570872  0.49004464  1
  Mo  Mo167  1  0.39071970  0.79731332  0.24028997  1
  Mo  Mo168  1  0.79056018  0.59683710  0.49320004  1
  Mo  Mo169  1  0.10473855  0.09670820  0.87016862  1
  Mo  Mo170  1  0.90159734  0.10106249  0.37062461  1
  Mo  Mo171  1  0.31670970  0.90282303  0.63201117  1
  Mo  Mo172  1  0.60258750  -0.01715919  0.74634631  1
  Mo  Mo173  1  0.90812370  0.69272812  0.37588225  1
  Mo  Mo174  1  0.38928847  0.59974804  0.25214505  1
  Mo  Mo175  1  0.09829882  0.90842822  0.12554853  1
  Mo  Mo176  1  0.59584847  0.20253536  0.00519730  1
  Mo  Mo177  1  0.39933824  0.20690592  0.25987157  1
  Mo  Mo178  1  0.70076979  0.70768727  0.88301159  1
  Mo  Mo179  1  0.39150394  0.59237640  -0.00112450  1
  Mo  Mo180  1  0.10445479  0.30164076  0.12392710  1
  Mo  Mo181  1  0.10108784  0.09511844  0.38138050  1
  Mo  Mo182  1  0.10655679  0.31540319  0.87403645  1
  Mo  Mo183  1  0.59383343  0.59594807  0.26402005  1
  Mo  Mo184  1  0.30267938  0.89586391  0.38879590  1
  Mo  Mo185  1  0.00300110  0.79742136  -0.00851747  1
  Mo  Mo186  1  0.89326047  0.70455799  0.13711156  1
  Mo  Mo187  1  0.39816462  0.00018253  0.00367596  1
  Mo  Mo188  1  0.70362345  0.30068491  0.87884146  1
  Mo  Mo189  1  0.79673964  -0.00348491  0.01024095  1
  Mo  Mo190  1  -0.00394922  0.41486835  0.01517119  1
  Mo  Mo191  1  0.70965316  0.29735274  0.12894458  1
  Mo  Mo192  1  0.08697778  0.69514661  0.63239143  1
  Mo  Mo193  1  0.49225360  0.10178396  0.87668915  1
  Mo  Mo194  1  0.89097360  0.50032661  0.63035656  1
  Mo  Mo195  1  0.50527445  0.71092950  0.61614325  1
  Mo  Mo196  1  0.10540819  0.49832829  0.62793235  1
  Mo  Mo197  1  0.29959884  0.10651737  0.11472901  1
  Mo  Mo198  1  0.40626925  0.60156911  0.48826827  1
  Mo  Mo199  1  0.58921159  0.61175808  0.75492247  1
