# generated using pymatgen
data_HfZrTaTiMo
_symmetry_space_group_name_H-M   'P 1'
_cell_length_a   15.20384227
_cell_length_b   15.22312982
_cell_length_c   16.83116496
_cell_angle_alpha   89.93396197
_cell_angle_beta   89.99919496
_cell_angle_gamma   89.95740155
_symmetry_Int_Tables_number   1
_chemical_formula_structural   HfZrTaTiMo
_chemical_formula_sum   'Hf40 Zr40 Ta40 Ti40 Mo40'
_cell_volume   3895.57055362
_cell_formula_units_Z   40
loop_
 _symmetry_equiv_pos_site_id
 _symmetry_equiv_pos_as_xyz
  1  'x, y, z'
loop_
 _atom_site_type_symbol
 _atom_site_label
 _atom_site_symmetry_multiplicity
 _atom_site_fract_x
 _atom_site_fract_y
 _atom_site_fract_z
 _atom_site_occupancy
  Hf  Hf0  1  -0.00152187  0.60594554  0.24716593  1
  Hf  Hf1  1  0.50535217  0.69488397  0.87615995  1
  Hf  Hf2  1  0.81005789  0.80513136  0.25807428  1
  Hf  Hf3  1  0.10334539  0.69340549  0.86237724  1
  Hf  Hf4  1  0.11049239  0.89373140  0.86236215  1
  Hf  Hf5  1  0.10406147  0.70122340  0.39000990  1
  Hf  Hf6  1  0.21505029  0.20873365  0.50128345  1
  Hf  Hf7  1  0.58919537  0.19640707  0.73378352  1
  Hf  Hf8  1  0.59170846  0.40712600  0.75931341  1
  Hf  Hf9  1  0.79870474  0.40620582  0.74221045  1
  Hf  Hf10  1  0.49855051  0.88840346  0.87574585  1
  Hf  Hf11  1  0.11843096  0.10797973  0.87881374  1
  Hf  Hf12  1  0.40732891  0.20392685  0.24999784  1
  Hf  Hf13  1  0.00137947  -0.00899588  0.26127159  1
  Hf  Hf14  1  0.69759434  0.70081858  0.87563470  1
  Hf  Hf15  1  0.90057167  0.48302469  0.12771183  1
  Hf  Hf16  1  0.69777900  0.89688222  0.87018404  1
  Hf  Hf17  1  0.08450962  0.49760579  0.87497344  1
  Hf  Hf18  1  0.09706580  0.49924307  0.38046288  1
  Hf  Hf19  1  0.10962780  0.68447600  0.61520320  1
  Hf  Hf20  1  0.18984187  0.41051528  0.75095424  1
  Hf  Hf21  1  0.09137846  0.09613253  0.38856254  1
  Hf  Hf22  1  0.49539671  0.47945401  0.61712759  1
  Hf  Hf23  1  0.90921756  0.08716689  0.61418684  1
  Hf  Hf24  1  0.30082911  0.10283749  0.37619182  1
  Hf  Hf25  1  0.50552135  0.89417634  0.13090495  1
  Hf  Hf26  1  0.79121467  0.60040012  0.00879194  1
  Hf  Hf27  1  0.60190181  0.00241419  0.26422587  1
  Hf  Hf28  1  0.20338561  0.60618627  0.24605007  1
  Hf  Hf29  1  0.68616295  0.32035288  0.61306368  1
  Hf  Hf30  1  0.01309835  -0.00573699  -0.00764292  1
  Hf  Hf31  1  0.32374515  0.29980453  0.62185292  1
  Hf  Hf32  1  0.79077627  0.19943725  0.50678821  1
  Hf  Hf33  1  0.10069775  0.89001771  0.39170708  1
  Hf  Hf34  1  0.61743219  0.58330975  0.50753129  1
  Hf  Hf35  1  0.39400024  0.60163969  0.74246127  1
  Hf  Hf36  1  0.39241806  0.38846094  0.47656246  1
  Hf  Hf37  1  0.28622615  0.50068059  0.61905785  1
  Hf  Hf38  1  0.70922226  0.11041132  0.13786869  1
  Hf  Hf39  1  0.40049726  0.40469970  -0.00022633  1
  Zr  Zr40  1  0.68827228  0.47693259  0.12667832  1
  Zr  Zr41  1  0.17523720  0.39821630  0.00969517  1
  Zr  Zr42  1  0.71101256  0.09717798  0.86160480  1
  Zr  Zr43  1  0.19329123  0.20160858  0.25486147  1
  Zr  Zr44  1  0.60746097  -0.00045614  0.00721000  1
  Zr  Zr45  1  0.20095589  -0.00032312  0.51488505  1
  Zr  Zr46  1  0.19669421  0.20143836  0.73329447  1
  Zr  Zr47  1  0.28999500  0.52302252  0.88396159  1
  Zr  Zr48  1  0.11985217  0.09300449  0.11897240  1
  Zr  Zr49  1  0.69236429  0.12091140  0.37625099  1
  Zr  Zr50  1  0.19977544  0.62378749  0.02439481  1
  Zr  Zr51  1  0.20937683  0.79414299  0.72737030  1
  Zr  Zr52  1  0.39568999  0.39914769  0.76989623  1
  Zr  Zr53  1  0.00178439  0.58860071  0.01188344  1
  Zr  Zr54  1  0.80254087  0.60150380  0.73416165  1
  Zr  Zr55  1  0.30540019  0.49624546  0.13218949  1
  Zr  Zr56  1  0.38240372  -0.00039793  -0.00822331  1
  Zr  Zr57  1  0.27800114  0.28857043  0.89102855  1
  Zr  Zr58  1  0.29692305  0.92193407  0.13716539  1
  Zr  Zr59  1  0.40982312  0.80155922  0.73150711  1
  Zr  Zr60  1  0.10160701  0.31171486  0.60686840  1
  Zr  Zr61  1  0.69983477  0.29532738  0.87024486  1
  Zr  Zr62  1  0.79664561  0.60103671  0.23795010  1
  Zr  Zr63  1  0.30061069  0.72496447  0.87680972  1
  Zr  Zr64  1  0.70733246  0.68491124  0.37951594  1
  Zr  Zr65  1  0.80798629  0.00434940  -0.00616928  1
  Zr  Zr66  1  -0.01114814  0.20013029  0.26263190  1
  Zr  Zr67  1  0.59023405  0.59644691  0.24015588  1
  Zr  Zr68  1  0.07837831  0.90550178  0.62404216  1
  Zr  Zr69  1  0.90690727  0.10491812  0.12864555  1
  Zr  Zr70  1  0.51238436  0.10160651  0.88331462  1
  Zr  Zr71  1  0.80806238  0.20168506  0.73204278  1
  Zr  Zr72  1  0.87978559  0.50522360  0.38246042  1
  Zr  Zr73  1  0.90291123  0.69446529  0.87575423  1
  Zr  Zr74  1  0.50008489  0.10111157  0.12765781  1
  Zr  Zr75  1  0.21137286  0.00544830  0.73517349  1
  Zr  Zr76  1  0.30643716  0.69896918  0.38124317  1
  Zr  Zr77  1  0.69160226  0.07153536  0.62290518  1
  Zr  Zr78  1  0.39263037  0.19280499  0.76376637  1
  Zr  Zr79  1  0.90485638  0.90079095  0.12412149  1
  Ta  Ta80  1  0.39703215  0.79433504  0.01566295  1
  Ta  Ta81  1  0.47825879  0.09534899  0.61923052  1
  Ta  Ta82  1  0.59215044  -0.00194539  0.48390786  1
  Ta  Ta83  1  0.00716939  0.21003495  0.00003821  1
  Ta  Ta84  1  0.60161255  0.79852318  0.25686243  1
  Ta  Ta85  1  0.20153711  0.39661438  0.26123684  1
  Ta  Ta86  1  0.40400207  -0.00549087  0.26951440  1
  Ta  Ta87  1  0.90205609  0.70575485  0.11921556  1
  Ta  Ta88  1  0.59879704  0.40389709  -0.00637203  1
  Ta  Ta89  1  0.70508171  0.89477663  0.38416870  1
  Ta  Ta90  1  0.19814500  0.82386984  0.01478968  1
  Ta  Ta91  1  0.51141666  0.49617832  0.37326816  1
  Ta  Ta92  1  0.70739819  0.90244134  0.13554131  1
  Ta  Ta93  1  0.57820707  0.20202959  0.50834961  1
  Ta  Ta94  1  0.29539610  0.29306150  0.12548574  1
  Ta  Ta95  1  0.61066998  0.80078516  0.73127387  1
  Ta  Ta96  1  0.90156882  0.31519039  0.60284613  1
  Ta  Ta97  1  0.79753394  0.39286947  -0.00487753  1
  Ta  Ta98  1  0.39763661  0.20062585  0.01006312  1
  Ta  Ta99  1  0.19542328  0.80250502  0.24181741  1
  Ta  Ta100  1  0.40817199  0.00095430  0.48367445  1
  Ta  Ta101  1  0.41013273  0.80540145  0.50033837  1
  Ta  Ta102  1  0.51265965  0.31388756  0.12893241  1
  Ta  Ta103  1  0.81151851  0.20609724  -0.00267639  1
  Ta  Ta104  1  0.00212275  0.20350237  0.73746004  1
  Ta  Ta105  1  0.69534675  0.50725172  0.87905090  1
  Ta  Ta106  1  0.87254745  0.89544139  0.60934619  1
  Ta  Ta107  1  0.29927901  0.89131339  0.37885816  1
  Ta  Ta108  1  0.80133269  0.80291618  0.74340549  1
  Ta  Ta109  1  0.89172303  0.30282160  0.39564889  1
  Ta  Ta110  1  -0.00629994  0.39243275  0.26473572  1
  Ta  Ta111  1  0.80865136  0.00633881  0.27319292  1
  Ta  Ta112  1  0.60052337  0.79966567  0.49914075  1
  Ta  Ta113  1  -0.01106897  0.39837935  0.74101663  1
  Ta  Ta114  1  -0.01012510  0.79527449  0.50926395  1
  Ta  Ta115  1  0.00964380  0.79478878  0.00188357  1
  Ta  Ta116  1  0.40470199  -0.00150768  0.75565416  1
  Ta  Ta117  1  0.40272116  0.79392688  0.24990359  1
  Ta  Ta118  1  0.90428370  0.89632510  0.86922421  1
  Ta  Ta119  1  0.89287741  0.49100276  0.87762427  1
  Ti  Ti120  1  0.61282772  0.21218413  0.00987004  1
  Ti  Ti121  1  0.71592845  0.71211372  0.61145460  1
  Ti  Ti122  1  0.60148639  0.79374792  0.00941892  1
  Ti  Ti123  1  0.80222550  0.80579961  0.00125625  1
  Ti  Ti124  1  0.08967892  0.49297097  0.60502555  1
  Ti  Ti125  1  0.60241446  0.60221645  0.73492556  1
  Ti  Ti126  1  0.89113430  0.29716192  0.12827885  1
  Ti  Ti127  1  0.30808924  0.69726823  0.60211448  1
  Ti  Ti128  1  0.59055840  0.59959681  0.01608916  1
  Ti  Ti129  1  0.50637006  0.69673558  0.61367583  1
  Ti  Ti130  1  0.79771227  0.21045014  0.26394717  1
  Ti  Ti131  1  0.08467320  0.30092426  0.87269988  1
  Ti  Ti132  1  0.90532999  0.70816218  0.38297537  1
  Ti  Ti133  1  0.90347932  0.29963537  0.87132288  1
  Ti  Ti134  1  0.00071215  0.19594956  0.50257112  1
  Ti  Ti135  1  0.09508133  0.48964634  0.14021200  1
  Ti  Ti136  1  0.00207213  0.58783172  0.73477835  1
  Ti  Ti137  1  0.50144792  0.29730298  0.88806252  1
  Ti  Ti138  1  0.78894272  0.38983318  0.25663406  1
  Ti  Ti139  1  0.40536051  0.40405354  0.25716545  1
  Ti  Ti140  1  0.19887076  -0.00348497  0.26125194  1
  Ti  Ti141  1  0.31934523  0.90550319  0.61216604  1
  Ti  Ti142  1  0.00654124  0.79795796  0.25003292  1
  Ti  Ti143  1  0.80229271  -0.01116856  0.74694694  1
  Ti  Ti144  1  0.40390140  0.60232136  0.24458547  1
  Ti  Ti145  1  0.08684447  0.30169738  0.13129740  1
  Ti  Ti146  1  0.21408285  0.58581596  0.48724819  1
  Ti  Ti147  1  0.40656895  0.60917015  0.01925762  1
  Ti  Ti148  1  0.09948667  0.30332125  0.38838654  1
  Ti  Ti149  1  0.50935009  0.29012398  0.36828964  1
  Ti  Ti150  1  0.91188134  0.10705560  0.86848239  1
  Ti  Ti151  1  -0.01443432  0.59672106  0.50650019  1
  Ti  Ti152  1  -0.01297403  0.79400954  0.73716164  1
  Ti  Ti153  1  0.50481467  0.69958998  0.37960457  1
  Ti  Ti154  1  0.51417836  0.90901710  0.62130348  1
  Ti  Ti155  1  -0.00277766  0.00499422  0.75210286  1
  Ti  Ti156  1  0.50115606  0.51041346  0.88183676  1
  Ti  Ti157  1  0.69744999  0.71352564  0.12531042  1
  Ti  Ti158  1  0.69376103  0.32286405  0.39083167  1
  Ti  Ti159  1  0.40955170  0.59342266  0.49129958  1
  Mo  Mo160  1  0.20211644  0.40592984  0.48251345  1
  Mo  Mo161  1  -0.01129123  -0.00195036  0.49448440  1
  Mo  Mo162  1  0.19603789  0.59549711  0.74272025  1
  Mo  Mo163  1  0.50212473  0.70231100  0.12707398  1
  Mo  Mo164  1  0.69339138  0.50844027  0.63189989  1
  Mo  Mo165  1  0.50057802  0.88736736  0.37106065  1
  Mo  Mo166  1  -0.00475248  0.39937987  0.48517869  1
  Mo  Mo167  1  0.58950202  0.39590575  0.49177064  1
  Mo  Mo168  1  0.49592913  0.29418655  0.62404943  1
  Mo  Mo169  1  0.59009575  -0.01359226  0.74461255  1
  Mo  Mo170  1  0.78728015  0.42059824  0.50713033  1
  Mo  Mo171  1  0.20223053  0.00068511  -0.00548085  1
  Mo  Mo172  1  0.30885499  0.50190210  0.35968486  1
  Mo  Mo173  1  0.80778891  0.60639543  0.51613572  1
  Mo  Mo174  1  0.49476133  0.49499363  0.12501130  1
  Mo  Mo175  1  0.20858859  0.79602658  0.51266309  1
  Mo  Mo176  1  0.89506950  0.10310599  0.38910821  1
  Mo  Mo177  1  0.59657623  0.38897837  0.25784998  1
  Mo  Mo178  1  0.69619664  0.49408208  0.37007766  1
  Mo  Mo179  1  0.90269023  0.49826805  0.61417473  1
  Mo  Mo180  1  0.50028236  0.10120015  0.37309891  1
  Mo  Mo181  1  0.79660495  -0.00261504  0.48114615  1
  Mo  Mo182  1  0.30743983  0.10718562  0.13575504  1
  Mo  Mo183  1  0.30012690  0.30436169  0.36305208  1
  Mo  Mo184  1  0.90167815  0.89884966  0.38773035  1
  Mo  Mo185  1  0.80007378  0.79311110  0.49109162  1
  Mo  Mo186  1  0.70943902  0.29635021  0.12367509  1
  Mo  Mo187  1  -0.01798377  0.38314405  0.00059757  1
  Mo  Mo188  1  0.20502504  0.19794273  0.01108355  1
  Mo  Mo189  1  0.29968255  0.90032682  0.87376196  1
  Mo  Mo190  1  0.30241144  0.09618697  0.87622331  1
  Mo  Mo191  1  0.30648016  0.71247892  0.13322982  1
  Mo  Mo192  1  0.90876984  0.70510262  0.62594778  1
  Mo  Mo193  1  0.60888617  0.21769948  0.24877869  1
  Mo  Mo194  1  0.69512892  0.89549533  0.60913822  1
  Mo  Mo195  1  0.09474099  0.70933753  0.12946516  1
  Mo  Mo196  1  0.09274076  0.10614096  0.62058860  1
  Mo  Mo197  1  0.30740046  0.09444775  0.61472868  1
  Mo  Mo198  1  0.09680164  0.89910535  0.13149316  1
  Mo  Mo199  1  0.40563064  0.19347483  0.48693766  1
