# generated using pymatgen
data_HfZrTaTiMo
_symmetry_space_group_name_H-M   'P 1'
_cell_length_a   15.16431439
_cell_length_b   15.17837058
_cell_length_c   16.81244850
_cell_angle_alpha   89.99084686
_cell_angle_beta   89.96249691
_cell_angle_gamma   90.30027137
_symmetry_Int_Tables_number   1
_chemical_formula_structural   HfZrTaTiMo
_chemical_formula_sum   'Hf40 Zr40 Ta40 Ti40 Mo40'
_cell_volume   3869.66024820
_cell_formula_units_Z   40
loop_
 _symmetry_equiv_pos_site_id
 _symmetry_equiv_pos_as_xyz
  1  'x, y, z'
loop_
 _atom_site_type_symbol
 _atom_site_label
 _atom_site_symmetry_multiplicity
 _atom_site_fract_x
 _atom_site_fract_y
 _atom_site_fract_z
 _atom_site_occupancy
  Hf  Hf0  1  0.60146917  0.78678932  0.49236671  1
  Hf  Hf1  1  0.01787315  -0.00919869  0.75226903  1
  Hf  Hf2  1  0.11847495  0.90686069  0.38322720  1
  Hf  Hf3  1  0.50336024  0.27805994  0.63577228  1
  Hf  Hf4  1  -0.00284028  0.61048542  -0.01093308  1
  Hf  Hf5  1  0.09248948  0.30741594  0.12536439  1
  Hf  Hf6  1  0.69191579  0.70334945  0.11684135  1
  Hf  Hf7  1  0.38308017  0.79661241  0.76400103  1
  Hf  Hf8  1  0.78326170  0.19415655  0.23547321  1
  Hf  Hf9  1  0.89391414  0.09180026  0.86118364  1
  Hf  Hf10  1  0.00720049  0.00788191  0.51004812  1
  Hf  Hf11  1  0.50329599  0.89210087  0.13635715  1
  Hf  Hf12  1  0.90743797  0.88607475  0.63325295  1
  Hf  Hf13  1  -0.01210577  0.18351065  0.24105965  1
  Hf  Hf14  1  0.88756801  0.28613585  0.37363122  1
  Hf  Hf15  1  0.59956470  0.79811953  -0.01143977  1
  Hf  Hf16  1  0.39773718  0.80156357  -0.00742200  1
  Hf  Hf17  1  0.11651665  0.88864173  0.61998855  1
  Hf  Hf18  1  0.69785453  0.51906046  0.38724811  1
  Hf  Hf19  1  0.50375324  0.69051930  0.63013405  1
  Hf  Hf20  1  0.80546624  0.79451390  0.49886870  1
  Hf  Hf21  1  0.79358680  0.19696161  0.51422348  1
  Hf  Hf22  1  0.59263426  0.57801268  0.24032318  1
  Hf  Hf23  1  0.48827707  0.07911209  0.63843982  1
  Hf  Hf24  1  0.39605983  0.39296309  0.51653126  1
  Hf  Hf25  1  0.50012431  0.48102399  0.37819302  1
  Hf  Hf26  1  0.40053437  0.39600640  0.74870578  1
  Hf  Hf27  1  0.10146141  0.30722009  0.88143793  1
  Hf  Hf28  1  0.10647197  0.10112377  0.88860250  1
  Hf  Hf29  1  0.51371864  0.31611022  0.11249204  1
  Hf  Hf30  1  0.00217531  0.59401114  0.26251015  1
  Hf  Hf31  1  0.31713921  0.71770271  0.37090237  1
  Hf  Hf32  1  0.00675051  0.40444711  0.47848889  1
  Hf  Hf33  1  0.80812357  0.42034429  0.50262752  1
  Hf  Hf34  1  0.39813293  0.18035462  0.50136276  1
  Hf  Hf35  1  0.29287436  0.51022142  0.62780780  1
  Hf  Hf36  1  0.80081413  0.00260028  0.50436914  1
  Hf  Hf37  1  0.08680353  0.08485084  0.11186508  1
  Hf  Hf38  1  0.19505288  0.62650453  0.75807107  1
  Hf  Hf39  1  0.89997486  0.29676526  0.86459129  1
  Zr  Zr40  1  0.18025160  0.40491776  0.75104807  1
  Zr  Zr41  1  0.29135999  0.49857943  0.86988372  1
  Zr  Zr42  1  0.71142656  0.91096508  0.13913789  1
  Zr  Zr43  1  0.31427514  0.29882136  0.37399179  1
  Zr  Zr44  1  0.81477889  0.81132047  -0.00640620  1
  Zr  Zr45  1  0.10444150  0.70377529  0.37890171  1
  Zr  Zr46  1  0.59754675  0.00714481  0.49465203  1
  Zr  Zr47  1  0.79264108  0.60486579  0.24007097  1
  Zr  Zr48  1  0.39503323  0.20734726  0.23317331  1
  Zr  Zr49  1  0.30901913  0.51089264  0.12908652  1
  Zr  Zr50  1  0.29617196  0.50530072  0.37573016  1
  Zr  Zr51  1  0.50699177  0.09515462  0.12458448  1
  Zr  Zr52  1  0.60829216  0.59042024  0.74955851  1
  Zr  Zr53  1  0.77905392  0.40117058  0.24884562  1
  Zr  Zr54  1  0.69955365  0.29920605  0.86518282  1
  Zr  Zr55  1  0.67356834  0.29972049  0.38876003  1
  Zr  Zr56  1  0.79487914  0.59483468  0.00744721  1
  Zr  Zr57  1  0.28736247  0.28293945  0.63086449  1
  Zr  Zr58  1  0.90849534  0.71285542  0.13200641  1
  Zr  Zr59  1  0.60627246  0.00161350  -0.00814473  1
  Zr  Zr60  1  0.10893201  0.29051866  0.36405233  1
  Zr  Zr61  1  0.07846234  0.49786143  0.62087485  1
  Zr  Zr62  1  0.39944860  0.60300508  -0.00861450  1
  Zr  Zr63  1  0.91219237  0.91266209  0.37157693  1
  Zr  Zr64  1  0.20473383  0.39907674  0.24556943  1
  Zr  Zr65  1  0.49708050  0.88994190  0.36220927  1
  Zr  Zr66  1  0.21662979  0.00218567  0.75989414  1
  Zr  Zr67  1  0.90986880  0.10428542  0.64237868  1
  Zr  Zr68  1  0.69637459  0.90255691  0.63767223  1
  Zr  Zr69  1  0.40859121  0.60451272  0.50242043  1
  Zr  Zr70  1  0.19417770  -0.00199285  0.23597746  1
  Zr  Zr71  1  0.29104719  0.71677272  0.62026864  1
  Zr  Zr72  1  -0.01230490  0.19737308  0.00523869  1
  Zr  Zr73  1  0.09870164  0.50607365  0.12069594  1
  Zr  Zr74  1  0.59680224  0.80015879  0.76127255  1
  Zr  Zr75  1  0.11274655  0.70169207  0.12420083  1
  Zr  Zr76  1  -0.00363738  0.58940224  0.76558015  1
  Zr  Zr77  1  0.69843053  0.30525918  0.62925762  1
  Zr  Zr78  1  0.39978498  0.39849912  -0.00713000  1
  Zr  Zr79  1  0.91576255  0.31911139  0.63440368  1
  Ta  Ta80  1  -0.01160226  0.40168304  0.26036669  1
  Ta  Ta81  1  0.81074975  0.78907837  0.75663703  1
  Ta  Ta82  1  0.18531268  0.59880963  0.49559391  1
  Ta  Ta83  1  0.80142243  0.42217710  0.74417341  1
  Ta  Ta84  1  -0.02648475  0.59922463  0.48821026  1
  Ta  Ta85  1  0.69902954  0.10043110  0.85357874  1
  Ta  Ta86  1  0.91462543  0.91372544  0.13355148  1
  Ta  Ta87  1  0.70582858  0.10200416  0.37417151  1
  Ta  Ta88  1  0.50013375  0.29822010  0.87183800  1
  Ta  Ta89  1  0.50081045  0.11273032  0.36712564  1
  Ta  Ta90  1  0.39499127  -0.01383266  0.48665362  1
  Ta  Ta91  1  0.21141461  0.01816227  0.50445346  1
  Ta  Ta92  1  0.49128713  0.69179799  0.13219856  1
  Ta  Ta93  1  0.10077257  0.88868794  0.10844508  1
  Ta  Ta94  1  0.39326514  0.00084180  0.25287367  1
  Ta  Ta95  1  0.89918017  0.49304065  0.12319429  1
  Ta  Ta96  1  0.80151452  0.20509434  0.74110969  1
  Ta  Ta97  1  0.01293681  0.78451341  0.75688585  1
  Ta  Ta98  1  0.31234951  0.91609624  0.62755296  1
  Ta  Ta99  1  0.49331053  0.88810993  0.62343241  1
  Ta  Ta100  1  0.09057242  0.09901256  0.37141281  1
  Ta  Ta101  1  0.01126955  0.81115666  0.25332138  1
  Ta  Ta102  1  0.49981854  0.68795532  0.87035101  1
  Ta  Ta103  1  0.21122838  0.20471807  0.01639955  1
  Ta  Ta104  1  -0.00817253  0.40618279  -0.00315114  1
  Ta  Ta105  1  0.71166914  0.90940114  0.86123521  1
  Ta  Ta106  1  0.50181692  0.10325631  0.87060825  1
  Ta  Ta107  1  0.89017396  0.30423338  0.12407014  1
  Ta  Ta108  1  0.78827420  0.18996054  0.00568851  1
  Ta  Ta109  1  0.68640470  0.10181187  0.64849576  1
  Ta  Ta110  1  0.70961271  0.89720695  0.36187208  1
  Ta  Ta111  1  0.88457923  0.70520821  0.36424699  1
  Ta  Ta112  1  0.69540723  0.49673189  0.87976538  1
  Ta  Ta113  1  0.60989400  0.78640596  0.25459667  1
  Ta  Ta114  1  0.40092628  0.19394746  0.00023305  1
  Ta  Ta115  1  0.89017978  0.49497091  0.88042802  1
  Ta  Ta116  1  0.70873306  0.69617012  0.87893641  1
  Ta  Ta117  1  0.59102955  0.40422640  0.51681582  1
  Ta  Ta118  1  0.28889174  0.09891749  0.36784978  1
  Ta  Ta119  1  0.20350871  0.19152851  0.22527075  1
  Ti  Ti120  1  0.69899944  0.51461981  0.61607783  1
  Ti  Ti121  1  0.20606246  0.60528690  0.25776403  1
  Ti  Ti122  1  0.19974675  0.40447283  0.00267424  1
  Ti  Ti123  1  0.80499904  0.60599959  0.75342445  1
  Ti  Ti124  1  0.40274450  0.00009788  -0.01109954  1
  Ti  Ti125  1  0.11383815  0.10633901  0.63093048  1
  Ti  Ti126  1  0.29718996  0.28609287  0.87684523  1
  Ti  Ti127  1  0.10188866  0.89681688  0.89310609  1
  Ti  Ti128  1  0.19657807  0.39920500  0.50136343  1
  Ti  Ti129  1  0.30591475  0.70933034  0.13514420  1
  Ti  Ti130  1  0.21326057  -0.00060807  0.00497675  1
  Ti  Ti131  1  0.68188783  0.47583779  0.11146641  1
  Ti  Ti132  1  0.40279295  0.59363200  0.75436359  1
  Ti  Ti133  1  0.60904290  0.01270238  0.25660229  1
  Ti  Ti134  1  0.20586819  0.60919906  -0.00879231  1
  Ti  Ti135  1  0.59659980  0.21336404  0.24437469  1
  Ti  Ti136  1  0.00032761  0.19951406  0.49829962  1
  Ti  Ti137  1  0.22519492  0.81432490  0.49364220  1
  Ti  Ti138  1  0.81671552  0.01140553  0.25389634  1
  Ti  Ti139  1  0.90721534  0.89174307  0.86416413  1
  Ti  Ti140  1  0.60405670  0.20186284  -0.00425844  1
  Ti  Ti141  1  0.40569865  -0.01033393  0.77257017  1
  Ti  Ti142  1  0.59744596  0.40369400  0.74430573  1
  Ti  Ti143  1  0.30502459  0.90012733  0.12070681  1
  Ti  Ti144  1  0.09511922  0.29307240  0.62911467  1
  Ti  Ti145  1  0.19603355  0.19461227  0.75772262  1
  Ti  Ti146  1  0.21147595  0.80798290  0.24952669  1
  Ti  Ti147  1  0.79856778  0.00700263  0.00109860  1
  Ti  Ti148  1  0.79345006  0.38866661  0.00253535  1
  Ti  Ti149  1  0.10891052  0.71677307  0.88812951  1
  Ti  Ti150  1  0.41709639  0.40879117  0.24005743  1
  Ti  Ti151  1  0.58970403  0.58725569  -0.00370770  1
  Ti  Ti152  1  -0.01543668  -0.01112620  -0.00725584  1
  Ti  Ti153  1  0.19219137  0.20068251  0.49946638  1
  Ti  Ti154  1  0.50852047  0.68411267  0.36637342  1
  Ti  Ti155  1  0.28777159  0.89414472  0.88450192  1
  Ti  Ti156  1  0.00135022  0.79262327  0.49730892  1
  Ti  Ti157  1  0.08799417  0.69655027  0.61627772  1
  Ti  Ti158  1  0.71472781  0.69974556  0.62643874  1
  Ti  Ti159  1  0.38675209  0.18307490  0.76222857  1
  Mo  Mo160  1  0.29598348  0.70352987  0.87292456  1
  Mo  Mo161  1  0.89840683  0.70308040  0.87446155  1
  Mo  Mo162  1  0.39858973  0.60260511  0.25215910  1
  Mo  Mo163  1  0.20895766  0.80063401  0.00496598  1
  Mo  Mo164  1  0.09645357  0.50241509  0.89251667  1
  Mo  Mo165  1  0.69427132  0.70724954  0.36968848  1
  Mo  Mo166  1  0.89606424  0.50274176  0.36790483  1
  Mo  Mo167  1  0.59480938  0.18966582  0.50152984  1
  Mo  Mo168  1  0.18662357  0.81466441  0.75508219  1
  Mo  Mo169  1  0.80515649  0.80879882  0.25106889  1
  Mo  Mo170  1  0.60499513  0.59708524  0.50775887  1
  Mo  Mo171  1  0.88992869  0.51799747  0.62641633  1
  Mo  Mo172  1  0.60275289  0.40078252  -0.01505921  1
  Mo  Mo173  1  0.69386261  0.10033299  0.12453891  1
  Mo  Mo174  1  0.58869100  0.20174523  0.75705665  1
  Mo  Mo175  1  0.40774520  0.80543445  0.50186678  1
  Mo  Mo176  1  0.49648173  0.29365945  0.37893778  1
  Mo  Mo177  1  0.59095267  -0.00413992  0.75925772  1
  Mo  Mo178  1  0.30483618  0.09019460  0.11079344  1
  Mo  Mo179  1  0.40195929  0.80124637  0.24015909  1
  Mo  Mo180  1  0.69860547  0.29593782  0.11259598  1
  Mo  Mo181  1  0.90678092  0.69392485  0.62666007  1
  Mo  Mo182  1  0.30093049  0.09620886  0.62903634  1
  Mo  Mo183  1  0.01628210  0.20162612  0.75199543  1
  Mo  Mo184  1  0.80197173  -0.00569480  0.74631255  1
  Mo  Mo185  1  0.50308601  0.50590217  0.12009035  1
  Mo  Mo186  1  -0.00861947  0.40091981  0.76068892  1
  Mo  Mo187  1  0.89763546  0.10642009  0.38131777  1
  Mo  Mo188  1  0.50546718  0.49360457  0.86708576  1
  Mo  Mo189  1  0.00235229  0.80744443  -0.00634679  1
  Mo  Mo190  1  0.30179887  0.90909413  0.36878397  1
  Mo  Mo191  1  0.00483813  -0.00174276  0.24928972  1
  Mo  Mo192  1  0.79452613  0.61622765  0.49984554  1
  Mo  Mo193  1  0.50046002  0.90055124  0.87650591  1
  Mo  Mo194  1  0.30343974  0.10122878  0.89221814  1
  Mo  Mo195  1  0.59770836  0.39010790  0.25005528  1
  Mo  Mo196  1  0.30147254  0.30161071  0.11801058  1
  Mo  Mo197  1  0.10139515  0.50097883  0.37792221  1
  Mo  Mo198  1  0.88651756  0.08988111  0.11767619  1
  Mo  Mo199  1  0.50260439  0.49216474  0.62835771  1
