# generated using pymatgen
data_HfZrTaTiMo
_symmetry_space_group_name_H-M   'P 1'
_cell_length_a   15.21501531
_cell_length_b   15.21077848
_cell_length_c   16.82733111
_cell_angle_alpha   90.00157533
_cell_angle_beta   90.04234294
_cell_angle_gamma   89.95298353
_symmetry_Int_Tables_number   1
_chemical_formula_structural   HfZrTaTiMo
_chemical_formula_sum   'Hf40 Zr40 Ta40 Ti40 Mo40'
_cell_volume   3894.38434634
_cell_formula_units_Z   40
loop_
 _symmetry_equiv_pos_site_id
 _symmetry_equiv_pos_as_xyz
  1  'x, y, z'
loop_
 _atom_site_type_symbol
 _atom_site_label
 _atom_site_symmetry_multiplicity
 _atom_site_fract_x
 _atom_site_fract_y
 _atom_site_fract_z
 _atom_site_occupancy
  Hf  Hf0  1  0.69807344  0.49088860  0.87530375  1
  Hf  Hf1  1  0.00950444  0.41438753  0.24063862  1
  Hf  Hf2  1  0.80430649  0.38937018  0.51307287  1
  Hf  Hf3  1  0.00061337  0.82492461  0.01098078  1
  Hf  Hf4  1  0.90329276  0.31432391  0.36771521  1
  Hf  Hf5  1  0.79899607  0.20206798  0.74443057  1
  Hf  Hf6  1  0.09529714  0.10006312  0.36276536  1
  Hf  Hf7  1  0.49209965  0.89340170  0.61865995  1
  Hf  Hf8  1  0.09053659  0.10458293  0.63002188  1
  Hf  Hf9  1  0.59106929  -0.00292269  0.75438740  1
  Hf  Hf10  1  0.09579092  0.08544181  0.87195984  1
  Hf  Hf11  1  0.19380540  0.79944992  0.74850430  1
  Hf  Hf12  1  0.87565650  0.11675526  0.36111928  1
  Hf  Hf13  1  0.10918954  0.29820277  0.36570916  1
  Hf  Hf14  1  0.50562738  0.10941651  0.38384757  1
  Hf  Hf15  1  0.39153883  0.79950914  0.47887708  1
  Hf  Hf16  1  0.31619928  0.29965081  0.38363378  1
  Hf  Hf17  1  0.30052629  0.68650586  0.88752660  1
  Hf  Hf18  1  0.70092618  0.68882750  0.63473436  1
  Hf  Hf19  1  0.09438641  0.88682749  0.60972217  1
  Hf  Hf20  1  0.10110087  0.50340332  0.37457893  1
  Hf  Hf21  1  0.19807233  0.79457102  0.25548427  1
  Hf  Hf22  1  0.62394950  0.19767880  0.51807871  1
  Hf  Hf23  1  -0.01090089  0.01144931  0.49548953  1
  Hf  Hf24  1  0.89997379  0.89801707  0.62185113  1
  Hf  Hf25  1  0.78577110  0.02544841  0.51451109  1
  Hf  Hf26  1  0.40098750  0.60294272  0.25339066  1
  Hf  Hf27  1  0.19820933  0.59050448  0.75056689  1
  Hf  Hf28  1  0.79113956  0.80146178  0.49705159  1
  Hf  Hf29  1  0.79108658  0.80459951  -0.00939042  1
  Hf  Hf30  1  0.20679904  0.19409640  0.74714733  1
  Hf  Hf31  1  0.09971745  0.68892784  0.60818790  1
  Hf  Hf32  1  0.30005124  0.90731477  0.61458457  1
  Hf  Hf33  1  0.11093793  0.50706872  0.10747280  1
  Hf  Hf34  1  0.91434091  0.49948207  0.63699887  1
  Hf  Hf35  1  0.70673705  0.49037314  0.37655078  1
  Hf  Hf36  1  -0.00566600  0.61140333  0.24034087  1
  Hf  Hf37  1  0.70477729  0.28270294  0.37315418  1
  Hf  Hf38  1  0.39477100  -0.00466277  0.00315189  1
  Hf  Hf39  1  0.19648694  0.19779245  0.50654864  1
  Zr  Zr40  1  0.38830527  -0.00076777  0.75675653  1
  Zr  Zr41  1  0.30855904  0.29451452  0.62015646  1
  Zr  Zr42  1  0.38222280  0.20188072  0.02014905  1
  Zr  Zr43  1  0.12216182  0.29484163  0.12150607  1
  Zr  Zr44  1  0.59513724  0.19624471  0.00050783  1
  Zr  Zr45  1  0.59967903  0.20053338  0.74092302  1
  Zr  Zr46  1  0.30530191  0.50018410  0.61515511  1
  Zr  Zr47  1  0.68788695  0.88949829  0.63091498  1
  Zr  Zr48  1  0.60228349  0.39464861  0.00817717  1
  Zr  Zr49  1  0.40342590  0.20702007  0.23657181  1
  Zr  Zr50  1  0.81246381  0.79036412  0.76040832  1
  Zr  Zr51  1  0.09056274  0.32269885  0.64235366  1
  Zr  Zr52  1  0.00815153  0.19286577  -0.00402948  1
  Zr  Zr53  1  0.78728654  0.80666403  0.24902430  1
  Zr  Zr54  1  0.41182053  0.40817705  0.23631303  1
  Zr  Zr55  1  0.59007927  0.60345279  -0.01213562  1
  Zr  Zr56  1  0.18768479  0.00572031  0.00972283  1
  Zr  Zr57  1  0.40182910  -0.00151919  0.24730003  1
  Zr  Zr58  1  0.30131125  0.70411523  0.61820378  1
  Zr  Zr59  1  0.90610065  0.91092502  0.87473956  1
  Zr  Zr60  1  0.31892392  0.29995768  0.87153025  1
  Zr  Zr61  1  -0.00336293  0.40025566  -0.01705408  1
  Zr  Zr62  1  0.88352312  0.90919584  0.37267078  1
  Zr  Zr63  1  0.90410432  0.31069485  0.12302768  1
  Zr  Zr64  1  0.10052686  0.72340764  0.88549423  1
  Zr  Zr65  1  0.39717292  0.79830892  0.26006468  1
  Zr  Zr66  1  0.42326189  0.60025316  0.49094428  1
  Zr  Zr67  1  0.89438654  0.10320055  0.13009574  1
  Zr  Zr68  1  0.79632076  0.41365566  0.24053991  1
  Zr  Zr69  1  0.50044120  0.69837416  0.12101561  1
  Zr  Zr70  1  0.20036471  0.59616521  0.24921289  1
  Zr  Zr71  1  0.50346700  0.70137031  0.63560855  1
  Zr  Zr72  1  0.60906514  -0.01968756  -0.01297820  1
  Zr  Zr73  1  -0.00756340  0.61248326  0.76538478  1
  Zr  Zr74  1  0.51024941  0.08654058  0.12365495  1
  Zr  Zr75  1  0.19414520  0.40775161  0.50354626  1
  Zr  Zr76  1  -0.01175466  0.61324005  -0.00659908  1
  Zr  Zr77  1  0.70615859  0.09231562  0.87708812  1
  Zr  Zr78  1  0.20195039  0.00287482  0.49593100  1
  Zr  Zr79  1  0.69311306  0.68957776  0.37499997  1
  Ta  Ta80  1  0.49925334  0.30634308  0.61368951  1
  Ta  Ta81  1  -0.00361477  -0.00361763  0.74392884  1
  Ta  Ta82  1  0.28075044  0.89379520  0.88381527  1
  Ta  Ta83  1  0.40773184  0.19639270  0.74390230  1
  Ta  Ta84  1  0.60499067  0.41106429  0.51232448  1
  Ta  Ta85  1  0.00212673  0.20583681  0.24612624  1
  Ta  Ta86  1  0.48296526  0.09702022  0.60979026  1
  Ta  Ta87  1  -0.00250474  0.59381374  0.49890953  1
  Ta  Ta88  1  0.59515665  0.59426077  0.76453943  1
  Ta  Ta89  1  0.10202559  0.09867946  0.14040590  1
  Ta  Ta90  1  0.61237641  0.18880742  0.24647210  1
  Ta  Ta91  1  0.19402466  -0.00703518  0.74709451  1
  Ta  Ta92  1  0.61210938  -0.01294671  0.25613790  1
  Ta  Ta93  1  0.50577667  0.88666851  0.12109224  1
  Ta  Ta94  1  0.09537280  0.90667269  0.13977509  1
  Ta  Ta95  1  0.29337310  0.69389619  0.10969886  1
  Ta  Ta96  1  0.40114877  0.59281381  0.75688933  1
  Ta  Ta97  1  0.09438224  0.70345928  0.38648989  1
  Ta  Ta98  1  0.60343757  0.58677952  0.24070068  1
  Ta  Ta99  1  0.59844734  0.39849130  0.74368469  1
  Ta  Ta100  1  -0.00650082  0.20456771  0.76551848  1
  Ta  Ta101  1  0.22350858  0.40094627  -0.00454698  1
  Ta  Ta102  1  0.11297409  0.29720086  0.87590034  1
  Ta  Ta103  1  0.51575334  0.49909946  0.37476935  1
  Ta  Ta104  1  0.90219426  0.70068878  0.37831333  1
  Ta  Ta105  1  0.80263757  0.59435102  0.50630205  1
  Ta  Ta106  1  0.29693920  0.89207130  0.12208966  1
  Ta  Ta107  1  0.30941752  0.49835469  0.38369236  1
  Ta  Ta108  1  0.41081928  0.39993495  0.02153759  1
  Ta  Ta109  1  0.80225153  0.21069534  -0.00625272  1
  Ta  Ta110  1  0.79834013  0.00686361  0.73838450  1
  Ta  Ta111  1  0.08960839  0.89501170  0.37303527  1
  Ta  Ta112  1  -0.00573247  0.80097661  0.24440359  1
  Ta  Ta113  1  0.70670790  0.28840429  0.12610525  1
  Ta  Ta114  1  0.40227846  0.79498598  -0.00589200  1
  Ta  Ta115  1  0.90546952  0.70182981  0.61886960  1
  Ta  Ta116  1  0.30209745  0.10511115  0.37294244  1
  Ta  Ta117  1  0.50760784  0.90168747  0.38059581  1
  Ta  Ta118  1  0.48747026  0.10782279  0.87872292  1
  Ta  Ta119  1  -0.01248591  0.20938858  0.50063302  1
  Ti  Ti120  1  0.90361365  0.29435956  0.63252077  1
  Ti  Ti121  1  0.00037663  0.40285768  0.50256463  1
  Ti  Ti122  1  0.89675013  0.10170520  0.88117757  1
  Ti  Ti123  1  0.11897199  0.50517082  0.88880560  1
  Ti  Ti124  1  0.69471422  0.89724538  0.12254151  1
  Ti  Ti125  1  0.69487901  0.70258163  0.11968559  1
  Ti  Ti126  1  0.70913322  0.08814780  0.11957248  1
  Ti  Ti127  1  0.88717577  0.91109288  0.12803928  1
  Ti  Ti128  1  0.59207653  0.78193443  0.49117591  1
  Ti  Ti129  1  0.71417187  0.68675863  0.87016560  1
  Ti  Ti130  1  0.51010523  0.30832356  0.39011058  1
  Ti  Ti131  1  0.29454326  0.09971938  0.87804312  1
  Ti  Ti132  1  0.59707313  0.79298121  0.77439605  1
  Ti  Ti133  1  0.29218399  0.90753685  0.37680836  1
  Ti  Ti134  1  0.59352846  0.79271596  0.25731273  1
  Ti  Ti135  1  0.70389687  0.50537869  0.11217561  1
  Ti  Ti136  1  0.60004943  0.39037301  0.23738239  1
  Ti  Ti137  1  0.10354632  0.71050570  0.11414113  1
  Ti  Ti138  1  0.88069428  0.50965351  0.88120977  1
  Ti  Ti139  1  0.00266031  0.40511385  0.77763176  1
  Ti  Ti140  1  0.39750658  0.79478536  0.76387493  1
  Ti  Ti141  1  0.20547004  0.40483632  0.75753575  1
  Ti  Ti142  1  0.88827251  0.70798599  0.12019556  1
  Ti  Ti143  1  0.59743126  0.79347990  -0.02172484  1
  Ti  Ti144  1  0.89163993  0.51061790  0.10856420  1
  Ti  Ti145  1  0.50798544  0.50344945  0.62742892  1
  Ti  Ti146  1  -0.01037955  -0.00294945  0.25184185  1
  Ti  Ti147  1  0.90059609  0.51119414  0.37526944  1
  Ti  Ti148  1  0.20326501  0.00042422  0.24968777  1
  Ti  Ti149  1  0.70510094  0.49997082  0.63789909  1
  Ti  Ti150  1  0.59837596  -0.00776054  0.49984466  1
  Ti  Ti151  1  0.79922608  0.60705946  0.24124864  1
  Ti  Ti152  1  0.21808509  0.39748777  0.24559058  1
  Ti  Ti153  1  0.80492183  0.39856904  0.75136640  1
  Ti  Ti154  1  0.40511783  0.40031888  0.74581108  1
  Ti  Ti155  1  0.48889687  0.89560427  0.87645530  1
  Ti  Ti156  1  0.39187274  0.58152743  0.00348263  1
  Ti  Ti157  1  0.48461144  0.49138820  0.87388488  1
  Ti  Ti158  1  0.70824717  0.30093734  0.87573555  1
  Ti  Ti159  1  0.50704017  0.30181348  0.87212571  1
  Mo  Mo160  1  0.68723496  0.90289242  0.38434121  1
  Mo  Mo161  1  0.20433375  0.80709889  0.01107717  1
  Mo  Mo162  1  0.28361258  0.09906810  0.13689119  1
  Mo  Mo163  1  0.30219627  0.09792284  0.62675376  1
  Mo  Mo164  1  0.09838471  0.50409527  0.62834908  1
  Mo  Mo165  1  0.50741141  0.69279412  0.36766249  1
  Mo  Mo166  1  0.51004543  0.50336975  0.12586421  1
  Mo  Mo167  1  0.81183518  0.20354556  0.51302888  1
  Mo  Mo168  1  0.20123651  0.59770129  -0.00045560  1
  Mo  Mo169  1  0.80690071  0.00006412  0.00286516  1
  Mo  Mo170  1  0.79752265  0.58988260  0.74940116  1
  Mo  Mo171  1  -0.00978728  0.79687729  0.49007184  1
  Mo  Mo172  1  0.79761478  0.40002238  0.00034027  1
  Mo  Mo173  1  0.20851238  0.19396200  0.25323838  1
  Mo  Mo174  1  0.79084682  0.60414439  0.00556757  1
  Mo  Mo175  1  0.41645462  0.40062338  0.49529707  1
  Mo  Mo176  1  0.69101219  0.09723477  0.63489414  1
  Mo  Mo177  1  0.61538149  0.59195094  0.50666565  1
  Mo  Mo178  1  0.20084091  0.20112056  -0.00683708  1
  Mo  Mo179  1  0.30558539  0.49149028  0.87364048  1
  Mo  Mo180  1  0.51373894  0.29572707  0.13176313  1
  Mo  Mo181  1  0.69768617  0.89457437  0.86253503  1
  Mo  Mo182  1  0.29863172  0.30548733  0.12548601  1
  Mo  Mo183  1  0.69394275  0.08962092  0.37414504  1
  Mo  Mo184  1  0.09975889  0.90668215  0.87136338  1
  Mo  Mo185  1  0.49467548  0.69772295  0.86801816  1
  Mo  Mo186  1  0.40668101  0.19791886  0.49908063  1
  Mo  Mo187  1  0.79324634  0.20335797  0.24215877  1
  Mo  Mo188  1  0.00396893  0.80452747  0.74536207  1
  Mo  Mo189  1  0.89631312  0.30404963  0.87000819  1
  Mo  Mo190  1  0.19537629  0.80112289  0.48075868  1
  Mo  Mo191  1  0.30182342  0.50237304  0.12172041  1
  Mo  Mo192  1  0.29095230  0.69195480  0.38016301  1
  Mo  Mo193  1  0.70317317  0.31377209  0.63316741  1
  Mo  Mo194  1  0.89646535  0.70124592  0.88238860  1
  Mo  Mo195  1  0.90285261  0.10648224  0.63266900  1
  Mo  Mo196  1  0.40251475  0.00255865  0.48818483  1
  Mo  Mo197  1  0.78531816  0.00390462  0.24427829  1
  Mo  Mo198  1  0.20746019  0.60470404  0.48720616  1
  Mo  Mo199  1  -0.00839502  0.00202019  0.01245919  1
