# generated using pymatgen
data_HfZrTaTiMo
_symmetry_space_group_name_H-M   'P 1'
_cell_length_a   15.22372029
_cell_length_b   15.20682735
_cell_length_c   16.83901952
_cell_angle_alpha   90.02719009
_cell_angle_beta   89.99421684
_cell_angle_gamma   90.06936652
_symmetry_Int_Tables_number   1
_chemical_formula_structural   HfZrTaTiMo
_chemical_formula_sum   'Hf40 Zr40 Ta40 Ti40 Mo40'
_cell_volume   3898.30524346
_cell_formula_units_Z   40
loop_
 _symmetry_equiv_pos_site_id
 _symmetry_equiv_pos_as_xyz
  1  'x, y, z'
loop_
 _atom_site_type_symbol
 _atom_site_label
 _atom_site_symmetry_multiplicity
 _atom_site_fract_x
 _atom_site_fract_y
 _atom_site_fract_z
 _atom_site_occupancy
  Hf  Hf0  1  0.50205504  0.49569785  0.12305045  1
  Hf  Hf1  1  0.02073657  0.20324557  0.24413047  1
  Hf  Hf2  1  0.39079415  0.79726099  0.00587300  1
  Hf  Hf3  1  0.90706299  0.90510489  0.39345802  1
  Hf  Hf4  1  0.28876270  0.48682100  0.87921754  1
  Hf  Hf5  1  0.40726953  0.19916016  0.74607834  1
  Hf  Hf6  1  0.01280178  0.20332804  0.00852894  1
  Hf  Hf7  1  -0.00716717  0.59955836  0.73244430  1
  Hf  Hf8  1  0.91897644  0.31164526  0.36275091  1
  Hf  Hf9  1  0.28790525  0.48955852  0.12974582  1
  Hf  Hf10  1  0.80526006  0.20023911  0.00257181  1
  Hf  Hf11  1  0.29306013  0.69774303  0.36878500  1
  Hf  Hf12  1  0.00579371  0.79929484  -0.01818800  1
  Hf  Hf13  1  0.82378067  0.18978705  0.73560066  1
  Hf  Hf14  1  -0.00288004  0.62072328  0.23998746  1
  Hf  Hf15  1  0.92272291  0.29322460  0.86165634  1
  Hf  Hf16  1  0.11388887  0.31147012  0.62253028  1
  Hf  Hf17  1  0.19359206  0.00115655  -0.00818450  1
  Hf  Hf18  1  0.71136353  0.70045037  0.12778637  1
  Hf  Hf19  1  0.19266256  -0.01187592  0.49294239  1
  Hf  Hf20  1  0.89464500  0.10762268  0.36688311  1
  Hf  Hf21  1  0.49894717  0.09530563  0.87478805  1
  Hf  Hf22  1  0.78579113  0.78453820  0.75683243  1
  Hf  Hf23  1  0.69145698  0.10055358  0.13498870  1
  Hf  Hf24  1  0.60582884  0.80673953  0.00354427  1
  Hf  Hf25  1  0.38666229  0.00703326  0.25413966  1
  Hf  Hf26  1  0.60697457  0.40030380  -0.00032341  1
  Hf  Hf27  1  0.91198878  0.49415919  0.87182607  1
  Hf  Hf28  1  0.21285806  0.20525080  0.75365617  1
  Hf  Hf29  1  -0.00383812  -0.00711231  -0.00763502  1
  Hf  Hf30  1  0.09873549  0.10503818  0.62630937  1
  Hf  Hf31  1  0.01006515  0.41117075  0.01529104  1
  Hf  Hf32  1  0.09480238  0.11094929  0.86500818  1
  Hf  Hf33  1  0.19934331  0.79548201  0.50175654  1
  Hf  Hf34  1  0.90359809  0.09766931  0.13231347  1
  Hf  Hf35  1  0.18526569  0.60212744  0.00244452  1
  Hf  Hf36  1  0.79366337  -0.01322658  -0.00009156  1
  Hf  Hf37  1  0.50148630  0.10296885  0.37725118  1
  Hf  Hf38  1  -0.00829770  0.81093264  0.75224891  1
  Hf  Hf39  1  0.39443401  0.59814617  0.24817171  1
  Zr  Zr40  1  0.19439186  0.58443589  0.73937234  1
  Zr  Zr41  1  0.30530955  0.69188251  0.87531026  1
  Zr  Zr42  1  0.48885570  0.51241457  0.88780332  1
  Zr  Zr43  1  0.80374262  0.79034843  0.25967020  1
  Zr  Zr44  1  0.49334640  0.50027869  0.62169859  1
  Zr  Zr45  1  0.39200683  0.80606188  0.24563459  1
  Zr  Zr46  1  0.60659305  0.19138081  0.72721743  1
  Zr  Zr47  1  0.60678613  0.59632389  0.48339403  1
  Zr  Zr48  1  0.19209308  -0.00611803  0.26473963  1
  Zr  Zr49  1  0.60548870  0.38994241  0.48061577  1
  Zr  Zr50  1  0.39132647  0.39721717  0.48437516  1
  Zr  Zr51  1  0.71322932  0.30575115  0.85637378  1
  Zr  Zr52  1  0.70048374  0.10100320  0.87209556  1
  Zr  Zr53  1  0.80352429  0.79407148  -0.01518641  1
  Zr  Zr54  1  0.08837463  0.10644353  0.38375341  1
  Zr  Zr55  1  0.70490387  0.30476841  0.14281614  1
  Zr  Zr56  1  0.70554951  0.49964532  0.62542518  1
  Zr  Zr57  1  0.50305411  0.90675495  0.13197720  1
  Zr  Zr58  1  0.50284504  0.30356366  0.87239196  1
  Zr  Zr59  1  0.21443486  0.20320272  0.49028774  1
  Zr  Zr60  1  0.59244552  0.00571469  0.00333142  1
  Zr  Zr61  1  0.69807280  0.88634192  0.61691462  1
  Zr  Zr62  1  0.50065763  0.69177796  0.12401559  1
  Zr  Zr63  1  0.82429965  0.21016288  0.50787413  1
  Zr  Zr64  1  0.47482752  0.89705152  0.61712615  1
  Zr  Zr65  1  0.80607723  -0.01430914  0.75465535  1
  Zr  Zr66  1  0.39572051  0.60612421  0.49694925  1
  Zr  Zr67  1  0.59608536  0.61565043  0.75080795  1
  Zr  Zr68  1  0.08833702  0.68646366  0.38784983  1
  Zr  Zr69  1  0.12805380  0.29961330  0.12903700  1
  Zr  Zr70  1  0.69922257  0.89376874  0.39431128  1
  Zr  Zr71  1  0.71450447  0.31076503  0.62812950  1
  Zr  Zr72  1  0.39822962  0.38130464  0.25436980  1
  Zr  Zr73  1  0.26788334  0.49137018  0.36025241  1
  Zr  Zr74  1  0.80601317  0.40143841  0.00312383  1
  Zr  Zr75  1  0.70227776  0.10253452  0.38032689  1
  Zr  Zr76  1  0.79494516  -0.01329806  0.24420381  1
  Zr  Zr77  1  0.58719514  -0.00652758  0.73482302  1
  Zr  Zr78  1  0.19217421  0.57651653  0.51945816  1
  Zr  Zr79  1  0.58843834  0.00694070  0.51274513  1
  Ta  Ta80  1  0.69898983  0.50705541  0.13697581  1
  Ta  Ta81  1  0.02010333  0.42103956  0.24014742  1
  Ta  Ta82  1  -0.01436243  0.58479270  0.51804535  1
  Ta  Ta83  1  0.79601435  0.59720868  0.26744698  1
  Ta  Ta84  1  0.39076760  0.38482819  0.00789226  1
  Ta  Ta85  1  0.18468643  0.79322258  0.25413427  1
  Ta  Ta86  1  0.39944845  0.79696449  0.75122004  1
  Ta  Ta87  1  0.11612339  0.32425155  0.86871721  1
  Ta  Ta88  1  0.70398987  0.50592766  0.86813940  1
  Ta  Ta89  1  0.38443612  -0.00017368  0.74716023  1
  Ta  Ta90  1  0.27740487  0.69845547  0.12763748  1
  Ta  Ta91  1  0.88907713  0.50875358  0.13505832  1
  Ta  Ta92  1  0.30507661  0.70292805  0.63075831  1
  Ta  Ta93  1  0.19353458  0.79941356  0.74960193  1
  Ta  Ta94  1  0.71951811  0.29884515  0.36158776  1
  Ta  Ta95  1  0.50203343  0.30420706  0.62310387  1
  Ta  Ta96  1  0.69858609  0.69619023  0.61209041  1
  Ta  Ta97  1  0.50608960  0.71103685  0.87923458  1
  Ta  Ta98  1  0.49757143  0.50324246  0.36559167  1
  Ta  Ta99  1  0.50187406  0.70764694  0.36792260  1
  Ta  Ta100  1  0.89712393  0.68818024  0.87143566  1
  Ta  Ta101  1  0.29482121  0.90053560  0.86943020  1
  Ta  Ta102  1  0.09517507  0.70801611  0.62351846  1
  Ta  Ta103  1  0.49144526  0.89830382  0.37741450  1
  Ta  Ta104  1  0.90371343  0.88140369  0.12385300  1
  Ta  Ta105  1  0.38784270  0.00044990  0.00459011  1
  Ta  Ta106  1  0.90373347  0.30590243  0.14420804  1
  Ta  Ta107  1  0.89094894  0.70064711  0.39816944  1
  Ta  Ta108  1  0.60481853  0.40596840  0.26336502  1
  Ta  Ta109  1  0.28214634  0.90162725  0.12244363  1
  Ta  Ta110  1  0.48524010  0.89911715  0.87208342  1
  Ta  Ta111  1  0.30527555  0.09527139  0.62108064  1
  Ta  Ta112  1  0.22194367  0.20281257  0.26637114  1
  Ta  Ta113  1  0.21847481  0.20759748  -0.01235801  1
  Ta  Ta114  1  0.92368064  0.31995615  0.63632355  1
  Ta  Ta115  1  0.40556448  0.19447704  0.00219797  1
  Ta  Ta116  1  0.79993052  0.59491366  0.74831703  1
  Ta  Ta117  1  -0.01053016  0.60821994  0.01426542  1
  Ta  Ta118  1  0.31206148  0.30552422  0.62112756  1
  Ta  Ta119  1  -0.00117220  0.80901554  0.25770716  1
  Ti  Ti120  1  -0.00769982  0.01479773  0.51158746  1
  Ti  Ti121  1  0.11080206  0.09127683  0.12577289  1
  Ti  Ti122  1  0.89723779  0.90677183  0.61404363  1
  Ti  Ti123  1  -0.00325885  0.00607229  0.74586206  1
  Ti  Ti124  1  0.00436589  0.80857805  0.51224583  1
  Ti  Ti125  1  0.91099980  0.50607604  0.37104802  1
  Ti  Ti126  1  0.79784596  0.59597035  -0.00191658  1
  Ti  Ti127  1  0.28097467  0.89683798  0.63163469  1
  Ti  Ti128  1  0.88504862  0.70070490  0.61147156  1
  Ti  Ti129  1  0.30475925  0.09785889  0.87463792  1
  Ti  Ti130  1  0.60491880  0.20263262  0.50824494  1
  Ti  Ti131  1  0.60634515  0.60377467  -0.00390140  1
  Ti  Ti132  1  0.11468377  0.32219540  0.37992151  1
  Ti  Ti133  1  0.20033778  0.39677337  0.00208733  1
  Ti  Ti134  1  0.50083254  0.70682794  0.62362771  1
  Ti  Ti135  1  0.38416739  0.00184047  0.48968918  1
  Ti  Ti136  1  0.60107911  0.20479337  0.00466288  1
  Ti  Ti137  1  0.59549827  0.20657310  0.25666042  1
  Ti  Ti138  1  0.09600677  0.68877399  0.86639938  1
  Ti  Ti139  1  0.58937652  0.79181412  0.49467502  1
  Ti  Ti140  1  0.81671249  0.41657141  0.49204099  1
  Ti  Ti141  1  0.59560910  -0.00504393  0.25447783  1
  Ti  Ti142  1  0.67851195  0.88798144  0.86410636  1
  Ti  Ti143  1  0.40362239  0.19784906  0.25875128  1
  Ti  Ti144  1  0.60561135  0.60536749  0.26343151  1
  Ti  Ti145  1  0.41142754  0.20090644  0.49582216  1
  Ti  Ti146  1  0.39144424  0.80382092  0.49258886  1
  Ti  Ti147  1  0.29647559  0.10900918  0.12391502  1
  Ti  Ti148  1  0.09780151  0.89488467  0.12461199  1
  Ti  Ti149  1  0.49235223  0.10705626  0.13049252  1
  Ti  Ti150  1  0.00262841  -0.00868422  0.24950910  1
  Ti  Ti151  1  0.39117340  0.40063540  0.74956356  1
  Ti  Ti152  1  0.90173525  0.09623423  0.87527260  1
  Ti  Ti153  1  0.72041198  0.09064843  0.61258094  1
  Ti  Ti154  1  0.39636546  0.59717472  0.74361433  1
  Ti  Ti155  1  0.19323205  0.80429238  -0.00881168  1
  Ti  Ti156  1  0.59454272  0.40655153  0.75073540  1
  Ti  Ti157  1  0.60805471  0.80364497  0.25473065  1
  Ti  Ti158  1  0.19041274  -0.00675378  0.75140895  1
  Ti  Ti159  1  0.50160539  0.29471850  0.12676461  1
  Mo  Mo160  1  0.58842913  0.79740642  0.74976499  1
  Mo  Mo161  1  0.30711757  0.09553165  0.38077980  1
  Mo  Mo162  1  0.80738900  0.00169353  0.50906247  1
  Mo  Mo163  1  0.51520533  0.29225894  0.37274409  1
  Mo  Mo164  1  0.08564838  0.48858578  0.62564843  1
  Mo  Mo165  1  0.70281737  0.89810672  0.13279321  1
  Mo  Mo166  1  0.80159353  0.79417027  0.50565311  1
  Mo  Mo167  1  0.30712128  0.29167377  0.37761097  1
  Mo  Mo168  1  0.19956947  0.39920322  0.50065804  1
  Mo  Mo169  1  0.80026082  0.59519042  0.49075494  1
  Mo  Mo170  1  0.10455712  0.90061304  0.86392417  1
  Mo  Mo171  1  0.89171166  0.49483682  0.62673056  1
  Mo  Mo172  1  0.80468435  0.20278130  0.24738569  1
  Mo  Mo173  1  0.09541042  0.50557134  0.87823327  1
  Mo  Mo174  1  0.09063908  0.89129290  0.37766400  1
  Mo  Mo175  1  0.18099361  0.59502954  0.23785125  1
  Mo  Mo176  1  0.09546751  0.72262785  0.12209860  1
  Mo  Mo177  1  0.29977960  0.48964126  0.63239586  1
  Mo  Mo178  1  0.69477056  0.70057786  0.38034077  1
  Mo  Mo179  1  0.08131126  0.49483421  0.37663905  1
  Mo  Mo180  1  0.19649654  0.38924231  0.24894845  1
  Mo  Mo181  1  0.48244330  0.10994360  0.61220386  1
  Mo  Mo182  1  0.91084780  0.10327694  0.62460610  1
  Mo  Mo183  1  0.89778549  0.70049394  0.12210775  1
  Mo  Mo184  1  0.39723898  0.59719350  0.00808842  1
  Mo  Mo185  1  0.00375219  0.21320595  0.49979501  1
  Mo  Mo186  1  0.01756778  0.40842567  0.75129308  1
  Mo  Mo187  1  0.30871280  0.29781589  0.87751663  1
  Mo  Mo188  1  0.21274742  0.39912106  0.74747491  1
  Mo  Mo189  1  0.69584126  0.68896324  0.87954014  1
  Mo  Mo190  1  0.00147007  0.39878150  0.49633150  1
  Mo  Mo191  1  0.71099408  0.49500633  0.36657377  1
  Mo  Mo192  1  0.31479540  0.28334386  0.12451039  1
  Mo  Mo193  1  0.09444247  0.90072597  0.63143869  1
  Mo  Mo194  1  0.80780538  0.40393272  0.75412680  1
  Mo  Mo195  1  0.01297145  0.20128960  0.75065899  1
  Mo  Mo196  1  0.29860524  0.89205833  0.37721499  1
  Mo  Mo197  1  0.81085151  0.41005101  0.25323667  1
  Mo  Mo198  1  0.89786036  0.90242908  0.86821081  1
  Mo  Mo199  1  0.10038762  0.51346410  0.12507845  1
