# generated using pymatgen
data_HfZrTaTiMo
_symmetry_space_group_name_H-M   'P 1'
_cell_length_a   15.21031985
_cell_length_b   15.20166280
_cell_length_c   16.83121763
_cell_angle_alpha   89.99788432
_cell_angle_beta   89.96928210
_cell_angle_gamma   89.93267312
_symmetry_Int_Tables_number   1
_chemical_formula_structural   HfZrTaTiMo
_chemical_formula_sum   'Hf40 Zr40 Ta40 Ti40 Mo40'
_cell_volume   3891.74713808
_cell_formula_units_Z   40
loop_
 _symmetry_equiv_pos_site_id
 _symmetry_equiv_pos_as_xyz
  1  'x, y, z'
loop_
 _atom_site_type_symbol
 _atom_site_label
 _atom_site_symmetry_multiplicity
 _atom_site_fract_x
 _atom_site_fract_y
 _atom_site_fract_z
 _atom_site_occupancy
  Hf  Hf0  1  0.70941159  0.49681096  0.38369470  1
  Hf  Hf1  1  0.89031890  0.92098854  0.10927835  1
  Hf  Hf2  1  0.59088812  0.40472752  0.76160024  1
  Hf  Hf3  1  0.89671936  0.71171149  0.86746665  1
  Hf  Hf4  1  0.00131133  0.80325747  0.24279478  1
  Hf  Hf5  1  -0.00580927  0.83613399  0.74839812  1
  Hf  Hf6  1  0.39725599  0.79878149  -0.00067501  1
  Hf  Hf7  1  0.40640615  -0.01044979  0.49057191  1
  Hf  Hf8  1  0.39739488  0.39468238  0.25626403  1
  Hf  Hf9  1  0.79774004  0.59781760  0.73556080  1
  Hf  Hf10  1  -0.01105822  0.79072911  0.01104501  1
  Hf  Hf11  1  0.60526800  0.37918085  -0.01391176  1
  Hf  Hf12  1  0.50678238  0.70441455  0.87136533  1
  Hf  Hf13  1  0.50846372  0.10460992  0.36321111  1
  Hf  Hf14  1  0.19997857  0.80060727  0.00714135  1
  Hf  Hf15  1  0.19399888  0.19947639  0.75088548  1
  Hf  Hf16  1  0.00496957  0.60884645  0.72817229  1
  Hf  Hf17  1  0.21269667  0.20525253  0.02665297  1
  Hf  Hf18  1  0.20574447  0.60351374  0.25892181  1
  Hf  Hf19  1  0.79892731  0.39941830  0.73785744  1
  Hf  Hf20  1  0.20957288  0.01150034  0.49374044  1
  Hf  Hf21  1  0.09906118  0.70951377  0.37988544  1
  Hf  Hf22  1  0.01060295  0.21110901  0.48981419  1
  Hf  Hf23  1  0.91574655  0.51346355  0.86846642  1
  Hf  Hf24  1  0.10662154  0.11434677  0.35975105  1
  Hf  Hf25  1  0.58331990  0.80122550  0.48693101  1
  Hf  Hf26  1  0.59681430  0.80263340  0.00642318  1
  Hf  Hf27  1  0.60346453  -0.00356193  0.49353415  1
  Hf  Hf28  1  0.08793985  0.10573859  0.13521409  1
  Hf  Hf29  1  0.01201526  0.40683019  0.73647239  1
  Hf  Hf30  1  0.30887212  0.50088949  0.38713406  1
  Hf  Hf31  1  0.71306925  0.09508494  0.62402350  1
  Hf  Hf32  1  0.70477679  0.48483760  0.11959629  1
  Hf  Hf33  1  0.59725872  0.60374397  0.49046016  1
  Hf  Hf34  1  0.61198539  -0.00629820  0.25070591  1
  Hf  Hf35  1  0.90553219  0.49938491  0.36978260  1
  Hf  Hf36  1  0.69190480  0.89512629  0.63359052  1
  Hf  Hf37  1  -0.00973942  0.00589727  0.25470070  1
  Hf  Hf38  1  0.18875829  0.59200558  -0.00147300  1
  Hf  Hf39  1  0.30690299  0.67938209  0.61812124  1
  Zr  Zr40  1  0.89751806  0.31558911  0.87993493  1
  Zr  Zr41  1  0.21380402  0.80438194  0.24055893  1
  Zr  Zr42  1  0.13266018  0.50211457  0.61039634  1
  Zr  Zr43  1  0.30196781  0.30708198  0.62346278  1
  Zr  Zr44  1  0.09482492  0.10779729  0.62225075  1
  Zr  Zr45  1  0.81590494  0.59653727  0.00535819  1
  Zr  Zr46  1  0.50585578  0.69511389  0.63281385  1
  Zr  Zr47  1  0.20569078  -0.00030300  0.23926535  1
  Zr  Zr48  1  0.29928602  0.29699703  0.87702126  1
  Zr  Zr49  1  0.80191852  -0.00107057  0.76650541  1
  Zr  Zr50  1  0.89189664  0.90538952  0.37727890  1
  Zr  Zr51  1  0.09231322  0.69830209  0.87301900  1
  Zr  Zr52  1  0.52165637  0.10848198  0.13249569  1
  Zr  Zr53  1  -0.01218259  0.01608065  0.49001468  1
  Zr  Zr54  1  0.39181385  0.79813317  0.75675605  1
  Zr  Zr55  1  0.50125451  0.09169683  0.62986754  1
  Zr  Zr56  1  0.70070366  0.29386482  0.61929323  1
  Zr  Zr57  1  0.20825877  0.00733563  0.01881768  1
  Zr  Zr58  1  0.40647294  0.57897928  0.76459241  1
  Zr  Zr59  1  0.48454969  0.49129155  0.61289018  1
  Zr  Zr60  1  0.69191962  0.29622328  0.39128557  1
  Zr  Zr61  1  0.50184541  0.49370248  0.12315408  1
  Zr  Zr62  1  0.61089856  0.19060224  0.76700425  1
  Zr  Zr63  1  0.19580180  -0.00472989  0.74717529  1
  Zr  Zr64  1  0.11283636  0.72427503  0.61579181  1
  Zr  Zr65  1  0.79691003  0.38915408  0.24870980  1
  Zr  Zr66  1  0.88856954  0.69780168  0.37119353  1
  Zr  Zr67  1  -0.00311857  0.60222694  0.51074640  1
  Zr  Zr68  1  0.08767311  0.92447241  0.88944206  1
  Zr  Zr69  1  0.01110186  0.22008971  0.00324701  1
  Zr  Zr70  1  0.78961983  0.80736756  0.23380955  1
  Zr  Zr71  1  0.20751237  0.58418162  0.75613177  1
  Zr  Zr72  1  0.30382193  0.09435452  0.87930344  1
  Zr  Zr73  1  0.88469021  0.12129995  0.10580049  1
  Zr  Zr74  1  0.19380842  0.39573080  0.02145259  1
  Zr  Zr75  1  0.41397884  0.19918291  0.01205547  1
  Zr  Zr76  1  0.49332508  0.68849320  0.12830104  1
  Zr  Zr77  1  0.29393716  0.89416692  0.62065810  1
  Zr  Zr78  1  0.08132501  0.50635795  0.14925570  1
  Zr  Zr79  1  0.89308500  0.72911189  0.62786499  1
  Ta  Ta80  1  0.71550865  0.09524927  0.38402708  1
  Ta  Ta81  1  0.09739703  0.31097146  0.35623705  1
  Ta  Ta82  1  0.10661375  0.90315686  0.38017501  1
  Ta  Ta83  1  0.79663839  0.01211281  0.24597137  1
  Ta  Ta84  1  0.78602252  0.80296379  0.50044398  1
  Ta  Ta85  1  0.40087501  0.39956511  0.00161646  1
  Ta  Ta86  1  0.91051247  0.09927131  0.89689079  1
  Ta  Ta87  1  0.21741669  0.21392822  0.23537064  1
  Ta  Ta88  1  0.50035242  0.89170026  0.63267532  1
  Ta  Ta89  1  0.00237480  0.40023495  0.50448471  1
  Ta  Ta90  1  0.79895547  0.60130060  0.51610791  1
  Ta  Ta91  1  0.60320312  0.59295400  -0.01214119  1
  Ta  Ta92  1  0.81721119  0.19296135  0.76387993  1
  Ta  Ta93  1  0.10586022  0.30312235  0.62370141  1
  Ta  Ta94  1  0.71167354  0.49328577  0.88063529  1
  Ta  Ta95  1  0.40344739  -0.01358774  0.24388436  1
  Ta  Ta96  1  0.31111997  0.10678480  0.35659616  1
  Ta  Ta97  1  0.58963834  0.79303451  0.25545091  1
  Ta  Ta98  1  0.67435533  0.90137106  0.87345873  1
  Ta  Ta99  1  0.41001066  0.37437207  0.48405739  1
  Ta  Ta100  1  0.30221715  0.90013599  0.87910329  1
  Ta  Ta101  1  0.59464685  0.37443585  0.24822671  1
  Ta  Ta102  1  0.58524462  0.20360991  0.50114819  1
  Ta  Ta103  1  0.69362965  0.68779279  0.13012640  1
  Ta  Ta104  1  0.91051243  0.28393495  0.62734734  1
  Ta  Ta105  1  0.19926431  0.38877212  0.48192224  1
  Ta  Ta106  1  0.69808691  0.89489712  0.37390550  1
  Ta  Ta107  1  0.68828381  0.50013598  0.61574126  1
  Ta  Ta108  1  0.09656438  0.69641335  0.12861997  1
  Ta  Ta109  1  0.49988235  0.29412286  0.63003170  1
  Ta  Ta110  1  -0.00671362  0.42871519  0.00685880  1
  Ta  Ta111  1  0.60380438  0.58800294  0.25892443  1
  Ta  Ta112  1  0.40927708  -0.00608881  0.01449919  1
  Ta  Ta113  1  0.40089819  0.19272368  0.74812017  1
  Ta  Ta114  1  0.78584389  0.79926189  0.00920538  1
  Ta  Ta115  1  0.51123865  0.48562990  0.37831685  1
  Ta  Ta116  1  0.69098570  0.27360908  0.11775567  1
  Ta  Ta117  1  0.10329095  0.31767214  0.87305263  1
  Ta  Ta118  1  0.89726099  0.29874940  0.37971785  1
  Ta  Ta119  1  0.70389133  0.69919443  0.87566285  1
  Ti  Ti120  1  0.77891341  0.21026345  -0.02190452  1
  Ti  Ti121  1  0.41472976  0.20895286  0.23960775  1
  Ti  Ti122  1  0.69077715  0.70320836  0.62919413  1
  Ti  Ti123  1  0.38989729  0.39488915  0.75383437  1
  Ti  Ti124  1  0.40000704  0.60169796  0.25779947  1
  Ti  Ti125  1  0.88751807  0.90470865  0.89438481  1
  Ti  Ti126  1  0.49498321  0.29089077  0.87184895  1
  Ti  Ti127  1  0.28976505  0.48492678  0.88209414  1
  Ti  Ti128  1  0.50472896  0.89513228  0.13213110  1
  Ti  Ti129  1  0.81494251  0.18374619  0.50035800  1
  Ti  Ti130  1  0.89095504  0.92855140  0.61674370  1
  Ti  Ti131  1  -0.02234894  0.21184812  0.25025377  1
  Ti  Ti132  1  0.90023411  0.67918941  0.13956762  1
  Ti  Ti133  1  0.09665013  0.50198704  0.37169866  1
  Ti  Ti134  1  0.50922575  0.07730126  0.87701209  1
  Ti  Ti135  1  -0.00569194  0.81216224  0.49885819  1
  Ti  Ti136  1  0.30194218  0.69450790  0.12311497  1
  Ti  Ti137  1  0.30772798  0.88966589  0.37183992  1
  Ti  Ti138  1  0.20636978  0.40203288  0.25259073  1
  Ti  Ti139  1  0.70337010  0.08046953  0.09963780  1
  Ti  Ti140  1  0.88909484  0.32060629  0.11575119  1
  Ti  Ti141  1  0.09426969  0.90248245  0.11859805  1
  Ti  Ti142  1  0.21257160  0.61273822  0.48506706  1
  Ti  Ti143  1  0.48555858  0.69812337  0.36654044  1
  Ti  Ti144  1  0.70064021  0.69673277  0.36782138  1
  Ti  Ti145  1  0.08718740  0.30976662  0.14760863  1
  Ti  Ti146  1  0.78691833  0.80448253  0.75726988  1
  Ti  Ti147  1  0.09226701  0.90922165  0.61110977  1
  Ti  Ti148  1  0.81036940  0.39932574  0.51368213  1
  Ti  Ti149  1  0.38954984  0.78764343  0.49319265  1
  Ti  Ti150  1  0.40009849  0.59128438  -0.01136638  1
  Ti  Ti151  1  -0.00284750  0.03818049  0.75821390  1
  Ti  Ti152  1  0.39328297  0.18702405  0.49841033  1
  Ti  Ti153  1  0.21045024  0.20528729  0.49249271  1
  Ti  Ti154  1  0.78848528  0.19502162  0.24968094  1
  Ti  Ti155  1  0.29549840  0.69685313  0.87875407  1
  Ti  Ti156  1  0.60735588  0.59465305  0.76136272  1
  Ti  Ti157  1  0.30382313  0.50367622  0.12613232  1
  Ti  Ti158  1  0.39886065  -0.00091557  0.74856553  1
  Ti  Ti159  1  0.19441186  0.80081502  0.75961338  1
  Mo  Mo160  1  0.70181076  0.09256128  0.88507290  1
  Mo  Mo161  1  0.79585665  -0.00512226  0.50146991  1
  Mo  Mo162  1  0.00060469  0.20876554  0.76263139  1
  Mo  Mo163  1  0.51262348  0.30412702  0.12267282  1
  Mo  Mo164  1  0.49524727  0.89332025  0.36371900  1
  Mo  Mo165  1  0.30768020  0.49281862  0.59449421  1
  Mo  Mo166  1  0.59132139  -0.00629303  0.00401221  1
  Mo  Mo167  1  0.89385772  0.11409229  0.36664684  1
  Mo  Mo168  1  0.10006865  0.11942903  0.88287206  1
  Mo  Mo169  1  0.30898824  0.10496905  0.62494851  1
  Mo  Mo170  1  -0.00145799  0.60723830  0.26100960  1
  Mo  Mo171  1  0.00234438  0.60610224  0.00529656  1
  Mo  Mo172  1  0.60188577  0.18820772  -0.01932578  1
  Mo  Mo173  1  0.40187986  0.79524362  0.24765829  1
  Mo  Mo174  1  0.59138990  -0.00899258  0.75232814  1
  Mo  Mo175  1  0.31350710  0.10085189  0.14462273  1
  Mo  Mo176  1  0.78971313  0.59911452  0.24530494  1
  Mo  Mo177  1  0.31278527  0.89432043  0.12190115  1
  Mo  Mo178  1  0.00081423  0.00646710  0.00206756  1
  Mo  Mo179  1  0.09945288  0.49202913  0.87607970  1
  Mo  Mo180  1  0.69383255  0.89579589  0.12382016  1
  Mo  Mo181  1  0.70237885  0.29942575  0.86321608  1
  Mo  Mo182  1  -0.00523843  0.39544573  0.25609011  1
  Mo  Mo183  1  0.89866628  0.10936149  0.63098460  1
  Mo  Mo184  1  0.30192238  0.70381885  0.37629544  1
  Mo  Mo185  1  0.61885955  0.19376850  0.25125050  1
  Mo  Mo186  1  0.78760432  -0.00524678  -0.01576407  1
  Mo  Mo187  1  0.20194438  0.81239880  0.49164432  1
  Mo  Mo188  1  0.59899339  0.39385103  0.50208074  1
  Mo  Mo189  1  0.40641755  0.59871568  0.48481172  1
  Mo  Mo190  1  0.89847010  0.49387223  0.61700550  1
  Mo  Mo191  1  0.60229417  0.79483625  0.75609777  1
  Mo  Mo192  1  0.49490048  0.28832989  0.37336269  1
  Mo  Mo193  1  0.29549619  0.28686769  0.37201095  1
  Mo  Mo194  1  0.31397489  0.31365395  0.13097597  1
  Mo  Mo195  1  0.49731964  0.49318445  0.88569936  1
  Mo  Mo196  1  0.89577977  0.50256056  0.14035228  1
  Mo  Mo197  1  0.20765101  0.39999865  0.74850763  1
  Mo  Mo198  1  0.80362364  0.39691744  0.00222896  1
  Mo  Mo199  1  0.48729761  0.90636120  0.87472437  1
