# generated using pymatgen
data_HfZrTaTiMo
_symmetry_space_group_name_H-M   'P 1'
_cell_length_a   15.21985947
_cell_length_b   15.21559227
_cell_length_c   16.85644510
_cell_angle_alpha   90.05727907
_cell_angle_beta   89.97567539
_cell_angle_gamma   89.94045948
_symmetry_Int_Tables_number   1
_chemical_formula_structural   HfZrTaTiMo
_chemical_formula_sum   'Hf40 Zr40 Ta40 Ti40 Mo40'
_cell_volume   3903.59725508
_cell_formula_units_Z   40
loop_
 _symmetry_equiv_pos_site_id
 _symmetry_equiv_pos_as_xyz
  1  'x, y, z'
loop_
 _atom_site_type_symbol
 _atom_site_label
 _atom_site_symmetry_multiplicity
 _atom_site_fract_x
 _atom_site_fract_y
 _atom_site_fract_z
 _atom_site_occupancy
  Hf  Hf0  1  0.79409727  0.61546733  0.75588632  1
  Hf  Hf1  1  0.60106941  0.39602900  0.50135052  1
  Hf  Hf2  1  0.38815293  0.40874652  0.74613929  1
  Hf  Hf3  1  0.40249690  0.80147888  0.00032801  1
  Hf  Hf4  1  0.10769982  0.70011530  0.88390068  1
  Hf  Hf5  1  0.31127397  0.69901400  0.86832846  1
  Hf  Hf6  1  0.29798813  0.11312867  0.62239089  1
  Hf  Hf7  1  0.78585723  0.40314711  -0.00913363  1
  Hf  Hf8  1  0.50031898  0.88749336  0.86940866  1
  Hf  Hf9  1  0.18761020  0.61021374  0.50423661  1
  Hf  Hf10  1  0.59401427  0.00502206  -0.00079423  1
  Hf  Hf11  1  0.40863347  -0.00007053  0.49882127  1
  Hf  Hf12  1  0.20851704  0.59428100  0.00031725  1
  Hf  Hf13  1  0.20065777  0.20034439  0.24657230  1
  Hf  Hf14  1  0.01514811  0.19306875  0.49707556  1
  Hf  Hf15  1  0.49282537  0.91515677  0.13137193  1
  Hf  Hf16  1  0.32096377  0.09037987  0.13022410  1
  Hf  Hf17  1  0.11017984  0.70089897  0.12121247  1
  Hf  Hf18  1  0.79806684  0.20607491  0.00588036  1
  Hf  Hf19  1  -0.00137471  0.39412793  -0.00232744  1
  Hf  Hf20  1  0.19571307  0.78829478  0.73814982  1
  Hf  Hf21  1  0.40597946  0.19153390  -0.01460017  1
  Hf  Hf22  1  0.60509903  0.79896503  0.25211887  1
  Hf  Hf23  1  0.50268406  0.49346668  0.37076672  1
  Hf  Hf24  1  0.90279074  0.69968467  0.62011100  1
  Hf  Hf25  1  0.66628350  0.50357164  0.86045202  1
  Hf  Hf26  1  -0.01097801  0.39068392  0.25218274  1
  Hf  Hf27  1  0.90072380  0.50126389  0.62046706  1
  Hf  Hf28  1  0.89700261  0.50369936  0.87116324  1
  Hf  Hf29  1  0.70707920  0.08884997  0.63395965  1
  Hf  Hf30  1  0.69091421  0.29297340  0.63527421  1
  Hf  Hf31  1  0.20983994  -0.00184396  0.74448437  1
  Hf  Hf32  1  0.09530407  0.90310879  0.61948024  1
  Hf  Hf33  1  0.90156940  0.69567291  0.13691161  1
  Hf  Hf34  1  0.89779633  0.71975625  0.87975380  1
  Hf  Hf35  1  0.30027640  0.49680609  0.13954741  1
  Hf  Hf36  1  0.89792260  0.29832512  0.62005624  1
  Hf  Hf37  1  0.77291498  0.60831110  -0.00001815  1
  Hf  Hf38  1  0.49870800  0.70495684  0.37137621  1
  Hf  Hf39  1  0.39667460  0.60364377  0.49876099  1
  Zr  Zr40  1  0.39316208  0.39624784  0.50600564  1
  Zr  Zr41  1  0.80069663  0.22187931  0.24488541  1
  Zr  Zr42  1  0.00259008  0.40115291  0.75472877  1
  Zr  Zr43  1  -0.00579435  0.19746898  0.01331185  1
  Zr  Zr44  1  0.80126477  0.01043070  -0.00337571  1
  Zr  Zr45  1  0.30698208  0.90230138  0.38277229  1
  Zr  Zr46  1  0.60443762  0.20685542  -0.00964505  1
  Zr  Zr47  1  0.90295407  0.09382722  0.36408292  1
  Zr  Zr48  1  0.40832748  0.39669127  -0.00981022  1
  Zr  Zr49  1  0.19892216  -0.00375784  0.24760945  1
  Zr  Zr50  1  0.70255984  0.50100723  0.63078294  1
  Zr  Zr51  1  0.88459198  0.50256037  0.37122404  1
  Zr  Zr52  1  0.30388712  0.30355600  0.12850752  1
  Zr  Zr53  1  0.79541809  0.19097106  0.49812112  1
  Zr  Zr54  1  0.89056697  0.90526823  0.61464965  1
  Zr  Zr55  1  0.10965648  0.29268539  0.62919141  1
  Zr  Zr56  1  0.50440543  0.90055318  0.63572858  1
  Zr  Zr57  1  0.50666663  0.10258149  0.63207611  1
  Zr  Zr58  1  0.70773785  0.89312343  0.87897071  1
  Zr  Zr59  1  0.80324641  0.81003200  0.01815588  1
  Zr  Zr60  1  0.90663825  0.69847352  0.36388057  1
  Zr  Zr61  1  0.88407520  0.08789763  0.14156256  1
  Zr  Zr62  1  0.00890579  0.78281563  0.49538588  1
  Zr  Zr63  1  0.42021427  0.59476545  -0.00191829  1
  Zr  Zr64  1  0.08533522  0.10852027  0.85671923  1
  Zr  Zr65  1  0.39598571  0.19724932  0.75903355  1
  Zr  Zr66  1  0.88575848  0.49223496  0.13198839  1
  Zr  Zr67  1  0.09776908  0.90030251  0.87465641  1
  Zr  Zr68  1  -0.00531090  0.59618418  0.00037604  1
  Zr  Zr69  1  0.50808599  0.08474565  0.36368112  1
  Zr  Zr70  1  0.50547086  0.28213745  0.13063099  1
  Zr  Zr71  1  0.09600794  0.89995290  0.38099748  1
  Zr  Zr72  1  0.49629741  0.50727942  0.63459388  1
  Zr  Zr73  1  0.29182950  0.49893133  0.36795613  1
  Zr  Zr74  1  0.51611876  0.69255279  0.13477848  1
  Zr  Zr75  1  0.30693532  0.70221455  0.13302011  1
  Zr  Zr76  1  0.19693631  0.19120383  0.00529008  1
  Zr  Zr77  1  0.00104272  0.00268209  0.00795739  1
  Zr  Zr78  1  0.10611414  0.49957076  0.62335227  1
  Zr  Zr79  1  0.51171659  0.48582198  0.14006427  1
  Ta  Ta80  1  0.61212859  -0.00340038  0.49656306  1
  Ta  Ta81  1  0.79641166  0.60096293  0.49708934  1
  Ta  Ta82  1  0.30470865  0.90188608  0.61951968  1
  Ta  Ta83  1  0.60879838  -0.00591869  0.75801442  1
  Ta  Ta84  1  0.90331482  0.28577017  0.86870968  1
  Ta  Ta85  1  0.18680149  0.40258398  0.25551575  1
  Ta  Ta86  1  0.80814041  0.19353867  0.75112165  1
  Ta  Ta87  1  0.69844942  0.30670827  0.38019689  1
  Ta  Ta88  1  0.60307745  0.60708408  0.49806197  1
  Ta  Ta89  1  0.30766254  0.69297377  0.62925834  1
  Ta  Ta90  1  0.69924447  0.70722890  0.61781609  1
  Ta  Ta91  1  -0.00199716  0.40158881  0.49335358  1
  Ta  Ta92  1  0.80279176  0.80860791  0.24406886  1
  Ta  Ta93  1  0.40876506  0.20274053  0.26377715  1
  Ta  Ta94  1  0.51355942  0.31598887  0.86047761  1
  Ta  Ta95  1  0.29829570  0.49841613  0.87220039  1
  Ta  Ta96  1  0.00789563  0.19753749  0.23965805  1
  Ta  Ta97  1  0.40180292  0.60154691  0.25725992  1
  Ta  Ta98  1  0.19519950  0.01570302  0.50378684  1
  Ta  Ta99  1  0.19572629  0.79257397  0.25523548  1
  Ta  Ta100  1  0.70146050  0.30097752  0.85720692  1
  Ta  Ta101  1  0.09799662  0.10117448  0.63793314  1
  Ta  Ta102  1  0.59967317  0.80514676  0.49226286  1
  Ta  Ta103  1  0.69612111  0.32485939  0.12714392  1
  Ta  Ta104  1  0.50595788  0.70472855  0.62722784  1
  Ta  Ta105  1  0.89836051  0.30072940  0.38345774  1
  Ta  Ta106  1  0.01167117  0.61309355  0.75279541  1
  Ta  Ta107  1  0.40044999  0.20419140  0.48934129  1
  Ta  Ta108  1  0.39590150  0.00093251  -0.01111030  1
  Ta  Ta109  1  0.69608352  0.90696702  0.36634308  1
  Ta  Ta110  1  0.80069567  0.81171996  0.74869417  1
  Ta  Ta111  1  0.00413134  0.80819057  0.01029723  1
  Ta  Ta112  1  0.29781938  0.89921479  0.87536215  1
  Ta  Ta113  1  0.09010734  0.50595435  0.37959212  1
  Ta  Ta114  1  0.70227232  0.91394547  0.13469406  1
  Ta  Ta115  1  0.91075656  0.09593057  0.63491171  1
  Ta  Ta116  1  0.69801169  0.89531008  0.62548718  1
  Ta  Ta117  1  0.29282778  0.70174170  0.37006928  1
  Ta  Ta118  1  0.09788422  0.30589791  0.12764148  1
  Ta  Ta119  1  -0.00507667  0.80432082  0.74728578  1
  Ti  Ti120  1  0.61073529  0.78698151  0.75243791  1
  Ti  Ti121  1  0.20811134  0.80001713  0.50802099  1
  Ti  Ti122  1  0.40306347  0.79853735  0.50306121  1
  Ti  Ti123  1  0.89374584  0.90053418  0.37212432  1
  Ti  Ti124  1  0.10286440  0.89968339  0.12455402  1
  Ti  Ti125  1  0.79989729  0.39917768  0.75471786  1
  Ti  Ti126  1  0.79637354  -0.00309061  0.49149722  1
  Ti  Ti127  1  0.01965767  0.59758745  0.24934637  1
  Ti  Ti128  1  0.21092419  0.58593931  0.74196127  1
  Ti  Ti129  1  0.39614188  0.81271777  0.25545559  1
  Ti  Ti130  1  -0.00333187  0.00260761  0.49624840  1
  Ti  Ti131  1  0.49594855  0.29197856  0.63187961  1
  Ti  Ti132  1  0.10248550  0.49700305  0.12664409  1
  Ti  Ti133  1  0.29846148  0.10368834  0.37579334  1
  Ti  Ti134  1  0.10200782  0.29828461  0.37513410  1
  Ti  Ti135  1  0.29259184  0.09540328  0.87099712  1
  Ti  Ti136  1  -0.00059627  -0.00597301  0.24265998  1
  Ti  Ti137  1  0.77741495  0.42055961  0.25407976  1
  Ti  Ti138  1  0.00626879  0.80436192  0.24851130  1
  Ti  Ti139  1  0.10509426  0.10268128  0.37210193  1
  Ti  Ti140  1  0.51823597  0.68155075  0.86513293  1
  Ti  Ti141  1  0.78952448  0.80150900  0.48919908  1
  Ti  Ti142  1  0.70517881  0.69241417  0.37092973  1
  Ti  Ti143  1  0.59399802  0.19368145  0.49258855  1
  Ti  Ti144  1  0.50188529  0.09397618  0.86067568  1
  Ti  Ti145  1  0.39855440  0.80247327  0.74608343  1
  Ti  Ti146  1  0.29098948  0.30019280  0.87113517  1
  Ti  Ti147  1  0.29385258  0.30720819  0.62692179  1
  Ti  Ti148  1  0.29398936  0.89365285  0.12291569  1
  Ti  Ti149  1  0.10789593  0.49766247  0.86946120  1
  Ti  Ti150  1  0.30004622  0.30009490  0.37106259  1
  Ti  Ti151  1  0.59704306  0.38720762  0.26389822  1
  Ti  Ti152  1  0.70226538  0.10196885  0.36063292  1
  Ti  Ti153  1  0.19750756  0.39305679  0.49382046  1
  Ti  Ti154  1  0.60848144  0.78107089  0.00598563  1
  Ti  Ti155  1  0.19708691  0.39738542  -0.00248145  1
  Ti  Ti156  1  0.67485571  0.11097061  0.14226156  1
  Ti  Ti157  1  0.20219885  -0.00612529  0.00515685  1
  Ti  Ti158  1  0.70460378  0.10439420  0.86247381  1
  Ti  Ti159  1  0.10590666  0.30085851  0.86557355  1
  Mo  Mo160  1  0.10464783  0.09563837  0.13081768  1
  Mo  Mo161  1  0.80064533  0.39615293  0.49573282  1
  Mo  Mo162  1  0.20359162  0.20699973  0.75435410  1
  Mo  Mo163  1  0.50492035  0.89407283  0.37669444  1
  Mo  Mo164  1  0.59906171  0.40698518  -0.00486067  1
  Mo  Mo165  1  0.20347972  0.81063511  0.00225625  1
  Mo  Mo166  1  0.59619484  0.39294561  0.73875058  1
  Mo  Mo167  1  0.78081969  0.61140975  0.24579814  1
  Mo  Mo168  1  -0.00251317  0.20176335  0.74786795  1
  Mo  Mo169  1  0.90803854  0.89558988  0.13706161  1
  Mo  Mo170  1  -0.00323031  0.59438473  0.49615348  1
  Mo  Mo171  1  0.69523520  0.50285694  0.38395834  1
  Mo  Mo172  1  0.39582029  0.39165682  0.26000765  1
  Mo  Mo173  1  0.79492894  -0.00309230  0.25469582  1
  Mo  Mo174  1  0.89494747  0.30498959  0.12779816  1
  Mo  Mo175  1  0.69958129  0.70223254  0.13381875  1
  Mo  Mo176  1  0.10655500  0.69565534  0.36706550  1
  Mo  Mo177  1  0.60350208  0.19463565  0.75921859  1
  Mo  Mo178  1  0.39688980  -0.00131881  0.25554909  1
  Mo  Mo179  1  -0.00574654  -0.00574858  0.74760591  1
  Mo  Mo180  1  0.48853392  0.50424693  0.85755305  1
  Mo  Mo181  1  0.29249365  0.49766792  0.61837778  1
  Mo  Mo182  1  0.50154701  0.09856057  0.13369887  1
  Mo  Mo183  1  0.59635339  0.61036580  0.73796526  1
  Mo  Mo184  1  0.69202727  0.70735367  0.87385972  1
  Mo  Mo185  1  0.59691750  0.59215169  -0.00139551  1
  Mo  Mo186  1  0.20885533  0.20246207  0.48974964  1
  Mo  Mo187  1  0.60207343  0.00029767  0.24813001  1
  Mo  Mo188  1  0.39571307  0.61218587  0.74779510  1
  Mo  Mo189  1  0.39791194  -0.00803959  0.76270471  1
  Mo  Mo190  1  0.10075458  0.69944849  0.63265677  1
  Mo  Mo191  1  0.80420898  -0.00322519  0.75590438  1
  Mo  Mo192  1  0.89298818  0.09792512  0.86415558  1
  Mo  Mo193  1  0.60608004  0.20643134  0.25909161  1
  Mo  Mo194  1  0.19499747  0.59872979  0.25231670  1
  Mo  Mo195  1  0.61187569  0.58908590  0.26271085  1
  Mo  Mo196  1  0.49873261  0.29255017  0.37629010  1
  Mo  Mo197  1  0.68736520  0.50719884  0.12760006  1
  Mo  Mo198  1  0.20232429  0.39945043  0.75872781  1
  Mo  Mo199  1  0.90833368  0.90686167  0.86922057  1
