# generated using pymatgen
data_HfZrTaTiMo
_symmetry_space_group_name_H-M   'P 1'
_cell_length_a   15.21320109
_cell_length_b   15.21472472
_cell_length_c   16.85174388
_cell_angle_alpha   90.03676336
_cell_angle_beta   90.01176111
_cell_angle_gamma   89.97049428
_symmetry_Int_Tables_number   1
_chemical_formula_structural   HfZrTaTiMo
_chemical_formula_sum   'Hf40 Zr40 Ta40 Ti40 Mo40'
_cell_volume   3900.58187708
_cell_formula_units_Z   40
loop_
 _symmetry_equiv_pos_site_id
 _symmetry_equiv_pos_as_xyz
  1  'x, y, z'
loop_
 _atom_site_type_symbol
 _atom_site_label
 _atom_site_symmetry_multiplicity
 _atom_site_fract_x
 _atom_site_fract_y
 _atom_site_fract_z
 _atom_site_occupancy
  Hf  Hf0  1  0.59190122  0.79451861  -0.01060956  1
  Hf  Hf1  1  0.10909167  0.89168123  0.62278704  1
  Hf  Hf2  1  0.11744428  0.30591210  0.35387690  1
  Hf  Hf3  1  0.00052605  0.78830685  0.50721403  1
  Hf  Hf4  1  0.60269314  0.40517465  -0.01009377  1
  Hf  Hf5  1  0.02369238  0.21665041  0.50566867  1
  Hf  Hf6  1  0.28708455  0.50525117  0.62941918  1
  Hf  Hf7  1  0.71470981  0.10693373  0.87280858  1
  Hf  Hf8  1  0.90271409  0.50446209  0.64037707  1
  Hf  Hf9  1  0.80500758  0.39048898  0.76631471  1
  Hf  Hf10  1  0.80788934  0.59372625  0.50681393  1
  Hf  Hf11  1  0.39503230  0.78475005  0.24551214  1
  Hf  Hf12  1  0.40116248  0.40612277  0.00939787  1
  Hf  Hf13  1  0.10048412  0.51089188  0.35955425  1
  Hf  Hf14  1  0.09689575  0.68800339  0.64445417  1
  Hf  Hf15  1  0.39612848  0.60375504  0.74708337  1
  Hf  Hf16  1  0.49804164  0.90560283  0.63223198  1
  Hf  Hf17  1  0.78794230  0.80120633  0.75030169  1
  Hf  Hf18  1  0.09471716  0.69288326  0.86033642  1
  Hf  Hf19  1  0.90157302  0.09523120  0.13077212  1
  Hf  Hf20  1  0.89035699  0.68119515  0.86005740  1
  Hf  Hf21  1  0.11171495  0.30504979  0.88300987  1
  Hf  Hf22  1  0.28540171  0.49296418  0.87170363  1
  Hf  Hf23  1  0.20057726  0.00266195  0.48478116  1
  Hf  Hf24  1  0.81002133  0.00431879  0.74500793  1
  Hf  Hf25  1  0.30755475  0.89128967  0.59835306  1
  Hf  Hf26  1  0.19043724  0.38831614  0.50387785  1
  Hf  Hf27  1  0.69303446  0.70615383  0.38141951  1
  Hf  Hf28  1  0.18684057  0.59937825  -0.00070555  1
  Hf  Hf29  1  -0.00438666  0.01046701  0.50233858  1
  Hf  Hf30  1  0.32753721  0.09881885  0.60132356  1
  Hf  Hf31  1  0.80477694  0.79335365  -0.00908197  1
  Hf  Hf32  1  0.70650733  0.91063710  0.11470476  1
  Hf  Hf33  1  0.48318235  0.69889101  0.38011553  1
  Hf  Hf34  1  0.60129443  0.01030710  0.00373959  1
  Hf  Hf35  1  0.51143359  0.10719124  0.86848179  1
  Hf  Hf36  1  0.08877879  0.90853489  0.13288205  1
  Hf  Hf37  1  0.09875573  0.10861317  0.36244963  1
  Hf  Hf38  1  0.01052911  0.00662873  0.74556269  1
  Hf  Hf39  1  0.88872257  0.50369126  0.11214246  1
  Zr  Zr40  1  0.69251418  0.69587749  0.11947967  1
  Zr  Zr41  1  0.78731005  0.01543679  0.50436144  1
  Zr  Zr42  1  0.79174603  0.80056568  0.24705665  1
  Zr  Zr43  1  0.30107600  0.88020498  0.38178136  1
  Zr  Zr44  1  0.22842942  -0.00594465  0.74301944  1
  Zr  Zr45  1  0.09681700  0.51228948  0.13277839  1
  Zr  Zr46  1  0.11893707  0.11522055  0.62098294  1
  Zr  Zr47  1  0.38280972  0.80940124  0.75170597  1
  Zr  Zr48  1  0.39782018  0.40016086  0.50658346  1
  Zr  Zr49  1  0.70195668  0.28229443  0.36574554  1
  Zr  Zr50  1  0.53067160  0.10473680  0.62112136  1
  Zr  Zr51  1  0.60091305  0.37753005  0.49941013  1
  Zr  Zr52  1  0.10702887  0.10127495  0.87544270  1
  Zr  Zr53  1  -0.01525562  0.80051800  0.24646776  1
  Zr  Zr54  1  0.20294401  0.39409573  0.01942089  1
  Zr  Zr55  1  0.20799452  0.19456759  0.02559795  1
  Zr  Zr56  1  0.18799262  0.78398558  0.24663020  1
  Zr  Zr57  1  0.50008844  0.88886191  0.13058245  1
  Zr  Zr58  1  0.58144411  0.59630569  0.50329214  1
  Zr  Zr59  1  0.71660561  0.30359610  0.11797590  1
  Zr  Zr60  1  0.79279919  0.00876457  0.25133873  1
  Zr  Zr61  1  0.21131148  0.21461749  0.74767052  1
  Zr  Zr62  1  0.79432959  0.60198887  0.24622359  1
  Zr  Zr63  1  0.89550605  0.90332049  0.38168549  1
  Zr  Zr64  1  0.39646293  0.00031698  0.01303206  1
  Zr  Zr65  1  0.39027127  0.79205891  0.00171890  1
  Zr  Zr66  1  0.38670139  0.38714811  0.74869693  1
  Zr  Zr67  1  0.40696094  0.20143840  0.01676973  1
  Zr  Zr68  1  0.78860607  0.80356679  0.51109474  1
  Zr  Zr69  1  0.30963392  0.10400953  0.87723379  1
  Zr  Zr70  1  0.69962337  0.90330966  0.87639116  1
  Zr  Zr71  1  0.91078702  0.30671727  0.36357702  1
  Zr  Zr72  1  0.42467356  0.19550250  0.24838400  1
  Zr  Zr73  1  0.59794761  0.39916495  0.25138930  1
  Zr  Zr74  1  0.80723719  0.21590644  0.50236107  1
  Zr  Zr75  1  -0.00901487  0.41703157  0.49934093  1
  Zr  Zr76  1  0.19242390  0.80112155  0.00810777  1
  Zr  Zr77  1  0.70146291  0.49557173  0.38299302  1
  Zr  Zr78  1  0.67967688  0.69741389  0.63325321  1
  Zr  Zr79  1  0.69703557  0.48743046  0.63367631  1
  Ta  Ta80  1  0.48842936  0.90932736  0.86748580  1
  Ta  Ta81  1  0.70151252  0.27789271  0.63848730  1
  Ta  Ta82  1  0.43093802  -0.00853360  0.47375772  1
  Ta  Ta83  1  0.21793472  0.20309950  0.23664449  1
  Ta  Ta84  1  0.50621805  0.29671234  0.63031185  1
  Ta  Ta85  1  0.31090323  0.10892641  0.37787183  1
  Ta  Ta86  1  0.59504317  0.39341274  0.75906729  1
  Ta  Ta87  1  0.28472109  0.67977614  0.38074255  1
  Ta  Ta88  1  0.10309631  0.89686674  0.87271240  1
  Ta  Ta89  1  0.19771472  0.00015291  0.01141987  1
  Ta  Ta90  1  0.90921666  0.10192929  0.88092730  1
  Ta  Ta91  1  0.49001395  0.67599441  0.12277001  1
  Ta  Ta92  1  0.58366027  0.60046338  0.25458904  1
  Ta  Ta93  1  0.57866783  0.81753829  0.49843019  1
  Ta  Ta94  1  0.49660835  0.50164701  0.86645309  1
  Ta  Ta95  1  0.00810844  0.20231286  0.01222212  1
  Ta  Ta96  1  0.90055265  0.69232029  0.38053788  1
  Ta  Ta97  1  -0.00656360  0.80747472  0.74994680  1
  Ta  Ta98  1  0.29339421  0.90380407  0.13807360  1
  Ta  Ta99  1  0.51236800  0.30561227  0.12442501  1
  Ta  Ta100  1  0.00221489  -0.00071436  -0.00241455  1
  Ta  Ta101  1  0.80478964  0.40166544  0.24440423  1
  Ta  Ta102  1  0.20449752  0.00059430  0.25962557  1
  Ta  Ta103  1  0.59275136  0.00816411  0.24379019  1
  Ta  Ta104  1  0.90078066  0.11636131  0.63047216  1
  Ta  Ta105  1  0.40350602  -0.00129387  0.26202859  1
  Ta  Ta106  1  0.28882617  0.70005019  0.86833573  1
  Ta  Ta107  1  0.67719068  0.91336108  0.37522858  1
  Ta  Ta108  1  0.69784391  0.29391962  0.87706931  1
  Ta  Ta109  1  -0.00151864  0.21465033  0.74837573  1
  Ta  Ta110  1  0.90089470  0.90143430  0.62483126  1
  Ta  Ta111  1  0.40072806  0.40089837  0.23796528  1
  Ta  Ta112  1  0.18026365  0.59892254  0.50174437  1
  Ta  Ta113  1  0.59082376  0.59754641  -0.01418246  1
  Ta  Ta114  1  0.89972071  0.11314044  0.35892261  1
  Ta  Ta115  1  0.89740140  0.69580578  0.64425583  1
  Ta  Ta116  1  0.91333750  0.30126254  0.12513525  1
  Ta  Ta117  1  0.41055413  0.19489923  0.74459278  1
  Ta  Ta118  1  0.90145351  0.50615588  0.36907423  1
  Ta  Ta119  1  0.48255499  0.49049797  0.37406866  1
  Ti  Ti120  1  0.18643433  0.40311123  0.74815694  1
  Ti  Ti121  1  0.58709576  0.79498546  0.75862761  1
  Ti  Ti122  1  0.21579130  0.40831323  0.23132400  1
  Ti  Ti123  1  0.89951429  0.89771693  0.11376432  1
  Ti  Ti124  1  0.31537648  0.30533298  0.36949422  1
  Ti  Ti125  1  0.79078348  0.59624706  -0.00901171  1
  Ti  Ti126  1  0.48230027  0.70514472  0.62127778  1
  Ti  Ti127  1  0.29264098  0.90136849  0.87943514  1
  Ti  Ti128  1  0.68367380  0.50361324  0.12064474  1
  Ti  Ti129  1  0.28673160  0.68504601  0.12835444  1
  Ti  Ti130  1  0.29765716  0.28787283  0.61269730  1
  Ti  Ti131  1  0.39466004  0.59806484  -0.00440207  1
  Ti  Ti132  1  -0.00010879  0.40500484  0.24096909  1
  Ti  Ti133  1  0.00257859  0.40789520  -0.00300222  1
  Ti  Ti134  1  0.90323500  0.31061918  0.63076329  1
  Ti  Ti135  1  -0.00495634  0.61249491  0.24191386  1
  Ti  Ti136  1  0.29214675  0.49531465  0.37444290  1
  Ti  Ti137  1  0.90820845  0.90287793  0.87853407  1
  Ti  Ti138  1  -0.00046651  0.78969923  -0.00151214  1
  Ti  Ti139  1  0.80768246  0.19283788  0.00346555  1
  Ti  Ti140  1  0.60570833  0.20239143  0.00911592  1
  Ti  Ti141  1  0.59566082  0.79801683  0.25066497  1
  Ti  Ti142  1  0.28344373  0.70443263  0.62079024  1
  Ti  Ti143  1  0.69064040  0.91031270  0.62715450  1
  Ti  Ti144  1  0.09247086  0.70040745  0.37734009  1
  Ti  Ti145  1  0.80333913  0.39962917  -0.01478692  1
  Ti  Ti146  1  0.70137963  0.51146913  0.86232154  1
  Ti  Ti147  1  0.38799125  0.58660689  0.24829292  1
  Ti  Ti148  1  0.50151370  0.50047124  0.63733103  1
  Ti  Ti149  1  0.38504973  0.59825857  0.50579890  1
  Ti  Ti150  1  0.09343212  0.89722920  0.37282955  1
  Ti  Ti151  1  0.60397742  0.00150476  0.75355068  1
  Ti  Ti152  1  0.49355876  0.29871275  0.87580187  1
  Ti  Ti153  1  0.09724685  0.10026134  0.14291899  1
  Ti  Ti154  1  0.49179077  0.69772130  0.87113005  1
  Ti  Ti155  1  0.09267073  0.49878351  0.63460784  1
  Ti  Ti156  1  0.42910260  0.20517021  0.48279127  1
  Ti  Ti157  1  0.00112906  0.40584404  0.76957282  1
  Ti  Ti158  1  0.62130981  0.18830501  0.23589123  1
  Ti  Ti159  1  0.90439034  0.29001468  0.88631315  1
  Mo  Mo160  1  0.19242687  0.78653561  0.49261537  1
  Mo  Mo161  1  0.89682222  0.49097386  0.88837514  1
  Mo  Mo162  1  0.59088673  0.60076942  0.75972404  1
  Mo  Mo163  1  -0.01365767  0.60409551  -0.00187599  1
  Mo  Mo164  1  0.19659167  0.80272562  0.75400189  1
  Mo  Mo165  1  0.09860661  0.30040067  0.13851270  1
  Mo  Mo166  1  0.81596423  0.20353962  0.75522025  1
  Mo  Mo167  1  -0.00133895  0.60413707  0.49994359  1
  Mo  Mo168  1  0.39973187  0.78516835  0.50206413  1
  Mo  Mo169  1  0.80034627  0.39925438  0.50810440  1
  Mo  Mo170  1  0.70549084  0.10067290  0.36907205  1
  Mo  Mo171  1  0.08377196  0.70050118  0.11966540  1
  Mo  Mo172  1  -0.00308896  0.58772018  0.75717202  1
  Mo  Mo173  1  0.30119623  0.08660751  0.14272052  1
  Mo  Mo174  1  0.20045384  0.59415485  0.75227480  1
  Mo  Mo175  1  0.52763797  0.09961277  0.37529087  1
  Mo  Mo176  1  0.31229142  0.51356886  0.12527123  1
  Mo  Mo177  1  0.22452677  0.20496290  0.48633052  1
  Mo  Mo178  1  0.71080323  0.09966452  0.63901594  1
  Mo  Mo179  1  0.00295753  0.00087403  0.25896973  1
  Mo  Mo180  1  0.50227837  0.89280672  0.36067706  1
  Mo  Mo181  1  0.90390688  0.69596139  0.10893374  1
  Mo  Mo182  1  0.70407837  0.10475646  0.11502951  1
  Mo  Mo183  1  0.60761421  -0.00118266  0.49929301  1
  Mo  Mo184  1  0.80837910  0.20815885  0.24163430  1
  Mo  Mo185  1  0.40845969  0.00536472  0.74813370  1
  Mo  Mo186  1  0.20121660  0.59926172  0.25227913  1
  Mo  Mo187  1  0.60710351  0.20961144  0.75790584  1
  Mo  Mo188  1  0.09351130  0.31659968  0.63792663  1
  Mo  Mo189  1  0.30925367  0.30237641  0.13818594  1
  Mo  Mo190  1  0.81541900  0.00225051  -0.00451154  1
  Mo  Mo191  1  0.30724979  0.29720265  0.87471800  1
  Mo  Mo192  1  0.08909137  0.49891198  0.87729693  1
  Mo  Mo193  1  0.50680506  0.50519734  0.12273885  1
  Mo  Mo194  1  0.00708857  0.20529848  0.23809075  1
  Mo  Mo195  1  0.68481089  0.69159442  0.86658711  1
  Mo  Mo196  1  0.51094727  0.09943926  0.12864054  1
  Mo  Mo197  1  0.79157559  0.59430847  0.75238990  1
  Mo  Mo198  1  0.49813056  0.29982954  0.36950088  1
  Mo  Mo199  1  0.61064028  0.18576371  0.49575499  1
