# generated using pymatgen
data_HfZrTaTiMo
_symmetry_space_group_name_H-M   'P 1'
_cell_length_a   15.22070215
_cell_length_b   15.20914105
_cell_length_c   16.85517374
_cell_angle_alpha   89.96730193
_cell_angle_beta   90.04342880
_cell_angle_gamma   89.90897381
_symmetry_Int_Tables_number   1
_chemical_formula_structural   HfZrTaTiMo
_chemical_formula_sum   'Hf40 Zr40 Ta40 Ti40 Mo40'
_cell_volume   3901.86163551
_cell_formula_units_Z   40
loop_
 _symmetry_equiv_pos_site_id
 _symmetry_equiv_pos_as_xyz
  1  'x, y, z'
loop_
 _atom_site_type_symbol
 _atom_site_label
 _atom_site_symmetry_multiplicity
 _atom_site_fract_x
 _atom_site_fract_y
 _atom_site_fract_z
 _atom_site_occupancy
  Hf  Hf0  1  0.20010563  0.22418459  0.00256110  1
  Hf  Hf1  1  0.69833905  0.68435422  0.88446053  1
  Hf  Hf2  1  0.39923225  0.20454334  0.50757059  1
  Hf  Hf3  1  -0.00159104  0.40853150  0.74912107  1
  Hf  Hf4  1  0.19528701  0.19400113  0.24758423  1
  Hf  Hf5  1  0.90560524  0.90845755  0.61073020  1
  Hf  Hf6  1  0.90629547  0.29911533  0.11924599  1
  Hf  Hf7  1  0.50966109  0.10248994  0.62392465  1
  Hf  Hf8  1  0.79979778  0.39467574  0.76521621  1
  Hf  Hf9  1  0.50513003  0.89296964  0.87924650  1
  Hf  Hf10  1  -0.00525873  0.81044479  0.74592066  1
  Hf  Hf11  1  0.79599797  0.00760883  0.75365891  1
  Hf  Hf12  1  0.30413817  0.31450281  0.37684383  1
  Hf  Hf13  1  0.19618906  0.00011306  0.00020475  1
  Hf  Hf14  1  0.11764583  0.32445176  0.86920634  1
  Hf  Hf15  1  0.09708093  0.51198627  0.36543053  1
  Hf  Hf16  1  0.03142650  -0.00228931  0.25856458  1
  Hf  Hf17  1  0.90906233  0.89600715  0.14034596  1
  Hf  Hf18  1  0.11454697  0.89920001  0.62573768  1
  Hf  Hf19  1  0.49328879  0.89683562  0.62371444  1
  Hf  Hf20  1  0.60263975  0.78978663  0.00911002  1
  Hf  Hf21  1  0.48855235  0.68544515  0.63483543  1
  Hf  Hf22  1  0.61937023  0.18939629  0.76011349  1
  Hf  Hf23  1  0.79834043  0.00099314  0.47454031  1
  Hf  Hf24  1  0.79294390  0.21941411  0.47751309  1
  Hf  Hf25  1  0.08772865  0.11688144  0.87842530  1
  Hf  Hf26  1  0.41268407  0.21397724  0.74837478  1
  Hf  Hf27  1  0.89384470  0.50467555  0.36460506  1
  Hf  Hf28  1  0.60116853  0.18524806  -0.00383668  1
  Hf  Hf29  1  0.90913425  0.10541917  0.36505679  1
  Hf  Hf30  1  0.19324009  0.59119048  -0.00928638  1
  Hf  Hf31  1  0.39714415  -0.00443084  0.49268612  1
  Hf  Hf32  1  0.60590518  0.78549989  0.74956554  1
  Hf  Hf33  1  0.51593818  0.32024162  0.61280601  1
  Hf  Hf34  1  0.60123240  -0.01101929  0.75155452  1
  Hf  Hf35  1  0.49875927  0.89320243  0.13243008  1
  Hf  Hf36  1  0.09495417  0.51110384  0.13373621  1
  Hf  Hf37  1  0.11067856  0.69876186  0.62373190  1
  Hf  Hf38  1  0.71270239  0.28344075  0.88812336  1
  Hf  Hf39  1  0.69854175  0.29621877  0.11326070  1
  Zr  Zr40  1  -0.00013723  0.60585619  0.74891400  1
  Zr  Zr41  1  0.20610788  0.20775107  0.74842812  1
  Zr  Zr42  1  -0.00599324  0.40220576  0.50991758  1
  Zr  Zr43  1  0.20220166  0.79236846  0.00184173  1
  Zr  Zr44  1  0.67403114  0.50013818  0.10200543  1
  Zr  Zr45  1  0.88783346  0.11548329  0.61835669  1
  Zr  Zr46  1  0.30088542  0.08635283  0.62868695  1
  Zr  Zr47  1  0.38482530  -0.00732297  0.24693384  1
  Zr  Zr48  1  0.29866109  0.10304256  0.11811937  1
  Zr  Zr49  1  0.29685283  0.50743096  0.35714100  1
  Zr  Zr50  1  0.29745229  0.71462978  0.35713378  1
  Zr  Zr51  1  0.47834055  0.49671357  0.86651915  1
  Zr  Zr52  1  0.59229316  0.57149111  0.50440606  1
  Zr  Zr53  1  0.79220729  -0.00160857  0.00330971  1
  Zr  Zr54  1  0.70851553  0.88681434  0.61229860  1
  Zr  Zr55  1  0.49775806  0.48731795  0.36652187  1
  Zr  Zr56  1  0.50814602  0.30394203  0.38253590  1
  Zr  Zr57  1  0.20425173  -0.00588050  0.76454010  1
  Zr  Zr58  1  -0.00391470  0.60317681  0.50557131  1
  Zr  Zr59  1  0.10330829  0.30982260  0.37809687  1
  Zr  Zr60  1  0.39314373  0.60121813  0.50064884  1
  Zr  Zr61  1  0.89625696  0.71306730  0.87414844  1
  Zr  Zr62  1  0.20111759  0.20879420  0.50965264  1
  Zr  Zr63  1  0.60057552  -0.00831457  0.48123020  1
  Zr  Zr64  1  0.09277077  0.09811281  0.63050232  1
  Zr  Zr65  1  0.68990550  0.48547812  0.62947032  1
  Zr  Zr66  1  0.59964402  -0.00513340  0.26639735  1
  Zr  Zr67  1  0.60589825  0.77282553  0.24880063  1
  Zr  Zr68  1  0.69887455  0.09208307  0.13749649  1
  Zr  Zr69  1  0.40323268  0.21048966  0.24575371  1
  Zr  Zr70  1  0.72086038  0.28532257  0.62953949  1
  Zr  Zr71  1  0.60057214  0.77681482  0.49351944  1
  Zr  Zr72  1  -0.00142630  0.20237594  0.49657233  1
  Zr  Zr73  1  0.40493585  0.00375954  -0.00010754  1
  Zr  Zr74  1  0.39390440  0.59857395  0.00352284  1
  Zr  Zr75  1  0.20572248  0.77701814  0.76875707  1
  Zr  Zr76  1  0.01943959  0.40742525  0.00251833  1
  Zr  Zr77  1  0.88719356  0.51253431  0.12118842  1
  Zr  Zr78  1  0.09037143  0.89961418  0.87615450  1
  Zr  Zr79  1  0.90097923  0.10017838  0.13518090  1
  Ta  Ta80  1  0.80857809  0.78730368  0.25862847  1
  Ta  Ta81  1  0.88903828  0.70646644  0.61904630  1
  Ta  Ta82  1  0.20074056  0.82685369  0.23049670  1
  Ta  Ta83  1  0.79244255  0.59703184  0.49546297  1
  Ta  Ta84  1  0.80082386  0.40209177  -0.00720889  1
  Ta  Ta85  1  0.50381048  0.10783315  0.12854487  1
  Ta  Ta86  1  0.11835465  0.49742416  0.62626639  1
  Ta  Ta87  1  0.01374743  0.80085293  0.48863390  1
  Ta  Ta88  1  0.29171246  0.10308667  0.37618488  1
  Ta  Ta89  1  0.40708587  0.21431781  -0.00237935  1
  Ta  Ta90  1  0.49200883  0.09988521  0.37213813  1
  Ta  Ta91  1  -0.01114479  0.01333634  0.75478428  1
  Ta  Ta92  1  0.79398296  0.60040659  0.74879534  1
  Ta  Ta93  1  -0.00497507  0.00586424  0.00321798  1
  Ta  Ta94  1  0.50018893  0.68999459  0.36845142  1
  Ta  Ta95  1  0.80572967  0.79628885  0.00908321  1
  Ta  Ta96  1  0.79684292  0.20588764  0.25844369  1
  Ta  Ta97  1  0.19650708  0.39633316  0.23775568  1
  Ta  Ta98  1  0.89126440  0.50823910  0.88299554  1
  Ta  Ta99  1  0.30045684  0.50575791  0.13891862  1
  Ta  Ta100  1  -0.00148337  0.80781861  0.00477370  1
  Ta  Ta101  1  0.20333095  0.60780475  0.49748173  1
  Ta  Ta102  1  0.39958490  0.00085505  0.75946025  1
  Ta  Ta103  1  0.58956368  0.38661879  0.76737685  1
  Ta  Ta104  1  0.39611623  0.80214622  0.75202189  1
  Ta  Ta105  1  0.48263383  0.87717989  0.36762593  1
  Ta  Ta106  1  0.78255235  0.40362791  0.24052019  1
  Ta  Ta107  1  0.40042172  0.79467368  0.00717336  1
  Ta  Ta108  1  0.01237808  -0.00302801  0.48096070  1
  Ta  Ta109  1  0.91172821  0.89022818  0.36936179  1
  Ta  Ta110  1  0.38377932  0.79766246  0.50387231  1
  Ta  Ta111  1  0.70888900  0.88617865  0.13826039  1
  Ta  Ta112  1  0.80065630  -0.00927067  0.26724164  1
  Ta  Ta113  1  0.88665818  0.11382181  0.88340391  1
  Ta  Ta114  1  0.20109036  -0.00972825  0.49521769  1
  Ta  Ta115  1  0.70740518  0.88838330  0.87873438  1
  Ta  Ta116  1  0.50008738  0.10114616  0.87393454  1
  Ta  Ta117  1  0.89571763  0.31677017  0.36111624  1
  Ta  Ta118  1  0.01563323  0.78852885  0.25859149  1
  Ta  Ta119  1  0.00572247  0.21011134  0.25271866  1
  Ti  Ti120  1  0.60651574  0.18994821  0.48699389  1
  Ti  Ti121  1  0.41060253  0.60184558  0.24068028  1
  Ti  Ti122  1  0.71172520  0.68768259  0.11548483  1
  Ti  Ti123  1  0.60153056  -0.00971250  0.00371567  1
  Ti  Ti124  1  0.18264186  0.62225945  0.24564558  1
  Ti  Ti125  1  0.09810709  0.30681469  0.63248255  1
  Ti  Ti126  1  0.70343157  0.68762555  0.62547373  1
  Ti  Ti127  1  0.60252444  0.20706697  0.25408621  1
  Ti  Ti128  1  0.39105151  0.40321395  0.00466923  1
  Ti  Ti129  1  0.89523431  0.91097947  0.87802666  1
  Ti  Ti130  1  0.59563246  0.58589424  0.75202491  1
  Ti  Ti131  1  0.70022380  0.87433133  0.36993969  1
  Ti  Ti132  1  0.90132181  0.69924097  0.12957450  1
  Ti  Ti133  1  0.70107995  0.09012965  0.61522967  1
  Ti  Ti134  1  0.30210379  0.52391421  0.64569350  1
  Ti  Ti135  1  0.60521210  0.57745046  0.24991638  1
  Ti  Ti136  1  0.79900728  0.80084468  0.74607963  1
  Ti  Ti137  1  0.30477321  0.70622437  0.13653789  1
  Ti  Ti138  1  0.68770501  0.49479173  0.89058126  1
  Ti  Ti139  1  0.91389454  0.29739100  0.89049934  1
  Ti  Ti140  1  0.30131957  0.31103092  0.12528255  1
  Ti  Ti141  1  0.39046982  0.41615127  0.51315738  1
  Ti  Ti142  1  0.29414484  0.32825911  0.63086132  1
  Ti  Ti143  1  0.80799019  0.78786420  0.48462443  1
  Ti  Ti144  1  0.90717375  0.69380941  0.37192360  1
  Ti  Ti145  1  0.30403846  0.11283725  0.87846383  1
  Ti  Ti146  1  0.88851960  0.50068980  0.62508665  1
  Ti  Ti147  1  -0.01675948  0.21119588  0.74830091  1
  Ti  Ti148  1  0.69930380  0.48267931  0.37427508  1
  Ti  Ti149  1  0.49471781  0.69569378  0.87351948  1
  Ti  Ti150  1  -0.00254914  0.40286430  0.24163020  1
  Ti  Ti151  1  0.50439794  0.31473725  0.12131392  1
  Ti  Ti152  1  0.28905381  0.90356219  0.36982016  1
  Ti  Ti153  1  -0.00430149  0.61375462  -0.00796898  1
  Ti  Ti154  1  0.30898919  0.89443428  0.88282594  1
  Ti  Ti155  1  0.79013728  0.60411231  0.25323780  1
  Ti  Ti156  1  0.09272322  0.11090345  0.11663367  1
  Ti  Ti157  1  0.50909423  0.67905123  0.12386967  1
  Ti  Ti158  1  0.31491041  0.31929973  0.87050549  1
  Ti  Ti159  1  0.09032978  0.71070673  0.12290524  1
  Mo  Mo160  1  0.20210018  0.40753205  0.74636710  1
  Mo  Mo161  1  0.63106109  0.37803353  0.49270433  1
  Mo  Mo162  1  0.48934686  0.49242743  0.12774455  1
  Mo  Mo163  1  0.10243080  0.70405255  0.37404070  1
  Mo  Mo164  1  0.00345737  0.20025147  -0.00142861  1
  Mo  Mo165  1  0.09038295  0.50824068  0.87470467  1
  Mo  Mo166  1  0.39685812  0.40179283  0.74270418  1
  Mo  Mo167  1  0.30036446  0.89437172  0.11580258  1
  Mo  Mo168  1  0.11274593  0.09800479  0.37884063  1
  Mo  Mo169  1  0.20424350  0.79948631  0.49711619  1
  Mo  Mo170  1  0.40096966  0.78927658  0.23964400  1
  Mo  Mo171  1  0.09700237  0.90522600  0.11659628  1
  Mo  Mo172  1  0.80239769  0.41066779  0.49554463  1
  Mo  Mo173  1  0.80135705  0.60132650  -0.00046431  1
  Mo  Mo174  1  0.58892535  0.59819351  -0.00533919  1
  Mo  Mo175  1  0.21004349  0.42199410  0.51019155  1
  Mo  Mo176  1  0.28183402  0.49024083  0.86666708  1
  Mo  Mo177  1  0.58174042  0.38981800  -0.01566793  1
  Mo  Mo178  1  0.11569895  0.89027914  0.37607806  1
  Mo  Mo179  1  0.70114029  0.30572179  0.36215837  1
  Mo  Mo180  1  0.80956834  0.20004456  0.00388260  1
  Mo  Mo181  1  0.81378150  0.19746395  0.75880544  1
  Mo  Mo182  1  0.70953799  0.67762359  0.37364250  1
  Mo  Mo183  1  0.48636847  0.49723442  0.65223327  1
  Mo  Mo184  1  0.19362017  0.59184297  0.76781658  1
  Mo  Mo185  1  0.60004221  0.39349887  0.24125816  1
  Mo  Mo186  1  0.31042631  0.69733322  0.88075277  1
  Mo  Mo187  1  0.69756561  0.08004522  0.88120235  1
  Mo  Mo188  1  0.69459643  0.10233758  0.36189914  1
  Mo  Mo189  1  0.29422017  0.70667548  0.62752719  1
  Mo  Mo190  1  0.09106331  0.69745446  0.88362954  1
  Mo  Mo191  1  0.38338658  0.61452220  0.76137451  1
  Mo  Mo192  1  0.49948291  0.29681849  0.88080632  1
  Mo  Mo193  1  0.39935863  0.40277928  0.23659561  1
  Mo  Mo194  1  -0.00943304  0.61237751  0.24716308  1
  Mo  Mo195  1  0.21574851  0.41031126  0.01229342  1
  Mo  Mo196  1  0.30356414  0.88820285  0.62952742  1
  Mo  Mo197  1  0.20391227  0.00497086  0.24450593  1
  Mo  Mo198  1  0.90318010  0.31194700  0.62882243  1
  Mo  Mo199  1  0.10314271  0.30162672  0.13168626  1
