# generated using pymatgen
data_HfZrTaTiMo
_symmetry_space_group_name_H-M   'P 1'
_cell_length_a   15.16755889
_cell_length_b   15.17934386
_cell_length_c   16.81869462
_cell_angle_alpha   90.01473064
_cell_angle_beta   89.98586601
_cell_angle_gamma   90.07946172
_symmetry_Int_Tables_number   1
_chemical_formula_structural   HfZrTaTiMo
_chemical_formula_sum   'Hf40 Zr40 Ta40 Ti40 Mo40'
_cell_volume   3872.22450381
_cell_formula_units_Z   40
loop_
 _symmetry_equiv_pos_site_id
 _symmetry_equiv_pos_as_xyz
  1  'x, y, z'
loop_
 _atom_site_type_symbol
 _atom_site_label
 _atom_site_symmetry_multiplicity
 _atom_site_fract_x
 _atom_site_fract_y
 _atom_site_fract_z
 _atom_site_occupancy
  Hf  Hf0  1  0.19432225  0.21166946  0.26232989  1
  Hf  Hf1  1  0.00052274  0.79065667  0.24928717  1
  Hf  Hf2  1  0.91407222  0.50992656  0.12654611  1
  Hf  Hf3  1  0.69619731  0.70873727  0.62445729  1
  Hf  Hf4  1  0.49719829  0.30474740  0.38016453  1
  Hf  Hf5  1  0.49597158  0.10217684  0.62192088  1
  Hf  Hf6  1  0.89715686  0.90507214  0.86738409  1
  Hf  Hf7  1  0.30059861  0.48977130  0.37211257  1
  Hf  Hf8  1  0.30119700  0.09420337  0.61310397  1
  Hf  Hf9  1  0.39404159  0.59969306  0.23917798  1
  Hf  Hf10  1  0.60763147  0.80317569  0.76095522  1
  Hf  Hf11  1  0.70126454  0.49953077  0.87210415  1
  Hf  Hf12  1  0.89470460  0.69590681  0.37359983  1
  Hf  Hf13  1  -0.01325987  0.19406007  0.25183987  1
  Hf  Hf14  1  0.09250757  0.89822949  0.87015941  1
  Hf  Hf15  1  0.50418705  0.68765243  0.89591361  1
  Hf  Hf16  1  0.89989594  0.70073313  0.63419888  1
  Hf  Hf17  1  0.20625780  0.40014996  0.75108300  1
  Hf  Hf18  1  0.01371403  0.61365214  0.51076849  1
  Hf  Hf19  1  0.79190172  0.20038473  0.24020347  1
  Hf  Hf20  1  -0.00280598  0.20203223  -0.00391252  1
  Hf  Hf21  1  0.89665159  0.48386301  0.64672760  1
  Hf  Hf22  1  0.20340073  0.01544463  0.00227803  1
  Hf  Hf23  1  0.10539200  0.53157269  0.36940281  1
  Hf  Hf24  1  0.78924056  0.00082180  0.73641294  1
  Hf  Hf25  1  0.70777817  0.91693916  0.37787153  1
  Hf  Hf26  1  0.68644466  0.11596017  0.11253957  1
  Hf  Hf27  1  0.58547293  0.59853554  0.74964305  1
  Hf  Hf28  1  0.30869398  0.89283349  0.37300635  1
  Hf  Hf29  1  0.09178225  0.09865936  0.12907934  1
  Hf  Hf30  1  0.80198039  0.20740420  0.75194347  1
  Hf  Hf31  1  0.59707990  0.60681355  0.49510428  1
  Hf  Hf32  1  0.69051761  0.08630442  0.88331294  1
  Hf  Hf33  1  0.30360967  0.50814104  0.88697029  1
  Hf  Hf34  1  0.00891805  0.40385913  0.24993681  1
  Hf  Hf35  1  0.89513091  0.10232820  0.87782191  1
  Hf  Hf36  1  0.61910964  0.18901183  0.49888564  1
  Hf  Hf37  1  0.10497789  0.69939290  0.87873826  1
  Hf  Hf38  1  0.20656225  0.19570833  0.74202165  1
  Hf  Hf39  1  0.62014121  0.80760665  -0.00384761  1
  Zr  Zr40  1  0.80102271  0.40708574  0.24477303  1
  Zr  Zr41  1  0.08924304  0.49030842  0.87149811  1
  Zr  Zr42  1  0.19505671  0.80857872  0.00529854  1
  Zr  Zr43  1  0.29520711  0.09295436  0.38338994  1
  Zr  Zr44  1  0.39810710  0.77572686  0.75111163  1
  Zr  Zr45  1  0.50281178  0.07738975  0.38321269  1
  Zr  Zr46  1  0.71282944  0.30398157  0.38194895  1
  Zr  Zr47  1  0.80007082  0.60462948  -0.01087957  1
  Zr  Zr48  1  0.19195443  -0.01186665  0.50806297  1
  Zr  Zr49  1  0.50484028  0.28007115  0.12851503  1
  Zr  Zr50  1  0.87172898  0.09496820  0.38373980  1
  Zr  Zr51  1  0.59857607  0.79700507  0.25434980  1
  Zr  Zr52  1  0.09628579  0.30677145  0.11694967  1
  Zr  Zr53  1  0.09699150  0.09574830  0.87184177  1
  Zr  Zr54  1  0.09922863  0.89492660  0.13642858  1
  Zr  Zr55  1  0.30855264  0.90861371  0.14018002  1
  Zr  Zr56  1  0.41648246  0.39345946  0.76271614  1
  Zr  Zr57  1  0.61573367  0.41132206  0.50131853  1
  Zr  Zr58  1  0.60049319  0.20944813  0.74460609  1
  Zr  Zr59  1  -0.00667889  0.20570885  0.50204242  1
  Zr  Zr60  1  -0.01021386  -0.00454800  0.51186926  1
  Zr  Zr61  1  -0.00541917  0.41412574  0.50114366  1
  Zr  Zr62  1  0.59695420  0.19555026  0.25966155  1
  Zr  Zr63  1  0.79684799  0.80886284  0.24250186  1
  Zr  Zr64  1  0.10205229  0.89365538  0.36714936  1
  Zr  Zr65  1  0.40270917  0.38667965  -0.00270008  1
  Zr  Zr66  1  0.80108599  0.58764391  0.50390914  1
  Zr  Zr67  1  0.50054383  0.88914157  0.61415539  1
  Zr  Zr68  1  0.50083551  0.50141558  0.36987459  1
  Zr  Zr69  1  0.28374860  0.68810623  0.37461434  1
  Zr  Zr70  1  0.38729855  -0.01314020  0.74277876  1
  Zr  Zr71  1  0.50063551  0.90782224  0.87628225  1
  Zr  Zr72  1  0.38944892  0.18077764  -0.00104638  1
  Zr  Zr73  1  0.50368477  0.50562002  0.11673202  1
  Zr  Zr74  1  0.48392184  0.11151526  0.85814507  1
  Zr  Zr75  1  0.81873314  0.80853786  0.00675476  1
  Zr  Zr76  1  0.62155169  0.39157454  0.00865714  1
  Zr  Zr77  1  0.31567582  0.30759721  0.61838154  1
  Zr  Zr78  1  0.29409107  0.29895108  0.12316828  1
  Zr  Zr79  1  0.10764594  0.31654320  0.38179456  1
  Ta  Ta80  1  0.50488075  0.70271978  0.11356846  1
  Ta  Ta81  1  0.89551295  0.89169595  0.63058681  1
  Ta  Ta82  1  0.08652075  0.09621534  0.37440110  1
  Ta  Ta83  1  0.40530507  0.80851164  0.00721943  1
  Ta  Ta84  1  0.39237254  0.19171499  0.26148245  1
  Ta  Ta85  1  0.11019968  0.51030006  0.63756023  1
  Ta  Ta86  1  0.30386340  0.70071979  0.89438571  1
  Ta  Ta87  1  0.69976443  0.69277154  0.12485370  1
  Ta  Ta88  1  0.72656433  0.30746258  0.61722237  1
  Ta  Ta89  1  -0.00473202  0.00481982  0.73239024  1
  Ta  Ta90  1  0.19585709  0.20692873  0.50114541  1
  Ta  Ta91  1  0.60410109  0.40251638  0.24237159  1
  Ta  Ta92  1  0.48786210  0.49603221  0.62167669  1
  Ta  Ta93  1  0.29996800  0.69571501  0.11205061  1
  Ta  Ta94  1  0.00412204  0.60248159  0.75186815  1
  Ta  Ta95  1  0.79410640  0.60528424  0.75976746  1
  Ta  Ta96  1  0.20852936  0.42143105  0.51283870  1
  Ta  Ta97  1  0.40346747  0.19894650  0.49369601  1
  Ta  Ta98  1  -0.01072613  -0.01666282  0.00891318  1
  Ta  Ta99  1  0.18905182  -0.01096374  0.73401730  1
  Ta  Ta100  1  0.48945900  0.68824376  0.61724361  1
  Ta  Ta101  1  0.48975932  0.70186973  0.37755817  1
  Ta  Ta102  1  0.18688746  0.78217586  0.50613993  1
  Ta  Ta103  1  0.89200350  0.30004417  0.11559792  1
  Ta  Ta104  1  0.39920976  0.39111582  0.24249365  1
  Ta  Ta105  1  0.40614247  0.79771873  0.24333074  1
  Ta  Ta106  1  0.60346644  -0.00225338  0.73672410  1
  Ta  Ta107  1  0.09629946  0.67832382  0.11726589  1
  Ta  Ta108  1  0.20324113  0.80047727  0.75046748  1
  Ta  Ta109  1  0.00201578  0.20683701  0.74445742  1
  Ta  Ta110  1  0.90968484  0.70334978  0.86669940  1
  Ta  Ta111  1  0.09914579  0.30906595  0.62371278  1
  Ta  Ta112  1  0.29494290  0.10285620  0.13975119  1
  Ta  Ta113  1  0.90876241  0.32172206  0.86901058  1
  Ta  Ta114  1  0.21528674  0.60732571  0.75443722  1
  Ta  Ta115  1  0.50606187  0.49727549  0.89133626  1
  Ta  Ta116  1  0.79471555  0.00077049  0.01617095  1
  Ta  Ta117  1  0.39401595  0.78732492  0.50079986  1
  Ta  Ta118  1  0.60524764  -0.00746795  0.23848421  1
  Ta  Ta119  1  0.51127806  0.30418572  0.61244729  1
  Ti  Ti120  1  0.60446884  0.79710701  0.48946450  1
  Ti  Ti121  1  0.90085128  0.50359993  0.36502005  1
  Ti  Ti122  1  0.10146813  0.71107549  0.64080544  1
  Ti  Ti123  1  0.20368075  0.77664068  0.24427851  1
  Ti  Ti124  1  0.88614439  0.11266611  0.61966357  1
  Ti  Ti125  1  0.70755012  0.50780176  0.12691917  1
  Ti  Ti126  1  0.79933626  0.80883717  0.49844854  1
  Ti  Ti127  1  -0.00104416  0.80451721  0.50011428  1
  Ti  Ti128  1  0.29619411  0.68214894  0.62224555  1
  Ti  Ti129  1  0.79258498  0.21221553  -0.00189330  1
  Ti  Ti130  1  0.30533515  0.28554922  0.87480341  1
  Ti  Ti131  1  0.38646391  0.58575421  0.50101767  1
  Ti  Ti132  1  0.80688959  0.00684884  0.22685199  1
  Ti  Ti133  1  0.60969058  0.39860039  0.74586111  1
  Ti  Ti134  1  0.29458912  0.89740034  0.87499437  1
  Ti  Ti135  1  0.69933542  0.50112863  0.63441465  1
  Ti  Ti136  1  0.18969852  0.39694739  -0.00540559  1
  Ti  Ti137  1  0.58904155  -0.00298316  0.01340344  1
  Ti  Ti138  1  0.81802530  0.40509485  -0.00330066  1
  Ti  Ti139  1  0.49867358  0.89440568  0.38283597  1
  Ti  Ti140  1  0.70141753  0.30045437  0.87319274  1
  Ti  Ti141  1  0.90417131  0.90595347  0.37307774  1
  Ti  Ti142  1  0.61472227  -0.00700944  0.51283105  1
  Ti  Ti143  1  0.48181761  0.08091697  0.13714091  1
  Ti  Ti144  1  0.29363097  0.88217021  0.61718462  1
  Ti  Ti145  1  0.58814853  0.20193658  -0.01199115  1
  Ti  Ti146  1  0.89963071  0.30507130  0.37794274  1
  Ti  Ti147  1  0.09512392  0.10420016  0.62278903  1
  Ti  Ti148  1  0.79646819  0.80252218  0.75718067  1
  Ti  Ti149  1  0.71148524  0.51517190  0.36494434  1
  Ti  Ti150  1  0.19559978  0.00647401  0.25663624  1
  Ti  Ti151  1  -0.00044662  0.59328608  -0.00893595  1
  Ti  Ti152  1  0.30370848  0.30338001  0.38585043  1
  Ti  Ti153  1  0.39735457  -0.00618276  0.00110026  1
  Ti  Ti154  1  0.20564831  0.41678034  0.24007870  1
  Ti  Ti155  1  0.10493224  0.29324157  0.87587275  1
  Ti  Ti156  1  0.28696611  0.50547287  0.11029013  1
  Ti  Ti157  1  0.60767886  0.60550593  0.25520584  1
  Ti  Ti158  1  0.29097023  0.09267970  0.86353507  1
  Ti  Ti159  1  0.90240939  0.69972040  0.12690587  1
  Mo  Mo160  1  0.79072027  0.00097040  0.51999405  1
  Mo  Mo161  1  0.70804251  0.70662135  0.86953955  1
  Mo  Mo162  1  0.60874251  0.60164649  0.00342977  1
  Mo  Mo163  1  0.79308610  0.39860713  0.75626349  1
  Mo  Mo164  1  0.51049301  0.30691242  0.87515626  1
  Mo  Mo165  1  0.39695479  0.20197055  0.74682040  1
  Mo  Mo166  1  0.70347317  0.30764347  0.12192245  1
  Mo  Mo167  1  0.09386832  0.89046739  0.63112394  1
  Mo  Mo168  1  0.19930004  0.60243213  0.51309197  1
  Mo  Mo169  1  0.90166068  0.50539399  0.86156810  1
  Mo  Mo170  1  0.70300196  0.89313439  0.61716573  1
  Mo  Mo171  1  0.10571892  0.49989841  0.11548137  1
  Mo  Mo172  1  -0.00943306  0.00098982  0.25214270  1
  Mo  Mo173  1  0.90719916  0.90872981  0.13087789  1
  Mo  Mo174  1  0.69637898  0.70301794  0.38033525  1
  Mo  Mo175  1  0.90856992  0.29910986  0.63292832  1
  Mo  Mo176  1  0.19728707  0.59503771  -0.00126422  1
  Mo  Mo177  1  0.69854478  0.90552180  0.12620961  1
  Mo  Mo178  1  0.50388238  0.89798818  0.12192178  1
  Mo  Mo179  1  0.40702916  -0.00566069  0.25289140  1
  Mo  Mo180  1  0.09457075  0.70687093  0.37562349  1
  Mo  Mo181  1  0.70515826  0.91119444  0.87597435  1
  Mo  Mo182  1  0.00776838  0.39335482  0.74549113  1
  Mo  Mo183  1  0.69825450  0.09071133  0.37043318  1
  Mo  Mo184  1  0.40026643  0.60145007  0.01156211  1
  Mo  Mo185  1  -0.00720567  0.40106672  -0.00186980  1
  Mo  Mo186  1  -0.00392280  0.78918715  0.00619506  1
  Mo  Mo187  1  0.79554708  0.60929270  0.24756776  1
  Mo  Mo188  1  0.19621944  0.59988193  0.23505356  1
  Mo  Mo189  1  0.39925793  0.59665725  0.75435682  1
  Mo  Mo190  1  0.81175956  0.40463553  0.49619669  1
  Mo  Mo191  1  0.30819852  0.50782199  0.63418345  1
  Mo  Mo192  1  0.40352032  -0.01635429  0.50708009  1
  Mo  Mo193  1  0.69909194  0.10270365  0.62619950  1
  Mo  Mo194  1  0.40311383  0.39827499  0.50170238  1
  Mo  Mo195  1  -0.00476266  0.60180324  0.24626692  1
  Mo  Mo196  1  0.89616748  0.10528459  0.11188116  1
  Mo  Mo197  1  0.80386903  0.20506500  0.50644515  1
  Mo  Mo198  1  0.00057087  0.80305667  0.74770643  1
  Mo  Mo199  1  0.20287295  0.20428006  -0.00934606  1
