# generated using pymatgen
data_HfZrTaTiMo
_symmetry_space_group_name_H-M   'P 1'
_cell_length_a   15.19876697
_cell_length_b   15.18088719
_cell_length_c   16.79917547
_cell_angle_alpha   89.95028394
_cell_angle_beta   90.04359169
_cell_angle_gamma   90.03311095
_symmetry_Int_Tables_number   1
_chemical_formula_structural   HfZrTaTiMo
_chemical_formula_sum   'Hf40 Zr40 Ta40 Ti40 Mo40'
_cell_volume   3876.08341149
_cell_formula_units_Z   40
loop_
 _symmetry_equiv_pos_site_id
 _symmetry_equiv_pos_as_xyz
  1  'x, y, z'
loop_
 _atom_site_type_symbol
 _atom_site_label
 _atom_site_symmetry_multiplicity
 _atom_site_fract_x
 _atom_site_fract_y
 _atom_site_fract_z
 _atom_site_occupancy
  Hf  Hf0  1  0.40981066  -0.01280067  0.75696250  1
  Hf  Hf1  1  0.00339203  0.40234393  0.74371228  1
  Hf  Hf2  1  0.20641990  0.20672451  0.00630534  1
  Hf  Hf3  1  0.69608017  0.08722891  0.63779044  1
  Hf  Hf4  1  0.28743193  0.31049763  0.63784446  1
  Hf  Hf5  1  0.08545255  0.72136479  0.38102384  1
  Hf  Hf6  1  0.51332740  0.88178085  0.36952866  1
  Hf  Hf7  1  0.11524496  0.90467198  0.86629391  1
  Hf  Hf8  1  0.09803517  0.69612029  0.87213422  1
  Hf  Hf9  1  -0.01840018  0.40243238  0.00473463  1
  Hf  Hf10  1  0.39624065  0.40965288  0.75500110  1
  Hf  Hf11  1  -0.01288554  0.60584999  0.26863074  1
  Hf  Hf12  1  0.31443996  0.89345405  0.61922680  1
  Hf  Hf13  1  0.59332572  0.60107002  0.00535372  1
  Hf  Hf14  1  0.39922345  0.20168519  0.50652161  1
  Hf  Hf15  1  0.90053329  0.90431425  0.12940583  1
  Hf  Hf16  1  0.89276397  0.70283856  0.14025812  1
  Hf  Hf17  1  0.79933713  0.59864101  0.00385008  1
  Hf  Hf18  1  0.70328650  0.89844699  0.86132107  1
  Hf  Hf19  1  0.38712811  0.58787029  0.24233229  1
  Hf  Hf20  1  0.78163950  0.80843301  0.49852183  1
  Hf  Hf21  1  0.79657539  0.60161500  0.47791134  1
  Hf  Hf22  1  -0.01577026  0.81409889  0.51457680  1
  Hf  Hf23  1  -0.00215803  0.19918049  0.00197258  1
  Hf  Hf24  1  0.49307862  0.48999346  0.38394394  1
  Hf  Hf25  1  0.69209323  0.48441259  0.12462053  1
  Hf  Hf26  1  0.62177008  -0.01715851  0.49312834  1
  Hf  Hf27  1  0.28889106  0.69714535  0.37770314  1
  Hf  Hf28  1  0.40422520  0.39262878  -0.01398581  1
  Hf  Hf29  1  0.70141599  0.90175204  0.12578463  1
  Hf  Hf30  1  0.19729850  0.20033498  0.50878407  1
  Hf  Hf31  1  0.88969771  0.69888579  0.86389169  1
  Hf  Hf32  1  0.08815310  0.50802016  0.13063926  1
  Hf  Hf33  1  0.50973501  0.30773588  0.11976461  1
  Hf  Hf34  1  0.48931449  0.68674169  0.36747526  1
  Hf  Hf35  1  0.51309065  0.30192034  0.38388807  1
  Hf  Hf36  1  0.72051949  0.09394310  0.37655531  1
  Hf  Hf37  1  0.19725916  0.82791500  0.26078255  1
  Hf  Hf38  1  0.60759386  0.39813024  0.75049609  1
  Hf  Hf39  1  0.62078368  0.20748659  0.25795644  1
  Zr  Zr40  1  0.20903799  0.80217774  0.00625170  1
  Zr  Zr41  1  -0.00268618  0.80202587  -0.00234542  1
  Zr  Zr42  1  0.09488137  0.50098517  0.88479675  1
  Zr  Zr43  1  -0.01569901  0.40107579  0.26787271  1
  Zr  Zr44  1  0.80523829  0.00092032  -0.00991142  1
  Zr  Zr45  1  0.80195963  0.20264896  -0.01390907  1
  Zr  Zr46  1  0.40639618  0.18879118  -0.01786085  1
  Zr  Zr47  1  0.10008334  0.10827618  0.87110619  1
  Zr  Zr48  1  0.52004309  0.10002803  0.11989105  1
  Zr  Zr49  1  0.10782603  0.30153453  0.36634182  1
  Zr  Zr50  1  0.20310624  0.00155426  0.00537205  1
  Zr  Zr51  1  0.30728006  0.70498207  0.88092934  1
  Zr  Zr52  1  0.49881213  0.69592010  0.87693951  1
  Zr  Zr53  1  0.89607854  0.10791048  0.63552640  1
  Zr  Zr54  1  0.50807028  0.49749163  0.61980170  1
  Zr  Zr55  1  0.52356083  0.89942530  0.62209401  1
  Zr  Zr56  1  0.29742232  0.50719184  0.88704621  1
  Zr  Zr57  1  0.59886768  0.19649736  0.76526582  1
  Zr  Zr58  1  0.40733942  0.00209403  0.49314274  1
  Zr  Zr59  1  0.00648707  -0.00605135  0.25315406  1
  Zr  Zr60  1  0.29803551  0.10163003  0.37118926  1
  Zr  Zr61  1  0.01114133  0.00456630  0.73599208  1
  Zr  Zr62  1  0.21862640  0.79658697  0.74088806  1
  Zr  Zr63  1  0.31093059  0.08889226  0.12855349  1
  Zr  Zr64  1  0.10625437  0.68992901  0.60619526  1
  Zr  Zr65  1  0.69237259  0.69830848  0.14403751  1
  Zr  Zr66  1  -0.01193800  0.59334537  0.73767433  1
  Zr  Zr67  1  0.68190915  0.70948339  0.36019473  1
  Zr  Zr68  1  0.41253138  0.20237590  0.25006337  1
  Zr  Zr69  1  0.20728094  0.40627874  0.49357668  1
  Zr  Zr70  1  0.39179700  -0.01808649  0.26456710  1
  Zr  Zr71  1  0.70553938  0.29439944  0.11403746  1
  Zr  Zr72  1  0.09787353  0.09490057  0.37463421  1
  Zr  Zr73  1  0.20394096  0.57954268  0.73722079  1
  Zr  Zr74  1  0.40011228  0.20069290  0.75867230  1
  Zr  Zr75  1  0.09758368  0.30632340  0.13566893  1
  Zr  Zr76  1  0.29678234  0.50039613  0.11268799  1
  Zr  Zr77  1  0.50120898  0.90094695  0.12982503  1
  Zr  Zr78  1  0.77633097  0.39206485  0.27795754  1
  Zr  Zr79  1  0.00146369  0.79910279  0.73148080  1
  Ta  Ta80  1  0.69737253  0.69823170  0.86798351  1
  Ta  Ta81  1  0.90503136  0.90219308  0.86381456  1
  Ta  Ta82  1  0.09815308  0.09921582  0.13125777  1
  Ta  Ta83  1  0.61728233  -0.00539702  0.25849832  1
  Ta  Ta84  1  0.40081045  0.61201243  0.73456187  1
  Ta  Ta85  1  0.29279300  0.08464733  0.86287329  1
  Ta  Ta86  1  -0.00237763  0.20374325  0.50533113  1
  Ta  Ta87  1  -0.00709096  0.39942827  0.48697130  1
  Ta  Ta88  1  -0.00059128  0.00355550  -0.00303493  1
  Ta  Ta89  1  0.60016276  0.80532864  -0.00030124  1
  Ta  Ta90  1  0.80283570  0.41302805  0.74310873  1
  Ta  Ta91  1  -0.00778346  0.60632664  0.00840173  1
  Ta  Ta92  1  0.09865448  0.30430789  0.87456593  1
  Ta  Ta93  1  0.10044149  0.48405452  0.60967259  1
  Ta  Ta94  1  0.88769461  0.50014446  0.87419127  1
  Ta  Ta95  1  0.68592797  0.70007974  0.62296570  1
  Ta  Ta96  1  0.20375771  0.19951105  0.24217264  1
  Ta  Ta97  1  0.48313724  0.70228275  0.13042699  1
  Ta  Ta98  1  0.40519344  0.79297194  0.49552105  1
  Ta  Ta99  1  0.00146428  0.21434363  0.74070067  1
  Ta  Ta100  1  0.70465398  0.30071891  0.61685917  1
  Ta  Ta101  1  0.79864500  0.21699678  0.75617248  1
  Ta  Ta102  1  0.60301885  0.00920445  -0.01822171  1
  Ta  Ta103  1  0.87792653  0.69067693  0.62248183  1
  Ta  Ta104  1  0.81928740  -0.00362032  0.50707309  1
  Ta  Ta105  1  0.31262075  0.31007046  0.36549768  1
  Ta  Ta106  1  0.50631163  0.50241411  0.87414894  1
  Ta  Ta107  1  0.71194791  0.50305986  0.61538471  1
  Ta  Ta108  1  0.40244895  -0.01960431  -0.01443065  1
  Ta  Ta109  1  0.59484313  0.79602817  0.74756652  1
  Ta  Ta110  1  0.89850472  0.10114070  0.85647074  1
  Ta  Ta111  1  0.90565566  0.90753205  0.37471360  1
  Ta  Ta112  1  0.79492126  0.79553575  -0.00433895  1
  Ta  Ta113  1  0.60456676  0.19181667  0.50497179  1
  Ta  Ta114  1  0.71378794  0.09601086  0.12970008  1
  Ta  Ta115  1  0.09562477  0.71199852  0.13896184  1
  Ta  Ta116  1  0.88512846  0.49729232  0.13467373  1
  Ta  Ta117  1  0.29600053  0.09269758  0.63541405  1
  Ta  Ta118  1  0.80436867  0.19927949  0.49958307  1
  Ta  Ta119  1  0.38095477  0.59380861  0.51090494  1
  Ti  Ti120  1  0.30939105  0.88239469  0.12765046  1
  Ti  Ti121  1  0.70617529  0.31982216  0.88152581  1
  Ti  Ti122  1  0.90136994  0.10462580  0.12787701  1
  Ti  Ti123  1  0.89621021  0.31292822  0.61858347  1
  Ti  Ti124  1  0.51227064  0.09718930  0.37492214  1
  Ti  Ti125  1  0.49913883  0.88840406  0.87452885  1
  Ti  Ti126  1  0.70241907  0.50778459  0.87496052  1
  Ti  Ti127  1  0.49937756  0.09674109  0.62835179  1
  Ti  Ti128  1  -0.00726116  0.60025267  0.48914548  1
  Ti  Ti129  1  0.89185812  0.30231248  0.13155758  1
  Ti  Ti130  1  0.50729724  0.29339585  0.62321419  1
  Ti  Ti131  1  0.18604490  0.19707385  0.74065781  1
  Ti  Ti132  1  0.19227793  0.61081032  0.01392556  1
  Ti  Ti133  1  0.21196742  0.40934960  0.25098919  1
  Ti  Ti134  1  0.19240477  0.39695017  0.00402543  1
  Ti  Ti135  1  0.59467995  0.57663608  0.25122008  1
  Ti  Ti136  1  0.20272329  0.80687890  0.49884005  1
  Ti  Ti137  1  0.30812266  0.30509095  0.13213373  1
  Ti  Ti138  1  0.10701440  0.51255818  0.38016943  1
  Ti  Ti139  1  0.79343937  0.39722223  0.48333629  1
  Ti  Ti140  1  0.79519189  0.58720292  0.27421524  1
  Ti  Ti141  1  0.10183215  0.90548853  0.12490668  1
  Ti  Ti142  1  0.00586068  0.00700308  0.51047621  1
  Ti  Ti143  1  0.80139767  0.81668115  0.26389002  1
  Ti  Ti144  1  0.11352025  0.91229461  0.62324963  1
  Ti  Ti145  1  0.60421124  0.59792428  0.74505002  1
  Ti  Ti146  1  0.49612984  0.49529280  0.12087447  1
  Ti  Ti147  1  -0.00352482  0.19867526  0.25465030  1
  Ti  Ti148  1  0.20192731  -0.00009515  0.50244216  1
  Ti  Ti149  1  0.90140223  0.30797047  0.86930800  1
  Ti  Ti150  1  0.49412584  0.70265319  0.61839003  1
  Ti  Ti151  1  0.81658882  0.19618366  0.26201300  1
  Ti  Ti152  1  0.39999632  0.39690561  0.51206885  1
  Ti  Ti153  1  0.59668611  0.59966209  0.49735550  1
  Ti  Ti154  1  0.28425110  0.29824404  0.86414977  1
  Ti  Ti155  1  0.79789416  0.80012425  0.73665550  1
  Ti  Ti156  1  0.60143389  0.20470730  -0.02413501  1
  Ti  Ti157  1  0.29969250  0.50035330  0.37365498  1
  Ti  Ti158  1  0.19176740  0.60867581  0.24762878  1
  Ti  Ti159  1  0.89766067  0.50043619  0.60757624  1
  Mo  Mo160  1  0.30971132  0.89576397  0.87256270  1
  Mo  Mo161  1  0.70838436  0.90180312  0.36773743  1
  Mo  Mo162  1  0.60134613  -0.00310306  0.76541651  1
  Mo  Mo163  1  0.20962335  0.00279278  0.74263496  1
  Mo  Mo164  1  0.58706957  0.40064329  0.25122865  1
  Mo  Mo165  1  0.40202705  0.39987641  0.24754903  1
  Mo  Mo166  1  -0.00331629  0.80433764  0.25339149  1
  Mo  Mo167  1  0.29650155  0.89500013  0.39240574  1
  Mo  Mo168  1  0.89857303  0.49965125  0.38763018  1
  Mo  Mo169  1  0.71049064  0.89506456  0.63933781  1
  Mo  Mo170  1  0.90926644  0.09989561  0.38511228  1
  Mo  Mo171  1  0.80165200  0.40604105  -0.00347172  1
  Mo  Mo172  1  0.69719209  0.29298006  0.39550832  1
  Mo  Mo173  1  0.60419969  0.39452980  0.51421330  1
  Mo  Mo174  1  0.50012624  0.09060518  0.87915544  1
  Mo  Mo175  1  0.70520321  0.10257283  0.86289367  1
  Mo  Mo176  1  0.78674043  0.59864473  0.74289243  1
  Mo  Mo177  1  0.80682934  0.00951104  0.24744543  1
  Mo  Mo178  1  0.39236502  0.78851300  0.25390204  1
  Mo  Mo179  1  0.30495971  0.70017633  0.61139381  1
  Mo  Mo180  1  0.08710254  0.30081242  0.61872813  1
  Mo  Mo181  1  0.10332893  0.90832538  0.39384872  1
  Mo  Mo182  1  0.89825131  0.28533215  0.38416981  1
  Mo  Mo183  1  0.59396115  0.79737409  0.24054421  1
  Mo  Mo184  1  0.41161358  0.79124567  0.74208415  1
  Mo  Mo185  1  0.39916814  0.60318432  0.01441287  1
  Mo  Mo186  1  0.80295669  0.00096109  0.75572820  1
  Mo  Mo187  1  0.68081616  0.49519623  0.38569151  1
  Mo  Mo188  1  0.20107886  0.00618539  0.24212234  1
  Mo  Mo189  1  0.19197194  0.38749851  0.75209189  1
  Mo  Mo190  1  0.60179588  0.40091755  -0.01730977  1
  Mo  Mo191  1  0.89444184  0.90041454  0.62819807  1
  Mo  Mo192  1  0.50154672  0.30928149  0.87420466  1
  Mo  Mo193  1  0.19139566  0.59866804  0.49571952  1
  Mo  Mo194  1  0.29053583  0.70441107  0.13395818  1
  Mo  Mo195  1  0.10613187  0.10467509  0.61972825  1
  Mo  Mo196  1  0.29748717  0.50225920  0.62507901  1
  Mo  Mo197  1  0.40948981  0.79644630  0.00553569  1
  Mo  Mo198  1  0.59728557  0.78699207  0.50253786  1
  Mo  Mo199  1  0.89236535  0.71208601  0.36941754  1
