# generated using pymatgen
data_HfZrTaTiMo
_symmetry_space_group_name_H-M   'P 1'
_cell_length_a   15.19615546
_cell_length_b   15.18769722
_cell_length_c   16.82833345
_cell_angle_alpha   90.00765363
_cell_angle_beta   90.00457279
_cell_angle_gamma   90.06802316
_symmetry_Int_Tables_number   1
_chemical_formula_structural   HfZrTaTiMo
_chemical_formula_sum   'Hf40 Zr40 Ta40 Ti40 Mo40'
_cell_volume   3883.88583492
_cell_formula_units_Z   40
loop_
 _symmetry_equiv_pos_site_id
 _symmetry_equiv_pos_as_xyz
  1  'x, y, z'
loop_
 _atom_site_type_symbol
 _atom_site_label
 _atom_site_symmetry_multiplicity
 _atom_site_fract_x
 _atom_site_fract_y
 _atom_site_fract_z
 _atom_site_occupancy
  Hf  Hf0  1  0.60664872  0.59291721  0.24917189  1
  Hf  Hf1  1  0.88958271  0.91874137  0.87731238  1
  Hf  Hf2  1  0.79995770  0.39963071  0.75837661  1
  Hf  Hf3  1  -0.00009039  0.80461446  0.75163570  1
  Hf  Hf4  1  0.29960507  0.29051993  0.62926977  1
  Hf  Hf5  1  0.49236647  0.30035768  0.86699575  1
  Hf  Hf6  1  0.29346257  0.29083535  0.37310495  1
  Hf  Hf7  1  0.10231344  0.90297185  0.62946332  1
  Hf  Hf8  1  0.39463561  0.18685622  0.00668745  1
  Hf  Hf9  1  0.10406743  0.70832555  0.10853334  1
  Hf  Hf10  1  0.89700006  0.70242532  0.87345667  1
  Hf  Hf11  1  0.19855326  0.20323290  0.01567394  1
  Hf  Hf12  1  0.89009197  0.10669508  0.38036181  1
  Hf  Hf13  1  0.19888453  0.57503208  0.00218034  1
  Hf  Hf14  1  0.01107645  0.00348982  0.49643316  1
  Hf  Hf15  1  0.40128495  0.39373663  0.50781492  1
  Hf  Hf16  1  0.49916965  0.49601899  0.12149052  1
  Hf  Hf17  1  -0.02611026  0.80759708  0.51530355  1
  Hf  Hf18  1  0.40935104  0.00359456  0.49289961  1
  Hf  Hf19  1  0.80870347  0.00365386  0.23360467  1
  Hf  Hf20  1  0.30719909  0.70347605  0.11459470  1
  Hf  Hf21  1  0.01250445  0.61389833  0.50470736  1
  Hf  Hf22  1  0.50818877  0.51158195  0.62983162  1
  Hf  Hf23  1  0.29725393  0.29468629  0.86305610  1
  Hf  Hf24  1  0.00579990  0.01712184  0.01158671  1
  Hf  Hf25  1  0.57875899  0.79376779  0.74787154  1
  Hf  Hf26  1  0.00627567  0.40696368  0.48909134  1
  Hf  Hf27  1  0.72455858  0.08127734  0.88071068  1
  Hf  Hf28  1  0.10334573  0.70264860  0.88609352  1
  Hf  Hf29  1  0.81455441  0.39742967  0.49490632  1
  Hf  Hf30  1  0.69528296  0.50899357  0.39207983  1
  Hf  Hf31  1  0.09677327  0.29930476  0.88037571  1
  Hf  Hf32  1  0.37801856  0.39530901  0.00304096  1
  Hf  Hf33  1  0.18722465  0.18801719  0.74895878  1
  Hf  Hf34  1  0.50853996  0.28789089  0.63433815  1
  Hf  Hf35  1  0.10448487  0.31496364  0.13049018  1
  Hf  Hf36  1  0.70892788  0.49820786  0.61700784  1
  Hf  Hf37  1  0.80034906  -0.01928617  0.51262738  1
  Hf  Hf38  1  0.70566719  0.10554979  0.11794567  1
  Hf  Hf39  1  0.21110165  0.79639413  0.76161404  1
  Zr  Zr40  1  0.89872400  0.69972223  0.11637544  1
  Zr  Zr41  1  0.89786096  0.70274777  0.37259355  1
  Zr  Zr42  1  0.90319050  0.90560347  0.36843421  1
  Zr  Zr43  1  0.90867780  0.10984737  0.61397337  1
  Zr  Zr44  1  0.69396110  0.28643060  0.38211335  1
  Zr  Zr45  1  0.89157025  0.49854944  0.13260348  1
  Zr  Zr46  1  0.00014547  0.20784701  0.26111445  1
  Zr  Zr47  1  0.49856871  0.69055133  0.37413933  1
  Zr  Zr48  1  0.28645196  0.70095454  0.61222570  1
  Zr  Zr49  1  0.11442050  0.51659009  0.37531885  1
  Zr  Zr50  1  0.29532612  0.50119609  0.85881363  1
  Zr  Zr51  1  0.50379465  0.30072043  0.12379711  1
  Zr  Zr52  1  0.19591973  0.60898737  0.24185723  1
  Zr  Zr53  1  0.79766573  0.40381748  0.26715582  1
  Zr  Zr54  1  0.60744439  0.20426797  -0.01075779  1
  Zr  Zr55  1  0.19023850  0.39924460  0.73473618  1
  Zr  Zr56  1  0.79188194  0.59457465  -0.01076151  1
  Zr  Zr57  1  0.21338290  -0.00677117  0.49034619  1
  Zr  Zr58  1  0.30678748  0.08760982  0.63279470  1
  Zr  Zr59  1  0.50273434  0.90616358  0.36212633  1
  Zr  Zr60  1  0.59548941  0.79913223  0.50512737  1
  Zr  Zr61  1  0.69318993  0.08487870  0.37857622  1
  Zr  Zr62  1  0.38474124  0.80950582  0.49020965  1
  Zr  Zr63  1  0.49474286  0.88934194  0.12080476  1
  Zr  Zr64  1  0.20280571  -0.00021488  0.00633866  1
  Zr  Zr65  1  0.60263072  0.19998801  0.24471535  1
  Zr  Zr66  1  0.11614395  0.10057747  0.36428413  1
  Zr  Zr67  1  0.49950050  0.50674768  0.86371594  1
  Zr  Zr68  1  0.40074780  0.59311174  0.24890191  1
  Zr  Zr69  1  0.81754806  0.20217010  0.74258301  1
  Zr  Zr70  1  0.61005029  0.40099180  0.75425153  1
  Zr  Zr71  1  0.39854565  0.62702164  0.74092189  1
  Zr  Zr72  1  0.00932755  0.80631365  0.23698120  1
  Zr  Zr73  1  0.61808054  0.19149179  0.76165163  1
  Zr  Zr74  1  0.48089143  0.70758169  0.88958807  1
  Zr  Zr75  1  0.79381729  0.80417958  0.23556812  1
  Zr  Zr76  1  0.00106820  0.01989055  0.75224614  1
  Zr  Zr77  1  0.00173513  0.41202228  -0.00196511  1
  Zr  Zr78  1  0.27951503  0.69656547  0.37880420  1
  Zr  Zr79  1  0.61616041  -0.01198497  0.00190058  1
  Ta  Ta80  1  0.69056307  0.89835463  0.63136157  1
  Ta  Ta81  1  0.48983611  0.90030834  0.62923281  1
  Ta  Ta82  1  0.00240941  0.21485400  0.48463457  1
  Ta  Ta83  1  0.18380406  0.60639121  0.74591662  1
  Ta  Ta84  1  0.49444839  0.08790404  0.12507896  1
  Ta  Ta85  1  0.49919663  0.90189022  0.88591749  1
  Ta  Ta86  1  -0.00874878  0.39716023  0.74423115  1
  Ta  Ta87  1  0.78704799  0.80248495  0.75006536  1
  Ta  Ta88  1  0.50680911  0.08794761  0.63448570  1
  Ta  Ta89  1  0.59964244  0.79207953  0.24484852  1
  Ta  Ta90  1  0.10805264  0.10696359  0.61675638  1
  Ta  Ta91  1  0.88946778  0.69734267  0.63912321  1
  Ta  Ta92  1  0.00275590  0.40448840  0.27239174  1
  Ta  Ta93  1  0.50263871  0.69529662  0.11864327  1
  Ta  Ta94  1  0.40712582  0.19225396  0.49809060  1
  Ta  Ta95  1  0.68959884  0.70070374  0.87017979  1
  Ta  Ta96  1  0.49789330  0.08996221  0.87538043  1
  Ta  Ta97  1  0.79519785  0.39974658  -0.01477973  1
  Ta  Ta98  1  0.79077762  0.81657147  0.00094724  1
  Ta  Ta99  1  0.30709559  0.88484842  0.89268420  1
  Ta  Ta100  1  0.30673366  0.49166524  0.38009909  1
  Ta  Ta101  1  0.69946496  0.70616113  0.38162370  1
  Ta  Ta102  1  0.17064664  0.79076414  0.49686344  1
  Ta  Ta103  1  0.29907046  0.89851677  0.11665044  1
  Ta  Ta104  1  0.30554260  0.08997005  0.87320756  1
  Ta  Ta105  1  0.60161592  0.38310490  0.50655391  1
  Ta  Ta106  1  0.20054383  0.40117734  0.50829460  1
  Ta  Ta107  1  0.60643887  0.40628480  -0.01359357  1
  Ta  Ta108  1  0.60637565  -0.01054871  0.23736053  1
  Ta  Ta109  1  0.70895153  0.31272658  0.12044606  1
  Ta  Ta110  1  0.40352021  0.59693171  0.50344417  1
  Ta  Ta111  1  0.89979571  0.30681944  0.12485875  1
  Ta  Ta112  1  0.20187534  -0.01111569  0.76615919  1
  Ta  Ta113  1  0.90477789  0.30229586  0.87837969  1
  Ta  Ta114  1  0.81497487  0.20424534  0.00128795  1
  Ta  Ta115  1  0.09179811  0.50353062  0.13741430  1
  Ta  Ta116  1  0.69272529  0.69578958  0.11883189  1
  Ta  Ta117  1  0.68753622  0.69043222  0.62858448  1
  Ta  Ta118  1  0.00208134  0.82177507  -0.00066039  1
  Ta  Ta119  1  0.80609572  0.61275623  0.50475980  1
  Ti  Ti120  1  -0.00577395  0.60279112  0.25746811  1
  Ti  Ti121  1  0.19961977  0.20069344  0.49785324  1
  Ti  Ti122  1  0.69037236  0.10486034  0.62130447  1
  Ti  Ti123  1  0.39741706  0.19246840  0.23875564  1
  Ti  Ti124  1  0.40188666  -0.01699304  0.75847807  1
  Ti  Ti125  1  0.60340287  -0.00899995  0.75836837  1
  Ti  Ti126  1  0.01172215  0.00299133  0.23014519  1
  Ti  Ti127  1  0.59904517  0.00305620  0.50489391  1
  Ti  Ti128  1  0.80317835  0.20853951  0.24768902  1
  Ti  Ti129  1  0.28437875  0.47434293  0.13697778  1
  Ti  Ti130  1  0.91058791  0.11624933  0.12366256  1
  Ti  Ti131  1  0.90722936  0.50405735  0.62984757  1
  Ti  Ti132  1  0.59952230  0.59513585  -0.00118988  1
  Ti  Ti133  1  0.50019757  0.48968527  0.38410997  1
  Ti  Ti134  1  0.59444872  0.39804148  0.25650764  1
  Ti  Ti135  1  0.21074806  -0.00606260  0.23550202  1
  Ti  Ti136  1  0.40371632  0.18651513  0.75212742  1
  Ti  Ti137  1  0.08397106  0.29587034  0.61948911  1
  Ti  Ti138  1  0.70395780  0.89268477  0.37443258  1
  Ti  Ti139  1  0.49479564  0.29407214  0.37644055  1
  Ti  Ti140  1  0.30150693  0.49990750  0.63013116  1
  Ti  Ti141  1  0.10049930  0.51200823  0.62534723  1
  Ti  Ti142  1  0.39634592  0.59296572  0.00145328  1
  Ti  Ti143  1  0.79236233  0.20456549  0.51062681  1
  Ti  Ti144  1  0.38806938  0.80620780  0.25316333  1
  Ti  Ti145  1  0.31274031  0.08853256  0.35830604  1
  Ti  Ti146  1  0.11098772  0.89135587  0.36241725  1
  Ti  Ti147  1  0.20612813  0.20274386  0.23724122  1
  Ti  Ti148  1  0.69654468  0.49542183  0.12332769  1
  Ti  Ti149  1  -0.00561117  0.60041907  -0.00338726  1
  Ti  Ti150  1  0.10374560  0.10181668  0.88079528  1
  Ti  Ti151  1  0.39725825  0.39103982  0.25365319  1
  Ti  Ti152  1  0.79718906  0.60278844  0.25441462  1
  Ti  Ti153  1  0.79592992  0.59614759  0.75760994  1
  Ti  Ti154  1  0.60557837  0.79331788  -0.00019999  1
  Ti  Ti155  1  0.08549220  0.50270658  0.86368576  1
  Ti  Ti156  1  0.91732143  0.11907429  0.88368216  1
  Ti  Ti157  1  0.79662479  -0.00248853  0.73498265  1
  Ti  Ti158  1  0.50149624  0.10509763  0.36332906  1
  Ti  Ti159  1  0.29777237  0.89859586  0.62866803  1
  Mo  Mo160  1  0.30598784  0.09426006  0.13611193  1
  Mo  Mo161  1  0.69904894  0.89203142  0.12549845  1
  Mo  Mo162  1  0.09177061  0.69930327  0.63234912  1
  Mo  Mo163  1  0.10422420  0.10592632  0.14065729  1
  Mo  Mo164  1  0.20603506  0.80853713  0.24424219  1
  Mo  Mo165  1  0.00523966  0.21148620  0.74843719  1
  Mo  Mo166  1  0.39129227  0.81278277  0.74995820  1
  Mo  Mo167  1  0.09157198  0.71255934  0.37430303  1
  Mo  Mo168  1  0.58538886  0.18781884  0.50198531  1
  Mo  Mo169  1  0.88835475  0.89897279  0.63931767  1
  Mo  Mo170  1  0.49741388  0.70508568  0.61352123  1
  Mo  Mo171  1  0.90633222  0.50458455  0.86650360  1
  Mo  Mo172  1  0.40211656  0.00218284  0.24754058  1
  Mo  Mo173  1  0.40350068  -0.00035009  -0.00390573  1
  Mo  Mo174  1  0.40094137  0.79804704  0.00666659  1
  Mo  Mo175  1  0.29028802  0.90092391  0.36265854  1
  Mo  Mo176  1  0.20520369  0.59053038  0.50794212  1
  Mo  Mo177  1  0.90439682  0.31110369  0.61962731  1
  Mo  Mo178  1  0.90026689  0.29865874  0.37599880  1
  Mo  Mo179  1  0.10060959  0.90874730  0.87490526  1
  Mo  Mo180  1  0.19982495  0.79857862  -0.00898829  1
  Mo  Mo181  1  -0.00616244  0.59675765  0.74713190  1
  Mo  Mo182  1  0.39849918  0.39728224  0.73495068  1
  Mo  Mo183  1  0.29440599  0.69353810  0.88883962  1
  Mo  Mo184  1  0.61035067  0.60742628  0.75087895  1
  Mo  Mo185  1  0.69898173  0.89093083  0.86721665  1
  Mo  Mo186  1  0.20412176  0.40051737  0.25789784  1
  Mo  Mo187  1  0.19868465  0.40072685  0.00043165  1
  Mo  Mo188  1  0.11261897  0.30518836  0.37821014  1
  Mo  Mo189  1  0.78904691  0.79443134  0.51300151  1
  Mo  Mo190  1  0.81468174  0.00199277  0.01271010  1
  Mo  Mo191  1  -0.00010205  0.20856054  0.00922983  1
  Mo  Mo192  1  0.70877523  0.29558783  0.88426493  1
  Mo  Mo193  1  0.70079696  0.50745235  0.87430461  1
  Mo  Mo194  1  0.70506775  0.29416435  0.61388187  1
  Mo  Mo195  1  0.90008321  0.51033976  0.37337934  1
  Mo  Mo196  1  0.59820629  0.59374218  0.49825177  1
  Mo  Mo197  1  0.10688668  0.90190874  0.12575114  1
  Mo  Mo198  1  0.90303152  0.90903336  0.11308972  1
  Mo  Mo199  1  0.30279062  0.29817993  0.13847739  1
