# generated using pymatgen
data_HfZrTaTiMo
_symmetry_space_group_name_H-M   'P 1'
_cell_length_a   15.22166462
_cell_length_b   15.20713674
_cell_length_c   16.84994259
_cell_angle_alpha   89.95672695
_cell_angle_beta   90.09069488
_cell_angle_gamma   89.91992267
_symmetry_Int_Tables_number   1
_chemical_formula_structural   HfZrTaTiMo
_chemical_formula_sum   'Hf40 Zr40 Ta40 Ti40 Mo40'
_cell_volume   3900.38010753
_cell_formula_units_Z   40
loop_
 _symmetry_equiv_pos_site_id
 _symmetry_equiv_pos_as_xyz
  1  'x, y, z'
loop_
 _atom_site_type_symbol
 _atom_site_label
 _atom_site_symmetry_multiplicity
 _atom_site_fract_x
 _atom_site_fract_y
 _atom_site_fract_z
 _atom_site_occupancy
  Hf  Hf0  1  0.80041612  0.61517130  -0.01619661  1
  Hf  Hf1  1  0.81570201  0.21747214  0.26031070  1
  Hf  Hf2  1  0.39213012  0.81544651  0.50031094  1
  Hf  Hf3  1  0.18925834  -0.00159817  0.75156303  1
  Hf  Hf4  1  0.28548752  0.51155269  0.60453583  1
  Hf  Hf5  1  0.60414283  0.59686370  0.49737304  1
  Hf  Hf6  1  0.48383832  0.28961799  0.11855695  1
  Hf  Hf7  1  0.62903077  -0.00470455  -0.01496975  1
  Hf  Hf8  1  0.60555469  0.80925905  0.24932153  1
  Hf  Hf9  1  0.27844052  0.49638607  0.38260554  1
  Hf  Hf10  1  0.39694851  0.61160018  0.00459760  1
  Hf  Hf11  1  0.48875717  0.68896180  0.62056541  1
  Hf  Hf12  1  0.18147118  0.81736600  0.22885325  1
  Hf  Hf13  1  0.71404403  0.69038442  0.12582358  1
  Hf  Hf14  1  0.79898654  0.19208964  0.49726972  1
  Hf  Hf15  1  0.39294565  0.59807522  0.25365807  1
  Hf  Hf16  1  0.82220327  0.79777839  0.51707156  1
  Hf  Hf17  1  0.19865985  0.20090340  0.73841048  1
  Hf  Hf18  1  0.07760275  0.50781872  0.38155180  1
  Hf  Hf19  1  0.19223624  0.40486687  0.73895245  1
  Hf  Hf20  1  0.50500291  0.49430617  0.12863224  1
  Hf  Hf21  1  0.28355334  0.71811691  0.36768251  1
  Hf  Hf22  1  0.91071724  0.68422947  0.37204389  1
  Hf  Hf23  1  0.62339623  0.58564849  0.25582672  1
  Hf  Hf24  1  0.19335142  0.59245560  0.01473941  1
  Hf  Hf25  1  0.91561840  0.09889545  0.37565319  1
  Hf  Hf26  1  0.60678395  0.00574125  0.51267735  1
  Hf  Hf27  1  0.69434532  0.70963589  0.63532387  1
  Hf  Hf28  1  0.61276430  0.78332791  -0.01583759  1
  Hf  Hf29  1  0.60629349  0.19398484  0.25977111  1
  Hf  Hf30  1  0.70067070  0.30869245  0.12731382  1
  Hf  Hf31  1  0.91380669  0.30544405  0.87309910  1
  Hf  Hf32  1  0.38659161  0.38143406  0.25548646  1
  Hf  Hf33  1  0.71105245  0.91145933  0.38795588  1
  Hf  Hf34  1  0.88325104  0.50480817  0.12502411  1
  Hf  Hf35  1  0.61089398  0.20013132  -0.00550674  1
  Hf  Hf36  1  0.39194833  0.82471023  0.24331191  1
  Hf  Hf37  1  0.09767314  0.10611519  0.14289434  1
  Hf  Hf38  1  0.70119253  0.49930178  0.86349038  1
  Hf  Hf39  1  0.09820973  0.49319746  0.87704727  1
  Zr  Zr40  1  0.50605350  0.88608636  0.63909373  1
  Zr  Zr41  1  0.50114247  0.70607311  0.36866306  1
  Zr  Zr42  1  0.28664201  0.10893711  0.88988269  1
  Zr  Zr43  1  0.91757217  0.71326671  0.86607486  1
  Zr  Zr44  1  0.81065081  0.80061592  0.25145006  1
  Zr  Zr45  1  0.49207151  0.30097828  0.88040594  1
  Zr  Zr46  1  0.50041692  0.88785292  0.87999381  1
  Zr  Zr47  1  0.79974539  0.40361634  -0.00294068  1
  Zr  Zr48  1  0.30643953  0.12373994  0.10464439  1
  Zr  Zr49  1  0.39505041  0.77111560  0.76588357  1
  Zr  Zr50  1  0.38678647  -0.00934401  0.74873983  1
  Zr  Zr51  1  0.59854190  0.20590975  0.50015850  1
  Zr  Zr52  1  0.57982188  0.60831942  0.76149722  1
  Zr  Zr53  1  0.50299391  0.48750931  0.37488529  1
  Zr  Zr54  1  0.49640641  0.90842518  0.37705071  1
  Zr  Zr55  1  0.12430520  0.08668227  0.36905402  1
  Zr  Zr56  1  0.69512851  0.49630576  0.63345878  1
  Zr  Zr57  1  0.29409214  0.31429325  0.88353145  1
  Zr  Zr58  1  0.39751569  0.20603992  0.74061747  1
  Zr  Zr59  1  0.81060851  0.18516578  0.00552086  1
  Zr  Zr60  1  0.71557353  0.28829273  0.86818528  1
  Zr  Zr61  1  0.71533805  0.69548458  0.38233038  1
  Zr  Zr62  1  -0.02275886  0.39223124  0.25673873  1
  Zr  Zr63  1  0.50610531  0.70266915  0.12987959  1
  Zr  Zr64  1  0.18286920  0.60624028  0.23865353  1
  Zr  Zr65  1  0.09576005  0.28888813  0.37027820  1
  Zr  Zr66  1  0.38719680  0.60626703  0.48476781  1
  Zr  Zr67  1  0.01578264  0.19112665  -0.00398283  1
  Zr  Zr68  1  0.49832057  0.09477902  0.87648403  1
  Zr  Zr69  1  0.79839219  0.00709332  0.25725610  1
  Zr  Zr70  1  0.00927380  -0.01120085  0.50895043  1
  Zr  Zr71  1  0.17165249  0.00661460  -0.00194489  1
  Zr  Zr72  1  0.81157553  0.81773855  0.73922769  1
  Zr  Zr73  1  0.59302046  0.39268711  0.74915569  1
  Zr  Zr74  1  0.50649055  0.09038912  0.11494224  1
  Zr  Zr75  1  0.48850122  0.09909143  0.37766684  1
  Zr  Zr76  1  0.00403120  0.19895939  0.74222775  1
  Zr  Zr77  1  0.91024461  0.31772925  0.60664670  1
  Zr  Zr78  1  0.61464667  0.18615964  0.74679310  1
  Zr  Zr79  1  0.19472851  0.79090008  0.00783500  1
  Ta  Ta80  1  -0.01050709  -0.00711666  0.73647886  1
  Ta  Ta81  1  0.29497589  0.89370440  0.89441018  1
  Ta  Ta82  1  0.90602686  0.90109049  0.12640413  1
  Ta  Ta83  1  0.28632264  0.71042378  0.62009089  1
  Ta  Ta84  1  0.91532229  0.70014249  0.12871744  1
  Ta  Ta85  1  0.30842847  0.91485353  0.10194988  1
  Ta  Ta86  1  0.38991326  0.41486266  0.74251321  1
  Ta  Ta87  1  0.08459063  0.89430761  0.86969697  1
  Ta  Ta88  1  0.91716840  0.88798310  0.38160801  1
  Ta  Ta89  1  0.81276625  0.40100790  0.74481812  1
  Ta  Ta90  1  0.19166387  0.80758616  0.50132272  1
  Ta  Ta91  1  0.70963007  0.09772795  0.12937044  1
  Ta  Ta92  1  0.29026162  0.92630712  0.37444917  1
  Ta  Ta93  1  0.61885297  -0.01675160  0.75286774  1
  Ta  Ta94  1  0.48625352  0.49251958  0.61585052  1
  Ta  Ta95  1  0.20561574  0.18993453  0.51112301  1
  Ta  Ta96  1  0.48419890  0.49908455  0.87880611  1
  Ta  Ta97  1  0.89263659  0.09587319  0.86628031  1
  Ta  Ta98  1  0.29582957  0.51405709  0.87559491  1
  Ta  Ta99  1  0.80696901  0.81597404  -0.00197609  1
  Ta  Ta100  1  0.00726763  0.59723518  0.73970103  1
  Ta  Ta101  1  0.90753785  0.50423726  0.86824022  1
  Ta  Ta102  1  0.00925337  -0.01999168  0.25114883  1
  Ta  Ta103  1  0.50228466  0.09622091  0.63265212  1
  Ta  Ta104  1  0.39490848  0.19163353  0.51459296  1
  Ta  Ta105  1  0.50190334  0.89973139  0.10434163  1
  Ta  Ta106  1  0.60599555  0.80286763  0.50249987  1
  Ta  Ta107  1  0.39695299  0.38847636  0.49574434  1
  Ta  Ta108  1  0.70224568  0.90292113  0.12152433  1
  Ta  Ta109  1  0.60222964  0.59198009  -0.01001246  1
  Ta  Ta110  1  0.00200343  0.80502140  0.00507393  1
  Ta  Ta111  1  0.59657756  0.40397766  -0.00400345  1
  Ta  Ta112  1  0.80201194  0.01305971  0.72478238  1
  Ta  Ta113  1  0.08545721  0.49495450  0.60829710  1
  Ta  Ta114  1  0.70707645  0.31480353  0.37978436  1
  Ta  Ta115  1  0.20549640  0.60438001  0.74715339  1
  Ta  Ta116  1  0.29839935  0.30722518  0.61549571  1
  Ta  Ta117  1  0.20023429  0.79974358  0.75768206  1
  Ta  Ta118  1  0.19250086  0.40002811  0.24712483  1
  Ta  Ta119  1  0.80887016  0.60339221  0.74845649  1
  Ti  Ti120  1  0.00941771  0.20295741  0.50417529  1
  Ti  Ti121  1  0.39067809  0.40555401  0.00654563  1
  Ti  Ti122  1  0.49468791  0.29309985  0.37753570  1
  Ti  Ti123  1  -0.01701669  -0.00118006  0.00009463  1
  Ti  Ti124  1  0.91123499  0.29383548  0.12255213  1
  Ti  Ti125  1  0.29999460  0.28379851  0.38537699  1
  Ti  Ti126  1  0.21365711  -0.00316566  0.51857855  1
  Ti  Ti127  1  0.10198709  0.88465707  0.63029464  1
  Ti  Ti128  1  0.10337417  0.89124886  0.37647127  1
  Ti  Ti129  1  0.29682097  0.49370477  0.13224628  1
  Ti  Ti130  1  0.21589709  0.00186843  0.23631157  1
  Ti  Ti131  1  0.09985930  0.69640333  0.62472573  1
  Ti  Ti132  1  0.19345983  0.39641061  0.01586981  1
  Ti  Ti133  1  0.00131910  0.60193184  0.00003666  1
  Ti  Ti134  1  0.09293740  0.70564529  0.37553774  1
  Ti  Ti135  1  0.81223133  0.19857152  0.73106011  1
  Ti  Ti136  1  0.80503053  0.58988648  0.52050319  1
  Ti  Ti137  1  0.59620798  0.39069355  0.25418539  1
  Ti  Ti138  1  0.80718627  -0.00080989  0.52281585  1
  Ti  Ti139  1  0.10787560  0.29159823  0.87751078  1
  Ti  Ti140  1  0.87471690  0.48938600  0.38465338  1
  Ti  Ti141  1  0.89650301  0.91313977  0.87306282  1
  Ti  Ti142  1  0.10334094  0.29899340  0.13627852  1
  Ti  Ti143  1  0.39291168  0.00548937  0.51775830  1
  Ti  Ti144  1  0.18324679  0.38831530  0.49948125  1
  Ti  Ti145  1  0.00194721  0.40280146  0.74331268  1
  Ti  Ti146  1  0.90577133  0.09735503  0.13789688  1
  Ti  Ti147  1  0.09885574  0.09955318  0.62158571  1
  Ti  Ti148  1  0.77977800  0.41950851  0.25175740  1
  Ti  Ti149  1  0.39864414  0.01807842  0.24285775  1
  Ti  Ti150  1  0.00539811  0.40163968  0.00496672  1
  Ti  Ti151  1  0.08066635  0.50083027  0.13324651  1
  Ti  Ti152  1  0.60140919  0.39840544  0.50147712  1
  Ti  Ti153  1  -0.01026380  0.60656163  0.51341544  1
  Ti  Ti154  1  0.49890551  0.30316623  0.62281981  1
  Ti  Ti155  1  0.22628263  0.20592970  0.24967839  1
  Ti  Ti156  1  0.30314291  0.70910479  0.13026365  1
  Ti  Ti157  1  0.70298562  0.29912120  0.62285696  1
  Ti  Ti158  1  0.60018426  -0.00036516  0.24773305  1
  Ti  Ti159  1  0.10818457  0.69420735  0.87203104  1
  Mo  Mo160  1  0.91419943  0.89841517  0.62281386  1
  Mo  Mo161  1  0.09150493  0.90840383  0.11972130  1
  Mo  Mo162  1  0.39858158  0.20037208  0.25423752  1
  Mo  Mo163  1  0.00362574  0.79795832  0.25059479  1
  Mo  Mo164  1  0.69107846  0.49980331  0.11642192  1
  Mo  Mo165  1  0.29003640  0.31230067  0.12121235  1
  Mo  Mo166  1  0.30184659  0.10067411  0.37815323  1
  Mo  Mo167  1  0.78783902  0.40242471  0.50399214  1
  Mo  Mo168  1  0.60860364  0.79649260  0.76826672  1
  Mo  Mo169  1  0.01485296  0.78798478  0.50110143  1
  Mo  Mo170  1  0.49386931  0.68586437  0.88373730  1
  Mo  Mo171  1  0.29160920  0.89161959  0.62928909  1
  Mo  Mo172  1  0.72074562  0.90282013  0.87032337  1
  Mo  Mo173  1  0.29135205  0.69586138  0.87889761  1
  Mo  Mo174  1  0.70089405  0.10446684  0.62639976  1
  Mo  Mo175  1  0.39872880  0.79936293  0.00244899  1
  Mo  Mo176  1  0.81267001  -0.00224226  0.00831832  1
  Mo  Mo177  1  0.81137428  0.58982104  0.25038376  1
  Mo  Mo178  1  0.40150238  -0.00144043  -0.00787738  1
  Mo  Mo179  1  0.00309912  0.19565025  0.24933753  1
  Mo  Mo180  1  0.17616362  0.61790071  0.49821186  1
  Mo  Mo181  1  0.91230448  0.69439493  0.63474920  1
  Mo  Mo182  1  0.90004729  0.50743063  0.62870336  1
  Mo  Mo183  1  0.38533753  0.58806600  0.74398598  1
  Mo  Mo184  1  0.18869283  0.21474492  0.00191010  1
  Mo  Mo185  1  0.70147165  0.49616054  0.38650244  1
  Mo  Mo186  1  0.70552234  0.70619481  0.86205572  1
  Mo  Mo187  1  0.01720697  0.80039596  0.74951913  1
  Mo  Mo188  1  0.08966061  0.69708793  0.12186319  1
  Mo  Mo189  1  0.08046495  0.08902141  0.86566487  1
  Mo  Mo190  1  0.29934361  0.09685217  0.62696603  1
  Mo  Mo191  1  0.90816019  0.10334525  0.61580704  1
  Mo  Mo192  1  -0.01012218  0.59600359  0.24892763  1
  Mo  Mo193  1  0.70073640  0.90059862  0.61792117  1
  Mo  Mo194  1  0.71875472  0.08796239  0.86402615  1
  Mo  Mo195  1  0.10605603  0.30347043  0.61305060  1
  Mo  Mo196  1  -0.00856089  0.40480074  0.48724879  1
  Mo  Mo197  1  0.40017880  0.20963677  -0.00621242  1
  Mo  Mo198  1  0.89980083  0.30338300  0.39365802  1
  Mo  Mo199  1  0.70148572  0.10185821  0.37089874  1
