# generated using pymatgen
data_HfZrTaTiMo
_symmetry_space_group_name_H-M   'P 1'
_cell_length_a   15.22592445
_cell_length_b   15.20711741
_cell_length_c   16.85629946
_cell_angle_alpha   89.95786293
_cell_angle_beta   89.98849340
_cell_angle_gamma   90.09486283
_symmetry_Int_Tables_number   1
_chemical_formula_structural   HfZrTaTiMo
_chemical_formula_sum   'Hf40 Zr40 Ta40 Ti40 Mo40'
_cell_volume   3902.94189722
_cell_formula_units_Z   40
loop_
 _symmetry_equiv_pos_site_id
 _symmetry_equiv_pos_as_xyz
  1  'x, y, z'
loop_
 _atom_site_type_symbol
 _atom_site_label
 _atom_site_symmetry_multiplicity
 _atom_site_fract_x
 _atom_site_fract_y
 _atom_site_fract_z
 _atom_site_occupancy
  Hf  Hf0  1  0.81732037  0.79783307  -0.01014837  1
  Hf  Hf1  1  0.29862228  0.30345537  0.12613032  1
  Hf  Hf2  1  0.19208901  -0.00977137  0.50722320  1
  Hf  Hf3  1  0.59203252  0.79705013  0.50527206  1
  Hf  Hf4  1  0.00042466  -0.00060491  0.25225151  1
  Hf  Hf5  1  0.19931735  0.19671023  0.73457975  1
  Hf  Hf6  1  0.50670322  0.10772893  0.62431140  1
  Hf  Hf7  1  0.79925267  0.00828538  -0.00433070  1
  Hf  Hf8  1  0.70451679  0.90086330  0.62474735  1
  Hf  Hf9  1  0.41311021  0.21644076  0.74660338  1
  Hf  Hf10  1  0.61224983  0.60417109  0.24119464  1
  Hf  Hf11  1  0.90498626  0.89045117  0.12553379  1
  Hf  Hf12  1  0.79052459  0.00356243  0.49434035  1
  Hf  Hf13  1  0.29172886  0.90384313  0.13246274  1
  Hf  Hf14  1  0.41280488  0.20558836  -0.00016380  1
  Hf  Hf15  1  0.30278667  0.10209717  0.86538901  1
  Hf  Hf16  1  0.68686850  0.29440483  0.37076597  1
  Hf  Hf17  1  0.01913634  0.80042712  -0.00984664  1
  Hf  Hf18  1  0.30011787  0.90015408  0.85999398  1
  Hf  Hf19  1  0.20897737  0.40969282  0.26801889  1
  Hf  Hf20  1  0.00275283  0.79798362  0.26166514  1
  Hf  Hf21  1  0.19696048  -0.00983646  -0.00483042  1
  Hf  Hf22  1  0.90060311  0.29937455  0.13694118  1
  Hf  Hf23  1  0.51151548  0.71156778  0.12674209  1
  Hf  Hf24  1  0.60826592  0.78538943  0.74639949  1
  Hf  Hf25  1  0.90778620  0.69434076  0.86786342  1
  Hf  Hf26  1  0.79351335  0.20728389  0.00482332  1
  Hf  Hf27  1  0.09023413  0.88394869  0.62407788  1
  Hf  Hf28  1  0.30731697  0.30869952  0.61895376  1
  Hf  Hf29  1  0.19462875  0.20655605  0.00405492  1
  Hf  Hf30  1  0.80341462  0.78653732  0.25524923  1
  Hf  Hf31  1  0.29341594  0.30902033  0.87312458  1
  Hf  Hf32  1  0.80932933  0.81279231  0.75927932  1
  Hf  Hf33  1  0.50575076  0.50299567  0.37009950  1
  Hf  Hf34  1  0.50999418  0.92130119  0.12376804  1
  Hf  Hf35  1  0.49895140  0.90107693  0.62891297  1
  Hf  Hf36  1  0.11228905  0.69234217  0.12474036  1
  Hf  Hf37  1  0.09979817  0.10556891  0.87050510  1
  Hf  Hf38  1  0.39530358  0.61115290  0.00758541  1
  Hf  Hf39  1  0.78098270  0.60893985  0.75325928  1
  Zr  Zr40  1  0.18645546  0.39784871  0.74775751  1
  Zr  Zr41  1  0.40419163  0.40769883  -0.00049706  1
  Zr  Zr42  1  -0.01148226  -0.00864216  0.75396386  1
  Zr  Zr43  1  0.78373043  0.19172060  0.24318614  1
  Zr  Zr44  1  0.79098763  0.20352138  0.50501008  1
  Zr  Zr45  1  0.79236074  0.19557226  0.74864897  1
  Zr  Zr46  1  0.91110102  0.71615604  0.62319247  1
  Zr  Zr47  1  0.78727215  0.40164054  0.74968209  1
  Zr  Zr48  1  0.21655718  0.59163474  0.51617940  1
  Zr  Zr49  1  0.40463143  0.80711675  -0.00557649  1
  Zr  Zr50  1  0.70464735  0.68676778  0.38930004  1
  Zr  Zr51  1  0.39074672  0.02759510  0.24369894  1
  Zr  Zr52  1  0.49311371  0.11561638  0.37836997  1
  Zr  Zr53  1  0.40463152  0.80872203  0.25525044  1
  Zr  Zr54  1  0.30295146  0.51528008  0.86700777  1
  Zr  Zr55  1  0.29417383  0.10997682  0.39419128  1
  Zr  Zr56  1  0.90426329  0.31652912  0.62551060  1
  Zr  Zr57  1  0.00398286  0.59694504  0.00012545  1
  Zr  Zr58  1  0.67264200  0.49564264  0.87808562  1
  Zr  Zr59  1  0.50445177  0.70501610  0.37054200  1
  Zr  Zr60  1  0.00308053  0.21196682  0.74177980  1
  Zr  Zr61  1  0.39912299  0.01029788  0.00089531  1
  Zr  Zr62  1  0.89723381  0.49760116  0.12035989  1
  Zr  Zr63  1  0.89104697  0.51710572  0.62145209  1
  Zr  Zr64  1  -0.00512816  -0.00335331  -0.00732172  1
  Zr  Zr65  1  0.20539976  0.18953501  0.24816094  1
  Zr  Zr66  1  -0.00023836  0.19972437  0.50721834  1
  Zr  Zr67  1  0.69321651  0.89232906  0.10396274  1
  Zr  Zr68  1  0.10001803  0.09280207  0.12954437  1
  Zr  Zr69  1  0.01053327  0.60162825  0.25231168  1
  Zr  Zr70  1  0.09286200  0.48725532  0.62072536  1
  Zr  Zr71  1  0.78148788  -0.01495224  0.25172500  1
  Zr  Zr72  1  0.09208010  0.09089230  0.37897638  1
  Zr  Zr73  1  0.50142941  0.68198057  0.86947077  1
  Zr  Zr74  1  0.42552196  0.60276910  0.51748218  1
  Zr  Zr75  1  0.29708111  0.67886742  0.37224997  1
  Zr  Zr76  1  0.89990358  0.49111815  0.87346402  1
  Zr  Zr77  1  0.89070934  0.30395511  0.36856987  1
  Zr  Zr78  1  0.00359388  0.40051652  0.26326642  1
  Zr  Zr79  1  0.28927182  0.51019338  0.12091714  1
  Ta  Ta80  1  0.90559293  0.90535767  0.38757833  1
  Ta  Ta81  1  0.50383535  0.49598775  0.13182520  1
  Ta  Ta82  1  0.60083216  0.38869516  0.01004932  1
  Ta  Ta83  1  0.51223452  0.31057190  0.87181301  1
  Ta  Ta84  1  0.19782226  0.60735822  0.73548890  1
  Ta  Ta85  1  0.51371731  0.91910993  0.37821811  1
  Ta  Ta86  1  -0.00782837  0.19794862  -0.00044276  1
  Ta  Ta87  1  0.50892183  0.10686782  0.86826185  1
  Ta  Ta88  1  0.49285470  0.30531583  0.37095564  1
  Ta  Ta89  1  0.00137483  0.40679165  0.48542000  1
  Ta  Ta90  1  0.40531350  0.79843995  0.74651179  1
  Ta  Ta91  1  0.89175088  0.10253493  0.36899858  1
  Ta  Ta92  1  0.70629880  0.49133618  0.37110532  1
  Ta  Ta93  1  0.19223623  0.78872694  0.49691684  1
  Ta  Ta94  1  0.29924423  0.90213913  0.62846318  1
  Ta  Ta95  1  0.20247466  0.39167572  0.48985967  1
  Ta  Ta96  1  0.78508827  0.41111124  0.50464866  1
  Ta  Ta97  1  0.70064043  0.68394553  0.61105386  1
  Ta  Ta98  1  0.61505778  0.81814474  0.25687670  1
  Ta  Ta99  1  0.80907126  0.59370794  0.24715183  1
  Ta  Ta100  1  0.60369330  0.00119112  0.75831978  1
  Ta  Ta101  1  0.10660306  0.48613140  0.11763522  1
  Ta  Ta102  1  0.30448291  0.10077742  0.61449364  1
  Ta  Ta103  1  0.90675918  0.70103751  0.38902716  1
  Ta  Ta104  1  0.39075323  0.80634440  0.49877100  1
  Ta  Ta105  1  0.71495159  0.69420899  0.11274934  1
  Ta  Ta106  1  0.39723559  0.59201275  0.24391064  1
  Ta  Ta107  1  0.29871819  0.90478214  0.37689903  1
  Ta  Ta108  1  0.66553190  0.09981756  0.11571690  1
  Ta  Ta109  1  0.68034268  0.08458068  0.37462713  1
  Ta  Ta110  1  0.19461931  0.79982739  0.26576779  1
  Ta  Ta111  1  0.30542143  0.71073924  0.62933117  1
  Ta  Ta112  1  0.01453857  0.61557474  0.49883637  1
  Ta  Ta113  1  0.00760096  0.38326032  -0.00180952  1
  Ta  Ta114  1  0.69320406  0.90104030  0.88360618  1
  Ta  Ta115  1  0.89623145  0.51036048  0.38422050  1
  Ta  Ta116  1  0.40559088  -0.00217011  0.50437994  1
  Ta  Ta117  1  0.11353399  0.51314711  0.38430929  1
  Ta  Ta118  1  0.69595065  0.70059344  0.89082195  1
  Ta  Ta119  1  0.67628497  0.30372335  0.62758122  1
  Ti  Ti120  1  0.69507416  0.30000527  0.12986060  1
  Ti  Ti121  1  0.20016168  0.79612021  0.74359617  1
  Ti  Ti122  1  0.59313348  0.20159040  0.50096270  1
  Ti  Ti123  1  0.79709832  0.39714024  -0.00390707  1
  Ti  Ti124  1  0.80256275  0.79907348  0.49603134  1
  Ti  Ti125  1  0.10418179  0.28869911  0.37949413  1
  Ti  Ti126  1  0.40198773  0.40413223  0.49703425  1
  Ti  Ti127  1  0.60420649  0.39682643  0.24531680  1
  Ti  Ti128  1  0.09405217  0.29691451  0.13455867  1
  Ti  Ti129  1  0.31647397  0.50025653  0.63959469  1
  Ti  Ti130  1  0.21270371  0.78540142  -0.00543887  1
  Ti  Ti131  1  0.79828567  0.59397885  -0.00046133  1
  Ti  Ti132  1  0.58091052  0.57698645  0.73154038  1
  Ti  Ti133  1  0.69077602  0.10425202  0.88006816  1
  Ti  Ti134  1  0.50597566  0.90112740  0.87134927  1
  Ti  Ti135  1  0.59619817  0.59224445  0.00886089  1
  Ti  Ti136  1  0.69595700  0.09772613  0.62800371  1
  Ti  Ti137  1  0.50792096  0.29076309  0.13570478  1
  Ti  Ti138  1  0.10556781  0.48940299  0.88117501  1
  Ti  Ti139  1  0.79476851  0.00197549  0.75918820  1
  Ti  Ti140  1  0.59328958  0.40309378  0.50156591  1
  Ti  Ti141  1  0.11651843  0.68649040  0.87316990  1
  Ti  Ti142  1  0.19791001  -0.00160671  0.73789582  1
  Ti  Ti143  1  0.89535787  0.10376790  0.87237365  1
  Ti  Ti144  1  0.40179887  0.00491369  0.74532888  1
  Ti  Ti145  1  0.30830027  0.29672146  0.38391987  1
  Ti  Ti146  1  0.30097372  0.70266275  0.86004109  1
  Ti  Ti147  1  0.09426067  0.09471627  0.61938355  1
  Ti  Ti148  1  0.89323979  0.09366637  0.62703596  1
  Ti  Ti149  1  0.29934770  0.70574718  0.13766166  1
  Ti  Ti150  1  0.69466921  0.29416264  0.87348783  1
  Ti  Ti151  1  0.10521421  0.89155164  0.12958426  1
  Ti  Ti152  1  0.00988490  0.59048771  0.75081362  1
  Ti  Ti153  1  0.40328753  0.39854958  0.25073791  1
  Ti  Ti154  1  0.01282023  0.78817416  0.75787705  1
  Ti  Ti155  1  0.90520064  0.29795962  0.87221117  1
  Ti  Ti156  1  0.89611451  0.10128491  0.13148014  1
  Ti  Ti157  1  0.90034045  0.90853190  0.60939581  1
  Ti  Ti158  1  0.10387281  0.89434892  0.86291783  1
  Ti  Ti159  1  0.70194007  0.49217891  0.12347551  1
  Mo  Mo160  1  0.61444929  0.58048145  0.50925838  1
  Mo  Mo161  1  0.41252381  0.41272706  0.75387880  1
  Mo  Mo162  1  0.49841657  0.30172201  0.61538559  1
  Mo  Mo163  1  0.58595664  0.38768649  0.74804549  1
  Mo  Mo164  1  0.31467163  0.48612703  0.37834898  1
  Mo  Mo165  1  0.60528242  0.19633345  0.75119534  1
  Mo  Mo166  1  0.49681818  0.49911922  0.87725815  1
  Mo  Mo167  1  0.78868526  0.41124469  0.24974976  1
  Mo  Mo168  1  0.19820717  -0.01761061  0.25754822  1
  Mo  Mo169  1  0.10274302  0.69810842  0.37992148  1
  Mo  Mo170  1  0.59880565  0.00213628  0.50388823  1
  Mo  Mo171  1  -0.00425398  0.19662057  0.25298200  1
  Mo  Mo172  1  0.29901767  0.10405895  0.12206409  1
  Mo  Mo173  1  0.19858219  0.20259884  0.51273960  1
  Mo  Mo174  1  0.10075590  0.89566431  0.38368160  1
  Mo  Mo175  1  0.69399108  0.49407279  0.62425280  1
  Mo  Mo176  1  0.00497202  0.80922662  0.49201047  1
  Mo  Mo177  1  0.50182110  0.47919883  0.62443547  1
  Mo  Mo178  1  0.60135202  0.20776200  -0.00293448  1
  Mo  Mo179  1  0.40014336  0.60614291  0.73596011  1
  Mo  Mo180  1  0.39633619  0.22053631  0.24823407  1
  Mo  Mo181  1  0.59257855  0.00633816  -0.01853715  1
  Mo  Mo182  1  0.49529388  0.11449398  0.12555118  1
  Mo  Mo183  1  0.60147801  0.79492986  -0.00810141  1
  Mo  Mo184  1  0.69720045  0.89393019  0.38368287  1
  Mo  Mo185  1  0.20418209  0.60008657  0.25328431  1
  Mo  Mo186  1  0.40247898  0.21083075  0.50659776  1
  Mo  Mo187  1  0.09211745  0.29996421  0.87843344  1
  Mo  Mo188  1  0.89685417  0.69776070  0.12304377  1
  Mo  Mo189  1  0.19988922  0.60833613  -0.00789684  1
  Mo  Mo190  1  0.90233041  0.90420648  0.86953309  1
  Mo  Mo191  1  0.58817326  0.20017325  0.24828985  1
  Mo  Mo192  1  0.10401924  0.29865073  0.60819655  1
  Mo  Mo193  1  0.59835867  0.00488018  0.24999497  1
  Mo  Mo194  1  -0.01181940  0.00283900  0.50482490  1
  Mo  Mo195  1  -0.00134500  0.40361224  0.75939296  1
  Mo  Mo196  1  0.80686072  0.59869080  0.50060183  1
  Mo  Mo197  1  0.18969490  0.40350303  -0.00452942  1
  Mo  Mo198  1  0.50221044  0.69732069  0.63030449  1
  Mo  Mo199  1  0.10323370  0.69671859  0.63020701  1
