# generated using pymatgen
data_HfZrTaTiMo
_symmetry_space_group_name_H-M   'P 1'
_cell_length_a   15.21303027
_cell_length_b   15.19922291
_cell_length_c   16.82536737
_cell_angle_alpha   90.04775596
_cell_angle_beta   90.01293186
_cell_angle_gamma   89.91073805
_symmetry_Int_Tables_number   1
_chemical_formula_structural   HfZrTaTiMo
_chemical_formula_sum   'Hf40 Zr40 Ta40 Ti40 Mo40'
_cell_volume   3890.46023164
_cell_formula_units_Z   40
loop_
 _symmetry_equiv_pos_site_id
 _symmetry_equiv_pos_as_xyz
  1  'x, y, z'
loop_
 _atom_site_type_symbol
 _atom_site_label
 _atom_site_symmetry_multiplicity
 _atom_site_fract_x
 _atom_site_fract_y
 _atom_site_fract_z
 _atom_site_occupancy
  Hf  Hf0  1  0.90126969  0.30194637  0.61940485  1
  Hf  Hf1  1  0.20273487  0.20775557  -0.01151269  1
  Hf  Hf2  1  0.01156000  0.19482979  0.24236770  1
  Hf  Hf3  1  0.38758614  0.19998897  0.26629692  1
  Hf  Hf4  1  0.71355587  0.49863402  0.87948467  1
  Hf  Hf5  1  0.20964117  0.39334677  0.50620031  1
  Hf  Hf6  1  0.58374927  0.00816279  -0.01169706  1
  Hf  Hf7  1  0.51752467  0.28394934  0.87259730  1
  Hf  Hf8  1  0.09995373  0.89993481  0.64695382  1
  Hf  Hf9  1  0.00307277  0.61341256  0.25499981  1
  Hf  Hf10  1  0.90643422  0.88389459  0.86880647  1
  Hf  Hf11  1  0.10129345  0.71789425  0.38815136  1
  Hf  Hf12  1  0.10561459  0.28893468  0.63377069  1
  Hf  Hf13  1  0.71421272  0.88866870  0.39755806  1
  Hf  Hf14  1  0.88945577  0.71176952  0.38917820  1
  Hf  Hf15  1  0.78912741  0.20484144  0.01440664  1
  Hf  Hf16  1  0.78735233  0.59652366  0.49607213  1
  Hf  Hf17  1  0.79669914  0.61180261  0.24395734  1
  Hf  Hf18  1  0.51078598  0.49899978  0.63436254  1
  Hf  Hf19  1  0.90652117  0.29064836  0.36413354  1
  Hf  Hf20  1  0.31158635  0.91978207  0.12747508  1
  Hf  Hf21  1  0.50450055  0.88131294  0.39015835  1
  Hf  Hf22  1  0.48985584  0.29147301  0.13135473  1
  Hf  Hf23  1  0.50057409  0.69374384  0.87817953  1
  Hf  Hf24  1  0.19872597  0.40868996  -0.00663999  1
  Hf  Hf25  1  0.42008774  0.80371154  0.24226030  1
  Hf  Hf26  1  0.19695794  0.81030647  -0.00322495  1
  Hf  Hf27  1  0.40915429  0.19028165  -0.00649190  1
  Hf  Hf28  1  0.10143113  0.09597342  0.63518997  1
  Hf  Hf29  1  0.90257755  0.89360605  0.61397746  1
  Hf  Hf30  1  0.60712468  0.38036339  0.00468401  1
  Hf  Hf31  1  0.89433692  0.10123745  0.87795622  1
  Hf  Hf32  1  0.30044481  0.49548342  0.36093152  1
  Hf  Hf33  1  0.48400356  0.08756261  0.38732154  1
  Hf  Hf34  1  0.59337127  0.00101028  0.74916841  1
  Hf  Hf35  1  0.69835663  0.10454707  0.61050141  1
  Hf  Hf36  1  0.79882993  0.60124339  0.74388304  1
  Hf  Hf37  1  0.39195517  0.80602382  0.75907486  1
  Hf  Hf38  1  0.50266475  0.10102545  0.60422118  1
  Hf  Hf39  1  0.40024360  0.40478778  0.50684721  1
  Zr  Zr40  1  0.09307693  0.49329605  0.63004163  1
  Zr  Zr41  1  0.00349704  0.38555087  0.49084996  1
  Zr  Zr42  1  0.90617468  0.10291070  0.61172878  1
  Zr  Zr43  1  0.19590779  0.80679797  0.24717451  1
  Zr  Zr44  1  0.49684316  0.49085637  0.87348621  1
  Zr  Zr45  1  0.21527946  0.20295531  0.76313974  1
  Zr  Zr46  1  0.70297090  0.49028152  0.62100101  1
  Zr  Zr47  1  0.69225816  0.28850340  0.15240674  1
  Zr  Zr48  1  0.68913673  0.12809047  0.86824473  1
  Zr  Zr49  1  0.80293342  0.00731614  0.74468523  1
  Zr  Zr50  1  0.37727514  -0.00915551  0.51438334  1
  Zr  Zr51  1  0.69139642  0.08777460  0.39404486  1
  Zr  Zr52  1  0.89825356  0.49816961  0.36865370  1
  Zr  Zr53  1  0.20858293  0.59904842  0.50792799  1
  Zr  Zr54  1  0.09397949  0.70493770  0.62664166  1
  Zr  Zr55  1  0.19717422  0.02485767  0.25764174  1
  Zr  Zr56  1  0.50628356  0.29257143  0.62061175  1
  Zr  Zr57  1  0.79814851  0.79349645  0.74275632  1
  Zr  Zr58  1  -0.00640516  0.41833868  0.00180617  1
  Zr  Zr59  1  0.49647016  0.51076377  0.37077606  1
  Zr  Zr60  1  0.89746356  0.31280634  0.13937815  1
  Zr  Zr61  1  0.21637660  0.81613176  0.50785826  1
  Zr  Zr62  1  0.00441682  -0.00536147  -0.00022047  1
  Zr  Zr63  1  0.89896068  0.08328010  0.39041264  1
  Zr  Zr64  1  0.19749687  0.60861767  0.24575795  1
  Zr  Zr65  1  0.29657942  0.49281826  0.13024408  1
  Zr  Zr66  1  0.30409523  0.91202228  0.36473982  1
  Zr  Zr67  1  0.40160620  0.61406621  0.51502066  1
  Zr  Zr68  1  0.40285404  0.80990917  -0.01047968  1
  Zr  Zr69  1  0.70560377  0.49145737  0.13924308  1
  Zr  Zr70  1  0.51279232  0.70443336  0.11265251  1
  Zr  Zr71  1  0.39589094  0.00637089  0.74902718  1
  Zr  Zr72  1  0.60314746  -0.01995878  0.25558458  1
  Zr  Zr73  1  0.09722486  0.90626727  0.12364951  1
  Zr  Zr74  1  0.79204569  -0.00796182  -0.00172845  1
  Zr  Zr75  1  0.82050515  0.39895012  0.75248034  1
  Zr  Zr76  1  0.09324736  0.10123823  0.87058515  1
  Zr  Zr77  1  0.61225105  0.59615695  0.00395168  1
  Zr  Zr78  1  0.09148961  0.70390272  0.86140243  1
  Zr  Zr79  1  0.80007972  0.16821171  0.25068298  1
  Ta  Ta80  1  0.18894247  0.60789878  0.00329151  1
  Ta  Ta81  1  0.10576719  0.49279691  0.37211800  1
  Ta  Ta82  1  0.70143320  0.29468638  0.61777871  1
  Ta  Ta83  1  0.61442457  0.38498414  0.75544522  1
  Ta  Ta84  1  0.39437256  0.59841659  0.74531218  1
  Ta  Ta85  1  0.69625966  0.88740782  0.12199998  1
  Ta  Ta86  1  0.09649034  0.50670335  0.86423005  1
  Ta  Ta87  1  0.29642041  0.50787559  0.87100471  1
  Ta  Ta88  1  -0.00875110  -0.00053540  0.25019059  1
  Ta  Ta89  1  0.79895063  0.21124671  0.49034846  1
  Ta  Ta90  1  0.68878421  0.69894322  0.62129907  1
  Ta  Ta91  1  0.29973389  0.70396555  0.11784358  1
  Ta  Ta92  1  0.60389829  0.60187978  0.75495659  1
  Ta  Ta93  1  0.59884349  0.79992194  0.75319637  1
  Ta  Ta94  1  0.69653975  0.29762470  0.36319664  1
  Ta  Ta95  1  0.79551107  0.80572586  0.24839255  1
  Ta  Ta96  1  0.31270486  0.31234705  0.87385785  1
  Ta  Ta97  1  0.61037725  0.80832231  -0.01198908  1
  Ta  Ta98  1  0.32157228  0.70521478  0.37208128  1
  Ta  Ta99  1  0.69231770  0.89871936  0.60924569  1
  Ta  Ta100  1  -0.01250876  0.59052921  0.74579286  1
  Ta  Ta101  1  0.82277305  0.59172855  0.01476628  1
  Ta  Ta102  1  0.39985287  0.39762538  -0.00044964  1
  Ta  Ta103  1  0.89447128  0.30098803  0.88053736  1
  Ta  Ta104  1  0.49671066  0.88798394  0.61779331  1
  Ta  Ta105  1  0.10714778  0.11062586  0.11670427  1
  Ta  Ta106  1  0.29960140  0.11023509  0.12253063  1
  Ta  Ta107  1  0.69457754  0.49812836  0.36085412  1
  Ta  Ta108  1  0.20645517  0.60294487  0.74090091  1
  Ta  Ta109  1  -0.01806711  0.20556095  0.75547340  1
  Ta  Ta110  1  0.90010900  0.69467090  0.60900491  1
  Ta  Ta111  1  0.69853572  0.89851947  0.87104968  1
  Ta  Ta112  1  0.68631207  0.08411203  0.12861999  1
  Ta  Ta113  1  -0.00917894  0.81187216  0.25354170  1
  Ta  Ta114  1  0.58028240  0.39646989  0.25876431  1
  Ta  Ta115  1  0.39573088  0.39409589  0.74261696  1
  Ta  Ta116  1  0.91207106  0.70402706  0.12432759  1
  Ta  Ta117  1  0.40473120  0.60474572  0.23934973  1
  Ta  Ta118  1  0.10828077  0.30888027  0.12510378  1
  Ta  Ta119  1  0.10027151  0.89790378  0.85375633  1
  Ti  Ti120  1  0.89964839  0.68061059  0.88126842  1
  Ti  Ti121  1  0.29595201  0.11872594  0.62240122  1
  Ti  Ti122  1  0.08979970  0.51176058  0.12762389  1
  Ti  Ti123  1  0.29695945  0.30041044  0.12783840  1
  Ti  Ti124  1  0.00096636  0.78752143  0.00108573  1
  Ti  Ti125  1  0.19468233  0.01223493  0.49552602  1
  Ti  Ti126  1  0.09283272  0.31130250  0.86655668  1
  Ti  Ti127  1  -0.00077301  0.21027592  0.00637371  1
  Ti  Ti128  1  0.50883452  0.90781633  0.12106230  1
  Ti  Ti129  1  0.90707833  0.89667450  0.39075604  1
  Ti  Ti130  1  0.80351574  0.40212623  0.00321958  1
  Ti  Ti131  1  0.59483672  0.59168437  0.49754166  1
  Ti  Ti132  1  0.20732191  0.00851319  -0.01259300  1
  Ti  Ti133  1  0.90069753  0.09000653  0.12070108  1
  Ti  Ti134  1  0.00312824  0.59649557  0.49318085  1
  Ti  Ti135  1  0.59657201  0.61337925  0.24241226  1
  Ti  Ti136  1  0.49474026  0.49369365  0.12731198  1
  Ti  Ti137  1  0.49802577  0.70176516  0.63766075  1
  Ti  Ti138  1  0.21265649  -0.00325448  0.75956269  1
  Ti  Ti139  1  0.01117100  0.40444449  0.24982386  1
  Ti  Ti140  1  0.90238135  0.49814642  0.61235380  1
  Ti  Ti141  1  0.68091756  0.69884133  0.37548735  1
  Ti  Ti142  1  0.29187147  0.69848774  0.87642695  1
  Ti  Ti143  1  0.01579484  -0.01086571  0.49791249  1
  Ti  Ti144  1  0.58937766  0.77897165  0.50651234  1
  Ti  Ti145  1  0.20749857  0.40410007  0.74780654  1
  Ti  Ti146  1  0.38464866  0.21287282  0.48673258  1
  Ti  Ti147  1  0.39120968  0.00069176  -0.02669580  1
  Ti  Ti148  1  0.89226826  0.89734213  0.12323192  1
  Ti  Ti149  1  0.58591367  0.18731567  0.26636912  1
  Ti  Ti150  1  0.19692691  0.20398726  0.48937655  1
  Ti  Ti151  1  0.70702026  0.70081416  0.87766132  1
  Ti  Ti152  1  0.80114725  0.78811910  0.00200831  1
  Ti  Ti153  1  0.09274853  0.10933904  0.38107962  1
  Ti  Ti154  1  0.38907360  0.59314732  0.00355430  1
  Ti  Ti155  1  0.49060637  0.09223274  0.13499263  1
  Ti  Ti156  1  0.19813447  0.21855590  0.25981416  1
  Ti  Ti157  1  0.60290762  0.38985974  0.48420765  1
  Ti  Ti158  1  0.41113898  0.19801651  0.75293233  1
  Ti  Ti159  1  0.79367638  0.39830828  0.48596178  1
  Mo  Mo160  1  0.79401894  0.21330184  0.74529392  1
  Mo  Mo161  1  0.61452643  0.78789954  0.24996661  1
  Mo  Mo162  1  0.28935319  0.90139429  0.87539558  1
  Mo  Mo163  1  0.30364776  0.10708344  0.87438889  1
  Mo  Mo164  1  0.00982977  0.39645616  0.75731827  1
  Mo  Mo165  1  0.71076013  0.30466231  0.87990937  1
  Mo  Mo166  1  0.80359164  -0.00377506  0.50996928  1
  Mo  Mo167  1  0.39721782  0.39827697  0.24629189  1
  Mo  Mo168  1  0.50671794  0.89766558  0.87034555  1
  Mo  Mo169  1  0.00622442  0.60822209  0.00346089  1
  Mo  Mo170  1  -0.00162231  0.00066177  0.75517392  1
  Mo  Mo171  1  0.30260767  0.49674743  0.63934791  1
  Mo  Mo172  1  0.79604069  0.39987410  0.26266085  1
  Mo  Mo173  1  0.40010634  0.79246619  0.50941215  1
  Mo  Mo174  1  0.60452697  0.20135331  0.74040872  1
  Mo  Mo175  1  0.19238211  0.39722689  0.24578450  1
  Mo  Mo176  1  0.71402192  0.70740815  0.11514769  1
  Mo  Mo177  1  0.59606516  0.20858885  0.48201781  1
  Mo  Mo178  1  0.30485878  0.29363853  0.62866530  1
  Mo  Mo179  1  0.20672841  0.79740288  0.75084957  1
  Mo  Mo180  1  0.90874709  0.50464492  0.87783594  1
  Mo  Mo181  1  0.79283168  0.79033001  0.50951348  1
  Mo  Mo182  1  -0.01003972  0.78786700  0.74976386  1
  Mo  Mo183  1  0.59274102  -0.00968617  0.50687946  1
  Mo  Mo184  1  0.00508972  0.80026767  0.49825817  1
  Mo  Mo185  1  0.28629989  0.11067396  0.38410463  1
  Mo  Mo186  1  0.59945567  0.19097384  0.01586534  1
  Mo  Mo187  1  0.90697453  0.50460679  0.14023607  1
  Mo  Mo188  1  0.10523464  0.30291128  0.36927591  1
  Mo  Mo189  1  0.30319047  0.70937223  0.63785164  1
  Mo  Mo190  1  0.08726245  0.91385782  0.37422405  1
  Mo  Mo191  1  0.50213665  0.69626518  0.37141425  1
  Mo  Mo192  1  0.49768021  0.10024992  0.86766475  1
  Mo  Mo193  1  0.09989025  0.70611086  0.12116098  1
  Mo  Mo194  1  0.01215086  0.19243437  0.49699720  1
  Mo  Mo195  1  0.29457003  0.30780071  0.37328061  1
  Mo  Mo196  1  0.29321311  0.90716710  0.63242978  1
  Mo  Mo197  1  0.49842533  0.30117358  0.37935537  1
  Mo  Mo198  1  0.40599270  0.00773868  0.24589601  1
  Mo  Mo199  1  0.81159659  -0.02040300  0.24374021  1
