# generated using pymatgen
data_HfZrTaTiMo
_symmetry_space_group_name_H-M   'P 1'
_cell_length_a   15.21464950
_cell_length_b   15.21678031
_cell_length_c   16.83635262
_cell_angle_alpha   89.98952777
_cell_angle_beta   90.06587951
_cell_angle_gamma   89.88622861
_symmetry_Int_Tables_number   1
_chemical_formula_structural   HfZrTaTiMo
_chemical_formula_sum   'Hf40 Zr40 Ta40 Ti40 Mo40'
_cell_volume   3897.90800058
_cell_formula_units_Z   40
loop_
 _symmetry_equiv_pos_site_id
 _symmetry_equiv_pos_as_xyz
  1  'x, y, z'
loop_
 _atom_site_type_symbol
 _atom_site_label
 _atom_site_symmetry_multiplicity
 _atom_site_fract_x
 _atom_site_fract_y
 _atom_site_fract_z
 _atom_site_occupancy
  Hf  Hf0  1  0.82269908  0.79703702  0.74364982  1
  Hf  Hf1  1  0.90077634  0.50677399  0.61381303  1
  Hf  Hf2  1  0.89069328  0.30785091  0.88980669  1
  Hf  Hf3  1  0.29706801  0.29497491  0.38538782  1
  Hf  Hf4  1  0.09971898  0.90211432  0.13876195  1
  Hf  Hf5  1  0.19303739  0.40188760  0.75698193  1
  Hf  Hf6  1  0.20119751  0.60386452  0.00002329  1
  Hf  Hf7  1  0.50757289  0.48212841  0.64159396  1
  Hf  Hf8  1  0.49866508  0.09784626  0.87492972  1
  Hf  Hf9  1  0.89816870  0.29211067  0.11276078  1
  Hf  Hf10  1  0.71015119  0.50576698  0.88770003  1
  Hf  Hf11  1  0.49236232  0.87333428  0.37354667  1
  Hf  Hf12  1  -0.01541613  0.00130214  0.00481247  1
  Hf  Hf13  1  0.29797625  0.30104479  0.89136074  1
  Hf  Hf14  1  0.30909995  0.50683640  0.36097451  1
  Hf  Hf15  1  0.90870166  0.29654677  0.61823386  1
  Hf  Hf16  1  0.49042684  0.28343888  0.61515446  1
  Hf  Hf17  1  0.39826892  0.78533021  0.51961931  1
  Hf  Hf18  1  0.28682851  0.09686288  0.13248609  1
  Hf  Hf19  1  0.29997772  0.11821301  0.60732949  1
  Hf  Hf20  1  0.71918542  0.10046081  0.35821096  1
  Hf  Hf21  1  0.58658277  0.20593918  0.24410244  1
  Hf  Hf22  1  0.81547487  0.59406753  0.23832350  1
  Hf  Hf23  1  0.80376384  -0.00453495  0.49402928  1
  Hf  Hf24  1  0.58109235  0.40368551  0.48841976  1
  Hf  Hf25  1  -0.00435532  0.21084383  0.24485381  1
  Hf  Hf26  1  0.61363019  0.59591696  0.51216257  1
  Hf  Hf27  1  0.09286605  0.50736700  0.87821007  1
  Hf  Hf28  1  0.29957521  0.30314530  0.12431744  1
  Hf  Hf29  1  0.09399348  0.69133001  0.63005635  1
  Hf  Hf30  1  0.39965174  0.38571162  0.75700451  1
  Hf  Hf31  1  0.00764930  0.79392045  0.00778493  1
  Hf  Hf32  1  0.59823010  0.19025093  0.01608632  1
  Hf  Hf33  1  0.69571061  0.11069992  0.62996882  1
  Hf  Hf34  1  0.21076862  0.00525402  0.74044156  1
  Hf  Hf35  1  0.39584977  -0.01235199  0.50402277  1
  Hf  Hf36  1  0.60646469  -0.00621848  0.00359316  1
  Hf  Hf37  1  0.60010007  0.79282687  0.51674588  1
  Hf  Hf38  1  0.38182034  -0.01358380  0.26493073  1
  Hf  Hf39  1  0.30952674  0.10054026  0.88134866  1
  Zr  Zr40  1  0.91317723  0.48899310  0.37888949  1
  Zr  Zr41  1  0.08514616  0.89811442  0.62214842  1
  Zr  Zr42  1  0.10584301  0.51509222  0.13755554  1
  Zr  Zr43  1  0.69898593  0.30622067  0.35724819  1
  Zr  Zr44  1  0.60324345  0.19816105  0.48755457  1
  Zr  Zr45  1  0.91312557  0.70336036  0.35852312  1
  Zr  Zr46  1  0.79313163  0.40049163  0.49764402  1
  Zr  Zr47  1  0.50687986  0.66859897  0.35992118  1
  Zr  Zr48  1  0.19797745  0.80788201  0.74993246  1
  Zr  Zr49  1  0.49608208  0.70478516  0.12972972  1
  Zr  Zr50  1  0.10353361  0.48857813  0.62348843  1
  Zr  Zr51  1  0.59045469  0.00025672  0.25829727  1
  Zr  Zr52  1  0.41190643  0.58089649  0.50391766  1
  Zr  Zr53  1  0.70894181  0.71624537  0.36851693  1
  Zr  Zr54  1  -0.01036198  0.79797449  0.49597746  1
  Zr  Zr55  1  -0.00952627  -0.01080409  0.75210010  1
  Zr  Zr56  1  0.60086150  -0.00722362  0.48758339  1
  Zr  Zr57  1  0.69513231  0.29925496  0.88640539  1
  Zr  Zr58  1  0.50928209  0.90259619  0.86613119  1
  Zr  Zr59  1  0.29005433  0.31797853  0.60543805  1
  Zr  Zr60  1  0.40448341  0.81160012  0.73611306  1
  Zr  Zr61  1  0.40962178  0.80082965  -0.01396897  1
  Zr  Zr62  1  0.41883627  0.38762014  0.25802914  1
  Zr  Zr63  1  0.08712852  0.91526213  0.37229267  1
  Zr  Zr64  1  0.70516499  0.90488648  0.12742992  1
  Zr  Zr65  1  0.31333492  0.89693578  0.11905072  1
  Zr  Zr66  1  0.49591533  0.29343485  0.89037751  1
  Zr  Zr67  1  0.20765567  0.79137303  -0.00815107  1
  Zr  Zr68  1  0.39885306  0.59822053  -0.00463784  1
  Zr  Zr69  1  0.19497465  -0.00653811  -0.00318298  1
  Zr  Zr70  1  0.08727245  0.11630658  0.62899192  1
  Zr  Zr71  1  0.51620594  0.69101881  0.86081616  1
  Zr  Zr72  1  0.21263952  0.81881466  0.26594125  1
  Zr  Zr73  1  0.20825837  0.60939749  0.48937059  1
  Zr  Zr74  1  0.69194773  0.50948538  0.35506563  1
  Zr  Zr75  1  0.09668210  0.10088638  0.86994154  1
  Zr  Zr76  1  0.19049911  0.20142218  0.00400191  1
  Zr  Zr77  1  0.70269060  0.90394181  0.63219262  1
  Zr  Zr78  1  0.27579761  0.09467957  0.37929762  1
  Zr  Zr79  1  -0.01856090  0.40612519  0.76005064  1
  Ta  Ta80  1  0.09432044  0.30381523  0.88493442  1
  Ta  Ta81  1  0.90450035  0.28316388  0.37877422  1
  Ta  Ta82  1  0.81293939  0.38860359  0.23844097  1
  Ta  Ta83  1  0.69728429  0.09705289  0.86882497  1
  Ta  Ta84  1  0.59676956  0.40847122  0.01402767  1
  Ta  Ta85  1  0.79859179  0.20774983  0.75113251  1
  Ta  Ta86  1  0.30587751  0.50204036  0.14193518  1
  Ta  Ta87  1  0.79642720  0.00260341  0.75620350  1
  Ta  Ta88  1  0.69193941  0.31110033  0.62906075  1
  Ta  Ta89  1  0.60681320  0.79887016  0.24686004  1
  Ta  Ta90  1  0.80516983  0.80202909  0.00236795  1
  Ta  Ta91  1  0.81287283  0.59538329  0.75299240  1
  Ta  Ta92  1  0.29480683  0.69203436  0.63965734  1
  Ta  Ta93  1  0.62311789  0.58103488  0.74459155  1
  Ta  Ta94  1  -0.01850836  0.01147269  0.24731966  1
  Ta  Ta95  1  0.91654373  0.70632213  0.13710582  1
  Ta  Ta96  1  0.60714366  0.60136347  0.00741291  1
  Ta  Ta97  1  0.09309082  0.89386501  0.87200470  1
  Ta  Ta98  1  0.88845337  0.10232195  0.87425640  1
  Ta  Ta99  1  0.20118868  0.21175848  0.75141937  1
  Ta  Ta100  1  0.89521389  0.89437219  0.88089834  1
  Ta  Ta101  1  0.78481334  0.40852563  0.74742270  1
  Ta  Ta102  1  0.70804195  0.70314003  0.12764168  1
  Ta  Ta103  1  0.70042123  0.29915638  0.12627194  1
  Ta  Ta104  1  0.39025150  0.19261672  0.25327892  1
  Ta  Ta105  1  0.90313930  0.69082051  0.88263381  1
  Ta  Ta106  1  0.09622370  0.69936668  0.86455419  1
  Ta  Ta107  1  0.30485342  0.50810819  0.63528274  1
  Ta  Ta108  1  0.20338195  0.80472347  0.49665154  1
  Ta  Ta109  1  0.50996716  0.49324146  0.86819372  1
  Ta  Ta110  1  0.18785519  0.00184639  0.50660421  1
  Ta  Ta111  1  0.16565466  0.21899042  0.49696207  1
  Ta  Ta112  1  -0.00418242  0.20749043  0.75936620  1
  Ta  Ta113  1  0.81203607  0.61299536  0.49867903  1
  Ta  Ta114  1  0.29062088  0.69272266  0.14424542  1
  Ta  Ta115  1  0.00295187  0.40808566  0.00626847  1
  Ta  Ta116  1  0.50230579  0.50153564  0.13393038  1
  Ta  Ta117  1  0.10239856  0.30638392  0.12423714  1
  Ta  Ta118  1  0.70292635  0.50072435  0.12787790  1
  Ta  Ta119  1  0.89110406  0.09476285  0.63197996  1
  Ti  Ti120  1  0.31668209  0.71131122  0.36351201  1
  Ti  Ti121  1  0.19306934  0.39347232  0.25907386  1
  Ti  Ti122  1  0.30690236  0.90800215  0.87474959  1
  Ti  Ti123  1  0.89340039  0.90421004  0.13308617  1
  Ti  Ti124  1  0.80357917  0.41368525  0.01384482  1
  Ti  Ti125  1  0.49333857  0.29946655  0.11606278  1
  Ti  Ti126  1  0.71698927  0.10025414  0.13989437  1
  Ti  Ti127  1  0.40133203  0.00128854  0.72834806  1
  Ti  Ti128  1  0.48235541  0.11057131  0.38035661  1
  Ti  Ti129  1  0.39499715  0.19170426  0.74618536  1
  Ti  Ti130  1  0.87971088  0.90041754  0.35658243  1
  Ti  Ti131  1  0.59422767  0.20550007  0.74993163  1
  Ti  Ti132  1  0.80411834  0.19413531  0.50103980  1
  Ti  Ti133  1  0.79752241  0.17623717  0.00387697  1
  Ti  Ti134  1  0.30599583  0.50639138  0.86570445  1
  Ti  Ti135  1  0.61336055  0.79347852  0.74160114  1
  Ti  Ti136  1  0.71080674  0.70201022  0.87462987  1
  Ti  Ti137  1  -0.00177008  0.40882874  0.24416678  1
  Ti  Ti138  1  0.50153757  0.09253443  0.61755855  1
  Ti  Ti139  1  0.49988953  0.68324302  0.64661388  1
  Ti  Ti140  1  -0.00301132  0.19737109  0.00075126  1
  Ti  Ti141  1  -0.00579331  0.60582026  0.75117586  1
  Ti  Ti142  1  0.39962438  0.41018120  0.00358451  1
  Ti  Ti143  1  0.01265491  0.59165032  0.49098133  1
  Ti  Ti144  1  0.09028382  0.10596131  0.13286749  1
  Ti  Ti145  1  0.50070143  0.90087657  0.12790876  1
  Ti  Ti146  1  0.20049976  0.41199007  0.00300999  1
  Ti  Ti147  1  -0.00122922  0.60022651  0.00838684  1
  Ti  Ti148  1  0.80124984  0.80188436  0.50861828  1
  Ti  Ti149  1  0.81005783  0.60682488  0.01418956  1
  Ti  Ti150  1  0.59567336  0.00101549  0.74456782  1
  Ti  Ti151  1  0.71909987  0.68717858  0.63076963  1
  Ti  Ti152  1  0.70394012  0.89710785  0.87013490  1
  Ti  Ti153  1  0.18809769  0.41551769  0.48381426  1
  Ti  Ti154  1  0.61158594  0.79382699  -0.00162367  1
  Ti  Ti155  1  -0.00941122  0.01176647  0.49859721  1
  Ti  Ti156  1  0.48102693  0.09264970  0.12409981  1
  Ti  Ti157  1  0.30120076  0.69261475  0.85079674  1
  Ti  Ti158  1  0.08423912  0.11995586  0.37159191  1
  Ti  Ti159  1  0.10631642  0.69675603  0.35921212  1
  Mo  Mo160  1  0.09753801  0.30110579  0.63087546  1
  Mo  Mo161  1  0.89752949  0.90619531  0.62009118  1
  Mo  Mo162  1  0.10129718  0.50566432  0.36137666  1
  Mo  Mo163  1  0.50416927  0.89870678  0.63236202  1
  Mo  Mo164  1  0.10485779  0.70732106  0.14105987  1
  Mo  Mo165  1  0.00113055  0.80621035  0.24602764  1
  Mo  Mo166  1  0.89629963  0.50923778  0.88836966  1
  Mo  Mo167  1  0.90754928  0.09388430  0.37571884  1
  Mo  Mo168  1  0.20087585  0.59837499  0.75473644  1
  Mo  Mo169  1  0.60560516  0.38987585  0.75534290  1
  Mo  Mo170  1  0.40508918  0.59362107  0.75293577  1
  Mo  Mo171  1  -0.01229908  0.19588003  0.49764225  1
  Mo  Mo172  1  0.79498918  -0.00353056  -0.01203352  1
  Mo  Mo173  1  0.89658419  0.09347829  0.11910324  1
  Mo  Mo174  1  0.40754956  0.80163357  0.24924448  1
  Mo  Mo175  1  0.40943611  0.00609153  0.00347395  1
  Mo  Mo176  1  0.80732881  0.19763442  0.24110294  1
  Mo  Mo177  1  0.29267056  0.90371922  0.61253930  1
  Mo  Mo178  1  0.18079705  0.01901439  0.25397928  1
  Mo  Mo179  1  0.69920124  0.89311508  0.37328845  1
  Mo  Mo180  1  0.19231529  0.20787117  0.24739663  1
  Mo  Mo181  1  0.40021426  0.19528575  0.01438358  1
  Mo  Mo182  1  0.01039148  0.59959015  0.24924788  1
  Mo  Mo183  1  0.39214582  0.40526648  0.49545778  1
  Mo  Mo184  1  -0.00445822  0.79169499  0.75722426  1
  Mo  Mo185  1  0.51041280  0.48848820  0.36094986  1
  Mo  Mo186  1  0.40205801  0.59935159  0.24426883  1
  Mo  Mo187  1  0.60626480  0.39660844  0.22859053  1
  Mo  Mo188  1  0.90428368  0.49894256  0.12120278  1
  Mo  Mo189  1  0.08951203  0.31334613  0.36877695  1
  Mo  Mo190  1  0.90458648  0.69701738  0.61946270  1
  Mo  Mo191  1  0.01581002  0.38384233  0.49355679  1
  Mo  Mo192  1  0.29327393  0.89641807  0.39225425  1
  Mo  Mo193  1  0.60803378  0.60011642  0.23096995  1
  Mo  Mo194  1  0.70654425  0.49893141  0.62347708  1
  Mo  Mo195  1  0.39498732  0.19840414  0.49170433  1
  Mo  Mo196  1  0.20542808  0.60325991  0.26349000  1
  Mo  Mo197  1  0.49389303  0.29140209  0.37648802  1
  Mo  Mo198  1  0.80338456  0.80541677  0.23967050  1
  Mo  Mo199  1  0.79971895  -0.00076225  0.25206927  1
