# generated using pymatgen
data_HfZrTaTiMo
_symmetry_space_group_name_H-M   'P 1'
_cell_length_a   15.22101053
_cell_length_b   15.20641151
_cell_length_c   16.83500082
_cell_angle_alpha   90.01295290
_cell_angle_beta   90.00399053
_cell_angle_gamma   89.93030151
_symmetry_Int_Tables_number   1
_chemical_formula_structural   HfZrTaTiMo
_chemical_formula_sum   'Hf40 Zr40 Ta40 Ti40 Mo40'
_cell_volume   3896.57494438
_cell_formula_units_Z   40
loop_
 _symmetry_equiv_pos_site_id
 _symmetry_equiv_pos_as_xyz
  1  'x, y, z'
loop_
 _atom_site_type_symbol
 _atom_site_label
 _atom_site_symmetry_multiplicity
 _atom_site_fract_x
 _atom_site_fract_y
 _atom_site_fract_z
 _atom_site_occupancy
  Hf  Hf0  1  0.89582250  0.10102468  0.86341785  1
  Hf  Hf1  1  0.87866451  0.89662129  0.62620480  1
  Hf  Hf2  1  0.91056308  0.30046606  0.13042506  1
  Hf  Hf3  1  0.69823009  0.70174510  0.11998914  1
  Hf  Hf4  1  0.19151739  0.80921490  0.26655305  1
  Hf  Hf5  1  0.00911853  0.19530964  0.50015336  1
  Hf  Hf6  1  0.49605807  0.89452464  0.37994201  1
  Hf  Hf7  1  0.18655795  0.79031121  0.75027527  1
  Hf  Hf8  1  0.19987499  0.19402644  -0.00331332  1
  Hf  Hf9  1  0.18504952  0.39521875  -0.01392083  1
  Hf  Hf10  1  0.20438799  0.40645603  0.49261303  1
  Hf  Hf11  1  0.30466007  0.51751725  0.86708236  1
  Hf  Hf12  1  0.19628937  -0.00670274  -0.00093267  1
  Hf  Hf13  1  0.79358997  0.80302519  -0.01262608  1
  Hf  Hf14  1  0.61312245  -0.00611978  0.49392617  1
  Hf  Hf15  1  0.71245884  0.69926668  0.63289966  1
  Hf  Hf16  1  0.00164371  -0.00019066  0.50745616  1
  Hf  Hf17  1  0.51394064  0.29819204  0.12678200  1
  Hf  Hf18  1  0.58433239  0.80942184  -0.00080952  1
  Hf  Hf19  1  0.51057071  0.29683958  0.38600278  1
  Hf  Hf20  1  0.90415169  0.90277438  0.86576764  1
  Hf  Hf21  1  0.51338613  0.49784427  0.63843898  1
  Hf  Hf22  1  0.91423824  0.52033389  0.62685617  1
  Hf  Hf23  1  0.48328852  0.10171920  0.39070196  1
  Hf  Hf24  1  0.71782597  0.49538286  0.64224909  1
  Hf  Hf25  1  0.40914321  -0.01319542  0.01228348  1
  Hf  Hf26  1  -0.00294519  0.01039682  -0.00016861  1
  Hf  Hf27  1  0.00149210  0.80044443  -0.00288718  1
  Hf  Hf28  1  0.39757965  0.39447603  0.50516921  1
  Hf  Hf29  1  0.69150968  0.10777046  0.13930223  1
  Hf  Hf30  1  0.50547073  0.50182100  0.85613104  1
  Hf  Hf31  1  0.31025231  0.08666146  0.87580550  1
  Hf  Hf32  1  0.90223894  0.30876000  0.86537837  1
  Hf  Hf33  1  0.61199584  0.59270497  0.50715859  1
  Hf  Hf34  1  0.58566613  0.00917664  0.25276085  1
  Hf  Hf35  1  0.69415233  0.29600427  0.60735808  1
  Hf  Hf36  1  0.79488106  0.60359989  0.25189202  1
  Hf  Hf37  1  0.79750928  0.80105403  0.76255282  1
  Hf  Hf38  1  0.40644711  0.42298714  0.00746715  1
  Hf  Hf39  1  0.50146579  0.28883928  0.61066218  1
  Zr  Zr40  1  0.18464718  0.41017762  0.76232324  1
  Zr  Zr41  1  0.80953677  0.19044483  0.48764412  1
  Zr  Zr42  1  0.51081369  0.09506278  0.60978981  1
  Zr  Zr43  1  0.20815547  0.20583030  0.75077670  1
  Zr  Zr44  1  0.27937638  0.70449351  0.61694900  1
  Zr  Zr45  1  0.80406686  0.40399400  0.26624757  1
  Zr  Zr46  1  0.80835338  0.59814869  -0.00138879  1
  Zr  Zr47  1  0.80011828  0.20145228  0.74198256  1
  Zr  Zr48  1  0.68367406  0.69378957  0.86595635  1
  Zr  Zr49  1  0.80994883  0.19955996  0.00073234  1
  Zr  Zr50  1  0.89714225  0.31260863  0.62084760  1
  Zr  Zr51  1  0.51734573  0.08743182  0.87878815  1
  Zr  Zr52  1  0.00344289  -0.00429630  0.73032395  1
  Zr  Zr53  1  -0.01922076  0.78668702  0.50348194  1
  Zr  Zr54  1  0.30603342  0.70590909  0.13940732  1
  Zr  Zr55  1  0.09894512  0.49285897  0.12741602  1
  Zr  Zr56  1  0.21554777  0.19476389  0.49374912  1
  Zr  Zr57  1  0.50274282  0.49778410  0.36992925  1
  Zr  Zr58  1  0.10881274  0.31389803  0.61819942  1
  Zr  Zr59  1  0.29775409  0.30844322  0.12413224  1
  Zr  Zr60  1  0.78853749  0.00404894  0.00446055  1
  Zr  Zr61  1  0.60565442  0.79827541  0.24926736  1
  Zr  Zr62  1  0.09101433  0.10353790  0.13543839  1
  Zr  Zr63  1  0.71260859  0.49368168  0.85572959  1
  Zr  Zr64  1  0.09076029  0.70868514  0.12960241  1
  Zr  Zr65  1  0.57883514  0.80383829  0.74792540  1
  Zr  Zr66  1  0.58126140  0.59282637  -0.00124250  1
  Zr  Zr67  1  0.20612195  -0.00580053  0.74224296  1
  Zr  Zr68  1  0.19325202  0.59785825  0.25042897  1
  Zr  Zr69  1  0.41131320  0.19487872  0.24238590  1
  Zr  Zr70  1  0.29297898  0.49825278  0.63419867  1
  Zr  Zr71  1  0.21177339  0.59902917  0.01036813  1
  Zr  Zr72  1  0.90076400  0.90048824  0.13303456  1
  Zr  Zr73  1  0.39556696  0.59922180  0.50473056  1
  Zr  Zr74  1  0.70942173  0.30086329  0.12739423  1
  Zr  Zr75  1  0.49959728  0.69693560  0.36857974  1
  Zr  Zr76  1  0.39760402  0.38118299  0.74704899  1
  Zr  Zr77  1  0.30242258  0.90737279  0.37662187  1
  Zr  Zr78  1  0.31596099  0.29705993  0.88586843  1
  Zr  Zr79  1  0.00162123  0.40347988  0.26443385  1
  Ta  Ta80  1  0.20034028  0.80290385  -0.00088188  1
  Ta  Ta81  1  0.89671647  0.89518443  0.37373834  1
  Ta  Ta82  1  -0.00768461  0.40576666  -0.00645050  1
  Ta  Ta83  1  0.68815937  0.49729957  0.12608539  1
  Ta  Ta84  1  0.60268539  0.18807944  0.75138242  1
  Ta  Ta85  1  0.09992974  0.29740618  0.13156648  1
  Ta  Ta86  1  0.00943083  0.19732436  0.73352373  1
  Ta  Ta87  1  0.10521880  0.50698600  0.37864265  1
  Ta  Ta88  1  0.71578531  0.08775140  0.62341352  1
  Ta  Ta89  1  0.80100796  0.40487436  -0.00076148  1
  Ta  Ta90  1  0.60297996  0.39162862  -0.00895973  1
  Ta  Ta91  1  0.48943827  0.89549165  0.61206772  1
  Ta  Ta92  1  0.47316362  0.70049734  0.86927748  1
  Ta  Ta93  1  0.69341634  0.90530332  0.12933421  1
  Ta  Ta94  1  0.70631853  0.70626874  0.38080116  1
  Ta  Ta95  1  0.18619992  0.00772978  0.26261103  1
  Ta  Ta96  1  0.60579576  0.37542712  0.75535033  1
  Ta  Ta97  1  0.41261935  0.19385003  0.01100135  1
  Ta  Ta98  1  0.10645835  0.29830571  0.37399612  1
  Ta  Ta99  1  0.19080242  0.80560573  0.48811841  1
  Ta  Ta100  1  0.49562947  0.68039168  0.13995240  1
  Ta  Ta101  1  0.30565874  0.49722461  0.36242781  1
  Ta  Ta102  1  -0.00392620  0.40656762  0.48400795  1
  Ta  Ta103  1  0.29918867  0.69658911  0.37430730  1
  Ta  Ta104  1  0.69829868  0.28848584  0.87842366  1
  Ta  Ta105  1  -0.01182909  0.60676402  0.26392928  1
  Ta  Ta106  1  0.29867063  0.09490757  0.12812367  1
  Ta  Ta107  1  0.41194173  0.18927956  0.74942169  1
  Ta  Ta108  1  0.60276447  0.79536491  0.50487928  1
  Ta  Ta109  1  0.30458889  0.10334454  0.62562759  1
  Ta  Ta110  1  0.29079632  0.90075245  0.13571729  1
  Ta  Ta111  1  0.79773935  -0.00059192  0.25664665  1
  Ta  Ta112  1  0.68309886  0.92546644  0.86702762  1
  Ta  Ta113  1  0.80028604  0.41479959  0.48583398  1
  Ta  Ta114  1  0.80564821  0.20161042  0.26920430  1
  Ta  Ta115  1  0.00953838  0.21280393  -0.00566458  1
  Ta  Ta116  1  0.09560084  0.10405606  0.86931911  1
  Ta  Ta117  1  0.60079113  0.39858534  0.25263871  1
  Ta  Ta118  1  0.40865171  -0.00861433  0.73879007  1
  Ta  Ta119  1  0.81825002  0.61696026  0.49225348  1
  Ti  Ti120  1  0.20454518  0.19782250  0.25793898  1
  Ti  Ti121  1  0.80445106  0.80004282  0.24955314  1
  Ti  Ti122  1  0.60513168  0.18561797  -0.00228448  1
  Ti  Ti123  1  0.89706908  0.50203964  0.12508536  1
  Ti  Ti124  1  0.39521635  0.61615910  0.74058924  1
  Ti  Ti125  1  0.48859616  0.89646197  0.87228635  1
  Ti  Ti126  1  0.48941323  0.88679720  0.13730800  1
  Ti  Ti127  1  0.28742256  0.70375867  0.87409250  1
  Ti  Ti128  1  0.69634569  0.50681378  0.37565859  1
  Ti  Ti129  1  -0.00262939  0.80631030  0.26253022  1
  Ti  Ti130  1  0.90054864  0.69915587  0.12669770  1
  Ti  Ti131  1  0.19113284  0.00447993  0.49592799  1
  Ti  Ti132  1  0.20786540  0.39432567  0.25458576  1
  Ti  Ti133  1  0.91682092  0.69123914  0.86782205  1
  Ti  Ti134  1  0.09313686  0.52098744  0.87510736  1
  Ti  Ti135  1  0.00186494  0.59950649  0.00078241  1
  Ti  Ti136  1  0.50094429  0.70029298  0.62507976  1
  Ti  Ti137  1  0.80505791  -0.00686727  0.49078807  1
  Ti  Ti138  1  0.10875192  0.88708030  0.61667702  1
  Ti  Ti139  1  0.69837153  0.30368001  0.38565412  1
  Ti  Ti140  1  -0.00036182  0.40523863  0.75031690  1
  Ti  Ti141  1  0.68664149  0.90302092  0.63370211  1
  Ti  Ti142  1  0.00504107  0.19770746  0.26686686  1
  Ti  Ti143  1  0.38257390  0.80842135  0.73880235  1
  Ti  Ti144  1  0.90405126  0.50643357  0.86063174  1
  Ti  Ti145  1  0.89952055  0.10420385  0.14177149  1
  Ti  Ti146  1  0.38889093  -0.00132525  0.24494269  1
  Ti  Ti147  1  0.09147343  0.70208195  0.38257679  1
  Ti  Ti148  1  0.30381694  0.89055328  0.87620460  1
  Ti  Ti149  1  0.90992566  0.08941873  0.36603083  1
  Ti  Ti150  1  0.31263741  0.29565259  0.36751017  1
  Ti  Ti151  1  0.39159148  0.78578182  0.00379003  1
  Ti  Ti152  1  0.70357194  0.89736856  0.37139697  1
  Ti  Ti153  1  0.10514357  0.52636141  0.61315463  1
  Ti  Ti154  1  0.69275121  0.10564854  0.36961618  1
  Ti  Ti155  1  -0.00171360  0.77846452  0.73615966  1
  Ti  Ti156  1  0.10160514  0.89639139  0.87205009  1
  Ti  Ti157  1  0.39306682  0.79990311  0.50487377  1
  Ti  Ti158  1  0.09756212  0.90555362  0.13216547  1
  Ti  Ti159  1  0.37927050  0.00285701  0.50581276  1
  Mo  Mo160  1  0.40249139  0.61086525  -0.00020572  1
  Mo  Mo161  1  0.61237261  0.40496276  0.49745266  1
  Mo  Mo162  1  0.10542168  0.09788075  0.62430235  1
  Mo  Mo163  1  0.51002607  0.29210777  0.88427204  1
  Mo  Mo164  1  0.59279286  0.60060081  0.74379614  1
  Mo  Mo165  1  0.29723830  0.90340598  0.61106239  1
  Mo  Mo166  1  0.50296432  0.49533321  0.13756469  1
  Mo  Mo167  1  0.89436296  0.70822261  0.36708215  1
  Mo  Mo168  1  0.02113620  0.60042891  0.75220286  1
  Mo  Mo169  1  0.39358010  0.19656876  0.49878662  1
  Mo  Mo170  1  0.08852514  0.29649775  0.86981964  1
  Mo  Mo171  1  0.90073725  0.09742017  0.62430836  1
  Mo  Mo172  1  0.00140104  0.59628914  0.48537760  1
  Mo  Mo173  1  0.08981151  0.90280856  0.38256559  1
  Mo  Mo174  1  0.49895994  0.09409945  0.12186138  1
  Mo  Mo175  1  0.32023001  0.50424800  0.14979368  1
  Mo  Mo176  1  0.78266206  0.80943051  0.49907821  1
  Mo  Mo177  1  0.60817540  0.59265915  0.24767288  1
  Mo  Mo178  1  0.90465700  0.29728876  0.38121796  1
  Mo  Mo179  1  0.61104432  0.20433196  0.26326034  1
  Mo  Mo180  1  0.89903518  0.69687605  0.63132426  1
  Mo  Mo181  1  0.08926468  0.69446148  0.61270685  1
  Mo  Mo182  1  0.70111285  0.09954795  0.87266087  1
  Mo  Mo183  1  0.29517099  0.10332691  0.36488727  1
  Mo  Mo184  1  0.59825786  -0.00603696  0.01300511  1
  Mo  Mo185  1  0.39999456  0.39738645  0.24866084  1
  Mo  Mo186  1  0.61080604  0.19344950  0.49246378  1
  Mo  Mo187  1  0.09968802  0.10057034  0.36978454  1
  Mo  Mo188  1  0.39801558  0.80557686  0.24986028  1
  Mo  Mo189  1  0.81936524  0.60854071  0.75511865  1
  Mo  Mo190  1  0.30719001  0.29236822  0.62802354  1
  Mo  Mo191  1  0.19233276  0.60870311  0.75295533  1
  Mo  Mo192  1  0.80474822  0.39869044  0.74871725  1
  Mo  Mo193  1  0.40129071  0.59864767  0.25757794  1
  Mo  Mo194  1  -0.00577501  -0.00364755  0.25704805  1
  Mo  Mo195  1  0.59672361  0.00062453  0.73919950  1
  Mo  Mo196  1  0.89850183  0.50978660  0.38060223  1
  Mo  Mo197  1  0.09885317  0.70422936  0.88355871  1
  Mo  Mo198  1  0.79101321  0.00050405  0.74752475  1
  Mo  Mo199  1  0.19802532  0.60658814  0.48326243  1
