# generated using pymatgen
data_HfZrTaTiMo
_symmetry_space_group_name_H-M   'P 1'
_cell_length_a   15.19252285
_cell_length_b   15.17372353
_cell_length_c   16.82651404
_cell_angle_alpha   90.02128612
_cell_angle_beta   90.00319796
_cell_angle_gamma   90.06476756
_symmetry_Int_Tables_number   1
_chemical_formula_structural   HfZrTaTiMo
_chemical_formula_sum   'Hf40 Zr40 Ta40 Ti40 Mo40'
_cell_volume   3878.96542839
_cell_formula_units_Z   40
loop_
 _symmetry_equiv_pos_site_id
 _symmetry_equiv_pos_as_xyz
  1  'x, y, z'
loop_
 _atom_site_type_symbol
 _atom_site_label
 _atom_site_symmetry_multiplicity
 _atom_site_fract_x
 _atom_site_fract_y
 _atom_site_fract_z
 _atom_site_occupancy
  Hf  Hf0  1  0.58618860  0.40733923  0.75473031  1
  Hf  Hf1  1  0.58982365  0.59490607  0.00032417  1
  Hf  Hf2  1  0.88920714  0.29930200  0.88662634  1
  Hf  Hf3  1  0.61324653  0.21209500  0.24505130  1
  Hf  Hf4  1  -0.00320378  0.79999864  0.75170955  1
  Hf  Hf5  1  0.60901528  0.42368936  0.24744121  1
  Hf  Hf6  1  0.29408549  0.30321398  0.62500862  1
  Hf  Hf7  1  0.88707766  0.69006650  0.63045992  1
  Hf  Hf8  1  0.51227139  0.30784032  0.11817995  1
  Hf  Hf9  1  0.08217520  0.50952500  0.14090902  1
  Hf  Hf10  1  0.01563151  -0.01424986  0.00296673  1
  Hf  Hf11  1  0.41784610  0.79630877  0.50086004  1
  Hf  Hf12  1  0.10895711  0.08851783  0.12281332  1
  Hf  Hf13  1  0.09010070  0.28676815  0.62689736  1
  Hf  Hf14  1  0.10205464  0.68589911  0.86427305  1
  Hf  Hf15  1  0.29822004  0.08534356  0.87630808  1
  Hf  Hf16  1  0.39628428  0.80801140  0.24402954  1
  Hf  Hf17  1  -0.01111046  0.39673739  0.73585912  1
  Hf  Hf18  1  0.29292034  0.50178505  0.59468637  1
  Hf  Hf19  1  0.30535960  0.49680025  0.38652280  1
  Hf  Hf20  1  0.50955166  0.69999103  0.35732253  1
  Hf  Hf21  1  0.42617309  0.78970581  0.73946223  1
  Hf  Hf22  1  0.90952772  0.90225865  0.61801099  1
  Hf  Hf23  1  -0.00242772  0.78268719  0.49618964  1
  Hf  Hf24  1  0.00970560  -0.00992850  0.24498779  1
  Hf  Hf25  1  0.58504241  0.61840846  0.74982886  1
  Hf  Hf26  1  0.20761239  0.78909302  0.50152285  1
  Hf  Hf27  1  0.61033633  0.00044956  0.23963230  1
  Hf  Hf28  1  0.20552608  0.19281113  0.24730945  1
  Hf  Hf29  1  0.30784358  0.68516186  0.87732519  1
  Hf  Hf30  1  0.79461513  0.41659928  0.51873300  1
  Hf  Hf31  1  0.49405011  0.71611505  0.88779108  1
  Hf  Hf32  1  0.61754747  -0.00003033  0.76005679  1
  Hf  Hf33  1  0.81080568  0.01009588  0.49040319  1
  Hf  Hf34  1  0.10096245  0.07945443  0.63786545  1
  Hf  Hf35  1  0.79223026  0.59258173  -0.01000739  1
  Hf  Hf36  1  0.59249670  0.20188693  0.75978341  1
  Hf  Hf37  1  0.70988716  0.90987853  0.61789520  1
  Hf  Hf38  1  0.41703416  0.00383036  0.75476799  1
  Hf  Hf39  1  0.59825128  0.21227543  0.50559324  1
  Zr  Zr40  1  0.39721025  0.40224103  0.00310217  1
  Zr  Zr41  1  0.50296853  0.10526929  0.10678806  1
  Zr  Zr42  1  0.39761443  0.20336481  0.50178818  1
  Zr  Zr43  1  0.18842848  0.60516952  0.26490593  1
  Zr  Zr44  1  0.87370086  0.48780982  0.12975643  1
  Zr  Zr45  1  0.21405315  0.57733679  0.74455253  1
  Zr  Zr46  1  0.69707264  0.32477057  0.38424402  1
  Zr  Zr47  1  0.89842718  0.07905996  0.89127978  1
  Zr  Zr48  1  0.80420896  0.79808940  0.25464865  1
  Zr  Zr49  1  0.90459139  0.89897350  0.37221152  1
  Zr  Zr50  1  0.40298261  0.00968210  0.24069910  1
  Zr  Zr51  1  0.91331356  0.68732638  0.13604007  1
  Zr  Zr52  1  0.29707317  0.31387258  0.86858876  1
  Zr  Zr53  1  0.11314375  0.92520522  0.85604080  1
  Zr  Zr54  1  0.47815602  0.50633402  0.87591428  1
  Zr  Zr55  1  0.89231672  0.29333807  0.37667175  1
  Zr  Zr56  1  0.69977266  0.69161731  0.13199814  1
  Zr  Zr57  1  0.29595236  0.30359283  0.37425766  1
  Zr  Zr58  1  0.28786624  0.70282197  0.13261326  1
  Zr  Zr59  1  0.78951829  0.81168992  0.76002434  1
  Zr  Zr60  1  0.19281685  0.19112113  0.49633545  1
  Zr  Zr61  1  0.50698748  0.11024028  0.37497910  1
  Zr  Zr62  1  -0.00964495  0.18607367  0.76238855  1
  Zr  Zr63  1  0.09062551  0.29662671  0.13062548  1
  Zr  Zr64  1  0.21485972  0.79354762  0.74293571  1
  Zr  Zr65  1  0.69294186  0.71570372  0.88111126  1
  Zr  Zr66  1  0.31015898  0.90372892  0.62677143  1
  Zr  Zr67  1  0.50962679  0.90694544  0.37165636  1
  Zr  Zr68  1  -0.00889561  0.57567957  0.49733433  1
  Zr  Zr69  1  0.19452675  0.40801959  0.01517084  1
  Zr  Zr70  1  -0.00847308  0.18695274  0.49647360  1
  Zr  Zr71  1  0.60071551  0.60409337  0.49993175  1
  Zr  Zr72  1  0.10793216  0.67718981  0.62102717  1
  Zr  Zr73  1  0.00853857  0.78582073  -0.00784086  1
  Zr  Zr74  1  0.80783244  0.01449169  0.24098312  1
  Zr  Zr75  1  0.71819592  0.11472914  0.37450313  1
  Zr  Zr76  1  0.20822092  0.81283667  -0.00538449  1
  Zr  Zr77  1  0.10773109  0.89739229  0.38097912  1
  Zr  Zr78  1  0.90311258  0.49294457  0.87716847  1
  Zr  Zr79  1  0.20546847  0.19739515  -0.00107573  1
  Ta  Ta80  1  0.79329409  0.59523438  0.75852032  1
  Ta  Ta81  1  0.40536775  0.21091099  0.24854884  1
  Ta  Ta82  1  0.20997330  0.00037408  0.50349446  1
  Ta  Ta83  1  0.90564503  0.10287662  0.11053006  1
  Ta  Ta84  1  0.30526982  0.10323994  0.63710771  1
  Ta  Ta85  1  0.40644106  0.00554017  0.50583280  1
  Ta  Ta86  1  0.19461147  0.80188895  0.26109950  1
  Ta  Ta87  1  0.70831513  0.90211006  0.11349858  1
  Ta  Ta88  1  0.10273551  0.48938040  0.87793657  1
  Ta  Ta89  1  0.87415989  0.49600431  0.36276006  1
  Ta  Ta90  1  0.69169950  0.71226725  0.62942898  1
  Ta  Ta91  1  0.08216118  0.48570615  0.36566610  1
  Ta  Ta92  1  0.68975819  0.30574742  0.62980186  1
  Ta  Ta93  1  0.38290669  0.59955045  0.01875772  1
  Ta  Ta94  1  0.81410820  0.00635426  0.75561102  1
  Ta  Ta95  1  0.81086636  0.21639756  0.22718130  1
  Ta  Ta96  1  0.79079181  0.19858936  0.00048355  1
  Ta  Ta97  1  0.19834117  0.19289726  0.75973860  1
  Ta  Ta98  1  0.30808270  0.90256693  0.38184861  1
  Ta  Ta99  1  0.61420673  0.80307227  0.49447519  1
  Ta  Ta100  1  0.90058781  0.69535560  0.86989564  1
  Ta  Ta101  1  0.09131298  0.30234142  0.87765674  1
  Ta  Ta102  1  0.78950504  0.39750452  0.74677305  1
  Ta  Ta103  1  -0.01961115  0.38751905  0.24951999  1
  Ta  Ta104  1  0.17204880  0.40127345  0.49520884  1
  Ta  Ta105  1  0.30199030  0.09154675  0.37365972  1
  Ta  Ta106  1  0.78675650  0.19878095  0.75733806  1
  Ta  Ta107  1  0.89659814  0.09920089  0.63140119  1
  Ta  Ta108  1  0.38468557  0.41902813  0.74410636  1
  Ta  Ta109  1  0.91057755  0.89231436  0.12658812  1
  Ta  Ta110  1  0.49379563  0.50506121  0.12853834  1
  Ta  Ta111  1  0.49499611  0.31934183  0.37411400  1
  Ta  Ta112  1  0.71370689  0.92404389  0.90091165  1
  Ta  Ta113  1  0.18917432  0.60277255  0.00839077  1
  Ta  Ta114  1  0.50543531  0.10093907  0.62689119  1
  Ta  Ta115  1  0.09151835  0.29644436  0.36446170  1
  Ta  Ta116  1  0.79790638  0.79113878  0.48740471  1
  Ta  Ta117  1  0.70445913  0.10798432  0.62556535  1
  Ta  Ta118  1  0.21318066  -0.00962742  0.24682654  1
  Ta  Ta119  1  0.69332576  0.51294835  0.63542358  1
  Ti  Ti120  1  0.60461159  0.00609532  0.49979132  1
  Ti  Ti121  1  0.30672307  0.09938706  0.11554996  1
  Ti  Ti122  1  0.48713473  0.51406414  0.61738155  1
  Ti  Ti123  1  0.40224747  0.79983373  0.01640640  1
  Ti  Ti124  1  0.40486752  0.20611130  -0.01138932  1
  Ti  Ti125  1  0.10305048  0.09528702  0.36777568  1
  Ti  Ti126  1  -0.01670756  0.38844438  0.51313294  1
  Ti  Ti127  1  0.00079627  0.58816043  -0.00072818  1
  Ti  Ti128  1  0.50337157  0.50137776  0.37921226  1
  Ti  Ti129  1  0.69811381  0.10736206  0.10914323  1
  Ti  Ti130  1  0.70436920  0.69113812  0.35823092  1
  Ti  Ti131  1  0.60240032  0.80701524  0.01206176  1
  Ti  Ti132  1  0.10642238  0.89448182  0.62924305  1
  Ti  Ti133  1  0.51512071  0.90468930  0.88665486  1
  Ti  Ti134  1  0.18727339  0.39446220  0.74466440  1
  Ti  Ti135  1  0.69801162  0.89750632  0.37107886  1
  Ti  Ti136  1  0.39529924  -0.01206494  0.00249016  1
  Ti  Ti137  1  0.51494820  0.10187972  0.89494735  1
  Ti  Ti138  1  0.50637814  0.90096264  0.12110048  1
  Ti  Ti139  1  0.89962053  0.30225214  0.10202256  1
  Ti  Ti140  1  0.00579885  0.19892330  -0.00627765  1
  Ti  Ti141  1  0.11125654  0.87916210  0.13082032  1
  Ti  Ti142  1  0.32261251  0.68594600  0.61410268  1
  Ti  Ti143  1  0.01108931  -0.00042647  0.49557259  1
  Ti  Ti144  1  0.39726001  0.58718478  0.24719783  1
  Ti  Ti145  1  0.50189520  0.70192113  0.13529740  1
  Ti  Ti146  1  0.79612036  0.60806299  0.49485094  1
  Ti  Ti147  1  0.49079260  0.31230358  0.62527275  1
  Ti  Ti148  1  0.30418480  0.69878107  0.37788808  1
  Ti  Ti149  1  0.68568984  0.30836986  0.88466806  1
  Ti  Ti150  1  0.20312519  0.40176924  0.24680548  1
  Ti  Ti151  1  -0.00664764  0.18876367  0.24856365  1
  Ti  Ti152  1  0.30985267  0.30662967  0.13443855  1
  Ti  Ti153  1  0.32019519  0.89077989  0.86970417  1
  Ti  Ti154  1  0.80183448  0.20979905  0.51293276  1
  Ti  Ti155  1  0.51920427  0.89895717  0.62146202  1
  Ti  Ti156  1  0.81417408  0.80257117  -0.00088665  1
  Ti  Ti157  1  0.40238152  0.21077822  0.75600647  1
  Ti  Ti158  1  -0.00080732  0.58623113  0.74214922  1
  Ti  Ti159  1  0.70569066  0.31859995  0.10621681  1
  Mo  Mo160  1  0.09329631  0.69999285  0.12956061  1
  Mo  Mo161  1  0.79086930  0.38755205  0.24382691  1
  Mo  Mo162  1  0.28324874  0.50582379  0.87863046  1
  Mo  Mo163  1  0.41359883  0.40138503  0.50328833  1
  Mo  Mo164  1  0.09661816  0.48436750  0.61887986  1
  Mo  Mo165  1  0.60312380  0.00062423  0.00371376  1
  Mo  Mo166  1  0.30022575  0.90804618  0.12408438  1
  Mo  Mo167  1  0.59022300  0.40737535  0.51493023  1
  Mo  Mo168  1  0.39979170  0.60738226  0.48694147  1
  Mo  Mo169  1  0.21106142  -0.00633677  0.00602065  1
  Mo  Mo170  1  0.58922766  0.60691280  0.24567004  1
  Mo  Mo171  1  0.18986713  0.59713252  0.47878528  1
  Mo  Mo172  1  0.70387309  0.10977666  0.88632380  1
  Mo  Mo173  1  -0.00325371  -0.00843082  0.74907076  1
  Mo  Mo174  1  0.60366683  0.80912941  0.23637472  1
  Mo  Mo175  1  0.87892654  0.28788086  0.63221793  1
  Mo  Mo176  1  0.69143163  0.51210622  0.37961292  1
  Mo  Mo177  1  0.10473009  0.10739295  0.87626552  1
  Mo  Mo178  1  0.91412272  0.10351264  0.36609779  1
  Mo  Mo179  1  0.51028825  0.70311722  0.61603536  1
  Mo  Mo180  1  0.60240193  0.40797300  -0.00989845  1
  Mo  Mo181  1  0.68323289  0.49411861  0.11547383  1
  Mo  Mo182  1  0.01419272  0.78451925  0.25385358  1
  Mo  Mo183  1  0.49244552  0.29757413  0.87364871  1
  Mo  Mo184  1  0.69492769  0.49976950  0.86163760  1
  Mo  Mo185  1  0.09854636  0.69090195  0.38343100  1
  Mo  Mo186  1  0.88725107  0.50001493  0.63291309  1
  Mo  Mo187  1  0.39956557  0.59714392  0.74186683  1
  Mo  Mo188  1  0.78817309  0.39874740  -0.00993486  1
  Mo  Mo189  1  0.21225123  0.00318075  0.74425918  1
  Mo  Mo190  1  -0.00084314  0.39772754  0.00174821  1
  Mo  Mo191  1  0.29603387  0.49810621  0.14041268  1
  Mo  Mo192  1  0.89945645  0.88852972  0.88113746  1
  Mo  Mo193  1  0.60064157  0.20981968  -0.00952860  1
  Mo  Mo194  1  0.39997534  0.40237002  0.24640637  1
  Mo  Mo195  1  0.60119763  0.82014558  0.75258064  1
  Mo  Mo196  1  0.89733241  0.68768730  0.36907064  1
  Mo  Mo197  1  0.77892135  0.58151867  0.25559920  1
  Mo  Mo198  1  -0.01431649  0.59584032  0.26839484  1
  Mo  Mo199  1  0.80866250  -0.00292666  0.01971441  1
