# generated using pymatgen
data_HfZrTaTiMo
_symmetry_space_group_name_H-M   'P 1'
_cell_length_a   15.22174045
_cell_length_b   15.20600172
_cell_length_c   16.87182522
_cell_angle_alpha   90.06021166
_cell_angle_beta   90.07585849
_cell_angle_gamma   90.17378223
_symmetry_Int_Tables_number   1
_chemical_formula_structural   HfZrTaTiMo
_chemical_formula_sum   'Hf40 Zr40 Ta40 Ti40 Mo40'
_cell_volume   3905.15966954
_cell_formula_units_Z   40
loop_
 _symmetry_equiv_pos_site_id
 _symmetry_equiv_pos_as_xyz
  1  'x, y, z'
loop_
 _atom_site_type_symbol
 _atom_site_label
 _atom_site_symmetry_multiplicity
 _atom_site_fract_x
 _atom_site_fract_y
 _atom_site_fract_z
 _atom_site_occupancy
  Hf  Hf0  1  0.08422423  0.69010090  0.63669446  1
  Hf  Hf1  1  0.20509910  0.79703886  -0.00475183  1
  Hf  Hf2  1  0.18838713  0.39078525  0.24291801  1
  Hf  Hf3  1  0.69391152  0.52232831  0.36945292  1
  Hf  Hf4  1  0.80723610  0.21826446  -0.00077030  1
  Hf  Hf5  1  0.70867066  0.90630003  0.37347389  1
  Hf  Hf6  1  0.29119168  0.89261778  0.37713597  1
  Hf  Hf7  1  -0.00946674  0.59917437  0.02256179  1
  Hf  Hf8  1  0.20015203  0.60298527  0.24798960  1
  Hf  Hf9  1  0.40875700  0.80419719  -0.00016218  1
  Hf  Hf10  1  0.09361026  0.68199152  0.87022493  1
  Hf  Hf11  1  0.19159083  0.58688685  0.01025691  1
  Hf  Hf12  1  0.60094284  0.60476879  0.00208983  1
  Hf  Hf13  1  0.00460036  0.01157500  0.50049920  1
  Hf  Hf14  1  0.40807401  0.00997004  0.01889864  1
  Hf  Hf15  1  0.30708838  0.69506281  0.12810977  1
  Hf  Hf16  1  0.69016941  0.30904781  0.87605303  1
  Hf  Hf17  1  0.40052178  0.60010522  -0.00877042  1
  Hf  Hf18  1  0.37990935  0.39802530  0.74847308  1
  Hf  Hf19  1  0.79051859  0.20032138  0.76127269  1
  Hf  Hf20  1  0.89717951  0.89214261  0.11212841  1
  Hf  Hf21  1  0.50079540  0.09246149  0.87643573  1
  Hf  Hf22  1  0.50237438  0.69556762  0.61870402  1
  Hf  Hf23  1  0.88501054  0.90803422  0.89607123  1
  Hf  Hf24  1  0.52103414  0.10348578  0.62996432  1
  Hf  Hf25  1  0.19500101  0.79061241  0.50452216  1
  Hf  Hf26  1  0.20383129  -0.00679842  0.51101132  1
  Hf  Hf27  1  0.10001314  0.89711780  0.88389879  1
  Hf  Hf28  1  0.48648216  0.29261937  0.62418730  1
  Hf  Hf29  1  0.20626302  0.80866724  0.74801007  1
  Hf  Hf30  1  0.41137748  -0.00231501  0.23736986  1
  Hf  Hf31  1  0.31930461  0.10916827  0.61196878  1
  Hf  Hf32  1  -0.00280439  0.19713601  0.24689427  1
  Hf  Hf33  1  0.60741846  0.21209805  0.23367084  1
  Hf  Hf34  1  0.30884730  0.68865114  0.63205031  1
  Hf  Hf35  1  0.28964829  0.47857154  0.88789062  1
  Hf  Hf36  1  0.39038175  0.39455606  0.49994811  1
  Hf  Hf37  1  0.39851152  0.78416585  0.26627890  1
  Hf  Hf38  1  -0.02251582  0.60694041  0.49641834  1
  Hf  Hf39  1  0.39434109  0.19155503  0.75765989  1
  Zr  Zr40  1  0.20225881  0.59320590  0.50128991  1
  Zr  Zr41  1  0.61373777  -0.01285410  0.74473219  1
  Zr  Zr42  1  -0.01423517  0.39492613  0.49883500  1
  Zr  Zr43  1  0.08665679  0.70732653  0.36542450  1
  Zr  Zr44  1  0.11427431  0.10787438  0.12400965  1
  Zr  Zr45  1  0.31960693  0.08983262  0.37559349  1
  Zr  Zr46  1  0.21517108  0.01173114  0.73869670  1
  Zr  Zr47  1  0.29845534  0.49491613  0.36843861  1
  Zr  Zr48  1  0.29663248  0.28749718  0.36674957  1
  Zr  Zr49  1  0.09187947  0.71165494  0.12877412  1
  Zr  Zr50  1  0.08599280  0.49747161  0.36848610  1
  Zr  Zr51  1  0.89212833  0.70464267  0.88906710  1
  Zr  Zr52  1  0.60634789  0.79516953  0.25981829  1
  Zr  Zr53  1  0.20086699  0.56817517  0.74781987  1
  Zr  Zr54  1  0.42128912  0.59329656  0.75910297  1
  Zr  Zr55  1  -0.02402132  0.40400503  0.00807543  1
  Zr  Zr56  1  0.70462258  0.71750204  0.62563912  1
  Zr  Zr57  1  0.68899490  0.28978406  0.62586495  1
  Zr  Zr58  1  0.89808698  0.31028103  0.64184774  1
  Zr  Zr59  1  0.69459958  0.31378671  0.37711682  1
  Zr  Zr60  1  0.00016125  0.01339184  0.00097339  1
  Zr  Zr61  1  0.49709269  0.49858207  0.12187259  1
  Zr  Zr62  1  0.91020762  0.11524662  0.62763345  1
  Zr  Zr63  1  0.69877730  0.09544655  0.88997652  1
  Zr  Zr64  1  0.19292250  0.19860181  0.50225828  1
  Zr  Zr65  1  -0.01981042  0.80158434  0.75139581  1
  Zr  Zr66  1  0.11155839  0.09486368  0.36485999  1
  Zr  Zr67  1  0.90484120  0.89585978  0.37176050  1
  Zr  Zr68  1  0.88734223  0.89501280  0.61637998  1
  Zr  Zr69  1  0.51792736  0.88962976  0.60674972  1
  Zr  Zr70  1  0.89562433  0.50457756  0.86809161  1
  Zr  Zr71  1  0.00454078  0.00907427  0.75729321  1
  Zr  Zr72  1  0.58622443  0.40638574  0.74288735  1
  Zr  Zr73  1  0.31074745  0.70683177  0.86252958  1
  Zr  Zr74  1  0.80240997  -0.00539120  0.74802644  1
  Zr  Zr75  1  -0.00043135  -0.01128583  0.24146006  1
  Zr  Zr76  1  0.50214899  0.90725025  0.37855225  1
  Zr  Zr77  1  0.30047059  0.27604403  0.12370308  1
  Zr  Zr78  1  0.12446564  0.11117149  0.88078009  1
  Zr  Zr79  1  0.78908025  0.42327489  0.51217640  1
  Ta  Ta80  1  0.41021822  0.38934961  0.24449717  1
  Ta  Ta81  1  0.49336151  0.29578525  0.88373925  1
  Ta  Ta82  1  0.60830509  0.01040936  0.24023525  1
  Ta  Ta83  1  0.08922310  0.29781246  0.12719665  1
  Ta  Ta84  1  0.70935410  0.11101718  0.36723602  1
  Ta  Ta85  1  0.80233383  0.00890854  0.49344297  1
  Ta  Ta86  1  0.41244767  0.59137709  0.49147883  1
  Ta  Ta87  1  0.88398176  0.50137057  0.36069160  1
  Ta  Ta88  1  0.31607488  0.88961153  0.61719659  1
  Ta  Ta89  1  0.69856132  0.50773070  0.87351257  1
  Ta  Ta90  1  0.09835685  0.90048101  0.62703052  1
  Ta  Ta91  1  0.08354418  0.29324192  0.37231826  1
  Ta  Ta92  1  0.01504438  0.40975442  0.76128827  1
  Ta  Ta93  1  0.79643118  0.61761484  0.23611023  1
  Ta  Ta94  1  -0.01307476  0.58952925  0.23083873  1
  Ta  Ta95  1  0.18338624  0.38692332  0.01192618  1
  Ta  Ta96  1  0.29133404  0.28157700  0.89134464  1
  Ta  Ta97  1  0.60553519  0.02444463  0.48846625  1
  Ta  Ta98  1  0.79178708  0.58500510  0.01794194  1
  Ta  Ta99  1  0.90432218  0.52006890  0.64077386  1
  Ta  Ta100  1  0.08926921  0.29543318  0.62851872  1
  Ta  Ta101  1  0.81248338  0.20864296  0.49266888  1
  Ta  Ta102  1  0.58510604  0.40825365  0.51016561  1
  Ta  Ta103  1  0.69079933  0.89260888  0.89038938  1
  Ta  Ta104  1  -0.02359136  0.39223941  0.24202585  1
  Ta  Ta105  1  0.50008249  0.70070101  0.12936302  1
  Ta  Ta106  1  0.00978013  0.21833049  -0.01039331  1
  Ta  Ta107  1  0.20868858  -0.00416529  0.23821605  1
  Ta  Ta108  1  0.40674903  0.59262502  0.26034757  1
  Ta  Ta109  1  0.21699690  0.00364676  0.00976379  1
  Ta  Ta110  1  0.29822539  0.48867878  0.12715489  1
  Ta  Ta111  1  0.10262961  0.89854344  0.11515855  1
  Ta  Ta112  1  0.80502117  0.78165144  0.48824064  1
  Ta  Ta113  1  0.69663072  0.69840958  0.87639863  1
  Ta  Ta114  1  0.19914209  0.21600170  0.74870674  1
  Ta  Ta115  1  0.41825256  0.19575034  0.24884976  1
  Ta  Ta116  1  0.18818402  0.39507345  0.49843030  1
  Ta  Ta117  1  0.60281673  -0.00578811  0.01732901  1
  Ta  Ta118  1  0.40859240  -0.01652842  0.74222186  1
  Ta  Ta119  1  0.30961527  0.91860322  0.87571052  1
  Ti  Ti120  1  0.89977983  0.11027261  0.88184748  1
  Ti  Ti121  1  0.69647424  0.70947598  0.12701924  1
  Ti  Ti122  1  0.40268860  0.38540677  0.00791152  1
  Ti  Ti123  1  -0.02724883  0.78528856  0.24398137  1
  Ti  Ti124  1  0.30005845  0.89234769  0.12950459  1
  Ti  Ti125  1  0.51029645  0.88994969  0.13182865  1
  Ti  Ti126  1  0.71030532  0.10429857  0.11920012  1
  Ti  Ti127  1  0.44356156  0.19390383  0.47643162  1
  Ti  Ti128  1  0.41156552  -0.00269063  0.50035616  1
  Ti  Ti129  1  0.10204574  0.10876736  0.63207898  1
  Ti  Ti130  1  0.79172709  0.41409925  0.74587212  1
  Ti  Ti131  1  0.28213304  0.30806750  0.62276690  1
  Ti  Ti132  1  0.90390382  0.11249678  0.37408030  1
  Ti  Ti133  1  0.80418715  0.01064667  0.24481060  1
  Ti  Ti134  1  0.50603367  0.48933146  0.88445954  1
  Ti  Ti135  1  0.78116769  0.80806874  0.75579397  1
  Ti  Ti136  1  0.60838546  0.40286492  0.00796124  1
  Ti  Ti137  1  0.80754709  0.21847336  0.24572518  1
  Ti  Ti138  1  0.59395676  0.60517940  0.24758395  1
  Ti  Ti139  1  -0.00236165  0.80160788  0.50274281  1
  Ti  Ti140  1  0.60479224  0.78848911  0.47871495  1
  Ti  Ti141  1  0.78843515  0.79136632  0.00627240  1
  Ti  Ti142  1  0.58666171  0.79086802  0.75979350  1
  Ti  Ti143  1  0.39953218  0.78112820  0.48096088  1
  Ti  Ti144  1  0.71690848  0.32504223  0.12212754  1
  Ti  Ti145  1  0.70516514  0.90330219  0.12700156  1
  Ti  Ti146  1  0.19207624  0.80501731  0.25024967  1
  Ti  Ti147  1  0.61296288  0.59594174  0.50765671  1
  Ti  Ti148  1  0.10232353  0.48629769  0.62391128  1
  Ti  Ti149  1  0.71052918  0.09830908  0.61575261  1
  Ti  Ti150  1  0.89892900  0.10750620  0.11755209  1
  Ti  Ti151  1  0.50109737  0.89326626  0.87551831  1
  Ti  Ti152  1  0.58736742  0.20284624  0.01726173  1
  Ti  Ti153  1  0.80281298  0.61502069  0.74716934  1
  Ti  Ti154  1  0.59683407  0.79816299  0.00198664  1
  Ti  Ti155  1  0.00345420  0.21530051  0.77398748  1
  Ti  Ti156  1  0.09768726  0.89970601  0.37275738  1
  Ti  Ti157  1  0.61203327  0.59772344  0.74594251  1
  Ti  Ti158  1  0.50523551  0.48599131  0.37187263  1
  Ti  Ti159  1  0.60051696  0.40512952  0.23945239  1
  Mo  Mo160  1  0.09563543  0.49172008  0.13747379  1
  Mo  Mo161  1  0.49631404  0.50354605  0.61682895  1
  Mo  Mo162  1  -0.00338330  0.59772476  0.74966019  1
  Mo  Mo163  1  -0.00183587  0.20357048  0.49595533  1
  Mo  Mo164  1  0.20400889  0.19398840  0.25731077  1
  Mo  Mo165  1  0.61691839  0.20746493  0.49440953  1
  Mo  Mo166  1  0.00219752  0.80108118  -0.00252877  1
  Mo  Mo167  1  0.69863524  0.51015710  0.63493489  1
  Mo  Mo168  1  0.89591954  0.70437760  0.62731836  1
  Mo  Mo169  1  0.09809979  0.49578040  0.88355127  1
  Mo  Mo170  1  0.78927096  0.00482465  0.01144803  1
  Mo  Mo171  1  0.29950205  0.49222403  0.61478725  1
  Mo  Mo172  1  0.89623139  0.30375544  0.86198418  1
  Mo  Mo173  1  0.79740288  0.60139997  0.50386716  1
  Mo  Mo174  1  0.20276870  0.19642721  0.00304448  1
  Mo  Mo175  1  0.19525859  0.38845502  0.74962213  1
  Mo  Mo176  1  0.30249720  0.69510101  0.37516992  1
  Mo  Mo177  1  0.59372122  0.20046348  0.75919751  1
  Mo  Mo178  1  0.51160219  0.67534314  0.38370417  1
  Mo  Mo179  1  0.40766944  0.80898681  0.74886080  1
  Mo  Mo180  1  0.50435590  0.30795243  0.36930277  1
  Mo  Mo181  1  0.51107409  0.10392927  0.12451937  1
  Mo  Mo182  1  0.50342950  0.30259461  0.11656522  1
  Mo  Mo183  1  0.79927570  0.81045224  0.24246877  1
  Mo  Mo184  1  0.51653183  0.70248968  0.87462884  1
  Mo  Mo185  1  0.88784304  0.68873743  0.36411304  1
  Mo  Mo186  1  0.30695907  0.09475673  0.13586572  1
  Mo  Mo187  1  0.70825400  0.69885300  0.37120041  1
  Mo  Mo188  1  0.79007929  0.40492237  0.25130455  1
  Mo  Mo189  1  0.88539512  0.70153425  0.11539612  1
  Mo  Mo190  1  0.52260497  0.10762092  0.36171849  1
  Mo  Mo191  1  0.30873151  0.09458540  0.87641994  1
  Mo  Mo192  1  0.78632960  0.40780407  -0.00399556  1
  Mo  Mo193  1  0.40289416  0.19740776  -0.00333144  1
  Mo  Mo194  1  0.69245482  0.50811749  0.13558823  1
  Mo  Mo195  1  0.10414998  0.31587334  0.88206726  1
  Mo  Mo196  1  0.89325087  0.30030823  0.37260263  1
  Mo  Mo197  1  0.87780480  0.48781312  0.13768225  1
  Mo  Mo198  1  0.89465346  0.29067052  0.12488236  1
  Mo  Mo199  1  0.70060033  0.90982764  0.58849524  1
