# generated using pymatgen
data_HfZrTaTiMo
_symmetry_space_group_name_H-M   'P 1'
_cell_length_a   15.20414516
_cell_length_b   15.21897469
_cell_length_c   16.86418494
_cell_angle_alpha   89.91291871
_cell_angle_beta   89.98217150
_cell_angle_gamma   90.16595210
_symmetry_Int_Tables_number   1
_chemical_formula_structural   HfZrTaTiMo
_chemical_formula_sum   'Hf40 Zr40 Ta40 Ti40 Mo40'
_cell_volume   3902.20798410
_cell_formula_units_Z   40
loop_
 _symmetry_equiv_pos_site_id
 _symmetry_equiv_pos_as_xyz
  1  'x, y, z'
loop_
 _atom_site_type_symbol
 _atom_site_label
 _atom_site_symmetry_multiplicity
 _atom_site_fract_x
 _atom_site_fract_y
 _atom_site_fract_z
 _atom_site_occupancy
  Hf  Hf0  1  0.31280132  0.32153768  0.63522685  1
  Hf  Hf1  1  0.19942589  0.20303951  0.00248685  1
  Hf  Hf2  1  0.58568292  0.59710812  0.52435620  1
  Hf  Hf3  1  0.40559823  0.41010002  0.49320571  1
  Hf  Hf4  1  0.79217301  0.79201466  -0.00437476  1
  Hf  Hf5  1  0.62374994  0.59204196  0.25043507  1
  Hf  Hf6  1  0.00306441  0.39419886  0.01005801  1
  Hf  Hf7  1  0.80105204  -0.00972001  0.49664686  1
  Hf  Hf8  1  0.29490601  0.08610374  0.37429167  1
  Hf  Hf9  1  0.10110871  0.10231828  0.87018481  1
  Hf  Hf10  1  0.38479755  0.61282800  0.50632785  1
  Hf  Hf11  1  0.08761516  0.69988126  0.12146572  1
  Hf  Hf12  1  0.29721071  0.11916321  0.62434985  1
  Hf  Hf13  1  0.38418108  0.62061705  0.74080405  1
  Hf  Hf14  1  0.89777610  0.89711536  0.37042032  1
  Hf  Hf15  1  0.88623493  0.68579729  0.11509251  1
  Hf  Hf16  1  0.90166571  0.49796235  0.39772221  1
  Hf  Hf17  1  -0.00188509  0.39929580  0.24506620  1
  Hf  Hf18  1  0.11576445  0.69160818  0.62444560  1
  Hf  Hf19  1  0.89997587  0.48643644  0.87668437  1
  Hf  Hf20  1  0.40793725  0.60724205  0.25976505  1
  Hf  Hf21  1  0.69718834  0.68452806  0.39583467  1
  Hf  Hf22  1  0.09654120  0.31296333  0.86771366  1
  Hf  Hf23  1  0.81064059  0.19022538  0.50036995  1
  Hf  Hf24  1  0.61317800  0.59986907  -0.01331679  1
  Hf  Hf25  1  0.38951561  0.00925348  -0.01035413  1
  Hf  Hf26  1  0.68695557  0.47687307  0.63000865  1
  Hf  Hf27  1  0.09438855  0.10970585  0.63339124  1
  Hf  Hf28  1  0.80751222  0.19840061  0.24370845  1
  Hf  Hf29  1  0.46628412  0.89642456  0.36417149  1
  Hf  Hf30  1  0.40038001  0.19660077  0.25576381  1
  Hf  Hf31  1  -0.00355591  0.19663981  0.00505390  1
  Hf  Hf32  1  0.00707898  0.00332690  0.24721201  1
  Hf  Hf33  1  0.19100451  -0.00030570  0.50947366  1
  Hf  Hf34  1  0.79710329  0.41344568  0.24771712  1
  Hf  Hf35  1  0.79360677  0.77234701  0.25163469  1
  Hf  Hf36  1  0.11127960  0.31710877  0.63070085  1
  Hf  Hf37  1  0.29613356  0.69217314  0.13025448  1
  Hf  Hf38  1  0.49049176  0.74018193  0.62349002  1
  Hf  Hf39  1  0.70124035  0.09743696  0.37398878  1
  Zr  Zr40  1  0.48965565  0.90095430  0.11951254  1
  Zr  Zr41  1  0.58910869  0.01020971  0.24509345  1
  Zr  Zr42  1  0.09583557  0.89169190  0.63795461  1
  Zr  Zr43  1  0.50289025  0.10938706  0.38660127  1
  Zr  Zr44  1  0.49919274  0.69994385  0.11040582  1
  Zr  Zr45  1  0.59840282  0.79887548  0.76612266  1
  Zr  Zr46  1  0.90691050  0.69753668  0.61601162  1
  Zr  Zr47  1  0.30907444  0.87419209  0.63780100  1
  Zr  Zr48  1  0.39780033  -0.00887608  0.51376234  1
  Zr  Zr49  1  0.39994263  0.21784018  -0.00617574  1
  Zr  Zr50  1  0.69133679  0.87965874  0.62653061  1
  Zr  Zr51  1  0.10068681  0.29392411  0.36845738  1
  Zr  Zr52  1  0.11074125  0.50249942  0.88659675  1
  Zr  Zr53  1  0.79742548  0.19773295  0.00817156  1
  Zr  Zr54  1  0.40603422  0.40179614  0.27346781  1
  Zr  Zr55  1  0.19122970  0.80521199  0.25062615  1
  Zr  Zr56  1  0.70400353  0.89496614  0.12945781  1
  Zr  Zr57  1  0.20311741  -0.00481116  0.75388737  1
  Zr  Zr58  1  0.49649961  0.31087602  0.12681304  1
  Zr  Zr59  1  0.30382196  0.31998552  0.85875925  1
  Zr  Zr60  1  0.60595519  0.00697845  0.00208097  1
  Zr  Zr61  1  0.19844036  0.80390646  -0.00767574  1
  Zr  Zr62  1  0.58453610  0.59159719  0.74094168  1
  Zr  Zr63  1  0.90127106  0.09004622  0.63398568  1
  Zr  Zr64  1  0.29615830  0.90438698  0.12801018  1
  Zr  Zr65  1  0.89667827  0.89324335  0.63903891  1
  Zr  Zr66  1  0.40761582  0.00666511  0.74997313  1
  Zr  Zr67  1  -0.00679779  -0.00683570  -0.00999872  1
  Zr  Zr68  1  0.70963909  0.29648055  0.86417430  1
  Zr  Zr69  1  0.51235286  0.49807282  0.12649991  1
  Zr  Zr70  1  0.70339929  0.09008642  0.87000515  1
  Zr  Zr71  1  0.69316406  0.09192171  0.62646984  1
  Zr  Zr72  1  0.68528848  0.89257042  0.37526721  1
  Zr  Zr73  1  0.00890938  0.57678001  0.74430186  1
  Zr  Zr74  1  0.70662056  0.29675606  0.37470635  1
  Zr  Zr75  1  0.11443634  0.50372242  0.13062474  1
  Zr  Zr76  1  0.30371202  0.71034175  0.36527141  1
  Zr  Zr77  1  0.91571375  0.29316479  0.61618357  1
  Zr  Zr78  1  0.58169928  0.78489093  0.25366596  1
  Zr  Zr79  1  0.69895071  0.49005978  0.39693704  1
  Ta  Ta80  1  0.51633774  0.31529766  0.63461109  1
  Ta  Ta81  1  -0.00733145  0.21078907  0.76008757  1
  Ta  Ta82  1  0.91424627  0.49365069  0.60499150  1
  Ta  Ta83  1  -0.00236426  0.00486032  0.49443309  1
  Ta  Ta84  1  0.69983930  0.49586691  0.85748016  1
  Ta  Ta85  1  0.59502866  0.40304878  -0.01609933  1
  Ta  Ta86  1  0.09244780  0.69940421  0.37585384  1
  Ta  Ta87  1  0.49868954  0.90797258  0.88088897  1
  Ta  Ta88  1  0.79240810  0.40246784  -0.00091143  1
  Ta  Ta89  1  0.30185335  0.10978637  0.86727630  1
  Ta  Ta90  1  0.00725705  0.80745451  0.49400121  1
  Ta  Ta91  1  0.29406223  0.10219895  0.12939762  1
  Ta  Ta92  1  0.79535985  0.79169819  0.50077752  1
  Ta  Ta93  1  0.90017354  0.69213529  0.39211003  1
  Ta  Ta94  1  0.29640075  0.30680225  0.13347980  1
  Ta  Ta95  1  0.31145142  0.49511319  0.13077905  1
  Ta  Ta96  1  0.71620259  0.51221524  0.11652479  1
  Ta  Ta97  1  0.39772584  0.58578892  -0.00655223  1
  Ta  Ta98  1  0.59982153  0.79973042  -0.01663313  1
  Ta  Ta99  1  0.21053414  0.79864562  0.49247308  1
  Ta  Ta100  1  0.10454889  0.90542823  0.37494195  1
  Ta  Ta101  1  -0.00591946  0.79550144  -0.01194013  1
  Ta  Ta102  1  0.59998591  0.20972535  0.00216391  1
  Ta  Ta103  1  0.10209994  0.50390555  0.37145555  1
  Ta  Ta104  1  0.49357109  0.10770852  0.12285986  1
  Ta  Ta105  1  0.20261207  0.40236350  0.49113580  1
  Ta  Ta106  1  0.71289354  0.69310992  0.86441534  1
  Ta  Ta107  1  0.09544609  0.88975458  0.86605405  1
  Ta  Ta108  1  -0.00774650  0.79616251  0.25340405  1
  Ta  Ta109  1  0.79897066  0.59807351  0.73222091  1
  Ta  Ta110  1  0.60264671  0.21345599  0.24263633  1
  Ta  Ta111  1  -0.00825560  0.00030687  0.76557262  1
  Ta  Ta112  1  0.59981187  0.00023130  0.75396803  1
  Ta  Ta113  1  0.09164156  0.90815726  0.12048301  1
  Ta  Ta114  1  0.79392306  0.38569284  0.51718392  1
  Ta  Ta115  1  0.88277608  0.89066219  0.86125066  1
  Ta  Ta116  1  0.89877277  0.08633029  0.12556200  1
  Ta  Ta117  1  0.90351072  0.68710268  0.87316918  1
  Ta  Ta118  1  0.81715076  0.39461973  0.73765904  1
  Ta  Ta119  1  -0.01084836  0.60164428  0.25620236  1
  Ti  Ti120  1  0.22515619  0.40489721  0.00508132  1
  Ti  Ti121  1  0.90265008  0.89037053  0.12683190  1
  Ti  Ti122  1  0.59211548  -0.01012217  0.50388638  1
  Ti  Ti123  1  0.80214062  -0.00856202  -0.00022670  1
  Ti  Ti124  1  0.90593556  0.50359426  0.11315054  1
  Ti  Ti125  1  0.69779278  0.10662618  0.12750283  1
  Ti  Ti126  1  0.59928756  0.20212148  0.74560991  1
  Ti  Ti127  1  0.69196161  0.31599374  0.12420281  1
  Ti  Ti128  1  0.90544534  0.30052442  0.38264100  1
  Ti  Ti129  1  0.80194411  -0.00158624  0.24808396  1
  Ti  Ti130  1  0.27778168  0.51085117  0.63157545  1
  Ti  Ti131  1  0.10732838  0.29769797  0.13036288  1
  Ti  Ti132  1  0.89216575  0.30317175  0.12514161  1
  Ti  Ti133  1  0.10389716  0.10115560  0.37528643  1
  Ti  Ti134  1  0.91158141  0.10565498  0.36979123  1
  Ti  Ti135  1  0.00210261  0.19647429  0.23566681  1
  Ti  Ti136  1  0.49067684  0.69247241  0.87629294  1
  Ti  Ti137  1  0.21904748  0.77829115  0.76951876  1
  Ti  Ti138  1  0.20223221  0.20865820  0.75341815  1
  Ti  Ti139  1  0.21029458  0.40391784  0.26140038  1
  Ti  Ti140  1  0.19523247  0.00199722  -0.00877039  1
  Ti  Ti141  1  0.19349272  0.19045145  0.24219514  1
  Ti  Ti142  1  0.50361109  0.11529123  0.87505957  1
  Ti  Ti143  1  0.80276104  0.19465853  0.74435978  1
  Ti  Ti144  1  0.89270234  0.10378383  0.86985856  1
  Ti  Ti145  1  0.02185491  0.20081592  0.49560345  1
  Ti  Ti146  1  0.19477937  0.59667157  0.49167638  1
  Ti  Ti147  1  0.50091079  0.10948209  0.62203307  1
  Ti  Ti148  1  0.30769092  0.50904140  0.86392079  1
  Ti  Ti149  1  0.50195548  0.31782262  0.86292230  1
  Ti  Ti150  1  0.51843513  0.30761430  0.37819507  1
  Ti  Ti151  1  0.40890542  0.20936034  0.74981483  1
  Ti  Ti152  1  0.60732574  0.21624208  0.51115763  1
  Ti  Ti153  1  0.29618510  0.28856635  0.38242585  1
  Ti  Ti154  1  0.40439684  0.21282848  0.50298030  1
  Ti  Ti155  1  0.50935631  0.51303486  0.38027195  1
  Ti  Ti156  1  0.39229168  0.79634444  -0.01992422  1
  Ti  Ti157  1  -0.00011258  0.78658577  0.76057726  1
  Ti  Ti158  1  0.20709405  0.60054607  -0.00002835  1
  Ti  Ti159  1  0.10202158  0.69094263  0.87732615  1
  Mo  Mo160  1  0.60635068  0.40014817  0.25128282  1
  Mo  Mo161  1  0.70065301  0.69385717  0.61877871  1
  Mo  Mo162  1  0.41036954  0.42031129  0.74538044  1
  Mo  Mo163  1  0.79567658  -0.00618868  0.75551791  1
  Mo  Mo164  1  0.29919000  0.90286054  0.87413478  1
  Mo  Mo165  1  0.59362127  0.38870994  0.50493563  1
  Mo  Mo166  1  0.60224822  0.39575421  0.76130900  1
  Mo  Mo167  1  0.01015260  0.60357460  0.49452382  1
  Mo  Mo168  1  0.69812241  0.89464754  0.87483114  1
  Mo  Mo169  1  -0.00189624  0.40014868  0.74720383  1
  Mo  Mo170  1  0.40077107  0.80865843  0.77560278  1
  Mo  Mo171  1  0.39749888  0.40918202  -0.00202648  1
  Mo  Mo172  1  0.10285014  0.09824096  0.12007185  1
  Mo  Mo173  1  0.50506767  0.70136140  0.38758125  1
  Mo  Mo174  1  0.79787294  0.59608371  0.52535798  1
  Mo  Mo175  1  0.29186962  0.49951888  0.37687054  1
  Mo  Mo176  1  0.50847338  0.91904736  0.63051313  1
  Mo  Mo177  1  0.58764142  0.80359584  0.49061405  1
  Mo  Mo178  1  0.19440517  0.59003050  0.25609385  1
  Mo  Mo179  1  0.81393028  0.59436912  0.25516286  1
  Mo  Mo180  1  0.89895433  0.29488510  0.87168211  1
  Mo  Mo181  1  0.28524650  0.90595087  0.37244231  1
  Mo  Mo182  1  0.19230369  0.00942468  0.24655323  1
  Mo  Mo183  1  0.39613853  0.79982696  0.24248006  1
  Mo  Mo184  1  0.39835228  0.80420089  0.49719721  1
  Mo  Mo185  1  0.69570322  0.69194891  0.11764739  1
  Mo  Mo186  1  0.00213065  0.60452970  -0.00442866  1
  Mo  Mo187  1  0.49457772  0.50003045  0.87341120  1
  Mo  Mo188  1  0.10229860  0.49679313  0.60832533  1
  Mo  Mo189  1  0.80289534  0.78364948  0.75521921  1
  Mo  Mo190  1  0.38939364  0.00870119  0.24143407  1
  Mo  Mo191  1  0.19818270  0.42405573  0.74713379  1
  Mo  Mo192  1  0.19738701  0.59998685  0.75444375  1
  Mo  Mo193  1  0.29761676  0.69234711  0.88585975  1
  Mo  Mo194  1  0.47544102  0.49151864  0.62538490  1
  Mo  Mo195  1  0.70486694  0.28808795  0.63888977  1
  Mo  Mo196  1  0.29055076  0.70231400  0.62170395  1
  Mo  Mo197  1  0.21255269  0.20883619  0.50034245  1
  Mo  Mo198  1  0.00797421  0.39690719  0.48986484  1
  Mo  Mo199  1  0.80314435  0.59062656  -0.01336643  1
