# generated using pymatgen
data_HfZrTaTiMo
_symmetry_space_group_name_H-M   'P 1'
_cell_length_a   15.21394836
_cell_length_b   15.21384853
_cell_length_c   16.86266195
_cell_angle_alpha   89.98551480
_cell_angle_beta   89.97188067
_cell_angle_gamma   90.04534878
_symmetry_Int_Tables_number   1
_chemical_formula_structural   HfZrTaTiMo
_chemical_formula_sum   'Hf40 Zr40 Ta40 Ti40 Mo40'
_cell_volume   3903.07554601
_cell_formula_units_Z   40
loop_
 _symmetry_equiv_pos_site_id
 _symmetry_equiv_pos_as_xyz
  1  'x, y, z'
loop_
 _atom_site_type_symbol
 _atom_site_label
 _atom_site_symmetry_multiplicity
 _atom_site_fract_x
 _atom_site_fract_y
 _atom_site_fract_z
 _atom_site_occupancy
  Hf  Hf0  1  0.00091516  0.40791803  0.50064433  1
  Hf  Hf1  1  0.79404404  0.40747100  0.49028401  1
  Hf  Hf2  1  0.12331539  0.50567239  0.37817049  1
  Hf  Hf3  1  0.00170987  0.61145181  0.50881698  1
  Hf  Hf4  1  0.00511381  -0.00913510  0.74958679  1
  Hf  Hf5  1  -0.00124462  0.19432151  0.75297293  1
  Hf  Hf6  1  0.79278475  -0.00829936  0.48962197  1
  Hf  Hf7  1  -0.01567278  0.78614894  0.24157238  1
  Hf  Hf8  1  0.69401209  0.50294133  0.10885762  1
  Hf  Hf9  1  0.09375329  0.50891871  0.64536743  1
  Hf  Hf10  1  0.82820653  0.59451386  -0.00548741  1
  Hf  Hf11  1  -0.00649154  0.78559838  0.00310519  1
  Hf  Hf12  1  0.69459742  0.89625804  0.12660735  1
  Hf  Hf13  1  0.69932223  0.09123267  0.87891033  1
  Hf  Hf14  1  0.29836801  0.90187865  0.88477522  1
  Hf  Hf15  1  0.20167402  0.01085119  0.24433410  1
  Hf  Hf16  1  0.79374872  0.19740487  0.48179026  1
  Hf  Hf17  1  0.09189782  0.89621861  0.12414138  1
  Hf  Hf18  1  0.69740892  0.30502960  0.61976854  1
  Hf  Hf19  1  0.00609809  0.80370674  0.51247367  1
  Hf  Hf20  1  0.20847996  -0.00027060  0.75287694  1
  Hf  Hf21  1  0.00737271  0.19693342  0.23362481  1
  Hf  Hf22  1  0.90652592  0.30637086  0.36365377  1
  Hf  Hf23  1  0.80113780  0.79609819  0.74866111  1
  Hf  Hf24  1  -0.00980157  0.00146325  0.00173479  1
  Hf  Hf25  1  0.68478485  0.89823846  0.62293733  1
  Hf  Hf26  1  0.10389556  0.10151989  0.37335852  1
  Hf  Hf27  1  0.29582383  0.89322451  0.36248200  1
  Hf  Hf28  1  0.00478754  0.20685321  0.00650183  1
  Hf  Hf29  1  0.81152378  0.19287891  0.01279881  1
  Hf  Hf30  1  0.11107041  0.30127820  0.63374937  1
  Hf  Hf31  1  0.70353397  0.50741948  0.87691329  1
  Hf  Hf32  1  0.49742859  0.28437483  0.62236389  1
  Hf  Hf33  1  0.89822248  0.90171679  0.87196631  1
  Hf  Hf34  1  0.79725474  0.61062654  0.49843140  1
  Hf  Hf35  1  0.59780244  0.80062207  0.75750706  1
  Hf  Hf36  1  0.10225877  0.09347372  0.61912413  1
  Hf  Hf37  1  0.10994880  0.68459661  0.11125180  1
  Hf  Hf38  1  0.39257230  0.21370798  0.25207745  1
  Hf  Hf39  1  0.78297871  0.41774412  0.25417763  1
  Zr  Zr40  1  0.59260083  -0.00067878  0.47702929  1
  Zr  Zr41  1  0.29332354  0.32489963  0.36988207  1
  Zr  Zr42  1  0.23607442  0.57986863  0.23532228  1
  Zr  Zr43  1  0.08593266  0.31226777  0.86969921  1
  Zr  Zr44  1  0.40160308  0.79701449  0.50591638  1
  Zr  Zr45  1  0.20910434  0.40745813  0.51568071  1
  Zr  Zr46  1  0.58981545  0.19178707  0.00295761  1
  Zr  Zr47  1  0.91678093  0.51692231  0.13293211  1
  Zr  Zr48  1  0.68013537  0.51885321  0.37311209  1
  Zr  Zr49  1  0.30989596  0.10610367  0.61656315  1
  Zr  Zr50  1  -0.00131033  0.20245021  0.49970633  1
  Zr  Zr51  1  0.68366712  0.30411332  0.12242103  1
  Zr  Zr52  1  0.71196099  0.30864671  0.89416912  1
  Zr  Zr53  1  0.68753567  0.50259313  0.63735695  1
  Zr  Zr54  1  0.51770328  0.68749998  0.37783721  1
  Zr  Zr55  1  0.90526717  0.08321277  0.35813947  1
  Zr  Zr56  1  0.39490468  0.80088881  0.74672024  1
  Zr  Zr57  1  0.89632780  0.31579642  0.13088786  1
  Zr  Zr58  1  0.50471793  0.69053908  0.62811487  1
  Zr  Zr59  1  0.30844076  0.50620332  0.65072656  1
  Zr  Zr60  1  0.89909112  0.31128237  0.63002238  1
  Zr  Zr61  1  0.11171551  0.10246197  0.11834173  1
  Zr  Zr62  1  0.40048097  -0.00204739  0.48870881  1
  Zr  Zr63  1  0.88590377  0.51975406  0.65201760  1
  Zr  Zr64  1  0.50261380  0.89092338  0.14250776  1
  Zr  Zr65  1  0.70575754  0.70182108  0.10699500  1
  Zr  Zr66  1  0.30890919  0.68328522  0.37898945  1
  Zr  Zr67  1  -0.00651923  -0.00657637  0.50335055  1
  Zr  Zr68  1  0.21675610  0.21248022  -0.00329180  1
  Zr  Zr69  1  0.60083825  0.19970989  0.76196132  1
  Zr  Zr70  1  0.68414567  0.10685924  0.62027363  1
  Zr  Zr71  1  0.19388220  0.78217518  0.25008694  1
  Zr  Zr72  1  0.90821601  0.51227563  0.36418200  1
  Zr  Zr73  1  0.91022186  0.68620390  0.86085615  1
  Zr  Zr74  1  0.79191638  0.00605004  0.74673579  1
  Zr  Zr75  1  0.21462415  0.20666724  0.76006517  1
  Zr  Zr76  1  0.79228924  0.19924205  0.25449301  1
  Zr  Zr77  1  0.29610843  0.88614023  0.13040015  1
  Zr  Zr78  1  0.69985518  0.09054748  0.13617467  1
  Zr  Zr79  1  0.39529969  0.01089769  0.02308822  1
  Ta  Ta80  1  0.31172546  0.10349769  0.88041174  1
  Ta  Ta81  1  0.38410971  0.39318384  -0.01487043  1
  Ta  Ta82  1  0.48540474  0.49520192  0.11690608  1
  Ta  Ta83  1  0.40907122  0.58202083  0.51177612  1
  Ta  Ta84  1  0.40229697  0.20331851  0.48709615  1
  Ta  Ta85  1  0.49432267  0.49211724  0.85979412  1
  Ta  Ta86  1  0.47963584  0.49852697  0.37137346  1
  Ta  Ta87  1  0.58205346  0.41318902  0.50068668  1
  Ta  Ta88  1  0.20174785  0.62371802  0.75257225  1
  Ta  Ta89  1  0.41095035  0.17590725  0.75084787  1
  Ta  Ta90  1  0.90153564  0.10732936  0.87547922  1
  Ta  Ta91  1  0.81205131  0.62746861  0.24694697  1
  Ta  Ta92  1  0.48040459  0.29924811  0.11934666  1
  Ta  Ta93  1  0.80196242  0.21142889  0.75757172  1
  Ta  Ta94  1  0.30207432  0.70425712  0.88240029  1
  Ta  Ta95  1  0.59207272  0.20081295  0.47688903  1
  Ta  Ta96  1  0.70765458  0.69428355  0.62936760  1
  Ta  Ta97  1  0.39513870  0.37447835  0.75585487  1
  Ta  Ta98  1  0.61107308  0.79373964  0.49604364  1
  Ta  Ta99  1  0.02427388  0.60408440  0.25306324  1
  Ta  Ta100  1  0.58953481  0.19854808  0.26537809  1
  Ta  Ta101  1  0.49445029  0.08519842  0.88348728  1
  Ta  Ta102  1  0.57961706  0.40765144  -0.00765725  1
  Ta  Ta103  1  0.90574198  0.47830757  0.85571868  1
  Ta  Ta104  1  0.18961006  0.41719491  -0.01721207  1
  Ta  Ta105  1  0.40173689  0.79188676  0.00455373  1
  Ta  Ta106  1  0.28689057  0.32753475  0.12651495  1
  Ta  Ta107  1  0.50730413  0.68759829  0.11029630  1
  Ta  Ta108  1  0.57397740  0.40367170  0.24505377  1
  Ta  Ta109  1  0.88966549  0.87470565  0.36952269  1
  Ta  Ta110  1  0.19754209  -0.01132360  0.49414366  1
  Ta  Ta111  1  0.50033368  0.88912025  0.35286667  1
  Ta  Ta112  1  0.49534421  0.89651581  0.88493591  1
  Ta  Ta113  1  0.49437893  0.31205929  0.37643539  1
  Ta  Ta114  1  0.57110525  -0.00122779  0.74660416  1
  Ta  Ta115  1  0.29857007  0.50594122  0.86114024  1
  Ta  Ta116  1  0.20848526  0.61381254  0.51806633  1
  Ta  Ta117  1  0.50016574  0.48953304  0.64972583  1
  Ta  Ta118  1  0.59754961  -0.01192267  0.00305668  1
  Ta  Ta119  1  0.29554094  0.10730596  0.37560629  1
  Ti  Ti120  1  0.20912422  0.60124137  -0.00926251  1
  Ti  Ti121  1  0.19812869  0.21599381  0.24013979  1
  Ti  Ti122  1  0.19971700  0.80261347  0.50914874  1
  Ti  Ti123  1  0.39743697  0.39693349  0.51328357  1
  Ti  Ti124  1  0.40428323  0.58714615  -0.01170148  1
  Ti  Ti125  1  0.08877406  0.90259295  0.36423335  1
  Ti  Ti126  1  0.10330324  0.30030844  0.37573637  1
  Ti  Ti127  1  0.60277454  0.59844950  0.23843044  1
  Ti  Ti128  1  0.02361407  0.40192566  0.24773916  1
  Ti  Ti129  1  0.79951007  -0.00150021  0.00324482  1
  Ti  Ti130  1  0.89968953  0.90075278  0.63045085  1
  Ti  Ti131  1  0.10739079  0.70039054  0.87923039  1
  Ti  Ti132  1  0.69071403  0.89866127  0.88070239  1
  Ti  Ti133  1  0.60188510  0.38829512  0.76293695  1
  Ti  Ti134  1  0.01294123  0.79159716  0.73443995  1
  Ti  Ti135  1  0.60021777  0.60574137  0.76239783  1
  Ti  Ti136  1  0.78733629  -0.01652252  0.26332593  1
  Ti  Ti137  1  0.30255378  0.90158219  0.62414595  1
  Ti  Ti138  1  0.40181127  0.01247555  0.25180601  1
  Ti  Ti139  1  0.40151631  0.76469889  0.23902080  1
  Ti  Ti140  1  0.72242401  0.71781533  0.37438481  1
  Ti  Ti141  1  0.69689436  0.70380852  0.89005394  1
  Ti  Ti142  1  0.10561515  0.08996279  0.88300570  1
  Ti  Ti143  1  0.48595677  0.28486303  0.88317697  1
  Ti  Ti144  1  -0.01093537  0.41138715  -0.00339014  1
  Ti  Ti145  1  0.11428702  0.48572864  0.11959174  1
  Ti  Ti146  1  0.50479277  0.10150832  0.13726204  1
  Ti  Ti147  1  0.80910494  0.79882026  0.51144129  1
  Ti  Ti148  1  0.68661301  0.31172099  0.37263830  1
  Ti  Ti149  1  0.20692880  0.20464845  0.49992915  1
  Ti  Ti150  1  0.20047030  -0.00324261  0.00377420  1
  Ti  Ti151  1  0.88881872  0.10523104  0.62533600  1
  Ti  Ti152  1  0.61361458  0.79075955  0.25440426  1
  Ti  Ti153  1  0.88830181  0.90021160  0.13151045  1
  Ti  Ti154  1  0.19717649  0.40622413  0.76128451  1
  Ti  Ti155  1  0.80098511  0.80599967  -0.00478919  1
  Ti  Ti156  1  0.19597615  0.80631080  0.74212338  1
  Ti  Ti157  1  0.10234269  0.89086031  0.88382830  1
  Ti  Ti158  1  0.10019905  0.70681531  0.38180917  1
  Ti  Ti159  1  0.50180159  0.69515013  0.88390061  1
  Mo  Mo160  1  0.09725959  0.51627965  0.86108143  1
  Mo  Mo161  1  0.38980327  0.41566158  0.24221453  1
  Mo  Mo162  1  0.02405132  0.57982178  -0.01021432  1
  Mo  Mo163  1  -0.00033923  0.39697448  0.74941834  1
  Mo  Mo164  1  0.89746905  0.29764877  0.87946238  1
  Mo  Mo165  1  0.30324719  0.30385384  0.87193852  1
  Mo  Mo166  1  0.90750316  0.70195983  0.11649682  1
  Mo  Mo167  1  0.90904697  0.70114542  0.37781051  1
  Mo  Mo168  1  0.10656453  0.70593761  0.62919370  1
  Mo  Mo169  1  0.69482096  0.09952725  0.36575554  1
  Mo  Mo170  1  0.30829790  0.50564590  0.38684098  1
  Mo  Mo171  1  0.59675956  0.59976925  0.50674610  1
  Mo  Mo172  1  0.30678423  0.29733930  0.62750965  1
  Mo  Mo173  1  0.49901612  0.90403535  0.62159752  1
  Mo  Mo174  1  0.30127219  0.50277790  0.10228243  1
  Mo  Mo175  1  0.69556017  0.88850505  0.37479590  1
  Mo  Mo176  1  0.80103768  0.40189283  0.00363330  1
  Mo  Mo177  1  0.79467897  0.79813019  0.24367719  1
  Mo  Mo178  1  0.48830712  0.10305929  0.36271651  1
  Mo  Mo179  1  0.31683096  0.68868536  0.10429596  1
  Mo  Mo180  1  0.90180446  0.07633710  0.13927893  1
  Mo  Mo181  1  0.11251464  0.90130761  0.62675000  1
  Mo  Mo182  1  0.40459373  0.60089760  0.76532440  1
  Mo  Mo183  1  0.59701787  0.80007113  -0.01009619  1
  Mo  Mo184  1  -0.00713907  -0.00894319  0.24482332  1
  Mo  Mo185  1  0.09917520  0.31500660  0.11530639  1
  Mo  Mo186  1  0.19557111  0.40070330  0.24784387  1
  Mo  Mo187  1  0.42254590  0.59051746  0.23893385  1
  Mo  Mo188  1  0.59556444  0.00082761  0.26665765  1
  Mo  Mo189  1  0.89813503  0.70874607  0.63714523  1
  Mo  Mo190  1  0.20270086  0.79850213  -0.00483361  1
  Mo  Mo191  1  0.79111577  0.39369497  0.75318738  1
  Mo  Mo192  1  0.29773001  0.70409910  0.62623101  1
  Mo  Mo193  1  0.31509572  0.12306355  0.13351182  1
  Mo  Mo194  1  0.50317879  0.09181407  0.61759838  1
  Mo  Mo195  1  0.00705843  0.60733059  0.75198394  1
  Mo  Mo196  1  0.79047153  0.60536415  0.76347046  1
  Mo  Mo197  1  0.39694012  -0.00338249  0.75150253  1
  Mo  Mo198  1  0.40011671  0.20473121  0.00798006  1
  Mo  Mo199  1  0.58889265  0.59721123  -0.01201064  1
