# generated using pymatgen
data_HfZrTaTiMo
_symmetry_space_group_name_H-M   'P 1'
_cell_length_a   15.21511650
_cell_length_b   15.20447357
_cell_length_c   16.84994414
_cell_angle_alpha   90.01811405
_cell_angle_beta   89.96095993
_cell_angle_gamma   90.06972168
_symmetry_Int_Tables_number   1
_chemical_formula_structural   HfZrTaTiMo
_chemical_formula_sum   'Hf40 Zr40 Ta40 Ti40 Mo40'
_cell_volume   3898.02563942
_cell_formula_units_Z   40
loop_
 _symmetry_equiv_pos_site_id
 _symmetry_equiv_pos_as_xyz
  1  'x, y, z'
loop_
 _atom_site_type_symbol
 _atom_site_label
 _atom_site_symmetry_multiplicity
 _atom_site_fract_x
 _atom_site_fract_y
 _atom_site_fract_z
 _atom_site_occupancy
  Hf  Hf0  1  0.40593952  0.00232197  0.25794848  1
  Hf  Hf1  1  0.09292291  0.89959205  0.38273826  1
  Hf  Hf2  1  0.40424900  0.59669116  0.24948225  1
  Hf  Hf3  1  0.30561757  0.29468115  0.36109378  1
  Hf  Hf4  1  0.91264678  0.08693456  0.61183397  1
  Hf  Hf5  1  0.31064463  0.50517771  0.62619814  1
  Hf  Hf6  1  0.78605366  -0.01285609  0.25725497  1
  Hf  Hf7  1  0.60561326  0.22855006  0.49472786  1
  Hf  Hf8  1  0.79501274  0.79009087  0.73350119  1
  Hf  Hf9  1  0.10733887  0.10352574  0.13215889  1
  Hf  Hf10  1  0.20038295  0.38782476  0.00285611  1
  Hf  Hf11  1  0.89104480  0.88177062  0.39436903  1
  Hf  Hf12  1  0.79777408  0.39160461  0.25041359  1
  Hf  Hf13  1  0.79349258  0.57610364  0.51338832  1
  Hf  Hf14  1  0.09633908  0.69205109  0.88824609  1
  Hf  Hf15  1  0.79517951  0.61513157  -0.01184495  1
  Hf  Hf16  1  -0.01311809  0.20396925  0.24499816  1
  Hf  Hf17  1  0.90169969  0.09076390  0.38650383  1
  Hf  Hf18  1  0.49453573  0.11670602  0.37938510  1
  Hf  Hf19  1  0.30884995  0.90906732  0.12069836  1
  Hf  Hf20  1  0.69934968  0.10544064  0.38205288  1
  Hf  Hf21  1  0.89625603  0.49675011  0.86080575  1
  Hf  Hf22  1  0.70138707  0.08968083  0.88545403  1
  Hf  Hf23  1  0.09194092  0.50896446  0.38513631  1
  Hf  Hf24  1  0.30007094  0.29671122  0.14642976  1
  Hf  Hf25  1  0.90365968  0.68458355  0.38884839  1
  Hf  Hf26  1  0.68933672  0.09042857  0.11925537  1
  Hf  Hf27  1  0.10451295  0.10647729  0.36714595  1
  Hf  Hf28  1  0.30305911  0.51107786  0.38341095  1
  Hf  Hf29  1  0.51182024  0.31097463  0.63022130  1
  Hf  Hf30  1  0.01084562  0.78036269  0.51758656  1
  Hf  Hf31  1  0.41291192  0.39966697  0.49907471  1
  Hf  Hf32  1  0.61392805  0.80679896  0.25625333  1
  Hf  Hf33  1  0.42031471  0.81985731  -0.01448447  1
  Hf  Hf34  1  0.69955209  0.70142865  0.39532021  1
  Hf  Hf35  1  0.78496101  0.41041213  0.00098162  1
  Hf  Hf36  1  0.70313633  0.11887802  0.61281049  1
  Hf  Hf37  1  0.00912282  -0.00097115  0.00283389  1
  Hf  Hf38  1  0.68304700  0.88734816  0.61484950  1
  Hf  Hf39  1  0.19901142  0.80399654  0.76428123  1
  Zr  Zr40  1  0.39739633  -0.01372779  0.49150967  1
  Zr  Zr41  1  0.39962096  0.79330397  0.25133817  1
  Zr  Zr42  1  0.20153665  0.60867958  0.24993570  1
  Zr  Zr43  1  0.48462959  0.71937839  0.64127605  1
  Zr  Zr44  1  0.29526347  0.69587920  0.09777394  1
  Zr  Zr45  1  0.70836206  0.89005003  0.11456599  1
  Zr  Zr46  1  0.88834133  0.90333017  0.88179597  1
  Zr  Zr47  1  0.29744375  0.49378307  0.87725445  1
  Zr  Zr48  1  0.79395498  -0.00323059  0.73810361  1
  Zr  Zr49  1  0.20748359  0.19484671  0.74331527  1
  Zr  Zr50  1  0.90542134  0.10887051  0.88425702  1
  Zr  Zr51  1  0.89841401  0.51204982  0.12979003  1
  Zr  Zr52  1  0.02379078  0.20093178  0.50764729  1
  Zr  Zr53  1  0.90490030  0.30361817  0.87042686  1
  Zr  Zr54  1  0.19749693  0.79758154  0.24528004  1
  Zr  Zr55  1  0.00668597  -0.00302891  0.75745464  1
  Zr  Zr56  1  0.50982609  0.89901673  0.37436946  1
  Zr  Zr57  1  0.89647179  0.70249005  0.86777976  1
  Zr  Zr58  1  0.30769872  0.28927877  0.87135872  1
  Zr  Zr59  1  -0.00892540  -0.01074769  0.24453547  1
  Zr  Zr60  1  0.51118635  0.70118390  0.11884491  1
  Zr  Zr61  1  0.58092881  0.00146868  0.73756121  1
  Zr  Zr62  1  0.30872088  0.49487167  0.11594837  1
  Zr  Zr63  1  0.49476672  0.10056596  0.88162856  1
  Zr  Zr64  1  0.09787662  0.29910539  0.87558227  1
  Zr  Zr65  1  0.31477513  0.09278230  0.61366235  1
  Zr  Zr66  1  0.19782863  0.81992802  -0.01694297  1
  Zr  Zr67  1  0.59950439  0.58369634  -0.01531040  1
  Zr  Zr68  1  0.80212884  0.20624417  0.01330384  1
  Zr  Zr69  1  0.19806505  0.39131234  0.50031108  1
  Zr  Zr70  1  0.21220116  -0.00046663  0.75683791  1
  Zr  Zr71  1  0.10242443  0.50414222  0.11495113  1
  Zr  Zr72  1  0.69601041  0.50606998  0.13411309  1
  Zr  Zr73  1  0.20341786  0.60292939  0.74790112  1
  Zr  Zr74  1  -0.00118140  0.60569824  0.73263442  1
  Zr  Zr75  1  -0.00219805  0.60701192  0.25013923  1
  Zr  Zr76  1  0.00989052  0.20651513  0.73151268  1
  Zr  Zr77  1  0.69695528  0.29917610  0.87814275  1
  Zr  Zr78  1  0.10272004  0.90796713  0.61990118  1
  Zr  Zr79  1  -0.01449699  0.39693658  0.50610554  1
  Ta  Ta80  1  0.89171894  0.09145408  0.11937551  1
  Ta  Ta81  1  0.89409517  0.49005247  0.37028270  1
  Ta  Ta82  1  0.40973712  0.59762427  -0.01633621  1
  Ta  Ta83  1  0.10044293  0.89654456  0.12435230  1
  Ta  Ta84  1  0.09721570  0.30566931  0.35887867  1
  Ta  Ta85  1  0.80104507  0.19439588  0.74715372  1
  Ta  Ta86  1  0.41541984  0.18841747  0.74261436  1
  Ta  Ta87  1  0.58525976  0.20974203  0.00820294  1
  Ta  Ta88  1  0.60936308  0.20663975  0.74534018  1
  Ta  Ta89  1  0.30434539  0.10479640  0.13342942  1
  Ta  Ta90  1  0.60770584  0.42365090  0.49721456  1
  Ta  Ta91  1  0.08963115  0.70066571  0.10257800  1
  Ta  Ta92  1  0.30716646  0.29704336  0.62385203  1
  Ta  Ta93  1  0.79457722  -0.00481104  0.50582881  1
  Ta  Ta94  1  0.70094621  0.50066330  0.36838326  1
  Ta  Ta95  1  0.10109061  0.49578631  0.62134542  1
  Ta  Ta96  1  0.68120361  0.68337341  0.61764802  1
  Ta  Ta97  1  0.20390676  0.62461852  0.51475548  1
  Ta  Ta98  1  0.31069025  0.70423394  0.88048921  1
  Ta  Ta99  1  0.31168642  0.88241777  0.63022488  1
  Ta  Ta100  1  0.81123253  0.78416064  0.25373166  1
  Ta  Ta101  1  0.60577761  0.60651870  0.25569358  1
  Ta  Ta102  1  0.49479867  0.09965421  0.12491189  1
  Ta  Ta103  1  0.10882446  0.10053410  0.88589047  1
  Ta  Ta104  1  0.89071674  0.29090127  0.37563941  1
  Ta  Ta105  1  0.79120435  0.19469853  0.24272631  1
  Ta  Ta106  1  -0.00810459  0.40204852  0.00367122  1
  Ta  Ta107  1  0.59150991  0.00867201  0.51184566  1
  Ta  Ta108  1  0.59899475  0.19973138  0.24857002  1
  Ta  Ta109  1  0.29602040  0.10399426  0.37632982  1
  Ta  Ta110  1  0.58638646  -0.01480771  -0.00388602  1
  Ta  Ta111  1  0.61715306  0.78636726  -0.01504973  1
  Ta  Ta112  1  0.50456993  0.30778159  0.86671080  1
  Ta  Ta113  1  0.18977216  0.39745733  0.74138244  1
  Ta  Ta114  1  0.50226282  0.49191911  0.12683177  1
  Ta  Ta115  1  0.88831172  0.48324579  0.63805371  1
  Ta  Ta116  1  -0.00088101  0.79583472  0.24537006  1
  Ta  Ta117  1  0.19298558  0.00695681  0.49870898  1
  Ta  Ta118  1  0.09000519  0.49688669  0.88110236  1
  Ta  Ta119  1  0.20349265  -0.00050756  0.25229748  1
  Ti  Ti120  1  0.30846410  0.09638845  0.87990570  1
  Ti  Ti121  1  0.38085789  0.78623971  0.49695931  1
  Ti  Ti122  1  0.40274069  0.39985214  0.74968776  1
  Ti  Ti123  1  0.68802516  0.48575412  0.63693328  1
  Ti  Ti124  1  0.28849535  0.89070634  0.37702261  1
  Ti  Ti125  1  0.89738886  0.89514702  0.11726995  1
  Ti  Ti126  1  0.40882461  0.60537538  0.50516930  1
  Ti  Ti127  1  0.89481431  0.88830649  0.61058268  1
  Ti  Ti128  1  0.00931388  0.20891163  0.01504903  1
  Ti  Ti129  1  0.69314779  0.88904095  0.87117260  1
  Ti  Ti130  1  0.78715409  0.59657227  0.74112581  1
  Ti  Ti131  1  0.78968863  0.38652342  0.74678963  1
  Ti  Ti132  1  0.19689316  0.41149011  0.25531363  1
  Ti  Ti133  1  0.11343593  0.70519333  0.38298180  1
  Ti  Ti134  1  0.49233997  0.30130597  0.13715400  1
  Ti  Ti135  1  0.39512860  0.20246767  0.00705915  1
  Ti  Ti136  1  0.51378100  0.90882347  0.13184126  1
  Ti  Ti137  1  0.40447560  0.60409000  0.76184321  1
  Ti  Ti138  1  0.90070367  0.30661768  0.12786242  1
  Ti  Ti139  1  0.50981989  0.51695608  0.63549264  1
  Ti  Ti140  1  0.20238828  0.19431752  0.00578070  1
  Ti  Ti141  1  0.42152404  0.39597171  -0.00468505  1
  Ti  Ti142  1  0.71116350  0.69736875  0.12799421  1
  Ti  Ti143  1  0.68215379  0.49777423  0.85504149  1
  Ti  Ti144  1  0.51311683  0.70516556  0.85833586  1
  Ti  Ti145  1  0.09691963  0.30906985  0.14310140  1
  Ti  Ti146  1  0.00024521  0.79956599  0.73902873  1
  Ti  Ti147  1  0.50536721  0.50544012  0.37264300  1
  Ti  Ti148  1  0.50214532  0.31117239  0.36415721  1
  Ti  Ti149  1  0.57755921  0.79633034  0.50314982  1
  Ti  Ti150  1  0.68498575  0.30333060  0.12553445  1
  Ti  Ti151  1  0.69896403  0.89695549  0.39705438  1
  Ti  Ti152  1  0.59321229  0.40265672  0.25388490  1
  Ti  Ti153  1  -0.00810608  0.80205357  -0.00240094  1
  Ti  Ti154  1  0.88677938  0.29044776  0.62183045  1
  Ti  Ti155  1  0.78594217  0.37918813  0.49395144  1
  Ti  Ti156  1  0.21208167  0.00612369  -0.00440625  1
  Ti  Ti157  1  0.49538388  0.69377432  0.38063463  1
  Ti  Ti158  1  0.89828865  0.70698896  0.11675425  1
  Ti  Ti159  1  -0.00289675  0.59249441  0.52108140  1
  Mo  Mo160  1  0.39894034  0.20990955  0.49995246  1
  Mo  Mo161  1  0.71049496  0.31139951  0.62739578  1
  Mo  Mo162  1  0.09552434  0.90537594  0.87797706  1
  Mo  Mo163  1  0.88966433  0.69063102  0.62273853  1
  Mo  Mo164  1  -0.00500667  0.59673007  -0.00226282  1
  Mo  Mo165  1  0.40039409  0.81617355  0.77071395  1
  Mo  Mo166  1  0.10507470  0.70056264  0.62872945  1
  Mo  Mo167  1  0.79423775  0.60793373  0.25963318  1
  Mo  Mo168  1  0.58848191  0.59751057  0.50059891  1
  Mo  Mo169  1  0.69952797  0.69914862  0.85956757  1
  Mo  Mo170  1  0.48809653  0.90651081  0.61949128  1
  Mo  Mo171  1  0.60015244  0.60253110  0.75200554  1
  Mo  Mo172  1  0.50838940  0.90185573  0.87166217  1
  Mo  Mo173  1  0.39925212  -0.00069168  0.74731005  1
  Mo  Mo174  1  0.11155084  0.10112791  0.61536737  1
  Mo  Mo175  1  0.79457284  0.78736786  0.52007470  1
  Mo  Mo176  1  0.20409896  0.60056743  -0.01078142  1
  Mo  Mo177  1  0.40092642  0.01120654  0.00869193  1
  Mo  Mo178  1  -0.00050802  0.40206272  0.73496303  1
  Mo  Mo179  1  0.21016537  0.80731758  0.50138618  1
  Mo  Mo180  1  0.79838120  0.80139556  -0.00205598  1
  Mo  Mo181  1  0.69486597  0.30480930  0.36416913  1
  Mo  Mo182  1  0.60225170  0.80000549  0.75490301  1
  Mo  Mo183  1  0.79708935  -0.00316576  0.00177932  1
  Mo  Mo184  1  0.59655821  0.40188776  0.74827148  1
  Mo  Mo185  1  0.21477562  0.20163949  0.49807355  1
  Mo  Mo186  1  -0.00070245  -0.00667339  0.49942080  1
  Mo  Mo187  1  0.40825755  0.40634226  0.25572535  1
  Mo  Mo188  1  0.50137664  0.11163111  0.61402814  1
  Mo  Mo189  1  0.40630842  0.20003208  0.24764519  1
  Mo  Mo190  1  0.30323717  0.70000486  0.38203019  1
  Mo  Mo191  1  0.80793795  0.20614513  0.49492188  1
  Mo  Mo192  1  0.31326935  0.91502659  0.87532167  1
  Mo  Mo193  1  0.11218925  0.30562242  0.62451552  1
  Mo  Mo194  1  0.58982132  0.39214976  0.00463153  1
  Mo  Mo195  1  0.00045017  0.39923511  0.25715563  1
  Mo  Mo196  1  0.60499455  0.00670649  0.25249028  1
  Mo  Mo197  1  0.49443282  0.49533555  0.86395812  1
  Mo  Mo198  1  0.30055234  0.70272422  0.63571762  1
  Mo  Mo199  1  0.19714872  0.19887462  0.24944007  1
