# generated using pymatgen
data_HfZrTaTiMo
_symmetry_space_group_name_H-M   'P 1'
_cell_length_a   15.19454986
_cell_length_b   15.21183865
_cell_length_c   16.87455571
_cell_angle_alpha   89.97999975
_cell_angle_beta   89.97563328
_cell_angle_gamma   89.98142680
_symmetry_Int_Tables_number   1
_chemical_formula_structural   HfZrTaTiMo
_chemical_formula_sum   'Hf40 Zr40 Ta40 Ti40 Mo40'
_cell_volume   3900.33407689
_cell_formula_units_Z   40
loop_
 _symmetry_equiv_pos_site_id
 _symmetry_equiv_pos_as_xyz
  1  'x, y, z'
loop_
 _atom_site_type_symbol
 _atom_site_label
 _atom_site_symmetry_multiplicity
 _atom_site_fract_x
 _atom_site_fract_y
 _atom_site_fract_z
 _atom_site_occupancy
  Hf  Hf0  1  0.40625775  0.00080070  0.75331994  1
  Hf  Hf1  1  0.79946864  -0.00116182  0.00279337  1
  Hf  Hf2  1  0.88863588  0.89837630  0.36738922  1
  Hf  Hf3  1  0.31441186  0.09839444  0.11511767  1
  Hf  Hf4  1  0.78300266  0.79656241  0.50651251  1
  Hf  Hf5  1  -0.00214805  0.38567414  0.49832807  1
  Hf  Hf6  1  0.70687142  0.11129735  0.63054552  1
  Hf  Hf7  1  0.70272534  0.30663512  0.87016810  1
  Hf  Hf8  1  0.29882489  0.90400410  0.61444490  1
  Hf  Hf9  1  0.10334318  0.68221944  0.39024809  1
  Hf  Hf10  1  0.28879372  0.71091023  0.12459287  1
  Hf  Hf11  1  0.79440651  0.80093767  0.75532019  1
  Hf  Hf12  1  0.20751745  0.00440263  0.25998496  1
  Hf  Hf13  1  0.29898751  0.70154669  0.61576334  1
  Hf  Hf14  1  0.68686598  0.90424797  0.11459635  1
  Hf  Hf15  1  0.71550008  0.32618667  0.63670630  1
  Hf  Hf16  1  0.19145233  0.80500612  0.75016371  1
  Hf  Hf17  1  0.69822146  0.69136833  0.12403361  1
  Hf  Hf18  1  0.00329764  0.39408484  0.25424812  1
  Hf  Hf19  1  -0.01620052  0.79220257  0.49274755  1
  Hf  Hf20  1  0.08662203  0.29929724  0.63391552  1
  Hf  Hf21  1  0.49214150  0.51404450  0.12906738  1
  Hf  Hf22  1  0.90329905  0.09603383  0.88033430  1
  Hf  Hf23  1  0.08799093  0.49668995  0.12490558  1
  Hf  Hf24  1  0.82189892  0.22230577  0.50695918  1
  Hf  Hf25  1  0.79307568  0.58565287  0.51053748  1
  Hf  Hf26  1  0.59803666  0.61439724  0.50073128  1
  Hf  Hf27  1  0.20811735  0.01418148  0.48518380  1
  Hf  Hf28  1  0.71287181  0.32806660  0.37766422  1
  Hf  Hf29  1  0.11416718  0.88691220  0.12571318  1
  Hf  Hf30  1  -0.01067563  0.58432725  -0.01592148  1
  Hf  Hf31  1  0.50665164  0.09086195  0.11590339  1
  Hf  Hf32  1  0.79527454  0.42391179  0.22447077  1
  Hf  Hf33  1  0.01437534  0.20683868  -0.01258279  1
  Hf  Hf34  1  0.10904715  0.28232565  0.37647535  1
  Hf  Hf35  1  0.30688877  0.30830111  0.85983035  1
  Hf  Hf36  1  0.39199289  0.61504052  0.25157751  1
  Hf  Hf37  1  0.00342427  0.58341445  0.75164241  1
  Hf  Hf38  1  0.89542649  0.69395049  0.63569518  1
  Hf  Hf39  1  -0.02239724  0.38614004  0.77264659  1
  Zr  Zr40  1  0.80839218  0.41118853  0.00236559  1
  Zr  Zr41  1  0.01439871  -0.01101134  0.75649478  1
  Zr  Zr42  1  0.81207299  0.21483012  0.23497567  1
  Zr  Zr43  1  0.39657250  0.58751603  0.49876194  1
  Zr  Zr44  1  0.49495972  0.30348234  0.38545766  1
  Zr  Zr45  1  0.50164451  0.30535335  0.62489556  1
  Zr  Zr46  1  0.19191400  0.60680934  -0.01164959  1
  Zr  Zr47  1  0.71643366  0.11160757  0.37965060  1
  Zr  Zr48  1  0.50770811  0.09573760  0.37568278  1
  Zr  Zr49  1  0.80502066  0.79257740  -0.00136057  1
  Zr  Zr50  1  0.29811270  0.30434128  0.63704498  1
  Zr  Zr51  1  0.32289914  0.10272184  0.88863002  1
  Zr  Zr52  1  0.61468089  0.19488715  0.23762541  1
  Zr  Zr53  1  0.49366508  0.50188752  0.36849727  1
  Zr  Zr54  1  0.49938407  0.89374796  0.62814708  1
  Zr  Zr55  1  0.78720824  0.20465886  0.01445604  1
  Zr  Zr56  1  0.00129657  0.78769929  0.25627519  1
  Zr  Zr57  1  0.20390452  0.79288280  0.26517916  1
  Zr  Zr58  1  0.93059031  0.31229696  0.11407412  1
  Zr  Zr59  1  0.11747417  0.09595557  0.62286506  1
  Zr  Zr60  1  0.79286017  0.00625449  0.24109565  1
  Zr  Zr61  1  0.39759894  0.20414351  0.25305910  1
  Zr  Zr62  1  0.59465333  0.39610360  0.23793812  1
  Zr  Zr63  1  0.39142123  0.19762746  0.50409453  1
  Zr  Zr64  1  0.59760927  0.40418365  0.00481379  1
  Zr  Zr65  1  0.60640958  0.41962536  0.50538910  1
  Zr  Zr66  1  0.81194869  -0.00082945  0.50130377  1
  Zr  Zr67  1  0.70459343  0.70081488  0.36746981  1
  Zr  Zr68  1  0.90831728  0.88411685  0.87241338  1
  Zr  Zr69  1  0.60632496  0.00631850  0.76060917  1
  Zr  Zr70  1  0.60613000  0.00268163  0.50497615  1
  Zr  Zr71  1  0.10056031  0.68807294  0.61479932  1
  Zr  Zr72  1  0.38684192  0.40039282  0.00076264  1
  Zr  Zr73  1  0.58670019  0.80018227  0.24033073  1
  Zr  Zr74  1  0.09738745  0.89374945  0.60504068  1
  Zr  Zr75  1  0.11575787  0.10300768  0.11682384  1
  Zr  Zr76  1  0.39524633  0.60491006  -0.00573171  1
  Zr  Zr77  1  0.91756670  0.10111885  0.62867593  1
  Zr  Zr78  1  0.58556568  0.80348449  0.76756710  1
  Zr  Zr79  1  0.91114144  0.09437153  0.11940905  1
  Ta  Ta80  1  0.10645576  0.89680231  0.88249560  1
  Ta  Ta81  1  0.48590429  0.29432509  0.11906036  1
  Ta  Ta82  1  0.70416450  0.90028997  0.63332482  1
  Ta  Ta83  1  0.20507595  0.19193607  0.75466860  1
  Ta  Ta84  1  0.18484264  0.41352546  0.75208610  1
  Ta  Ta85  1  0.00743072  -0.00534858  0.25220273  1
  Ta  Ta86  1  0.40191816  -0.00783299  0.25512658  1
  Ta  Ta87  1  0.21270801  0.00333759  0.75570607  1
  Ta  Ta88  1  0.69645372  0.69581855  0.87498893  1
  Ta  Ta89  1  0.48005418  0.89581501  0.10856741  1
  Ta  Ta90  1  0.90077799  0.89542413  0.63370897  1
  Ta  Ta91  1  0.68625779  0.50945989  0.86828662  1
  Ta  Ta92  1  0.09679536  0.90248884  0.38799488  1
  Ta  Ta93  1  0.88922941  0.49476504  0.37417681  1
  Ta  Ta94  1  0.38231518  0.40497291  0.24367690  1
  Ta  Ta95  1  0.60948117  0.59622020  0.24937889  1
  Ta  Ta96  1  0.68381114  0.70049243  0.63745895  1
  Ta  Ta97  1  0.18508056  0.40283831  -0.00792337  1
  Ta  Ta98  1  0.90808545  0.68591572  0.12682403  1
  Ta  Ta99  1  0.89074376  0.47366141  0.63172292  1
  Ta  Ta100  1  0.29845761  0.89800411  0.87810591  1
  Ta  Ta101  1  0.01127554  0.78392487  0.00684308  1
  Ta  Ta102  1  0.02362718  0.19086751  0.24563686  1
  Ta  Ta103  1  0.01020989  -0.01486706  0.00004973  1
  Ta  Ta104  1  0.08978845  0.70658938  0.86501885  1
  Ta  Ta105  1  0.68478883  0.90216356  0.37050973  1
  Ta  Ta106  1  0.49243457  0.69854417  0.63282936  1
  Ta  Ta107  1  0.79157398  0.59636333  -0.00420823  1
  Ta  Ta108  1  0.28106054  0.50231054  0.13238807  1
  Ta  Ta109  1  0.60257023  0.20534305  0.75267031  1
  Ta  Ta110  1  0.49414119  0.50509666  0.63696110  1
  Ta  Ta111  1  0.10854704  0.48661355  0.37269962  1
  Ta  Ta112  1  0.39556049  0.81075481  0.24728055  1
  Ta  Ta113  1  0.40585102  -0.00402584  0.49484618  1
  Ta  Ta114  1  0.49251920  0.71794264  0.37677947  1
  Ta  Ta115  1  0.90855430  0.89032811  0.12705763  1
  Ta  Ta116  1  0.92641626  0.10407425  0.37589240  1
  Ta  Ta117  1  0.81566859  0.21227280  0.75556135  1
  Ta  Ta118  1  0.20437392  0.60405819  0.75706691  1
  Ta  Ta119  1  0.21551598  0.21344165  -0.00567076  1
  Ti  Ti120  1  0.49769976  0.30021078  0.87146094  1
  Ti  Ti121  1  0.59475127  0.20167497  -0.00229243  1
  Ti  Ti122  1  0.49595718  0.68521582  0.87237113  1
  Ti  Ti123  1  0.70116274  0.10672703  0.87274314  1
  Ti  Ti124  1  0.60861808  0.20814776  0.50551638  1
  Ti  Ti125  1  0.31334323  0.88876608  0.38923071  1
  Ti  Ti126  1  0.79725786  0.79818632  0.24121990  1
  Ti  Ti127  1  0.58808607  0.80827280  0.50121984  1
  Ti  Ti128  1  0.11816616  0.09201065  0.88390989  1
  Ti  Ti129  1  0.28582744  0.30236680  0.12645987  1
  Ti  Ti130  1  0.59282826  -0.00616374  0.24641815  1
  Ti  Ti131  1  0.59410789  0.60206948  -0.00012634  1
  Ti  Ti132  1  0.49907530  0.10192143  0.62221017  1
  Ti  Ti133  1  0.29378742  0.12332504  0.37007309  1
  Ti  Ti134  1  0.80217920  0.00481846  0.75343160  1
  Ti  Ti135  1  0.00885395  0.19125022  0.76745439  1
  Ti  Ti136  1  0.39177429  0.79788828  -0.00720474  1
  Ti  Ti137  1  0.39953834  0.59635832  0.75560992  1
  Ti  Ti138  1  -0.00646851  0.57702361  0.50646632  1
  Ti  Ti139  1  0.89386479  0.68855029  0.86340043  1
  Ti  Ti140  1  0.19868052  0.57057074  0.50463653  1
  Ti  Ti141  1  0.21336578  -0.00922448  0.00070085  1
  Ti  Ti142  1  0.38769653  0.79200215  0.76206738  1
  Ti  Ti143  1  0.90575788  0.29613668  0.36766616  1
  Ti  Ti144  1  0.29926187  0.50369918  0.86641582  1
  Ti  Ti145  1  0.20105728  0.79709040  -0.00827689  1
  Ti  Ti146  1  0.29517318  0.49635612  0.63558744  1
  Ti  Ti147  1  0.10874465  0.30043662  0.86863986  1
  Ti  Ti148  1  0.69883942  0.89853855  0.88359135  1
  Ti  Ti149  1  0.78802328  0.58624062  0.74675798  1
  Ti  Ti150  1  0.59664220  0.00647423  -0.01301246  1
  Ti  Ti151  1  0.49144711  0.90766209  0.88863426  1
  Ti  Ti152  1  0.59031672  0.41402436  0.75453051  1
  Ti  Ti153  1  -0.00094080  0.59203271  0.25223258  1
  Ti  Ti154  1  0.89532324  0.68511329  0.37155362  1
  Ti  Ti155  1  0.58794349  0.79141177  -0.00524470  1
  Ti  Ti156  1  0.41016560  0.19554654  0.74706832  1
  Ti  Ti157  1  0.29465663  0.32901617  0.38066826  1
  Ti  Ti158  1  0.19871531  0.21128932  0.50664281  1
  Ti  Ti159  1  0.29818856  0.69563119  0.38838850  1
  Mo  Mo160  1  0.90226283  0.51200233  0.12287465  1
  Mo  Mo161  1  0.30228588  0.90428741  0.12085642  1
  Mo  Mo162  1  0.20826217  0.20681469  0.24714361  1
  Mo  Mo163  1  0.89857002  0.29020539  0.88628440  1
  Mo  Mo164  1  0.69126253  0.09583185  0.11650738  1
  Mo  Mo165  1  0.59156947  0.60547787  0.75305365  1
  Mo  Mo166  1  0.10727653  0.09611052  0.37324055  1
  Mo  Mo167  1  0.49640995  0.70784270  0.11647592  1
  Mo  Mo168  1  0.11487097  0.30191251  0.11901193  1
  Mo  Mo169  1  0.29602403  0.70569435  0.86767829  1
  Mo  Mo170  1  0.90331846  0.29226162  0.63290501  1
  Mo  Mo171  1  0.69473754  0.51182073  0.11801878  1
  Mo  Mo172  1  0.37909993  0.41018484  0.50477580  1
  Mo  Mo173  1  0.40569643  -0.00638966  -0.00708831  1
  Mo  Mo174  1  0.28495698  0.50846998  0.36464400  1
  Mo  Mo175  1  0.88003321  0.50198129  0.86693223  1
  Mo  Mo176  1  0.00038956  -0.00375140  0.49259361  1
  Mo  Mo177  1  0.20430857  0.79573790  0.48480675  1
  Mo  Mo178  1  0.40407899  0.79582866  0.49951484  1
  Mo  Mo179  1  0.00533651  0.40074251  -0.02376643  1
  Mo  Mo180  1  0.68972910  0.51140187  0.63999349  1
  Mo  Mo181  1  0.01006679  0.18877227  0.49693606  1
  Mo  Mo182  1  0.49861413  0.90014135  0.37474061  1
  Mo  Mo183  1  0.70547700  0.50826324  0.36911724  1
  Mo  Mo184  1  0.19912324  0.39449577  0.24765702  1
  Mo  Mo185  1  0.20387279  0.40092859  0.50690759  1
  Mo  Mo186  1  0.81015551  0.41108504  0.50113024  1
  Mo  Mo187  1  -0.00188669  0.79177431  0.74848814  1
  Mo  Mo188  1  0.51463233  0.11439059  0.87871737  1
  Mo  Mo189  1  0.39851635  0.40771702  0.75519784  1
  Mo  Mo190  1  0.49220222  0.49314967  0.86580822  1
  Mo  Mo191  1  0.19267052  0.59265100  0.25363588  1
  Mo  Mo192  1  0.68580288  0.30165917  0.11592494  1
  Mo  Mo193  1  0.09472059  0.69178241  0.12623981  1
  Mo  Mo194  1  0.40918126  0.20917508  0.00100095  1
  Mo  Mo195  1  0.31075427  0.09794513  0.63142524  1
  Mo  Mo196  1  0.79167770  0.40373130  0.76251082  1
  Mo  Mo197  1  0.10056731  0.49197329  0.62699587  1
  Mo  Mo198  1  0.80978406  0.60883162  0.24979719  1
  Mo  Mo199  1  0.10216573  0.49779870  0.86995854  1
