# generated using pymatgen
data_HfZrTaTiMo
_symmetry_space_group_name_H-M   'P 1'
_cell_length_a   15.21553120
_cell_length_b   15.21317083
_cell_length_c   16.84388604
_cell_angle_alpha   89.98498307
_cell_angle_beta   89.97065117
_cell_angle_gamma   90.01900452
_symmetry_Int_Tables_number   1
_chemical_formula_structural   HfZrTaTiMo
_chemical_formula_sum   'Hf40 Zr40 Ta40 Ti40 Mo40'
_cell_volume   3898.96251254
_cell_formula_units_Z   40
loop_
 _symmetry_equiv_pos_site_id
 _symmetry_equiv_pos_as_xyz
  1  'x, y, z'
loop_
 _atom_site_type_symbol
 _atom_site_label
 _atom_site_symmetry_multiplicity
 _atom_site_fract_x
 _atom_site_fract_y
 _atom_site_fract_z
 _atom_site_occupancy
  Hf  Hf0  1  0.89620502  0.08957973  0.88577605  1
  Hf  Hf1  1  0.01337868  0.19061489  0.00085067  1
  Hf  Hf2  1  0.58969720  0.19900255  0.23771716  1
  Hf  Hf3  1  0.31139308  0.50193510  0.14010253  1
  Hf  Hf4  1  0.11427880  0.70433305  0.12996227  1
  Hf  Hf5  1  0.60442075  0.59856729  0.26489032  1
  Hf  Hf6  1  0.90279625  0.68312205  0.88607277  1
  Hf  Hf7  1  0.70723188  0.09376042  0.12221276  1
  Hf  Hf8  1  0.90976933  0.09107082  0.11947131  1
  Hf  Hf9  1  0.40880705  0.62041060  0.00831598  1
  Hf  Hf10  1  0.19778780  0.61183604  0.48133947  1
  Hf  Hf11  1  0.09113609  0.31000504  0.87040497  1
  Hf  Hf12  1  0.48833755  0.68970449  0.61943235  1
  Hf  Hf13  1  0.80301026  0.19958632  0.75579370  1
  Hf  Hf14  1  0.70555979  0.88790974  0.12968152  1
  Hf  Hf15  1  0.60214993  0.19426643  0.76902982  1
  Hf  Hf16  1  0.30360223  0.51245347  0.61447626  1
  Hf  Hf17  1  0.68691082  0.27964922  0.36288889  1
  Hf  Hf18  1  0.80549268  0.79272932  0.75359004  1
  Hf  Hf19  1  0.01898765  0.58391294  0.00815124  1
  Hf  Hf20  1  0.79560796  0.39285968  0.75699115  1
  Hf  Hf21  1  0.68907473  0.90702263  0.62478839  1
  Hf  Hf22  1  0.59857128  0.79817610  0.75678508  1
  Hf  Hf23  1  0.39639560  0.00501461  0.24026744  1
  Hf  Hf24  1  0.70247408  0.90833267  0.87942573  1
  Hf  Hf25  1  -0.00932846  0.40429830  0.74941753  1
  Hf  Hf26  1  0.38995968  0.80683299  0.50024152  1
  Hf  Hf27  1  0.00685801  0.01952948  0.25936178  1
  Hf  Hf28  1  0.19860051  0.42192450  0.75344197  1
  Hf  Hf29  1  0.70713125  0.30429802  0.11709904  1
  Hf  Hf30  1  0.09533504  0.51469295  0.61523112  1
  Hf  Hf31  1  0.69083913  0.89011518  0.36565057  1
  Hf  Hf32  1  0.59355337  0.59872274  0.75414059  1
  Hf  Hf33  1  0.59722794  0.39507171  0.75911695  1
  Hf  Hf34  1  0.40378657  0.60118236  0.47890913  1
  Hf  Hf35  1  0.48713851  0.09392765  0.89111461  1
  Hf  Hf36  1  0.20587780  -0.00689561  0.49696610  1
  Hf  Hf37  1  0.10440369  0.90942011  0.88944513  1
  Hf  Hf38  1  0.90236039  0.10294375  0.61541751  1
  Hf  Hf39  1  0.70013583  0.68826905  0.13335411  1
  Zr  Zr40  1  0.10017919  0.09538068  0.62275375  1
  Zr  Zr41  1  0.29593412  0.29467770  0.36575113  1
  Zr  Zr42  1  0.10606398  0.92846079  0.11199396  1
  Zr  Zr43  1  0.49632235  0.10497574  0.10776635  1
  Zr  Zr44  1  0.50345917  0.72439707  0.36373801  1
  Zr  Zr45  1  -0.00785924  0.39385079  0.25406884  1
  Zr  Zr46  1  0.20611655  0.19759141  0.49502899  1
  Zr  Zr47  1  0.82211329  0.59072017  0.74522689  1
  Zr  Zr48  1  0.29677683  0.90636556  0.86938907  1
  Zr  Zr49  1  0.50077929  0.89409781  0.11629313  1
  Zr  Zr50  1  0.29729387  0.49831085  0.36172104  1
  Zr  Zr51  1  0.00835936  0.79561256  0.00223146  1
  Zr  Zr52  1  0.38497900  0.41437370  -0.00344620  1
  Zr  Zr53  1  0.89577688  0.70439621  0.12386774  1
  Zr  Zr54  1  0.00712994  0.79245192  0.75893446  1
  Zr  Zr55  1  0.59801856  0.41654610  0.00712014  1
  Zr  Zr56  1  0.89172705  0.30493348  0.60935723  1
  Zr  Zr57  1  0.48419815  0.30910532  0.11400337  1
  Zr  Zr58  1  0.90077937  0.89853180  0.37621348  1
  Zr  Zr59  1  0.80104966  0.79618866  0.49988246  1
  Zr  Zr60  1  0.71387197  0.51092718  0.88543632  1
  Zr  Zr61  1  0.49999483  0.28169953  0.63094876  1
  Zr  Zr62  1  0.59879213  0.37007967  0.49882731  1
  Zr  Zr63  1  0.36460451  -0.00640962  0.01418496  1
  Zr  Zr64  1  0.87838638  0.49340758  0.11874018  1
  Zr  Zr65  1  0.81739738  0.59918020  0.48377576  1
  Zr  Zr66  1  0.19966022  0.20483833  0.74648688  1
  Zr  Zr67  1  0.29756353  0.89883667  0.63424359  1
  Zr  Zr68  1  -0.00292254  0.60191756  0.25275810  1
  Zr  Zr69  1  0.88568711  0.31513082  0.38442201  1
  Zr  Zr70  1  0.48963158  0.89026284  0.88590313  1
  Zr  Zr71  1  0.39169938  0.77045709  0.75381263  1
  Zr  Zr72  1  0.90887999  0.89776086  0.61885693  1
  Zr  Zr73  1  0.70438355  0.48434711  0.61626945  1
  Zr  Zr74  1  0.30555005  0.30834781  0.61979797  1
  Zr  Zr75  1  0.60215555  0.59711936  0.48395975  1
  Zr  Zr76  1  0.09180987  0.30673964  0.61988489  1
  Zr  Zr77  1  0.70553212  0.69415889  0.62306315  1
  Zr  Zr78  1  0.79559218  0.00137052  0.74736294  1
  Zr  Zr79  1  0.71345372  0.47815344  0.37436926  1
  Ta  Ta80  1  0.40625203  0.00759902  0.49536278  1
  Ta  Ta81  1  0.91460722  0.48440473  0.89340322  1
  Ta  Ta82  1  0.21797890  0.61739918  0.74953499  1
  Ta  Ta83  1  0.50290185  0.10764406  0.36984992  1
  Ta  Ta84  1  0.90042242  0.28888072  0.12442143  1
  Ta  Ta85  1  0.00409144  0.20392026  0.47963070  1
  Ta  Ta86  1  0.49377168  0.48860530  0.62434841  1
  Ta  Ta87  1  0.00306147  0.00389311  0.75503712  1
  Ta  Ta88  1  0.59845897  -0.00227427  0.24625010  1
  Ta  Ta89  1  0.90203202  0.89762858  0.88699951  1
  Ta  Ta90  1  0.81148150  0.19662982  0.24783865  1
  Ta  Ta91  1  0.40613572  0.39966166  0.48527826  1
  Ta  Ta92  1  0.27276477  0.11157589  0.13216035  1
  Ta  Ta93  1  0.37623643  0.20324689  -0.00232081  1
  Ta  Ta94  1  0.59230082  0.80667013  0.50223522  1
  Ta  Ta95  1  0.59403581  0.78473383  -0.00621643  1
  Ta  Ta96  1  0.13042574  0.69340430  0.88789554  1
  Ta  Ta97  1  0.20163987  0.60366759  0.25187201  1
  Ta  Ta98  1  0.49311941  0.29992703  0.88825465  1
  Ta  Ta99  1  0.92835852  0.68600080  0.62217595  1
  Ta  Ta100  1  0.69942567  0.29553884  0.89629263  1
  Ta  Ta101  1  0.01139964  0.78998972  0.49461480  1
  Ta  Ta102  1  0.10605625  0.89986782  0.37153615  1
  Ta  Ta103  1  0.27984162  0.30479435  0.13818968  1
  Ta  Ta104  1  0.68840449  0.10938320  0.62377395  1
  Ta  Ta105  1  0.88994643  0.10507328  0.38269200  1
  Ta  Ta106  1  0.18944719  0.40651185  0.00106078  1
  Ta  Ta107  1  0.29605954  0.30557897  0.87383048  1
  Ta  Ta108  1  0.11194021  0.48449217  0.13742745  1
  Ta  Ta109  1  0.78886790  0.78809501  -0.00887091  1
  Ta  Ta110  1  0.39828301  0.40257144  0.76079116  1
  Ta  Ta111  1  0.59769671  0.40552658  0.23903213  1
  Ta  Ta112  1  0.31833845  0.10010133  0.62572912  1
  Ta  Ta113  1  0.38945160  0.19951079  0.24652768  1
  Ta  Ta114  1  0.78857845  0.00752281  0.49832701  1
  Ta  Ta115  1  0.19383975  0.80025205  0.75344730  1
  Ta  Ta116  1  0.09981193  0.71329539  0.35826996  1
  Ta  Ta117  1  0.30192922  0.89883510  0.36650714  1
  Ta  Ta118  1  0.58752372  0.00427890  0.75645168  1
  Ta  Ta119  1  0.77774138  0.20211484  0.50023893  1
  Ti  Ti120  1  0.20126237  0.81476494  0.24177901  1
  Ti  Ti121  1  0.49122263  0.50866709  0.87485696  1
  Ti  Ti122  1  0.60722401  0.60571458  0.00118707  1
  Ti  Ti123  1  0.00721368  0.59905387  0.47325003  1
  Ti  Ti124  1  0.89607590  0.90069078  0.11324273  1
  Ti  Ti125  1  0.69836422  0.08892148  0.36636504  1
  Ti  Ti126  1  0.50083033  0.09142388  0.62765978  1
  Ti  Ti127  1  0.39740793  0.19149573  0.76303281  1
  Ti  Ti128  1  0.19951219  0.01009819  0.25664918  1
  Ti  Ti129  1  0.49274886  0.90561537  0.62942985  1
  Ti  Ti130  1  0.11366253  0.70526346  0.62333984  1
  Ti  Ti131  1  0.80438640  0.59887026  0.26691567  1
  Ti  Ti132  1  0.02516842  0.59612221  0.76336786  1
  Ti  Ti133  1  0.39659311  0.80634675  0.23796401  1
  Ti  Ti134  1  0.10248902  0.10481759  0.86578226  1
  Ti  Ti135  1  0.50275558  0.69970614  0.13770479  1
  Ti  Ti136  1  0.00351754  -0.00040818  0.49040410  1
  Ti  Ti137  1  -0.00599080  0.81361468  0.24355577  1
  Ti  Ti138  1  0.21528383  0.60004439  0.01572860  1
  Ti  Ti139  1  0.29035317  0.52107118  0.87772193  1
  Ti  Ti140  1  0.23249035  0.80094178  0.01318114  1
  Ti  Ti141  1  0.41408547  0.20100315  0.49118855  1
  Ti  Ti142  1  0.19734164  0.80015295  0.49423923  1
  Ti  Ti143  1  0.40978581  0.60028314  0.25483073  1
  Ti  Ti144  1  0.90821949  0.49614205  0.60616838  1
  Ti  Ti145  1  0.41316744  0.39809478  0.25622306  1
  Ti  Ti146  1  0.59509042  0.00212415  0.49597498  1
  Ti  Ti147  1  0.18671688  0.40386301  0.48590546  1
  Ti  Ti148  1  0.61207653  0.00222432  -0.00145164  1
  Ti  Ti149  1  0.00414014  0.38734748  0.01418078  1
  Ti  Ti150  1  0.80528240  -0.00797399  0.25089679  1
  Ti  Ti151  1  0.19773497  0.21082191  -0.00251174  1
  Ti  Ti152  1  0.29675953  0.71316767  0.35578087  1
  Ti  Ti153  1  0.30231635  0.09447467  0.37223774  1
  Ti  Ti154  1  0.09835236  0.28452110  0.14296631  1
  Ti  Ti155  1  0.09673269  0.89776410  0.62654449  1
  Ti  Ti156  1  0.79637528  0.19174581  -0.00088255  1
  Ti  Ti157  1  0.89830625  0.29450983  0.88653084  1
  Ti  Ti158  1  0.20669680  0.00662866  0.74882166  1
  Ti  Ti159  1  0.49564280  0.91228952  0.36903409  1
  Mo  Mo160  1  0.29018821  0.90402842  0.13605717  1
  Mo  Mo161  1  0.70865198  0.70890408  0.36553734  1
  Mo  Mo162  1  -0.00644579  0.19864059  0.26817539  1
  Mo  Mo163  1  0.79016962  0.39540690  0.24368068  1
  Mo  Mo164  1  0.59645409  0.80434313  0.24759321  1
  Mo  Mo165  1  0.10356982  0.50657539  0.88036155  1
  Mo  Mo166  1  0.50080825  0.48927618  0.36928364  1
  Mo  Mo167  1  0.90839186  0.70940838  0.36434780  1
  Mo  Mo168  1  0.79618577  0.39567973  0.50375247  1
  Mo  Mo169  1  0.69641539  0.28707393  0.62983586  1
  Mo  Mo170  1  0.40119553  0.79558938  0.01390523  1
  Mo  Mo171  1  0.80555783  0.79299943  0.25386297  1
  Mo  Mo172  1  0.50453635  0.68975026  0.87874594  1
  Mo  Mo173  1  0.59618568  0.19975216  -0.00718303  1
  Mo  Mo174  1  0.39767728  0.58072806  0.75133473  1
  Mo  Mo175  1  0.79807709  0.59785242  -0.00004095  1
  Mo  Mo176  1  0.49468090  0.29544122  0.36562538  1
  Mo  Mo177  1  0.19656399  0.39773834  0.24927285  1
  Mo  Mo178  1  0.30671367  0.70310452  0.88311809  1
  Mo  Mo179  1  0.10001008  0.09386137  0.38466303  1
  Mo  Mo180  1  0.18499896  0.19111486  0.26413550  1
  Mo  Mo181  1  0.40228334  0.00861491  0.74865069  1
  Mo  Mo182  1  0.29041992  0.11212145  0.87297547  1
  Mo  Mo183  1  0.69883500  0.70223017  0.87668016  1
  Mo  Mo184  1  0.80193803  -0.01220903  0.00517753  1
  Mo  Mo185  1  0.30634716  0.70290278  0.14475068  1
  Mo  Mo186  1  0.10102861  0.49865071  0.36723502  1
  Mo  Mo187  1  0.69971650  0.50295841  0.12904779  1
  Mo  Mo188  1  0.00533895  0.41264318  0.48465471  1
  Mo  Mo189  1  0.50972442  0.51511043  0.13398937  1
  Mo  Mo190  1  0.00050564  0.00131176  -0.00630801  1
  Mo  Mo191  1  0.69466655  0.10135034  0.88989454  1
  Mo  Mo192  1  0.90522022  0.50184294  0.37423138  1
  Mo  Mo193  1  0.80997821  0.38923913  -0.00456769  1
  Mo  Mo194  1  0.28958489  0.69866052  0.61672876  1
  Mo  Mo195  1  -0.00821624  0.19469793  0.75804517  1
  Mo  Mo196  1  0.09796441  0.29871014  0.37016617  1
  Mo  Mo197  1  0.19143255  0.03545919  -0.00456783  1
  Mo  Mo198  1  0.09866801  0.11671400  0.13042701  1
  Mo  Mo199  1  0.59404635  0.17366661  0.49472227  1
