# generated using pymatgen
data_HfZrTaTiMo
_symmetry_space_group_name_H-M   'P 1'
_cell_length_a   15.21030084
_cell_length_b   15.21370887
_cell_length_c   16.81446896
_cell_angle_alpha   89.99412226
_cell_angle_beta   90.02297815
_cell_angle_gamma   89.98421838
_symmetry_Int_Tables_number   1
_chemical_formula_structural   HfZrTaTiMo
_chemical_formula_sum   'Hf40 Zr40 Ta40 Ti40 Mo40'
_cell_volume   3890.95320216
_cell_formula_units_Z   40
loop_
 _symmetry_equiv_pos_site_id
 _symmetry_equiv_pos_as_xyz
  1  'x, y, z'
loop_
 _atom_site_type_symbol
 _atom_site_label
 _atom_site_symmetry_multiplicity
 _atom_site_fract_x
 _atom_site_fract_y
 _atom_site_fract_z
 _atom_site_occupancy
  Hf  Hf0  1  0.09011012  0.31070525  0.11251125  1
  Hf  Hf1  1  0.90449852  0.89116819  0.36841498  1
  Hf  Hf2  1  0.60106132  0.60666313  0.50700427  1
  Hf  Hf3  1  0.57834990  0.40467585  0.73575389  1
  Hf  Hf4  1  0.90610905  0.89796937  0.88592046  1
  Hf  Hf5  1  0.40520046  0.00140556  0.75949913  1
  Hf  Hf6  1  0.58100625  0.59051538  0.00539964  1
  Hf  Hf7  1  0.40130983  0.22844221  0.75821880  1
  Hf  Hf8  1  0.79485419  0.39888362  -0.00837364  1
  Hf  Hf9  1  0.41692227  0.59746920  0.75000915  1
  Hf  Hf10  1  0.10503979  0.89814494  0.36945591  1
  Hf  Hf11  1  0.90176950  0.68958154  0.37335116  1
  Hf  Hf12  1  0.10508670  0.10222013  0.37122599  1
  Hf  Hf13  1  0.11226902  0.68557832  0.37425502  1
  Hf  Hf14  1  0.68392726  0.49221153  0.13792327  1
  Hf  Hf15  1  0.79943910  0.79299033  0.23844690  1
  Hf  Hf16  1  0.19162712  0.40192002  0.24080319  1
  Hf  Hf17  1  0.70164560  0.29738743  0.13070362  1
  Hf  Hf18  1  0.21370957  0.39360086  -0.00652481  1
  Hf  Hf19  1  0.70483507  0.69390070  0.88449515  1
  Hf  Hf20  1  0.10667519  0.88661730  0.88668333  1
  Hf  Hf21  1  -0.01557635  0.18082382  0.75305533  1
  Hf  Hf22  1  0.09876392  0.88402471  0.63977177  1
  Hf  Hf23  1  -0.00273631  -0.00848288  0.50884392  1
  Hf  Hf24  1  0.39750989  0.40761233  0.48631548  1
  Hf  Hf25  1  0.81001223  0.60015329  0.75320694  1
  Hf  Hf26  1  0.29877455  0.09996554  0.36647952  1
  Hf  Hf27  1  0.21266014  0.59054432  0.76127210  1
  Hf  Hf28  1  0.60079773  0.00028166  0.49718681  1
  Hf  Hf29  1  0.30434195  0.70871676  0.88360919  1
  Hf  Hf30  1  0.80386634  0.20481707  0.26574079  1
  Hf  Hf31  1  0.20051946  -0.00156296  0.23240682  1
  Hf  Hf32  1  0.79603541  -0.00173080  0.24978488  1
  Hf  Hf33  1  0.70143980  0.69174674  0.11826953  1
  Hf  Hf34  1  0.80109338  0.59942371  0.50512607  1
  Hf  Hf35  1  0.09764190  0.69138570  0.64472748  1
  Hf  Hf36  1  0.80056288  0.39319583  0.49743924  1
  Hf  Hf37  1  0.39582256  0.00168861  0.49849405  1
  Hf  Hf38  1  0.60432199  0.21251443  0.74588009  1
  Hf  Hf39  1  0.79684788  0.79803299  0.49868658  1
  Zr  Zr40  1  0.19932115  -0.00149450  0.50488927  1
  Zr  Zr41  1  0.28911501  0.11513434  0.87339833  1
  Zr  Zr42  1  0.00625084  0.79539262  0.23035191  1
  Zr  Zr43  1  0.40174401  0.02580461  0.00714343  1
  Zr  Zr44  1  0.79566055  0.00097463  0.49301358  1
  Zr  Zr45  1  0.40203387  0.23221355  0.00017703  1
  Zr  Zr46  1  0.30873263  0.49627173  0.62541768  1
  Zr  Zr47  1  0.11010201  0.28670037  0.86419576  1
  Zr  Zr48  1  0.29273441  0.11021939  0.63204651  1
  Zr  Zr49  1  0.19829719  0.59210154  0.51089561  1
  Zr  Zr50  1  0.89672819  0.48976431  0.11542817  1
  Zr  Zr51  1  0.21258440  0.78719297  0.24262385  1
  Zr  Zr52  1  0.42836815  0.81269390  0.00648648  1
  Zr  Zr53  1  0.19698624  0.59322818  -0.01408148  1
  Zr  Zr54  1  0.08951541  0.08058881  0.88748149  1
  Zr  Zr55  1  0.50272600  0.70419417  0.13944929  1
  Zr  Zr56  1  0.00664979  0.59168327  0.24411798  1
  Zr  Zr57  1  0.08943172  0.69350774  0.86382765  1
  Zr  Zr58  1  0.69690052  0.50966052  0.36671479  1
  Zr  Zr59  1  0.60522490  0.00506877  0.75461391  1
  Zr  Zr60  1  0.09545432  0.48253552  0.38125452  1
  Zr  Zr61  1  0.59954318  0.19225247  -0.00388810  1
  Zr  Zr62  1  0.09657211  0.48524285  0.64666334  1
  Zr  Zr63  1  0.49911994  0.11094871  0.62354970  1
  Zr  Zr64  1  0.19909948  -0.01075388  0.75358379  1
  Zr  Zr65  1  -0.00549401  0.20301457  0.50950010  1
  Zr  Zr66  1  0.49838993  0.32147360  0.13959513  1
  Zr  Zr67  1  0.21269813  0.79726294  0.49553833  1
  Zr  Zr68  1  0.91013991  0.09728217  0.37067790  1
  Zr  Zr69  1  0.50211758  0.10875209  0.36922715  1
  Zr  Zr70  1  0.72144385  0.10880835  0.62708191  1
  Zr  Zr71  1  0.00818723  0.19722603  0.23829429  1
  Zr  Zr72  1  0.70361885  0.89320217  0.86893111  1
  Zr  Zr73  1  0.40109925  0.61308530  0.49044718  1
  Zr  Zr74  1  0.69455209  0.09602087  0.12694179  1
  Zr  Zr75  1  0.10299219  0.29540403  0.64790703  1
  Zr  Zr76  1  0.40916963  0.80673924  0.49093981  1
  Zr  Zr77  1  0.52366789  0.70953454  0.35718398  1
  Zr  Zr78  1  0.50930730  0.70826115  0.87539535  1
  Zr  Zr79  1  -0.00853888  0.20377218  -0.00192467  1
  Ta  Ta80  1  0.59803333  0.79741116  0.74434628  1
  Ta  Ta81  1  0.31173486  0.50130941  0.12509868  1
  Ta  Ta82  1  0.60367285  0.21244663  0.49983675  1
  Ta  Ta83  1  0.79166199  -0.00047925  0.00546545  1
  Ta  Ta84  1  0.89242054  0.29819823  0.12081303  1
  Ta  Ta85  1  0.90364222  0.69973684  0.62903405  1
  Ta  Ta86  1  0.21088851  0.19389061  0.01881531  1
  Ta  Ta87  1  0.79532406  0.20296242  0.48340966  1
  Ta  Ta88  1  0.70385165  0.49560302  0.62705260  1
  Ta  Ta89  1  0.28666345  0.30170040  0.37319556  1
  Ta  Ta90  1  0.60803469  0.59982950  0.73975007  1
  Ta  Ta91  1  0.50179236  0.50276929  0.35591124  1
  Ta  Ta92  1  0.08978185  0.09080133  0.63716388  1
  Ta  Ta93  1  0.70213066  0.89700987  0.63505906  1
  Ta  Ta94  1  0.89577590  0.69548802  0.89561044  1
  Ta  Ta95  1  0.30367065  0.90240973  0.10966404  1
  Ta  Ta96  1  0.30315916  0.30620145  0.62322181  1
  Ta  Ta97  1  0.59400398  0.40216705  0.50710464  1
  Ta  Ta98  1  0.28880899  0.51032576  0.36915650  1
  Ta  Ta99  1  0.88870447  0.09274646  0.88487041  1
  Ta  Ta100  1  0.38854987  0.40513454  0.25951717  1
  Ta  Ta101  1  0.79846029  0.80299133  0.01201432  1
  Ta  Ta102  1  0.10492073  0.89472020  0.10363192  1
  Ta  Ta103  1  0.29751149  0.69649061  0.10946291  1
  Ta  Ta104  1  0.08840863  0.48179694  0.85897203  1
  Ta  Ta105  1  0.30269381  0.90446458  0.89475987  1
  Ta  Ta106  1  0.68875184  0.88866774  0.36715731  1
  Ta  Ta107  1  0.39889380  0.21341988  0.49529446  1
  Ta  Ta108  1  0.90219742  0.49342576  0.63345187  1
  Ta  Ta109  1  -0.00453040  0.59290735  0.50831649  1
  Ta  Ta110  1  0.59005643  0.39607200  -0.00392736  1
  Ta  Ta111  1  0.88132467  0.29446681  0.63327561  1
  Ta  Ta112  1  0.50254501  0.89795731  0.62920497  1
  Ta  Ta113  1  0.00221704  0.78840497  0.50476710  1
  Ta  Ta114  1  0.90408506  0.68459911  0.10405991  1
  Ta  Ta115  1  0.68765319  0.49563146  0.87141047  1
  Ta  Ta116  1  0.10017005  0.50948336  0.11325178  1
  Ta  Ta117  1  0.89541683  0.89710104  0.63343763  1
  Ta  Ta118  1  0.59111565  -0.01804106  -0.00612599  1
  Ta  Ta119  1  0.38473636  0.61174248  0.25509901  1
  Ti  Ti120  1  0.90372257  0.48945350  0.37806068  1
  Ti  Ti121  1  0.81853954  0.00202152  0.75082023  1
  Ti  Ti122  1  0.49308350  0.90767446  0.36229688  1
  Ti  Ti123  1  0.90082144  0.90212113  0.11528583  1
  Ti  Ti124  1  0.39881862  0.80878937  0.75666065  1
  Ti  Ti125  1  0.80191318  0.39706577  0.26018871  1
  Ti  Ti126  1  0.79763561  0.20220666  0.75920377  1
  Ti  Ti127  1  -0.02181780  0.79395566  0.75667048  1
  Ti  Ti128  1  0.50471675  0.10711381  0.87387952  1
  Ti  Ti129  1  0.00136430  -0.00413763  0.23221346  1
  Ti  Ti130  1  0.09712523  0.09066622  0.10873414  1
  Ti  Ti131  1  0.70379931  0.09727151  0.87598149  1
  Ti  Ti132  1  0.78621275  0.39421031  0.75220402  1
  Ti  Ti133  1  -0.01102711  0.39075765  0.25067010  1
  Ti  Ti134  1  0.69124412  0.30221546  0.37360539  1
  Ti  Ti135  1  0.49895365  0.30691248  0.36761859  1
  Ti  Ti136  1  0.39981359  0.81481304  0.24503879  1
  Ti  Ti137  1  0.68348683  0.89560839  0.12537403  1
  Ti  Ti138  1  0.30199344  0.71151336  0.63753767  1
  Ti  Ti139  1  0.19834142  0.20815081  0.50317208  1
  Ti  Ti140  1  0.69207465  0.29917167  0.87529922  1
  Ti  Ti141  1  0.60202240  0.20067387  0.25722650  1
  Ti  Ti142  1  0.50062799  0.10499798  0.13419244  1
  Ti  Ti143  1  0.80202994  0.59704620  0.24949350  1
  Ti  Ti144  1  0.40936423  0.42843516  -0.00920773  1
  Ti  Ti145  1  0.39644592  0.00320008  0.23778026  1
  Ti  Ti146  1  0.89828976  0.50255380  0.87976293  1
  Ti  Ti147  1  0.60481808  0.80357641  0.50588384  1
  Ti  Ti148  1  0.79542594  0.19952152  -0.00592081  1
  Ti  Ti149  1  0.09478231  0.29492224  0.37617617  1
  Ti  Ti150  1  0.59697903  0.00064113  0.25350885  1
  Ti  Ti151  1  0.90054765  0.30606294  0.87256645  1
  Ti  Ti152  1  0.30621956  0.89656371  0.63136560  1
  Ti  Ti153  1  0.20576173  0.20365245  0.22891476  1
  Ti  Ti154  1  0.89600475  0.10115135  0.11830820  1
  Ti  Ti155  1  0.00360166  0.39409092  0.50810092  1
  Ti  Ti156  1  0.00852175  0.78435216  0.00795416  1
  Ti  Ti157  1  0.39244768  0.20809667  0.24565727  1
  Ti  Ti158  1  0.70630464  0.70731526  0.63421743  1
  Ti  Ti159  1  0.50100702  0.70724526  0.62801763  1
  Mo  Mo160  1  0.59853809  0.39133264  0.26121617  1
  Mo  Mo161  1  0.71068883  0.70611823  0.36825805  1
  Mo  Mo162  1  0.50515584  0.50993291  0.61593492  1
  Mo  Mo163  1  0.49017992  0.30828471  0.61080565  1
  Mo  Mo164  1  0.19978224  0.19530613  0.74753605  1
  Mo  Mo165  1  0.20457052  0.59317750  0.23847757  1
  Mo  Mo166  1  0.39720396  0.59931511  0.00304777  1
  Mo  Mo167  1  0.20207848  0.00237911  0.01098067  1
  Mo  Mo168  1  0.51042055  0.31525106  0.87745930  1
  Mo  Mo169  1  -0.00879902  0.59305784  0.75701387  1
  Mo  Mo170  1  0.79270902  0.59279998  -0.00652196  1
  Mo  Mo171  1  -0.03340842  0.39295961  0.75738145  1
  Mo  Mo172  1  -0.01200119  -0.00677080  0.01329113  1
  Mo  Mo173  1  0.30659050  0.49930085  0.87190830  1
  Mo  Mo174  1  0.39838170  0.41084690  0.75624815  1
  Mo  Mo175  1  0.21737012  0.79722553  0.75204248  1
  Mo  Mo176  1  0.89826877  0.09824284  0.62546247  1
  Mo  Mo177  1  -0.00230858  0.58769094  -0.00725245  1
  Mo  Mo178  1  0.49282070  0.50684141  0.14722510  1
  Mo  Mo179  1  0.60225330  0.60188009  0.24635141  1
  Mo  Mo180  1  0.22754381  0.38843715  0.76468906  1
  Mo  Mo181  1  0.60929407  0.80651072  0.00513230  1
  Mo  Mo182  1  -0.00909456  -0.01169532  0.74950779  1
  Mo  Mo183  1  0.30827633  0.90508891  0.35924607  1
  Mo  Mo184  1  0.00368387  0.40498843  -0.01377247  1
  Mo  Mo185  1  0.69466999  0.09991847  0.37101696  1
  Mo  Mo186  1  0.29945518  0.30783489  0.13236378  1
  Mo  Mo187  1  0.10167845  0.69300212  0.11457964  1
  Mo  Mo188  1  0.60501477  0.81308135  0.24740142  1
  Mo  Mo189  1  0.49717031  0.90712996  0.86909768  1
  Mo  Mo190  1  0.70119805  0.30519504  0.61938499  1
  Mo  Mo191  1  0.20618041  0.79742360  0.00528455  1
  Mo  Mo192  1  0.19854120  0.38242499  0.49702986  1
  Mo  Mo193  1  0.79917430  0.79902975  0.74889693  1
  Mo  Mo194  1  0.90840451  0.31271936  0.37677393  1
  Mo  Mo195  1  0.30535067  0.30827723  0.87973103  1
  Mo  Mo196  1  0.30498293  0.10841902  0.13356787  1
  Mo  Mo197  1  0.50608733  0.50540046  0.87379881  1
  Mo  Mo198  1  0.50558170  0.91642824  0.13859861  1
  Mo  Mo199  1  0.30496762  0.70342686  0.36811583  1
