# generated using pymatgen
data_HfZrTaTiMo
_symmetry_space_group_name_H-M   'P 1'
_cell_length_a   15.22313398
_cell_length_b   15.20006174
_cell_length_c   16.83399113
_cell_angle_alpha   90.06896265
_cell_angle_beta   89.96476251
_cell_angle_gamma   89.91661038
_symmetry_Int_Tables_number   1
_chemical_formula_structural   HfZrTaTiMo
_chemical_formula_sum   'Hf40 Zr40 Ta40 Ti40 Mo40'
_cell_volume   3895.25288877
_cell_formula_units_Z   40
loop_
 _symmetry_equiv_pos_site_id
 _symmetry_equiv_pos_as_xyz
  1  'x, y, z'
loop_
 _atom_site_type_symbol
 _atom_site_label
 _atom_site_symmetry_multiplicity
 _atom_site_fract_x
 _atom_site_fract_y
 _atom_site_fract_z
 _atom_site_occupancy
  Hf  Hf0  1  0.49932949  0.10671581  0.11228036  1
  Hf  Hf1  1  0.37600010  0.00565283  -0.01079275  1
  Hf  Hf2  1  0.69180586  0.09942890  0.61570231  1
  Hf  Hf3  1  0.27389881  0.09824875  0.12032016  1
  Hf  Hf4  1  0.09292818  0.10541718  0.63514431  1
  Hf  Hf5  1  0.30348797  0.49242524  0.12566146  1
  Hf  Hf6  1  0.90470485  0.28920804  0.63341391  1
  Hf  Hf7  1  -0.00384810  -0.00758144  0.49586949  1
  Hf  Hf8  1  0.39059085  0.79008566  -0.00281536  1
  Hf  Hf9  1  0.08588474  0.10082903  0.85811937  1
  Hf  Hf10  1  0.80695086  0.80023288  0.48437188  1
  Hf  Hf11  1  0.20646628  0.40027362  0.25759632  1
  Hf  Hf12  1  0.68978794  0.50334159  0.12864094  1
  Hf  Hf13  1  0.30054279  0.69467158  0.13172609  1
  Hf  Hf14  1  0.21963464  0.41380348  0.72847442  1
  Hf  Hf15  1  0.19895094  0.79918289  0.25920572  1
  Hf  Hf16  1  0.29953327  0.69426293  0.86293242  1
  Hf  Hf17  1  0.00185133  0.18994489  -0.00259148  1
  Hf  Hf18  1  0.60056140  0.78362511  -0.00262539  1
  Hf  Hf19  1  0.90849549  0.49990307  0.87760205  1
  Hf  Hf20  1  0.39296608  0.01681059  0.51837849  1
  Hf  Hf21  1  0.48557350  0.11607452  0.87713254  1
  Hf  Hf22  1  0.90771961  0.28429882  0.86177653  1
  Hf  Hf23  1  0.19835341  0.21121880  0.75450910  1
  Hf  Hf24  1  0.09969458  0.50483063  0.37107394  1
  Hf  Hf25  1  0.08075700  0.89188620  0.87848354  1
  Hf  Hf26  1  0.20390463  0.60098214  0.00245354  1
  Hf  Hf27  1  0.79475085  0.60126589  0.00646063  1
  Hf  Hf28  1  0.79559775  0.79496782  0.24956736  1
  Hf  Hf29  1  0.57288737  0.20206102  0.51197618  1
  Hf  Hf30  1  0.80045271  0.60356019  0.24675507  1
  Hf  Hf31  1  0.88615906  0.09351930  0.62450509  1
  Hf  Hf32  1  0.39021937  0.00537363  0.74631921  1
  Hf  Hf33  1  0.59300475  0.23535602  -0.00900247  1
  Hf  Hf34  1  0.81297307  0.81187034  0.75892309  1
  Hf  Hf35  1  0.49684292  0.68765835  0.86149260  1
  Hf  Hf36  1  0.50599175  0.70188685  0.62728394  1
  Hf  Hf37  1  0.70143602  0.30078835  0.62259079  1
  Hf  Hf38  1  0.01874313  0.39209382  0.74006016  1
  Hf  Hf39  1  0.19672709  0.18851452  0.25663201  1
  Zr  Zr40  1  0.90092808  0.91840505  0.13103893  1
  Zr  Zr41  1  0.00912063  0.20451974  0.49498403  1
  Zr  Zr42  1  0.20592811  0.60378394  0.50494025  1
  Zr  Zr43  1  0.91570775  0.70465034  0.87499310  1
  Zr  Zr44  1  0.59124712  -0.00671715  0.25924137  1
  Zr  Zr45  1  0.40635048  0.80369403  0.25438870  1
  Zr  Zr46  1  0.80940184  0.40269992  0.49784034  1
  Zr  Zr47  1  0.20026620  0.20164109  -0.02255717  1
  Zr  Zr48  1  0.18846469  0.39455955  0.51356776  1
  Zr  Zr49  1  0.70476754  0.70714214  0.62582054  1
  Zr  Zr50  1  0.80766056  0.80038419  0.00837026  1
  Zr  Zr51  1  0.38468006  0.00875564  0.24994765  1
  Zr  Zr52  1  0.40234538  0.39243234  0.25069217  1
  Zr  Zr53  1  0.90194532  0.48806803  0.12490040  1
  Zr  Zr54  1  0.49931359  0.90315393  0.88063160  1
  Zr  Zr55  1  0.11480475  0.50007450  0.87286576  1
  Zr  Zr56  1  0.39735406  0.40464217  0.51804065  1
  Zr  Zr57  1  0.68839913  0.89996714  0.12002007  1
  Zr  Zr58  1  0.79965852  0.19487301  0.26269850  1
  Zr  Zr59  1  -0.01474043  -0.02412339  0.74443073  1
  Zr  Zr60  1  0.11092747  0.29065594  0.12810877  1
  Zr  Zr61  1  0.70453560  0.09682564  0.11307828  1
  Zr  Zr62  1  0.69353710  0.10750436  0.88607008  1
  Zr  Zr63  1  0.70476320  0.69806292  0.86680357  1
  Zr  Zr64  1  0.28612164  0.89136018  0.62727775  1
  Zr  Zr65  1  0.90751493  0.50424638  0.37006857  1
  Zr  Zr66  1  0.42277257  0.39735448  0.00035474  1
  Zr  Zr67  1  0.79376635  0.38830291  -0.01154520  1
  Zr  Zr68  1  0.69108542  0.30310728  0.38397962  1
  Zr  Zr69  1  0.10517463  0.70110452  0.86691359  1
  Zr  Zr70  1  0.40148236  0.59906360  0.26740250  1
  Zr  Zr71  1  0.48318013  0.29879226  0.38108780  1
  Zr  Zr72  1  0.70115689  0.90190623  0.61395399  1
  Zr  Zr73  1  0.90540666  0.69256771  0.62538743  1
  Zr  Zr74  1  0.78253686  0.00150324  0.75757763  1
  Zr  Zr75  1  0.90493298  0.29347953  0.13236695  1
  Zr  Zr76  1  0.70915142  0.50884459  0.62490977  1
  Zr  Zr77  1  0.69360462  0.30337763  0.13261088  1
  Zr  Zr78  1  0.80059319  0.00260623  0.26811322  1
  Zr  Zr79  1  0.49169858  0.89944662  0.11454817  1
  Ta  Ta80  1  0.91657412  0.69790558  0.37063205  1
  Ta  Ta81  1  0.01959560  0.39528667  -0.00493115  1
  Ta  Ta82  1  0.80078921  0.39638315  0.75226608  1
  Ta  Ta83  1  0.10897747  0.49854976  0.12603674  1
  Ta  Ta84  1  0.20510582  0.60597454  0.72880734  1
  Ta  Ta85  1  0.58559285  0.19968864  0.25326563  1
  Ta  Ta86  1  0.28774096  0.89915829  0.12248991  1
  Ta  Ta87  1  0.79551026  0.40190216  0.26213814  1
  Ta  Ta88  1  0.59318887  0.58330313  -0.00937951  1
  Ta  Ta89  1  0.38875600  0.21235856  0.00342963  1
  Ta  Ta90  1  0.00354895  0.60468647  0.01951447  1
  Ta  Ta91  1  0.31091079  0.70316645  0.61748221  1
  Ta  Ta92  1  0.40720866  0.59474843  -0.00182228  1
  Ta  Ta93  1  0.69291807  0.48958249  0.86466956  1
  Ta  Ta94  1  0.39821521  0.58116909  0.73438913  1
  Ta  Ta95  1  0.10495420  0.91669650  0.12738738  1
  Ta  Ta96  1  0.58900046  0.79365310  0.49117503  1
  Ta  Ta97  1  0.10726191  0.72206451  0.62961920  1
  Ta  Ta98  1  0.32292011  0.30504507  0.86054081  1
  Ta  Ta99  1  0.80408200  0.19330653  0.48626953  1
  Ta  Ta100  1  0.51199717  0.68525763  0.12616598  1
  Ta  Ta101  1  0.19015749  0.00175812  0.50942279  1
  Ta  Ta102  1  0.59646925  0.40602946  0.26187089  1
  Ta  Ta103  1  0.60284044  0.81350152  0.75433239  1
  Ta  Ta104  1  0.59060668  0.41728253  0.50570584  1
  Ta  Ta105  1  0.91618440  0.89415087  0.36520434  1
  Ta  Ta106  1  0.58780055  0.00546119  0.74779977  1
  Ta  Ta107  1  0.48290766  0.89797614  0.38815436  1
  Ta  Ta108  1  0.00248542  0.79856388  0.23677502  1
  Ta  Ta109  1  0.60005163  0.20796086  0.74797780  1
  Ta  Ta110  1  0.28722042  0.91371207  0.38687512  1
  Ta  Ta111  1  0.60123137  0.59447751  0.74953379  1
  Ta  Ta112  1  0.68439353  0.10086484  0.38668775  1
  Ta  Ta113  1  0.91045757  0.29968841  0.36932179  1
  Ta  Ta114  1  0.00812999  0.79794649  0.02378267  1
  Ta  Ta115  1  0.10884805  0.08703227  0.37883704  1
  Ta  Ta116  1  0.01298993  0.60807856  0.23200215  1
  Ta  Ta117  1  0.58984468  -0.00372799  0.49476615  1
  Ta  Ta118  1  0.28317646  0.89679938  0.86595676  1
  Ta  Ta119  1  0.48690638  0.10123571  0.37762135  1
  Ti  Ti120  1  0.50051732  0.89903475  0.62203199  1
  Ti  Ti121  1  0.10080176  0.29654695  0.37275526  1
  Ti  Ti122  1  0.39940026  0.80029006  0.74862185  1
  Ti  Ti123  1  0.59771092  0.78847811  0.25781521  1
  Ti  Ti124  1  0.19439023  0.80658805  0.49203763  1
  Ti  Ti125  1  0.29427577  0.29440088  0.38794177  1
  Ti  Ti126  1  0.00961938  0.79625720  0.49376531  1
  Ti  Ti127  1  0.80938325  0.60136686  0.49460393  1
  Ti  Ti128  1  0.79966887  -0.00052433  0.47859620  1
  Ti  Ti129  1  0.00039168  0.40757540  0.51535818  1
  Ti  Ti130  1  0.80537163  0.19797986  -0.00017891  1
  Ti  Ti131  1  0.21774116  0.39109312  -0.00537563  1
  Ti  Ti132  1  0.68929013  0.89535087  0.37759299  1
  Ti  Ti133  1  0.59800223  0.60093626  0.26247008  1
  Ti  Ti134  1  0.20687585  0.19264864  0.50785372  1
  Ti  Ti135  1  0.10220261  0.69960427  0.37174917  1
  Ti  Ti136  1  0.90357700  0.88719518  0.61496109  1
  Ti  Ti137  1  0.19426221  -0.00357135  0.74823504  1
  Ti  Ti138  1  0.00727160  0.59487487  0.73779514  1
  Ti  Ti139  1  0.31688431  0.71413450  0.39313540  1
  Ti  Ti140  1  0.39281282  0.20458828  0.23807613  1
  Ti  Ti141  1  0.50453852  0.49528976  0.12883843  1
  Ti  Ti142  1  0.69980607  0.91085686  0.89305618  1
  Ti  Ti143  1  0.89350505  0.08316401  0.87889226  1
  Ti  Ti144  1  0.31219096  0.49861789  0.87046611  1
  Ti  Ti145  1  0.18024114  0.00210162  -0.01047555  1
  Ti  Ti146  1  0.42750052  0.60332170  0.49558070  1
  Ti  Ti147  1  0.19758697  0.80400579  0.00443701  1
  Ti  Ti148  1  0.40397070  0.20035340  0.73592437  1
  Ti  Ti149  1  0.30515583  0.50160782  0.38344229  1
  Ti  Ti150  1  0.49919424  0.48022821  0.85846180  1
  Ti  Ti151  1  0.00390879  0.39435575  0.24865312  1
  Ti  Ti152  1  0.91374234  0.10262918  0.13019429  1
  Ti  Ti153  1  0.69876348  0.69520504  0.38019939  1
  Ti  Ti154  1  0.80948224  0.59340409  0.75224043  1
  Ti  Ti155  1  0.01472538  0.00848729  0.25999789  1
  Ti  Ti156  1  0.30465970  0.28826353  0.62430403  1
  Ti  Ti157  1  0.30157684  0.10601858  0.38209241  1
  Ti  Ti158  1  0.69497527  0.50676477  0.38228394  1
  Ti  Ti159  1  0.00523024  0.59960228  0.50891241  1
  Mo  Mo160  1  0.40510935  0.39461364  0.73157375  1
  Mo  Mo161  1  0.61224891  0.60380736  0.49312263  1
  Mo  Mo162  1  0.30767482  0.51518016  0.61178270  1
  Mo  Mo163  1  0.49862465  0.09922492  0.63517943  1
  Mo  Mo164  1  0.00282939  0.19520150  0.26558844  1
  Mo  Mo165  1  0.09791050  0.89151806  0.37398808  1
  Mo  Mo166  1  0.10417954  0.29821464  0.62256114  1
  Mo  Mo167  1  0.59886467  0.40423759  0.73690956  1
  Mo  Mo168  1  -0.00456425  -0.00197857  0.00108370  1
  Mo  Mo169  1  0.10973776  0.70571605  0.12698719  1
  Mo  Mo170  1  0.28975401  0.10264598  0.63132159  1
  Mo  Mo171  1  0.08736386  0.09184216  0.12628955  1
  Mo  Mo172  1  0.90215623  0.70048218  0.12905340  1
  Mo  Mo173  1  0.80623297  0.00884749  -0.00127410  1
  Mo  Mo174  1  0.50345830  0.30604461  0.85622254  1
  Mo  Mo175  1  0.90348567  0.49992114  0.62924723  1
  Mo  Mo176  1  0.20371931  0.80513202  0.74865168  1
  Mo  Mo177  1  0.68796585  0.69345589  0.13058586  1
  Mo  Mo178  1  0.60237915  0.41144478  -0.00508227  1
  Mo  Mo179  1  -0.00780425  0.19199171  0.75212931  1
  Mo  Mo180  1  0.59434049  0.00446962  -0.00434878  1
  Mo  Mo181  1  0.50798168  0.50174237  0.37986451  1
  Mo  Mo182  1  0.50202691  0.30276513  0.63500469  1
  Mo  Mo183  1  0.70075909  0.30380720  0.85759475  1
  Mo  Mo184  1  0.00147345  0.79621219  0.74464360  1
  Mo  Mo185  1  0.50192075  0.30243143  0.13415819  1
  Mo  Mo186  1  0.19880036  0.59906742  0.25776551  1
  Mo  Mo187  1  0.90404181  0.09879849  0.37812545  1
  Mo  Mo188  1  0.39793499  0.80579002  0.50127365  1
  Mo  Mo189  1  0.79434670  0.19949302  0.75068379  1
  Mo  Mo190  1  0.10738235  0.31135413  0.87546186  1
  Mo  Mo191  1  0.09250306  0.89734730  0.62001596  1
  Mo  Mo192  1  0.09344212  0.51549242  0.62321375  1
  Mo  Mo193  1  0.29455371  0.09576599  0.86928963  1
  Mo  Mo194  1  0.50970411  0.50696633  0.62647392  1
  Mo  Mo195  1  0.30344689  0.29511033  0.12105333  1
  Mo  Mo196  1  0.89443149  0.90196647  0.89447687  1
  Mo  Mo197  1  0.38499892  0.20087666  0.51099166  1
  Mo  Mo198  1  0.19815100  -0.00597868  0.25677193  1
  Mo  Mo199  1  0.50781943  0.70376599  0.37991626  1
