# generated using pymatgen
data_HfZrTaTiMo
_symmetry_space_group_name_H-M   'P 1'
_cell_length_a   15.20520465
_cell_length_b   15.21520576
_cell_length_c   16.85938356
_cell_angle_alpha   89.99879820
_cell_angle_beta   90.04348894
_cell_angle_gamma   90.15994691
_symmetry_Int_Tables_number   1
_chemical_formula_structural   HfZrTaTiMo
_chemical_formula_sum   'Hf40 Zr40 Ta40 Ti40 Mo40'
_cell_volume   3900.40741605
_cell_formula_units_Z   40
loop_
 _symmetry_equiv_pos_site_id
 _symmetry_equiv_pos_as_xyz
  1  'x, y, z'
loop_
 _atom_site_type_symbol
 _atom_site_label
 _atom_site_symmetry_multiplicity
 _atom_site_fract_x
 _atom_site_fract_y
 _atom_site_fract_z
 _atom_site_occupancy
  Hf  Hf0  1  0.79483997  0.41229831  0.75680357  1
  Hf  Hf1  1  0.09054072  0.13081364  0.38217927  1
  Hf  Hf2  1  0.59658215  0.19684776  0.02020305  1
  Hf  Hf3  1  0.60262250  0.39011633  0.49301848  1
  Hf  Hf4  1  0.00228432  0.21304747  0.76301033  1
  Hf  Hf5  1  0.29265994  0.89681113  0.87343049  1
  Hf  Hf6  1  0.50068928  0.28758241  0.87461014  1
  Hf  Hf7  1  0.01910654  0.61452934  0.25079695  1
  Hf  Hf8  1  0.69476217  0.10063023  0.61907055  1
  Hf  Hf9  1  0.59298285  -0.00954567  0.48153903  1
  Hf  Hf10  1  0.80226250  -0.00335139  0.48923170  1
  Hf  Hf11  1  0.51169971  0.71002275  0.87422260  1
  Hf  Hf12  1  0.00916397  0.01065823  0.74222163  1
  Hf  Hf13  1  0.40851105  0.59653590  0.00141102  1
  Hf  Hf14  1  0.69593984  0.29351801  0.62573125  1
  Hf  Hf15  1  0.40618571  0.79655037  0.25745965  1
  Hf  Hf16  1  0.69889483  0.09998050  0.36404658  1
  Hf  Hf17  1  0.37917345  0.19091556  0.49916053  1
  Hf  Hf18  1  0.80105773  0.20312157  0.48397590  1
  Hf  Hf19  1  0.20546371  0.01141459  0.48085484  1
  Hf  Hf20  1  0.49908508  0.10290515  0.61525662  1
  Hf  Hf21  1  0.48690076  0.49304626  0.37722599  1
  Hf  Hf22  1  0.91015073  0.52153715  0.62875219  1
  Hf  Hf23  1  -0.00033814  0.79100994  0.73838745  1
  Hf  Hf24  1  0.90005308  0.11084832  0.62627036  1
  Hf  Hf25  1  0.29814041  0.67306581  0.38605429  1
  Hf  Hf26  1  0.30462536  0.48265574  0.64443749  1
  Hf  Hf27  1  0.19953127  0.79661783  0.49056478  1
  Hf  Hf28  1  0.30295839  0.48938057  0.11797468  1
  Hf  Hf29  1  0.90098680  0.30998259  0.62593366  1
  Hf  Hf30  1  0.89638588  0.71351282  0.13459467  1
  Hf  Hf31  1  0.78566268  0.00808416  0.75961058  1
  Hf  Hf32  1  0.91361501  0.71610970  0.36149783  1
  Hf  Hf33  1  0.38077948  -0.00272175  0.73183475  1
  Hf  Hf34  1  0.29654103  0.29524955  0.36465197  1
  Hf  Hf35  1  0.81296186  0.00576998  -0.00350821  1
  Hf  Hf36  1  0.18775682  0.20100672  0.23880884  1
  Hf  Hf37  1  0.20275504  0.17658270  0.75615865  1
  Hf  Hf38  1  0.30993708  0.49325752  0.86102920  1
  Hf  Hf39  1  -0.00929496  0.82042735  0.00544296  1
  Zr  Zr40  1  0.31334062  0.08854502  0.88683392  1
  Zr  Zr41  1  0.30523046  0.69835200  0.86887615  1
  Zr  Zr42  1  0.58992157  -0.00632623  0.25763112  1
  Zr  Zr43  1  0.10472096  0.30516307  0.62693300  1
  Zr  Zr44  1  0.08695404  0.31158482  0.12138552  1
  Zr  Zr45  1  0.10024018  0.70790655  0.88215324  1
  Zr  Zr46  1  0.18822151  0.79512712  0.26629401  1
  Zr  Zr47  1  0.77907883  0.80525575  -0.01379359  1
  Zr  Zr48  1  -0.01368388  0.20093764  0.00317315  1
  Zr  Zr49  1  0.80539725  0.40053447  0.49035889  1
  Zr  Zr50  1  0.69174783  0.89769736  0.62711338  1
  Zr  Zr51  1  -0.00618529  0.80708861  0.51027392  1
  Zr  Zr52  1  0.40192939  0.80514103  0.00438352  1
  Zr  Zr53  1  0.59509845  0.59826653  0.25152817  1
  Zr  Zr54  1  0.40248127  0.38997916  0.50381982  1
  Zr  Zr55  1  0.29876302  0.70217863  0.12328995  1
  Zr  Zr56  1  0.00879592  0.41874901  0.76325421  1
  Zr  Zr57  1  0.40139932  0.19791667  0.01666396  1
  Zr  Zr58  1  0.90088538  0.49565625  0.14139152  1
  Zr  Zr59  1  0.70345079  0.49746923  0.36149070  1
  Zr  Zr60  1  0.71153772  0.08951614  0.13233157  1
  Zr  Zr61  1  0.90638702  0.90790405  0.86521940  1
  Zr  Zr62  1  0.18505886  0.59557809  0.75064321  1
  Zr  Zr63  1  0.12362224  0.51358261  0.38256816  1
  Zr  Zr64  1  0.81497457  0.60368470  0.49470367  1
  Zr  Zr65  1  0.19848591  0.39475475  -0.01699769  1
  Zr  Zr66  1  0.62353411  0.60010529  0.75566615  1
  Zr  Zr67  1  0.79822156  0.80309955  0.49780248  1
  Zr  Zr68  1  0.11268563  0.91379908  0.62070135  1
  Zr  Zr69  1  0.09669164  0.50807700  0.10955638  1
  Zr  Zr70  1  0.78650316  0.78925732  0.76158498  1
  Zr  Zr71  1  0.60076804  0.80105749  0.26608406  1
  Zr  Zr72  1  0.50967442  0.49371311  0.87199951  1
  Zr  Zr73  1  0.09736982  0.08836926  0.88953520  1
  Zr  Zr74  1  0.39951944  0.19032474  0.23290012  1
  Zr  Zr75  1  0.59465223  0.20727892  0.23916026  1
  Zr  Zr76  1  0.79926787  0.59263084  0.00361102  1
  Zr  Zr77  1  0.40205198  0.59456859  0.24445850  1
  Zr  Zr78  1  0.91237759  0.49857001  0.35673891  1
  Zr  Zr79  1  0.68921362  0.70036760  0.12912255  1
  Ta  Ta80  1  0.47084786  0.09065500  0.37295261  1
  Ta  Ta81  1  0.69907784  0.30092712  0.87913717  1
  Ta  Ta82  1  0.70412553  0.49795192  0.62255001  1
  Ta  Ta83  1  0.20622839  0.59852726  0.24301370  1
  Ta  Ta84  1  0.60068931  0.39221335  0.74972812  1
  Ta  Ta85  1  0.89743702  0.30975858  0.88273466  1
  Ta  Ta86  1  0.60269570  -0.01313928  0.00099744  1
  Ta  Ta87  1  0.79932914  0.39360574  0.00575268  1
  Ta  Ta88  1  0.60618929  0.59500661  0.50170403  1
  Ta  Ta89  1  0.19829555  0.19568646  0.00550249  1
  Ta  Ta90  1  0.51122311  0.49958970  0.11923374  1
  Ta  Ta91  1  0.10647262  0.50142910  0.61324194  1
  Ta  Ta92  1  0.30312270  0.29040505  0.87051650  1
  Ta  Ta93  1  0.28820470  0.08800573  0.12420121  1
  Ta  Ta94  1  0.29697102  0.90459015  0.13818054  1
  Ta  Ta95  1  0.40573508  0.19360242  0.74855245  1
  Ta  Ta96  1  0.49470355  0.91152259  0.87364743  1
  Ta  Ta97  1  0.80352655  0.19943701  0.25312979  1
  Ta  Ta98  1  0.39061837  -0.00917551  0.50728684  1
  Ta  Ta99  1  0.51106568  0.70010716  0.61662545  1
  Ta  Ta100  1  0.10717143  0.11508648  0.60702660  1
  Ta  Ta101  1  0.70729967  0.69714848  0.37129247  1
  Ta  Ta102  1  0.40070685  0.59144217  0.51574531  1
  Ta  Ta103  1  0.58434832  0.00206040  0.75291666  1
  Ta  Ta104  1  0.19569560  0.81053992  0.00865206  1
  Ta  Ta105  1  0.91624003  0.29036236  0.36640822  1
  Ta  Ta106  1  0.09209848  0.90771422  0.13891344  1
  Ta  Ta107  1  0.70959877  0.68987148  0.62319336  1
  Ta  Ta108  1  0.00871397  0.39737248  0.49240087  1
  Ta  Ta109  1  0.20959654  0.39651100  0.49718189  1
  Ta  Ta110  1  0.60990544  0.39967944  0.00819077  1
  Ta  Ta111  1  0.90465478  0.69050345  0.87712582  1
  Ta  Ta112  1  0.09688538  0.70835882  0.11585506  1
  Ta  Ta113  1  0.20821818  0.80651515  0.73612892  1
  Ta  Ta114  1  0.50112883  0.69475790  0.39581517  1
  Ta  Ta115  1  0.49676618  0.29937810  0.63392891  1
  Ta  Ta116  1  0.40391622  0.79936401  0.73673270  1
  Ta  Ta117  1  0.50729733  0.88960332  0.12443080  1
  Ta  Ta118  1  0.49675011  0.89336834  0.61677392  1
  Ta  Ta119  1  -0.00734875  0.01284966  0.49565950  1
  Ti  Ti120  1  0.19417945  -0.00840103  0.01043902  1
  Ti  Ti121  1  0.80245929  0.81307876  0.25672057  1
  Ti  Ti122  1  0.40506388  0.39211594  0.24464121  1
  Ti  Ti123  1  0.51096378  0.49608653  0.63159745  1
  Ti  Ti124  1  0.29412158  0.30069813  0.12454206  1
  Ti  Ti125  1  0.79381177  0.20747614  0.75875788  1
  Ti  Ti126  1  0.59622735  0.80580381  0.74948448  1
  Ti  Ti127  1  0.82551874  -0.00133444  0.25756455  1
  Ti  Ti128  1  0.89216892  0.11124313  0.87334891  1
  Ti  Ti129  1  0.41265691  0.60407872  0.73775460  1
  Ti  Ti130  1  0.89399849  0.50751225  0.87960496  1
  Ti  Ti131  1  0.40806686  0.39178789  0.00125538  1
  Ti  Ti132  1  0.60851468  0.60316046  -0.00397748  1
  Ti  Ti133  1  0.19776150  0.00641152  0.26136106  1
  Ti  Ti134  1  0.40682781  -0.00062290  0.01281591  1
  Ti  Ti135  1  0.08094096  0.51017485  0.89596257  1
  Ti  Ti136  1  0.79110331  0.20552486  0.00588323  1
  Ti  Ti137  1  0.58621024  0.20219081  0.47893262  1
  Ti  Ti138  1  0.59424262  0.39059377  0.24877938  1
  Ti  Ti139  1  -0.01013651  0.19557313  0.23990903  1
  Ti  Ti140  1  0.60518842  0.79656635  0.49108973  1
  Ti  Ti141  1  0.70969583  0.89650494  0.12969714  1
  Ti  Ti142  1  0.10381000  0.90047629  0.86924747  1
  Ti  Ti143  1  0.29733814  0.28316541  0.63517339  1
  Ti  Ti144  1  0.79558692  0.38352727  0.25475230  1
  Ti  Ti145  1  0.08792221  0.09193561  0.12091100  1
  Ti  Ti146  1  0.09650328  0.68986664  0.62348154  1
  Ti  Ti147  1  0.20253965  0.60807018  -0.00433835  1
  Ti  Ti148  1  0.68379238  0.10117130  0.88231704  1
  Ti  Ti149  1  0.19559991  0.38293803  0.76596380  1
  Ti  Ti150  1  0.88992896  0.29805617  0.13082841  1
  Ti  Ti151  1  0.70620560  0.49311742  0.14050803  1
  Ti  Ti152  1  0.31594252  0.91282149  0.36595710  1
  Ti  Ti153  1  0.07582601  0.90524500  0.36770925  1
  Ti  Ti154  1  0.40136581  0.79814911  0.49992371  1
  Ti  Ti155  1  0.30075616  0.69625121  0.62039697  1
  Ti  Ti156  1  0.89259041  0.90509935  0.63352360  1
  Ti  Ti157  1  0.60182068  0.19277320  0.75509891  1
  Ti  Ti158  1  0.19814369  0.40743276  0.24931169  1
  Ti  Ti159  1  0.01577318  0.61005116  0.49292560  1
  Mo  Mo160  1  0.49437516  0.31836345  0.12135142  1
  Mo  Mo161  1  0.90344609  0.09926480  0.12948214  1
  Mo  Mo162  1  0.50647170  0.69955026  0.11532971  1
  Mo  Mo163  1  0.70457276  0.48997139  0.88348907  1
  Mo  Mo164  1  0.28735321  0.09498633  0.62166118  1
  Mo  Mo165  1  0.80053953  0.60605758  0.24989384  1
  Mo  Mo166  1  -0.00490126  0.61107244  0.00486038  1
  Mo  Mo167  1  -0.00525395  0.81892599  0.24264940  1
  Mo  Mo168  1  0.89509850  0.91845163  0.13021540  1
  Mo  Mo169  1  0.81051358  0.60118268  0.75522972  1
  Mo  Mo170  1  0.90237755  0.70577445  0.62860310  1
  Mo  Mo171  1  0.70550683  0.30961324  0.12829026  1
  Mo  Mo172  1  0.00866519  0.39388785  0.25517796  1
  Mo  Mo173  1  0.39406004  -0.00818254  0.24319761  1
  Mo  Mo174  1  0.49524612  0.07673929  0.12564000  1
  Mo  Mo175  1  -0.00092606  0.60209043  0.75349805  1
  Mo  Mo176  1  0.90188083  0.91036290  0.37277287  1
  Mo  Mo177  1  0.10359654  0.70745744  0.38163466  1
  Mo  Mo178  1  0.40427052  0.38656248  0.74556998  1
  Mo  Mo179  1  0.19884117  0.21588687  0.49856049  1
  Mo  Mo180  1  0.00579867  -0.00092729  0.00380000  1
  Mo  Mo181  1  0.50640448  0.09248659  0.87530678  1
  Mo  Mo182  1  0.29213744  0.09753012  0.36291025  1
  Mo  Mo183  1  0.21083118  0.59412725  0.51915142  1
  Mo  Mo184  1  -0.01632715  0.40824799  -0.00958219  1
  Mo  Mo185  1  0.09764460  0.31694642  0.36706467  1
  Mo  Mo186  1  0.30388192  0.48974578  0.37048267  1
  Mo  Mo187  1  -0.00455929  0.21080582  0.50124806  1
  Mo  Mo188  1  0.00868482  0.01227181  0.25438626  1
  Mo  Mo189  1  0.59520449  0.80279603  0.00024843  1
  Mo  Mo190  1  0.70549146  0.89336178  0.37064416  1
  Mo  Mo191  1  0.70052661  0.69479282  0.87987972  1
  Mo  Mo192  1  0.49177037  0.89194717  0.38898838  1
  Mo  Mo193  1  0.69828421  0.29700562  0.36607677  1
  Mo  Mo194  1  0.90405916  0.10108023  0.37186461  1
  Mo  Mo195  1  0.19537908  -0.00775619  0.74447723  1
  Mo  Mo196  1  0.67923204  0.90776492  0.87079191  1
  Mo  Mo197  1  0.30282990  0.88727796  0.61361849  1
  Mo  Mo198  1  0.10224081  0.29849526  0.88436911  1
  Mo  Mo199  1  0.50251570  0.29012941  0.36984845  1
