# generated using pymatgen
data_HfZrTaTiMo
_symmetry_space_group_name_H-M   'P 1'
_cell_length_a   15.22007916
_cell_length_b   15.21751991
_cell_length_c   16.85717839
_cell_angle_alpha   89.98410417
_cell_angle_beta   90.07463546
_cell_angle_gamma   89.99098707
_symmetry_Int_Tables_number   1
_chemical_formula_structural   HfZrTaTiMo
_chemical_formula_sum   'Hf40 Zr40 Ta40 Ti40 Mo40'
_cell_volume   3904.31888960
_cell_formula_units_Z   40
loop_
 _symmetry_equiv_pos_site_id
 _symmetry_equiv_pos_as_xyz
  1  'x, y, z'
loop_
 _atom_site_type_symbol
 _atom_site_label
 _atom_site_symmetry_multiplicity
 _atom_site_fract_x
 _atom_site_fract_y
 _atom_site_fract_z
 _atom_site_occupancy
  Hf  Hf0  1  0.59062322  0.60160231  0.51156468  1
  Hf  Hf1  1  0.90186595  0.71093733  0.12312015  1
  Hf  Hf2  1  0.01822677  0.81942421  0.24280025  1
  Hf  Hf3  1  0.89571492  0.50973230  0.36268693  1
  Hf  Hf4  1  0.80144508  0.60206011  0.50230901  1
  Hf  Hf5  1  0.90952559  0.30169187  0.63083066  1
  Hf  Hf6  1  0.68677820  0.51021132  0.88114808  1
  Hf  Hf7  1  0.79434736  0.40199082  0.00369190  1
  Hf  Hf8  1  0.09941151  0.91587472  0.62734858  1
  Hf  Hf9  1  0.87784008  0.11726029  0.36734238  1
  Hf  Hf10  1  0.69684999  0.89741746  0.13139801  1
  Hf  Hf11  1  0.00237989  0.39472005  0.25140034  1
  Hf  Hf12  1  0.90197007  0.92909983  0.13292903  1
  Hf  Hf13  1  0.38721319  0.79467703  -0.00925533  1
  Hf  Hf14  1  0.81051581  0.39338617  0.49504672  1
  Hf  Hf15  1  0.68230323  0.30166324  0.88240701  1
  Hf  Hf16  1  0.10290411  0.50648451  0.37927904  1
  Hf  Hf17  1  0.10338196  0.10656491  0.87526691  1
  Hf  Hf18  1  0.48531334  0.28784385  0.12137350  1
  Hf  Hf19  1  0.50547102  0.68568513  0.86759435  1
  Hf  Hf20  1  0.61177110  -0.00783531  -0.00402414  1
  Hf  Hf21  1  0.62500191  0.79845289  0.77001333  1
  Hf  Hf22  1  0.39547232  0.39533843  0.73737610  1
  Hf  Hf23  1  -0.01211897  0.19748980  -0.00233260  1
  Hf  Hf24  1  0.48224960  0.70722527  0.65018891  1
  Hf  Hf25  1  0.80501519  0.19504672  0.76084375  1
  Hf  Hf26  1  0.21408011  0.60820292  0.01496213  1
  Hf  Hf27  1  0.39448008  0.40443246  0.50914968  1
  Hf  Hf28  1  0.90132148  0.50895080  0.87208014  1
  Hf  Hf29  1  0.90268182  0.30256558  0.87408851  1
  Hf  Hf30  1  0.40574101  0.79877493  0.49644347  1
  Hf  Hf31  1  0.70495551  0.49382979  0.62987537  1
  Hf  Hf32  1  0.00158371  0.01620271  0.48708798  1
  Hf  Hf33  1  0.39774914  -0.00038731  0.25922850  1
  Hf  Hf34  1  0.31122127  0.89681747  0.63018797  1
  Hf  Hf35  1  0.02415356  0.61680576  0.24333444  1
  Hf  Hf36  1  0.59498811  -0.01499250  0.48664023  1
  Hf  Hf37  1  0.20014489  0.79230461  0.74975882  1
  Hf  Hf38  1  0.30405657  0.09825449  0.12135125  1
  Hf  Hf39  1  -0.00795836  0.81408040  0.75082408  1
  Zr  Zr40  1  0.90317557  0.50073268  0.63694662  1
  Zr  Zr41  1  0.90998080  0.10119735  0.62752005  1
  Zr  Zr42  1  0.59775756  0.58778353  0.74032412  1
  Zr  Zr43  1  0.89125432  0.50873038  0.13124073  1
  Zr  Zr44  1  0.21269458  0.01292013  0.75375078  1
  Zr  Zr45  1  0.40224001  -0.00026798  0.48374254  1
  Zr  Zr46  1  0.79349374  0.80898909  0.49133304  1
  Zr  Zr47  1  0.70951482  0.28671718  0.62309287  1
  Zr  Zr48  1  0.01730317  0.81196691  0.00727972  1
  Zr  Zr49  1  0.41260293  0.58828267  0.01166414  1
  Zr  Zr50  1  0.01411482  0.61033770  0.74765672  1
  Zr  Zr51  1  0.29817808  0.51759723  0.37264654  1
  Zr  Zr52  1  0.09412412  0.29480693  0.11870629  1
  Zr  Zr53  1  0.59716912  0.79069714  -0.00915728  1
  Zr  Zr54  1  0.39474998  0.79532378  0.24470247  1
  Zr  Zr55  1  0.49880214  0.28585592  0.61817644  1
  Zr  Zr56  1  0.50207240  0.50002481  0.36524339  1
  Zr  Zr57  1  0.60141842  0.39570269  0.50363788  1
  Zr  Zr58  1  0.00721305  0.80802227  0.50300963  1
  Zr  Zr59  1  0.77383999  0.40271224  0.24267047  1
  Zr  Zr60  1  0.81080030  -0.02250672  0.77073395  1
  Zr  Zr61  1  0.19338801  -0.01237093  0.25430680  1
  Zr  Zr62  1  0.50219626  0.29319417  0.37299658  1
  Zr  Zr63  1  0.79723037  0.79631501  0.25126057  1
  Zr  Zr64  1  0.39130841  0.60763502  0.51169537  1
  Zr  Zr65  1  0.58812271  0.19862979  0.75343067  1
  Zr  Zr66  1  0.61267313  0.59065823  0.23922535  1
  Zr  Zr67  1  0.11602939  0.50651590  0.88323329  1
  Zr  Zr68  1  0.69316968  0.69757694  0.37036626  1
  Zr  Zr69  1  0.40272924  -0.00860958  -0.00163881  1
  Zr  Zr70  1  0.39082346  0.19229161  0.49249829  1
  Zr  Zr71  1  0.49979457  0.10147419  0.88020998  1
  Zr  Zr72  1  0.78980480  0.01253927  0.49535819  1
  Zr  Zr73  1  0.91735851  0.70469562  0.37165222  1
  Zr  Zr74  1  0.69350559  0.08300449  0.63675885  1
  Zr  Zr75  1  0.11017535  0.49590092  0.12128776  1
  Zr  Zr76  1  0.28604353  0.29852609  0.13686893  1
  Zr  Zr77  1  0.29976926  0.67365006  0.85850308  1
  Zr  Zr78  1  0.09673436  0.09204164  0.12285831  1
  Zr  Zr79  1  0.51137810  0.90571398  0.64240202  1
  Ta  Ta80  1  0.49788834  0.89750940  0.13040457  1
  Ta  Ta81  1  0.28672574  0.87803069  0.37996355  1
  Ta  Ta82  1  0.70433098  0.69030030  0.11891760  1
  Ta  Ta83  1  0.50928067  0.09412451  0.12729344  1
  Ta  Ta84  1  0.20113838  0.40426595  0.74539591  1
  Ta  Ta85  1  0.10374549  0.49438482  0.61838964  1
  Ta  Ta86  1  0.19769987  0.39906916  0.49968961  1
  Ta  Ta87  1  0.48303554  0.49038862  0.87208728  1
  Ta  Ta88  1  0.60970140  0.17726097  0.49062115  1
  Ta  Ta89  1  0.19938594  0.00122881  0.49460796  1
  Ta  Ta90  1  0.10005841  0.29942642  0.62053687  1
  Ta  Ta91  1  0.00178884  0.60672353  0.00357140  1
  Ta  Ta92  1  0.70931948  0.28341692  0.37615813  1
  Ta  Ta93  1  0.70595739  0.10109768  0.87995288  1
  Ta  Ta94  1  0.89942334  0.71156499  0.88193510  1
  Ta  Ta95  1  -0.00051048  0.00277715  -0.01075050  1
  Ta  Ta96  1  0.89906027  0.70885357  0.62397679  1
  Ta  Ta97  1  0.81281478  0.00809644  -0.01103333  1
  Ta  Ta98  1  0.89465534  0.90397775  0.62441996  1
  Ta  Ta99  1  0.47110983  0.29809850  0.88441664  1
  Ta  Ta100  1  0.13328034  0.70506569  0.38915984  1
  Ta  Ta101  1  0.80109189  0.81336597  -0.00416652  1
  Ta  Ta102  1  0.69833355  0.49244280  0.37707308  1
  Ta  Ta103  1  0.38203550  0.19001366  0.74545721  1
  Ta  Ta104  1  0.60516723  0.19897656  0.24762250  1
  Ta  Ta105  1  0.01378813  0.39635091  0.75485528  1
  Ta  Ta106  1  0.50458913  0.48429590  0.13286945  1
  Ta  Ta107  1  0.20011495  -0.01382472  -0.00902862  1
  Ta  Ta108  1  0.49355026  0.69448008  0.36423554  1
  Ta  Ta109  1  0.59963265  0.00180205  0.25210932  1
  Ta  Ta110  1  0.20078812  0.77786900  0.24204644  1
  Ta  Ta111  1  0.88613339  0.28946845  0.12817906  1
  Ta  Ta112  1  0.39750100  0.39782440  0.24986621  1
  Ta  Ta113  1  0.71567894  0.10120117  0.12862791  1
  Ta  Ta114  1  0.00686370  0.60009330  0.50647799  1
  Ta  Ta115  1  0.28814492  0.30444444  0.37110051  1
  Ta  Ta116  1  0.30592707  0.11217517  0.88407236  1
  Ta  Ta117  1  0.68315427  0.30061081  0.11692171  1
  Ta  Ta118  1  0.10978204  0.30825900  0.88338229  1
  Ta  Ta119  1  0.89941386  0.91226582  0.36364418  1
  Ti  Ti120  1  0.18387508  0.20068884  0.26516734  1
  Ti  Ti121  1  0.00974298  0.19952787  0.75560283  1
  Ti  Ti122  1  0.00073877  0.01573050  0.26243606  1
  Ti  Ti123  1  0.28560464  0.09882706  0.37331083  1
  Ti  Ti124  1  0.10382669  0.90248370  0.86727046  1
  Ti  Ti125  1  0.37337161  0.39410061  0.00366913  1
  Ti  Ti126  1  0.89883759  0.30553523  0.36707121  1
  Ti  Ti127  1  0.10090005  0.70442436  0.88121388  1
  Ti  Ti128  1  0.28568321  0.29515734  0.61782448  1
  Ti  Ti129  1  0.79502681  0.40186842  0.75905066  1
  Ti  Ti130  1  0.20002726  0.40672179  0.25704004  1
  Ti  Ti131  1  0.50664145  0.70101394  0.12746084  1
  Ti  Ti132  1  0.79835449  0.61946090  0.75611478  1
  Ti  Ti133  1  0.10247951  0.11226509  0.62684994  1
  Ti  Ti134  1  0.29381074  0.09997321  0.61745722  1
  Ti  Ti135  1  0.79645369  0.60808048  -0.00307147  1
  Ti  Ti136  1  0.21233769  0.20884999  -0.00432540  1
  Ti  Ti137  1  -0.00293650  0.21270604  0.48728032  1
  Ti  Ti138  1  0.39681122  0.19351925  0.26087992  1
  Ti  Ti139  1  0.59778840  0.79327082  0.50161214  1
  Ti  Ti140  1  0.48991194  0.09087171  0.62865617  1
  Ti  Ti141  1  0.20007827  0.21549914  0.75187160  1
  Ti  Ti142  1  0.79476964  0.19563452  -0.00088844  1
  Ti  Ti143  1  -0.00090574  0.40527609  0.00094231  1
  Ti  Ti144  1  0.18473255  0.20011122  0.48811896  1
  Ti  Ti145  1  0.70551275  0.70595861  0.62568276  1
  Ti  Ti146  1  0.50789779  0.88374514  0.36063860  1
  Ti  Ti147  1  0.11607439  0.69769090  0.61418542  1
  Ti  Ti148  1  0.59258560  0.39463035  0.75030259  1
  Ti  Ti149  1  0.70703986  0.89133003  0.62983206  1
  Ti  Ti150  1  0.38938415  0.59953062  0.23303014  1
  Ti  Ti151  1  0.59973008  -0.00733281  0.77375316  1
  Ti  Ti152  1  0.70070362  0.90588187  0.35739323  1
  Ti  Ti153  1  0.28536135  0.88775238  0.11900044  1
  Ti  Ti154  1  0.57966480  0.40452012  -0.00110398  1
  Ti  Ti155  1  0.59487948  0.19625164  0.00353244  1
  Ti  Ti156  1  -0.00566240  0.20087942  0.25234719  1
  Ti  Ti157  1  0.29286383  0.51687298  0.62958442  1
  Ti  Ti158  1  0.10264976  0.89919954  0.38197150  1
  Ti  Ti159  1  0.00484290  0.40036522  0.49270028  1
  Mo  Mo160  1  0.21098659  0.60136786  0.23755820  1
  Mo  Mo161  1  0.69166175  0.49797350  0.10604375  1
  Mo  Mo162  1  0.21020913  0.80466083  0.50922336  1
  Mo  Mo163  1  0.60105304  0.59027632  0.00961793  1
  Mo  Mo164  1  0.80721934  0.79023620  0.75086994  1
  Mo  Mo165  1  0.39252692  0.58905791  0.74630437  1
  Mo  Mo166  1  0.09803429  0.30234717  0.37668518  1
  Mo  Mo167  1  0.00544516  0.00932622  0.75706632  1
  Mo  Mo168  1  0.49534965  0.49645784  0.63148706  1
  Mo  Mo169  1  0.20690699  0.80583377  -0.01478257  1
  Mo  Mo170  1  0.39883238  0.19875423  0.00507623  1
  Mo  Mo171  1  0.59300508  0.79988647  0.24266135  1
  Mo  Mo172  1  0.30667141  0.70175850  0.11995324  1
  Mo  Mo173  1  0.89890587  0.10759087  0.12929942  1
  Mo  Mo174  1  0.30444152  0.47874004  0.87396018  1
  Mo  Mo175  1  0.11051700  0.71009386  0.11587015  1
  Mo  Mo176  1  0.91266847  0.89870956  0.88285299  1
  Mo  Mo177  1  0.50050844  0.09474602  0.36280136  1
  Mo  Mo178  1  0.19901935  0.39978496  0.00027361  1
  Mo  Mo179  1  0.80391960  0.60106096  0.24147690  1
  Mo  Mo180  1  0.80166730  0.20499829  0.49931733  1
  Mo  Mo181  1  0.30639309  0.69800134  0.37343917  1
  Mo  Mo182  1  0.79652201  0.00696087  0.25338585  1
  Mo  Mo183  1  0.10897694  0.90718845  0.12174389  1
  Mo  Mo184  1  0.59436932  0.38836730  0.24622899  1
  Mo  Mo185  1  0.68897410  0.10140565  0.36470066  1
  Mo  Mo186  1  0.19832263  0.60125478  0.50967158  1
  Mo  Mo187  1  0.49734355  0.89638738  0.86637987  1
  Mo  Mo188  1  0.29460350  0.30144683  0.87204894  1
  Mo  Mo189  1  0.30803952  0.49181365  0.13587590  1
  Mo  Mo190  1  0.09501308  0.10646940  0.37247148  1
  Mo  Mo191  1  0.70764070  0.89734812  0.88572929  1
  Mo  Mo192  1  0.40169889  0.81052561  0.77217443  1
  Mo  Mo193  1  0.30038467  0.90205487  0.86614139  1
  Mo  Mo194  1  0.40486482  0.00936621  0.75509826  1
  Mo  Mo195  1  0.71420376  0.69274632  0.88533168  1
  Mo  Mo196  1  0.90695895  0.10182164  0.87072010  1
  Mo  Mo197  1  0.79686242  0.20674524  0.24041569  1
  Mo  Mo198  1  0.19483615  0.59051646  0.74151076  1
  Mo  Mo199  1  0.29596611  0.70437202  0.64123438  1
