# generated using pymatgen
data_HfZrTaTiMo
_symmetry_space_group_name_H-M   'P 1'
_cell_length_a   15.21619016
_cell_length_b   15.20926019
_cell_length_c   16.84848132
_cell_angle_alpha   89.96088546
_cell_angle_beta   90.05563520
_cell_angle_gamma   89.86954137
_symmetry_Int_Tables_number   1
_chemical_formula_structural   HfZrTaTiMo
_chemical_formula_sum   'Hf40 Zr40 Ta40 Ti40 Mo40'
_cell_volume   3899.18054755
_cell_formula_units_Z   40
loop_
 _symmetry_equiv_pos_site_id
 _symmetry_equiv_pos_as_xyz
  1  'x, y, z'
loop_
 _atom_site_type_symbol
 _atom_site_label
 _atom_site_symmetry_multiplicity
 _atom_site_fract_x
 _atom_site_fract_y
 _atom_site_fract_z
 _atom_site_occupancy
  Hf  Hf0  1  0.60102448  0.20249171  0.00841107  1
  Hf  Hf1  1  0.10363581  0.90103776  0.61495797  1
  Hf  Hf2  1  0.20358477  0.00939729  0.73789912  1
  Hf  Hf3  1  0.78106709  0.58792221  0.76349053  1
  Hf  Hf4  1  0.00908230  0.00803195  0.00774037  1
  Hf  Hf5  1  0.70135337  0.30496875  0.12936485  1
  Hf  Hf6  1  0.88405394  0.51299873  0.11146777  1
  Hf  Hf7  1  0.10234510  0.31262501  0.61790765  1
  Hf  Hf8  1  0.10944671  0.89442603  0.13301699  1
  Hf  Hf9  1  0.09593932  0.70270711  0.63878263  1
  Hf  Hf10  1  0.92537827  0.29968892  0.37997107  1
  Hf  Hf11  1  0.79722611  -0.02253475  0.50125393  1
  Hf  Hf12  1  -0.02553972  0.79905765  0.51188491  1
  Hf  Hf13  1  0.39630920  -0.00899450  0.74839273  1
  Hf  Hf14  1  0.41919680  0.39822998  0.23454004  1
  Hf  Hf15  1  0.78881722  0.61266416  0.50773824  1
  Hf  Hf16  1  0.11918144  0.89853204  0.85897984  1
  Hf  Hf17  1  0.60311332  0.39667996  0.50279801  1
  Hf  Hf18  1  0.88320811  0.48701259  0.63009304  1
  Hf  Hf19  1  0.08971256  0.11394035  0.38896177  1
  Hf  Hf20  1  0.27593061  0.69681602  0.11898918  1
  Hf  Hf21  1  0.29449628  0.09172649  0.36916673  1
  Hf  Hf22  1  0.09285807  0.49975838  0.62851532  1
  Hf  Hf23  1  0.00125504  0.20024361  0.74179837  1
  Hf  Hf24  1  0.50034929  0.89954120  0.62476449  1
  Hf  Hf25  1  0.28930966  0.09706632  0.14327891  1
  Hf  Hf26  1  0.30365049  0.29412668  0.13043722  1
  Hf  Hf27  1  0.20001124  0.19592063  -0.00273891  1
  Hf  Hf28  1  0.69810966  0.10247403  0.61817838  1
  Hf  Hf29  1  0.80209746  0.40974287  0.25902743  1
  Hf  Hf30  1  -0.01662267  0.59927914  0.75951807  1
  Hf  Hf31  1  0.49134880  0.49442856  0.87432398  1
  Hf  Hf32  1  0.09783575  0.10491430  0.60118512  1
  Hf  Hf33  1  0.51108143  0.10221193  0.87759969  1
  Hf  Hf34  1  0.91437770  0.90225832  0.86865228  1
  Hf  Hf35  1  0.10300626  0.91508676  0.39102438  1
  Hf  Hf36  1  0.49898655  0.49819835  0.37292018  1
  Hf  Hf37  1  0.19213463  0.79621333  0.26158693  1
  Hf  Hf38  1  0.49966665  0.69338327  0.63681221  1
  Hf  Hf39  1  0.21046760  0.21707055  0.49048503  1
  Zr  Zr40  1  0.81007006  -0.00048968  0.01317771  1
  Zr  Zr41  1  0.90147186  0.30080449  0.12329966  1
  Zr  Zr42  1  0.40466376  0.01154067  0.01741198  1
  Zr  Zr43  1  0.01672503  0.80226404  0.00005956  1
  Zr  Zr44  1  0.41542444  0.20328957  0.49495848  1
  Zr  Zr45  1  -0.00312798  0.60841013  0.24827232  1
  Zr  Zr46  1  0.79991481  0.79137991  0.76836336  1
  Zr  Zr47  1  0.60723777  0.00364040  0.74902693  1
  Zr  Zr48  1  0.00771318  0.40621796  0.00123767  1
  Zr  Zr49  1  0.90063299  0.88111946  0.36406997  1
  Zr  Zr50  1  0.49427320  0.90282935  0.88750660  1
  Zr  Zr51  1  0.60098845  0.79674324  0.75882218  1
  Zr  Zr52  1  0.19733509  0.60070007  0.50175910  1
  Zr  Zr53  1  0.80211347  0.20009508  0.74705308  1
  Zr  Zr54  1  0.20947326  0.21389931  0.74860400  1
  Zr  Zr55  1  0.38022665  0.80771498  0.00903140  1
  Zr  Zr56  1  0.01006385  0.40346522  0.24461159  1
  Zr  Zr57  1  0.38248430  0.59927922  0.75973883  1
  Zr  Zr58  1  0.80767755  0.78877431  -0.00743885  1
  Zr  Zr59  1  0.90142832  0.29255527  0.88281329  1
  Zr  Zr60  1  0.40727904  0.79480049  0.49840016  1
  Zr  Zr61  1  0.50054379  0.08792356  0.36301606  1
  Zr  Zr62  1  0.61745388  0.79380221  0.50116876  1
  Zr  Zr63  1  0.90190429  0.09050605  0.38029925  1
  Zr  Zr64  1  0.71272803  0.31280332  0.62570631  1
  Zr  Zr65  1  0.41759369  -0.01526483  0.23914286  1
  Zr  Zr66  1  0.08420865  0.70255230  0.38343639  1
  Zr  Zr67  1  0.20522334  0.41571728  0.24156465  1
  Zr  Zr68  1  0.50772678  0.30524015  0.85972409  1
  Zr  Zr69  1  0.40142814  0.19548579  0.74707539  1
  Zr  Zr70  1  0.58771099  0.59878378  0.23042438  1
  Zr  Zr71  1  0.70307691  0.70089354  0.36294262  1
  Zr  Zr72  1  0.49491898  0.70198954  0.88991696  1
  Zr  Zr73  1  0.09371011  0.10242989  0.87188687  1
  Zr  Zr74  1  0.70372223  0.69660490  0.11793715  1
  Zr  Zr75  1  0.69829354  0.09850753  0.36148898  1
  Zr  Zr76  1  0.31733062  0.89570252  0.37502661  1
  Zr  Zr77  1  0.39872406  0.39543723  0.50218737  1
  Zr  Zr78  1  0.49328193  0.47574509  0.65155924  1
  Zr  Zr79  1  0.39460612  0.59259373  0.51178799  1
  Ta  Ta80  1  0.38976780  0.59425494  0.24118062  1
  Ta  Ta81  1  0.10403188  0.29457111  0.12247770  1
  Ta  Ta82  1  0.90577454  0.10596184  0.13901997  1
  Ta  Ta83  1  0.20904025  -0.01444762  -0.00001350  1
  Ta  Ta84  1  0.61039779  0.00273274  0.01846785  1
  Ta  Ta85  1  0.69601338  0.90366262  0.89063326  1
  Ta  Ta86  1  0.30285697  0.09395713  0.87972616  1
  Ta  Ta87  1  0.70675676  0.09958650  0.87868366  1
  Ta  Ta88  1  0.79850559  0.20813725  0.49121465  1
  Ta  Ta89  1  0.80460260  -0.00614155  0.24078149  1
  Ta  Ta90  1  0.30491535  0.68911086  0.36814950  1
  Ta  Ta91  1  0.09318570  0.70906188  0.85496380  1
  Ta  Ta92  1  0.29803042  0.49971170  0.36921444  1
  Ta  Ta93  1  0.40011069  0.20849524  -0.00331382  1
  Ta  Ta94  1  0.49774645  0.69810338  0.37041316  1
  Ta  Ta95  1  0.01226793  0.00347697  0.24917365  1
  Ta  Ta96  1  0.60448412  0.20181238  0.49058450  1
  Ta  Ta97  1  -0.00626863  0.61006255  -0.01596934  1
  Ta  Ta98  1  0.80543610  0.40648012  0.48595930  1
  Ta  Ta99  1  0.59239933  -0.00474551  0.49529879  1
  Ta  Ta100  1  0.28484923  0.72013211  0.87156373  1
  Ta  Ta101  1  0.58713140  0.21639600  0.24847664  1
  Ta  Ta102  1  0.11062004  0.31307010  0.87459506  1
  Ta  Ta103  1  0.88698634  0.49454673  0.88263675  1
  Ta  Ta104  1  0.39893599  0.39926376  0.00225360  1
  Ta  Ta105  1  0.60547036  0.58822794  0.00130326  1
  Ta  Ta106  1  -0.01462193  0.59589927  0.50625123  1
  Ta  Ta107  1  0.31411610  0.30209837  0.35773092  1
  Ta  Ta108  1  0.18369053  0.20862965  0.26114519  1
  Ta  Ta109  1  0.80274265  -0.00292391  0.74794836  1
  Ta  Ta110  1  0.50319457  0.09885078  0.61788906  1
  Ta  Ta111  1  0.30654340  0.09365047  0.60609903  1
  Ta  Ta112  1  0.69155660  0.90342905  0.35712857  1
  Ta  Ta113  1  0.80571842  0.20542122  0.25765903  1
  Ta  Ta114  1  0.80019926  0.19305096  0.00381625  1
  Ta  Ta115  1  -0.00604731  -0.00046893  0.73312373  1
  Ta  Ta116  1  0.59481539  0.59287988  0.51034505  1
  Ta  Ta117  1  0.60064198  0.59749535  0.76194729  1
  Ta  Ta118  1  0.40759195  0.78062870  0.23999290  1
  Ta  Ta119  1  0.70332302  0.10514205  0.14116901  1
  Ti  Ti120  1  0.10035839  0.10372457  0.13459446  1
  Ti  Ti121  1  0.29375635  0.70620894  0.63809696  1
  Ti  Ti122  1  0.30276803  0.89783974  0.61296546  1
  Ti  Ti123  1  0.69571673  0.50568312  0.37578938  1
  Ti  Ti124  1  0.10446550  0.51841036  0.11349490  1
  Ti  Ti125  1  0.20425723  0.40415437  -0.00319093  1
  Ti  Ti126  1  0.00081211  0.40018131  0.76088569  1
  Ti  Ti127  1  0.20657585  0.79523327  0.49598465  1
  Ti  Ti128  1  0.90929662  0.89811595  0.13631369  1
  Ti  Ti129  1  0.63708259  0.40558500  0.75432495  1
  Ti  Ti130  1  0.28648248  0.49402154  0.63661999  1
  Ti  Ti131  1  0.78178803  0.40389738  -0.00228174  1
  Ti  Ti132  1  0.91260535  0.70534313  0.12302710  1
  Ti  Ti133  1  0.60591098  0.40962174  0.23976644  1
  Ti  Ti134  1  0.88239942  0.70773789  0.63551230  1
  Ti  Ti135  1  0.48704444  0.68791200  0.10304380  1
  Ti  Ti136  1  0.70431582  0.89546368  0.12816619  1
  Ti  Ti137  1  0.00059500  0.19951888  0.00339695  1
  Ti  Ti138  1  0.59342168  0.80518023  0.24582669  1
  Ti  Ti139  1  0.80830345  0.79112955  0.24246191  1
  Ti  Ti140  1  0.18834251  0.60862425  -0.01800463  1
  Ti  Ti141  1  0.19350548  0.60006613  0.25219083  1
  Ti  Ti142  1  0.70415753  0.29631690  0.87522626  1
  Ti  Ti143  1  0.51304453  0.88566159  0.11522732  1
  Ti  Ti144  1  0.20352946  0.40750901  0.49169141  1
  Ti  Ti145  1  0.30465300  0.50918931  0.10580483  1
  Ti  Ti146  1  0.89799774  0.09672153  0.87423893  1
  Ti  Ti147  1  0.89948401  0.51325919  0.37993469  1
  Ti  Ti148  1  0.49905666  0.11532149  0.13569189  1
  Ti  Ti149  1  0.90847740  0.29838771  0.61010638  1
  Ti  Ti150  1  0.51762689  0.28656291  0.64286039  1
  Ti  Ti151  1  0.79714250  0.59916236  0.24833335  1
  Ti  Ti152  1  0.29717581  0.89738218  0.13989290  1
  Ti  Ti153  1  0.09234780  0.49343276  0.38318893  1
  Ti  Ti154  1  0.19237619  0.58898608  0.76653177  1
  Ti  Ti155  1  0.59363136  0.39834128  0.00789736  1
  Ti  Ti156  1  0.89896821  0.09563288  0.60811811  1
  Ti  Ti157  1  0.71022516  0.88473277  0.62912195  1
  Ti  Ti158  1  0.30915422  0.30842044  0.62856156  1
  Ti  Ti159  1  0.69673434  0.30646466  0.36952573  1
  Mo  Mo160  1  -0.00027578  0.41202352  0.49744134  1
  Mo  Mo161  1  -0.00528955  0.80511479  0.24524211  1
  Mo  Mo162  1  0.00368073  0.20162346  0.24641984  1
  Mo  Mo163  1  0.69155001  0.50481969  0.62528970  1
  Mo  Mo164  1  0.68863635  0.48426592  0.88436082  1
  Mo  Mo165  1  0.29956232  0.90891392  0.87432183  1
  Mo  Mo166  1  -0.00580994  0.20988764  0.50685838  1
  Mo  Mo167  1  0.38718337  0.80093387  0.74778832  1
  Mo  Mo168  1  0.79770658  0.59520452  -0.01569626  1
  Mo  Mo169  1  0.69318242  0.69119173  0.63299749  1
  Mo  Mo170  1  0.19375013  0.80029852  -0.00457541  1
  Mo  Mo171  1  0.90363368  0.69832546  0.87108216  1
  Mo  Mo172  1  0.60190555  0.80353138  0.00566130  1
  Mo  Mo173  1  0.30128261  0.30245888  0.88399323  1
  Mo  Mo174  1  0.28679499  0.50138866  0.89149313  1
  Mo  Mo175  1  0.69370282  0.69198947  0.89390124  1
  Mo  Mo176  1  0.49934592  0.29874881  0.11855254  1
  Mo  Mo177  1  0.69911410  0.49807794  0.12066282  1
  Mo  Mo178  1  0.21362767  0.80231497  0.74022652  1
  Mo  Mo179  1  0.38536901  0.59499813  -0.00897376  1
  Mo  Mo180  1  0.00000612  0.80473438  0.73862001  1
  Mo  Mo181  1  0.36117225  0.39239745  0.76271927  1
  Mo  Mo182  1  0.09712682  0.68939595  0.12161726  1
  Mo  Mo183  1  0.09260782  0.50405359  0.87711187  1
  Mo  Mo184  1  0.79364138  0.79844288  0.50264107  1
  Mo  Mo185  1  0.51620214  0.88732686  0.36692013  1
  Mo  Mo186  1  0.60877102  0.19859561  0.75072525  1
  Mo  Mo187  1  0.89578912  0.90027061  0.63652730  1
  Mo  Mo188  1  0.51168293  0.30197508  0.36954611  1
  Mo  Mo189  1  0.11442344  0.31408712  0.38003265  1
  Mo  Mo190  1  0.39774307  0.20195122  0.25397465  1
  Mo  Mo191  1  0.89222902  0.68992325  0.37447743  1
  Mo  Mo192  1  0.60779884  -0.00475992  0.22489384  1
  Mo  Mo193  1  0.19624040  0.00254591  0.25289403  1
  Mo  Mo194  1  0.19343246  0.40825050  0.75830204  1
  Mo  Mo195  1  -0.00635461  -0.00178492  0.51129553  1
  Mo  Mo196  1  0.49433114  0.50154380  0.10761315  1
  Mo  Mo197  1  0.40868611  -0.00304805  0.50035593  1
  Mo  Mo198  1  0.21199084  -0.00128278  0.50379740  1
  Mo  Mo199  1  0.81398504  0.39703721  0.75797995  1
