# generated using pymatgen
data_HfZrTaTiMo
_symmetry_space_group_name_H-M   'P 1'
_cell_length_a   15.23411172
_cell_length_b   15.20613661
_cell_length_c   16.85244201
_cell_angle_alpha   89.97575139
_cell_angle_beta   89.96866955
_cell_angle_gamma   89.93461039
_symmetry_Int_Tables_number   1
_chemical_formula_structural   HfZrTaTiMo
_chemical_formula_sum   'Hf40 Zr40 Ta40 Ti40 Mo40'
_cell_volume   3903.89815177
_cell_formula_units_Z   40
loop_
 _symmetry_equiv_pos_site_id
 _symmetry_equiv_pos_as_xyz
  1  'x, y, z'
loop_
 _atom_site_type_symbol
 _atom_site_label
 _atom_site_symmetry_multiplicity
 _atom_site_fract_x
 _atom_site_fract_y
 _atom_site_fract_z
 _atom_site_occupancy
  Hf  Hf0  1  0.59859497  0.61033791  0.23299014  1
  Hf  Hf1  1  0.51552927  0.29635018  0.11059534  1
  Hf  Hf2  1  0.28829362  0.88901540  0.84966192  1
  Hf  Hf3  1  -0.02186510  0.40874959  -0.01283512  1
  Hf  Hf4  1  0.59298562  0.39690279  0.24947843  1
  Hf  Hf5  1  0.49877432  0.10637649  0.62877856  1
  Hf  Hf6  1  0.80867497  0.83061928  0.22788328  1
  Hf  Hf7  1  0.20632682  0.80601599  -0.00452508  1
  Hf  Hf8  1  0.81499618  0.20298460  0.50718182  1
  Hf  Hf9  1  -0.00228640  0.41893398  0.49280425  1
  Hf  Hf10  1  0.70972981  0.49516128  0.88397841  1
  Hf  Hf11  1  0.28451993  0.28837844  0.38630475  1
  Hf  Hf12  1  0.51873124  0.08304377  0.11589161  1
  Hf  Hf13  1  0.10311845  0.70413841  0.12525015  1
  Hf  Hf14  1  0.69229159  0.51470050  0.36488283  1
  Hf  Hf15  1  0.29960099  0.70850641  0.12666663  1
  Hf  Hf16  1  0.29099670  0.48064524  0.61654188  1
  Hf  Hf17  1  0.30971661  0.08682656  0.87075583  1
  Hf  Hf18  1  0.59321375  0.82569375  0.00284715  1
  Hf  Hf19  1  0.48796702  0.30614788  0.61951804  1
  Hf  Hf20  1  0.52120308  0.89085391  0.38413739  1
  Hf  Hf21  1  0.39732029  -0.03116587  0.01103782  1
  Hf  Hf22  1  0.39631783  -0.00317358  0.49840692  1
  Hf  Hf23  1  0.38546503  0.38526770  0.00344646  1
  Hf  Hf24  1  0.80931562  0.80875173  0.50202904  1
  Hf  Hf25  1  0.91818551  0.31189261  0.63744958  1
  Hf  Hf26  1  0.69309670  0.47979957  0.11327417  1
  Hf  Hf27  1  0.79453719  0.40792778  0.50341412  1
  Hf  Hf28  1  0.18344280  0.39040462  0.74653717  1
  Hf  Hf29  1  0.19583285  0.20681249  0.23991898  1
  Hf  Hf30  1  0.60918101  0.79632131  0.76151432  1
  Hf  Hf31  1  0.19914432  0.59372637  0.25755831  1
  Hf  Hf32  1  0.92197608  0.10043185  0.63877957  1
  Hf  Hf33  1  0.28519774  0.88989243  0.38359021  1
  Hf  Hf34  1  0.29215905  0.68631049  0.40229856  1
  Hf  Hf35  1  0.69930024  0.10940159  0.86622222  1
  Hf  Hf36  1  0.28807175  0.27598026  0.62136603  1
  Hf  Hf37  1  0.42132850  0.57322213  0.51283585  1
  Hf  Hf38  1  0.71556226  0.70100786  0.89707412  1
  Hf  Hf39  1  0.53356845  0.69106108  0.61097515  1
  Zr  Zr40  1  0.82314053  0.58667090  0.01232693  1
  Zr  Zr41  1  0.91822082  0.70727521  0.11957166  1
  Zr  Zr42  1  0.72136803  0.08973471  0.36335233  1
  Zr  Zr43  1  0.37972283  0.38861543  0.23772243  1
  Zr  Zr44  1  0.07888125  0.50230770  0.12529826  1
  Zr  Zr45  1  0.80520541  0.60882752  0.49572347  1
  Zr  Zr46  1  0.70240313  0.90855791  0.87295251  1
  Zr  Zr47  1  0.38982506  0.59818377  -0.00105270  1
  Zr  Zr48  1  0.49586301  0.49316677  0.88812018  1
  Zr  Zr49  1  0.40012175  0.78526153  0.26617653  1
  Zr  Zr50  1  0.52083160  0.68758016  0.39262839  1
  Zr  Zr51  1  0.29669344  0.08920160  0.36607376  1
  Zr  Zr52  1  0.89352868  0.51568169  0.64730995  1
  Zr  Zr53  1  0.79792364  0.01579587  0.00085563  1
  Zr  Zr54  1  0.81188307  0.00390781  0.51163790  1
  Zr  Zr55  1  0.19186707  0.59453883  -0.01039608  1
  Zr  Zr56  1  0.01718607  0.80500104  0.77020074  1
  Zr  Zr57  1  0.89787656  0.50619600  0.35782137  1
  Zr  Zr58  1  0.39980641  0.58731656  0.25150988  1
  Zr  Zr59  1  0.58521689  0.39815167  0.75859404  1
  Zr  Zr60  1  0.69999925  0.30737426  0.63746832  1
  Zr  Zr61  1  0.40694358  -0.02073343  0.24311004  1
  Zr  Zr62  1  0.30398339  0.69236476  0.85958857  1
  Zr  Zr63  1  0.50475774  0.90207883  0.62614029  1
  Zr  Zr64  1  0.19117319  0.00407162  -0.00269870  1
  Zr  Zr65  1  0.40950434  0.58111499  0.73717992  1
  Zr  Zr66  1  0.29704120  0.09805327  0.12312876  1
  Zr  Zr67  1  0.40526396  0.19716066  0.24421964  1
  Zr  Zr68  1  0.61097151  0.19818919  0.25097991  1
  Zr  Zr69  1  0.28904307  0.48615379  0.39427543  1
  Zr  Zr70  1  0.79817491  0.61131724  0.23290508  1
  Zr  Zr71  1  0.61651353  -0.00714285  0.50242792  1
  Zr  Zr72  1  0.58991779  0.41868549  0.50074668  1
  Zr  Zr73  1  0.70145065  0.09987298  0.64648255  1
  Zr  Zr74  1  0.49749552  0.71058928  0.11432125  1
  Zr  Zr75  1  0.40914634  0.78734173  0.73515299  1
  Zr  Zr76  1  0.28506487  0.89470590  0.62972071  1
  Zr  Zr77  1  0.28726984  0.68581612  0.61065181  1
  Zr  Zr78  1  0.18415093  0.39359270  -0.00406771  1
  Zr  Zr79  1  0.60888944  0.20027272  0.49406598  1
  Ta  Ta80  1  0.88740408  0.46053246  0.14415714  1
  Ta  Ta81  1  0.88939834  0.91496677  0.36699099  1
  Ta  Ta82  1  0.91148346  0.72582377  0.36070564  1
  Ta  Ta83  1  0.38835138  0.38213194  0.75644042  1
  Ta  Ta84  1  0.07893886  0.89830962  0.37440221  1
  Ta  Ta85  1  0.81574271  0.21544930  0.24346778  1
  Ta  Ta86  1  0.08883159  0.69911117  0.62564980  1
  Ta  Ta87  1  0.50549007  0.09503399  0.37329223  1
  Ta  Ta88  1  0.90475321  0.89631304  0.63928958  1
  Ta  Ta89  1  0.18324184  -0.00762258  0.24344361  1
  Ta  Ta90  1  0.81276691  0.79161157  0.75975763  1
  Ta  Ta91  1  0.70981622  0.72538960  0.36640058  1
  Ta  Ta92  1  0.80619463  0.20862374  0.75289784  1
  Ta  Ta93  1  0.91094139  0.10890411  0.86565236  1
  Ta  Ta94  1  -0.00204786  0.00270994  -0.00715182  1
  Ta  Ta95  1  0.11325067  0.10951447  0.62444673  1
  Ta  Ta96  1  0.00534991  0.19531843  0.25244676  1
  Ta  Ta97  1  0.60773351  0.60622380  0.76421108  1
  Ta  Ta98  1  0.08446273  0.10163905  0.12223285  1
  Ta  Ta99  1  0.00384600  0.20155922  -0.00855298  1
  Ta  Ta100  1  0.08965714  0.89912998  0.12421899  1
  Ta  Ta101  1  0.68983065  0.51574170  0.63826024  1
  Ta  Ta102  1  0.28736688  0.48734932  0.86340946  1
  Ta  Ta103  1  0.70485179  0.30670349  0.37562151  1
  Ta  Ta104  1  0.70696311  0.89283307  0.64238161  1
  Ta  Ta105  1  0.30349303  0.08835204  0.64026681  1
  Ta  Ta106  1  0.49110523  0.29809257  0.38266402  1
  Ta  Ta107  1  0.48809214  0.90900813  0.86711538  1
  Ta  Ta108  1  0.17525484  0.37789709  0.50726391  1
  Ta  Ta109  1  0.91811330  0.10253588  0.37237456  1
  Ta  Ta110  1  0.90080747  0.29577436  0.37769994  1
  Ta  Ta111  1  0.39640185  0.19048599  0.49624036  1
  Ta  Ta112  1  0.17028186  0.79721801  0.50156480  1
  Ta  Ta113  1  0.49417743  0.49544551  0.11200149  1
  Ta  Ta114  1  0.20390353  0.19301438  0.75938305  1
  Ta  Ta115  1  0.08693707  0.90611394  0.62454724  1
  Ta  Ta116  1  0.60589181  0.81505410  0.23812719  1
  Ta  Ta117  1  0.29883725  0.28955563  0.87480548  1
  Ta  Ta118  1  0.60173794  0.59970936  0.00567509  1
  Ta  Ta119  1  0.69841645  0.30360392  0.87162393  1
  Ti  Ti120  1  0.41723505  0.19353728  0.76436776  1
  Ti  Ti121  1  0.02311484  0.21060181  0.49640356  1
  Ti  Ti122  1  -0.01260929  -0.00563180  0.24264082  1
  Ti  Ti123  1  0.18138849  0.60323550  0.75346849  1
  Ti  Ti124  1  0.01716923  0.20518841  0.75724370  1
  Ti  Ti125  1  0.81080577  -0.00149321  0.75277700  1
  Ti  Ti126  1  0.00883384  0.80816717  -0.01758223  1
  Ti  Ti127  1  0.70362890  0.71200705  0.10937217  1
  Ti  Ti128  1  0.09734415  0.69975825  0.37516807  1
  Ti  Ti129  1  0.90142452  0.10327034  0.12383735  1
  Ti  Ti130  1  0.00430011  0.60247629  0.25452156  1
  Ti  Ti131  1  0.08837666  0.30175990  0.12100464  1
  Ti  Ti132  1  0.72046293  0.70136537  0.63112145  1
  Ti  Ti133  1  0.81245464  0.21853196  -0.00303932  1
  Ti  Ti134  1  0.18132874  0.39775841  0.25423504  1
  Ti  Ti135  1  0.00040248  0.62076156  0.49250250  1
  Ti  Ti136  1  0.58422044  0.01017306  0.75850561  1
  Ti  Ti137  1  0.40301152  0.18871420  -0.00381338  1
  Ti  Ti138  1  0.68872044  0.93214892  0.12285672  1
  Ti  Ti139  1  0.20088330  0.20224846  0.00113371  1
  Ti  Ti140  1  0.61004815  0.20282935  -0.00807578  1
  Ti  Ti141  1  0.89854959  0.51339752  0.85241674  1
  Ti  Ti142  1  0.19072646  0.80132923  0.25568101  1
  Ti  Ti143  1  0.10321749  0.09893506  0.37569504  1
  Ti  Ti144  1  0.49231301  0.49088365  0.37089301  1
  Ti  Ti145  1  0.19197361  0.00255997  0.50252282  1
  Ti  Ti146  1  0.81692469  0.81675814  0.00919462  1
  Ti  Ti147  1  0.70770329  0.12073307  0.12344432  1
  Ti  Ti148  1  0.08376344  0.50198965  0.63481184  1
  Ti  Ti149  1  0.28402711  0.49307769  0.12443834  1
  Ti  Ti150  1  0.90935227  0.70537792  0.63554701  1
  Ti  Ti151  1  0.50340633  0.70529704  0.88721778  1
  Ti  Ti152  1  0.00833963  0.61351207  -0.03204276  1
  Ti  Ti153  1  -0.00253228  0.38400305  0.26088570  1
  Ti  Ti154  1  0.90353310  0.90738595  0.87419017  1
  Ti  Ti155  1  0.09433840  0.30070339  0.87597002  1
  Ti  Ti156  1  0.17486327  -0.00080217  0.75502239  1
  Ti  Ti157  1  0.89293250  0.31250731  0.85946272  1
  Ti  Ti158  1  0.00329724  -0.00219934  0.49921459  1
  Ti  Ti159  1  0.40430702  0.79589201  0.50640338  1
  Mo  Mo160  1  0.39735982  0.79702036  -0.01178038  1
  Mo  Mo161  1  0.39289464  0.38409124  0.50003722  1
  Mo  Mo162  1  0.80472859  0.02082621  0.23422888  1
  Mo  Mo163  1  0.59747102  0.01199929  -0.00844623  1
  Mo  Mo164  1  0.10248891  0.11234128  0.87710328  1
  Mo  Mo165  1  0.09415691  0.29555231  0.62827272  1
  Mo  Mo166  1  0.49545259  0.28621035  0.88777981  1
  Mo  Mo167  1  0.59527014  0.20227647  0.75995479  1
  Mo  Mo168  1  0.09225494  0.50021770  0.86069989  1
  Mo  Mo169  1  0.89956472  0.71088276  0.88710690  1
  Mo  Mo170  1  0.28466065  0.88879614  0.13640537  1
  Mo  Mo171  1  0.59808401  0.39128967  -0.00723204  1
  Mo  Mo172  1  0.49972533  0.89609819  0.12951999  1
  Mo  Mo173  1  0.71115132  0.89848839  0.36417968  1
  Mo  Mo174  1  0.09093539  0.29347866  0.37333021  1
  Mo  Mo175  1  0.62717442  0.79967818  0.50492454  1
  Mo  Mo176  1  0.72136038  0.30154690  0.11689725  1
  Mo  Mo177  1  0.91024246  0.91551255  0.11279358  1
  Mo  Mo178  1  0.61040621  -0.00292915  0.25181674  1
  Mo  Mo179  1  0.79272557  0.38966165  0.25622620  1
  Mo  Mo180  1  0.19484908  0.79535320  0.73296682  1
  Mo  Mo181  1  0.09570051  0.50136395  0.37348521  1
  Mo  Mo182  1  0.19857104  0.18004476  0.50045833  1
  Mo  Mo183  1  0.62333231  0.60104169  0.50035368  1
  Mo  Mo184  1  -0.00247798  0.40306605  0.76394934  1
  Mo  Mo185  1  0.28638697  0.29853958  0.11774044  1
  Mo  Mo186  1  0.79411554  0.40439601  0.75204628  1
  Mo  Mo187  1  0.11085171  0.70737272  0.87266146  1
  Mo  Mo188  1  0.50228354  0.09631676  0.88829208  1
  Mo  Mo189  1  -0.00706780  0.80823597  0.50214932  1
  Mo  Mo190  1  0.91666211  0.28699067  0.12368485  1
  Mo  Mo191  1  0.09895390  0.91317285  0.87586169  1
  Mo  Mo192  1  0.16393990  0.58106629  0.50234441  1
  Mo  Mo193  1  -0.00021381  0.61116548  0.76315545  1
  Mo  Mo194  1  0.79343535  0.61358444  0.75798232  1
  Mo  Mo195  1  0.50471184  0.49529327  0.63358126  1
  Mo  Mo196  1  0.39807364  0.00336096  0.74930829  1
  Mo  Mo197  1  0.80392829  0.38774764  -0.00473295  1
  Mo  Mo198  1  0.00128236  0.00914992  0.75645093  1
  Mo  Mo199  1  0.00848500  0.80868059  0.25065531  1
