# generated using pymatgen
data_HfZrTaTiMo
_symmetry_space_group_name_H-M   'P 1'
_cell_length_a   15.20667090
_cell_length_b   15.21549942
_cell_length_c   16.82849140
_cell_angle_alpha   89.95305411
_cell_angle_beta   89.99313585
_cell_angle_gamma   90.01117231
_symmetry_Int_Tables_number   1
_chemical_formula_structural   HfZrTaTiMo
_chemical_formula_sum   'Hf40 Zr40 Ta40 Ti40 Mo40'
_cell_volume   3893.72599770
_cell_formula_units_Z   40
loop_
 _symmetry_equiv_pos_site_id
 _symmetry_equiv_pos_as_xyz
  1  'x, y, z'
loop_
 _atom_site_type_symbol
 _atom_site_label
 _atom_site_symmetry_multiplicity
 _atom_site_fract_x
 _atom_site_fract_y
 _atom_site_fract_z
 _atom_site_occupancy
  Hf  Hf0  1  0.50058081  0.08961344  0.37466276  1
  Hf  Hf1  1  0.80055261  0.20718682  0.75905764  1
  Hf  Hf2  1  0.29017887  0.30371950  0.64105960  1
  Hf  Hf3  1  0.01111490  0.79303172  0.72692087  1
  Hf  Hf4  1  0.70039429  0.69757113  0.86628217  1
  Hf  Hf5  1  0.90113575  0.11047402  0.62834989  1
  Hf  Hf6  1  0.68556181  0.30386587  0.36350800  1
  Hf  Hf7  1  0.11398364  0.30793714  0.36790300  1
  Hf  Hf8  1  0.28259814  0.49246672  0.37341204  1
  Hf  Hf9  1  0.38377782  0.59028939  0.76459948  1
  Hf  Hf10  1  0.20966203  0.01101840  -0.00046146  1
  Hf  Hf11  1  0.19734095  0.58903777  0.51232101  1
  Hf  Hf12  1  0.40321153  0.80251256  0.25004750  1
  Hf  Hf13  1  0.49331092  0.29231556  0.63945622  1
  Hf  Hf14  1  0.20690375  0.79462825  0.26636381  1
  Hf  Hf15  1  0.69952284  0.30119631  0.62858530  1
  Hf  Hf16  1  0.32481687  0.90128580  0.39464210  1
  Hf  Hf17  1  0.10341273  0.90182923  0.12791873  1
  Hf  Hf18  1  0.59144746  0.80366643  0.50053757  1
  Hf  Hf19  1  0.01892723  0.00523960  0.51139616  1
  Hf  Hf20  1  0.91853875  0.31108288  0.62263172  1
  Hf  Hf21  1  0.89567716  0.30904734  0.36931736  1
  Hf  Hf22  1  0.80951025  0.79728029  0.74756375  1
  Hf  Hf23  1  0.29496267  0.50431323  0.10606274  1
  Hf  Hf24  1  -0.00342409  0.81269709  0.26736948  1
  Hf  Hf25  1  0.50041012  0.70138619  0.86704085  1
  Hf  Hf26  1  0.78784913  -0.00067126  0.50633118  1
  Hf  Hf27  1  0.79442212  0.59031219  0.74420216  1
  Hf  Hf28  1  0.07546025  0.49626928  0.89122186  1
  Hf  Hf29  1  0.79781523  0.60279067  0.25313575  1
  Hf  Hf30  1  0.12087459  0.11074911  0.86090469  1
  Hf  Hf31  1  0.70035601  0.69302310  0.12315298  1
  Hf  Hf32  1  0.39608541  0.19097159  -0.01532004  1
  Hf  Hf33  1  0.49589751  0.70271663  0.64346038  1
  Hf  Hf34  1  0.91585196  0.11467149  0.87202014  1
  Hf  Hf35  1  0.68978482  0.69672247  0.63144464  1
  Hf  Hf36  1  0.90715166  0.09505455  0.37513733  1
  Hf  Hf37  1  0.49573437  0.09961033  0.63622923  1
  Hf  Hf38  1  0.38481909  0.60473001  0.25253680  1
  Hf  Hf39  1  0.39301336  0.61229112  0.49692332  1
  Zr  Zr40  1  0.59018994  0.59081758  0.24320023  1
  Zr  Zr41  1  0.01687096  -0.00183415  0.73349251  1
  Zr  Zr42  1  0.49094832  0.70913374  0.11281995  1
  Zr  Zr43  1  0.69448966  0.10075936  0.36268496  1
  Zr  Zr44  1  0.60051452  0.41415445  0.75530064  1
  Zr  Zr45  1  0.20501765  0.80153202  0.73369529  1
  Zr  Zr46  1  0.81755450  -0.01124975  0.24649777  1
  Zr  Zr47  1  0.01148183  0.80473602  -0.00602079  1
  Zr  Zr48  1  0.59308648  0.39741337  0.50484639  1
  Zr  Zr49  1  0.50598532  0.90436821  0.87014026  1
  Zr  Zr50  1  0.41433759  -0.00476193  0.24197490  1
  Zr  Zr51  1  0.79321749  0.20269689  0.49729011  1
  Zr  Zr52  1  0.70971285  0.89310521  0.12279363  1
  Zr  Zr53  1  0.37784930  0.39392683  0.49876469  1
  Zr  Zr54  1  0.59331728  0.20399457  0.00321442  1
  Zr  Zr55  1  0.88970770  0.52384267  0.10629217  1
  Zr  Zr56  1  0.00038193  0.58732098  0.74053004  1
  Zr  Zr57  1  0.68835059  0.69532840  0.37965212  1
  Zr  Zr58  1  0.31256378  0.89243781  0.10872413  1
  Zr  Zr59  1  0.18867121  0.38246995  -0.00361355  1
  Zr  Zr60  1  0.81284797  -0.00061384  0.00115785  1
  Zr  Zr61  1  -0.01007700  0.40720901  0.23797618  1
  Zr  Zr62  1  0.80051933  0.20576725  0.23622627  1
  Zr  Zr63  1  0.48472925  0.50015117  0.63143876  1
  Zr  Zr64  1  0.80955784  0.79235661  -0.01293320  1
  Zr  Zr65  1  0.09868587  0.69986251  0.12706370  1
  Zr  Zr66  1  0.00083561  0.60840741  0.25782237  1
  Zr  Zr67  1  0.17490190  0.39598765  0.76392556  1
  Zr  Zr68  1  0.50230559  0.90425931  0.63924222  1
  Zr  Zr69  1  0.40006932  0.39103566  0.24927573  1
  Zr  Zr70  1  0.21008409  0.20237417  0.50113354  1
  Zr  Zr71  1  0.89048722  0.50263289  0.38674521  1
  Zr  Zr72  1  0.49290948  0.48435873  0.10209747  1
  Zr  Zr73  1  0.50302533  0.49449636  0.37334370  1
  Zr  Zr74  1  0.80031422  0.00124278  0.74461677  1
  Zr  Zr75  1  0.91444038  0.90143480  0.86426854  1
  Zr  Zr76  1  0.89388571  0.71043446  0.40070858  1
  Zr  Zr77  1  0.01007313  0.20780561  0.49269840  1
  Zr  Zr78  1  0.80849488  0.40344535  0.75529980  1
  Zr  Zr79  1  0.19935992  0.40342452  0.23363530  1
  Ta  Ta80  1  0.91872303  0.09928710  0.12357098  1
  Ta  Ta81  1  0.10459448  0.70105057  0.86613614  1
  Ta  Ta82  1  0.70125362  0.10022375  0.88185204  1
  Ta  Ta83  1  0.30791270  0.10462834  0.12541725  1
  Ta  Ta84  1  0.89772316  0.72569552  0.12958120  1
  Ta  Ta85  1  0.19041166  0.61215502  -0.00838506  1
  Ta  Ta86  1  0.90749937  0.31577354  0.89341529  1
  Ta  Ta87  1  0.40323442  0.19193077  0.50168734  1
  Ta  Ta88  1  0.11651952  0.90505574  0.86938889  1
  Ta  Ta89  1  0.21257357  0.79336758  0.50813822  1
  Ta  Ta90  1  0.78288922  0.40793515  0.22824082  1
  Ta  Ta91  1  0.69775371  0.89921982  0.37635688  1
  Ta  Ta92  1  0.28068846  0.28128045  0.87462124  1
  Ta  Ta93  1  0.01903930  0.79884520  0.51408167  1
  Ta  Ta94  1  0.29291325  0.70158402  0.11268205  1
  Ta  Ta95  1  0.69900546  0.90313408  0.87143615  1
  Ta  Ta96  1  0.30139108  0.89130675  0.88350043  1
  Ta  Ta97  1  0.40453587  0.19840786  0.24237230  1
  Ta  Ta98  1  0.60011045  0.60047568  -0.00246279  1
  Ta  Ta99  1  0.21165067  -0.00275066  0.25385671  1
  Ta  Ta100  1  0.88620652  0.51078084  0.89674080  1
  Ta  Ta101  1  0.39088021  0.60738753  -0.01777858  1
  Ta  Ta102  1  0.70065585  0.30457144  0.88816556  1
  Ta  Ta103  1  0.59605105  0.80732146  0.25252407  1
  Ta  Ta104  1  0.80540099  0.20233809  0.00623368  1
  Ta  Ta105  1  0.89280680  0.49972121  0.60796293  1
  Ta  Ta106  1  0.70384702  0.10144258  0.12275277  1
  Ta  Ta107  1  0.09036500  0.50234542  0.10444845  1
  Ta  Ta108  1  0.09413587  0.47439375  0.61960811  1
  Ta  Ta109  1  0.69594251  0.49861021  0.89194391  1
  Ta  Ta110  1  0.89518695  0.69732518  0.60747426  1
  Ta  Ta111  1  0.68776757  0.10340087  0.63061741  1
  Ta  Ta112  1  0.10041888  0.29026236  0.12675522  1
  Ta  Ta113  1  0.00812650  0.19781305  0.24987546  1
  Ta  Ta114  1  0.89945978  0.89492987  0.61050852  1
  Ta  Ta115  1  0.11388556  0.09621344  0.36599382  1
  Ta  Ta116  1  0.11080674  0.10137356  0.13442358  1
  Ta  Ta117  1  0.21389655  0.19945797  0.24838575  1
  Ta  Ta118  1  0.28702248  0.49820004  0.88487182  1
  Ta  Ta119  1  0.01306084  0.00949238  -0.00074330  1
  Ti  Ti120  1  0.49241450  0.28757660  0.37312424  1
  Ti  Ti121  1  0.69594095  0.49319345  0.37203060  1
  Ti  Ti122  1  0.60421370  -0.00504357  0.23703222  1
  Ti  Ti123  1  0.19282312  0.59975960  0.24954895  1
  Ti  Ti124  1  0.78259044  0.40005604  0.01733789  1
  Ti  Ti125  1  0.79921474  0.80222516  0.25946780  1
  Ti  Ti126  1  0.90226305  0.30085705  0.11693437  1
  Ti  Ti127  1  0.21388403  0.00536157  0.50530031  1
  Ti  Ti128  1  0.59126668  0.00255248  0.50349622  1
  Ti  Ti129  1  0.38857376  0.00108534  0.76203230  1
  Ti  Ti130  1  0.30841194  0.29794403  0.10955777  1
  Ti  Ti131  1  0.30402127  0.09639155  0.63427325  1
  Ti  Ti132  1  0.00295117  0.59738691  0.50847700  1
  Ti  Ti133  1  0.39085236  0.39111735  0.77251648  1
  Ti  Ti134  1  0.59767647  0.38597699  0.22333454  1
  Ti  Ti135  1  0.10815436  0.69589662  0.38725511  1
  Ti  Ti136  1  0.01547877  0.20321230  0.00320118  1
  Ti  Ti137  1  0.79195260  0.40140390  0.50120930  1
  Ti  Ti138  1  0.01312314  0.00075500  0.25495212  1
  Ti  Ti139  1  0.30037934  0.68872502  0.63191858  1
  Ti  Ti140  1  0.59638606  0.19660448  0.50129390  1
  Ti  Ti141  1  0.59691983  0.80658639  -0.00231012  1
  Ti  Ti142  1  0.60430077  0.00864710  0.75727258  1
  Ti  Ti143  1  0.48476577  0.71542429  0.37963854  1
  Ti  Ti144  1  0.39721868  0.19146860  0.77286081  1
  Ti  Ti145  1  0.60368585  0.00457556  0.00317956  1
  Ti  Ti146  1  0.30642153  0.10371133  0.37313727  1
  Ti  Ti147  1  0.11171928  0.90364811  0.38855501  1
  Ti  Ti148  1  0.59106187  0.59531431  0.50181799  1
  Ti  Ti149  1  0.08980884  0.49732326  0.38456027  1
  Ti  Ti150  1  0.39355591  0.80284464  0.75561900  1
  Ti  Ti151  1  0.11387726  0.11644921  0.64056088  1
  Ti  Ti152  1  0.41715152  -0.00145383  -0.00292068  1
  Ti  Ti153  1  0.58927916  0.19661682  0.22702434  1
  Ti  Ti154  1  0.77972986  0.59596807  0.50671616  1
  Ti  Ti155  1  0.49796295  0.49150342  0.88682803  1
  Ti  Ti156  1  0.31251392  0.90380616  0.61574480  1
  Ti  Ti157  1  0.90293833  0.89912607  0.40135031  1
  Ti  Ti158  1  0.59668156  0.20365607  0.77036351  1
  Ti  Ti159  1  0.69643353  0.89936517  0.62996505  1
  Mo  Mo160  1  0.50873794  0.09639920  0.86817286  1
  Mo  Mo161  1  -0.01279407  0.39449961  0.01605539  1
  Mo  Mo162  1  0.10421163  0.68954535  0.61722405  1
  Mo  Mo163  1  0.20947064  0.19574753  0.74668606  1
  Mo  Mo164  1  0.19416377  0.59469821  0.74278371  1
  Mo  Mo165  1  0.91618401  0.90532349  0.12976266  1
  Mo  Mo166  1  0.19873019  0.19117422  0.00848561  1
  Mo  Mo167  1  0.59315647  0.39603091  -0.00360713  1
  Mo  Mo168  1  0.69566249  0.29926099  0.11840864  1
  Mo  Mo169  1  0.30662418  0.08394753  0.87236045  1
  Mo  Mo170  1  0.91518042  0.68803699  0.86900344  1
  Mo  Mo171  1  0.40318545  0.79715079  -0.01018857  1
  Mo  Mo172  1  0.19295485  0.39566744  0.50290173  1
  Mo  Mo173  1  0.21549941  -0.00398256  0.73981509  1
  Mo  Mo174  1  0.40141665  0.01034722  0.50584528  1
  Mo  Mo175  1  0.11809454  0.90782882  0.60907502  1
  Mo  Mo176  1  0.48599088  0.28799769  0.12066031  1
  Mo  Mo177  1  0.60925477  0.80664319  0.75173751  1
  Mo  Mo178  1  0.50200979  0.09260115  0.12235413  1
  Mo  Mo179  1  0.79505055  0.80410267  0.51007114  1
  Mo  Mo180  1  0.09797469  0.29524629  0.62718445  1
  Mo  Mo181  1  0.29066086  0.70153235  0.87296540  1
  Mo  Mo182  1  0.39888748  0.79971215  0.50945364  1
  Mo  Mo183  1  0.68996048  0.49987170  0.11216995  1
  Mo  Mo184  1  0.39464382  0.39181015  -0.02372939  1
  Mo  Mo185  1  0.51612533  0.89980437  0.37744159  1
  Mo  Mo186  1  0.00320899  0.40703045  0.49254715  1
  Mo  Mo187  1  0.51429635  0.90139387  0.11140412  1
  Mo  Mo188  1  0.01083945  0.22414380  0.75314697  1
  Mo  Mo189  1  -0.00901433  0.61605248  -0.00518404  1
  Mo  Mo190  1  0.29224103  0.69946234  0.37873685  1
  Mo  Mo191  1  -0.01451446  0.40175095  0.75702501  1
  Mo  Mo192  1  0.79219845  0.60987696  -0.00323708  1
  Mo  Mo193  1  0.30753558  0.28692666  0.37071660  1
  Mo  Mo194  1  0.59576944  0.59391874  0.76109480  1
  Mo  Mo195  1  0.49592434  0.30232322  0.86702983  1
  Mo  Mo196  1  0.08412573  0.28968825  0.88118373  1
  Mo  Mo197  1  0.20500456  0.79963792  -0.01087144  1
  Mo  Mo198  1  0.69845629  0.50221484  0.61646225  1
  Mo  Mo199  1  0.28702152  0.50077730  0.64039137  1
