# generated using pymatgen
data_HfZrTaTiMo
_symmetry_space_group_name_H-M   'P 1'
_cell_length_a   15.19315941
_cell_length_b   15.20455430
_cell_length_c   16.82151844
_cell_angle_alpha   89.94404882
_cell_angle_beta   90.03414745
_cell_angle_gamma   89.95505313
_symmetry_Int_Tables_number   1
_chemical_formula_structural   HfZrTaTiMo
_chemical_formula_sum   'Hf40 Zr40 Ta40 Ti40 Mo40'
_cell_volume   3885.85478025
_cell_formula_units_Z   40
loop_
 _symmetry_equiv_pos_site_id
 _symmetry_equiv_pos_as_xyz
  1  'x, y, z'
loop_
 _atom_site_type_symbol
 _atom_site_label
 _atom_site_symmetry_multiplicity
 _atom_site_fract_x
 _atom_site_fract_y
 _atom_site_fract_z
 _atom_site_occupancy
  Hf  Hf0  1  0.12762160  0.48688814  0.12570349  1
  Hf  Hf1  1  0.79337334  0.80377486  0.77570067  1
  Hf  Hf2  1  -0.01386370  0.79820803  0.50272742  1
  Hf  Hf3  1  0.49992078  0.48939204  0.11547531  1
  Hf  Hf4  1  0.02217601  0.00220809  0.51537245  1
  Hf  Hf5  1  0.80746614  0.60286915  0.25089209  1
  Hf  Hf6  1  0.40402383  0.60888130  0.26098477  1
  Hf  Hf7  1  0.81345821  0.59893198  0.49391048  1
  Hf  Hf8  1  0.29062566  0.89840150  0.38844174  1
  Hf  Hf9  1  0.18443700  0.39585591  0.51793568  1
  Hf  Hf10  1  0.31141190  0.09150487  0.13307615  1
  Hf  Hf11  1  0.08729173  0.07489535  0.13672670  1
  Hf  Hf12  1  0.01008536  0.59491920  0.50107462  1
  Hf  Hf13  1  0.58588600  0.19198348  0.49301530  1
  Hf  Hf14  1  0.01214353  0.60800678  0.23924022  1
  Hf  Hf15  1  0.80602115  0.38971856  0.77095010  1
  Hf  Hf16  1  0.30169020  0.69562434  0.12784166  1
  Hf  Hf17  1  0.39213962  0.40917030  0.25734221  1
  Hf  Hf18  1  0.50368117  0.49813788  0.38655743  1
  Hf  Hf19  1  0.09005010  0.89816180  0.37434117  1
  Hf  Hf20  1  0.21195344  0.58480441  -0.00125646  1
  Hf  Hf21  1  0.30913429  0.50400709  0.85447596  1
  Hf  Hf22  1  0.59510549  0.80638948  0.76521371  1
  Hf  Hf23  1  0.70911627  0.50323733  0.10745911  1
  Hf  Hf24  1  0.39947077  0.39760617  0.51076272  1
  Hf  Hf25  1  0.79464736  0.40930388  0.24370969  1
  Hf  Hf26  1  0.31001477  0.88930525  0.87407270  1
  Hf  Hf27  1  0.40398644  0.39501614  0.73705694  1
  Hf  Hf28  1  0.81007592  -0.00903325  0.49044776  1
  Hf  Hf29  1  0.51470188  0.50258065  0.62273066  1
  Hf  Hf30  1  0.29468907  0.69725026  0.39407946  1
  Hf  Hf31  1  0.18888659  0.19923932  0.73879214  1
  Hf  Hf32  1  -0.00867328  0.18361097  0.01730387  1
  Hf  Hf33  1  0.28973035  0.30401217  0.86799931  1
  Hf  Hf34  1  0.40391459  0.01121209  0.49560764  1
  Hf  Hf35  1  0.91292631  0.50819854  0.64023692  1
  Hf  Hf36  1  0.10332590  0.90287566  0.86797601  1
  Hf  Hf37  1  0.79418712  0.79818273  -0.01662084  1
  Hf  Hf38  1  0.19792861  -0.00529954  0.00310706  1
  Hf  Hf39  1  0.60843693  0.39347419  0.75808632  1
  Zr  Zr40  1  0.40530600  0.61310918  -0.01099169  1
  Zr  Zr41  1  0.89004583  0.70912181  0.11921005  1
  Zr  Zr42  1  0.60001019  0.79427181  0.25860266  1
  Zr  Zr43  1  0.71445817  0.49782185  0.62668050  1
  Zr  Zr44  1  0.10371775  0.68898394  0.86142355  1
  Zr  Zr45  1  0.69135034  0.30218666  0.37464402  1
  Zr  Zr46  1  0.91712385  0.10194608  0.37284751  1
  Zr  Zr47  1  0.60622442  0.61489179  -0.01516221  1
  Zr  Zr48  1  0.60982470  0.59081178  0.25338821  1
  Zr  Zr49  1  0.89849604  0.89410049  0.63015859  1
  Zr  Zr50  1  0.19912418  0.20567464  0.23989526  1
  Zr  Zr51  1  0.01172926  0.38873506  0.00903239  1
  Zr  Zr52  1  0.91267187  0.10400219  0.87219121  1
  Zr  Zr53  1  0.19227808  0.78036632  0.24882311  1
  Zr  Zr54  1  0.00762243  0.60552957  0.01315647  1
  Zr  Zr55  1  0.50440800  0.90966712  0.61934517  1
  Zr  Zr56  1  0.19054123  0.20829790  0.01052280  1
  Zr  Zr57  1  0.58857498  -0.00113606  0.26476188  1
  Zr  Zr58  1  0.29423687  0.10005843  0.36834749  1
  Zr  Zr59  1  0.79345978  0.80833943  0.24851676  1
  Zr  Zr60  1  -0.00423026  0.40508773  0.23998353  1
  Zr  Zr61  1  0.39460987  0.79777135  0.73206487  1
  Zr  Zr62  1  0.09763458  0.28987777  0.37748226  1
  Zr  Zr63  1  0.79699271  0.19850128  0.49441982  1
  Zr  Zr64  1  0.79262876  0.60672513  0.77519900  1
  Zr  Zr65  1  0.70094748  0.09144613  0.12444725  1
  Zr  Zr66  1  0.50420292  0.09732839  0.87474083  1
  Zr  Zr67  1  0.91822013  0.49928941  0.87608099  1
  Zr  Zr68  1  0.39871117  0.20772548  0.00527712  1
  Zr  Zr69  1  0.69920592  0.89210178  0.61596616  1
  Zr  Zr70  1  0.29983259  0.09752470  0.86528818  1
  Zr  Zr71  1  0.42075485  0.20707280  0.25505862  1
  Zr  Zr72  1  0.50955174  0.71026871  0.12412843  1
  Zr  Zr73  1  0.79599893  0.20389719  0.75186018  1
  Zr  Zr74  1  0.89550858  0.31409681  0.61245314  1
  Zr  Zr75  1  0.58508256  0.60807234  0.76834115  1
  Zr  Zr76  1  0.79531278  0.20524402  0.24685710  1
  Zr  Zr77  1  0.79771641  0.00227512  0.75623581  1
  Zr  Zr78  1  0.11634501  0.48300036  0.86446569  1
  Zr  Zr79  1  0.49594463  0.91219171  0.12502877  1
  Ta  Ta80  1  0.39875069  0.60350264  0.51417226  1
  Ta  Ta81  1  0.90485879  0.92031638  0.11876705  1
  Ta  Ta82  1  0.69318383  0.29506086  0.61986803  1
  Ta  Ta83  1  0.20677493  0.60024044  0.72366712  1
  Ta  Ta84  1  0.40888829  -0.00580866  -0.00251581  1
  Ta  Ta85  1  0.20232672  -0.01903987  0.24479120  1
  Ta  Ta86  1  0.30780041  0.09885311  0.62935675  1
  Ta  Ta87  1  -0.00981562  0.80023036  0.76217092  1
  Ta  Ta88  1  0.19916202  0.39893185  0.72264041  1
  Ta  Ta89  1  0.90660134  0.70824994  0.36969500  1
  Ta  Ta90  1  0.79657100  0.20633311  0.00103376  1
  Ta  Ta91  1  0.00950124  0.00433295  0.73807000  1
  Ta  Ta92  1  0.28982567  0.50232845  0.39298369  1
  Ta  Ta93  1  0.08184223  0.70021490  0.63737406  1
  Ta  Ta94  1  0.89976031  0.10282333  0.62288708  1
  Ta  Ta95  1  0.69887766  0.09515087  0.36601605  1
  Ta  Ta96  1  -0.00800873  0.20161717  0.23603245  1
  Ta  Ta97  1  0.69885304  0.10953678  0.88700256  1
  Ta  Ta98  1  0.29824338  0.30506335  0.38512203  1
  Ta  Ta99  1  -0.00218502  0.80995624  -0.01091669  1
  Ta  Ta100  1  0.59947943  0.19855558  0.75100177  1
  Ta  Ta101  1  0.60112724  -0.00252705  0.48220362  1
  Ta  Ta102  1  0.90161844  0.32030556  0.38388902  1
  Ta  Ta103  1  0.60595732  0.39534112  0.50210600  1
  Ta  Ta104  1  0.29734479  0.32514839  0.12361896  1
  Ta  Ta105  1  -0.00666051  0.81054327  0.24721919  1
  Ta  Ta106  1  0.88614400  0.30657122  0.11889073  1
  Ta  Ta107  1  0.39766619  0.81516344  0.26409240  1
  Ta  Ta108  1  0.29996756  0.89311187  0.12267437  1
  Ta  Ta109  1  0.69300122  0.09604214  0.62007475  1
  Ta  Ta110  1  0.69855755  0.70005526  0.62113957  1
  Ta  Ta111  1  0.19813577  0.78757364  0.00140343  1
  Ta  Ta112  1  0.68694955  0.92145118  0.89329908  1
  Ta  Ta113  1  0.39673294  0.20222964  0.49448267  1
  Ta  Ta114  1  0.88654189  0.70034644  0.63571467  1
  Ta  Ta115  1  0.50128124  0.70783831  0.39257776  1
  Ta  Ta116  1  0.09776682  0.49797294  0.37611040  1
  Ta  Ta117  1  0.58856871  0.38353764  0.24952901  1
  Ta  Ta118  1  0.01008866  0.20459955  0.51041451  1
  Ta  Ta119  1  0.69786665  0.89039740  0.10785680  1
  Ti  Ti120  1  0.59806083  0.20980236  0.00020758  1
  Ti  Ti121  1  0.67939055  0.30489046  0.11904727  1
  Ti  Ti122  1  0.30348604  0.28636236  0.62415585  1
  Ti  Ti123  1  0.60393323  0.00396026  0.75242146  1
  Ti  Ti124  1  0.20049293  0.39976743  0.26126540  1
  Ti  Ti125  1  0.39517925  0.60929931  0.72494567  1
  Ti  Ti126  1  0.49839953  0.49190741  0.87948356  1
  Ti  Ti127  1  0.09652938  0.88172780  0.12150497  1
  Ti  Ti128  1  0.20970636  0.58688486  0.25415564  1
  Ti  Ti129  1  0.18345300  0.80126605  0.51737145  1
  Ti  Ti130  1  0.49853367  0.29959591  0.87334288  1
  Ti  Ti131  1  0.20078917  0.59731054  0.52539128  1
  Ti  Ti132  1  -0.00367485  0.20104613  0.73590011  1
  Ti  Ti133  1  0.70327111  0.88886770  0.38511329  1
  Ti  Ti134  1  0.50251464  0.28873092  0.62767152  1
  Ti  Ti135  1  0.69474751  0.49027889  0.88879916  1
  Ti  Ti136  1  0.79971394  0.39169040  -0.01126876  1
  Ti  Ti137  1  0.81471027  0.00627036  -0.00304470  1
  Ti  Ti138  1  0.60713759  0.60066384  0.49857185  1
  Ti  Ti139  1  0.19927225  0.79882907  0.73334715  1
  Ti  Ti140  1  0.08410032  0.28699904  0.87311901  1
  Ti  Ti141  1  0.70318798  0.69848968  0.38639300  1
  Ti  Ti142  1  0.19873239  0.18286265  0.51138463  1
  Ti  Ti143  1  0.39301206  0.40389148  -0.00222926  1
  Ti  Ti144  1  0.50849468  0.11009494  0.12319772  1
  Ti  Ti145  1  0.20202654  -0.00574382  0.73775663  1
  Ti  Ti146  1  0.00901677  0.38695970  0.74866817  1
  Ti  Ti147  1  0.57553018  0.81426701  -0.01789733  1
  Ti  Ti148  1  0.71335809  0.49453651  0.38292897  1
  Ti  Ti149  1  0.10576717  0.09228060  0.36735242  1
  Ti  Ti150  1  0.40425004  0.00068636  0.74716910  1
  Ti  Ti151  1  0.10319520  0.69388142  0.38038994  1
  Ti  Ti152  1  0.50074748  0.10471574  0.63263108  1
  Ti  Ti153  1  0.10337961  0.09818059  0.87180981  1
  Ti  Ti154  1  0.81128223  -0.00451402  0.25474639  1
  Ti  Ti155  1  0.80668906  0.60218334  -0.01418468  1
  Ti  Ti156  1  0.29872159  0.69867899  0.86439088  1
  Ti  Ti157  1  0.29078594  0.90680936  0.61200304  1
  Ti  Ti158  1  0.51169174  0.70702868  0.61141627  1
  Ti  Ti159  1  0.40238293  0.80331987  0.50643560  1
  Mo  Mo160  1  0.10003045  0.29356727  0.13448017  1
  Mo  Mo161  1  0.89245436  0.09801363  0.12936267  1
  Mo  Mo162  1  0.20144989  -0.00082183  0.50903312  1
  Mo  Mo163  1  0.69196631  0.29611049  0.88636758  1
  Mo  Mo164  1  0.49457078  0.89640370  0.38572566  1
  Mo  Mo165  1  0.89862015  0.89869242  0.37434579  1
  Mo  Mo166  1  0.00263305  0.60390684  0.75085568  1
  Mo  Mo167  1  0.60335189  0.00932130  0.00554077  1
  Mo  Mo168  1  0.69162980  0.70906518  0.88132828  1
  Mo  Mo169  1  0.47553902  0.71527910  0.86961361  1
  Mo  Mo170  1  0.10288553  0.89252948  0.63961343  1
  Mo  Mo171  1  0.79851445  0.40768301  0.49625698  1
  Mo  Mo172  1  0.09433527  0.49851690  0.63404582  1
  Mo  Mo173  1  0.39253432  -0.00636431  0.25591984  1
  Mo  Mo174  1  -0.00019136  -0.00566454  0.25244280  1
  Mo  Mo175  1  0.49593894  0.91170079  0.87298943  1
  Mo  Mo176  1  0.79705048  0.78872076  0.49413073  1
  Mo  Mo177  1  0.40488147  0.19830032  0.74541741  1
  Mo  Mo178  1  0.29398927  0.70958290  0.60742360  1
  Mo  Mo179  1  0.49234299  0.30459442  0.38158786  1
  Mo  Mo180  1  0.10308959  0.70373181  0.11870402  1
  Mo  Mo181  1  0.38810905  0.80602853  -0.00249763  1
  Mo  Mo182  1  0.30501991  0.49976252  0.62340115  1
  Mo  Mo183  1  0.90711540  0.50536256  0.37208054  1
  Mo  Mo184  1  0.60030449  0.20268174  0.24800001  1
  Mo  Mo185  1  0.69685816  0.70918024  0.11299552  1
  Mo  Mo186  1  0.00339808  -0.00790804  -0.00417688  1
  Mo  Mo187  1  0.09312569  0.29505929  0.62042927  1
  Mo  Mo188  1  0.90697504  0.29511795  0.88247814  1
  Mo  Mo189  1  0.60035124  0.79576598  0.49396446  1
  Mo  Mo190  1  0.21168422  0.39123476  -0.00555674  1
  Mo  Mo191  1  0.50192319  0.10252478  0.37369952  1
  Mo  Mo192  1  0.49885864  0.30162769  0.11884641  1
  Mo  Mo193  1  -0.00566267  0.40735118  0.49363397  1
  Mo  Mo194  1  0.89281620  0.49605298  0.10935849  1
  Mo  Mo195  1  0.10585121  0.09936875  0.62923325  1
  Mo  Mo196  1  0.31066066  0.50171877  0.12864245  1
  Mo  Mo197  1  0.59462504  0.39496425  -0.01068298  1
  Mo  Mo198  1  0.90771659  0.70423645  0.88105057  1
  Mo  Mo199  1  0.90533335  0.91030265  0.87821155  1
