# generated using pymatgen
data_HfZrTaTiMo
_symmetry_space_group_name_H-M   'P 1'
_cell_length_a   15.21027259
_cell_length_b   15.21406876
_cell_length_c   16.85568688
_cell_angle_alpha   89.98491897
_cell_angle_beta   89.93125063
_cell_angle_gamma   89.99247601
_symmetry_Int_Tables_number   1
_chemical_formula_structural   HfZrTaTiMo
_chemical_formula_sum   'Hf40 Zr40 Ta40 Ti40 Mo40'
_cell_volume   3900.57376557
_cell_formula_units_Z   40
loop_
 _symmetry_equiv_pos_site_id
 _symmetry_equiv_pos_as_xyz
  1  'x, y, z'
loop_
 _atom_site_type_symbol
 _atom_site_label
 _atom_site_symmetry_multiplicity
 _atom_site_fract_x
 _atom_site_fract_y
 _atom_site_fract_z
 _atom_site_occupancy
  Hf  Hf0  1  0.09545651  0.31144281  0.62715877  1
  Hf  Hf1  1  0.39519933  0.78069112  0.23946556  1
  Hf  Hf2  1  0.61568301  0.78607722  0.01095664  1
  Hf  Hf3  1  0.19437729  0.41039479  0.24432217  1
  Hf  Hf4  1  0.71001487  0.90044346  0.37690027  1
  Hf  Hf5  1  0.18510603  0.58999390  0.50743873  1
  Hf  Hf6  1  0.51525718  0.90793981  0.14343485  1
  Hf  Hf7  1  0.69954770  0.48710744  0.62094094  1
  Hf  Hf8  1  0.18384523  0.80649864  0.51076585  1
  Hf  Hf9  1  0.49494917  0.09319592  0.36859448  1
  Hf  Hf10  1  0.28720411  0.48039761  0.38258447  1
  Hf  Hf11  1  0.59292161  0.78252582  0.75639915  1
  Hf  Hf12  1  0.19243812  0.61231454  0.74516815  1
  Hf  Hf13  1  0.39862315  0.39625634  -0.01074528  1
  Hf  Hf14  1  0.70584746  0.29621044  0.39235804  1
  Hf  Hf15  1  -0.01130346  0.39882477  -0.00434840  1
  Hf  Hf16  1  0.52672249  0.28863926  0.88559074  1
  Hf  Hf17  1  0.20007889  0.01199929  0.50642620  1
  Hf  Hf18  1  0.20839705  0.41406258  0.75830743  1
  Hf  Hf19  1  0.69757157  0.09601434  0.36593889  1
  Hf  Hf20  1  0.60366773  0.58411738  -0.00649993  1
  Hf  Hf21  1  0.61001397  0.19864075  0.73453695  1
  Hf  Hf22  1  0.20748892  0.21372541  0.75178520  1
  Hf  Hf23  1  0.70637457  0.08303893  0.13362034  1
  Hf  Hf24  1  0.89280767  0.91507110  0.12177616  1
  Hf  Hf25  1  0.31203477  0.90937468  0.62573823  1
  Hf  Hf26  1  0.49721163  0.08963613  0.86153250  1
  Hf  Hf27  1  0.09634202  0.11806036  0.36902086  1
  Hf  Hf28  1  0.90717546  0.29991771  0.38603363  1
  Hf  Hf29  1  0.80978713  0.80422177  0.24960766  1
  Hf  Hf30  1  0.69348929  0.29793975  0.12510543  1
  Hf  Hf31  1  0.08903527  0.30440399  0.87011992  1
  Hf  Hf32  1  0.69926578  0.11656972  0.87618147  1
  Hf  Hf33  1  0.61909183  0.78495709  0.23945463  1
  Hf  Hf34  1  0.09797431  0.09969122  0.86944326  1
  Hf  Hf35  1  0.10789102  0.32090793  0.38629314  1
  Hf  Hf36  1  -0.00284375  0.00624389  -0.00641757  1
  Hf  Hf37  1  0.08397134  0.90661798  0.36376567  1
  Hf  Hf38  1  0.11336721  0.69995113  0.89275294  1
  Hf  Hf39  1  0.30012690  0.92169376  0.13431236  1
  Zr  Zr40  1  0.19059009  -0.00061769  0.74351213  1
  Zr  Zr41  1  0.50521350  0.90128840  0.35697173  1
  Zr  Zr42  1  0.79856402  0.40267619  0.25376053  1
  Zr  Zr43  1  0.40009215  0.60711422  0.75602667  1
  Zr  Zr44  1  0.40167229  0.60510744  -0.00435446  1
  Zr  Zr45  1  0.49007604  0.10480399  0.13181671  1
  Zr  Zr46  1  0.71785863  0.69016028  0.61833282  1
  Zr  Zr47  1  0.31167768  0.31608245  0.61870427  1
  Zr  Zr48  1  0.49409428  0.08353670  0.63646803  1
  Zr  Zr49  1  0.70710472  0.89430158  0.87337391  1
  Zr  Zr50  1  0.40904185  0.79905651  0.01869501  1
  Zr  Zr51  1  0.00263913  -0.00629978  0.50953128  1
  Zr  Zr52  1  0.79049529  0.40040233  0.00302118  1
  Zr  Zr53  1  0.39382083  0.37864856  0.25004627  1
  Zr  Zr54  1  0.88754186  0.50121122  0.86142204  1
  Zr  Zr55  1  0.00881795  0.79771372  0.75781456  1
  Zr  Zr56  1  0.10476013  0.69760175  0.37037322  1
  Zr  Zr57  1  0.89734865  0.69613384  0.11702049  1
  Zr  Zr58  1  0.30740612  0.69852787  0.61661474  1
  Zr  Zr59  1  0.90503607  0.88779742  0.62824808  1
  Zr  Zr60  1  0.50561484  0.69551992  0.37449704  1
  Zr  Zr61  1  0.09997519  0.30338529  0.11776376  1
  Zr  Zr62  1  0.29817578  0.90583387  0.36855292  1
  Zr  Zr63  1  0.59296216  0.20765862  0.25393959  1
  Zr  Zr64  1  0.89767243  0.09476996  0.37892665  1
  Zr  Zr65  1  0.89371049  0.51752205  0.63873929  1
  Zr  Zr66  1  0.50303425  0.49442411  0.86353756  1
  Zr  Zr67  1  0.89936866  0.70852464  0.88796200  1
  Zr  Zr68  1  0.39252752  0.00159091  -0.00162924  1
  Zr  Zr69  1  0.51115620  0.69678248  0.61357540  1
  Zr  Zr70  1  0.69221222  0.89320950  0.62607723  1
  Zr  Zr71  1  0.09383170  0.10456884  0.13123597  1
  Zr  Zr72  1  0.59862627  -0.00241277  -0.00285378  1
  Zr  Zr73  1  0.20388027  0.80396618  0.74188000  1
  Zr  Zr74  1  0.40329661  0.58572501  0.49215105  1
  Zr  Zr75  1  0.79193407  0.00788603  0.51372349  1
  Zr  Zr76  1  0.29821815  0.50787910  0.11906728  1
  Zr  Zr77  1  0.19691256  0.79781689  0.23769292  1
  Zr  Zr78  1  0.48395519  0.48508810  0.63368710  1
  Zr  Zr79  1  0.59090322  0.40509682  0.27129233  1
  Ta  Ta80  1  0.09561898  0.50655944  0.11692293  1
  Ta  Ta81  1  0.79815240  0.00927941  0.74482197  1
  Ta  Ta82  1  0.60253386  0.18182413  0.50765757  1
  Ta  Ta83  1  0.80455633  -0.00085800  -0.00873431  1
  Ta  Ta84  1  0.58990150  -0.00943107  0.50385547  1
  Ta  Ta85  1  0.51180400  0.67047353  0.13675434  1
  Ta  Ta86  1  0.00188247  0.42695983  0.50191600  1
  Ta  Ta87  1  0.71359099  0.69394733  0.38179468  1
  Ta  Ta88  1  0.20310322  0.20270374  -0.01152727  1
  Ta  Ta89  1  0.20418376  0.21470526  0.25123792  1
  Ta  Ta90  1  0.39569759  0.19598436  -0.00796010  1
  Ta  Ta91  1  0.30706867  0.11173234  0.63561665  1
  Ta  Ta92  1  0.40630286  0.80915384  0.49273973  1
  Ta  Ta93  1  0.89433248  0.10627353  0.86531921  1
  Ta  Ta94  1  0.89100443  0.31514237  0.61013014  1
  Ta  Ta95  1  0.82252651  0.79332906  0.49146853  1
  Ta  Ta96  1  0.08963377  0.50955959  0.63781569  1
  Ta  Ta97  1  0.70398534  0.68425571  0.87167047  1
  Ta  Ta98  1  0.00733521  0.59683914  0.24201178  1
  Ta  Ta99  1  0.00187621  0.20412914  0.51210478  1
  Ta  Ta100  1  -0.00171819  0.40254170  0.24875317  1
  Ta  Ta101  1  0.00284237  0.79982013  0.23405423  1
  Ta  Ta102  1  0.47907856  0.28899024  0.39893993  1
  Ta  Ta103  1  0.50239722  0.29006762  0.61037997  1
  Ta  Ta104  1  0.29606704  0.90521991  0.87563948  1
  Ta  Ta105  1  0.19552512  0.40900275  -0.01269569  1
  Ta  Ta106  1  0.69259005  0.51075818  0.13136825  1
  Ta  Ta107  1  -0.00872055  0.00119045  0.74934813  1
  Ta  Ta108  1  0.31335687  0.71761397  0.87762235  1
  Ta  Ta109  1  -0.01150996  0.20064796  -0.00643788  1
  Ta  Ta110  1  0.50519364  0.48431815  0.12500853  1
  Ta  Ta111  1  0.91105619  0.70331339  0.36520299  1
  Ta  Ta112  1  0.00176856  0.59416416  0.00283586  1
  Ta  Ta113  1  0.40393255  0.58075394  0.25853746  1
  Ta  Ta114  1  0.30078973  0.11440528  0.37842365  1
  Ta  Ta115  1  0.00420775  0.80746921  0.00659940  1
  Ta  Ta116  1  0.59163057  0.40171547  0.49196976  1
  Ta  Ta117  1  0.20369173  0.20694227  0.50780026  1
  Ta  Ta118  1  0.80380951  0.79572817  0.75416411  1
  Ta  Ta119  1  0.30369963  0.10538713  0.86132986  1
  Ti  Ti120  1  0.09577067  0.10421602  0.63101376  1
  Ti  Ti121  1  0.80208087  0.21682373  0.74280788  1
  Ti  Ti122  1  0.50125885  0.29609508  0.10784437  1
  Ti  Ti123  1  0.30171221  0.69814079  0.38174767  1
  Ti  Ti124  1  0.70665848  0.29310558  0.60262258  1
  Ti  Ti125  1  0.89231141  0.11388863  0.62693578  1
  Ti  Ti126  1  0.20395559  0.01863398  0.25015794  1
  Ti  Ti127  1  0.90340467  0.29046307  0.13054456  1
  Ti  Ti128  1  0.48744539  0.88136941  0.87028959  1
  Ti  Ti129  1  0.79544706  0.60193477  0.00413330  1
  Ti  Ti130  1  0.60567124  0.79865602  0.49453596  1
  Ti  Ti131  1  0.28916473  0.51513910  0.88255199  1
  Ti  Ti132  1  -0.01897943  0.01002492  0.24588221  1
  Ti  Ti133  1  0.40080056  0.00444346  0.49837198  1
  Ti  Ti134  1  0.30032380  0.29307834  0.11254223  1
  Ti  Ti135  1  0.60676743  0.58980958  0.26498941  1
  Ti  Ti136  1  0.08979107  0.50967512  0.86927021  1
  Ti  Ti137  1  0.20017653  0.00914576  0.00110512  1
  Ti  Ti138  1  0.69743585  0.48129291  0.86406498  1
  Ti  Ti139  1  0.60841518  0.58883112  0.48636144  1
  Ti  Ti140  1  0.80917562  0.59176600  0.49009133  1
  Ti  Ti141  1  0.09845134  0.90672677  0.12528299  1
  Ti  Ti142  1  0.38531143  0.19325977  0.24678152  1
  Ti  Ti143  1  0.49608110  0.88889639  0.63030110  1
  Ti  Ti144  1  0.10019336  0.89853745  0.88468681  1
  Ti  Ti145  1  0.90628720  0.50625969  0.37213180  1
  Ti  Ti146  1  0.61052712  0.38483816  0.74215928  1
  Ti  Ti147  1  0.60278926  -0.01124009  0.75128053  1
  Ti  Ti148  1  -0.00959932  0.20269822  0.74346908  1
  Ti  Ti149  1  0.60788991  0.59025136  0.75068919  1
  Ti  Ti150  1  0.81849975  0.19152993  0.24517740  1
  Ti  Ti151  1  0.20906420  0.80676972  0.01096322  1
  Ti  Ti152  1  0.80146726  0.19823846  0.00209726  1
  Ti  Ti153  1  -0.01560579  0.39581211  0.75123782  1
  Ti  Ti154  1  0.40136909  0.37376719  0.76556985  1
  Ti  Ti155  1  0.79904512  0.59982778  0.25386464  1
  Ti  Ti156  1  0.89694804  0.49775518  0.12880075  1
  Ti  Ti157  1  -0.00767215  0.62205663  0.50439438  1
  Ti  Ti158  1  0.20762145  0.60491216  0.24881559  1
  Ti  Ti159  1  0.11267617  0.69396988  0.11313886  1
  Mo  Mo160  1  0.80381152  0.20068813  0.50783711  1
  Mo  Mo161  1  0.49750356  0.49134389  0.37854731  1
  Mo  Mo162  1  0.70487304  0.68527700  0.12815344  1
  Mo  Mo163  1  0.40107766  0.80454964  0.75510411  1
  Mo  Mo164  1  0.38905213  0.00743729  0.25098201  1
  Mo  Mo165  1  0.90156762  0.69942396  0.63030515  1
  Mo  Mo166  1  0.28812482  0.49977840  0.62523395  1
  Mo  Mo167  1  0.00132063  0.60218956  0.75786934  1
  Mo  Mo168  1  0.78998828  0.60390736  0.75670696  1
  Mo  Mo169  1  0.60806819  -0.00610452  0.25019580  1
  Mo  Mo170  1  0.80111326  -0.00051160  0.25055026  1
  Mo  Mo171  1  0.60463350  0.19909004  0.00536095  1
  Mo  Mo172  1  0.50820161  0.70188106  0.87542132  1
  Mo  Mo173  1  0.30304494  0.30289710  0.88169247  1
  Mo  Mo174  1  0.40418076  0.20167385  0.75556236  1
  Mo  Mo175  1  0.39799299  -0.01124400  0.75750745  1
  Mo  Mo176  1  0.39743201  0.18643860  0.50510300  1
  Mo  Mo177  1  0.79019027  0.38938837  0.74350847  1
  Mo  Mo178  1  0.28715326  0.11742638  0.12144351  1
  Mo  Mo179  1  0.80300187  0.40980759  0.49314135  1
  Mo  Mo180  1  0.88951030  0.28925721  0.87013647  1
  Mo  Mo181  1  0.19153387  0.40753839  0.51250892  1
  Mo  Mo182  1  0.71132280  0.89107362  0.11494731  1
  Mo  Mo183  1  0.19819914  0.60300868  -0.00236242  1
  Mo  Mo184  1  0.39791017  0.39327842  0.49907330  1
  Mo  Mo185  1  0.71573945  0.30083638  0.87248611  1
  Mo  Mo186  1  0.80471349  0.80402282  -0.00157363  1
  Mo  Mo187  1  -0.00053321  0.21381272  0.25096517  1
  Mo  Mo188  1  0.29127057  0.28998586  0.38361649  1
  Mo  Mo189  1  0.90731907  0.89481755  0.36797474  1
  Mo  Mo190  1  0.30113850  0.69742175  0.12592584  1
  Mo  Mo191  1  0.07612238  0.70217506  0.62308776  1
  Mo  Mo192  1  0.69986572  0.09974375  0.63107504  1
  Mo  Mo193  1  0.08391648  0.50822533  0.37278539  1
  Mo  Mo194  1  0.09887789  0.90873507  0.62406328  1
  Mo  Mo195  1  0.60330372  0.39754973  0.00506514  1
  Mo  Mo196  1  0.90356349  0.91077318  0.87113969  1
  Mo  Mo197  1  -0.00181908  0.79572514  0.49557601  1
  Mo  Mo198  1  0.89842686  0.11328285  0.12277889  1
  Mo  Mo199  1  0.70834573  0.50349214  0.38429956  1
