# generated using pymatgen
data_HfZrTaTiMo
_symmetry_space_group_name_H-M   'P 1'
_cell_length_a   15.18816996
_cell_length_b   15.18229354
_cell_length_c   16.82025411
_cell_angle_alpha   89.98719019
_cell_angle_beta   89.94530264
_cell_angle_gamma   89.86606515
_symmetry_Int_Tables_number   1
_chemical_formula_structural   HfZrTaTiMo
_chemical_formula_sum   'Hf40 Zr40 Ta40 Ti40 Mo40'
_cell_volume   3878.59104194
_cell_formula_units_Z   40
loop_
 _symmetry_equiv_pos_site_id
 _symmetry_equiv_pos_as_xyz
  1  'x, y, z'
loop_
 _atom_site_type_symbol
 _atom_site_label
 _atom_site_symmetry_multiplicity
 _atom_site_fract_x
 _atom_site_fract_y
 _atom_site_fract_z
 _atom_site_occupancy
  Hf  Hf0  1  0.20428184  -0.00325071  0.23451080  1
  Hf  Hf1  1  0.10631474  0.29287722  0.14132124  1
  Hf  Hf2  1  0.29718209  0.08493287  0.36645095  1
  Hf  Hf3  1  -0.00872221  0.80551496  0.25055012  1
  Hf  Hf4  1  0.89526737  0.51337151  0.37676441  1
  Hf  Hf5  1  0.49119054  0.88259391  0.88413001  1
  Hf  Hf6  1  0.41564011  0.58770344  0.74998334  1
  Hf  Hf7  1  0.79412373  0.20490389  0.49785547  1
  Hf  Hf8  1  0.90875998  0.09592276  0.88451915  1
  Hf  Hf9  1  0.69390712  0.71844212  0.13684315  1
  Hf  Hf10  1  0.89927404  0.30340028  0.88366686  1
  Hf  Hf11  1  0.40182932  0.59774072  0.00974841  1
  Hf  Hf12  1  0.70214761  0.09592857  0.88579543  1
  Hf  Hf13  1  0.00128195  0.20164144  0.49005737  1
  Hf  Hf14  1  0.11814677  0.70132173  0.87333400  1
  Hf  Hf15  1  0.38952481  0.20370247  0.00551903  1
  Hf  Hf16  1  0.30849380  0.50781693  0.38895235  1
  Hf  Hf17  1  -0.00121797  0.79686566  0.00113446  1
  Hf  Hf18  1  0.19198673  0.39350392  0.48548758  1
  Hf  Hf19  1  0.20258863  0.00187488  0.00747972  1
  Hf  Hf20  1  0.90503435  0.33001632  0.12098669  1
  Hf  Hf21  1  0.69266537  0.10396333  0.62585395  1
  Hf  Hf22  1  0.67942505  0.51018686  0.61918263  1
  Hf  Hf23  1  0.80173160  0.19985995  0.75395226  1
  Hf  Hf24  1  0.90304841  0.08186681  0.62822400  1
  Hf  Hf25  1  0.21283291  0.21337974  0.75581989  1
  Hf  Hf26  1  0.21009785  0.40817337  0.25931512  1
  Hf  Hf27  1  0.39696689  -0.01503209  0.50243865  1
  Hf  Hf28  1  0.79700619  0.61703579  0.74376338  1
  Hf  Hf29  1  0.71238720  0.92367522  0.38515219  1
  Hf  Hf30  1  -0.00555178  0.62143170  0.49597273  1
  Hf  Hf31  1  0.61219634  -0.01073762  0.24447436  1
  Hf  Hf32  1  0.29455697  0.50304935  0.87806675  1
  Hf  Hf33  1  0.49771752  0.48973188  0.38046877  1
  Hf  Hf34  1  0.51185594  0.69124303  0.62147879  1
  Hf  Hf35  1  0.19892630  0.18105218  0.49460535  1
  Hf  Hf36  1  0.70797661  0.08351648  0.11989727  1
  Hf  Hf37  1  0.08760875  0.90381872  0.11870495  1
  Hf  Hf38  1  0.83698206  0.80886449  0.48935375  1
  Hf  Hf39  1  0.09762730  0.10442473  0.63999823  1
  Zr  Zr40  1  0.58227061  0.41919423  0.75998661  1
  Zr  Zr41  1  0.00232276  0.40477312  0.75196761  1
  Zr  Zr42  1  0.60594383  0.39078953  0.24962105  1
  Zr  Zr43  1  0.50144539  0.08311309  0.36762508  1
  Zr  Zr44  1  0.08789213  0.48635354  0.13532318  1
  Zr  Zr45  1  0.19091295  0.60198616  0.50538811  1
  Zr  Zr46  1  0.69902743  0.51431529  0.88172648  1
  Zr  Zr47  1  0.50995954  0.88457052  0.13016855  1
  Zr  Zr48  1  0.79131243  0.60863371  0.50231598  1
  Zr  Zr49  1  0.90007249  0.29586315  0.62323476  1
  Zr  Zr50  1  0.59391774  -0.00157634  0.75424601  1
  Zr  Zr51  1  0.59755361  0.60120407  0.01073036  1
  Zr  Zr52  1  0.00619478  0.58785878  0.00392713  1
  Zr  Zr53  1  0.59929312  0.80435812  0.48996897  1
  Zr  Zr54  1  0.20544606  0.60802032  0.24362868  1
  Zr  Zr55  1  0.79103782  0.40744887  0.74765251  1
  Zr  Zr56  1  0.09870700  0.10412354  0.86900488  1
  Zr  Zr57  1  0.20197154  0.39726227  0.00344036  1
  Zr  Zr58  1  0.58771413  0.19057626  0.01370801  1
  Zr  Zr59  1  0.10788326  0.90898579  0.37499205  1
  Zr  Zr60  1  0.80159198  -0.02133308  0.75511816  1
  Zr  Zr61  1  0.70674656  0.70711976  0.36078070  1
  Zr  Zr62  1  0.90608980  0.50684447  0.61778331  1
  Zr  Zr63  1  0.39120914  -0.01230271  0.74637961  1
  Zr  Zr64  1  0.50943209  0.29366756  0.62352929  1
  Zr  Zr65  1  0.61143274  0.79958721  0.74493926  1
  Zr  Zr66  1  0.38244006  0.38437578  0.75816555  1
  Zr  Zr67  1  0.30840484  0.29322569  0.61262927  1
  Zr  Zr68  1  0.89737662  0.70038300  0.87910324  1
  Zr  Zr69  1  0.20778756  0.60256067  0.73917851  1
  Zr  Zr70  1  0.80382450  0.40657124  0.25585768  1
  Zr  Zr71  1  -0.00717788  0.81786771  0.75975760  1
  Zr  Zr72  1  0.09750173  0.90970420  0.62102495  1
  Zr  Zr73  1  0.88919933  0.09365558  0.36737984  1
  Zr  Zr74  1  0.47867286  0.49136560  0.59393305  1
  Zr  Zr75  1  0.20701980  0.60613946  0.01559739  1
  Zr  Zr76  1  0.30994268  0.29038839  0.36722386  1
  Zr  Zr77  1  0.79665356  0.21542382  0.01372206  1
  Zr  Zr78  1  0.30616771  0.09343824  0.87719418  1
  Zr  Zr79  1  0.10004532  0.31083418  0.62445967  1
  Ta  Ta80  1  0.71071900  0.49362598  0.12055135  1
  Ta  Ta81  1  0.59665531  0.20429454  0.76100977  1
  Ta  Ta82  1  0.09623944  0.10551893  0.12962337  1
  Ta  Ta83  1  0.40652992  0.18821710  0.49584130  1
  Ta  Ta84  1  0.50859605  0.28576703  0.37062234  1
  Ta  Ta85  1  0.20430819  0.80416202  0.50108054  1
  Ta  Ta86  1  0.40540740  -0.00113247  0.01645543  1
  Ta  Ta87  1  0.71332310  0.90942765  0.60551393  1
  Ta  Ta88  1  0.88203123  0.90094176  0.89911878  1
  Ta  Ta89  1  0.49786579  0.69289279  0.14243201  1
  Ta  Ta90  1  0.80439942  0.60701694  0.01286738  1
  Ta  Ta91  1  0.30838253  0.69931673  0.61844241  1
  Ta  Ta92  1  0.49423800  0.29480886  0.88047090  1
  Ta  Ta93  1  0.70069060  0.72172275  0.88584204  1
  Ta  Ta94  1  0.69277904  0.30519816  0.88080528  1
  Ta  Ta95  1  0.60030139  0.19562816  0.23353792  1
  Ta  Ta96  1  0.60140689  0.59198860  0.24966412  1
  Ta  Ta97  1  0.49043875  0.30184005  0.12963809  1
  Ta  Ta98  1  0.09672814  0.10378496  0.35837625  1
  Ta  Ta99  1  0.79223226  0.20541476  0.23710550  1
  Ta  Ta100  1  0.39696067  0.58361600  0.24176197  1
  Ta  Ta101  1  0.00190549  0.40852500  0.48217685  1
  Ta  Ta102  1  0.87989698  0.90730207  0.11487600  1
  Ta  Ta103  1  0.00710875  0.60241127  0.74850218  1
  Ta  Ta104  1  0.39913178  0.79078228  0.74449235  1
  Ta  Ta105  1  0.49520850  0.09524336  0.62152770  1
  Ta  Ta106  1  0.09301176  0.70969721  0.62834520  1
  Ta  Ta107  1  0.20293334  0.80198849  0.23943152  1
  Ta  Ta108  1  -0.00928978  -0.00985403  0.49245940  1
  Ta  Ta109  1  0.59930428  0.19216674  0.49506533  1
  Ta  Ta110  1  0.59988213  0.39399093  0.00451609  1
  Ta  Ta111  1  0.60548786  -0.02215842  0.00232878  1
  Ta  Ta112  1  0.10116511  0.30987511  0.87603371  1
  Ta  Ta113  1  0.38879682  0.79258562  0.24681094  1
  Ta  Ta114  1  0.50079299  0.09202155  0.88229756  1
  Ta  Ta115  1  -0.00294425  0.59851449  0.25250369  1
  Ta  Ta116  1  0.89568404  0.70761325  0.12943344  1
  Ta  Ta117  1  0.90433577  0.50083879  0.87976098  1
  Ta  Ta118  1  0.10092987  0.70379855  0.36989684  1
  Ta  Ta119  1  0.01072206  0.20758670  0.00737357  1
  Ti  Ti120  1  0.30004519  0.70461804  0.37636526  1
  Ti  Ti121  1  0.40181088  0.78752062  0.49642182  1
  Ti  Ti122  1  0.71366491  0.71742440  0.61917929  1
  Ti  Ti123  1  0.49910322  0.48943859  0.13068262  1
  Ti  Ti124  1  0.69677115  0.30526029  0.62788159  1
  Ti  Ti125  1  0.69523574  0.11554421  0.36775296  1
  Ti  Ti126  1  0.30306157  0.30676021  0.13900701  1
  Ti  Ti127  1  0.50925106  0.68354721  0.87064390  1
  Ti  Ti128  1  0.69663969  0.49690642  0.37840671  1
  Ti  Ti129  1  0.20979648  0.79893117  0.01352888  1
  Ti  Ti130  1  0.29760389  0.10951343  0.12844526  1
  Ti  Ti131  1  0.29093932  0.49180406  0.61129978  1
  Ti  Ti132  1  0.40322501  0.40001089  -0.00394812  1
  Ti  Ti133  1  0.40332322  0.19297311  0.24114249  1
  Ti  Ti134  1  0.49026626  0.69212230  0.36165554  1
  Ti  Ti135  1  0.50630270  0.89742671  0.61962605  1
  Ti  Ti136  1  0.39944874  -0.00872387  0.23185517  1
  Ti  Ti137  1  -0.01082691  0.20486163  0.24741919  1
  Ti  Ti138  1  0.29013576  0.88942724  0.88043700  1
  Ti  Ti139  1  0.59372937  0.60599022  0.48419130  1
  Ti  Ti140  1  0.29887238  0.89294027  0.62193673  1
  Ti  Ti141  1  0.31562133  0.70908291  0.87422192  1
  Ti  Ti142  1  0.19351988  -0.01102207  0.75709697  1
  Ti  Ti143  1  0.79759194  0.39957323  0.49520171  1
  Ti  Ti144  1  0.49729620  0.88819235  0.36438482  1
  Ti  Ti145  1  -0.01005081  0.00336421  0.24478491  1
  Ti  Ti146  1  0.20853543  0.80188216  0.74613449  1
  Ti  Ti147  1  0.19255585  0.41400020  0.75076203  1
  Ti  Ti148  1  0.09607929  0.70121888  0.12978986  1
  Ti  Ti149  1  0.29659440  0.08781268  0.62458938  1
  Ti  Ti150  1  0.89398416  0.30090441  0.37008827  1
  Ti  Ti151  1  0.39700636  0.79395612  0.01418405  1
  Ti  Ti152  1  0.20050350  0.20440769  -0.00168992  1
  Ti  Ti153  1  0.60923689  0.38249448  0.48795688  1
  Ti  Ti154  1  0.40811773  0.18801599  0.75398260  1
  Ti  Ti155  1  0.30359409  0.89217234  0.37342609  1
  Ti  Ti156  1  0.09080405  0.90963227  0.88649507  1
  Ti  Ti157  1  0.90744271  0.10020365  0.11872152  1
  Ti  Ti158  1  0.80323342  0.60866427  0.24238489  1
  Ti  Ti159  1  0.09578485  0.29702836  0.35775258  1
  Mo  Mo160  1  0.90645603  0.90648009  0.36690929  1
  Mo  Mo161  1  0.30102652  0.89659240  0.11911763  1
  Mo  Mo162  1  0.69681111  0.30285609  0.12089470  1
  Mo  Mo163  1  0.30576973  0.70117109  0.12895449  1
  Mo  Mo164  1  0.90621051  0.71650260  0.63250360  1
  Mo  Mo165  1  0.10059347  0.50498770  0.62189494  1
  Mo  Mo166  1  0.69229218  0.89913965  0.88310613  1
  Mo  Mo167  1  0.79667491  0.80391918  0.74877031  1
  Mo  Mo168  1  0.80886812  0.00628483  0.24417125  1
  Mo  Mo169  1  0.90316220  0.89130598  0.62305519  1
  Mo  Mo170  1  0.40811453  0.39418629  0.24954486  1
  Mo  Mo171  1  0.90509260  0.70631854  0.35659037  1
  Mo  Mo172  1  0.40298689  0.38264854  0.49130191  1
  Mo  Mo173  1  0.58572265  0.79039353  -0.00069314  1
  Mo  Mo174  1  0.80104265  0.00903471  0.50293387  1
  Mo  Mo175  1  0.20238112  -0.00135741  0.49906805  1
  Mo  Mo176  1  0.70181496  0.29337000  0.37471973  1
  Mo  Mo177  1  0.89729022  0.51463236  0.13051421  1
  Mo  Mo178  1  0.00071754  0.20037965  0.75840108  1
  Mo  Mo179  1  -0.00006895  0.40137509  0.27119686  1
  Mo  Mo180  1  -0.00006205  -0.00171350  0.75959568  1
  Mo  Mo181  1  0.00118930  0.39630663  -0.00609822  1
  Mo  Mo182  1  0.19998847  0.19420225  0.24941317  1
  Mo  Mo183  1  0.78563350  0.80222566  0.00615676  1
  Mo  Mo184  1  0.31409248  0.48626564  0.12591661  1
  Mo  Mo185  1  0.09528011  0.50387211  0.87302955  1
  Mo  Mo186  1  0.79814113  0.41649910  -0.00190391  1
  Mo  Mo187  1  0.70410235  0.89237138  0.12755573  1
  Mo  Mo188  1  0.49280640  0.09397015  0.13186622  1
  Mo  Mo189  1  0.29808375  0.29816489  0.87752867  1
  Mo  Mo190  1  0.59297918  0.79582798  0.26843232  1
  Mo  Mo191  1  0.49998486  0.49324253  0.88516556  1
  Mo  Mo192  1  0.01721316  0.79999756  0.49310730  1
  Mo  Mo193  1  0.59469880  0.00686564  0.50307795  1
  Mo  Mo194  1  0.79852246  0.82169623  0.25343093  1
  Mo  Mo195  1  -0.00106655  0.00652539  0.00917062  1
  Mo  Mo196  1  0.39838008  0.61185336  0.49475768  1
  Mo  Mo197  1  0.60453968  0.60929068  0.75249011  1
  Mo  Mo198  1  0.09603296  0.50349636  0.36753190  1
  Mo  Mo199  1  0.79802103  0.00225784  -0.00019844  1
