# generated using pymatgen
data_HfZrTaTiMo
_symmetry_space_group_name_H-M   'P 1'
_cell_length_a   15.21572172
_cell_length_b   15.19735346
_cell_length_c   16.83910328
_cell_angle_alpha   90.03688876
_cell_angle_beta   90.00956100
_cell_angle_gamma   89.90208001
_symmetry_Int_Tables_number   1
_chemical_formula_structural   HfZrTaTiMo
_chemical_formula_sum   'Hf40 Zr40 Ta40 Ti40 Mo40'
_cell_volume   3893.84582247
_cell_formula_units_Z   40
loop_
 _symmetry_equiv_pos_site_id
 _symmetry_equiv_pos_as_xyz
  1  'x, y, z'
loop_
 _atom_site_type_symbol
 _atom_site_label
 _atom_site_symmetry_multiplicity
 _atom_site_fract_x
 _atom_site_fract_y
 _atom_site_fract_z
 _atom_site_occupancy
  Hf  Hf0  1  0.51751561  0.68560948  0.37174767  1
  Hf  Hf1  1  -0.02691246  0.80257356  0.74624186  1
  Hf  Hf2  1  0.20732218  0.58913519  0.49603407  1
  Hf  Hf3  1  0.57438415  0.20822576  -0.00318848  1
  Hf  Hf4  1  -0.00254880  0.01367779  0.26994299  1
  Hf  Hf5  1  0.38155277  0.20539551  0.50360756  1
  Hf  Hf6  1  0.70523014  0.29040471  0.64894340  1
  Hf  Hf7  1  0.00147209  0.80836498  0.25974041  1
  Hf  Hf8  1  0.60359300  0.60132128  0.51329710  1
  Hf  Hf9  1  0.41398770  0.58871887  -0.01626209  1
  Hf  Hf10  1  0.70698164  0.28420133  0.35715757  1
  Hf  Hf11  1  0.19573845  -0.00026433  0.00618599  1
  Hf  Hf12  1  0.79584852  0.38103817  0.49709250  1
  Hf  Hf13  1  0.00162624  0.39389162  0.22268264  1
  Hf  Hf14  1  0.29447455  0.89127238  0.13437832  1
  Hf  Hf15  1  0.88739896  0.89759994  0.38096977  1
  Hf  Hf16  1  0.78509611  0.40773874  0.00775287  1
  Hf  Hf17  1  0.39441349  0.60373591  0.76434303  1
  Hf  Hf18  1  0.30113593  0.89198088  0.87520876  1
  Hf  Hf19  1  0.78701743  0.60406422  0.24680082  1
  Hf  Hf20  1  0.11636727  0.50859734  0.11298848  1
  Hf  Hf21  1  0.68722628  0.49741081  0.37155673  1
  Hf  Hf22  1  0.10635165  0.10099922  0.87598957  1
  Hf  Hf23  1  0.70837135  0.48870506  0.63879075  1
  Hf  Hf24  1  0.21487362  -0.00885158  0.74553511  1
  Hf  Hf25  1  0.40534598  0.78861870  0.48847458  1
  Hf  Hf26  1  0.80317572  -0.00609554  0.00014340  1
  Hf  Hf27  1  0.49116730  0.11702060  0.13399214  1
  Hf  Hf28  1  0.28309086  0.28756957  0.37065469  1
  Hf  Hf29  1  0.58199820  -0.00825054  0.75017745  1
  Hf  Hf30  1  0.69054019  0.09637239  0.87060878  1
  Hf  Hf31  1  0.19209781  0.00393045  0.25743169  1
  Hf  Hf32  1  0.20490556  0.79633011  0.48952024  1
  Hf  Hf33  1  0.70763252  0.69533100  0.89173374  1
  Hf  Hf34  1  0.11930661  0.12186275  0.38671249  1
  Hf  Hf35  1  0.89516662  0.90899762  0.13522532  1
  Hf  Hf36  1  0.57982615  0.40444513  0.23807525  1
  Hf  Hf37  1  0.81918846  0.61628024  0.74895593  1
  Hf  Hf38  1  0.22541703  0.60226712  0.25581913  1
  Hf  Hf39  1  0.00174960  0.41697473  0.50007839  1
  Zr  Zr40  1  0.69885564  0.08774058  0.63238973  1
  Zr  Zr41  1  0.49978509  0.89913096  0.13295451  1
  Zr  Zr42  1  0.50057719  0.90635705  0.88783853  1
  Zr  Zr43  1  0.00590659  0.42427993  0.76731506  1
  Zr  Zr44  1  0.50137195  0.31559631  0.39255113  1
  Zr  Zr45  1  0.50447014  0.11472942  0.37749280  1
  Zr  Zr46  1  0.10190829  0.69511400  0.37197643  1
  Zr  Zr47  1  0.11176367  0.71481397  0.13093914  1
  Zr  Zr48  1  0.10545281  0.10550109  0.60612794  1
  Zr  Zr49  1  0.69418545  0.09372991  0.12898535  1
  Zr  Zr50  1  0.50322851  0.30638984  0.62356183  1
  Zr  Zr51  1  0.00211054  0.20966762  0.75248029  1
  Zr  Zr52  1  0.60561169  0.61048930  0.74582093  1
  Zr  Zr53  1  0.09477954  0.69124851  0.63373852  1
  Zr  Zr54  1  0.50933788  0.71046179  0.87961222  1
  Zr  Zr55  1  0.33492452  0.49029266  0.11707454  1
  Zr  Zr56  1  0.20162453  0.20035599  0.74193288  1
  Zr  Zr57  1  0.70549861  0.88688537  0.88414381  1
  Zr  Zr58  1  0.19507640  0.79900974  -0.00001583  1
  Zr  Zr59  1  0.49986968  0.09657624  0.60999501  1
  Zr  Zr60  1  0.87620708  0.89740227  0.60193128  1
  Zr  Zr61  1  0.39308472  0.00532658  0.25985577  1
  Zr  Zr62  1  0.61022652  0.79043760  0.24434653  1
  Zr  Zr63  1  0.90114487  0.48958410  0.36235921  1
  Zr  Zr64  1  0.21103978  0.39096166  0.00154417  1
  Zr  Zr65  1  0.49225828  0.49750402  0.63309891  1
  Zr  Zr66  1  0.00016813  0.60114192  0.23992807  1
  Zr  Zr67  1  -0.00043588  0.00402528  0.74090276  1
  Zr  Zr68  1  0.89017836  0.10862815  0.61483675  1
  Zr  Zr69  1  0.00404760  0.61110398  0.00522131  1
  Zr  Zr70  1  0.79049227  0.20523137  0.00020118  1
  Zr  Zr71  1  -0.00048211  0.22806914  0.49339032  1
  Zr  Zr72  1  0.20825297  0.39072908  0.23240269  1
  Zr  Zr73  1  0.68378707  0.30722814  0.86185818  1
  Zr  Zr74  1  -0.00649334  0.20236814  0.00171489  1
  Zr  Zr75  1  0.20007380  0.38292835  0.50605197  1
  Zr  Zr76  1  0.10404508  0.89461886  0.61720704  1
  Zr  Zr77  1  0.09833340  0.70660788  0.86371254  1
  Zr  Zr78  1  0.80516164  0.59499399  0.50016538  1
  Zr  Zr79  1  0.89990147  0.31609068  0.64220891  1
  Ta  Ta80  1  0.88344004  0.12449695  0.37796217  1
  Ta  Ta81  1  0.10031363  0.30487484  0.88709796  1
  Ta  Ta82  1  0.39670695  0.00399437  0.00940960  1
  Ta  Ta83  1  -0.00861020  0.39882735  0.00816424  1
  Ta  Ta84  1  0.77928381  0.00718074  0.48151527  1
  Ta  Ta85  1  0.70734170  0.69261459  0.11177495  1
  Ta  Ta86  1  0.61387704  0.58219474  0.00413079  1
  Ta  Ta87  1  0.00013314  0.00292659  0.48170465  1
  Ta  Ta88  1  0.89331261  0.72012521  0.88960058  1
  Ta  Ta89  1  0.31091391  0.89290721  0.61809075  1
  Ta  Ta90  1  0.39318120  0.78073107  0.25997447  1
  Ta  Ta91  1  0.19871631  0.59225283  0.76407787  1
  Ta  Ta92  1  0.89597244  0.10881499  0.13570915  1
  Ta  Ta93  1  0.11053583  0.48543721  0.36374737  1
  Ta  Ta94  1  0.91609750  0.51696501  0.63106036  1
  Ta  Ta95  1  0.49698862  0.71081539  0.62556421  1
  Ta  Ta96  1  0.39696361  0.79187008  0.00737229  1
  Ta  Ta97  1  0.39524766  0.18353557  0.74380130  1
  Ta  Ta98  1  0.50312593  0.89857479  0.61318305  1
  Ta  Ta99  1  0.22077303  0.60596500  -0.01712713  1
  Ta  Ta100  1  0.50110678  0.68340223  0.12439273  1
  Ta  Ta101  1  0.20345959  0.39819281  0.75925991  1
  Ta  Ta102  1  0.40417660  0.81236060  0.74532326  1
  Ta  Ta103  1  0.60369340  0.00096775  0.25945926  1
  Ta  Ta104  1  0.51340869  0.48206939  0.86561989  1
  Ta  Ta105  1  0.88897920  0.31016640  0.86950629  1
  Ta  Ta106  1  0.89401361  0.09779120  0.86851837  1
  Ta  Ta107  1  0.79931809  -0.01952359  0.75386669  1
  Ta  Ta108  1  -0.00343248  0.21117234  0.25136857  1
  Ta  Ta109  1  0.29885970  0.69687949  0.63341677  1
  Ta  Ta110  1  0.70755928  0.49864777  0.86429676  1
  Ta  Ta111  1  0.10734993  0.49870713  0.63394264  1
  Ta  Ta112  1  0.39409841  -0.00706114  0.48498517  1
  Ta  Ta113  1  0.09259605  0.90189536  0.86731497  1
  Ta  Ta114  1  0.50134559  0.89431592  0.36842894  1
  Ta  Ta115  1  0.31586258  0.48722332  0.37573672  1
  Ta  Ta116  1  0.89157483  0.69882146  0.37794747  1
  Ta  Ta117  1  -0.00292943  0.00256840  -0.00232140  1
  Ta  Ta118  1  0.70907646  0.72201688  0.62249419  1
  Ta  Ta119  1  0.79175803  0.00386873  0.26291085  1
  Ti  Ti120  1  0.29651906  0.10059989  0.12570556  1
  Ti  Ti121  1  0.89840538  0.71080328  0.11909829  1
  Ti  Ti122  1  0.80119956  0.38893156  0.23158511  1
  Ti  Ti123  1  0.19764111  0.19489400  0.00948208  1
  Ti  Ti124  1  -0.00030432  0.79941284  0.48998007  1
  Ti  Ti125  1  0.49803579  0.49693217  0.39007314  1
  Ti  Ti126  1  0.48442010  0.09931173  0.87798651  1
  Ti  Ti127  1  0.89827556  0.51524155  0.88571747  1
  Ti  Ti128  1  0.59600967  -0.00075029  0.00954711  1
  Ti  Ti129  1  0.59749040  -0.00570924  0.48455102  1
  Ti  Ti130  1  0.61383272  0.80509714  0.49265411  1
  Ti  Ti131  1  0.20325293  0.80221185  0.26727687  1
  Ti  Ti132  1  0.30158918  0.08568746  0.61534466  1
  Ti  Ti133  1  0.79468485  0.80181011  0.24961168  1
  Ti  Ti134  1  0.68509477  0.29123050  0.13451362  1
  Ti  Ti135  1  0.29870773  0.28386162  0.87690369  1
  Ti  Ti136  1  0.58671930  0.19391024  0.75328728  1
  Ti  Ti137  1  0.30892934  0.69139875  0.12344139  1
  Ti  Ti138  1  0.30499299  0.09468148  0.87829306  1
  Ti  Ti139  1  0.60889222  0.80485995  0.74319359  1
  Ti  Ti140  1  0.39658909  0.59663219  0.50395192  1
  Ti  Ti141  1  0.40123378  0.21865511  0.25426223  1
  Ti  Ti142  1  0.08879218  0.10087976  0.12718631  1
  Ti  Ti143  1  0.00877883  0.60273608  0.49280725  1
  Ti  Ti144  1  -0.00647767  0.81888282  -0.00114733  1
  Ti  Ti145  1  0.30919872  0.48088463  0.87441299  1
  Ti  Ti146  1  0.42223221  0.58193628  0.25264203  1
  Ti  Ti147  1  0.19094850  0.20277230  0.23353795  1
  Ti  Ti148  1  0.90195674  0.70432004  0.60909464  1
  Ti  Ti149  1  0.31749764  0.28715802  0.11697452  1
  Ti  Ti150  1  0.29431252  0.90232866  0.37557526  1
  Ti  Ti151  1  0.48141452  0.29560648  0.86197224  1
  Ti  Ti152  1  0.60449377  0.80167626  0.01985553  1
  Ti  Ti153  1  0.30107143  0.49600302  0.63572831  1
  Ti  Ti154  1  0.09199059  0.90773813  0.12972030  1
  Ti  Ti155  1  0.10442036  0.50046964  0.89210671  1
  Ti  Ti156  1  0.88600190  0.50973054  0.11850905  1
  Ti  Ti157  1  0.30131686  0.30614121  0.63392686  1
  Ti  Ti158  1  0.62763422  0.20525317  0.50186623  1
  Ti  Ti159  1  0.58731686  0.40060949  0.01061591  1
  Mo  Mo160  1  0.80136714  0.19138496  0.76636959  1
  Mo  Mo161  1  0.69532499  0.09917283  0.37006314  1
  Mo  Mo162  1  0.39852060  0.00250944  0.74426776  1
  Mo  Mo163  1  0.90109027  0.30767875  0.36270271  1
  Mo  Mo164  1  0.48554498  0.30667056  0.12187984  1
  Mo  Mo165  1  0.79293401  0.79617414  0.49147829  1
  Mo  Mo166  1  0.70188456  0.89694129  0.12478560  1
  Mo  Mo167  1  0.38898784  0.38920359  0.76123110  1
  Mo  Mo168  1  0.39243710  0.41204874  0.50669768  1
  Mo  Mo169  1  0.80683968  0.59731326  0.00417350  1
  Mo  Mo170  1  0.70855901  0.70150351  0.37722989  1
  Mo  Mo171  1  0.79788879  0.19913645  0.50082789  1
  Mo  Mo172  1  0.88963065  0.30111553  0.12120848  1
  Mo  Mo173  1  0.30228058  0.09970942  0.37660518  1
  Mo  Mo174  1  0.50705612  0.49959897  0.11709341  1
  Mo  Mo175  1  0.41489710  0.38082337  -0.01642233  1
  Mo  Mo176  1  0.68536845  0.90269870  0.61816241  1
  Mo  Mo177  1  0.59490907  0.39844748  0.75343737  1
  Mo  Mo178  1  0.20903291  -0.00278964  0.49219005  1
  Mo  Mo179  1  0.69849472  0.49680236  0.12913382  1
  Mo  Mo180  1  0.79144583  0.80278976  0.74847766  1
  Mo  Mo181  1  0.38388939  0.19293287  -0.00526252  1
  Mo  Mo182  1  0.09340619  0.31104537  0.36330937  1
  Mo  Mo183  1  0.80740929  0.79997571  0.01529732  1
  Mo  Mo184  1  0.00107379  0.60503192  0.76285163  1
  Mo  Mo185  1  0.59399776  0.20105573  0.24552677  1
  Mo  Mo186  1  0.80321258  0.19997547  0.23873090  1
  Mo  Mo187  1  0.90687342  0.90401583  0.87776025  1
  Mo  Mo188  1  0.21493210  0.79169833  0.74580643  1
  Mo  Mo189  1  0.39661113  0.39704473  0.25395969  1
  Mo  Mo190  1  0.09952769  0.90565265  0.38500769  1
  Mo  Mo191  1  0.20339740  0.20111545  0.51395944  1
  Mo  Mo192  1  0.60128737  0.59799929  0.24141078  1
  Mo  Mo193  1  0.60644110  0.39846919  0.50159054  1
  Mo  Mo194  1  0.31379584  0.68651515  0.37200271  1
  Mo  Mo195  1  0.10686185  0.31738149  0.63463944  1
  Mo  Mo196  1  0.69208092  0.89565493  0.37117178  1
  Mo  Mo197  1  0.10151673  0.28970699  0.10997307  1
  Mo  Mo198  1  0.30499878  0.69975815  0.86873952  1
  Mo  Mo199  1  0.80643426  0.41106718  0.76181166  1
