# generated using pymatgen
data_HfZrTaTiMo
_symmetry_space_group_name_H-M   'P 1'
_cell_length_a   15.21679138
_cell_length_b   15.20231406
_cell_length_c   16.87281597
_cell_angle_alpha   89.97419087
_cell_angle_beta   89.95199142
_cell_angle_gamma   90.06592663
_symmetry_Int_Tables_number   1
_chemical_formula_structural   HfZrTaTiMo
_chemical_formula_sum   'Hf40 Zr40 Ta40 Ti40 Mo40'
_cell_volume   3903.19161634
_cell_formula_units_Z   40
loop_
 _symmetry_equiv_pos_site_id
 _symmetry_equiv_pos_as_xyz
  1  'x, y, z'
loop_
 _atom_site_type_symbol
 _atom_site_label
 _atom_site_symmetry_multiplicity
 _atom_site_fract_x
 _atom_site_fract_y
 _atom_site_fract_z
 _atom_site_occupancy
  Hf  Hf0  1  0.20497804  0.79574679  0.25126240  1
  Hf  Hf1  1  0.81084484  0.39672325  -0.00265492  1
  Hf  Hf2  1  0.58021073  0.00189560  0.76027553  1
  Hf  Hf3  1  0.09401267  0.90486570  0.86972093  1
  Hf  Hf4  1  0.79751331  0.60558495  0.24834601  1
  Hf  Hf5  1  0.30167201  0.50142608  0.85748001  1
  Hf  Hf6  1  0.19650887  0.59344689  -0.00437733  1
  Hf  Hf7  1  0.08658476  0.09489030  0.12944167  1
  Hf  Hf8  1  0.91837244  0.30366027  0.60562367  1
  Hf  Hf9  1  0.59961397  0.20480907  0.75413603  1
  Hf  Hf10  1  0.29443158  0.49384091  0.12325392  1
  Hf  Hf11  1  0.50242267  0.71037222  0.38945133  1
  Hf  Hf12  1  0.78751408  0.79540725  0.51524265  1
  Hf  Hf13  1  0.80332492  0.79871444  0.73004180  1
  Hf  Hf14  1  0.30006144  0.28583757  0.62879133  1
  Hf  Hf15  1  0.29277186  0.50716649  0.64209096  1
  Hf  Hf16  1  0.40513604  0.18550065  0.75549595  1
  Hf  Hf17  1  0.89388159  0.10130095  0.86943589  1
  Hf  Hf18  1  0.19690963  0.39333129  0.50630966  1
  Hf  Hf19  1  0.43034773  0.60470255  0.74026516  1
  Hf  Hf20  1  0.40006852  -0.01083427  0.22546118  1
  Hf  Hf21  1  0.79760356  0.59988935  0.73058517  1
  Hf  Hf22  1  0.49613613  0.29902544  0.10558968  1
  Hf  Hf23  1  0.70211055  0.30548599  0.61979310  1
  Hf  Hf24  1  0.48244225  0.91017867  0.36467027  1
  Hf  Hf25  1  0.00713621  0.21832313  0.74659208  1
  Hf  Hf26  1  0.90944795  0.51636496  0.37856373  1
  Hf  Hf27  1  0.79345934  0.80712136  0.24918226  1
  Hf  Hf28  1  0.30504893  0.69213990  0.11641316  1
  Hf  Hf29  1  0.80873749  0.19674785  0.73591548  1
  Hf  Hf30  1  0.60899769  0.17960714  0.49100686  1
  Hf  Hf31  1  0.51201368  0.69167341  0.11543647  1
  Hf  Hf32  1  0.09793678  0.69658306  0.86716833  1
  Hf  Hf33  1  0.69717892  0.68290018  0.87165940  1
  Hf  Hf34  1  0.68821075  0.50544982  0.12948911  1
  Hf  Hf35  1  0.00326275  0.80824398  0.00732070  1
  Hf  Hf36  1  0.08936288  0.49544399  0.85951003  1
  Hf  Hf37  1  0.71340994  0.29895620  0.87309790  1
  Hf  Hf38  1  0.89350678  0.93303737  0.13450604  1
  Hf  Hf39  1  0.09946373  0.68889008  0.38235210  1
  Zr  Zr40  1  0.60268852  0.42450862  -0.01745203  1
  Zr  Zr41  1  -0.00513676  0.79899273  0.73916609  1
  Zr  Zr42  1  0.70388634  0.90060416  0.86425534  1
  Zr  Zr43  1  0.49887763  0.29632630  0.88892647  1
  Zr  Zr44  1  0.20318859  0.18613337  0.48607131  1
  Zr  Zr45  1  0.00483936  0.80751235  0.23989586  1
  Zr  Zr46  1  0.78984427  0.41859985  0.49716873  1
  Zr  Zr47  1  0.30323611  0.09603124  0.89100022  1
  Zr  Zr48  1  0.79731184  0.81456404  0.00542581  1
  Zr  Zr49  1  0.90158406  0.70816936  0.39068636  1
  Zr  Zr50  1  0.59983538  0.60035961  0.26409347  1
  Zr  Zr51  1  0.20947307  0.79280934  0.50166988  1
  Zr  Zr52  1  0.40293214  -0.01078655  0.01754720  1
  Zr  Zr53  1  0.00925851  0.60387802  0.23664309  1
  Zr  Zr54  1  0.31090087  0.71343486  0.63612607  1
  Zr  Zr55  1  0.29098928  0.10389394  0.12218763  1
  Zr  Zr56  1  0.89999797  0.90474852  0.38417622  1
  Zr  Zr57  1  0.78070871  0.00991040  0.50306642  1
  Zr  Zr58  1  0.50461099  0.29540110  0.38924783  1
  Zr  Zr59  1  0.89334692  0.11173010  0.38287086  1
  Zr  Zr60  1  0.89704843  0.28932631  0.13998464  1
  Zr  Zr61  1  0.09541398  0.10741343  0.61940342  1
  Zr  Zr62  1  0.29811933  0.29911333  0.87706773  1
  Zr  Zr63  1  0.69464946  0.29468737  0.11996495  1
  Zr  Zr64  1  0.50650009  0.29357327  0.61434070  1
  Zr  Zr65  1  0.21512832  -0.01147348  0.49712106  1
  Zr  Zr66  1  0.72125578  0.09382454  0.13721025  1
  Zr  Zr67  1  0.30805856  0.70260700  0.86748217  1
  Zr  Zr68  1  0.90407877  0.49191580  0.13147557  1
  Zr  Zr69  1  0.58189578  0.78100750  0.75259922  1
  Zr  Zr70  1  -0.00738101  0.00874289  0.74255702  1
  Zr  Zr71  1  0.39605201  0.40635284  0.50976523  1
  Zr  Zr72  1  0.30129681  0.29427347  0.36841992  1
  Zr  Zr73  1  0.79056335  0.60334667  0.00803703  1
  Zr  Zr74  1  0.90138207  0.30829625  0.38186562  1
  Zr  Zr75  1  0.40018375  0.40510949  0.25375089  1
  Zr  Zr76  1  0.39931591  0.60324002  0.25895388  1
  Zr  Zr77  1  0.41367841  0.19180127  0.24727445  1
  Zr  Zr78  1  0.67136502  0.89873058  0.62733041  1
  Zr  Zr79  1  0.60185958  0.39379704  0.26234811  1
  Ta  Ta80  1  0.50195191  0.50377613  0.39706083  1
  Ta  Ta81  1  0.90008610  0.70114057  0.87643357  1
  Ta  Ta82  1  0.41502799  0.39890383  0.74307944  1
  Ta  Ta83  1  0.19012148  0.20339365  0.00489549  1
  Ta  Ta84  1  0.10274001  0.30457502  0.13397158  1
  Ta  Ta85  1  0.09870855  0.30049531  0.87792909  1
  Ta  Ta86  1  0.59966374  0.79790928  0.00068270  1
  Ta  Ta87  1  0.30324074  0.09127012  0.63122524  1
  Ta  Ta88  1  0.59521803  0.80179956  0.24574881  1
  Ta  Ta89  1  0.61250760  -0.00670988  0.00217813  1
  Ta  Ta90  1  0.57318711  -0.01021241  0.49545206  1
  Ta  Ta91  1  0.19367050  0.58741179  0.50438162  1
  Ta  Ta92  1  0.29855544  0.89876006  0.87446320  1
  Ta  Ta93  1  -0.01773650  0.01309323  -0.00071471  1
  Ta  Ta94  1  0.10646846  0.69042772  0.62991653  1
  Ta  Ta95  1  0.89224582  0.50846216  0.87295327  1
  Ta  Ta96  1  0.18949320  0.39690647  0.00048934  1
  Ta  Ta97  1  0.49036687  0.89319695  0.88381458  1
  Ta  Ta98  1  0.68882412  0.10162137  0.62866622  1
  Ta  Ta99  1  0.68640667  0.89865757  0.37499100  1
  Ta  Ta100  1  0.18143788  -0.00737511  0.00086353  1
  Ta  Ta101  1  0.08675881  0.49256011  0.63756136  1
  Ta  Ta102  1  -0.00299548  0.59889295  0.00441514  1
  Ta  Ta103  1  0.10849153  0.90502616  0.37352719  1
  Ta  Ta104  1  0.20079207  0.80331443  -0.00259900  1
  Ta  Ta105  1  0.40675020  0.82410860  0.50493433  1
  Ta  Ta106  1  0.18739289  0.38509496  0.74278857  1
  Ta  Ta107  1  0.19848272  0.19225732  0.75383679  1
  Ta  Ta108  1  0.11250379  0.89995356  0.62935248  1
  Ta  Ta109  1  0.61844771  0.59654972  0.49794032  1
  Ta  Ta110  1  0.00225859  0.20114145  0.25818585  1
  Ta  Ta111  1  0.09784696  0.10656137  0.88029247  1
  Ta  Ta112  1  0.01367906  0.41807041  0.49515507  1
  Ta  Ta113  1  0.29410089  0.29922506  0.12253971  1
  Ta  Ta114  1  0.91070777  0.91303503  0.60820776  1
  Ta  Ta115  1  0.19879495  0.59050278  0.25150237  1
  Ta  Ta116  1  0.81028028  0.18430777  -0.00006993  1
  Ta  Ta117  1  0.09777690  0.29981702  0.37122069  1
  Ta  Ta118  1  -0.00094936  0.21064266  0.00050882  1
  Ta  Ta119  1  0.49172557  0.08090179  0.62436745  1
  Ti  Ti120  1  0.20297458  0.00325033  0.75437474  1
  Ti  Ti121  1  0.00639405  0.40537857  0.00354670  1
  Ti  Ti122  1  0.39064961  0.41114417  -0.00656162  1
  Ti  Ti123  1  0.51765161  0.70470692  0.60674056  1
  Ti  Ti124  1  0.69909252  0.09863224  0.87856543  1
  Ti  Ti125  1  0.49219888  0.50124700  0.11632640  1
  Ti  Ti126  1  0.40173298  0.17023832  0.49029925  1
  Ti  Ti127  1  0.10749974  0.69969297  0.11864185  1
  Ti  Ti128  1  0.00409284  0.00742507  0.26166536  1
  Ti  Ti129  1  0.61057446  0.19239201  0.26211782  1
  Ti  Ti130  1  0.30604434  0.70191247  0.38033449  1
  Ti  Ti131  1  0.71040553  0.28831196  0.38462469  1
  Ti  Ti132  1  0.89493301  0.90201502  0.87238280  1
  Ti  Ti133  1  0.28059044  0.89415842  0.12181841  1
  Ti  Ti134  1  0.30174019  0.07076461  0.35750164  1
  Ti  Ti135  1  0.81276215  0.40500290  0.74216648  1
  Ti  Ti136  1  0.90981473  0.30907589  0.87215886  1
  Ti  Ti137  1  0.40005307  0.79719198  0.00554931  1
  Ti  Ti138  1  0.40227262  0.79675724  0.23909386  1
  Ti  Ti139  1  0.79928641  0.00070643  0.72997527  1
  Ti  Ti140  1  0.29468106  0.50604046  0.37994959  1
  Ti  Ti141  1  0.59821497  0.00037214  0.24736065  1
  Ti  Ti142  1  0.01219499  0.80462550  0.51161437  1
  Ti  Ti143  1  0.39637635  0.60782468  0.50936674  1
  Ti  Ti144  1  0.70382940  0.69806953  0.38370988  1
  Ti  Ti145  1  0.60172831  0.41725970  0.75767819  1
  Ti  Ti146  1  0.51979553  0.10428183  0.11027850  1
  Ti  Ti147  1  0.01152486  0.01158148  0.49468275  1
  Ti  Ti148  1  -0.01256578  0.59820529  0.73887930  1
  Ti  Ti149  1  0.49848002  0.68580954  0.89130792  1
  Ti  Ti150  1  0.68925309  0.89891416  0.13012214  1
  Ti  Ti151  1  0.20249781  0.80252171  0.74959252  1
  Ti  Ti152  1  0.50426105  0.09944906  0.90003096  1
  Ti  Ti153  1  0.68407268  0.50201081  0.62521582  1
  Ti  Ti154  1  0.19527373  0.18930097  0.25635591  1
  Ti  Ti155  1  0.31596724  0.91047608  0.64443167  1
  Ti  Ti156  1  0.79295475  0.40049226  0.26406020  1
  Ti  Ti157  1  0.01083259  0.40770977  0.25561301  1
  Ti  Ti158  1  0.89446880  0.70688791  0.12167811  1
  Ti  Ti159  1  0.19525481  0.40088234  0.25254405  1
  Mo  Mo160  1  0.10122880  0.09674428  0.36649398  1
  Mo  Mo161  1  0.89481223  0.10274394  0.60569757  1
  Mo  Mo162  1  0.10339663  0.49489431  0.12225234  1
  Mo  Mo163  1  0.90040524  0.50204395  0.61781339  1
  Mo  Mo164  1  0.19320400  -0.00751285  0.25124961  1
  Mo  Mo165  1  0.79465959  0.20797146  0.26011525  1
  Mo  Mo166  1  0.30075195  0.88515658  0.36409517  1
  Mo  Mo167  1  0.40376906  0.80858956  0.75985862  1
  Mo  Mo168  1  0.91088924  0.70033748  0.61031886  1
  Mo  Mo169  1  0.70362325  0.50272957  0.37583423  1
  Mo  Mo170  1  0.79946391  0.00362172  -0.00381770  1
  Mo  Mo171  1  -0.01326740  0.40504437  0.75085298  1
  Mo  Mo172  1  0.60295906  0.58978576  0.74262232  1
  Mo  Mo173  1  0.59891410  0.60337787  -0.00110595  1
  Mo  Mo174  1  0.10736971  0.30369290  0.62141266  1
  Mo  Mo175  1  0.79956047  0.19834092  0.51299198  1
  Mo  Mo176  1  0.69926679  0.71095771  0.12841139  1
  Mo  Mo177  1  0.79109832  0.00201077  0.26712394  1
  Mo  Mo178  1  0.39567027  -0.00251737  0.76308273  1
  Mo  Mo179  1  0.69322703  0.09224307  0.36438601  1
  Mo  Mo180  1  0.48548053  0.89483656  0.62836601  1
  Mo  Mo181  1  0.80412956  0.60317365  0.51856077  1
  Mo  Mo182  1  0.01169150  0.20741636  0.49045859  1
  Mo  Mo183  1  0.59624477  0.80182816  0.49269645  1
  Mo  Mo184  1  0.90357795  0.10837109  0.13651229  1
  Mo  Mo185  1  0.00699046  0.60389032  0.51317393  1
  Mo  Mo186  1  0.70951318  0.49644884  0.86094618  1
  Mo  Mo187  1  0.19142112  0.60041677  0.74557581  1
  Mo  Mo188  1  0.09974940  0.90090020  0.12141398  1
  Mo  Mo189  1  0.69539607  0.69349116  0.61972766  1
  Mo  Mo190  1  0.50498314  0.50468780  0.60795474  1
  Mo  Mo191  1  0.40587933  0.58983073  -0.00585441  1
  Mo  Mo192  1  0.61081600  0.19070447  -0.00512566  1
  Mo  Mo193  1  0.39187141  0.00429192  0.49779311  1
  Mo  Mo194  1  0.60173794  0.40017122  0.49150594  1
  Mo  Mo195  1  0.10797147  0.49650567  0.37545665  1
  Mo  Mo196  1  0.39858121  0.20160292  0.00982158  1
  Mo  Mo197  1  0.49791240  0.50416771  0.87108644  1
  Mo  Mo198  1  0.50615858  0.89414486  0.12290803  1
  Mo  Mo199  1  0.49851395  0.09371945  0.36571817  1
