# generated using pymatgen
data_HfZrTaTiMo
_symmetry_space_group_name_H-M   'P 1'
_cell_length_a   15.23154160
_cell_length_b   15.19771444
_cell_length_c   16.83295768
_cell_angle_alpha   89.96062791
_cell_angle_beta   89.99382172
_cell_angle_gamma   90.13551653
_symmetry_Int_Tables_number   1
_chemical_formula_structural   HfZrTaTiMo
_chemical_formula_sum   'Hf40 Zr40 Ta40 Ti40 Mo40'
_cell_volume   3896.55896399
_cell_formula_units_Z   40
loop_
 _symmetry_equiv_pos_site_id
 _symmetry_equiv_pos_as_xyz
  1  'x, y, z'
loop_
 _atom_site_type_symbol
 _atom_site_label
 _atom_site_symmetry_multiplicity
 _atom_site_fract_x
 _atom_site_fract_y
 _atom_site_fract_z
 _atom_site_occupancy
  Hf  Hf0  1  0.88009897  0.27779709  0.37796878  1
  Hf  Hf1  1  0.20021932  0.19026952  0.49323140  1
  Hf  Hf2  1  0.20517037  0.20122422  -0.00471957  1
  Hf  Hf3  1  0.68547889  0.08101145  0.10970698  1
  Hf  Hf4  1  0.60149628  0.19281507  0.25122541  1
  Hf  Hf5  1  0.20074204  0.79402199  0.49822880  1
  Hf  Hf6  1  0.29871925  0.89128163  0.13058932  1
  Hf  Hf7  1  0.00006118  -0.01009277  -0.00270484  1
  Hf  Hf8  1  0.89326482  0.50261925  0.12509969  1
  Hf  Hf9  1  0.69825106  0.49343035  0.11636235  1
  Hf  Hf10  1  0.38425930  0.21593155  0.75694704  1
  Hf  Hf11  1  0.70591692  0.11142251  0.62265415  1
  Hf  Hf12  1  0.89845976  0.30197570  0.12420693  1
  Hf  Hf13  1  0.29350627  0.50245462  0.14543534  1
  Hf  Hf14  1  -0.00055924  0.61017157  0.27121274  1
  Hf  Hf15  1  0.88274617  0.89064785  0.11567961  1
  Hf  Hf16  1  0.30126547  0.49334220  0.61213601  1
  Hf  Hf17  1  0.10690304  0.68561955  0.87579353  1
  Hf  Hf18  1  0.80710031  0.60437708  0.76116523  1
  Hf  Hf19  1  -0.01520634  -0.01109453  0.75149810  1
  Hf  Hf20  1  0.71390043  0.70720852  0.62156950  1
  Hf  Hf21  1  0.61115745  0.59920483  0.26331832  1
  Hf  Hf22  1  0.08939797  0.10852591  0.86230825  1
  Hf  Hf23  1  0.20046282  0.17433801  0.26521958  1
  Hf  Hf24  1  0.29318297  0.90888471  0.37271381  1
  Hf  Hf25  1  0.10481772  0.68929147  0.62659108  1
  Hf  Hf26  1  0.09113153  0.28394109  0.37384655  1
  Hf  Hf27  1  0.30667548  0.49565048  0.36542201  1
  Hf  Hf28  1  0.38730425  0.39799862  -0.00673963  1
  Hf  Hf29  1  0.30334494  0.69863476  0.88375067  1
  Hf  Hf30  1  -0.01182007  0.39087580  0.49440209  1
  Hf  Hf31  1  0.49413618  0.10082547  0.63362349  1
  Hf  Hf32  1  0.31042523  0.89378272  0.87916383  1
  Hf  Hf33  1  0.80766775  0.79704042  0.26119028  1
  Hf  Hf34  1  0.39060774  0.60304053  0.00871778  1
  Hf  Hf35  1  0.40215935  0.00136985  -0.00503704  1
  Hf  Hf36  1  0.50894296  0.71336473  0.61829627  1
  Hf  Hf37  1  0.90108366  0.91757072  0.38042073  1
  Hf  Hf38  1  0.80820113  0.60731420  -0.01747479  1
  Hf  Hf39  1  0.52313194  0.90267792  0.87190349  1
  Zr  Zr40  1  -0.00016943  0.61966684  0.48167470  1
  Zr  Zr41  1  0.70617813  0.73116770  0.86950521  1
  Zr  Zr42  1  0.59609090  0.61234673  0.75515703  1
  Zr  Zr43  1  0.19263421  0.36765152  0.73499189  1
  Zr  Zr44  1  0.77986925  0.39540624  0.25705076  1
  Zr  Zr45  1  0.20039721  -0.00225768  0.74396295  1
  Zr  Zr46  1  0.80847402  0.39416254  -0.02053837  1
  Zr  Zr47  1  0.89318204  0.50980557  0.62068655  1
  Zr  Zr48  1  0.09819066  0.88425075  0.87350383  1
  Zr  Zr49  1  0.49872034  0.50411722  0.12921712  1
  Zr  Zr50  1  0.50238997  0.71063323  0.89010125  1
  Zr  Zr51  1  0.60418446  0.61156000  0.48033406  1
  Zr  Zr52  1  0.31713394  0.89890080  0.62099303  1
  Zr  Zr53  1  0.09265163  0.49055247  0.61188901  1
  Zr  Zr54  1  0.62352152  0.82195244  0.01547587  1
  Zr  Zr55  1  0.30192061  0.09668395  0.12344094  1
  Zr  Zr56  1  0.69697118  0.50097735  0.62672061  1
  Zr  Zr57  1  -0.01114115  0.00177880  0.23888622  1
  Zr  Zr58  1  0.71772911  0.10226675  0.39090736  1
  Zr  Zr59  1  0.49505751  0.51069950  0.62240283  1
  Zr  Zr60  1  0.69824069  0.28408838  0.10927862  1
  Zr  Zr61  1  0.50106304  0.10488623  0.86080918  1
  Zr  Zr62  1  0.71681630  0.69570408  0.12520697  1
  Zr  Zr63  1  0.50612508  0.91638808  0.12816551  1
  Zr  Zr64  1  -0.01444446  0.40119336  0.26520140  1
  Zr  Zr65  1  0.88206306  0.10002004  0.10636682  1
  Zr  Zr66  1  0.29890772  0.29972308  0.13350837  1
  Zr  Zr67  1  0.69611554  0.89549290  0.39623256  1
  Zr  Zr68  1  0.20297033  0.57581423  0.75061291  1
  Zr  Zr69  1  0.40598377  0.01072165  0.26020968  1
  Zr  Zr70  1  0.59823178  0.80026965  0.25251480  1
  Zr  Zr71  1  0.09278381  0.50510618  0.13827002  1
  Zr  Zr72  1  0.21279118  0.78979210  0.74298957  1
  Zr  Zr73  1  0.00198761  0.20950004  0.00089359  1
  Zr  Zr74  1  0.39227158  0.40928139  0.75942496  1
  Zr  Zr75  1  0.02413955  0.80050058  0.23250490  1
  Zr  Zr76  1  0.31737757  0.69272806  0.61503691  1
  Zr  Zr77  1  0.19249264  -0.00002352  0.50911216  1
  Zr  Zr78  1  0.90941635  0.28884443  0.86301536  1
  Zr  Zr79  1  0.59469232  0.20985485  0.51277687  1
  Ta  Ta80  1  0.59402752  0.40434571  0.49871451  1
  Ta  Ta81  1  0.30535205  0.29463458  0.37190334  1
  Ta  Ta82  1  0.59745442  0.40167793  0.75764605  1
  Ta  Ta83  1  0.91513630  0.70937090  0.87174683  1
  Ta  Ta84  1  0.10090840  0.09548636  0.12113564  1
  Ta  Ta85  1  0.40012425  0.01422102  0.49297760  1
  Ta  Ta86  1  0.69401566  0.10739554  0.88044612  1
  Ta  Ta87  1  0.07911279  0.88496271  0.62938350  1
  Ta  Ta88  1  0.19946365  0.38920697  0.49415355  1
  Ta  Ta89  1  0.10438158  0.49648777  0.37768036  1
  Ta  Ta90  1  0.42093311  0.80913847  0.47677034  1
  Ta  Ta91  1  0.00103222  0.59343226  0.75719371  1
  Ta  Ta92  1  0.40383530  0.20495237  -0.01282657  1
  Ta  Ta93  1  0.79116688  0.39844591  0.76180857  1
  Ta  Ta94  1  0.49300568  0.29920216  0.37712268  1
  Ta  Ta95  1  0.19528893  0.39251511  0.26201261  1
  Ta  Ta96  1  0.39688155  0.60620648  0.75913687  1
  Ta  Ta97  1  0.88679639  0.29906612  0.62949344  1
  Ta  Ta98  1  0.49488238  0.50637633  0.88206084  1
  Ta  Ta99  1  0.18121925  0.40117300  0.00342674  1
  Ta  Ta100  1  -0.00295184  0.18998772  0.24601188  1
  Ta  Ta101  1  0.40711930  0.20794866  0.25200587  1
  Ta  Ta102  1  0.00835718  0.78123634  0.01241213  1
  Ta  Ta103  1  0.68314098  0.29882614  0.37793347  1
  Ta  Ta104  1  0.80434747  0.60070824  0.47631882  1
  Ta  Ta105  1  0.69004405  0.50128012  0.87752449  1
  Ta  Ta106  1  0.90434020  0.10703973  0.63823560  1
  Ta  Ta107  1  0.10089494  0.29601917  0.13811393  1
  Ta  Ta108  1  0.30121774  0.11289435  0.62930424  1
  Ta  Ta109  1  0.49906197  0.30053338  0.11811009  1
  Ta  Ta110  1  0.20578922  0.59615592  0.48324166  1
  Ta  Ta111  1  0.50157376  0.49025622  0.36810474  1
  Ta  Ta112  1  0.39734138  0.79627135  0.26802533  1
  Ta  Ta113  1  0.80766719  0.59577116  0.27835683  1
  Ta  Ta114  1  0.78424383  0.39579107  0.49535118  1
  Ta  Ta115  1  0.09263606  0.89567813  0.37781153  1
  Ta  Ta116  1  0.39987834  0.39167750  0.49772194  1
  Ta  Ta117  1  -0.00726201  0.18370119  0.50648611  1
  Ta  Ta118  1  0.91470035  0.71837356  0.62897173  1
  Ta  Ta119  1  0.70445224  0.90388221  0.61305547  1
  Ti  Ti120  1  0.40839740  0.61134712  0.25836447  1
  Ti  Ti121  1  0.29171166  0.10255873  0.86838545  1
  Ti  Ti122  1  -0.00535841  0.39960879  0.74464723  1
  Ti  Ti123  1  0.09859583  0.10677465  0.63875307  1
  Ti  Ti124  1  0.80015754  0.17429252  0.24879090  1
  Ti  Ti125  1  0.60696288  0.21696849  0.74364240  1
  Ti  Ti126  1  0.40402998  0.60472339  0.47951059  1
  Ti  Ti127  1  0.60990179  -0.00193984  0.74261682  1
  Ti  Ti128  1  0.20353569  0.79451284  0.00991705  1
  Ti  Ti129  1  0.48997649  0.30889773  0.62846562  1
  Ti  Ti130  1  0.28152929  0.49281126  0.88043492  1
  Ti  Ti131  1  0.29520898  0.70074710  0.13417280  1
  Ti  Ti132  1  0.91228586  0.68750449  0.12306182  1
  Ti  Ti133  1  0.42079785  0.80023964  0.75102788  1
  Ti  Ti134  1  0.89212683  0.89056299  0.88244785  1
  Ti  Ti135  1  0.50845356  0.90305398  0.62541717  1
  Ti  Ti136  1  0.10647832  0.30551711  0.87195954  1
  Ti  Ti137  1  0.81768273  0.79655430  0.49791881  1
  Ti  Ti138  1  0.19905542  0.62131041  0.26708445  1
  Ti  Ti139  1  0.00296519  0.57819518  -0.01221449  1
  Ti  Ti140  1  0.77841301  -0.01903077  -0.01120650  1
  Ti  Ti141  1  0.48936026  0.71189011  0.12068259  1
  Ti  Ti142  1  0.50128749  0.10555168  0.38269900  1
  Ti  Ti143  1  0.81095823  0.81968751  0.74260351  1
  Ti  Ti144  1  0.59070409  -0.00195369  0.50220788  1
  Ti  Ti145  1  0.79372045  0.00460507  0.74964327  1
  Ti  Ti146  1  0.60014954  0.60268498  0.00051054  1
  Ti  Ti147  1  0.19033202  0.59494294  0.00754472  1
  Ti  Ti148  1  0.00344555  -0.00120347  0.51225731  1
  Ti  Ti149  1  0.88590400  0.09202675  0.87997239  1
  Ti  Ti150  1  0.18296362  -0.01595480  0.24653578  1
  Ti  Ti151  1  0.79423368  0.20349005  0.75516775  1
  Ti  Ti152  1  0.39865754  -0.00292097  0.75135348  1
  Ti  Ti153  1  0.81904552  0.01673453  0.51228278  1
  Ti  Ti154  1  0.49820434  0.11450389  0.11522310  1
  Ti  Ti155  1  0.50795248  0.30465073  0.87559153  1
  Ti  Ti156  1  0.59561752  0.39820662  -0.00818426  1
  Ti  Ti157  1  0.19563555  -0.00479085  -0.00211075  1
  Ti  Ti158  1  0.58622437  0.39214324  0.24886845  1
  Ti  Ti159  1  0.61414504  -0.00109756  0.26238370  1
  Mo  Mo160  1  0.70973831  0.70397839  0.38040317  1
  Mo  Mo161  1  0.58997946  0.20650119  -0.00659971  1
  Mo  Mo162  1  -0.00444339  0.79161899  0.75244110  1
  Mo  Mo163  1  0.10724159  0.90061584  0.11107310  1
  Mo  Mo164  1  0.60618547  0.80827047  0.50501126  1
  Mo  Mo165  1  0.70581871  0.90366734  0.13424731  1
  Mo  Mo166  1  0.50435835  0.70449124  0.37338947  1
  Mo  Mo167  1  0.69169777  0.29919422  0.87265868  1
  Mo  Mo168  1  0.90682637  0.71804512  0.37631590  1
  Mo  Mo169  1  0.89045955  0.90594543  0.62172225  1
  Mo  Mo170  1  0.00758960  0.40086313  -0.00003703  1
  Mo  Mo171  1  0.29226351  0.29814310  0.88302142  1
  Mo  Mo172  1  0.39742346  0.79820893  0.01236605  1
  Mo  Mo173  1  0.30804032  0.10519242  0.37707918  1
  Mo  Mo174  1  0.40300118  0.39829166  0.25173362  1
  Mo  Mo175  1  0.39822032  0.20228384  0.50425506  1
  Mo  Mo176  1  0.00307153  0.81280741  0.50156626  1
  Mo  Mo177  1  0.81786147  0.79822120  -0.00366196  1
  Mo  Mo178  1  0.91193026  0.09927551  0.37815369  1
  Mo  Mo179  1  0.69696607  0.31101312  0.63506111  1
  Mo  Mo180  1  0.08694461  0.28567044  0.61214481  1
  Mo  Mo181  1  0.61305305  0.81938313  0.73567769  1
  Mo  Mo182  1  0.50246475  0.91273990  0.37634315  1
  Mo  Mo183  1  0.11145864  0.69087602  0.11796155  1
  Mo  Mo184  1  0.19623841  0.19488770  0.74915379  1
  Mo  Mo185  1  0.59501197  0.01047921  -0.00822350  1
  Mo  Mo186  1  0.20573850  0.79890931  0.25234617  1
  Mo  Mo187  1  0.00469707  0.20929589  0.73711353  1
  Mo  Mo188  1  0.78805649  -0.00093333  0.25022660  1
  Mo  Mo189  1  0.30007873  0.29377137  0.61113425  1
  Mo  Mo190  1  0.90523729  0.49956135  0.86514271  1
  Mo  Mo191  1  0.80563833  0.20871280  0.51187937  1
  Mo  Mo192  1  0.79478283  0.19071520  -0.01572670  1
  Mo  Mo193  1  0.08779940  0.08076766  0.37607866  1
  Mo  Mo194  1  0.89809710  0.49289336  0.38536011  1
  Mo  Mo195  1  0.69612529  0.48892543  0.37585684  1
  Mo  Mo196  1  0.09270386  0.48531337  0.87398641  1
  Mo  Mo197  1  0.11109344  0.70974845  0.37679776  1
  Mo  Mo198  1  0.30703531  0.70094329  0.37724949  1
  Mo  Mo199  1  0.71263832  0.91699901  0.86236572  1
