# generated using pymatgen
data_HfZrTaTiMo
_symmetry_space_group_name_H-M   'P 1'
_cell_length_a   15.21187048
_cell_length_b   15.21152646
_cell_length_c   16.83917171
_cell_angle_alpha   90.01025341
_cell_angle_beta   90.02085509
_cell_angle_gamma   90.00598444
_symmetry_Int_Tables_number   1
_chemical_formula_structural   HfZrTaTiMo
_chemical_formula_sum   'Hf40 Zr40 Ta40 Ti40 Mo40'
_cell_volume   3896.51276922
_cell_formula_units_Z   40
loop_
 _symmetry_equiv_pos_site_id
 _symmetry_equiv_pos_as_xyz
  1  'x, y, z'
loop_
 _atom_site_type_symbol
 _atom_site_label
 _atom_site_symmetry_multiplicity
 _atom_site_fract_x
 _atom_site_fract_y
 _atom_site_fract_z
 _atom_site_occupancy
  Hf  Hf0  1  0.39431930  0.81287642  0.01004282  1
  Hf  Hf1  1  0.59723492  0.20340014  0.73866918  1
  Hf  Hf2  1  -0.00102369  0.20312954  0.75560118  1
  Hf  Hf3  1  0.50795989  0.69009095  0.11619419  1
  Hf  Hf4  1  0.39511475  0.59048695  0.75826828  1
  Hf  Hf5  1  0.39059385  0.59958261  -0.01232334  1
  Hf  Hf6  1  0.01272560  0.79986287  0.74904823  1
  Hf  Hf7  1  0.39863349  -0.00597040  0.73185951  1
  Hf  Hf8  1  0.56954461  0.40781788  0.25486664  1
  Hf  Hf9  1  0.08920300  0.29817335  0.61226428  1
  Hf  Hf10  1  0.80140848  0.78342033  0.24622240  1
  Hf  Hf11  1  0.71087402  0.70977468  0.88097585  1
  Hf  Hf12  1  0.29798797  0.47867138  0.12158736  1
  Hf  Hf13  1  0.30295165  0.10016133  0.86612803  1
  Hf  Hf14  1  0.10150813  0.49339846  0.37164526  1
  Hf  Hf15  1  0.49110581  0.48957735  0.10900581  1
  Hf  Hf16  1  0.49854424  0.71023310  0.87557349  1
  Hf  Hf17  1  0.89821685  0.89798963  0.88364353  1
  Hf  Hf18  1  0.49186962  0.90516807  0.86915116  1
  Hf  Hf19  1  0.68136775  0.29621833  0.36640205  1
  Hf  Hf20  1  0.90913310  0.90916862  0.62006160  1
  Hf  Hf21  1  0.89766610  0.69660184  0.62097099  1
  Hf  Hf22  1  -0.00407872  0.00336388  0.75543812  1
  Hf  Hf23  1  0.70101233  0.90534371  0.87565891  1
  Hf  Hf24  1  0.30723418  0.71441754  0.63470312  1
  Hf  Hf25  1  0.09367794  0.29449221  0.38717711  1
  Hf  Hf26  1  0.31586362  0.48944139  0.37433465  1
  Hf  Hf27  1  0.92415701  0.09084466  0.36247217  1
  Hf  Hf28  1  0.00626241  0.60204220  0.49294315  1
  Hf  Hf29  1  0.69163190  0.51676963  0.12957937  1
  Hf  Hf30  1  0.81190779  -0.01501256  0.24221431  1
  Hf  Hf31  1  0.00983215  0.80461596  0.50018762  1
  Hf  Hf32  1  0.60672183  -0.00091190  0.72603865  1
  Hf  Hf33  1  0.89582751  0.89272156  0.38172913  1
  Hf  Hf34  1  0.79320535  0.20211996  0.00962517  1
  Hf  Hf35  1  0.80402570  0.00710896  0.51018843  1
  Hf  Hf36  1  0.59729318  0.60190199  0.50098435  1
  Hf  Hf37  1  0.70546432  0.48667743  0.87557722  1
  Hf  Hf38  1  0.11413653  0.89618919  0.88000578  1
  Hf  Hf39  1  0.40656347  0.79116587  0.25065921  1
  Zr  Zr40  1  0.89691788  0.47796269  0.61442785  1
  Zr  Zr41  1  0.09048859  0.50958704  0.88611853  1
  Zr  Zr42  1  0.40481546  0.22329874  0.27715016  1
  Zr  Zr43  1  0.60377578  0.00368358  0.00211292  1
  Zr  Zr44  1  0.60066990  -0.00246889  0.51635088  1
  Zr  Zr45  1  0.60318592  0.79977066  0.24106734  1
  Zr  Zr46  1  0.09301153  0.49735425  0.12544860  1
  Zr  Zr47  1  0.79722195  0.80496394  0.74014494  1
  Zr  Zr48  1  0.41484546  0.00423703  0.27202670  1
  Zr  Zr49  1  0.70480050  0.10280134  0.86686116  1
  Zr  Zr50  1  0.59026392  0.20206995  -0.00033290  1
  Zr  Zr51  1  0.60040475  0.59897136  0.76219658  1
  Zr  Zr52  1  0.79362795  0.41000381  0.24595904  1
  Zr  Zr53  1  0.20703981  0.61131643  0.49158757  1
  Zr  Zr54  1  0.00017101  0.59962596  0.74840199  1
  Zr  Zr55  1  0.29690534  0.90750741  0.14705237  1
  Zr  Zr56  1  0.20965008  -0.00102807  0.00388602  1
  Zr  Zr57  1  0.29137582  0.09857665  0.61733114  1
  Zr  Zr58  1  0.89951895  0.49598733  0.37627220  1
  Zr  Zr59  1  0.80406600  0.20140995  0.50807114  1
  Zr  Zr60  1  0.11341767  0.30748239  0.88014222  1
  Zr  Zr61  1  0.20923291  0.80424620  0.48818989  1
  Zr  Zr62  1  0.08888400  0.90818835  0.35194171  1
  Zr  Zr63  1  0.30758175  0.11849040  0.13595193  1
  Zr  Zr64  1  0.20401215  0.59629114  0.25122048  1
  Zr  Zr65  1  -0.00166740  0.20892931  -0.00432052  1
  Zr  Zr66  1  -0.02628520  0.60260006  0.24274213  1
  Zr  Zr67  1  0.78131928  0.40588210  0.48502044  1
  Zr  Zr68  1  0.80489790  0.59593887  0.00075777  1
  Zr  Zr69  1  0.89753174  0.28893448  0.36059614  1
  Zr  Zr70  1  -0.01203255  0.39627172  0.75581504  1
  Zr  Zr71  1  0.79279277  0.60783995  0.49689834  1
  Zr  Zr72  1  0.10565999  0.50868879  0.62029992  1
  Zr  Zr73  1  0.60157754  0.38829741  -0.00443075  1
  Zr  Zr74  1  0.50949544  0.10544027  0.14468469  1
  Zr  Zr75  1  0.20553806  0.40250545  0.73860700  1
  Zr  Zr76  1  0.70871267  0.09659252  0.35906878  1
  Zr  Zr77  1  0.19498602  0.60861755  0.00283249  1
  Zr  Zr78  1  0.69781801  0.31466386  0.62161403  1
  Zr  Zr79  1  0.39316413  -0.00970308  0.49456422  1
  Ta  Ta80  1  0.38476508  0.36628137  -0.01494966  1
  Ta  Ta81  1  0.41987654  0.58622733  0.25172904  1
  Ta  Ta82  1  0.70300689  0.09806266  0.14500869  1
  Ta  Ta83  1  0.89773832  0.10052060  0.87908378  1
  Ta  Ta84  1  0.11726593  0.29886200  0.12047243  1
  Ta  Ta85  1  0.09521884  0.71450585  0.13947456  1
  Ta  Ta86  1  0.68333186  0.70644122  0.37590055  1
  Ta  Ta87  1  0.29663144  0.89688339  0.36135522  1
  Ta  Ta88  1  0.49681411  0.49127051  0.62617581  1
  Ta  Ta89  1  0.00619879  0.79720063  0.00806891  1
  Ta  Ta90  1  0.00320917  0.00235121  0.00524863  1
  Ta  Ta91  1  0.90603905  0.30131558  0.13656344  1
  Ta  Ta92  1  0.29463072  0.72593949  0.86673504  1
  Ta  Ta93  1  0.50553773  0.69509284  0.63088260  1
  Ta  Ta94  1  0.40091185  0.59777421  0.50481181  1
  Ta  Ta95  1  0.59801908  0.59898775  -0.01398234  1
  Ta  Ta96  1  0.10626878  0.10420834  0.11981688  1
  Ta  Ta97  1  0.40083876  0.38824999  0.75042966  1
  Ta  Ta98  1  0.90973527  0.69741068  0.88230906  1
  Ta  Ta99  1  0.90664451  0.10033033  0.12986572  1
  Ta  Ta100  1  0.70869947  0.89494517  0.11683917  1
  Ta  Ta101  1  0.19919426  -0.00679298  0.75074635  1
  Ta  Ta102  1  0.59094258  0.39479930  0.75865035  1
  Ta  Ta103  1  0.20218589  0.61014652  0.75760637  1
  Ta  Ta104  1  0.30253190  0.30517670  0.60749961  1
  Ta  Ta105  1  0.51476614  0.88396048  0.38333446  1
  Ta  Ta106  1  0.49584989  0.10560367  0.86543299  1
  Ta  Ta107  1  0.10291382  0.09983510  0.87879195  1
  Ta  Ta108  1  0.80778907  0.19569144  0.73699705  1
  Ta  Ta109  1  0.80526717  0.59396883  0.75359804  1
  Ta  Ta110  1  0.18342606  -0.00011429  0.48821584  1
  Ta  Ta111  1  0.49457634  0.30131075  0.61003662  1
  Ta  Ta112  1  0.69307469  0.50977944  0.63616239  1
  Ta  Ta113  1  0.29938455  0.69521870  0.13456514  1
  Ta  Ta114  1  0.28987311  0.48554293  0.87906451  1
  Ta  Ta115  1  0.40667665  0.01336269  0.00167227  1
  Ta  Ta116  1  0.22243946  0.21137993  -0.00312042  1
  Ta  Ta117  1  0.80447212  0.39160006  0.01407142  1
  Ta  Ta118  1  0.29403154  0.30003953  0.40236848  1
  Ta  Ta119  1  0.20048066  0.79930472  0.01252151  1
  Ti  Ti120  1  0.09221993  0.71187575  0.35017070  1
  Ti  Ti121  1  0.69845285  0.89869932  0.37902728  1
  Ti  Ti122  1  0.52120446  0.10601550  0.37631251  1
  Ti  Ti123  1  0.20028621  0.41018598  0.50693309  1
  Ti  Ti124  1  0.10120784  0.70525240  0.87848204  1
  Ti  Ti125  1  -0.00850510  0.40284289  0.00788278  1
  Ti  Ti126  1  0.09153272  0.09020691  0.62516563  1
  Ti  Ti127  1  0.09964343  0.90296000  0.13829991  1
  Ti  Ti128  1  0.20120913  0.19785029  0.74302354  1
  Ti  Ti129  1  0.11791985  0.90241921  0.62578036  1
  Ti  Ti130  1  0.40777674  0.78687452  0.48852611  1
  Ti  Ti131  1  0.68718727  0.29348138  0.14351130  1
  Ti  Ti132  1  0.30670634  0.69770210  0.36323163  1
  Ti  Ti133  1  0.29176897  0.10185877  0.38033540  1
  Ti  Ti134  1  0.80719998  0.00181470  0.01107510  1
  Ti  Ti135  1  0.40579133  0.19161513  0.49699007  1
  Ti  Ti136  1  0.89733708  0.49147481  0.88036747  1
  Ti  Ti137  1  0.39933840  0.20342076  0.73624261  1
  Ti  Ti138  1  0.79553913  0.38815505  0.75290837  1
  Ti  Ti139  1  0.19262573  0.01805372  0.25665515  1
  Ti  Ti140  1  -0.00521366  0.60290063  0.01374444  1
  Ti  Ti141  1  0.01673455  0.19484013  0.24122211  1
  Ti  Ti142  1  0.59656268  0.80254956  0.73867638  1
  Ti  Ti143  1  0.19321031  0.19075693  0.50022787  1
  Ti  Ti144  1  0.00732360  0.39446773  0.24324331  1
  Ti  Ti145  1  0.50785935  0.90998714  0.12815528  1
  Ti  Ti146  1  0.88605380  0.70104190  0.11765544  1
  Ti  Ti147  1  0.60271783  0.19724746  0.51161044  1
  Ti  Ti148  1  0.48669803  0.88141879  0.61763706  1
  Ti  Ti149  1  -0.00346056  0.18132633  0.50415135  1
  Ti  Ti150  1  0.20260911  0.20619825  0.25948813  1
  Ti  Ti151  1  0.20852623  0.38439897  0.25592083  1
  Ti  Ti152  1  0.49033529  0.32146416  0.40341120  1
  Ti  Ti153  1  0.60672659  0.80061326  0.00656485  1
  Ti  Ti154  1  0.47587386  0.29625655  0.12811505  1
  Ti  Ti155  1  0.89421371  0.70307603  0.37673872  1
  Ti  Ti156  1  0.77612448  0.80163136  0.51146060  1
  Ti  Ti157  1  0.91038751  0.89388447  0.11794461  1
  Ti  Ti158  1  0.10995308  0.70836420  0.62855051  1
  Ti  Ti159  1  0.49126504  0.48414258  0.88202956  1
  Mo  Mo160  1  0.49789373  0.29092874  0.86441141  1
  Mo  Mo161  1  -0.00083181  0.38824831  0.49685679  1
  Mo  Mo162  1  0.49510300  0.11035636  0.61607067  1
  Mo  Mo163  1  0.20117603  0.79824095  0.25120552  1
  Mo  Mo164  1  -0.01136337  0.80493925  0.23667077  1
  Mo  Mo165  1  0.30722773  0.50419868  0.62684778  1
  Mo  Mo166  1  0.59951461  0.60525603  0.25478802  1
  Mo  Mo167  1  0.00527833  0.00457526  0.22820961  1
  Mo  Mo168  1  0.38992490  0.39921812  0.25613962  1
  Mo  Mo169  1  0.80742623  0.80608636  0.00393513  1
  Mo  Mo170  1  0.30637775  0.29076592  0.86008958  1
  Mo  Mo171  1  0.40462753  0.19009332  -0.00408564  1
  Mo  Mo172  1  0.40720860  0.79977047  0.74613650  1
  Mo  Mo173  1  0.89620675  0.49604421  0.12668080  1
  Mo  Mo174  1  0.50442446  0.50436835  0.38536783  1
  Mo  Mo175  1  0.70952882  0.29762021  0.86755214  1
  Mo  Mo176  1  0.39478062  0.40765757  0.51152666  1
  Mo  Mo177  1  0.30135124  0.29651156  0.12895898  1
  Mo  Mo178  1  0.60729902  -0.00829349  0.25604540  1
  Mo  Mo179  1  0.90215515  0.29869558  0.61887042  1
  Mo  Mo180  1  0.80475011  0.01048279  0.73918459  1
  Mo  Mo181  1  0.10530710  0.10621847  0.37090063  1
  Mo  Mo182  1  0.78269172  0.60715929  0.25548790  1
  Mo  Mo183  1  0.70533793  0.10024373  0.63044107  1
  Mo  Mo184  1  0.49268790  0.69583185  0.37739759  1
  Mo  Mo185  1  0.69567325  0.69644472  0.63328658  1
  Mo  Mo186  1  0.59540664  0.79645350  0.50735813  1
  Mo  Mo187  1  0.01008806  0.00157329  0.50348714  1
  Mo  Mo188  1  0.70031343  0.89143759  0.62327147  1
  Mo  Mo189  1  0.80555473  0.19914349  0.23563704  1
  Mo  Mo190  1  0.59864899  0.20548738  0.25326608  1
  Mo  Mo191  1  0.59346056  0.40799094  0.49953794  1
  Mo  Mo192  1  0.30554877  0.90372120  0.87726185  1
  Mo  Mo193  1  0.29465270  0.89891258  0.61751542  1
  Mo  Mo194  1  0.69694858  0.70473878  0.10985858  1
  Mo  Mo195  1  0.68591948  0.51149648  0.36111537  1
  Mo  Mo196  1  0.87961859  0.30326640  0.88002620  1
  Mo  Mo197  1  0.20551031  0.80738471  0.74924721  1
  Mo  Mo198  1  0.91010627  0.10505945  0.62834608  1
  Mo  Mo199  1  0.19719291  0.39471727  -0.00213271  1
