# generated using pymatgen
data_HfZrTaTiMo
_symmetry_space_group_name_H-M   'P 1'
_cell_length_a   15.18651721
_cell_length_b   15.18245960
_cell_length_c   16.83902055
_cell_angle_alpha   90.03577370
_cell_angle_beta   89.97354449
_cell_angle_gamma   89.99088587
_symmetry_Int_Tables_number   1
_chemical_formula_structural   HfZrTaTiMo
_chemical_formula_sum   'Hf40 Zr40 Ta40 Ti40 Mo40'
_cell_volume   3882.54958859
_cell_formula_units_Z   40
loop_
 _symmetry_equiv_pos_site_id
 _symmetry_equiv_pos_as_xyz
  1  'x, y, z'
loop_
 _atom_site_type_symbol
 _atom_site_label
 _atom_site_symmetry_multiplicity
 _atom_site_fract_x
 _atom_site_fract_y
 _atom_site_fract_z
 _atom_site_occupancy
  Hf  Hf0  1  0.30582019  0.69662071  0.36614623  1
  Hf  Hf1  1  0.40857463  0.81423993  0.50291319  1
  Hf  Hf2  1  0.89340352  0.29313897  0.12561460  1
  Hf  Hf3  1  0.79981553  0.39564404  0.74692904  1
  Hf  Hf4  1  0.80084061  0.19549693  0.75058550  1
  Hf  Hf5  1  0.29841282  0.11737776  0.10611674  1
  Hf  Hf6  1  0.50975632  0.28678945  0.39104608  1
  Hf  Hf7  1  0.39685255  0.60603652  0.51364559  1
  Hf  Hf8  1  0.89560513  0.70532574  0.11702077  1
  Hf  Hf9  1  0.49974959  0.29970848  0.12544495  1
  Hf  Hf10  1  0.08754283  0.69638622  0.37606916  1
  Hf  Hf11  1  0.50514766  0.90432766  0.85210565  1
  Hf  Hf12  1  0.49515833  0.09745138  0.87400664  1
  Hf  Hf13  1  0.09814245  0.69614460  0.13452120  1
  Hf  Hf14  1  0.00067459  0.18656572  0.24234156  1
  Hf  Hf15  1  0.60520308  0.20515442  0.73168444  1
  Hf  Hf16  1  0.00155976  -0.01016011  0.25031287  1
  Hf  Hf17  1  0.48667767  0.51157774  0.12935180  1
  Hf  Hf18  1  0.30691691  0.90088124  0.11798535  1
  Hf  Hf19  1  0.91053732  0.29553321  0.87656350  1
  Hf  Hf20  1  0.90399593  0.49896957  0.11774831  1
  Hf  Hf21  1  0.01209552  0.17662939  0.74914131  1
  Hf  Hf22  1  0.10045949  0.27585894  0.38002059  1
  Hf  Hf23  1  0.50347377  0.89806425  0.63657039  1
  Hf  Hf24  1  0.92176818  0.70185774  0.89070665  1
  Hf  Hf25  1  0.70222359  0.89827187  0.85768100  1
  Hf  Hf26  1  0.19387028  0.40394671  0.25422206  1
  Hf  Hf27  1  0.81847979  0.79632515  0.74383288  1
  Hf  Hf28  1  0.60960548  0.20277706  0.00174290  1
  Hf  Hf29  1  0.89904877  0.50832736  0.38826708  1
  Hf  Hf30  1  0.30715011  0.92024928  0.37861577  1
  Hf  Hf31  1  0.59416704  0.61750938  0.25038373  1
  Hf  Hf32  1  0.50100023  0.69859908  0.86046827  1
  Hf  Hf33  1  0.59545801  -0.01566734  0.24799071  1
  Hf  Hf34  1  0.19479568  0.00558202  0.23868310  1
  Hf  Hf35  1  0.18835653  0.80568810  0.75189483  1
  Hf  Hf36  1  0.28909228  0.70039481  0.87026469  1
  Hf  Hf37  1  0.51393577  0.31568140  0.87058464  1
  Hf  Hf38  1  0.90154921  0.28376802  0.61839674  1
  Hf  Hf39  1  -0.00286661  0.39574872  0.25491391  1
  Zr  Zr40  1  0.69939617  0.09327430  0.87122197  1
  Zr  Zr41  1  0.39734522  0.20630189  0.74952235  1
  Zr  Zr42  1  0.60512512  0.40312416  0.26031478  1
  Zr  Zr43  1  -0.00095236  0.38860980  0.49643069  1
  Zr  Zr44  1  0.19252892  0.81364881  0.48763853  1
  Zr  Zr45  1  0.29492577  0.91448449  0.88112545  1
  Zr  Zr46  1  0.79355067  0.59283177  -0.00658594  1
  Zr  Zr47  1  0.09971114  0.50461769  0.87773394  1
  Zr  Zr48  1  0.68656159  0.10285764  0.38090947  1
  Zr  Zr49  1  0.30776000  0.50179688  0.86379738  1
  Zr  Zr50  1  0.18121275  0.01239428  0.75094053  1
  Zr  Zr51  1  0.29401416  0.71332138  0.62494037  1
  Zr  Zr52  1  0.40893543  0.80973568  -0.00970782  1
  Zr  Zr53  1  0.81678045  0.00318427  0.48622915  1
  Zr  Zr54  1  0.91103311  0.08027752  0.87884795  1
  Zr  Zr55  1  0.07971225  0.70738952  0.60971536  1
  Zr  Zr56  1  -0.00336704  0.60678410  0.74475987  1
  Zr  Zr57  1  0.18900684  0.59026611  0.50863929  1
  Zr  Zr58  1  0.01056524  0.18552834  0.01328898  1
  Zr  Zr59  1  0.69810993  0.86869059  0.13742740  1
  Zr  Zr60  1  0.60831864  -0.01076799  0.51443789  1
  Zr  Zr61  1  0.40020283  0.40288208  0.49978367  1
  Zr  Zr62  1  0.80177314  0.19112118  0.00027503  1
  Zr  Zr63  1  0.42154587  0.81118199  0.25887714  1
  Zr  Zr64  1  0.59220362  0.19382159  0.24903563  1
  Zr  Zr65  1  0.48150815  0.09128197  0.39985671  1
  Zr  Zr66  1  0.51641206  0.72750824  0.11752627  1
  Zr  Zr67  1  0.59565182  -0.02145676  0.00865245  1
  Zr  Zr68  1  0.90221924  0.49444316  0.87891790  1
  Zr  Zr69  1  0.30500255  0.31225180  0.12420328  1
  Zr  Zr70  1  0.59245907  0.60167118  -0.00777511  1
  Zr  Zr71  1  0.40197179  0.40498501  0.25986777  1
  Zr  Zr72  1  0.79595867  0.39420713  0.26460325  1
  Zr  Zr73  1  0.20550125  0.39574800  0.49878199  1
  Zr  Zr74  1  0.30466461  0.69414565  0.13746711  1
  Zr  Zr75  1  0.79484507  0.60944687  0.25311910  1
  Zr  Zr76  1  0.40132257  0.02529194  0.24492467  1
  Zr  Zr77  1  0.49533072  0.51743820  0.38174700  1
  Zr  Zr78  1  0.90252379  0.50306771  0.61178232  1
  Zr  Zr79  1  0.10994617  0.27109615  0.61660469  1
  Ta  Ta80  1  0.89786792  0.89627452  0.88448360  1
  Ta  Ta81  1  0.08374511  0.89903538  0.88772838  1
  Ta  Ta82  1  0.20338523  0.40254879  0.00053258  1
  Ta  Ta83  1  0.79724492  0.59484696  0.74887979  1
  Ta  Ta84  1  0.19089490  0.59671422  0.73824726  1
  Ta  Ta85  1  0.60500215  0.39844232  0.73490422  1
  Ta  Ta86  1  0.71083862  0.09250142  0.13478000  1
  Ta  Ta87  1  0.19940449  0.38972978  0.74656369  1
  Ta  Ta88  1  0.69641782  0.49745136  0.12451932  1
  Ta  Ta89  1  0.19044906  0.80916157  0.25690500  1
  Ta  Ta90  1  0.70189589  0.69795764  0.85725631  1
  Ta  Ta91  1  0.10738348  0.29932334  0.12161461  1
  Ta  Ta92  1  0.59755884  0.58783791  0.74428245  1
  Ta  Ta93  1  0.79084040  0.80752801  0.50775583  1
  Ta  Ta94  1  0.80526618  -0.00514864  0.26291771  1
  Ta  Ta95  1  0.00993142  0.39275469  0.74046065  1
  Ta  Ta96  1  0.29954283  0.30396537  0.87577436  1
  Ta  Ta97  1  0.69701138  0.69765009  0.63561781  1
  Ta  Ta98  1  0.68663476  0.48685780  0.86741587  1
  Ta  Ta99  1  0.29287840  0.10944360  0.88822125  1
  Ta  Ta100  1  0.27655814  0.11123740  0.62514292  1
  Ta  Ta101  1  0.18470649  0.00244429  0.01228180  1
  Ta  Ta102  1  0.39276337  0.80542108  0.74594675  1
  Ta  Ta103  1  0.88733092  0.71088685  0.38807028  1
  Ta  Ta104  1  0.78826244  0.38883478  -0.00344087  1
  Ta  Ta105  1  0.38895796  0.00943974  0.73767124  1
  Ta  Ta106  1  0.29837527  0.49406932  0.63692844  1
  Ta  Ta107  1  0.91729481  0.90726000  0.61639200  1
  Ta  Ta108  1  0.78497693  0.79707539  -0.00607329  1
  Ta  Ta109  1  0.30599761  0.29213162  0.36990157  1
  Ta  Ta110  1  0.30580924  0.29971817  0.63213174  1
  Ta  Ta111  1  0.19124169  0.01886378  0.49646320  1
  Ta  Ta112  1  0.40010759  0.60294456  0.73661764  1
  Ta  Ta113  1  0.40582389  0.41407903  -0.00576416  1
  Ta  Ta114  1  0.78251460  0.60841137  0.50160781  1
  Ta  Ta115  1  0.60170418  0.40299647  0.00347532  1
  Ta  Ta116  1  0.40513465  0.21287621  -0.01087347  1
  Ta  Ta117  1  0.18244472  0.79784810  0.00150062  1
  Ta  Ta118  1  0.81069929  0.20813627  0.48153946  1
  Ta  Ta119  1  0.80189408  -0.01078531  0.01109244  1
  Ti  Ti120  1  0.00786530  -0.00368550  0.47503638  1
  Ti  Ti121  1  0.69275268  0.51093668  0.38825979  1
  Ti  Ti122  1  0.29102342  0.50960387  0.13086479  1
  Ti  Ti123  1  0.52090967  0.70922825  0.39299310  1
  Ti  Ti124  1  0.10965176  0.29401654  0.87746432  1
  Ti  Ti125  1  0.41238226  0.40769943  0.74470798  1
  Ti  Ti126  1  0.70892094  0.89610013  0.63513372  1
  Ti  Ti127  1  0.50525102  0.50060097  0.61997472  1
  Ti  Ti128  1  0.38441501  0.19861413  0.51123183  1
  Ti  Ti129  1  0.70710304  0.87412510  0.37158217  1
  Ti  Ti130  1  0.50345469  0.30294144  0.61279968  1
  Ti  Ti131  1  0.70108591  0.49985878  0.61764126  1
  Ti  Ti132  1  0.29274828  0.50780374  0.36852449  1
  Ti  Ti133  1  -0.00222492  0.59673432  0.25218906  1
  Ti  Ti134  1  0.49717904  0.09705317  0.11180816  1
  Ti  Ti135  1  0.81994885  0.00172213  0.73741435  1
  Ti  Ti136  1  0.71885889  0.10639081  0.61266589  1
  Ti  Ti137  1  0.60893074  0.40473562  0.49978307  1
  Ti  Ti138  1  0.70558727  0.30316529  0.60369824  1
  Ti  Ti139  1  0.10183518  0.50060770  0.12368268  1
  Ti  Ti140  1  -0.01041786  0.80006705  0.25671597  1
  Ti  Ti141  1  0.49066270  0.10256695  0.61618695  1
  Ti  Ti142  1  0.50883651  0.70330446  0.62937264  1
  Ti  Ti143  1  0.19515429  0.60042915  -0.00034161  1
  Ti  Ti144  1  0.29093557  0.11398983  0.37830491  1
  Ti  Ti145  1  0.00323305  0.80852274  0.75115150  1
  Ti  Ti146  1  0.20501051  0.19768829  0.24518342  1
  Ti  Ti147  1  0.51697227  0.89984059  0.38889132  1
  Ti  Ti148  1  0.89421193  0.70416423  0.60680561  1
  Ti  Ti149  1  -0.00158780  -0.01117220  0.02613881  1
  Ti  Ti150  1  0.89426237  0.89618060  0.12938051  1
  Ti  Ti151  1  0.39240878  0.60203203  -0.00466495  1
  Ti  Ti152  1  0.70032242  0.29735632  0.13139941  1
  Ti  Ti153  1  0.09854894  0.90780534  0.61706114  1
  Ti  Ti154  1  0.29467404  0.91428277  0.62179537  1
  Ti  Ti155  1  0.00655023  0.39826984  0.00347344  1
  Ti  Ti156  1  0.60910649  0.01195662  0.73276352  1
  Ti  Ti157  1  0.09788033  0.50296204  0.37412874  1
  Ti  Ti158  1  0.80078782  0.19527494  0.26774024  1
  Ti  Ti159  1  0.10625689  0.09675286  0.88692597  1
  Mo  Mo160  1  0.90156536  0.89297252  0.37319665  1
  Mo  Mo161  1  0.20014177  0.20162004  0.76102996  1
  Mo  Mo162  1  0.11088499  0.09236097  0.36744382  1
  Mo  Mo163  1  0.10385422  0.70546933  0.87905613  1
  Mo  Mo164  1  0.20391858  0.19894073  0.49660631  1
  Mo  Mo165  1  0.10260108  0.09964775  0.12361863  1
  Mo  Mo166  1  0.10450194  0.89641982  0.37052638  1
  Mo  Mo167  1  -0.00380893  -0.02021898  0.75145687  1
  Mo  Mo168  1  0.08010126  0.08057740  0.61484418  1
  Mo  Mo169  1  0.39519133  0.20167772  0.25308217  1
  Mo  Mo170  1  0.39752107  0.01130706  -0.00167673  1
  Mo  Mo171  1  0.90748231  0.10279977  0.36779114  1
  Mo  Mo172  1  0.50030484  0.50209784  0.86566525  1
  Mo  Mo173  1  0.19174063  0.59661708  0.25466023  1
  Mo  Mo174  1  0.59706813  0.60006406  0.51697492  1
  Mo  Mo175  1  0.49869123  0.90698450  0.12383581  1
  Mo  Mo176  1  0.60524070  0.79473066  0.74104447  1
  Mo  Mo177  1  -0.00797534  0.60118538  0.49679933  1
  Mo  Mo178  1  0.90012764  0.29507056  0.37369861  1
  Mo  Mo179  1  0.88744579  0.08651642  0.13404306  1
  Mo  Mo180  1  0.70601177  0.68836566  0.12146733  1
  Mo  Mo181  1  -0.01405088  0.81172290  0.49189021  1
  Mo  Mo182  1  0.61054614  0.79518742  -0.01656069  1
  Mo  Mo183  1  0.60315203  0.20102742  0.52259479  1
  Mo  Mo184  1  0.01698844  0.59900590  0.00864243  1
  Mo  Mo185  1  0.69601525  0.69802343  0.38575963  1
  Mo  Mo186  1  0.70392815  0.30511250  0.87223312  1
  Mo  Mo187  1  -0.00114560  0.17047876  0.49081677  1
  Mo  Mo188  1  0.39333594  0.60584913  0.25252982  1
  Mo  Mo189  1  0.38779039  0.00650171  0.52211987  1
  Mo  Mo190  1  0.90581009  0.09474676  0.61787581  1
  Mo  Mo191  1  0.10069205  0.49066718  0.63304694  1
  Mo  Mo192  1  0.80710556  0.79989753  0.25684007  1
  Mo  Mo193  1  0.19936902  0.21189486  -0.00601819  1
  Mo  Mo194  1  0.61113085  0.79391426  0.51323661  1
  Mo  Mo195  1  -0.00471479  0.80865315  0.00928454  1
  Mo  Mo196  1  0.60898863  0.79694909  0.26294134  1
  Mo  Mo197  1  0.79315252  0.40102683  0.49189187  1
  Mo  Mo198  1  0.69970146  0.30533933  0.39299149  1
  Mo  Mo199  1  0.09594661  0.88819689  0.12496543  1
