# generated using pymatgen
data_HfZrTaTiMo
_symmetry_space_group_name_H-M   'P 1'
_cell_length_a   15.19191906
_cell_length_b   15.20049147
_cell_length_c   16.85951730
_cell_angle_alpha   90.00123949
_cell_angle_beta   90.01351722
_cell_angle_gamma   89.92323635
_symmetry_Int_Tables_number   1
_chemical_formula_structural   HfZrTaTiMo
_chemical_formula_sum   'Hf40 Zr40 Ta40 Ti40 Mo40'
_cell_volume   3893.27429211
_cell_formula_units_Z   40
loop_
 _symmetry_equiv_pos_site_id
 _symmetry_equiv_pos_as_xyz
  1  'x, y, z'
loop_
 _atom_site_type_symbol
 _atom_site_label
 _atom_site_symmetry_multiplicity
 _atom_site_fract_x
 _atom_site_fract_y
 _atom_site_fract_z
 _atom_site_occupancy
  Hf  Hf0  1  0.59506995  0.40248427  0.25328686  1
  Hf  Hf1  1  0.39644941  0.40143213  0.49884668  1
  Hf  Hf2  1  0.80102603  0.60056766  -0.00994940  1
  Hf  Hf3  1  0.89859629  0.09435423  0.11639041  1
  Hf  Hf4  1  0.29775848  0.72250654  0.61350013  1
  Hf  Hf5  1  0.59627625  -0.00836464  0.24536275  1
  Hf  Hf6  1  0.00894628  0.59417980  -0.00166728  1
  Hf  Hf7  1  0.29342570  0.51605381  0.62217083  1
  Hf  Hf8  1  0.70202199  0.90840202  0.62420971  1
  Hf  Hf9  1  0.39183791  0.78989812  0.00646790  1
  Hf  Hf10  1  -0.01024694  0.20761861  0.75799755  1
  Hf  Hf11  1  0.39406869  0.58353348  -0.00257514  1
  Hf  Hf12  1  0.11113378  0.09173714  0.87038054  1
  Hf  Hf13  1  0.49190757  0.48673259  0.12428634  1
  Hf  Hf14  1  0.18933101  0.81491233  0.24459410  1
  Hf  Hf15  1  0.10010703  0.49145887  0.13252431  1
  Hf  Hf16  1  -0.00491653  0.39044304  0.25677110  1
  Hf  Hf17  1  0.11503591  0.88640269  0.63679682  1
  Hf  Hf18  1  0.21310235  0.60033984  0.24813998  1
  Hf  Hf19  1  0.30130108  0.30737748  0.63899451  1
  Hf  Hf20  1  0.01736711  0.58538414  0.74168538  1
  Hf  Hf21  1  0.81765142  0.21075961  0.50550920  1
  Hf  Hf22  1  0.50781330  0.10004906  0.62562221  1
  Hf  Hf23  1  0.89963466  0.09144653  0.87522522  1
  Hf  Hf24  1  -0.00316630  0.59497682  0.50583431  1
  Hf  Hf25  1  0.89435980  0.09637601  0.63447532  1
  Hf  Hf26  1  0.01424642  0.18253139  0.23961465  1
  Hf  Hf27  1  0.78342432  0.40527629  0.01234827  1
  Hf  Hf28  1  0.10363300  0.49619822  0.36856578  1
  Hf  Hf29  1  0.68962422  0.50378471  0.63229206  1
  Hf  Hf30  1  0.60265741  0.78410288  0.50365314  1
  Hf  Hf31  1  0.59651446  0.60275802  0.76649033  1
  Hf  Hf32  1  0.08828528  0.70412876  0.37007453  1
  Hf  Hf33  1  0.88873241  0.50781514  0.36918491  1
  Hf  Hf34  1  0.90079189  0.30217921  0.11874708  1
  Hf  Hf35  1  0.39729900  0.21322571  0.25091567  1
  Hf  Hf36  1  0.51846384  0.68206062  0.37089258  1
  Hf  Hf37  1  0.89901654  0.69670599  0.63775033  1
  Hf  Hf38  1  0.01288335  0.18984509  0.00303455  1
  Hf  Hf39  1  0.88982172  0.29629541  0.89505345  1
  Zr  Zr40  1  0.30232539  0.30437006  0.85616202  1
  Zr  Zr41  1  0.00162534  -0.01346031  0.50566475  1
  Zr  Zr42  1  0.79417610  0.62111948  0.25519878  1
  Zr  Zr43  1  0.50025065  0.10158467  0.12308048  1
  Zr  Zr44  1  0.60903855  0.21328368  0.50084563  1
  Zr  Zr45  1  0.29735296  0.90741848  0.89041108  1
  Zr  Zr46  1  0.09863847  0.09378462  0.63303080  1
  Zr  Zr47  1  0.08894217  0.30408635  0.62334971  1
  Zr  Zr48  1  0.89284664  0.48687118  0.61908103  1
  Zr  Zr49  1  0.50300931  0.10910996  0.87914342  1
  Zr  Zr50  1  0.29056345  0.92164996  0.35928435  1
  Zr  Zr51  1  0.20203248  0.20010011  0.50302138  1
  Zr  Zr52  1  0.69991177  0.70097102  0.11017103  1
  Zr  Zr53  1  0.09385946  0.88936491  0.86521748  1
  Zr  Zr54  1  0.70371829  0.10425231  0.38002233  1
  Zr  Zr55  1  0.31147554  0.71261354  0.38151871  1
  Zr  Zr56  1  0.60162844  -0.00333745  0.75319998  1
  Zr  Zr57  1  0.91040417  0.10676533  0.37753301  1
  Zr  Zr58  1  0.90506401  0.88815947  0.37468643  1
  Zr  Zr59  1  0.49970970  0.69133011  0.62690652  1
  Zr  Zr60  1  0.09827954  0.31313678  0.88290390  1
  Zr  Zr61  1  0.81350394  0.80146811  0.51136007  1
  Zr  Zr62  1  0.50374661  0.30024192  0.37491809  1
  Zr  Zr63  1  0.91174632  0.69913924  0.86582109  1
  Zr  Zr64  1  0.18668269  0.79934873  0.00941175  1
  Zr  Zr65  1  -0.01211921  0.37498894  0.48395247  1
  Zr  Zr66  1  0.79820325  0.00449687  0.24331162  1
  Zr  Zr67  1  0.08935500  0.69817079  0.13668061  1
  Zr  Zr68  1  0.21858492  0.41056572  0.00054249  1
  Zr  Zr69  1  0.12020882  0.28989450  0.12314998  1
  Zr  Zr70  1  0.38513345  -0.00469006  0.49867943  1
  Zr  Zr71  1  0.01318841  -0.02174520  0.24243268  1
  Zr  Zr72  1  0.29202519  0.91710316  0.12358193  1
  Zr  Zr73  1  0.69219398  0.29017886  0.86699934  1
  Zr  Zr74  1  0.40248869  0.20061096  0.50046741  1
  Zr  Zr75  1  0.77905914  0.40497025  0.49066169  1
  Zr  Zr76  1  0.70166012  0.89683165  0.38155555  1
  Zr  Zr77  1  0.38869825  0.80117438  0.76306599  1
  Zr  Zr78  1  0.49352115  0.88789783  0.37524216  1
  Zr  Zr79  1  0.70508223  0.09564335  0.88202066  1
  Ta  Ta80  1  0.10390418  0.27817831  0.37111245  1
  Ta  Ta81  1  0.80195605  0.59163336  0.76238536  1
  Ta  Ta82  1  0.00641021  -0.01713435  0.00451059  1
  Ta  Ta83  1  0.70385251  0.30059590  0.63941722  1
  Ta  Ta84  1  0.40364306  -0.00287942  0.74987073  1
  Ta  Ta85  1  0.19955773  0.82359074  0.49108106  1
  Ta  Ta86  1  0.18777538  0.42328171  0.74448249  1
  Ta  Ta87  1  0.59297136  0.80292181  0.75883681  1
  Ta  Ta88  1  0.49526848  0.31015566  0.86114368  1
  Ta  Ta89  1  0.61101483  0.19668629  0.24503458  1
  Ta  Ta90  1  0.50688312  0.30928701  0.63589490  1
  Ta  Ta91  1  0.40447147  0.79628601  0.23241397  1
  Ta  Ta92  1  0.50116939  0.69387784  0.11952805  1
  Ta  Ta93  1  0.39204704  0.01895978  0.00454081  1
  Ta  Ta94  1  0.89327373  0.88441750  0.12214163  1
  Ta  Ta95  1  0.59834393  0.58676658  -0.00940878  1
  Ta  Ta96  1  0.22209187  0.19233552  -0.00555668  1
  Ta  Ta97  1  0.70098712  0.69792888  0.63831853  1
  Ta  Ta98  1  0.60343899  0.20732091  0.00851381  1
  Ta  Ta99  1  0.48974516  0.89283477  0.62003019  1
  Ta  Ta100  1  0.58154984  0.39394258  -0.00253588  1
  Ta  Ta101  1  0.60984021  0.78988342  0.24239668  1
  Ta  Ta102  1  0.89630059  0.69871480  0.11899650  1
  Ta  Ta103  1  0.49453316  0.69936585  0.88343397  1
  Ta  Ta104  1  0.78853488  0.41031639  0.23928333  1
  Ta  Ta105  1  0.30368319  0.50572656  0.38260577  1
  Ta  Ta106  1  0.90921618  0.48673420  0.87928397  1
  Ta  Ta107  1  0.39705980  0.59774178  0.76039217  1
  Ta  Ta108  1  0.89523734  0.90163499  0.85914885  1
  Ta  Ta109  1  0.21452405  -0.00955659  0.75049358  1
  Ta  Ta110  1  0.40862983  0.22470648  0.00282391  1
  Ta  Ta111  1  0.49808072  0.09347639  0.36836645  1
  Ta  Ta112  1  0.78780761  0.79994018  0.75592975  1
  Ta  Ta113  1  0.69785309  0.90160418  0.11218754  1
  Ta  Ta114  1  0.70007623  0.49137393  0.87193955  1
  Ta  Ta115  1  0.80674983  0.39243580  0.75328944  1
  Ta  Ta116  1  0.50365145  0.89587193  0.11384504  1
  Ta  Ta117  1  0.30103862  0.09402980  0.63455001  1
  Ta  Ta118  1  -0.00331347  0.40026082  0.75035313  1
  Ta  Ta119  1  0.90589392  0.90172251  0.65273697  1
  Ti  Ti120  1  0.59292590  0.40474530  0.75363470  1
  Ti  Ti121  1  0.59888610  0.79819156  -0.00605703  1
  Ti  Ti122  1  0.50114998  0.90753465  0.89224536  1
  Ti  Ti123  1  0.19438898  0.40566765  0.49743980  1
  Ti  Ti124  1  0.01683392  0.78293301  0.74790052  1
  Ti  Ti125  1  0.10898458  0.50853649  0.87886738  1
  Ti  Ti126  1  0.39356850  0.41175205  0.26300929  1
  Ti  Ti127  1  0.11001641  0.08153453  0.38474134  1
  Ti  Ti128  1  0.77856496  0.61061698  0.49000729  1
  Ti  Ti129  1  0.80382189  0.80344568  -0.01305151  1
  Ti  Ti130  1  0.49390058  0.49910683  0.62885030  1
  Ti  Ti131  1  0.80176867  -0.00777449  0.00025985  1
  Ti  Ti132  1  0.40511774  0.59895474  0.24615376  1
  Ti  Ti133  1  0.89838192  0.50853803  0.13127610  1
  Ti  Ti134  1  0.31877443  0.31998747  0.12553731  1
  Ti  Ti135  1  -0.00729707  0.79488581  -0.00386663  1
  Ti  Ti136  1  0.29495307  0.12011711  0.12602527  1
  Ti  Ti137  1  0.59117263  0.41744956  0.49354479  1
  Ti  Ti138  1  0.30374983  0.50063505  0.86348782  1
  Ti  Ti139  1  0.69682660  0.90085480  0.88130778  1
  Ti  Ti140  1  0.41347863  0.60140144  0.49659135  1
  Ti  Ti141  1  0.60143634  0.00282604  0.50044217  1
  Ti  Ti142  1  0.71497314  0.30344129  0.36020834  1
  Ti  Ti143  1  0.19316718  0.61041575  0.49931696  1
  Ti  Ti144  1  0.19926638  0.20009391  0.74919057  1
  Ti  Ti145  1  0.69672763  0.70360837  0.87712014  1
  Ti  Ti146  1  0.01017016  0.78885879  0.51085268  1
  Ti  Ti147  1  0.69321859  0.29907922  0.12893548  1
  Ti  Ti148  1  0.21178738  0.38896004  0.25672011  1
  Ti  Ti149  1  0.60357043  0.59166242  0.24090557  1
  Ti  Ti150  1  0.39808025  0.00555595  0.24290875  1
  Ti  Ti151  1  0.70486329  0.10487320  0.63144170  1
  Ti  Ti152  1  0.30887461  0.10433881  0.86854788  1
  Ti  Ti153  1  0.20247928  0.62264900  0.75010172  1
  Ti  Ti154  1  0.20825729  0.60914724  0.00818441  1
  Ti  Ti155  1  -0.02456434  0.78022714  0.25096161  1
  Ti  Ti156  1  0.19290563  0.02525901  0.24040113  1
  Ti  Ti157  1  0.40801397  0.19801891  0.74495868  1
  Ti  Ti158  1  0.70161866  0.10071362  0.11283362  1
  Ti  Ti159  1  0.29356939  0.12096635  0.36680741  1
  Mo  Mo160  1  0.49160970  0.50471366  0.37108036  1
  Mo  Mo161  1  0.59765766  -0.00659667  0.00302714  1
  Mo  Mo162  1  0.70623315  0.70299343  0.37302028  1
  Mo  Mo163  1  0.79815390  -0.00548600  0.75549644  1
  Mo  Mo164  1  0.89284371  0.29489209  0.35201260  1
  Mo  Mo165  1  0.59764483  0.20543720  0.74205045  1
  Mo  Mo166  1  0.20558078  0.20166631  0.25311273  1
  Mo  Mo167  1  0.00408732  -0.00546684  0.75274301  1
  Mo  Mo168  1  -0.00046589  0.40687374  0.00231492  1
  Mo  Mo169  1  0.79698342  0.19972219  0.74604590  1
  Mo  Mo170  1  0.30531897  0.90756298  0.62694823  1
  Mo  Mo171  1  0.89791891  0.70036573  0.38403164  1
  Mo  Mo172  1  0.39953436  0.41046720  0.74032004  1
  Mo  Mo173  1  0.19634116  0.01304270  0.00195873  1
  Mo  Mo174  1  0.00410028  0.19517494  0.49328500  1
  Mo  Mo175  1  0.10876084  0.69232055  0.61646637  1
  Mo  Mo176  1  0.29030778  0.68978896  0.87783946  1
  Mo  Mo177  1  0.29931743  0.49990912  0.13576959  1
  Mo  Mo178  1  0.89311132  0.29536296  0.63000302  1
  Mo  Mo179  1  -0.00539296  0.59469547  0.25040115  1
  Mo  Mo180  1  0.40236367  0.39768876  -0.00558630  1
  Mo  Mo181  1  0.28932754  0.31424228  0.37666223  1
  Mo  Mo182  1  0.79379230  0.00162963  0.51160876  1
  Mo  Mo183  1  0.50366838  0.29713256  0.13208293  1
  Mo  Mo184  1  0.11071540  0.69104756  0.87718411  1
  Mo  Mo185  1  0.10098257  0.89739999  0.37846154  1
  Mo  Mo186  1  0.80050989  0.21303472  0.24141727  1
  Mo  Mo187  1  0.10548910  0.49798353  0.61570471  1
  Mo  Mo188  1  0.11424912  0.08918803  0.11303522  1
  Mo  Mo189  1  0.08532789  0.89632107  0.11929894  1
  Mo  Mo190  1  0.20453682  0.79427544  0.75470144  1
  Mo  Mo191  1  0.69670116  0.49850920  0.12163020  1
  Mo  Mo192  1  0.30861458  0.69494286  0.13236030  1
  Mo  Mo193  1  0.79303364  0.19630281  0.01195984  1
  Mo  Mo194  1  0.20042746  0.00491713  0.50251633  1
  Mo  Mo195  1  0.68009703  0.51267536  0.37409271  1
  Mo  Mo196  1  0.49908149  0.49529246  0.87304782  1
  Mo  Mo197  1  0.60486462  0.58939113  0.50367073  1
  Mo  Mo198  1  0.79276652  0.81011898  0.24237580  1
  Mo  Mo199  1  0.40056645  0.79625287  0.49550695  1
