# generated using pymatgen
data_HfZrTaTiMo
_symmetry_space_group_name_H-M   'P 1'
_cell_length_a   15.20938867
_cell_length_b   15.21318178
_cell_length_c   16.82762875
_cell_angle_alpha   90.02846288
_cell_angle_beta   90.03622346
_cell_angle_gamma   90.11538477
_symmetry_Int_Tables_number   1
_chemical_formula_structural   HfZrTaTiMo
_chemical_formula_sum   'Hf40 Zr40 Ta40 Ti40 Mo40'
_cell_volume   3893.62134131
_cell_formula_units_Z   40
loop_
 _symmetry_equiv_pos_site_id
 _symmetry_equiv_pos_as_xyz
  1  'x, y, z'
loop_
 _atom_site_type_symbol
 _atom_site_label
 _atom_site_symmetry_multiplicity
 _atom_site_fract_x
 _atom_site_fract_y
 _atom_site_fract_z
 _atom_site_occupancy
  Hf  Hf0  1  0.58560705  0.18598302  0.50685816  1
  Hf  Hf1  1  0.70738331  0.31358104  0.11923715  1
  Hf  Hf2  1  0.67596632  0.10024721  0.37082926  1
  Hf  Hf3  1  0.19638019  -0.00010607  0.51563426  1
  Hf  Hf4  1  0.48462812  0.09776576  0.10332373  1
  Hf  Hf5  1  -0.00214154  0.41038599  0.74685940  1
  Hf  Hf6  1  0.70631631  0.88623146  0.62916942  1
  Hf  Hf7  1  0.90002624  0.48367215  0.12437997  1
  Hf  Hf8  1  -0.00049586  0.01924287  0.50466583  1
  Hf  Hf9  1  0.39045033  0.40858695  -0.00446252  1
  Hf  Hf10  1  0.31570506  0.69634232  0.39033503  1
  Hf  Hf11  1  0.09744085  0.90697630  0.36964957  1
  Hf  Hf12  1  0.69006324  0.07833776  0.87636224  1
  Hf  Hf13  1  0.69623557  0.49415944  0.63422803  1
  Hf  Hf14  1  0.69842628  0.50101822  0.86717262  1
  Hf  Hf15  1  0.79073414  0.40216970  0.48547539  1
  Hf  Hf16  1  0.29383591  0.51436338  0.13367222  1
  Hf  Hf17  1  0.49322349  0.89484345  0.12548807  1
  Hf  Hf18  1  0.20157478  0.20477492  0.24639687  1
  Hf  Hf19  1  0.57208510  0.18206595  0.75193532  1
  Hf  Hf20  1  0.79538610  0.19840006  0.49398227  1
  Hf  Hf21  1  0.90551388  0.09136953  0.12303870  1
  Hf  Hf22  1  0.10421314  0.70025332  0.87734621  1
  Hf  Hf23  1  0.29417425  0.30817733  0.86797491  1
  Hf  Hf24  1  0.39703960  0.41624211  0.75027540  1
  Hf  Hf25  1  0.09610744  0.50115263  0.38776459  1
  Hf  Hf26  1  0.80918237  0.58425431  0.26854498  1
  Hf  Hf27  1  0.48761673  0.30250948  0.12206515  1
  Hf  Hf28  1  0.59480592  0.40648405  -0.00665203  1
  Hf  Hf29  1  0.02289986  0.80865263  0.51525240  1
  Hf  Hf30  1  0.29121215  0.89688214  0.37966336  1
  Hf  Hf31  1  0.29885897  0.11265213  0.86570955  1
  Hf  Hf32  1  0.79365755  0.78278165  0.25889703  1
  Hf  Hf33  1  0.89111911  0.50505286  0.61553834  1
  Hf  Hf34  1  0.10383038  0.30549959  0.86730426  1
  Hf  Hf35  1  0.70656078  0.87311280  0.12109678  1
  Hf  Hf36  1  0.80668032  0.78541930  0.48631782  1
  Hf  Hf37  1  0.69386958  0.28823488  0.63417176  1
  Hf  Hf38  1  0.29253198  0.10179956  0.11489469  1
  Hf  Hf39  1  0.09800622  0.91341100  0.12769183  1
  Zr  Zr40  1  0.01353528  0.38752731  0.51396759  1
  Zr  Zr41  1  0.49817383  0.90142220  0.36503689  1
  Zr  Zr42  1  0.89983144  0.90498692  0.62930831  1
  Zr  Zr43  1  0.31185035  0.91044799  0.63357473  1
  Zr  Zr44  1  0.80571407  0.19216722  -0.00611526  1
  Zr  Zr45  1  0.50690093  0.49824440  0.14813187  1
  Zr  Zr46  1  0.69378501  0.28946836  0.87420443  1
  Zr  Zr47  1  0.60473759  0.00513393  0.22844784  1
  Zr  Zr48  1  0.79732419  0.19763997  0.24495606  1
  Zr  Zr49  1  0.89336788  0.29615804  0.62523480  1
  Zr  Zr50  1  0.81079702  0.59830910  0.75760940  1
  Zr  Zr51  1  -0.00684181  0.20355041  0.75949553  1
  Zr  Zr52  1  0.60800454  0.79389784  -0.01654349  1
  Zr  Zr53  1  0.59493335  0.20453067  0.23417373  1
  Zr  Zr54  1  0.00441498  0.19316923  -0.01215165  1
  Zr  Zr55  1  0.49436256  0.50804071  0.36568245  1
  Zr  Zr56  1  0.88414352  0.09750780  0.63953261  1
  Zr  Zr57  1  0.89317650  0.69197458  0.12455306  1
  Zr  Zr58  1  0.28686463  0.30636514  0.38943602  1
  Zr  Zr59  1  0.38102358  0.39581996  0.25922475  1
  Zr  Zr60  1  0.93111059  0.69210609  0.37382656  1
  Zr  Zr61  1  0.29199853  0.90068345  0.12428232  1
  Zr  Zr62  1  0.51639587  0.69627338  0.13629874  1
  Zr  Zr63  1  0.60877478  0.80053693  0.76537166  1
  Zr  Zr64  1  0.78609375  -0.00397339  0.49396538  1
  Zr  Zr65  1  0.58895729  0.39370682  0.75770040  1
  Zr  Zr66  1  0.40136105  0.80605399  -0.01433252  1
  Zr  Zr67  1  0.00311166  0.80031997  0.74254420  1
  Zr  Zr68  1  0.40353657  0.60550260  0.00016114  1
  Zr  Zr69  1  0.41407656  0.01522021  0.49791469  1
  Zr  Zr70  1  0.69369173  0.89194510  0.36524252  1
  Zr  Zr71  1  0.90171172  0.09791895  0.36565377  1
  Zr  Zr72  1  0.10492186  0.70213514  0.12181449  1
  Zr  Zr73  1  0.59843891  0.79200080  0.50060834  1
  Zr  Zr74  1  0.38921116  0.00879112  0.25536901  1
  Zr  Zr75  1  0.30526560  0.69879351  0.86030708  1
  Zr  Zr76  1  0.01515269  0.60415506  0.73207369  1
  Zr  Zr77  1  0.20683403  0.61029831  0.25837607  1
  Zr  Zr78  1  0.20264986  0.80417742  0.74029968  1
  Zr  Zr79  1  0.18303788  0.41997005  0.00506764  1
  Ta  Ta80  1  0.90897468  0.30223937  0.37613191  1
  Ta  Ta81  1  0.80108976  0.59513832  -0.00619381  1
  Ta  Ta82  1  0.48984450  0.09671297  0.89816175  1
  Ta  Ta83  1  0.41711465  0.01234725  0.75618049  1
  Ta  Ta84  1  0.29053592  0.51076939  0.86605024  1
  Ta  Ta85  1  0.40578816  0.80308589  0.50940069  1
  Ta  Ta86  1  0.80812926  -0.02255453  -0.00075937  1
  Ta  Ta87  1  0.17102265  0.40470991  0.24416114  1
  Ta  Ta88  1  0.00658442  0.60462807  0.51445500  1
  Ta  Ta89  1  0.41886151  0.80700700  0.75798892  1
  Ta  Ta90  1  0.00433907  0.58874997  -0.00045790  1
  Ta  Ta91  1  0.30726138  0.50334759  0.61307609  1
  Ta  Ta92  1  0.89999258  0.07348003  0.86425232  1
  Ta  Ta93  1  0.80319245  -0.00825726  0.23847827  1
  Ta  Ta94  1  0.90599202  0.89045728  0.12756159  1
  Ta  Ta95  1  0.60130277  0.59733416  -0.00851675  1
  Ta  Ta96  1  0.09917682  0.91133317  0.86906496  1
  Ta  Ta97  1  0.19787635  0.81177258  -0.00861474  1
  Ta  Ta98  1  -0.00336962  0.80466201  -0.00414151  1
  Ta  Ta99  1  0.30321442  0.11755782  0.64207025  1
  Ta  Ta100  1  0.51506333  0.91473047  0.62888034  1
  Ta  Ta101  1  0.60960666  0.59216022  0.49883961  1
  Ta  Ta102  1  0.70578650  0.68733942  0.62912184  1
  Ta  Ta103  1  0.00628397  0.21264097  0.24504492  1
  Ta  Ta104  1  0.29465731  0.30794974  0.62092524  1
  Ta  Ta105  1  0.60052533  0.19648540  0.00829464  1
  Ta  Ta106  1  0.51129256  0.29852692  0.37352475  1
  Ta  Ta107  1  0.67851553  0.07674911  0.63761454  1
  Ta  Ta108  1  0.41846356  0.60723753  0.51029332  1
  Ta  Ta109  1  0.28916358  0.30330012  0.12122331  1
  Ta  Ta110  1  0.10209874  0.10971436  0.37341373  1
  Ta  Ta111  1  0.38910996  0.78279250  0.24658251  1
  Ta  Ta112  1  0.48464868  0.29910222  0.62240964  1
  Ta  Ta113  1  0.28850387  0.10381231  0.38043288  1
  Ta  Ta114  1  0.18063785  0.20293323  0.51542618  1
  Ta  Ta115  1  0.59470534  0.39346002  0.50123201  1
  Ta  Ta116  1  0.70158703  0.51127251  0.13102654  1
  Ta  Ta117  1  0.19895983  0.20769267  0.00042253  1
  Ta  Ta118  1  0.80793937  0.80107317  0.76700538  1
  Ta  Ta119  1  -0.01430837  0.39751792  -0.01638908  1
  Ti  Ti120  1  0.51010857  0.70334444  0.63158345  1
  Ti  Ti121  1  0.80131542  0.59620153  0.48199214  1
  Ti  Ti122  1  0.39170296  0.20522300  0.49764107  1
  Ti  Ti123  1  0.70839446  0.69618024  0.87512265  1
  Ti  Ti124  1  0.80223719  0.39259690  0.26531813  1
  Ti  Ti125  1  0.20420574  0.60665826  0.51310000  1
  Ti  Ti126  1  0.68653282  0.48943375  0.36714293  1
  Ti  Ti127  1  0.89233625  0.70417594  0.62067217  1
  Ti  Ti128  1  0.40425653  0.40418081  0.49864954  1
  Ti  Ti129  1  0.78942610  0.18903303  0.76115631  1
  Ti  Ti130  1  0.51319306  0.70083235  0.36263614  1
  Ti  Ti131  1  0.00318891  0.00545304  0.24889777  1
  Ti  Ti132  1  0.48611179  0.29001090  0.88558163  1
  Ti  Ti133  1  0.09794715  0.10099005  0.64455756  1
  Ti  Ti134  1  0.90342158  0.89990847  0.36709666  1
  Ti  Ti135  1  0.29410590  0.50388574  0.39041263  1
  Ti  Ti136  1  0.60274379  -0.00909783  0.00641757  1
  Ti  Ti137  1  0.10097082  0.10715888  0.12444243  1
  Ti  Ti138  1  0.12142739  0.71038991  0.39059202  1
  Ti  Ti139  1  0.08882285  0.31157964  0.11949545  1
  Ti  Ti140  1  0.19285388  0.40936427  0.73422691  1
  Ti  Ti141  1  0.30267812  0.91518967  0.86577244  1
  Ti  Ti142  1  0.10863759  0.09700634  0.85850712  1
  Ti  Ti143  1  0.00427085  -0.00457739  -0.00575249  1
  Ti  Ti144  1  0.20832453  0.59615732  0.72995622  1
  Ti  Ti145  1  0.10094092  0.50913076  0.86919255  1
  Ti  Ti146  1  0.90815643  0.69372346  0.88235846  1
  Ti  Ti147  1  0.09592953  0.29921246  0.37803542  1
  Ti  Ti148  1  0.00385548  0.79607008  0.24914658  1
  Ti  Ti149  1  0.50264690  0.50425430  0.62267285  1
  Ti  Ti150  1  0.58088543  0.60022771  0.75984044  1
  Ti  Ti151  1  0.20481078  0.61266972  0.00308751  1
  Ti  Ti152  1  0.19734766  0.00560875  -0.01075417  1
  Ti  Ti153  1  0.80907170  0.38929283  0.76493935  1
  Ti  Ti154  1  0.01220979  0.57622279  0.24540308  1
  Ti  Ti155  1  0.31473364  0.70298638  0.62656304  1
  Ti  Ti156  1  0.19798819  0.80531003  0.24930429  1
  Ti  Ti157  1  0.90356795  0.29735483  0.12343218  1
  Ti  Ti158  1  0.80251823  0.40134437  -0.01399829  1
  Ti  Ti159  1  0.39697201  0.19973404  0.25720712  1
  Mo  Mo160  1  0.11707112  0.70359705  0.61447378  1
  Mo  Mo161  1  0.69384812  0.30105628  0.37386558  1
  Mo  Mo162  1  0.20635179  0.40489235  0.50958982  1
  Mo  Mo163  1  0.21377170  0.79967672  0.51332997  1
  Mo  Mo164  1  0.10633363  0.91513307  0.63401917  1
  Mo  Mo165  1  0.40151364  0.60738068  0.73220584  1
  Mo  Mo166  1  0.39003557  0.21020314  -0.00033539  1
  Mo  Mo167  1  0.50453208  0.91189051  0.87791375  1
  Mo  Mo168  1  0.11201379  0.49989883  0.61482628  1
  Mo  Mo169  1  0.61291664  0.39684158  0.25278002  1
  Mo  Mo170  1  0.71424649  0.89818840  0.88311066  1
  Mo  Mo171  1  0.50412242  0.69183240  0.86868362  1
  Mo  Mo172  1  0.69529461  0.68444622  0.37871155  1
  Mo  Mo173  1  0.59323909  -0.01080780  0.76074433  1
  Mo  Mo174  1  0.70768720  0.68278964  0.11825888  1
  Mo  Mo175  1  0.81050865  0.78799621  -0.01231523  1
  Mo  Mo176  1  0.48982036  0.10121146  0.62815936  1
  Mo  Mo177  1  -0.00872391  0.39494906  0.25466390  1
  Mo  Mo178  1  0.91045083  0.89097596  0.87682360  1
  Mo  Mo179  1  0.19874782  0.21107286  0.74022574  1
  Mo  Mo180  1  0.48539662  0.11352325  0.37130649  1
  Mo  Mo181  1  0.90627579  0.50072384  0.87862264  1
  Mo  Mo182  1  0.18975146  0.01206351  0.25552449  1
  Mo  Mo183  1  0.79297781  -0.01212347  0.75917330  1
  Mo  Mo184  1  0.38776853  -0.00282871  -0.01223377  1
  Mo  Mo185  1  0.39981043  0.21466486  0.75047564  1
  Mo  Mo186  1  0.59900800  -0.00191383  0.50316760  1
  Mo  Mo187  1  0.59803811  0.79451302  0.24704038  1
  Mo  Mo188  1  0.09002365  0.50095360  0.12313241  1
  Mo  Mo189  1  0.89471978  0.29405736  0.86947409  1
  Mo  Mo190  1  0.39819974  0.60369400  0.25697121  1
  Mo  Mo191  1  0.29946387  0.71117286  0.12339512  1
  Mo  Mo192  1  0.61794815  0.60639702  0.25820941  1
  Mo  Mo193  1  0.70388144  0.08827033  0.10468493  1
  Mo  Mo194  1  0.00271839  0.19505009  0.50160865  1
  Mo  Mo195  1  0.90881459  0.49315005  0.38504589  1
  Mo  Mo196  1  0.00431140  -0.00262172  0.75181488  1
  Mo  Mo197  1  0.48834887  0.50720411  0.87453995  1
  Mo  Mo198  1  0.10640436  0.29335468  0.63654342  1
  Mo  Mo199  1  0.20220132  0.00607655  0.74805225  1
