# generated using pymatgen
data_HfZrTaTiMo
_symmetry_space_group_name_H-M   'P 1'
_cell_length_a   15.20202543
_cell_length_b   15.20339841
_cell_length_c   16.87396405
_cell_angle_alpha   89.95612498
_cell_angle_beta   90.03958710
_cell_angle_gamma   89.97627840
_symmetry_Int_Tables_number   1
_chemical_formula_structural   HfZrTaTiMo
_chemical_formula_sum   'Hf40 Zr40 Ta40 Ti40 Mo40'
_cell_volume   3899.94948974
_cell_formula_units_Z   40
loop_
 _symmetry_equiv_pos_site_id
 _symmetry_equiv_pos_as_xyz
  1  'x, y, z'
loop_
 _atom_site_type_symbol
 _atom_site_label
 _atom_site_symmetry_multiplicity
 _atom_site_fract_x
 _atom_site_fract_y
 _atom_site_fract_z
 _atom_site_occupancy
  Hf  Hf0  1  0.80664567  0.81109481  0.48425740  1
  Hf  Hf1  1  0.70465768  0.69612585  0.62620821  1
  Hf  Hf2  1  0.48310285  0.29292946  0.12486565  1
  Hf  Hf3  1  0.80026791  0.01076883  0.75111132  1
  Hf  Hf4  1  0.19043714  0.18877414  0.73418474  1
  Hf  Hf5  1  0.50201341  0.69034510  0.13029393  1
  Hf  Hf6  1  0.00122767  0.40588385  0.00604816  1
  Hf  Hf7  1  0.09279098  0.67870054  0.38321557  1
  Hf  Hf8  1  0.40270888  0.58780655  0.24925166  1
  Hf  Hf9  1  0.20712782  0.78800895  -0.00150171  1
  Hf  Hf10  1  0.60928677  0.79292825  0.24912090  1
  Hf  Hf11  1  -0.00666414  0.80016595  0.26707956  1
  Hf  Hf12  1  0.51370078  0.29205397  0.63086554  1
  Hf  Hf13  1  0.19965682  0.58845463  0.25747825  1
  Hf  Hf14  1  0.70925405  0.90783753  0.62223892  1
  Hf  Hf15  1  0.10482514  0.68227967  0.86459390  1
  Hf  Hf16  1  0.58596714  0.78789900  -0.00271721  1
  Hf  Hf17  1  0.38460764  -0.01253658  0.75027953  1
  Hf  Hf18  1  -0.00817244  0.21322534  0.24299441  1
  Hf  Hf19  1  0.80777262  0.60445025  0.00390799  1
  Hf  Hf20  1  0.60587868  -0.00931049  0.00307131  1
  Hf  Hf21  1  0.71687457  0.48826597  0.88515854  1
  Hf  Hf22  1  0.69333724  0.50964221  0.12739585  1
  Hf  Hf23  1  0.09107003  0.31319844  0.38167976  1
  Hf  Hf24  1  0.58681585  0.19426091  0.00454611  1
  Hf  Hf25  1  0.93079745  0.50564865  0.38195100  1
  Hf  Hf26  1  0.29936976  0.50061568  0.87087769  1
  Hf  Hf27  1  0.89339408  0.70208604  0.86521802  1
  Hf  Hf28  1  0.77777909  0.21928919  0.75902481  1
  Hf  Hf29  1  0.92044512  0.50600986  0.86765851  1
  Hf  Hf30  1  0.90539893  0.71505989  0.62367982  1
  Hf  Hf31  1  -0.01162789  0.21537077  0.50579483  1
  Hf  Hf32  1  -0.00213615  0.00370507  -0.00504592  1
  Hf  Hf33  1  0.48434773  0.10519378  0.36438031  1
  Hf  Hf34  1  0.40436772  0.00079104  0.00480249  1
  Hf  Hf35  1  0.68322153  0.12066220  0.62777435  1
  Hf  Hf36  1  0.21473851  0.78095143  0.49924306  1
  Hf  Hf37  1  0.31204389  0.89587651  0.37048925  1
  Hf  Hf38  1  0.29736179  0.90052259  0.12563881  1
  Hf  Hf39  1  0.20245992  0.20508991  -0.00176006  1
  Zr  Zr40  1  0.90032315  0.51218574  0.61768588  1
  Zr  Zr41  1  0.81391852  0.40246604  0.24702519  1
  Zr  Zr42  1  0.59787594  0.80242436  0.74883912  1
  Zr  Zr43  1  0.59466836  0.59054436  0.74331476  1
  Zr  Zr44  1  0.30750282  0.28914099  0.38736632  1
  Zr  Zr45  1  0.71101965  0.89333942  0.13106006  1
  Zr  Zr46  1  -0.01328576  0.20597919  0.74390861  1
  Zr  Zr47  1  0.59938592  0.20561305  0.48885698  1
  Zr  Zr48  1  0.49534745  0.91114320  0.62100309  1
  Zr  Zr49  1  0.89805551  0.71442461  0.12757906  1
  Zr  Zr50  1  0.00033225  0.80829325  0.75616915  1
  Zr  Zr51  1  0.10607000  0.89864858  0.62694407  1
  Zr  Zr52  1  0.80749047  0.61783447  0.26162434  1
  Zr  Zr53  1  0.88414179  0.12161140  0.37655045  1
  Zr  Zr54  1  0.09277237  0.89257076  0.12820349  1
  Zr  Zr55  1  0.61432978  0.37914210  0.76916144  1
  Zr  Zr56  1  0.79727003  0.59676166  0.48837210  1
  Zr  Zr57  1  0.50469607  0.89945915  0.36423882  1
  Zr  Zr58  1  0.08525337  0.09445547  0.38042650  1
  Zr  Zr59  1  0.87914724  0.31194800  0.62376038  1
  Zr  Zr60  1  0.49784436  0.09845203  0.86944328  1
  Zr  Zr61  1  0.68971457  0.69328910  0.87195127  1
  Zr  Zr62  1  -0.00111597  0.79935760  -0.00976359  1
  Zr  Zr63  1  0.39969463  0.60610081  0.51105353  1
  Zr  Zr64  1  0.19185649  -0.01469795  0.48938756  1
  Zr  Zr65  1  0.39355074  0.20577530  0.74482853  1
  Zr  Zr66  1  0.00270112  0.01133138  0.75442235  1
  Zr  Zr67  1  0.59781513  0.59325694  0.50739009  1
  Zr  Zr68  1  0.01749155  0.41098866  0.73979180  1
  Zr  Zr69  1  0.10407111  0.09586157  0.12026299  1
  Zr  Zr70  1  0.59000316  0.00368332  0.49575579  1
  Zr  Zr71  1  0.11625176  0.50420385  0.12524328  1
  Zr  Zr72  1  0.10484346  0.68286231  0.62316398  1
  Zr  Zr73  1  0.19317911  -0.00539808  0.26029517  1
  Zr  Zr74  1  0.28496344  0.09029071  0.87813864  1
  Zr  Zr75  1  0.09770195  0.30496110  0.87364989  1
  Zr  Zr76  1  0.78852633  0.20378532  0.23339889  1
  Zr  Zr77  1  0.30120254  0.48988432  0.62673504  1
  Zr  Zr78  1  0.21748583  0.79391423  0.74890811  1
  Zr  Zr79  1  0.20726092  0.20193478  0.25175689  1
  Ta  Ta80  1  0.50225841  0.30517860  0.36589147  1
  Ta  Ta81  1  0.31293449  0.88251903  0.88586194  1
  Ta  Ta82  1  0.31637877  0.11521774  0.11845781  1
  Ta  Ta83  1  0.20085716  0.78842571  0.25861670  1
  Ta  Ta84  1  0.79296301  0.01547376  0.49207667  1
  Ta  Ta85  1  0.80506855  -0.00374417  0.25432788  1
  Ta  Ta86  1  0.29364822  0.31108568  0.12270042  1
  Ta  Ta87  1  0.29797391  0.07667359  0.61834821  1
  Ta  Ta88  1  0.40587397  0.78868777  0.74064859  1
  Ta  Ta89  1  0.50020018  0.69561494  0.37047684  1
  Ta  Ta90  1  0.88333221  0.30903141  0.88312576  1
  Ta  Ta91  1  0.69908461  0.90699557  0.87331941  1
  Ta  Ta92  1  0.88485177  0.10305246  0.61293486  1
  Ta  Ta93  1  0.41482099  0.39065501  0.50416740  1
  Ta  Ta94  1  0.50535526  0.51079632  0.88691088  1
  Ta  Ta95  1  0.10107293  0.30513610  0.12369651  1
  Ta  Ta96  1  0.89613321  0.09520593  0.12584336  1
  Ta  Ta97  1  0.30032777  0.49089292  0.38776734  1
  Ta  Ta98  1  0.69269419  0.70384784  0.37608155  1
  Ta  Ta99  1  0.40026157  0.61454385  -0.00327342  1
  Ta  Ta100  1  0.12059003  0.91399260  0.87591697  1
  Ta  Ta101  1  0.49820546  0.49376122  0.11091568  1
  Ta  Ta102  1  0.09272712  0.10373353  0.88223450  1
  Ta  Ta103  1  0.19900693  0.19700072  0.51587626  1
  Ta  Ta104  1  0.50206237  0.90273990  0.13683834  1
  Ta  Ta105  1  0.49845643  0.49583056  0.37518280  1
  Ta  Ta106  1  0.69016780  0.30483570  0.12032938  1
  Ta  Ta107  1  0.59880918  0.39639527  -0.00408678  1
  Ta  Ta108  1  0.39377913  0.39496021  0.25029670  1
  Ta  Ta109  1  0.70230570  0.10449514  0.88063777  1
  Ta  Ta110  1  0.59317533  0.40274282  0.24589738  1
  Ta  Ta111  1  0.01118224  0.60403862  0.00159742  1
  Ta  Ta112  1  0.79340533  0.81262744  -0.00820941  1
  Ta  Ta113  1  0.08611613  0.09436925  0.61236741  1
  Ta  Ta114  1  0.39669483  0.60464221  0.74627288  1
  Ta  Ta115  1  0.59920745  0.79377289  0.49964481  1
  Ta  Ta116  1  0.89308234  0.91210953  0.87689528  1
  Ta  Ta117  1  0.20558822  0.40164727  -0.00640238  1
  Ta  Ta118  1  0.70196296  0.29916200  0.36360499  1
  Ta  Ta119  1  0.61177672  0.40128625  0.49445217  1
  Ti  Ti120  1  0.39604695  0.79387193  0.24590354  1
  Ti  Ti121  1  0.09727348  0.69623880  0.13399583  1
  Ti  Ti122  1  0.51140537  0.48844958  0.62869604  1
  Ti  Ti123  1  0.68743272  0.09975140  0.36073833  1
  Ti  Ti124  1  0.20257547  0.38982491  0.50828798  1
  Ti  Ti125  1  0.40182720  0.18588944  0.51686404  1
  Ti  Ti126  1  0.90057695  0.90626300  0.13084044  1
  Ti  Ti127  1  0.31136499  0.49745843  0.11462503  1
  Ti  Ti128  1  0.09972342  0.49437811  0.60155574  1
  Ti  Ti129  1  0.01153946  0.41247836  0.24503443  1
  Ti  Ti130  1  0.00898685  0.81134363  0.48705936  1
  Ti  Ti131  1  0.70032453  0.69911952  0.12203331  1
  Ti  Ti132  1  0.80357129  0.38911511  0.48278602  1
  Ti  Ti133  1  0.80142078  0.58765035  0.74459807  1
  Ti  Ti134  1  0.79850722  0.81129682  0.75226930  1
  Ti  Ti135  1  0.40124510  0.01269928  0.23765981  1
  Ti  Ti136  1  -0.01154946  0.20875838  0.00867290  1
  Ti  Ti137  1  0.40759395  0.80192741  0.50946901  1
  Ti  Ti138  1  0.58587386  0.19751308  0.24100013  1
  Ti  Ti139  1  0.59742505  0.00958888  0.75092306  1
  Ti  Ti140  1  0.20392229  0.59640724  -0.00410175  1
  Ti  Ti141  1  0.91246504  0.51319355  0.13239252  1
  Ti  Ti142  1  0.21576335  0.38068146  0.74129798  1
  Ti  Ti143  1  0.91429730  0.92091004  0.37659335  1
  Ti  Ti144  1  0.30799412  0.68970337  0.37372560  1
  Ti  Ti145  1  0.80607305  0.39608710  0.01938907  1
  Ti  Ti146  1  0.80030099  0.00597398  0.00156270  1
  Ti  Ti147  1  0.90674849  0.91522649  0.61414093  1
  Ti  Ti148  1  0.20381397  0.39757261  0.25632868  1
  Ti  Ti149  1  0.19288169  0.57852272  0.74760026  1
  Ti  Ti150  1  0.70152057  0.90734854  0.36821476  1
  Ti  Ti151  1  0.39815242  0.39033649  -0.01291315  1
  Ti  Ti152  1  0.29935032  0.09663689  0.38644771  1
  Ti  Ti153  1  0.29572715  0.69452706  0.12768725  1
  Ti  Ti154  1  0.69158990  0.50041722  0.36191471  1
  Ti  Ti155  1  0.89465998  0.11363896  0.88407930  1
  Ti  Ti156  1  0.41021160  0.40195172  0.76080525  1
  Ti  Ti157  1  0.49901723  0.88956000  0.87319157  1
  Ti  Ti158  1  0.79495632  0.20140163  0.01258293  1
  Ti  Ti159  1  0.68902207  0.09187716  0.13210001  1
  Mo  Mo160  1  0.11651785  0.49089454  0.38850887  1
  Mo  Mo161  1  0.80271709  0.81098982  0.27527721  1
  Mo  Mo162  1  0.89446320  0.31220191  0.37253817  1
  Mo  Mo163  1  0.49252823  0.30500143  0.88232903  1
  Mo  Mo164  1  0.39354533  0.20346284  0.25073326  1
  Mo  Mo165  1  0.19738392  -0.00311246  0.74792567  1
  Mo  Mo166  1  0.70627262  0.47979928  0.62589569  1
  Mo  Mo167  1  0.59741518  0.59207870  0.25677582  1
  Mo  Mo168  1  0.20731465  0.58662835  0.49472559  1
  Mo  Mo169  1  0.48105360  0.70032524  0.87552633  1
  Mo  Mo170  1  -0.01194942  0.00469168  0.24656079  1
  Mo  Mo171  1  0.00457944  0.61010746  0.50502439  1
  Mo  Mo172  1  0.39336361  0.20990243  -0.00879511  1
  Mo  Mo173  1  0.50233660  0.69950207  0.62409270  1
  Mo  Mo174  1  0.90247411  0.30230240  0.11614459  1
  Mo  Mo175  1  0.20016414  -0.00348093  0.00097565  1
  Mo  Mo176  1  0.10894245  0.49913577  0.87755057  1
  Mo  Mo177  1  0.10588973  0.30343066  0.61827526  1
  Mo  Mo178  1  0.30532237  0.29265960  0.61368767  1
  Mo  Mo179  1  0.40001004  0.80123457  0.00930587  1
  Mo  Mo180  1  0.00391260  0.59578699  0.24610690  1
  Mo  Mo181  1  0.30093302  0.89047951  0.61843186  1
  Mo  Mo182  1  0.49810946  0.09429296  0.13054735  1
  Mo  Mo183  1  0.80469473  0.40515013  0.75858413  1
  Mo  Mo184  1  -0.01433265  -0.00156279  0.50256200  1
  Mo  Mo185  1  0.59657246  0.19549970  0.76462249  1
  Mo  Mo186  1  0.49286180  0.10053878  0.63395345  1
  Mo  Mo187  1  0.39149122  -0.00069109  0.49818789  1
  Mo  Mo188  1  0.30755546  0.69409827  0.87496361  1
  Mo  Mo189  1  0.00183862  0.40316357  0.50710193  1
  Mo  Mo190  1  0.90027774  0.70877182  0.38648967  1
  Mo  Mo191  1  0.70435823  0.29299475  0.90451657  1
  Mo  Mo192  1  0.60499508  0.00652147  0.24695520  1
  Mo  Mo193  1  0.78468916  0.20762497  0.49302196  1
  Mo  Mo194  1  0.69745881  0.31586987  0.62015576  1
  Mo  Mo195  1  0.30261779  0.30124549  0.87116399  1
  Mo  Mo196  1  0.10010884  0.88851508  0.37338406  1
  Mo  Mo197  1  0.59697400  0.59335197  -0.00074435  1
  Mo  Mo198  1  0.00273201  0.60286849  0.74215278  1
  Mo  Mo199  1  0.30727152  0.69475201  0.62723173  1
