# generated using pymatgen
data_HfZrTaTiMo
_symmetry_space_group_name_H-M   'P 1'
_cell_length_a   15.20598691
_cell_length_b   15.20507929
_cell_length_c   16.84089932
_cell_angle_alpha   89.96691231
_cell_angle_beta   89.96078059
_cell_angle_gamma   90.01943427
_symmetry_Int_Tables_number   1
_chemical_formula_structural   HfZrTaTiMo
_chemical_formula_sum   'Hf40 Zr40 Ta40 Ti40 Mo40'
_cell_volume   3893.75285025
_cell_formula_units_Z   40
loop_
 _symmetry_equiv_pos_site_id
 _symmetry_equiv_pos_as_xyz
  1  'x, y, z'
loop_
 _atom_site_type_symbol
 _atom_site_label
 _atom_site_symmetry_multiplicity
 _atom_site_fract_x
 _atom_site_fract_y
 _atom_site_fract_z
 _atom_site_occupancy
  Hf  Hf0  1  0.89549774  0.91120766  0.36286228  1
  Hf  Hf1  1  0.29612047  0.50489692  0.63342234  1
  Hf  Hf2  1  0.30461805  0.90673753  0.88027023  1
  Hf  Hf3  1  0.50140690  0.50330609  0.62873622  1
  Hf  Hf4  1  0.89609393  0.70649303  0.35533422  1
  Hf  Hf5  1  0.10427833  0.30112598  0.11635952  1
  Hf  Hf6  1  0.31595377  0.31353160  0.36951751  1
  Hf  Hf7  1  0.79025752  0.81722672  0.22767115  1
  Hf  Hf8  1  0.30697199  0.50102961  0.88656265  1
  Hf  Hf9  1  0.10671293  0.50352250  0.11879560  1
  Hf  Hf10  1  0.40395859  0.79964621  0.75036630  1
  Hf  Hf11  1  -0.00460032  0.19394778  0.24620639  1
  Hf  Hf12  1  0.09976315  0.08469823  0.37954601  1
  Hf  Hf13  1  0.60593927  0.78483502  0.76314874  1
  Hf  Hf14  1  0.09727420  0.89930582  0.87952774  1
  Hf  Hf15  1  0.10225773  0.50871724  0.63575436  1
  Hf  Hf16  1  0.29155393  0.91371235  0.38447996  1
  Hf  Hf17  1  0.78344222  -0.02028312  0.51526369  1
  Hf  Hf18  1  0.00415877  0.20096023  0.75406615  1
  Hf  Hf19  1  0.20589241  0.62055147  0.00066509  1
  Hf  Hf20  1  0.59331087  0.38271360  0.49933429  1
  Hf  Hf21  1  0.19202775  -0.00979985  0.24294942  1
  Hf  Hf22  1  0.69792337  0.71185912  0.61798378  1
  Hf  Hf23  1  0.39614956  0.80069049  0.26231052  1
  Hf  Hf24  1  0.80705466  0.40021518  0.74074439  1
  Hf  Hf25  1  0.39901055  0.60770706  0.49165728  1
  Hf  Hf26  1  0.29061558  0.51474235  0.37197715  1
  Hf  Hf27  1  0.79818292  -0.01448074  0.73583350  1
  Hf  Hf28  1  -0.01094812  0.61407773  0.01227032  1
  Hf  Hf29  1  0.31240354  0.10798234  0.37620811  1
  Hf  Hf30  1  0.70708785  0.48095786  0.89986513  1
  Hf  Hf31  1  0.90391244  0.31154433  0.36283285  1
  Hf  Hf32  1  0.69074443  0.70160286  0.11765368  1
  Hf  Hf33  1  0.79429718  0.20474585  0.75018539  1
  Hf  Hf34  1  0.61128459  0.38778859  0.75097908  1
  Hf  Hf35  1  0.31025824  0.09732823  0.11467018  1
  Hf  Hf36  1  0.49489434  0.48565495  0.36132421  1
  Hf  Hf37  1  0.09789887  0.70022788  0.36996423  1
  Hf  Hf38  1  0.80465083  0.61105896  0.48965236  1
  Hf  Hf39  1  0.49707732  0.48234455  0.12390305  1
  Zr  Zr40  1  0.70060804  0.49804148  0.36855453  1
  Zr  Zr41  1  0.09197784  0.50008308  0.35586911  1
  Zr  Zr42  1  0.50672705  0.49323215  0.88500044  1
  Zr  Zr43  1  0.70435606  0.08717689  0.87684846  1
  Zr  Zr44  1  0.10544947  0.30219618  0.62913173  1
  Zr  Zr45  1  0.59282122  -0.00249813  0.00096456  1
  Zr  Zr46  1  0.49496461  0.89129886  0.12620916  1
  Zr  Zr47  1  0.09859954  0.69814640  0.62217586  1
  Zr  Zr48  1  0.09280494  0.89756740  0.62966203  1
  Zr  Zr49  1  0.28593126  0.10637893  0.87753463  1
  Zr  Zr50  1  0.61214815  0.80597026  0.48010013  1
  Zr  Zr51  1  0.90275560  0.50420674  0.35957564  1
  Zr  Zr52  1  -0.00003383  -0.00503184  0.50555441  1
  Zr  Zr53  1  0.71719662  0.87971334  0.89248473  1
  Zr  Zr54  1  0.10139473  0.49804515  0.89243242  1
  Zr  Zr55  1  0.29431377  0.90945393  0.61456285  1
  Zr  Zr56  1  0.49713996  0.09858400  0.63585955  1
  Zr  Zr57  1  0.79353219  0.60511951  0.76072445  1
  Zr  Zr58  1  0.00061466  0.40399739  0.76025963  1
  Zr  Zr59  1  0.60081697  0.21640589  -0.01888544  1
  Zr  Zr60  1  0.39655604  0.39803505  0.50780323  1
  Zr  Zr61  1  0.69985093  0.50688244  0.61696847  1
  Zr  Zr62  1  0.59718430  0.37703075  0.24693419  1
  Zr  Zr63  1  0.21308129  0.20089075  0.24619603  1
  Zr  Zr64  1  0.90062973  0.09238668  0.87476205  1
  Zr  Zr65  1  -0.01300841  0.80469584  0.76286681  1
  Zr  Zr66  1  0.20782412  0.20345073  0.49855149  1
  Zr  Zr67  1  0.81037707  0.38379120  0.51151886  1
  Zr  Zr68  1  0.10776008  0.29198523  0.89399826  1
  Zr  Zr69  1  -0.00669115  -0.00049697  0.00394642  1
  Zr  Zr70  1  0.48661391  0.09062651  0.86472279  1
  Zr  Zr71  1  0.88444210  0.11115426  0.38317124  1
  Zr  Zr72  1  0.90088216  0.70028600  0.62530431  1
  Zr  Zr73  1  0.89381329  0.10871372  0.62014334  1
  Zr  Zr74  1  0.40937499  0.80266123  0.48506692  1
  Zr  Zr75  1  0.70120984  0.27628479  0.38128457  1
  Zr  Zr76  1  0.10453611  0.30518087  0.36519935  1
  Zr  Zr77  1  0.10113304  0.09879107  0.11657254  1
  Zr  Zr78  1  0.31546754  0.31655895  0.10917037  1
  Zr  Zr79  1  0.29685899  0.70364261  0.62381319  1
  Ta  Ta80  1  0.39707049  0.79553760  0.00102482  1
  Ta  Ta81  1  0.30516207  0.30692502  0.88952365  1
  Ta  Ta82  1  0.00992999  0.82022569  0.23705601  1
  Ta  Ta83  1  0.59860230  -0.01762707  0.74914367  1
  Ta  Ta84  1  0.80206094  0.20232228  0.00250663  1
  Ta  Ta85  1  0.50581642  0.69673420  0.62408976  1
  Ta  Ta86  1  0.69783620  0.10487208  0.11704441  1
  Ta  Ta87  1  0.49856680  0.89088942  0.88099824  1
  Ta  Ta88  1  -0.00117050  0.60785227  0.77207734  1
  Ta  Ta89  1  -0.00106155  0.61103780  0.22605061  1
  Ta  Ta90  1  0.91181723  0.50853144  0.62262425  1
  Ta  Ta91  1  -0.01641251  0.40306501  0.01096418  1
  Ta  Ta92  1  0.50031217  0.29366084  0.63836024  1
  Ta  Ta93  1  0.10641143  0.10078432  0.62521967  1
  Ta  Ta94  1  0.21619841  0.41450088  0.23454631  1
  Ta  Ta95  1  -0.00726773  0.21656501  0.50311985  1
  Ta  Ta96  1  0.89316524  0.50838346  0.89146700  1
  Ta  Ta97  1  0.40825651  0.20024449  -0.00652639  1
  Ta  Ta98  1  0.79456453  0.59986026  0.22904213  1
  Ta  Ta99  1  0.88756202  0.31009817  0.88737777  1
  Ta  Ta100  1  0.19868316  0.60631669  0.76839633  1
  Ta  Ta101  1  0.69142271  0.07637182  0.37669431  1
  Ta  Ta102  1  0.19759407  0.40898206  0.50055102  1
  Ta  Ta103  1  0.50095270  0.68809637  0.13836937  1
  Ta  Ta104  1  0.21105761  0.39195681  0.75958018  1
  Ta  Ta105  1  0.50304388  0.10288217  0.12199884  1
  Ta  Ta106  1  0.29465533  0.10950437  0.63200882  1
  Ta  Ta107  1  0.20770777  0.61356375  0.23763371  1
  Ta  Ta108  1  0.79801271  0.01381785  0.23531316  1
  Ta  Ta109  1  0.59478165  0.60296652  0.48785647  1
  Ta  Ta110  1  0.20336685  0.80109471  0.25799923  1
  Ta  Ta111  1  0.40408786  0.60499534  0.75575176  1
  Ta  Ta112  1  0.00641163  0.41295777  0.50259666  1
  Ta  Ta113  1  0.11235958  0.72019289  0.12493427  1
  Ta  Ta114  1  0.19705651  0.79766652  0.76086128  1
  Ta  Ta115  1  0.60899451  -0.01308978  0.23915810  1
  Ta  Ta116  1  -0.01556886  0.79536504  0.49276215  1
  Ta  Ta117  1  -0.00270961  0.80766772  0.01228917  1
  Ta  Ta118  1  0.41971967  0.21115984  0.24505779  1
  Ta  Ta119  1  0.40612268  0.00960710  0.25008395  1
  Ti  Ti120  1  0.60294021  0.18033479  0.24771785  1
  Ti  Ti121  1  0.70294312  0.67778801  0.90805493  1
  Ti  Ti122  1  0.60040137  0.19462601  0.75978078  1
  Ti  Ti123  1  -0.00684261  0.20209491  0.00109886  1
  Ti  Ti124  1  0.38770808  0.21137449  0.75672751  1
  Ti  Ti125  1  0.89555582  0.30189277  0.12644690  1
  Ti  Ti126  1  0.69789179  0.27131633  0.61363384  1
  Ti  Ti127  1  0.39500366  -0.00603329  0.74451808  1
  Ti  Ti128  1  0.89631597  0.10575911  0.12450422  1
  Ti  Ti129  1  0.39208826  0.58969550  0.24289048  1
  Ti  Ti130  1  0.18763876  0.80925186  0.48699681  1
  Ti  Ti131  1  0.40240457  0.00945101  0.50322677  1
  Ti  Ti132  1  0.29515435  0.89391334  0.11930516  1
  Ti  Ti133  1  0.80198824  0.40258991  0.23230823  1
  Ti  Ti134  1  0.50683060  0.10488353  0.37645553  1
  Ti  Ti135  1  0.40863582  0.60106689  0.00895500  1
  Ti  Ti136  1  0.51245010  0.91529921  0.36596768  1
  Ti  Ti137  1  0.60006166  0.59477820  0.75664101  1
  Ti  Ti138  1  0.88925662  0.71349608  0.89218050  1
  Ti  Ti139  1  0.10119963  0.10056608  0.88181444  1
  Ti  Ti140  1  0.69356068  0.30073391  0.11891793  1
  Ti  Ti141  1  0.59338783  0.79078325  -0.00006038  1
  Ti  Ti142  1  -0.00527314  -0.00208005  0.74738362  1
  Ti  Ti143  1  0.59246970  0.00168388  0.51033051  1
  Ti  Ti144  1  0.41807319  0.20466405  0.50500416  1
  Ti  Ti145  1  0.50666112  0.68658910  0.35209611  1
  Ti  Ti146  1  0.50018365  0.69171767  0.88345008  1
  Ti  Ti147  1  0.19195745  0.00740278  0.75063901  1
  Ti  Ti148  1  0.40384579  0.40101686  0.75284536  1
  Ti  Ti149  1  0.69618948  0.70438772  0.35316561  1
  Ti  Ti150  1  0.50624504  0.88943496  0.62434012  1
  Ti  Ti151  1  0.18870595  0.60351405  0.49574630  1
  Ti  Ti152  1  0.69763158  0.49927925  0.10756922  1
  Ti  Ti153  1  0.80335811  -0.01330726  0.01940662  1
  Ti  Ti154  1  0.30238869  0.30090454  0.63036109  1
  Ti  Ti155  1  0.78897617  0.20291304  0.24115691  1
  Ti  Ti156  1  0.79858507  0.80001172  0.75216726  1
  Ti  Ti157  1  0.20283494  -0.00736207  0.00447830  1
  Ti  Ti158  1  0.30924350  0.70682240  0.12466134  1
  Ti  Ti159  1  0.30349079  0.70744981  0.87710496  1
  Mo  Mo160  1  0.80430253  0.59630255  0.01547271  1
  Mo  Mo161  1  0.29526099  0.70297283  0.37400876  1
  Mo  Mo162  1  0.68380919  0.89190842  0.62980085  1
  Mo  Mo163  1  0.20465100  0.00434637  0.50844494  1
  Mo  Mo164  1  0.89503761  0.49741583  0.13129549  1
  Mo  Mo165  1  0.59827669  0.18296400  0.50369693  1
  Mo  Mo166  1  0.11148020  0.90066057  0.11706927  1
  Mo  Mo167  1  0.39595812  0.39845759  0.24931233  1
  Mo  Mo168  1  0.49366672  0.29882515  0.85682117  1
  Mo  Mo169  1  0.80213829  0.80008554  0.48738037  1
  Mo  Mo170  1  0.41396601  0.39203101  -0.00757816  1
  Mo  Mo171  1  0.59675256  0.39217014  0.00681505  1
  Mo  Mo172  1  0.30798444  0.51567368  0.11472100  1
  Mo  Mo173  1  0.68588277  0.09494191  0.63364822  1
  Mo  Mo174  1  0.20341133  0.19836759  0.00185192  1
  Mo  Mo175  1  0.20465252  0.40697311  0.00549891  1
  Mo  Mo176  1  0.70576220  0.29661495  0.87390322  1
  Mo  Mo177  1  0.59304551  0.60129345  0.00680565  1
  Mo  Mo178  1  0.81554600  0.79572408  0.02016028  1
  Mo  Mo179  1  0.50084268  0.28066776  0.37697997  1
  Mo  Mo180  1  0.00044052  0.59733003  0.49579279  1
  Mo  Mo181  1  0.88916510  0.88339603  0.62109496  1
  Mo  Mo182  1  0.90494799  0.30492512  0.62098677  1
  Mo  Mo183  1  -0.00493580  0.00397698  0.24440937  1
  Mo  Mo184  1  -0.00209365  0.40186300  0.22562725  1
  Mo  Mo185  1  0.59531289  0.79775373  0.25620220  1
  Mo  Mo186  1  0.69586891  0.90410906  0.11203280  1
  Mo  Mo187  1  0.50754813  0.28330108  0.12218678  1
  Mo  Mo188  1  0.60204011  0.59524173  0.24501680  1
  Mo  Mo189  1  0.79512038  0.18838779  0.50308422  1
  Mo  Mo190  1  0.09892449  0.70357173  0.87909155  1
  Mo  Mo191  1  0.89376770  0.89780381  0.88145699  1
  Mo  Mo192  1  0.20197457  0.20144054  0.74846182  1
  Mo  Mo193  1  0.90268031  0.70756407  0.13317580  1
  Mo  Mo194  1  0.39836567  -0.00598189  0.00426224  1
  Mo  Mo195  1  0.09329687  0.89482600  0.37824918  1
  Mo  Mo196  1  0.20456122  0.80369768  -0.00367055  1
  Mo  Mo197  1  0.70104741  0.90341287  0.36478488  1
  Mo  Mo198  1  0.90715379  0.91383091  0.13654250  1
  Mo  Mo199  1  0.79766836  0.38914060  0.01603903  1
