# generated using pymatgen
data_HfZrTaTiMo
_symmetry_space_group_name_H-M   'P 1'
_cell_length_a   15.21456656
_cell_length_b   15.21787660
_cell_length_c   16.84958227
_cell_angle_alpha   89.96993772
_cell_angle_beta   90.01406134
_cell_angle_gamma   89.93055551
_symmetry_Int_Tables_number   1
_chemical_formula_structural   HfZrTaTiMo
_chemical_formula_sum   'Hf40 Zr40 Ta40 Ti40 Mo40'
_cell_volume   3901.23749025
_cell_formula_units_Z   40
loop_
 _symmetry_equiv_pos_site_id
 _symmetry_equiv_pos_as_xyz
  1  'x, y, z'
loop_
 _atom_site_type_symbol
 _atom_site_label
 _atom_site_symmetry_multiplicity
 _atom_site_fract_x
 _atom_site_fract_y
 _atom_site_fract_z
 _atom_site_occupancy
  Hf  Hf0  1  0.90348997  0.49811229  0.36309016  1
  Hf  Hf1  1  0.68911328  0.91674723  0.13437732  1
  Hf  Hf2  1  0.19232926  0.00194134  0.48712977  1
  Hf  Hf3  1  0.69343348  0.89513296  0.88074116  1
  Hf  Hf4  1  0.10336214  0.10222854  0.87813921  1
  Hf  Hf5  1  0.70077835  0.09313788  0.85811253  1
  Hf  Hf6  1  0.39118508  0.82017474  0.00991241  1
  Hf  Hf7  1  0.40703619  0.40059758  0.02259898  1
  Hf  Hf8  1  0.19421431  0.79160041  0.00150900  1
  Hf  Hf9  1  0.10277728  0.89983519  0.87726738  1
  Hf  Hf10  1  0.60868682  0.39913719  0.00645834  1
  Hf  Hf11  1  0.49843354  0.70562136  0.88079004  1
  Hf  Hf12  1  0.50795193  0.49875205  0.37056837  1
  Hf  Hf13  1  0.70146660  0.30570489  0.87275163  1
  Hf  Hf14  1  0.09994823  0.09493870  0.62529995  1
  Hf  Hf15  1  0.58489518  0.80128627  0.24419096  1
  Hf  Hf16  1  0.80145035  0.40314525  0.74295329  1
  Hf  Hf17  1  0.00082550  0.80558343  0.75195064  1
  Hf  Hf18  1  0.88759098  0.70384193  0.88521981  1
  Hf  Hf19  1  0.90321775  0.10991920  0.87246545  1
  Hf  Hf20  1  0.49120497  0.48269812  0.87461512  1
  Hf  Hf21  1  0.00305712  0.00594572  0.02024212  1
  Hf  Hf22  1  0.78737989  0.81351486  0.49391553  1
  Hf  Hf23  1  0.79274257  0.17266171  0.25748599  1
  Hf  Hf24  1  0.79954257  0.39948938  0.49083818  1
  Hf  Hf25  1  0.40522369  0.60425370  0.24342522  1
  Hf  Hf26  1  0.50187262  0.89155628  0.38267297  1
  Hf  Hf27  1  0.80165371  0.81078780  0.25875193  1
  Hf  Hf28  1  0.39073450  0.57913733  0.74198230  1
  Hf  Hf29  1  0.30572506  0.49372054  0.36657270  1
  Hf  Hf30  1  0.80206351  0.20935519  0.00932604  1
  Hf  Hf31  1  0.10729232  0.50608781  0.62256650  1
  Hf  Hf32  1  0.89784802  0.91578711  0.61422271  1
  Hf  Hf33  1  0.19917284  0.19907642  0.25013477  1
  Hf  Hf34  1  0.39417839  0.60252108  0.00509036  1
  Hf  Hf35  1  -0.00662615  0.59769206  0.75724858  1
  Hf  Hf36  1  0.50057696  0.08365658  0.63789019  1
  Hf  Hf37  1  0.90491641  0.50255029  0.13806721  1
  Hf  Hf38  1  0.11010194  0.29609152  0.61523340  1
  Hf  Hf39  1  0.59533746  0.80719384  0.00845873  1
  Zr  Zr40  1  0.18695456  0.59829181  0.25374365  1
  Zr  Zr41  1  0.69909147  0.50466239  0.61611780  1
  Zr  Zr42  1  0.31185778  0.30109896  0.37214187  1
  Zr  Zr43  1  0.89592806  0.90866321  0.88262556  1
  Zr  Zr44  1  0.69186732  0.29840845  0.14485398  1
  Zr  Zr45  1  0.21131007  0.40642574  0.75722538  1
  Zr  Zr46  1  0.09861498  0.71126344  0.62337376  1
  Zr  Zr47  1  0.38945421  0.80251892  0.24180261  1
  Zr  Zr48  1  0.40001567  0.79726588  0.74280652  1
  Zr  Zr49  1  0.59849347  0.21448770  0.73938389  1
  Zr  Zr50  1  0.79799269  0.60697647  0.25982881  1
  Zr  Zr51  1  0.89321288  0.70205628  0.61467872  1
  Zr  Zr52  1  0.78913702  0.01127234  0.01098057  1
  Zr  Zr53  1  0.59162843  0.60499967  0.74283369  1
  Zr  Zr54  1  0.90868229  0.10997633  0.62355334  1
  Zr  Zr55  1  0.79049097  0.59361437  0.00750523  1
  Zr  Zr56  1  0.30218549  0.09277407  0.13024269  1
  Zr  Zr57  1  0.01024142  0.18728109  0.47052596  1
  Zr  Zr58  1  0.02072758  0.40338615  0.25128204  1
  Zr  Zr59  1  0.32147084  0.30106767  0.88328847  1
  Zr  Zr60  1  0.40908827  0.19456555  0.01606379  1
  Zr  Zr61  1  0.80302498  0.19698978  0.48647003  1
  Zr  Zr62  1  0.00182530  0.39291961  0.49025841  1
  Zr  Zr63  1  0.00450296  0.39775907  0.75296482  1
  Zr  Zr64  1  0.68454949  0.29897843  0.36661851  1
  Zr  Zr65  1  0.30580356  0.08889133  0.87539294  1
  Zr  Zr66  1  0.49537283  0.10742173  0.85839100  1
  Zr  Zr67  1  0.30283203  0.10709725  0.62292770  1
  Zr  Zr68  1  0.69836578  0.69693135  0.12598926  1
  Zr  Zr69  1  0.39630880  0.57970750  0.51213191  1
  Zr  Zr70  1  0.79238969  0.81092476  0.74220422  1
  Zr  Zr71  1  0.21116075  -0.00687615  0.01132172  1
  Zr  Zr72  1  0.21026989  0.20796145  0.75247497  1
  Zr  Zr73  1  0.40586285  -0.00413646  0.49707722  1
  Zr  Zr74  1  0.28912462  0.69475594  0.62409267  1
  Zr  Zr75  1  0.67000438  0.70320416  0.37902834  1
  Zr  Zr76  1  0.00185157  0.19439866  0.25740520  1
  Zr  Zr77  1  0.00553084  0.60373547  0.49513336  1
  Zr  Zr78  1  0.70769127  0.07964834  0.63333877  1
  Zr  Zr79  1  0.91612001  0.71228326  0.38015342  1
  Ta  Ta80  1  0.21687909  0.40684279  0.50243713  1
  Ta  Ta81  1  0.19203749  0.79640877  0.25695154  1
  Ta  Ta82  1  0.09846360  0.49529367  0.89143152  1
  Ta  Ta83  1  0.41005539  -0.00121337  0.25262221  1
  Ta  Ta84  1  0.20259699  -0.01196988  0.74575868  1
  Ta  Ta85  1  0.00007116  0.20156476  0.01544295  1
  Ta  Ta86  1  0.90020247  0.91799276  0.38028574  1
  Ta  Ta87  1  0.89953564  0.30065648  0.14042637  1
  Ta  Ta88  1  -0.00456572  0.79776945  0.00687886  1
  Ta  Ta89  1  0.30858081  0.09576815  0.36470527  1
  Ta  Ta90  1  0.59695949  0.80274660  0.74495820  1
  Ta  Ta91  1  0.69571148  0.92207562  0.36911659  1
  Ta  Ta92  1  0.10389988  0.50016671  0.11084999  1
  Ta  Ta93  1  0.59471296  0.40384889  0.73945659  1
  Ta  Ta94  1  0.29443666  0.89724434  0.37210976  1
  Ta  Ta95  1  0.00533600  0.21002233  0.75415298  1
  Ta  Ta96  1  0.68596368  0.71191537  0.61248606  1
  Ta  Ta97  1  0.10855183  0.29774383  0.11395714  1
  Ta  Ta98  1  -0.00063445  0.59903241  -0.00120827  1
  Ta  Ta99  1  0.90473722  0.70369810  0.12690885  1
  Ta  Ta100  1  0.51371728  0.10231521  0.37099529  1
  Ta  Ta101  1  0.10087057  0.88977429  0.13433638  1
  Ta  Ta102  1  0.81167217  0.20834709  0.74625085  1
  Ta  Ta103  1  0.19379930  0.59897580  0.76562206  1
  Ta  Ta104  1  0.89405842  0.49700140  0.88150380  1
  Ta  Ta105  1  0.40890462  0.39499148  0.22953339  1
  Ta  Ta106  1  0.29612218  0.89985804  0.62140168  1
  Ta  Ta107  1  0.40586098  0.37848641  0.73311785  1
  Ta  Ta108  1  0.10276319  0.29808039  0.89635037  1
  Ta  Ta109  1  0.79446934  0.60378305  0.75070631  1
  Ta  Ta110  1  0.89895424  0.50290895  0.61880288  1
  Ta  Ta111  1  0.19355138  -0.00569722  0.25285990  1
  Ta  Ta112  1  0.28441120  0.70227117  0.12502134  1
  Ta  Ta113  1  -0.00925302  0.00013834  0.24076493  1
  Ta  Ta114  1  0.89478071  0.89442579  0.12463049  1
  Ta  Ta115  1  0.69889749  0.50478662  0.86952342  1
  Ta  Ta116  1  0.40939578  0.20144500  0.24027426  1
  Ta  Ta117  1  0.29613233  0.69658676  0.87338900  1
  Ta  Ta118  1  0.79166180  0.60012073  0.48796443  1
  Ta  Ta119  1  0.60346321  0.19790997  -0.00083638  1
  Ti  Ti120  1  -0.00105341  0.00378371  0.75068092  1
  Ti  Ti121  1  0.11423891  0.31020397  0.37440711  1
  Ti  Ti122  1  0.80405120  0.40174595  0.00636016  1
  Ti  Ti123  1  0.51396467  0.88983158  0.61767686  1
  Ti  Ti124  1  0.52028695  0.50406987  0.13463431  1
  Ti  Ti125  1  0.69564798  0.69891152  0.87986537  1
  Ti  Ti126  1  0.19974428  0.59565098  -0.00636691  1
  Ti  Ti127  1  0.19734306  0.80045154  0.49000360  1
  Ti  Ti128  1  0.10647849  0.50657834  0.37863203  1
  Ti  Ti129  1  0.58080652  0.00814530  0.00041560  1
  Ti  Ti130  1  0.59884817  0.18962081  0.50504477  1
  Ti  Ti131  1  0.90795051  0.30581230  0.87925285  1
  Ti  Ti132  1  0.52085590  0.09727481  0.13574125  1
  Ti  Ti133  1  0.58636937  0.60762927  0.50801640  1
  Ti  Ti134  1  0.90455779  0.30423547  0.62146538  1
  Ti  Ti135  1  0.30567473  0.89787866  0.86818467  1
  Ti  Ti136  1  0.08867021  0.89778080  0.37289310  1
  Ti  Ti137  1  0.58974910  0.40026878  0.50646171  1
  Ti  Ti138  1  0.20978384  0.39821252  0.00362355  1
  Ti  Ti139  1  0.40235503  0.78678913  0.50503895  1
  Ti  Ti140  1  0.69510089  0.49769104  0.36509607  1
  Ti  Ti141  1  0.19895680  0.79767015  0.75351326  1
  Ti  Ti142  1  0.30403983  0.70163500  0.37914378  1
  Ti  Ti143  1  0.29439608  0.50543026  0.12727638  1
  Ti  Ti144  1  0.49287092  0.29187953  0.61180069  1
  Ti  Ti145  1  0.40392708  0.19873844  0.49272192  1
  Ti  Ti146  1  0.20346216  0.60321323  0.49129995  1
  Ti  Ti147  1  0.49920586  0.30123397  0.37287510  1
  Ti  Ti148  1  0.70237903  0.29727567  0.61686752  1
  Ti  Ti149  1  0.10030718  0.90131858  0.61849660  1
  Ti  Ti150  1  0.70437215  0.49369515  0.15066051  1
  Ti  Ti151  1  0.21137484  0.39541992  0.23564772  1
  Ti  Ti152  1  0.09142921  0.69124562  0.12544702  1
  Ti  Ti153  1  0.09540559  0.69739286  0.87807757  1
  Ti  Ti154  1  -0.00619294  0.39839553  0.00694396  1
  Ti  Ti155  1  0.00365349  0.79666716  0.24983217  1
  Ti  Ti156  1  0.59511277  0.59421683  -0.00221915  1
  Ti  Ti157  1  0.49718638  0.69934277  0.11852550  1
  Ti  Ti158  1  0.20768610  0.20018226  0.48445137  1
  Ti  Ti159  1  0.49337552  0.91346701  0.86619633  1
  Mo  Mo160  1  0.10926539  0.08698372  0.36758344  1
  Mo  Mo161  1  0.80468457  -0.00222906  0.24475073  1
  Mo  Mo162  1  0.50954528  0.30492840  0.87357493  1
  Mo  Mo163  1  0.40790648  0.38678203  0.50586407  1
  Mo  Mo164  1  0.80578047  0.39129153  0.26041824  1
  Mo  Mo165  1  0.49100315  0.91476995  0.12605700  1
  Mo  Mo166  1  0.58835875  0.19532104  0.25444095  1
  Mo  Mo167  1  0.50146336  0.48747557  0.62147307  1
  Mo  Mo168  1  0.29068083  0.89681486  0.14001909  1
  Mo  Mo169  1  0.69445980  0.09435405  0.38493467  1
  Mo  Mo170  1  0.80619145  0.00359147  0.75463416  1
  Mo  Mo171  1  0.89959036  0.08806507  0.37441196  1
  Mo  Mo172  1  0.60913722  -0.00212901  0.49969304  1
  Mo  Mo173  1  0.59367936  0.40360829  0.25049095  1
  Mo  Mo174  1  0.50018947  0.69813950  0.62119922  1
  Mo  Mo175  1  0.59279782  0.60052791  0.24731555  1
  Mo  Mo176  1  0.89851466  0.10331916  0.12679075  1
  Mo  Mo177  1  0.69445294  0.90133619  0.62271277  1
  Mo  Mo178  1  0.69330393  0.10453779  0.12064872  1
  Mo  Mo179  1  0.29463644  0.50557112  0.88485123  1
  Mo  Mo180  1  0.59868412  -0.02040142  0.75122985  1
  Mo  Mo181  1  0.80158549  0.80145097  0.01094504  1
  Mo  Mo182  1  0.79599091  0.00629105  0.49384126  1
  Mo  Mo183  1  0.40215303  0.20287744  0.74236735  1
  Mo  Mo184  1  0.29764089  0.30417114  0.12686201  1
  Mo  Mo185  1  0.09650200  0.09829288  0.12843247  1
  Mo  Mo186  1  0.89798558  0.30129512  0.35467502  1
  Mo  Mo187  1  0.30461850  0.29759993  0.60739372  1
  Mo  Mo188  1  0.50639958  0.29463460  0.12861806  1
  Mo  Mo189  1  0.41153368  -0.00359170  0.00614740  1
  Mo  Mo190  1  0.29366349  0.48780316  0.62627321  1
  Mo  Mo191  1  0.48396695  0.69462692  0.38198952  1
  Mo  Mo192  1  0.60271344  0.01115907  0.25274647  1
  Mo  Mo193  1  0.00281099  -0.00386109  0.49509857  1
  Mo  Mo194  1  0.00975184  0.61016396  0.24777435  1
  Mo  Mo195  1  0.19522052  0.20307540  0.00725524  1
  Mo  Mo196  1  0.01005957  0.81967257  0.49685241  1
  Mo  Mo197  1  0.58846226  0.80395694  0.50046738  1
  Mo  Mo198  1  0.39338497  -0.01327299  0.73983513  1
  Mo  Mo199  1  0.11187170  0.71102538  0.38020487  1
