# generated using pymatgen
data_HfZrTaTiMo
_symmetry_space_group_name_H-M   'P 1'
_cell_length_a   15.20402132
_cell_length_b   15.20026910
_cell_length_c   16.87231423
_cell_angle_alpha   89.93404014
_cell_angle_beta   89.95644320
_cell_angle_gamma   89.86208873
_symmetry_Int_Tables_number   1
_chemical_formula_structural   HfZrTaTiMo
_chemical_formula_sum   'Hf40 Zr40 Ta40 Ti40 Mo40'
_cell_volume   3899.26481489
_cell_formula_units_Z   40
loop_
 _symmetry_equiv_pos_site_id
 _symmetry_equiv_pos_as_xyz
  1  'x, y, z'
loop_
 _atom_site_type_symbol
 _atom_site_label
 _atom_site_symmetry_multiplicity
 _atom_site_fract_x
 _atom_site_fract_y
 _atom_site_fract_z
 _atom_site_occupancy
  Hf  Hf0  1  0.79619721  0.00457657  0.74599142  1
  Hf  Hf1  1  0.10099286  0.69167544  0.13227602  1
  Hf  Hf2  1  0.69548976  0.71737829  0.86666482  1
  Hf  Hf3  1  0.40262415  0.40368885  0.50797448  1
  Hf  Hf4  1  0.10757477  0.49254867  0.11068469  1
  Hf  Hf5  1  0.20031760  0.19754404  0.50384175  1
  Hf  Hf6  1  0.30505507  0.49580054  0.10816476  1
  Hf  Hf7  1  0.20120390  0.40314106  0.51365579  1
  Hf  Hf8  1  0.91763608  0.52253047  0.37278599  1
  Hf  Hf9  1  0.69921421  0.50425932  0.87038868  1
  Hf  Hf10  1  0.59976875  0.40971734  0.00789515  1
  Hf  Hf11  1  0.80348913  0.60997017  0.49933277  1
  Hf  Hf12  1  0.57395815  0.59909378  0.76142063  1
  Hf  Hf13  1  0.50779422  0.89571907  0.10598302  1
  Hf  Hf14  1  0.41075729  0.78411247  0.77158355  1
  Hf  Hf15  1  0.39187204  0.00041851  -0.00593274  1
  Hf  Hf16  1  0.19392789  0.79317377  0.00572460  1
  Hf  Hf17  1  0.89093870  0.90216586  0.13665867  1
  Hf  Hf18  1  0.41193075  0.19287508  0.74476060  1
  Hf  Hf19  1  0.19521924  0.20241274  0.26069960  1
  Hf  Hf20  1  0.90714710  0.51011616  0.13621408  1
  Hf  Hf21  1  0.72625168  0.30300689  0.61175869  1
  Hf  Hf22  1  0.60841149  0.40272493  0.49148019  1
  Hf  Hf23  1  0.71516133  0.49955729  0.36229115  1
  Hf  Hf24  1  0.89820454  0.30789418  0.36986362  1
  Hf  Hf25  1  0.90794088  0.30836253  0.14077272  1
  Hf  Hf26  1  0.08081594  0.10038968  0.61022356  1
  Hf  Hf27  1  -0.01507886  0.21006820  0.74215944  1
  Hf  Hf28  1  0.71172002  0.70813659  0.64147134  1
  Hf  Hf29  1  0.59764676  0.39894777  0.25226573  1
  Hf  Hf30  1  0.19506843  0.19712856  0.73648595  1
  Hf  Hf31  1  0.19927657  0.60612905  0.50852938  1
  Hf  Hf32  1  0.10283440  0.89601628  0.87401953  1
  Hf  Hf33  1  0.10130028  0.89208756  0.62495348  1
  Hf  Hf34  1  0.82994083  0.59795524  0.75389087  1
  Hf  Hf35  1  0.38639701  0.40224575  0.24765839  1
  Hf  Hf36  1  0.79651618  0.20604566  0.01054454  1
  Hf  Hf37  1  0.68784124  0.30276586  0.87706698  1
  Hf  Hf38  1  0.42117021  0.40284789  0.74410884  1
  Hf  Hf39  1  0.39573230  0.78795234  -0.00078140  1
  Zr  Zr40  1  0.38825761  -0.01400759  0.49376873  1
  Zr  Zr41  1  0.29911176  0.07945468  0.62665589  1
  Zr  Zr42  1  0.69792241  0.71471162  0.12709417  1
  Zr  Zr43  1  0.69166041  0.89891574  0.63547792  1
  Zr  Zr44  1  0.68141625  0.10737074  0.63090743  1
  Zr  Zr45  1  0.28287581  0.10372868  0.88271915  1
  Zr  Zr46  1  0.79937092  0.60421445  -0.00157055  1
  Zr  Zr47  1  -0.02061782  -0.01490668  0.49882155  1
  Zr  Zr48  1  0.70646129  0.28338451  0.36577795  1
  Zr  Zr49  1  0.30297085  0.29894210  0.38221469  1
  Zr  Zr50  1  0.50568232  0.70956821  0.62797724  1
  Zr  Zr51  1  0.39345517  -0.00977621  0.77557487  1
  Zr  Zr52  1  0.70443933  0.71587173  0.36746137  1
  Zr  Zr53  1  -0.00949108  0.00169758  0.73836212  1
  Zr  Zr54  1  0.50801214  0.09610975  0.36718655  1
  Zr  Zr55  1  0.00208445  0.19486363  0.00289460  1
  Zr  Zr56  1  0.30026803  0.71058072  0.36389743  1
  Zr  Zr57  1  0.10472784  0.49703741  0.87576627  1
  Zr  Zr58  1  0.80897489  0.39261826  0.75079740  1
  Zr  Zr59  1  0.39910702  0.78788605  0.23018238  1
  Zr  Zr60  1  0.08433355  0.09955147  0.87320733  1
  Zr  Zr61  1  0.59989593  0.80506852  0.49573188  1
  Zr  Zr62  1  0.10165708  0.88988470  0.36532669  1
  Zr  Zr63  1  0.49393075  0.50715183  0.37229665  1
  Zr  Zr64  1  0.89649475  0.89810734  0.87130826  1
  Zr  Zr65  1  0.50147370  0.29617485  0.12666197  1
  Zr  Zr66  1  0.41684683  0.19234989  0.51293965  1
  Zr  Zr67  1  0.49065732  0.91298203  0.63524644  1
  Zr  Zr68  1  0.31119086  0.49222423  0.87709791  1
  Zr  Zr69  1  0.40072880  0.19480283  0.24180934  1
  Zr  Zr70  1  0.69400608  0.50399832  0.63139276  1
  Zr  Zr71  1  0.29314604  0.68718351  0.87722178  1
  Zr  Zr72  1  0.11564815  0.28929589  0.12320201  1
  Zr  Zr73  1  0.69586167  0.92394974  0.37168083  1
  Zr  Zr74  1  0.03450144  0.40547618  0.26599962  1
  Zr  Zr75  1  0.08349301  0.51016743  0.63282951  1
  Zr  Zr76  1  0.09275799  0.67966920  0.36606063  1
  Zr  Zr77  1  0.90218463  0.30354836  0.87948832  1
  Zr  Zr78  1  0.39820960  -0.00536931  0.23882471  1
  Zr  Zr79  1  0.88261105  0.10147914  0.37684293  1
  Ta  Ta80  1  0.30726818  0.29780876  0.86372298  1
  Ta  Ta81  1  0.49510711  0.50883171  0.61811788  1
  Ta  Ta82  1  0.77806063  0.02160755  0.24084934  1
  Ta  Ta83  1  0.09091846  0.89460863  0.13826900  1
  Ta  Ta84  1  0.38846406  0.21678474  0.00242853  1
  Ta  Ta85  1  0.69148846  0.91922165  0.11917687  1
  Ta  Ta86  1  -0.00861183  -0.00891058  0.00936812  1
  Ta  Ta87  1  -0.00247046  0.78450269  0.74981238  1
  Ta  Ta88  1  0.28381584  0.89892945  0.12328593  1
  Ta  Ta89  1  0.19645598  -0.00079446  0.25016484  1
  Ta  Ta90  1  0.59546908  0.60605393  0.49219566  1
  Ta  Ta91  1  0.70372241  0.50903040  0.14061761  1
  Ta  Ta92  1  0.29057374  0.50584617  0.37586696  1
  Ta  Ta93  1  0.80061111  0.81258582  0.00082156  1
  Ta  Ta94  1  0.59281866  0.61434124  0.25394695  1
  Ta  Ta95  1  0.28529158  0.10698887  0.11509493  1
  Ta  Ta96  1  0.50714814  0.50791058  0.12924921  1
  Ta  Ta97  1  0.81384640  0.81300306  0.50090360  1
  Ta  Ta98  1  0.80260675  0.40758391  0.00815358  1
  Ta  Ta99  1  0.21462192  0.37474938  -0.00700837  1
  Ta  Ta100  1  0.00425756  0.40152271  0.48950053  1
  Ta  Ta101  1  0.20749988  0.80134143  0.50156183  1
  Ta  Ta102  1  0.58971981  0.01014358  0.77061326  1
  Ta  Ta103  1  0.20308428  0.58246268  0.24567634  1
  Ta  Ta104  1  0.79515221  0.00913984  0.00439898  1
  Ta  Ta105  1  -0.00437115  0.79832895  0.00390157  1
  Ta  Ta106  1  0.51532129  0.88674280  0.89094137  1
  Ta  Ta107  1  -0.00204248  0.40196514  -0.00405146  1
  Ta  Ta108  1  0.20604421  0.39749404  0.73905835  1
  Ta  Ta109  1  0.39418151  0.79296293  0.49705353  1
  Ta  Ta110  1  0.19633345  -0.00954601  0.74976821  1
  Ta  Ta111  1  0.58721447  0.00912079  0.50155734  1
  Ta  Ta112  1  0.29172840  0.08680009  0.37523110  1
  Ta  Ta113  1  0.70824497  0.30537112  0.13771285  1
  Ta  Ta114  1  0.39766605  0.60639272  0.49970044  1
  Ta  Ta115  1  0.81570124  0.62666572  0.25162261  1
  Ta  Ta116  1  0.09436652  0.69462851  0.87423462  1
  Ta  Ta117  1  0.48897587  0.88532782  0.36875116  1
  Ta  Ta118  1  -0.01771594  0.78494245  0.25273240  1
  Ta  Ta119  1  0.09401531  0.08585983  0.12996030  1
  Ti  Ti120  1  0.50943755  0.09058103  0.11160185  1
  Ti  Ti121  1  -0.00275798  0.41191157  0.75491345  1
  Ti  Ti122  1  0.89077033  0.09861693  0.87953621  1
  Ti  Ti123  1  0.91680122  0.69108643  0.62317229  1
  Ti  Ti124  1  0.89438544  0.48669337  0.60838412  1
  Ti  Ti125  1  0.20504271  0.79787321  0.75723550  1
  Ti  Ti126  1  0.50206785  0.11405940  0.88807196  1
  Ti  Ti127  1  0.09222412  0.09997131  0.38424203  1
  Ti  Ti128  1  0.79891301  0.19686716  0.74817115  1
  Ti  Ti129  1  0.61925905  0.17214484  0.24001219  1
  Ti  Ti130  1  0.19423025  -0.01247933  0.49252824  1
  Ti  Ti131  1  0.10435615  0.70458405  0.63180987  1
  Ti  Ti132  1  0.61003350  0.19601647  0.49641369  1
  Ti  Ti133  1  0.30772478  0.69188792  0.63408912  1
  Ti  Ti134  1  0.18583179  -0.00305138  0.00475887  1
  Ti  Ti135  1  0.41589948  0.58600009  -0.00408703  1
  Ti  Ti136  1  0.89400472  0.88365416  0.63173672  1
  Ti  Ti137  1  0.50304005  0.29541666  0.37314042  1
  Ti  Ti138  1  -0.00535091  0.00212587  0.25562101  1
  Ti  Ti139  1  0.90130204  0.70540872  0.12015861  1
  Ti  Ti140  1  0.70162539  0.90825190  0.87746839  1
  Ti  Ti141  1  0.00237138  0.78265967  0.49650887  1
  Ti  Ti142  1  0.59823748  0.20078959  0.00363063  1
  Ti  Ti143  1  0.29812710  0.88205213  0.63191179  1
  Ti  Ti144  1  0.88768969  0.89384857  0.35985771  1
  Ti  Ti145  1  0.00387223  0.60222667  -0.00506939  1
  Ti  Ti146  1  0.30850444  0.30199361  0.63044735  1
  Ti  Ti147  1  0.11071329  0.29687550  0.87072560  1
  Ti  Ti148  1  0.39870778  0.60057695  0.24063342  1
  Ti  Ti149  1  0.52459456  0.30087974  0.62364966  1
  Ti  Ti150  1  0.78624425  0.00943807  0.51188726  1
  Ti  Ti151  1  0.59767647  0.81162608  0.24857904  1
  Ti  Ti152  1  0.20241945  0.59716878  0.74350634  1
  Ti  Ti153  1  0.08791043  0.30569303  0.62281709  1
  Ti  Ti154  1  0.89470392  0.10277351  0.13344724  1
  Ti  Ti155  1  0.90292850  0.70016628  0.87912241  1
  Ti  Ti156  1  0.69775783  0.10355669  0.87735759  1
  Ti  Ti157  1  0.59785843  0.21247459  0.75523796  1
  Ti  Ti158  1  0.00195653  0.19145805  0.25732691  1
  Ti  Ti159  1  0.50727777  0.69021817  0.10937615  1
  Mo  Mo160  1  0.60125419  0.39427429  0.74343682  1
  Mo  Mo161  1  0.80782461  0.40608522  0.49485868  1
  Mo  Mo162  1  0.00153032  0.20710576  0.49260616  1
  Mo  Mo163  1  0.19922194  0.19188444  -0.00350806  1
  Mo  Mo164  1  0.88360310  0.11902508  0.61142114  1
  Mo  Mo165  1  0.19720108  0.79922333  0.23496409  1
  Mo  Mo166  1  0.00425555  0.60168035  0.24500395  1
  Mo  Mo167  1  0.29494603  0.89540250  0.87983934  1
  Mo  Mo168  1  0.00069877  0.60402911  0.50750791  1
  Mo  Mo169  1  0.11401092  0.49567278  0.38363687  1
  Mo  Mo170  1  0.50531673  0.68500257  0.89254123  1
  Mo  Mo171  1  0.69670427  0.10101410  0.37977893  1
  Mo  Mo172  1  0.30080607  0.68783884  0.12011014  1
  Mo  Mo173  1  0.49886920  0.70099968  0.37265487  1
  Mo  Mo174  1  0.80511043  0.19926390  0.50149067  1
  Mo  Mo175  1  0.90686854  0.50263088  0.88627759  1
  Mo  Mo176  1  0.81008817  0.80019402  0.75037139  1
  Mo  Mo177  1  0.00732692  0.60308115  0.75651694  1
  Mo  Mo178  1  0.80602798  0.20078341  0.23759124  1
  Mo  Mo179  1  0.50344153  0.10334025  0.63139709  1
  Mo  Mo180  1  0.69199070  0.10675769  0.11436089  1
  Mo  Mo181  1  0.40807478  0.39413708  -0.00268890  1
  Mo  Mo182  1  0.09941110  0.28964346  0.38662823  1
  Mo  Mo183  1  0.29789680  0.29739360  0.12364511  1
  Mo  Mo184  1  0.59918801  0.60231717  -0.00162851  1
  Mo  Mo185  1  0.30304261  0.50524191  0.63175717  1
  Mo  Mo186  1  0.21096834  0.39968164  0.25263375  1
  Mo  Mo187  1  0.91601532  0.30534650  0.61171033  1
  Mo  Mo188  1  0.79481884  0.81501882  0.24480811  1
  Mo  Mo189  1  0.60273232  0.01000999  -0.01872772  1
  Mo  Mo190  1  0.29310134  0.89980326  0.36652195  1
  Mo  Mo191  1  0.50623975  0.48586308  0.87914164  1
  Mo  Mo192  1  0.60023846  0.81300803  0.76330413  1
  Mo  Mo193  1  0.90036816  0.71500947  0.38011476  1
  Mo  Mo194  1  0.80362166  0.41226591  0.24402779  1
  Mo  Mo195  1  0.59077663  -0.00253451  0.24120016  1
  Mo  Mo196  1  0.39192154  0.59390215  0.74637105  1
  Mo  Mo197  1  0.19953017  0.59656664  -0.00008177  1
  Mo  Mo198  1  0.61055200  0.80062061  -0.00053920  1
  Mo  Mo199  1  0.49685031  0.29982714  0.88138111  1
