# generated using pymatgen
data_HfZrTaTiMo
_symmetry_space_group_name_H-M   'P 1'
_cell_length_a   15.21334500
_cell_length_b   15.21142139
_cell_length_c   16.86804735
_cell_angle_alpha   89.98207988
_cell_angle_beta   89.97334279
_cell_angle_gamma   90.00038735
_symmetry_Int_Tables_number   1
_chemical_formula_structural   HfZrTaTiMo
_chemical_formula_sum   'Hf40 Zr40 Ta40 Ti40 Mo40'
_cell_volume   3903.54557734
_cell_formula_units_Z   40
loop_
 _symmetry_equiv_pos_site_id
 _symmetry_equiv_pos_as_xyz
  1  'x, y, z'
loop_
 _atom_site_type_symbol
 _atom_site_label
 _atom_site_symmetry_multiplicity
 _atom_site_fract_x
 _atom_site_fract_y
 _atom_site_fract_z
 _atom_site_occupancy
  Hf  Hf0  1  0.11161036  0.30381528  0.86306583  1
  Hf  Hf1  1  0.70042978  0.71247882  0.37623463  1
  Hf  Hf2  1  0.31507533  0.50358927  0.12063375  1
  Hf  Hf3  1  0.31807014  0.90992076  0.38223326  1
  Hf  Hf4  1  0.29549361  0.09656792  0.88754467  1
  Hf  Hf5  1  0.69691453  0.29792581  0.86313309  1
  Hf  Hf6  1  -0.00020642  0.80274841  0.73667598  1
  Hf  Hf7  1  0.89920855  0.71197903  0.12823111  1
  Hf  Hf8  1  0.79718530  0.60644045  0.25710525  1
  Hf  Hf9  1  -0.00277458  0.41032376  0.74841593  1
  Hf  Hf10  1  0.89306300  0.11459090  0.61889286  1
  Hf  Hf11  1  0.58140778  -0.00915908  0.75089246  1
  Hf  Hf12  1  0.89267814  0.32168551  0.38289782  1
  Hf  Hf13  1  0.80449540  0.79397819  0.50023944  1
  Hf  Hf14  1  0.89130782  0.49967827  0.12979347  1
  Hf  Hf15  1  0.59532230  0.20951278  0.23984005  1
  Hf  Hf16  1  0.40213198  0.59683725  0.49512561  1
  Hf  Hf17  1  0.09428137  0.90601774  0.39697087  1
  Hf  Hf18  1  0.60227855  -0.00754776  0.23410853  1
  Hf  Hf19  1  0.10186796  0.70397988  0.87512730  1
  Hf  Hf20  1  0.10200526  0.90891831  0.86514901  1
  Hf  Hf21  1  0.50160471  0.30348610  0.38158471  1
  Hf  Hf22  1  0.29238009  0.49845117  0.63232377  1
  Hf  Hf23  1  0.60403097  0.57624034  0.00915094  1
  Hf  Hf24  1  0.09327196  0.50151268  0.62130961  1
  Hf  Hf25  1  0.20851657  0.80526800  0.74074031  1
  Hf  Hf26  1  0.08062425  0.08848668  0.13174731  1
  Hf  Hf27  1  0.29802373  0.71110584  0.37752876  1
  Hf  Hf28  1  0.78947560  0.40527493  -0.00180440  1
  Hf  Hf29  1  0.21605201  0.19234742  0.74570337  1
  Hf  Hf30  1  0.89697037  0.08705705  0.39008248  1
  Hf  Hf31  1  0.39186636  0.38959198  0.75415769  1
  Hf  Hf32  1  0.20525962  0.39924063  0.00611236  1
  Hf  Hf33  1  0.40205411  0.59549555  0.25609189  1
  Hf  Hf34  1  0.21539525  0.80415432  -0.00000476  1
  Hf  Hf35  1  0.69657822  0.49966657  0.85836445  1
  Hf  Hf36  1  0.30311458  0.29565593  0.62213654  1
  Hf  Hf37  1  0.60656791  0.78184278  0.76387606  1
  Hf  Hf38  1  0.37917511  0.00500317  0.74006242  1
  Hf  Hf39  1  0.59675777  0.21107422  0.00874902  1
  Zr  Zr40  1  0.60408527  0.59542194  0.49380225  1
  Zr  Zr41  1  0.49887311  0.70749074  0.37196844  1
  Zr  Zr42  1  0.10049754  0.10078937  0.62791984  1
  Zr  Zr43  1  0.18766222  0.39460310  0.48617203  1
  Zr  Zr44  1  0.40182871  0.61215268  -0.01658006  1
  Zr  Zr45  1  0.20792884  0.39990284  0.25526826  1
  Zr  Zr46  1  0.69576956  0.50206639  0.62951705  1
  Zr  Zr47  1  0.20681675  0.19997103  0.49540142  1
  Zr  Zr48  1  0.09123365  0.10525400  0.86397811  1
  Zr  Zr49  1  0.59071777  -0.00466472  0.50103980  1
  Zr  Zr50  1  0.60049816  0.57446171  0.24741133  1
  Zr  Zr51  1  0.00604230  0.21794218  0.49350698  1
  Zr  Zr52  1  0.60481717  0.78273083  0.00363458  1
  Zr  Zr53  1  0.70953804  0.90269018  0.87790158  1
  Zr  Zr54  1  -0.01274205  0.19150423  0.00623537  1
  Zr  Zr55  1  0.40885774  0.80276737  0.75430834  1
  Zr  Zr56  1  0.49518719  0.09345522  0.37212123  1
  Zr  Zr57  1  0.60189752  0.18512651  0.74489175  1
  Zr  Zr58  1  0.90097878  0.29508776  0.86416202  1
  Zr  Zr59  1  0.09675186  0.50805383  0.12696358  1
  Zr  Zr60  1  0.19180207  0.59949988  0.48748179  1
  Zr  Zr61  1  -0.00517153  0.39414800  0.00747893  1
  Zr  Zr62  1  0.19990668  0.00304578  0.25143776  1
  Zr  Zr63  1  0.08771327  0.50536644  0.88154917  1
  Zr  Zr64  1  0.30419032  0.71093264  0.12984436  1
  Zr  Zr65  1  0.39214312  0.20026900  0.24726177  1
  Zr  Zr66  1  0.80928685  0.00909718  0.00555716  1
  Zr  Zr67  1  0.61493613  0.79230915  0.22959991  1
  Zr  Zr68  1  0.71966629  0.11625278  0.13593948  1
  Zr  Zr69  1  0.60282120  -0.00715275  0.01316942  1
  Zr  Zr70  1  0.68285091  0.88198345  0.61931963  1
  Zr  Zr71  1  0.52260952  0.70072775  0.62279884  1
  Zr  Zr72  1  0.19054890  0.60212021  0.26004177  1
  Zr  Zr73  1  0.70913617  0.28662776  0.62526309  1
  Zr  Zr74  1  -0.01214036  0.19021885  0.26342583  1
  Zr  Zr75  1  0.78781425  0.00935597  0.73609946  1
  Zr  Zr76  1  0.30703115  0.69705053  0.62246284  1
  Zr  Zr77  1  0.81145558  0.80066053  0.74153593  1
  Zr  Zr78  1  0.19232274  0.81194903  0.25088185  1
  Zr  Zr79  1  0.29151730  0.10456211  0.11805449  1
  Ta  Ta80  1  0.82280484  0.81452604  0.26606685  1
  Ta  Ta81  1  0.19881876  0.60560881  -0.00315653  1
  Ta  Ta82  1  0.89167311  0.09434588  0.86113331  1
  Ta  Ta83  1  -0.00534893  -0.00834875  -0.00688108  1
  Ta  Ta84  1  0.49205986  0.49598818  0.63597217  1
  Ta  Ta85  1  0.48926691  0.10142642  0.11216878  1
  Ta  Ta86  1  0.42182865  0.40063992  0.24513514  1
  Ta  Ta87  1  0.19103981  0.20320438  0.00390709  1
  Ta  Ta88  1  0.20572741  0.80269850  0.50745432  1
  Ta  Ta89  1  0.88226067  0.28627530  0.13906725  1
  Ta  Ta90  1  0.09945731  0.29337433  0.13525534  1
  Ta  Ta91  1  0.41817492  0.82134508  0.50986094  1
  Ta  Ta92  1  0.70333572  0.48078962  0.38597381  1
  Ta  Ta93  1  0.68578819  0.32904495  0.12798408  1
  Ta  Ta94  1  0.09277182  0.71093698  0.12247716  1
  Ta  Ta95  1  0.69651454  0.09654103  0.36655137  1
  Ta  Ta96  1  0.18716593  -0.00436280  0.00842623  1
  Ta  Ta97  1  0.92160268  0.90720382  0.13060863  1
  Ta  Ta98  1  -0.00659557  0.39839764  0.24653950  1
  Ta  Ta99  1  0.89415741  0.50724793  0.61800188  1
  Ta  Ta100  1  0.50172739  0.49284552  0.86303175  1
  Ta  Ta101  1  0.81625413  0.80509024  -0.00425562  1
  Ta  Ta102  1  0.49321999  0.09688010  0.89083627  1
  Ta  Ta103  1  0.30186556  0.10097456  0.37835169  1
  Ta  Ta104  1  0.59467367  0.38793142  0.51294965  1
  Ta  Ta105  1  0.19247073  0.20397054  0.26135855  1
  Ta  Ta106  1  0.29302902  0.49618360  0.87183757  1
  Ta  Ta107  1  0.70880264  0.68933685  0.87769758  1
  Ta  Ta108  1  0.41647507  0.39705658  -0.00237275  1
  Ta  Ta109  1  0.10351710  0.90349493  0.61568731  1
  Ta  Ta110  1  0.69674947  0.10596668  0.87940322  1
  Ta  Ta111  1  0.49860176  0.29145555  0.87652354  1
  Ta  Ta112  1  0.69553388  0.29238185  0.38139599  1
  Ta  Ta113  1  0.79768277  0.61003804  0.00473789  1
  Ta  Ta114  1  -0.00865523  0.61088576  0.74533410  1
  Ta  Ta115  1  0.19763353  0.59860531  0.75586768  1
  Ta  Ta116  1  0.07141060  0.49184169  0.37373247  1
  Ta  Ta117  1  0.49846410  0.68700411  0.12594295  1
  Ta  Ta118  1  0.80063947  0.60985720  0.74369356  1
  Ta  Ta119  1  0.40163547  0.39946761  0.50452497  1
  Ti  Ti120  1  0.40632893  0.80908367  0.24716888  1
  Ti  Ti121  1  0.00663418  0.80825807  -0.00385307  1
  Ti  Ti122  1  0.09785085  0.69622143  0.61965124  1
  Ti  Ti123  1  0.31130790  0.49166982  0.37437678  1
  Ti  Ti124  1  0.80408000  0.40084409  0.74538681  1
  Ti  Ti125  1  0.38833558  -0.01221587  0.00591316  1
  Ti  Ti126  1  0.90881161  0.91074821  0.60885354  1
  Ti  Ti127  1  -0.00491004  -0.00002248  0.74358586  1
  Ti  Ti128  1  0.30523742  0.29753094  0.37624323  1
  Ti  Ti129  1  0.48376119  0.88647989  0.11418208  1
  Ti  Ti130  1  0.50137654  0.10245175  0.61763163  1
  Ti  Ti131  1  0.90397742  0.31186323  0.61943163  1
  Ti  Ti132  1  0.21332368  0.00215606  0.50814788  1
  Ti  Ti133  1  0.58860930  0.38911441  0.73730962  1
  Ti  Ti134  1  0.72781932  0.88760703  0.12423606  1
  Ti  Ti135  1  0.30584853  0.29851297  0.12082198  1
  Ti  Ti136  1  0.30006310  0.90004579  0.87576829  1
  Ti  Ti137  1  0.89144557  0.51739447  0.87434704  1
  Ti  Ti138  1  0.90147747  0.70806677  0.87809916  1
  Ti  Ti139  1  -0.00178720  0.79541598  0.50653792  1
  Ti  Ti140  1  -0.00767448  0.61067741  0.25887259  1
  Ti  Ti141  1  0.52264619  0.89552594  0.36852865  1
  Ti  Ti142  1  0.30735127  0.29362606  0.88440909  1
  Ti  Ti143  1  0.40349533  0.60525585  0.76358219  1
  Ti  Ti144  1  0.49411707  0.89589842  0.88949037  1
  Ti  Ti145  1  -0.01096270  0.60234352  0.49160847  1
  Ti  Ti146  1  0.41075067  0.19617717  0.50447338  1
  Ti  Ti147  1  0.78383159  0.19617161  0.49544323  1
  Ti  Ti148  1  0.81007787  0.00381201  0.25381416  1
  Ti  Ti149  1  0.79136001  -0.00535381  0.50010277  1
  Ti  Ti150  1  0.10220274  0.09834754  0.38388197  1
  Ti  Ti151  1  0.08736928  0.70770329  0.37837003  1
  Ti  Ti152  1  0.79883750  0.20680979  -0.00076533  1
  Ti  Ti153  1  0.41167495  0.19525933  0.74661263  1
  Ti  Ti154  1  -0.00633657  0.60968119  0.00202179  1
  Ti  Ti155  1  -0.00299487  -0.02179397  0.26265735  1
  Ti  Ti156  1  0.40147219  -0.00371229  0.23718656  1
  Ti  Ti157  1  0.80723688  0.59557096  0.49202365  1
  Ti  Ti158  1  0.09792456  0.30561584  0.63703693  1
  Ti  Ti159  1  0.78771283  0.40046475  0.25216645  1
  Mo  Mo160  1  0.30780191  0.10226626  0.61909050  1
  Mo  Mo161  1  -0.00823418  0.41274595  0.50491176  1
  Mo  Mo162  1  0.79757850  0.40258442  0.50399811  1
  Mo  Mo163  1  0.00317969  0.79868457  0.25679647  1
  Mo  Mo164  1  0.80733968  0.20316641  0.75019305  1
  Mo  Mo165  1  0.71124488  0.69963741  0.12516645  1
  Mo  Mo166  1  0.50952811  0.68823838  0.87489138  1
  Mo  Mo167  1  0.00125433  0.00017307  0.50557346  1
  Mo  Mo168  1  0.60522686  0.80180431  0.49358903  1
  Mo  Mo169  1  0.39467841  0.00914632  0.51150141  1
  Mo  Mo170  1  0.90667502  0.69211725  0.61676749  1
  Mo  Mo171  1  0.40668511  0.80318041  -0.00964030  1
  Mo  Mo172  1  0.50761518  0.48253317  0.12067038  1
  Mo  Mo173  1  0.89903318  0.09560390  0.13587308  1
  Mo  Mo174  1  0.29702722  0.90409275  0.61512394  1
  Mo  Mo175  1  0.70949700  0.91362609  0.36992510  1
  Mo  Mo176  1  0.20079808  0.40320954  0.75511080  1
  Mo  Mo177  1  0.60123639  0.19442779  0.50137457  1
  Mo  Mo178  1  -0.00739654  0.20370733  0.73964595  1
  Mo  Mo179  1  0.59516720  0.59308839  0.75308781  1
  Mo  Mo180  1  0.70727526  0.50206651  0.12680465  1
  Mo  Mo181  1  0.90095817  0.89812415  0.38943033  1
  Mo  Mo182  1  0.29705486  0.69577744  0.86841606  1
  Mo  Mo183  1  0.39398186  0.20173079  -0.00189255  1
  Mo  Mo184  1  0.49472589  0.90039752  0.62984299  1
  Mo  Mo185  1  0.79341842  0.20764579  0.26353373  1
  Mo  Mo186  1  0.69836843  0.09427412  0.61585445  1
  Mo  Mo187  1  0.90917600  0.90225503  0.87275956  1
  Mo  Mo188  1  0.30766179  0.90672665  0.12355721  1
  Mo  Mo189  1  0.71492801  0.68624870  0.61962676  1
  Mo  Mo190  1  0.19519361  -0.00579238  0.74244593  1
  Mo  Mo191  1  0.49954758  0.48780286  0.38333199  1
  Mo  Mo192  1  0.49289448  0.30351060  0.12107058  1
  Mo  Mo193  1  0.60438521  0.39750110  0.25859500  1
  Mo  Mo194  1  0.09667378  0.30376516  0.36232776  1
  Mo  Mo195  1  0.90909678  0.69913542  0.37812732  1
  Mo  Mo196  1  0.59806605  0.39723970  -0.01078619  1
  Mo  Mo197  1  0.09951443  0.89396594  0.11948650  1
  Mo  Mo198  1  0.89181537  0.50598364  0.37110033  1
  Mo  Mo199  1  0.49816303  0.29908100  0.61948508  1
