# generated using pymatgen
data_HfZrTaTiMo
_symmetry_space_group_name_H-M   'P 1'
_cell_length_a   15.20732283
_cell_length_b   15.20252748
_cell_length_c   16.88192410
_cell_angle_alpha   90.03424621
_cell_angle_beta   90.02814861
_cell_angle_gamma   89.92534244
_symmetry_Int_Tables_number   1
_chemical_formula_structural   HfZrTaTiMo
_chemical_formula_sum   'Hf40 Zr40 Ta40 Ti40 Mo40'
_cell_volume   3902.92321900
_cell_formula_units_Z   40
loop_
 _symmetry_equiv_pos_site_id
 _symmetry_equiv_pos_as_xyz
  1  'x, y, z'
loop_
 _atom_site_type_symbol
 _atom_site_label
 _atom_site_symmetry_multiplicity
 _atom_site_fract_x
 _atom_site_fract_y
 _atom_site_fract_z
 _atom_site_occupancy
  Hf  Hf0  1  0.49210378  0.49193466  0.36392205  1
  Hf  Hf1  1  0.48839650  0.48422109  0.89201780  1
  Hf  Hf2  1  0.08652029  0.10621812  0.37298890  1
  Hf  Hf3  1  0.20184759  0.21069192  0.75247170  1
  Hf  Hf4  1  0.19237261  0.21765914  0.50188774  1
  Hf  Hf5  1  0.51165432  0.27040046  0.13014974  1
  Hf  Hf6  1  0.69989758  0.70870933  0.62437848  1
  Hf  Hf7  1  0.10660750  0.11255998  0.12491073  1
  Hf  Hf8  1  0.39158578  0.38554204  0.02435394  1
  Hf  Hf9  1  0.00736963  0.40356657  0.48758813  1
  Hf  Hf10  1  0.11703284  0.50376164  0.90773423  1
  Hf  Hf11  1  -0.00350502  0.00096012  0.50915933  1
  Hf  Hf12  1  0.59752569  0.40249569  0.75142965  1
  Hf  Hf13  1  0.48875735  0.29356665  0.63065781  1
  Hf  Hf14  1  0.69094611  0.50264473  0.88755428  1
  Hf  Hf15  1  0.58636088  -0.00637335  -0.00372774  1
  Hf  Hf16  1  0.61148864  0.18946208  0.49018108  1
  Hf  Hf17  1  0.90859456  0.49585517  0.62780605  1
  Hf  Hf18  1  0.69479581  0.50007527  0.62683745  1
  Hf  Hf19  1  0.80365913  0.38995119  0.00674260  1
  Hf  Hf20  1  0.90511902  0.29631145  0.37354110  1
  Hf  Hf21  1  0.31682104  0.90919214  0.12160800  1
  Hf  Hf22  1  0.11283496  0.70981079  0.89666639  1
  Hf  Hf23  1  0.49518483  0.28767230  0.86985289  1
  Hf  Hf24  1  0.49278007  0.89266598  0.87102150  1
  Hf  Hf25  1  0.39903375  0.58661779  0.76171772  1
  Hf  Hf26  1  0.50151405  0.88101034  0.37989693  1
  Hf  Hf27  1  0.90684876  0.70993814  0.37510402  1
  Hf  Hf28  1  0.07846386  0.31378946  0.88685232  1
  Hf  Hf29  1  0.09836004  0.90775204  0.87651162  1
  Hf  Hf30  1  0.79202949  0.60368953  0.76078005  1
  Hf  Hf31  1  0.50817127  0.68776854  0.88827462  1
  Hf  Hf32  1  0.39818176  0.78523560  0.50313713  1
  Hf  Hf33  1  0.09194075  0.49190003  0.11442013  1
  Hf  Hf34  1  0.30700875  0.11245122  0.63069274  1
  Hf  Hf35  1  0.19214421  0.37961792  0.23384097  1
  Hf  Hf36  1  0.68228724  0.11110429  0.12766523  1
  Hf  Hf37  1  0.79942781  0.03172026  0.48814187  1
  Hf  Hf38  1  0.81166597  0.79225531  0.24247019  1
  Hf  Hf39  1  0.19536698  -0.00359314  0.51156528  1
  Zr  Zr40  1  0.38744472  0.58404966  0.49293236  1
  Zr  Zr41  1  0.80349616  0.81774301  0.50025937  1
  Zr  Zr42  1  0.40196747  0.39246350  0.23417719  1
  Zr  Zr43  1  0.38664090  0.59908562  0.01613400  1
  Zr  Zr44  1  0.59186112  0.00178672  0.26239734  1
  Zr  Zr45  1  0.40057238  -0.00212891  0.26294356  1
  Zr  Zr46  1  0.80268428  0.01391023  0.25338031  1
  Zr  Zr47  1  0.21114520  0.61077077  0.76306176  1
  Zr  Zr48  1  0.90948654  0.48406818  0.87707062  1
  Zr  Zr49  1  0.30113757  0.68194285  0.36073933  1
  Zr  Zr50  1  0.70535762  0.68809710  0.12840525  1
  Zr  Zr51  1  0.00249035  0.80744093  0.74878208  1
  Zr  Zr52  1  0.52052958  0.08717469  0.62806479  1
  Zr  Zr53  1  0.40460588  -0.00325308  0.50217650  1
  Zr  Zr54  1  0.18906345  -0.00779052  0.24602688  1
  Zr  Zr55  1  0.90362165  0.70385159  0.62789485  1
  Zr  Zr56  1  0.29258942  0.10577683  0.37817380  1
  Zr  Zr57  1  0.21182520  0.00425650  -0.00443433  1
  Zr  Zr58  1  -0.00117609  0.21805915  0.74647402  1
  Zr  Zr59  1  0.60985466  0.18561489  0.75387278  1
  Zr  Zr60  1  0.01259209  0.59425685  0.75801099  1
  Zr  Zr61  1  0.80077469  0.60481888  0.49255386  1
  Zr  Zr62  1  0.68424166  0.89622482  0.13186099  1
  Zr  Zr63  1  0.40489689  0.17621390  -0.00593233  1
  Zr  Zr64  1  -0.00305885  0.01003757  0.00840489  1
  Zr  Zr65  1  0.79883004  0.22189891  0.24027814  1
  Zr  Zr66  1  0.18932955  0.41378761  0.75343391  1
  Zr  Zr67  1  0.89217971  0.91524949  0.87563267  1
  Zr  Zr68  1  0.70196297  0.29173291  0.62057299  1
  Zr  Zr69  1  0.49483165  0.67698763  0.62938587  1
  Zr  Zr70  1  0.11105161  0.50415866  0.36099447  1
  Zr  Zr71  1  0.59561245  0.59254807  0.48756098  1
  Zr  Zr72  1  0.28720874  0.88397255  0.37264725  1
  Zr  Zr73  1  0.60471545  0.79314849  0.75518995  1
  Zr  Zr74  1  0.70786249  0.89301324  0.36871277  1
  Zr  Zr75  1  0.89863995  0.70837475  0.88114351  1
  Zr  Zr76  1  -0.00628759  0.61196642  0.23514286  1
  Zr  Zr77  1  0.01645251  0.81311607  0.22961741  1
  Zr  Zr78  1  0.20176537  0.21007136  -0.00767084  1
  Zr  Zr79  1  0.39674768  -0.01428553  0.74066394  1
  Ta  Ta80  1  0.09455446  0.31892297  0.62069766  1
  Ta  Ta81  1  0.80832466  0.18598936  0.74612428  1
  Ta  Ta82  1  0.11161355  0.51190061  0.61489305  1
  Ta  Ta83  1  0.60139626  0.79467262  0.50063760  1
  Ta  Ta84  1  0.10608024  0.70269438  0.62485982  1
  Ta  Ta85  1  0.60834753  0.19389980  -0.01339510  1
  Ta  Ta86  1  -0.01103426  0.60803793  0.01302433  1
  Ta  Ta87  1  0.30537190  0.10101244  0.85801953  1
  Ta  Ta88  1  -0.00495728  0.00981601  0.23917687  1
  Ta  Ta89  1  0.59608338  0.59475718  0.25149862  1
  Ta  Ta90  1  0.79594383  0.19988778  0.00827638  1
  Ta  Ta91  1  0.18969848  0.00129123  0.74625781  1
  Ta  Ta92  1  0.79124059  0.00662201  0.00874774  1
  Ta  Ta93  1  0.69248626  0.49203299  0.12368489  1
  Ta  Ta94  1  -0.01073837  0.19749755  0.50512977  1
  Ta  Ta95  1  0.88657386  0.92039216  0.63301904  1
  Ta  Ta96  1  0.80532887  0.80478332  0.00778996  1
  Ta  Ta97  1  0.89722473  0.30162365  0.61570526  1
  Ta  Ta98  1  0.40293867  0.59417173  0.22815862  1
  Ta  Ta99  1  0.30576067  0.49765639  0.62419057  1
  Ta  Ta100  1  0.40317402  0.20483838  0.49175675  1
  Ta  Ta101  1  0.88873931  0.50250864  0.36362271  1
  Ta  Ta102  1  0.70049663  0.31602100  0.37677988  1
  Ta  Ta103  1  0.00558991  0.80678973  0.50569642  1
  Ta  Ta104  1  0.30682922  0.11095334  0.13494541  1
  Ta  Ta105  1  0.50722085  0.88425862  0.62336368  1
  Ta  Ta106  1  0.70770974  0.08743391  0.87661443  1
  Ta  Ta107  1  0.39914822  0.39386759  0.49909600  1
  Ta  Ta108  1  0.20429416  0.60062311  0.22229132  1
  Ta  Ta109  1  0.10838866  0.70991310  0.36950956  1
  Ta  Ta110  1  0.01354809  0.60883531  0.49297044  1
  Ta  Ta111  1  0.19321093  0.78980115  0.50364183  1
  Ta  Ta112  1  -0.01040822  0.01852667  0.74443649  1
  Ta  Ta113  1  0.29745445  0.32005524  0.87762710  1
  Ta  Ta114  1  0.79618085  0.40483723  0.49487555  1
  Ta  Ta115  1  0.41658653  0.79001680  0.23997016  1
  Ta  Ta116  1  0.01307890  0.21402606  0.24272419  1
  Ta  Ta117  1  0.29495188  0.31383391  0.37409081  1
  Ta  Ta118  1  0.89687134  0.11529771  0.88180306  1
  Ta  Ta119  1  0.20899570  0.80581658  0.75148182  1
  Ti  Ti120  1  0.61003725  0.39289304  0.24359357  1
  Ti  Ti121  1  0.20593896  0.79337508  0.22704238  1
  Ti  Ti122  1  0.61087697  0.78794360  -0.00373831  1
  Ti  Ti123  1  0.79615066  0.81070356  0.75097995  1
  Ti  Ti124  1  0.39307530  0.78252343  0.75138520  1
  Ti  Ti125  1  0.91353055  0.91338965  0.36992319  1
  Ti  Ti126  1  0.09780040  0.89999995  0.63207906  1
  Ti  Ti127  1  0.29823978  0.89319886  0.87719364  1
  Ti  Ti128  1  0.88352931  0.50644891  0.13001758  1
  Ti  Ti129  1  0.71261278  0.29108064  0.87241888  1
  Ti  Ti130  1  0.59276962  0.39882907  0.50006372  1
  Ti  Ti131  1  0.69405290  0.69338484  0.36264765  1
  Ti  Ti132  1  0.00568541  0.80716443  0.01946188  1
  Ti  Ti133  1  0.70075597  0.89381920  0.87823709  1
  Ti  Ti134  1  0.40772815  0.80544766  0.00614944  1
  Ti  Ti135  1  0.21311559  0.79496390  0.01604482  1
  Ti  Ti136  1  0.48902719  0.07228527  0.12354622  1
  Ti  Ti137  1  0.89799170  0.11427540  0.12388798  1
  Ti  Ti138  1  -0.01273119  0.39814728  0.24272160  1
  Ti  Ti139  1  0.39875461  0.19723102  0.26294946  1
  Ti  Ti140  1  0.89680199  0.90862146  0.12210002  1
  Ti  Ti141  1  0.60573467  -0.00517028  0.48805046  1
  Ti  Ti142  1  0.39053438  0.39485537  0.74959916  1
  Ti  Ti143  1  0.49924697  0.29667341  0.37543885  1
  Ti  Ti144  1  0.59685182  0.59472281  0.75566094  1
  Ti  Ti145  1  0.29596886  0.88734299  0.62653779  1
  Ti  Ti146  1  0.20881298  0.41919500  0.49142393  1
  Ti  Ti147  1  0.29390011  0.30992641  0.62247288  1
  Ti  Ti148  1  0.69199076  0.91846697  0.62750706  1
  Ti  Ti149  1  0.59795335  0.19656963  0.27031612  1
  Ti  Ti150  1  0.51203714  0.70038150  0.11861450  1
  Ti  Ti151  1  -0.01573163  0.21879378  0.00718106  1
  Ti  Ti152  1  0.28975959  0.69090893  0.62324435  1
  Ti  Ti153  1  0.50121481  0.08715435  0.85998812  1
  Ti  Ti154  1  0.09597783  0.10500958  0.87147426  1
  Ti  Ti155  1  0.09664795  0.89703375  0.37751556  1
  Ti  Ti156  1  0.79286003  0.60386343  -0.00250352  1
  Ti  Ti157  1  0.80758419  0.38807292  0.75283824  1
  Ti  Ti158  1  0.09646750  0.10978233  0.62780374  1
  Ti  Ti159  1  0.59997523  0.38651758  0.00994952  1
  Mo  Mo160  1  0.89820736  0.10801346  0.62520596  1
  Mo  Mo161  1  0.10538759  0.70273682  0.10803198  1
  Mo  Mo162  1  0.20347478  0.60768242  0.01879129  1
  Mo  Mo163  1  0.31050525  0.70734440  0.13126735  1
  Mo  Mo164  1  0.90743147  0.10448474  0.36485286  1
  Mo  Mo165  1  0.29667913  0.49338675  0.35695779  1
  Mo  Mo166  1  0.69339746  0.30099629  0.12207475  1
  Mo  Mo167  1  0.39439702  0.20356232  0.75666494  1
  Mo  Mo168  1  0.10488335  0.90563284  0.11644494  1
  Mo  Mo169  1  0.89658180  0.70207883  0.11279417  1
  Mo  Mo170  1  0.49577617  0.48341475  0.62709766  1
  Mo  Mo171  1  0.20763895  0.40002654  0.01620383  1
  Mo  Mo172  1  0.88766790  0.29498839  0.87462693  1
  Mo  Mo173  1  0.10422428  0.29843421  0.37529027  1
  Mo  Mo174  1  -0.00899642  0.40185505  0.01312497  1
  Mo  Mo175  1  0.79576074  0.41224929  0.24732315  1
  Mo  Mo176  1  0.50522647  0.69491622  0.36470694  1
  Mo  Mo177  1  0.50463948  0.88704410  0.11986351  1
  Mo  Mo178  1  0.71650249  0.08802461  0.62523905  1
  Mo  Mo179  1  0.70433367  0.70330342  0.88756536  1
  Mo  Mo180  1  0.90445373  0.31000779  0.13041544  1
  Mo  Mo181  1  0.70202387  0.11757854  0.36742732  1
  Mo  Mo182  1  0.19573486  0.60215104  0.49663722  1
  Mo  Mo183  1  0.49868898  0.10434328  0.38466490  1
  Mo  Mo184  1  0.79641939  0.59242144  0.25519402  1
  Mo  Mo185  1  0.09035569  0.29743988  0.11333009  1
  Mo  Mo186  1  0.30252071  0.49848834  0.88710162  1
  Mo  Mo187  1  0.59658047  0.78596200  0.25203677  1
  Mo  Mo188  1  0.69710876  0.49537956  0.36858509  1
  Mo  Mo189  1  0.29776067  0.28105786  0.13129650  1
  Mo  Mo190  1  0.30706661  0.71595759  0.88403380  1
  Mo  Mo191  1  0.60906619  -0.01318299  0.75613673  1
  Mo  Mo192  1  0.59977236  0.58957176  0.00977788  1
  Mo  Mo193  1  0.80460013  0.21443431  0.49216164  1
  Mo  Mo194  1  0.20474962  0.20119456  0.25258748  1
  Mo  Mo195  1  0.29676144  0.49434938  0.13046915  1
  Mo  Mo196  1  0.79237374  0.00241853  0.75340019  1
  Mo  Mo197  1  -0.00235262  0.40510219  0.74095163  1
  Mo  Mo198  1  0.39735863  -0.00321888  -0.01062901  1
  Mo  Mo199  1  0.51266491  0.49560057  0.12514007  1
