# generated using pymatgen
data_HfZrTaTiMo
_symmetry_space_group_name_H-M   'P 1'
_cell_length_a   15.21728697
_cell_length_b   15.21793499
_cell_length_c   16.87027966
_cell_angle_alpha   89.99686152
_cell_angle_beta   90.06001335
_cell_angle_gamma   90.01799063
_symmetry_Int_Tables_number   1
_chemical_formula_structural   HfZrTaTiMo
_chemical_formula_sum   'Hf40 Zr40 Ta40 Ti40 Mo40'
_cell_volume   3906.74420924
_cell_formula_units_Z   40
loop_
 _symmetry_equiv_pos_site_id
 _symmetry_equiv_pos_as_xyz
  1  'x, y, z'
loop_
 _atom_site_type_symbol
 _atom_site_label
 _atom_site_symmetry_multiplicity
 _atom_site_fract_x
 _atom_site_fract_y
 _atom_site_fract_z
 _atom_site_occupancy
  Hf  Hf0  1  0.00191999  0.80310061  0.27063522  1
  Hf  Hf1  1  0.10570413  0.90854662  0.61671408  1
  Hf  Hf2  1  0.09566595  0.69985872  0.12356538  1
  Hf  Hf3  1  0.51030935  0.49735179  0.38946822  1
  Hf  Hf4  1  0.59648956  -0.00432922  0.00419655  1
  Hf  Hf5  1  0.20372449  0.21155087  -0.00399194  1
  Hf  Hf6  1  0.18593822  0.41487445  0.00020550  1
  Hf  Hf7  1  0.41390641  0.20957407  0.75017123  1
  Hf  Hf8  1  0.78541815  0.41304448  -0.00248397  1
  Hf  Hf9  1  0.48312562  0.88853613  0.13405602  1
  Hf  Hf10  1  0.40776167  0.80220169  -0.01935932  1
  Hf  Hf11  1  0.41005432  0.77753128  0.77461829  1
  Hf  Hf12  1  0.32120812  0.70115895  0.62629504  1
  Hf  Hf13  1  0.31120113  0.31722612  0.86737669  1
  Hf  Hf14  1  0.61405155  0.20709074  0.73963659  1
  Hf  Hf15  1  -0.00134459  0.80878150  0.48564843  1
  Hf  Hf16  1  -0.00102050  0.59228644  -0.00596211  1
  Hf  Hf17  1  0.38556889  0.20287609  0.51314320  1
  Hf  Hf18  1  0.80000827  0.77773306  0.25490901  1
  Hf  Hf19  1  0.50565393  0.89580197  0.36913411  1
  Hf  Hf20  1  0.70301149  0.88167083  0.12544474  1
  Hf  Hf21  1  0.68405689  0.48368535  0.62430937  1
  Hf  Hf22  1  0.40557178  -0.00016464  0.75388931  1
  Hf  Hf23  1  0.88158128  0.51590528  0.12976224  1
  Hf  Hf24  1  0.09289784  0.10487661  0.87811323  1
  Hf  Hf25  1  0.11961015  0.90258415  0.11718390  1
  Hf  Hf26  1  0.40014100  -0.00092815  -0.01472473  1
  Hf  Hf27  1  0.78499363  0.59719250  0.50247193  1
  Hf  Hf28  1  0.29678932  0.49390620  0.38204411  1
  Hf  Hf29  1  0.79751884  0.39648888  0.49085970  1
  Hf  Hf30  1  -0.01114034  0.21193374  0.00282734  1
  Hf  Hf31  1  0.49946571  0.10186978  0.37916970  1
  Hf  Hf32  1  0.18225377  0.41626850  0.75512845  1
  Hf  Hf33  1  0.80401592  -0.00524513  0.50244064  1
  Hf  Hf34  1  0.31525690  0.69786056  0.36498111  1
  Hf  Hf35  1  0.40708095  0.20170853  -0.00565298  1
  Hf  Hf36  1  0.52905343  0.68953769  0.10988625  1
  Hf  Hf37  1  0.80713466  0.01003477  0.73675977  1
  Hf  Hf38  1  0.40262165  -0.00439790  0.51253449  1
  Hf  Hf39  1  0.68052565  0.30465243  0.37910880  1
  Zr  Zr40  1  0.88845976  0.30423814  0.86937443  1
  Zr  Zr41  1  0.20410137  0.61471155  0.75088125  1
  Zr  Zr42  1  0.19693463  0.81035162  0.26112539  1
  Zr  Zr43  1  0.68955865  0.09855578  0.87136962  1
  Zr  Zr44  1  0.29863510  0.50047722  0.62031439  1
  Zr  Zr45  1  0.19346021  0.38943266  0.50460805  1
  Zr  Zr46  1  0.10616528  0.11203559  0.61814689  1
  Zr  Zr47  1  0.90844803  0.69016956  0.61670405  1
  Zr  Zr48  1  0.01778728  0.00467702  0.25717865  1
  Zr  Zr49  1  0.79755009  -0.00286488  0.00590866  1
  Zr  Zr50  1  0.19409723  0.20483124  0.75872169  1
  Zr  Zr51  1  0.21348623  0.80213772  0.49108488  1
  Zr  Zr52  1  0.70368902  0.68920691  0.85822523  1
  Zr  Zr53  1  -0.00434999  0.40786238  0.25842218  1
  Zr  Zr54  1  0.01158761  0.79332287  0.74483231  1
  Zr  Zr55  1  0.88376299  0.29122071  0.62904556  1
  Zr  Zr56  1  0.58957809  0.39834209  0.24640251  1
  Zr  Zr57  1  0.41781057  0.59593099  0.24259224  1
  Zr  Zr58  1  0.91034318  0.88482011  0.12612368  1
  Zr  Zr59  1  0.62029449  0.78791863  -0.01531655  1
  Zr  Zr60  1  0.09579973  0.89265080  0.87994509  1
  Zr  Zr61  1  0.50330849  0.49542329  0.10876740  1
  Zr  Zr62  1  0.90168606  0.10489838  0.13284815  1
  Zr  Zr63  1  0.80619498  0.18865005  0.48663233  1
  Zr  Zr64  1  0.11175244  0.69714599  0.60882572  1
  Zr  Zr65  1  0.31231103  0.90708560  0.37165581  1
  Zr  Zr66  1  -0.00702625  0.60787043  0.26289913  1
  Zr  Zr67  1  0.29780706  0.52102792  0.88221421  1
  Zr  Zr68  1  0.28703204  0.10144984  0.37856956  1
  Zr  Zr69  1  0.88945240  0.10081826  0.88137679  1
  Zr  Zr70  1  0.79555926  0.20719777  0.25833499  1
  Zr  Zr71  1  0.10615265  0.10644036  0.11867930  1
  Zr  Zr72  1  0.30823423  0.71855598  0.13668869  1
  Zr  Zr73  1  0.50676042  0.88590617  0.63698002  1
  Zr  Zr74  1  0.80186803  0.58687587  0.74163881  1
  Zr  Zr75  1  0.39731405  0.19685887  0.24617146  1
  Zr  Zr76  1  0.37315912  0.39563873  0.23240377  1
  Zr  Zr77  1  0.49837368  0.09548241  0.13106268  1
  Zr  Zr78  1  0.60434505  -0.00149806  0.24949019  1
  Zr  Zr79  1  0.50281544  0.31898241  0.61099261  1
  Ta  Ta80  1  0.60782248  0.79575273  0.50265172  1
  Ta  Ta81  1  0.60231004  0.78408300  0.24798725  1
  Ta  Ta82  1  0.89093267  0.30797073  0.13079978  1
  Ta  Ta83  1  -0.01410810  0.19643428  0.74581921  1
  Ta  Ta84  1  0.88909456  0.69629369  0.38977454  1
  Ta  Ta85  1  0.51651061  0.69732271  0.37460137  1
  Ta  Ta86  1  0.19961218  0.58310356  0.24841319  1
  Ta  Ta87  1  0.70289180  0.11041543  0.12711640  1
  Ta  Ta88  1  0.20997858  -0.00185687  -0.01342943  1
  Ta  Ta89  1  0.90690240  0.70246387  0.86684033  1
  Ta  Ta90  1  0.80235867  -0.00678174  0.25299579  1
  Ta  Ta91  1  0.20085408  -0.00216969  0.75758569  1
  Ta  Ta92  1  0.49353832  0.51577354  0.61375546  1
  Ta  Ta93  1  0.08823882  0.50483146  0.61591961  1
  Ta  Ta94  1  0.63101699  0.59566979  0.25075544  1
  Ta  Ta95  1  0.00213450  -0.00418893  0.00004279  1
  Ta  Ta96  1  0.41854925  0.79329916  0.50225936  1
  Ta  Ta97  1  0.89840191  0.89635876  0.87188160  1
  Ta  Ta98  1  0.71208551  0.89900075  0.85993056  1
  Ta  Ta99  1  0.60879494  -0.00433062  0.50300793  1
  Ta  Ta100  1  0.00827857  0.58374647  0.75745666  1
  Ta  Ta101  1  0.30363698  0.10191340  0.86874122  1
  Ta  Ta102  1  0.08498933  0.31401127  0.63372479  1
  Ta  Ta103  1  0.29104228  0.30090031  0.63701438  1
  Ta  Ta104  1  0.21426627  0.80692563  0.76069786  1
  Ta  Ta105  1  0.68899337  0.30274803  0.87849799  1
  Ta  Ta106  1  0.29182702  0.29655241  0.37722787  1
  Ta  Ta107  1  0.29984043  0.89918803  0.63053092  1
  Ta  Ta108  1  0.60608329  0.20049990  0.00225410  1
  Ta  Ta109  1  0.79363308  0.80111126  0.50694952  1
  Ta  Ta110  1  -0.00477842  0.40004623  0.48804081  1
  Ta  Ta111  1  0.00228014  0.00247166  0.74592676  1
  Ta  Ta112  1  0.51342698  0.09575708  0.62369810  1
  Ta  Ta113  1  0.48383369  0.30300191  0.38951264  1
  Ta  Ta114  1  0.80667085  0.80181117  0.73750764  1
  Ta  Ta115  1  0.21337109  0.79483365  -0.01002148  1
  Ta  Ta116  1  0.19711709  0.21064796  0.24108524  1
  Ta  Ta117  1  0.10329825  0.30000673  0.36767660  1
  Ta  Ta118  1  0.79575125  0.61467280  -0.00688015  1
  Ta  Ta119  1  0.68506193  0.69927136  0.63362799  1
  Ti  Ti120  1  0.77760030  0.38589989  0.74960701  1
  Ti  Ti121  1  0.60387407  0.19806660  0.50532062  1
  Ti  Ti122  1  0.38341471  0.39329785  0.01661868  1
  Ti  Ti123  1  0.49181492  0.47626930  0.88693142  1
  Ti  Ti124  1  0.78650605  0.42075392  0.26100368  1
  Ti  Ti125  1  0.58167481  0.59016944  0.75540112  1
  Ti  Ti126  1  -0.00219524  0.01561566  0.49714564  1
  Ti  Ti127  1  0.11521732  0.93009605  0.38999097  1
  Ti  Ti128  1  0.59269155  0.38969202  -0.00209971  1
  Ti  Ti129  1  0.11208892  0.68401708  0.38479954  1
  Ti  Ti130  1  0.60469859  0.79532956  0.75620622  1
  Ti  Ti131  1  0.49861626  0.29237706  0.12246939  1
  Ti  Ti132  1  0.10265829  0.11820706  0.38130874  1
  Ti  Ti133  1  0.70234153  0.88915182  0.37363719  1
  Ti  Ti134  1  0.00052982  0.58734890  0.48470637  1
  Ti  Ti135  1  0.57833835  0.40067361  0.75774712  1
  Ti  Ti136  1  -0.00521556  0.79235883  -0.00403961  1
  Ti  Ti137  1  0.69939715  0.08946715  0.37386442  1
  Ti  Ti138  1  0.37740155  0.60041241  0.01555821  1
  Ti  Ti139  1  0.11102060  0.68683909  0.88277266  1
  Ti  Ti140  1  0.90536377  0.29714707  0.36745389  1
  Ti  Ti141  1  0.71041707  0.10743624  0.62137713  1
  Ti  Ti142  1  0.52114182  0.91633578  0.86151234  1
  Ti  Ti143  1  0.90665971  0.90233041  0.62096145  1
  Ti  Ti144  1  0.09625334  0.50081872  0.12937249  1
  Ti  Ti145  1  0.90579803  0.48730741  0.62567465  1
  Ti  Ti146  1  0.69907534  0.30934585  0.12643278  1
  Ti  Ti147  1  0.49738445  0.66002615  0.89389289  1
  Ti  Ti148  1  0.00425922  0.21190587  0.50016487  1
  Ti  Ti149  1  0.08129837  0.31511257  0.86825586  1
  Ti  Ti150  1  0.91019589  0.10243751  0.36278932  1
  Ti  Ti151  1  0.69890578  0.90124315  0.63286052  1
  Ti  Ti152  1  0.89408721  0.90687025  0.37584558  1
  Ti  Ti153  1  0.29795679  0.08914128  0.12476670  1
  Ti  Ti154  1  0.59823081  0.20225146  0.25137276  1
  Ti  Ti155  1  0.89131420  0.49867085  0.86885458  1
  Ti  Ti156  1  0.09380803  0.30740493  0.13342906  1
  Ti  Ti157  1  -0.01039939  0.40272331  0.00554535  1
  Ti  Ti158  1  0.29918857  0.09707708  0.63291373  1
  Ti  Ti159  1  0.40125410  0.60614784  0.49575982  1
  Mo  Mo160  1  0.28323890  0.50682716  0.11852150  1
  Mo  Mo161  1  0.68791816  0.49118408  0.86585429  1
  Mo  Mo162  1  0.39548867  0.39876473  0.49854278  1
  Mo  Mo163  1  0.30270760  0.69999931  0.88330223  1
  Mo  Mo164  1  0.00292075  0.21028430  0.25200401  1
  Mo  Mo165  1  0.72165192  0.68317906  0.12037996  1
  Mo  Mo166  1  0.19302118  0.20584243  0.50753444  1
  Mo  Mo167  1  0.20920208  0.01265014  0.24724370  1
  Mo  Mo168  1  -0.01495462  0.40561945  0.74632345  1
  Mo  Mo169  1  0.69700751  0.70455232  0.38183546  1
  Mo  Mo170  1  0.41325711  0.58389221  0.75695594  1
  Mo  Mo171  1  0.61660105  0.57347620  -0.01313953  1
  Mo  Mo172  1  0.50541214  0.29887676  0.87874561  1
  Mo  Mo173  1  0.69567880  0.50287051  0.12272774  1
  Mo  Mo174  1  0.10263240  0.50039226  0.38186098  1
  Mo  Mo175  1  0.40286961  0.41186596  0.74904171  1
  Mo  Mo176  1  0.30256294  0.90296678  0.86741221  1
  Mo  Mo177  1  0.41294283  0.79477176  0.25025303  1
  Mo  Mo178  1  0.69430212  0.29567247  0.61465160  1
  Mo  Mo179  1  0.89749771  0.70463684  0.11993345  1
  Mo  Mo180  1  0.91155579  0.09251459  0.61913935  1
  Mo  Mo181  1  0.29875259  0.90986203  0.12199627  1
  Mo  Mo182  1  0.20637785  0.00870155  0.50802916  1
  Mo  Mo183  1  0.78616970  0.21568214  0.01438337  1
  Mo  Mo184  1  0.19874436  0.59882438  0.49517547  1
  Mo  Mo185  1  0.89676318  0.49923975  0.38047026  1
  Mo  Mo186  1  0.80435875  0.59424995  0.26320172  1
  Mo  Mo187  1  0.38687381  -0.00638758  0.24667907  1
  Mo  Mo188  1  0.50604017  0.10618811  0.87114376  1
  Mo  Mo189  1  0.59285503  0.61109299  0.50619484  1
  Mo  Mo190  1  0.19262192  0.40098732  0.24701426  1
  Mo  Mo191  1  0.08296464  0.50101186  0.87967252  1
  Mo  Mo192  1  0.59906467  0.40287625  0.49658782  1
  Mo  Mo193  1  0.69969901  0.50803116  0.38047018  1
  Mo  Mo194  1  0.81273525  0.79729336  -0.01239450  1
  Mo  Mo195  1  0.28423079  0.29309838  0.11692678  1
  Mo  Mo196  1  0.79793330  0.20102686  0.74560960  1
  Mo  Mo197  1  0.50724174  0.69370278  0.62986345  1
  Mo  Mo198  1  0.60656586  -0.00067731  0.74044369  1
  Mo  Mo199  1  0.19319706  0.60794146  0.01280947  1
