# generated using pymatgen
data_HfZrTaTiMo
_symmetry_space_group_name_H-M   'P 1'
_cell_length_a   15.20889520
_cell_length_b   15.21066856
_cell_length_c   16.83719096
_cell_angle_alpha   90.03967858
_cell_angle_beta   90.01035526
_cell_angle_gamma   89.94622627
_symmetry_Int_Tables_number   1
_chemical_formula_structural   HfZrTaTiMo
_chemical_formula_sum   'Hf40 Zr40 Ta40 Ti40 Mo40'
_cell_volume   3895.07034439
_cell_formula_units_Z   40
loop_
 _symmetry_equiv_pos_site_id
 _symmetry_equiv_pos_as_xyz
  1  'x, y, z'
loop_
 _atom_site_type_symbol
 _atom_site_label
 _atom_site_symmetry_multiplicity
 _atom_site_fract_x
 _atom_site_fract_y
 _atom_site_fract_z
 _atom_site_occupancy
  Hf  Hf0  1  0.70036523  0.28602977  0.12834024  1
  Hf  Hf1  1  0.60521733  0.80685973  0.00304178  1
  Hf  Hf2  1  0.59969764  0.59775324  0.26697518  1
  Hf  Hf3  1  -0.00267938  0.82217463  -0.00592493  1
  Hf  Hf4  1  0.08388144  0.11082471  0.61449788  1
  Hf  Hf5  1  0.89811147  0.11129815  0.38164214  1
  Hf  Hf6  1  0.40328594  0.00670702  -0.00826770  1
  Hf  Hf7  1  -0.00025961  0.78331846  0.26450875  1
  Hf  Hf8  1  0.20171665  0.00835648  0.73494229  1
  Hf  Hf9  1  0.08380293  0.51718444  0.36986321  1
  Hf  Hf10  1  0.40691781  0.60065151  0.00268338  1
  Hf  Hf11  1  0.59756909  0.79762456  0.24667189  1
  Hf  Hf12  1  0.40165346  0.20517889  -0.01131770  1
  Hf  Hf13  1  0.61136804  -0.01035375  0.24549575  1
  Hf  Hf14  1  0.19601268  0.61288543  0.50015005  1
  Hf  Hf15  1  -0.01881537  0.41055493  0.24640667  1
  Hf  Hf16  1  0.41345570  0.01283629  0.24745942  1
  Hf  Hf17  1  0.70028808  0.08632284  0.86050897  1
  Hf  Hf18  1  0.80003393  0.00516253  0.26250488  1
  Hf  Hf19  1  0.09503454  0.49215376  0.88482992  1
  Hf  Hf20  1  0.19641887  0.21306497  0.74851599  1
  Hf  Hf21  1  0.29398765  0.71201498  0.12786109  1
  Hf  Hf22  1  0.50520579  0.49311522  0.62590716  1
  Hf  Hf23  1  0.39564153  0.19881415  0.75992539  1
  Hf  Hf24  1  0.39622412  0.39618436  0.25291577  1
  Hf  Hf25  1  0.19345379  0.40234693  0.24597877  1
  Hf  Hf26  1  0.40728753  0.59673591  0.24608116  1
  Hf  Hf27  1  0.60876579  0.81668865  0.51162123  1
  Hf  Hf28  1  0.49731159  0.70136215  0.62297003  1
  Hf  Hf29  1  0.80710984  0.38406919  0.51386225  1
  Hf  Hf30  1  0.50546449  0.70185027  0.86843700  1
  Hf  Hf31  1  0.89085237  0.48781447  0.86269787  1
  Hf  Hf32  1  0.40341513  0.80680433  -0.00896443  1
  Hf  Hf33  1  0.81405788  -0.00793905  0.00031323  1
  Hf  Hf34  1  0.59211757  0.39687994  0.27103239  1
  Hf  Hf35  1  0.59845650  0.38721326  0.48787881  1
  Hf  Hf36  1  0.72593106  0.49215084  0.37942305  1
  Hf  Hf37  1  0.40278069  -0.01522579  0.51380901  1
  Hf  Hf38  1  0.19757321  0.60676110  -0.00042640  1
  Hf  Hf39  1  0.70711857  0.68786117  0.12400027  1
  Zr  Zr40  1  0.89489316  0.70609616  0.86491138  1
  Zr  Zr41  1  0.18835157  0.41303195  0.49913616  1
  Zr  Zr42  1  0.20678552  0.01273922  0.50369219  1
  Zr  Zr43  1  0.19521615  0.80215383  0.74691363  1
  Zr  Zr44  1  0.59540118  0.18804917  0.25308385  1
  Zr  Zr45  1  0.70944077  0.30512427  0.85766660  1
  Zr  Zr46  1  0.39311552  0.40181550  0.49579220  1
  Zr  Zr47  1  0.08850089  0.48985751  0.10852318  1
  Zr  Zr48  1  0.79808263  0.59295450  0.73527310  1
  Zr  Zr49  1  0.19426916  0.19424773  0.00072638  1
  Zr  Zr50  1  0.80493490  0.19296461  -0.01079896  1
  Zr  Zr51  1  0.30256721  0.91081941  0.12785830  1
  Zr  Zr52  1  -0.03010028  0.60125192  0.00215896  1
  Zr  Zr53  1  0.08879096  0.90389586  0.61070100  1
  Zr  Zr54  1  0.29669002  0.51334484  0.63227469  1
  Zr  Zr55  1  0.50651726  0.31197840  0.86988276  1
  Zr  Zr56  1  0.69989669  0.69236649  0.87279377  1
  Zr  Zr57  1  0.90014036  0.29807410  0.12493948  1
  Zr  Zr58  1  0.20021919  0.00940672  0.26163350  1
  Zr  Zr59  1  0.69964127  0.48641830  0.13829177  1
  Zr  Zr60  1  0.71898888  0.71447202  0.38600240  1
  Zr  Zr61  1  0.83160012  0.59576720  0.25080533  1
  Zr  Zr62  1  0.60014240  0.59768788  0.49084477  1
  Zr  Zr63  1  0.19947622  0.21828534  0.50632599  1
  Zr  Zr64  1  0.51096254  0.08651644  0.39229463  1
  Zr  Zr65  1  0.49508135  0.30419999  0.12338284  1
  Zr  Zr66  1  -0.00755683  0.20040432  0.75408641  1
  Zr  Zr67  1  0.80128871  0.80944795  0.24054626  1
  Zr  Zr68  1  0.22717506  0.80671883  0.51301596  1
  Zr  Zr69  1  0.19119195  0.60730631  0.24118246  1
  Zr  Zr70  1  0.10139231  0.90194020  0.13805548  1
  Zr  Zr71  1  0.80609904  0.79312817  0.01085996  1
  Zr  Zr72  1  0.19729341  0.81087048  -0.01242736  1
  Zr  Zr73  1  0.39494254  0.40266982  0.74892193  1
  Zr  Zr74  1  0.30210601  0.50311364  0.87587930  1
  Zr  Zr75  1  0.09941911  0.89709268  0.38727831  1
  Zr  Zr76  1  0.77132163  -0.00646551  0.49449754  1
  Zr  Zr77  1  0.91088628  0.68502070  0.60990860  1
  Zr  Zr78  1  0.68803581  0.29183175  0.64189683  1
  Zr  Zr79  1  0.31724427  0.89968952  0.36898596  1
  Ta  Ta80  1  0.29454256  0.70646069  0.36544077  1
  Ta  Ta81  1  0.30197732  0.11235438  0.12717815  1
  Ta  Ta82  1  0.60161514  0.40204852  -0.00015518  1
  Ta  Ta83  1  0.89806573  0.89740631  0.60128642  1
  Ta  Ta84  1  0.08329120  0.30096757  0.36913848  1
  Ta  Ta85  1  0.80148570  0.40891608  -0.00042538  1
  Ta  Ta86  1  0.08206924  0.31944752  0.63038121  1
  Ta  Ta87  1  0.08544452  0.70586285  0.12154408  1
  Ta  Ta88  1  0.49160925  0.29066249  0.62346203  1
  Ta  Ta89  1  0.89163251  0.88191338  0.39923243  1
  Ta  Ta90  1  0.30135632  0.50868646  0.37253127  1
  Ta  Ta91  1  0.30058162  0.70649536  0.86769974  1
  Ta  Ta92  1  -0.00776437  0.40646105  0.50034357  1
  Ta  Ta93  1  0.09423427  0.29004868  0.12119027  1
  Ta  Ta94  1  0.19918843  0.20557923  0.24874243  1
  Ta  Ta95  1  0.79873464  0.79876675  0.72427284  1
  Ta  Ta96  1  0.31308192  0.11940085  0.37791460  1
  Ta  Ta97  1  0.48658286  0.70745738  0.38222390  1
  Ta  Ta98  1  0.08913045  0.51051834  0.63568243  1
  Ta  Ta99  1  0.08438500  0.91746051  0.86351322  1
  Ta  Ta100  1  0.51691471  0.91174975  0.86458699  1
  Ta  Ta101  1  0.47971647  0.27991191  0.38031680  1
  Ta  Ta102  1  0.60240980  0.58889220  0.00178766  1
  Ta  Ta103  1  0.71555335  0.89421266  0.85575445  1
  Ta  Ta104  1  0.09887087  0.09804423  0.87069782  1
  Ta  Ta105  1  0.91919091  0.67737447  0.40302711  1
  Ta  Ta106  1  0.09866087  0.11426855  0.38231321  1
  Ta  Ta107  1  0.40442946  0.81063742  0.75516448  1
  Ta  Ta108  1  0.08995979  0.09949211  0.13294532  1
  Ta  Ta109  1  0.29825423  0.91012127  0.86524953  1
  Ta  Ta110  1  -0.01131431  0.81285224  0.74555552  1
  Ta  Ta111  1  0.79250249  0.19354595  0.51121628  1
  Ta  Ta112  1  0.28818132  0.30173016  0.37128509  1
  Ta  Ta113  1  0.28645992  0.30944603  0.88226517  1
  Ta  Ta114  1  0.60180666  0.19289108  -0.00872926  1
  Ta  Ta115  1  0.40923260  0.00786656  0.75137919  1
  Ta  Ta116  1  0.29372269  0.09868743  0.87215121  1
  Ta  Ta117  1  0.70609265  0.49702361  0.62052536  1
  Ta  Ta118  1  0.50679858  0.10303988  0.62133993  1
  Ta  Ta119  1  0.50647763  0.10156123  0.11583910  1
  Ti  Ti120  1  0.40177492  0.60817607  0.75275809  1
  Ti  Ti121  1  0.29698843  0.30685832  0.62671035  1
  Ti  Ti122  1  -0.00375606  0.00113119  0.26875301  1
  Ti  Ti123  1  0.40287328  0.40652512  0.00105323  1
  Ti  Ti124  1  0.40371369  0.80136366  0.24527765  1
  Ti  Ti125  1  0.50592169  0.90299822  0.12043885  1
  Ti  Ti126  1  0.19777186  0.60422480  0.75608673  1
  Ti  Ti127  1  0.80588748  0.18790713  0.74350280  1
  Ti  Ti128  1  0.30668546  0.70926408  0.63576386  1
  Ti  Ti129  1  0.29207350  0.30499715  0.11835759  1
  Ti  Ti130  1  0.60543281  0.19010576  0.50343185  1
  Ti  Ti131  1  0.09383639  0.30361196  0.88672848  1
  Ti  Ti132  1  0.30448992  0.49646988  0.11808622  1
  Ti  Ti133  1  0.70570395  0.27680476  0.37236377  1
  Ti  Ti134  1  -0.00418677  0.18386601  -0.00560396  1
  Ti  Ti135  1  0.18929956  0.00247028  -0.00219033  1
  Ti  Ti136  1  0.89584071  0.08828431  0.61758677  1
  Ti  Ti137  1  0.90911616  0.07154649  0.86302467  1
  Ti  Ti138  1  0.31299331  0.11143964  0.62274190  1
  Ti  Ti139  1  0.70787428  0.09263140  0.12072055  1
  Ti  Ti140  1  0.18896295  0.40549735  0.75175921  1
  Ti  Ti141  1  0.00501950  0.60116999  0.75436323  1
  Ti  Ti142  1  0.60277046  0.59852758  0.74026215  1
  Ti  Ti143  1  0.09596014  0.70638751  0.87114697  1
  Ti  Ti144  1  0.39415515  0.60757015  0.49438640  1
  Ti  Ti145  1  0.50598062  0.90715637  0.63717134  1
  Ti  Ti146  1  0.90556108  0.29934689  0.87642301  1
  Ti  Ti147  1  0.10032652  0.70280567  0.62733320  1
  Ti  Ti148  1  0.88985034  0.30474213  0.36577567  1
  Ti  Ti149  1  0.51201369  0.89238059  0.38171912  1
  Ti  Ti150  1  0.69552307  0.08391979  0.64056663  1
  Ti  Ti151  1  0.50340628  0.69467598  0.12299478  1
  Ti  Ti152  1  0.69449089  0.49260792  0.86509026  1
  Ti  Ti153  1  0.60731490  0.79885487  0.73813737  1
  Ti  Ti154  1  0.50987140  0.50363371  0.86663536  1
  Ti  Ti155  1  0.91110259  0.91079528  0.13195218  1
  Ti  Ti156  1  -0.01417131  0.21654842  0.50294694  1
  Ti  Ti157  1  0.90584640  0.10404775  0.13791584  1
  Ti  Ti158  1  0.58790692  0.18839487  0.75519862  1
  Ti  Ti159  1  0.60915540  0.00084631  -0.00129807  1
  Mo  Mo160  1  0.90185087  0.49085614  0.38296622  1
  Mo  Mo161  1  0.80908527  0.58142106  0.51407979  1
  Mo  Mo162  1  0.79326326  0.38486894  0.25510379  1
  Mo  Mo163  1  0.20374635  0.79983594  0.25185769  1
  Mo  Mo164  1  0.00562189  0.39709316  0.75718984  1
  Mo  Mo165  1  0.01192069  0.58679137  0.51006148  1
  Mo  Mo166  1  0.49988319  0.50230334  0.11987409  1
  Mo  Mo167  1  0.40869605  0.79156247  0.50451126  1
  Mo  Mo168  1  0.00719976  0.19600477  0.25247137  1
  Mo  Mo169  1  0.10636316  0.70474242  0.37997404  1
  Mo  Mo170  1  0.80224845  0.19893392  0.25097188  1
  Mo  Mo171  1  0.20474049  0.39429861  0.00656147  1
  Mo  Mo172  1  -0.00459570  -0.00160786  0.73851252  1
  Mo  Mo173  1  0.69955689  0.90930107  0.11907157  1
  Mo  Mo174  1  0.00364694  0.01128668  0.00164788  1
  Mo  Mo175  1  0.60446304  0.40950499  0.74330977  1
  Mo  Mo176  1  0.70225824  0.10554895  0.37916743  1
  Mo  Mo177  1  0.00200042  0.60267544  0.24118324  1
  Mo  Mo178  1  0.59670599  0.00195026  0.51275119  1
  Mo  Mo179  1  0.79916627  0.78906344  0.51730552  1
  Mo  Mo180  1  0.31528144  0.90312476  0.64263249  1
  Mo  Mo181  1  0.88992325  0.49987592  0.11644435  1
  Mo  Mo182  1  -0.00695853  0.38115759  -0.00432097  1
  Mo  Mo183  1  0.69914372  0.90150246  0.64166937  1
  Mo  Mo184  1  0.91184151  0.47709268  0.64104469  1
  Mo  Mo185  1  0.39736849  0.20117771  0.50851195  1
  Mo  Mo186  1  0.81390476  -0.00888351  0.73712473  1
  Mo  Mo187  1  -0.01088216  0.00998420  0.48641743  1
  Mo  Mo188  1  0.38958711  0.20113427  0.24692137  1
  Mo  Mo189  1  0.81158639  0.38465867  0.73571175  1
  Mo  Mo190  1  0.90608633  0.70494851  0.12329867  1
  Mo  Mo191  1  0.60036174  -0.00307896  0.74823610  1
  Mo  Mo192  1  0.50460049  0.09879328  0.87993685  1
  Mo  Mo193  1  0.49176850  0.49934955  0.38192182  1
  Mo  Mo194  1  0.01063379  0.79289798  0.49477640  1
  Mo  Mo195  1  0.69742041  0.69323405  0.61798245  1
  Mo  Mo196  1  0.69690852  0.89881368  0.37568832  1
  Mo  Mo197  1  0.78359524  0.58634923  -0.00268538  1
  Mo  Mo198  1  0.90213196  0.28208328  0.62699029  1
  Mo  Mo199  1  0.89505243  0.90012222  0.86453553  1
