# generated using pymatgen
data_HfZrTaTiMo
_symmetry_space_group_name_H-M   'P 1'
_cell_length_a   15.21398702
_cell_length_b   15.22412730
_cell_length_c   16.83816209
_cell_angle_alpha   89.98703002
_cell_angle_beta   90.04116346
_cell_angle_gamma   90.06845616
_symmetry_Int_Tables_number   1
_chemical_formula_structural   HfZrTaTiMo
_chemical_formula_sum   'Hf40 Zr40 Ta40 Ti40 Mo40'
_cell_volume   3900.04574434
_cell_formula_units_Z   40
loop_
 _symmetry_equiv_pos_site_id
 _symmetry_equiv_pos_as_xyz
  1  'x, y, z'
loop_
 _atom_site_type_symbol
 _atom_site_label
 _atom_site_symmetry_multiplicity
 _atom_site_fract_x
 _atom_site_fract_y
 _atom_site_fract_z
 _atom_site_occupancy
  Hf  Hf0  1  0.59059705  0.77572584  0.50958009  1
  Hf  Hf1  1  0.40265421  0.19827096  0.49865540  1
  Hf  Hf2  1  0.90708526  0.49684341  0.62867648  1
  Hf  Hf3  1  0.18884446  0.00112055  0.75174135  1
  Hf  Hf4  1  0.30333562  0.09849091  0.62916257  1
  Hf  Hf5  1  0.39666710  0.00685000  0.25779629  1
  Hf  Hf6  1  0.90390509  0.30622893  0.38195999  1
  Hf  Hf7  1  0.89901812  0.90526980  0.38417034  1
  Hf  Hf8  1  0.70606197  0.29842440  0.37696114  1
  Hf  Hf9  1  0.30223491  0.47546560  0.10784090  1
  Hf  Hf10  1  0.51319166  0.29889022  0.62289543  1
  Hf  Hf11  1  0.30651387  0.50997449  0.62362377  1
  Hf  Hf12  1  0.38994019  -0.00314274  0.48805389  1
  Hf  Hf13  1  0.09240639  0.67772193  0.34951848  1
  Hf  Hf14  1  0.89451705  0.09619248  0.87952184  1
  Hf  Hf15  1  -0.00965462  0.80538470  0.25148139  1
  Hf  Hf16  1  0.40317730  0.79553519  0.24537917  1
  Hf  Hf17  1  0.20098696  0.39499848  0.49920222  1
  Hf  Hf18  1  0.60975097  0.61133965  0.00863156  1
  Hf  Hf19  1  0.90064411  0.29434865  0.61489455  1
  Hf  Hf20  1  0.86924749  0.70149035  0.36591403  1
  Hf  Hf21  1  0.00029307  0.59418592  0.76574589  1
  Hf  Hf22  1  0.61245785  0.39680117  0.00804186  1
  Hf  Hf23  1  0.29064675  0.50336148  0.37363208  1
  Hf  Hf24  1  0.09051909  0.89261663  0.62152798  1
  Hf  Hf25  1  0.80330721  0.40342006  0.75808857  1
  Hf  Hf26  1  0.81169620  0.80704512  0.73315372  1
  Hf  Hf27  1  0.29490426  0.89919785  0.62874307  1
  Hf  Hf28  1  -0.01308815  -0.00670985  0.75178664  1
  Hf  Hf29  1  0.10051655  0.30013536  0.10946154  1
  Hf  Hf30  1  0.49059488  0.89496134  0.62109986  1
  Hf  Hf31  1  0.29760205  0.89047301  0.87181625  1
  Hf  Hf32  1  0.09751791  0.70762327  0.88632668  1
  Hf  Hf33  1  0.90553910  0.10932292  0.12961345  1
  Hf  Hf34  1  0.60644944  0.19769419  0.02172476  1
  Hf  Hf35  1  0.60339167  0.79102834  0.73456785  1
  Hf  Hf36  1  0.00374513  0.78069068  0.49098944  1
  Hf  Hf37  1  0.20498168  0.79789571  0.49326297  1
  Hf  Hf38  1  0.00091513  0.20122388  0.75578905  1
  Hf  Hf39  1  0.50501752  0.49819815  0.88294056  1
  Zr  Zr40  1  -0.02204206  0.80105084  0.00398667  1
  Zr  Zr41  1  0.19841189  0.20422048  0.75333868  1
  Zr  Zr42  1  0.69461944  0.70110087  0.86672204  1
  Zr  Zr43  1  0.40989811  0.20087358  0.74808388  1
  Zr  Zr44  1  0.90218445  0.10607581  0.37788447  1
  Zr  Zr45  1  0.49568414  0.50904060  0.11776246  1
  Zr  Zr46  1  0.49021250  0.69473096  0.87247860  1
  Zr  Zr47  1  0.20626683  0.60774722  0.75829268  1
  Zr  Zr48  1  0.29130391  0.70375785  0.35579808  1
  Zr  Zr49  1  0.79766614  0.20105779  0.75180472  1
  Zr  Zr50  1  0.40984811  0.19171984  0.01157810  1
  Zr  Zr51  1  0.80134287  0.21048178  0.00326362  1
  Zr  Zr52  1  0.40901444  0.40826185  0.49858687  1
  Zr  Zr53  1  0.50795756  0.90076042  0.86684419  1
  Zr  Zr54  1  0.49836829  0.90171436  0.13020230  1
  Zr  Zr55  1  0.49545706  0.88429761  0.38251213  1
  Zr  Zr56  1  0.70758759  0.11530742  0.60105370  1
  Zr  Zr57  1  0.70499375  0.10102963  0.38315375  1
  Zr  Zr58  1  0.31009681  0.50311058  0.88987242  1
  Zr  Zr59  1  0.28662160  0.68759884  0.13703009  1
  Zr  Zr60  1  0.61009513  0.40454169  0.24345166  1
  Zr  Zr61  1  0.01495689  0.40995414  0.25732629  1
  Zr  Zr62  1  0.60246433  0.61532441  0.24137268  1
  Zr  Zr63  1  0.79664130  0.60324239  0.51493105  1
  Zr  Zr64  1  0.59780984  0.00912527  0.00487312  1
  Zr  Zr65  1  0.39907545  0.62335236  0.49422823  1
  Zr  Zr66  1  0.89658484  0.90519094  0.13241969  1
  Zr  Zr67  1  0.01132712  0.41414517  0.49147533  1
  Zr  Zr68  1  0.51134206  0.29073414  0.87514093  1
  Zr  Zr69  1  0.39106807  0.20185106  0.24580366  1
  Zr  Zr70  1  0.69436562  0.91402921  0.61314866  1
  Zr  Zr71  1  0.90817964  0.50750265  0.11933539  1
  Zr  Zr72  1  0.01264917  0.20613763  0.25181282  1
  Zr  Zr73  1  0.39249410  -0.01256453  0.00379780  1
  Zr  Zr74  1  0.10637471  0.50114780  0.11304795  1
  Zr  Zr75  1  0.79847005  -0.01225638  -0.00568430  1
  Zr  Zr76  1  0.19466082  0.40639763  0.75764245  1
  Zr  Zr77  1  0.30763351  0.09616518  0.87484379  1
  Zr  Zr78  1  0.50565496  0.30035766  0.36957915  1
  Zr  Zr79  1  0.08307203  0.69635087  0.12968116  1
  Ta  Ta80  1  0.70497846  0.88678012  0.38717053  1
  Ta  Ta81  1  0.51131628  0.09108165  0.61840200  1
  Ta  Ta82  1  0.10497737  0.09379828  0.11455957  1
  Ta  Ta83  1  0.71942974  0.51451868  0.12248239  1
  Ta  Ta84  1  0.19280555  0.00481944  0.49543690  1
  Ta  Ta85  1  0.39474001  0.40378836  0.25359920  1
  Ta  Ta86  1  -0.00845875  0.40206416  -0.01826969  1
  Ta  Ta87  1  0.60851154  0.40528021  0.49614998  1
  Ta  Ta88  1  0.70374671  0.89107867  0.13109376  1
  Ta  Ta89  1  0.60510878  -0.00257355  0.25839573  1
  Ta  Ta90  1  0.88717208  0.70211805  0.87561636  1
  Ta  Ta91  1  0.90850877  0.51649000  0.37088836  1
  Ta  Ta92  1  0.20194500  0.19743306  0.50573700  1
  Ta  Ta93  1  0.01686907  0.20262176  0.49730468  1
  Ta  Ta94  1  0.10029748  0.09712218  0.89082143  1
  Ta  Ta95  1  0.01743871  0.00038632  0.25596897  1
  Ta  Ta96  1  0.20612995  0.19578581  0.00104100  1
  Ta  Ta97  1  0.20711032  0.37922448  0.25138064  1
  Ta  Ta98  1  0.19614117  0.60278024  -0.00644796  1
  Ta  Ta99  1  0.50598840  0.50954613  0.36856440  1
  Ta  Ta100  1  0.59686184  0.58851148  0.50226707  1
  Ta  Ta101  1  0.17396820  0.60181976  0.50223984  1
  Ta  Ta102  1  0.79596165  0.79497577  0.51547529  1
  Ta  Ta103  1  0.30854603  0.30642859  0.88487719  1
  Ta  Ta104  1  0.60775913  0.80031218  0.25407422  1
  Ta  Ta105  1  0.30084974  0.30526441  0.62637241  1
  Ta  Ta106  1  0.19046411  0.79907110  0.75215338  1
  Ta  Ta107  1  0.10396659  0.90528966  0.12081849  1
  Ta  Ta108  1  0.10438993  0.29661224  0.88878549  1
  Ta  Ta109  1  0.60343386  0.19472286  0.23428873  1
  Ta  Ta110  1  0.70942973  0.51130929  0.37275725  1
  Ta  Ta111  1  0.09955018  0.30650419  0.62801350  1
  Ta  Ta112  1  0.60127207  0.80674392  0.00360760  1
  Ta  Ta113  1  0.79379929  0.60534097  0.73936070  1
  Ta  Ta114  1  0.09339474  0.90414547  0.88471570  1
  Ta  Ta115  1  0.38951016  0.78680187  0.74468897  1
  Ta  Ta116  1  0.48970559  0.30826176  0.12938706  1
  Ta  Ta117  1  0.79015234  0.00336528  0.74943128  1
  Ta  Ta118  1  0.40759012  0.41104789  0.74490410  1
  Ta  Ta119  1  0.20558635  0.80640761  0.00585899  1
  Ti  Ti120  1  0.49418824  0.67193284  0.63998610  1
  Ti  Ti121  1  0.28510166  0.90407683  0.36914966  1
  Ti  Ti122  1  0.68341285  0.09600706  0.87203331  1
  Ti  Ti123  1  0.70379697  0.30633049  0.61470303  1
  Ti  Ti124  1  0.80338015  0.20862375  0.24417527  1
  Ti  Ti125  1  0.70530079  0.50651813  0.87410788  1
  Ti  Ti126  1  0.80043833  -0.00741263  0.25666684  1
  Ti  Ti127  1  0.50527681  0.10666258  0.37399269  1
  Ti  Ti128  1  0.59594455  0.00245398  0.48785637  1
  Ti  Ti129  1  0.09857283  0.51086750  0.62891136  1
  Ti  Ti130  1  0.72002075  0.31020254  0.13115939  1
  Ti  Ti131  1  0.29383761  0.28834142  0.37728191  1
  Ti  Ti132  1  0.29176235  0.70333488  0.62604316  1
  Ti  Ti133  1  0.81210053  0.40915316  0.24963051  1
  Ti  Ti134  1  0.90143088  0.09713045  0.61052485  1
  Ti  Ti135  1  0.39916841  0.59469146  0.24919399  1
  Ti  Ti136  1  0.09426971  0.10328719  0.62185393  1
  Ti  Ti137  1  0.89854204  0.91010739  0.60634896  1
  Ti  Ti138  1  0.68646039  0.50010725  0.63234736  1
  Ti  Ti139  1  0.20219117  0.19216326  0.24448954  1
  Ti  Ti140  1  -0.00067155  0.39706694  0.77365203  1
  Ti  Ti141  1  0.79894640  0.40813037  0.49845282  1
  Ti  Ti142  1  0.60504662  0.39427314  0.75102040  1
  Ti  Ti143  1  0.28937437  0.89798686  0.13060282  1
  Ti  Ti144  1  0.41456562  0.00004661  0.75141494  1
  Ti  Ti145  1  0.80707593  0.40866545  -0.00936734  1
  Ti  Ti146  1  0.60593595  0.18473539  0.74686323  1
  Ti  Ti147  1  0.71091206  0.89754311  0.86794241  1
  Ti  Ti148  1  0.30420774  0.70219527  0.88416306  1
  Ti  Ti149  1  0.11579687  0.10284504  0.37649840  1
  Ti  Ti150  1  0.86580838  0.69946781  0.13049291  1
  Ti  Ti151  1  0.29576444  0.09259050  0.12087895  1
  Ti  Ti152  1  0.00915578  0.00380242  0.49319702  1
  Ti  Ti153  1  0.00205598  0.79835642  0.75492319  1
  Ti  Ti154  1  0.70664036  0.08878241  0.13715186  1
  Ti  Ti155  1  0.70565991  0.29916785  0.87652524  1
  Ti  Ti156  1  0.19923270  0.00436341  0.25331155  1
  Ti  Ti157  1  0.00050187  0.00100343  -0.00106950  1
  Ti  Ti158  1  -0.00585845  0.20536323  -0.00324870  1
  Ti  Ti159  1  0.91885187  0.69872087  0.62816382  1
  Mo  Mo160  1  0.39600080  0.61320525  0.00837455  1
  Mo  Mo161  1  0.09769322  0.50038065  0.88916345  1
  Mo  Mo162  1  0.10139169  0.90329422  0.37424134  1
  Mo  Mo163  1  0.11580060  0.29047320  0.37667144  1
  Mo  Mo164  1  0.89763481  0.89443339  0.86946167  1
  Mo  Mo165  1  0.19933442  0.39117269  -0.01112443  1
  Mo  Mo166  1  -0.00316586  0.60354592  0.50123461  1
  Mo  Mo167  1  0.69821247  0.69255077  0.63391719  1
  Mo  Mo168  1  0.49442493  0.70859267  0.11579399  1
  Mo  Mo169  1  0.80376761  0.60319435  -0.00596793  1
  Mo  Mo170  1  0.49994321  0.69217389  0.37279845  1
  Mo  Mo171  1  -0.01371775  0.59941387  0.24410005  1
  Mo  Mo172  1  0.79380870  0.59716488  0.25022638  1
  Mo  Mo173  1  0.29356334  0.10189053  0.37697172  1
  Mo  Mo174  1  -0.00732643  0.59630111  -0.01973307  1
  Mo  Mo175  1  0.69771141  0.70927157  0.12131448  1
  Mo  Mo176  1  0.39110512  0.79831799  0.50616578  1
  Mo  Mo177  1  0.29539943  0.29039940  0.12041103  1
  Mo  Mo178  1  0.78389101  0.80469795  0.25558099  1
  Mo  Mo179  1  0.39614496  0.78840090  0.01101252  1
  Mo  Mo180  1  0.10356584  0.49771147  0.37080698  1
  Mo  Mo181  1  0.51018715  0.09652701  0.86927561  1
  Mo  Mo182  1  0.78327317  0.79408528  -0.00273740  1
  Mo  Mo183  1  0.59921335  0.57610480  0.74831887  1
  Mo  Mo184  1  0.80925231  0.21223790  0.50120349  1
  Mo  Mo185  1  0.19630895  0.56021609  0.24511917  1
  Mo  Mo186  1  0.59762025  0.20493062  0.49871698  1
  Mo  Mo187  1  0.90073526  0.30161839  0.87501357  1
  Mo  Mo188  1  0.40933871  0.38947608  0.00040648  1
  Mo  Mo189  1  0.50530548  0.49337210  0.62835504  1
  Mo  Mo190  1  0.50662992  0.09836487  0.14170514  1
  Mo  Mo191  1  0.10077480  0.69845259  0.62992305  1
  Mo  Mo192  1  0.39924246  0.59906016  0.74854098  1
  Mo  Mo193  1  0.60418380  0.00624109  0.74691174  1
  Mo  Mo194  1  0.88889981  0.50791947  0.87357690  1
  Mo  Mo195  1  0.18633994  0.82891766  0.24911252  1
  Mo  Mo196  1  0.19565310  -0.00318935  0.00168769  1
  Mo  Mo197  1  0.68217918  0.69850372  0.38266107  1
  Mo  Mo198  1  0.89763285  0.30897049  0.12559860  1
  Mo  Mo199  1  0.80835226  -0.00441867  0.49674161  1
