# generated using pymatgen
data_HfZrTaTiMo
_symmetry_space_group_name_H-M   'P 1'
_cell_length_a   15.21524680
_cell_length_b   15.20646414
_cell_length_c   16.81112759
_cell_angle_alpha   90.04214999
_cell_angle_beta   90.02398110
_cell_angle_gamma   90.03598138
_symmetry_Int_Tables_number   1
_chemical_formula_structural   HfZrTaTiMo
_chemical_formula_sum   'Hf40 Zr40 Ta40 Ti40 Mo40'
_cell_volume   3889.59019392
_cell_formula_units_Z   40
loop_
 _symmetry_equiv_pos_site_id
 _symmetry_equiv_pos_as_xyz
  1  'x, y, z'
loop_
 _atom_site_type_symbol
 _atom_site_label
 _atom_site_symmetry_multiplicity
 _atom_site_fract_x
 _atom_site_fract_y
 _atom_site_fract_z
 _atom_site_occupancy
  Hf  Hf0  1  0.50296733  0.70938346  0.87563778  1
  Hf  Hf1  1  0.39729900  0.80867761  0.75051752  1
  Hf  Hf2  1  0.18441567  0.61043590  0.73856116  1
  Hf  Hf3  1  0.71350649  0.08061557  0.13915431  1
  Hf  Hf4  1  0.89611266  0.09892470  0.85944910  1
  Hf  Hf5  1  0.00694262  0.59478567  0.25280752  1
  Hf  Hf6  1  0.90372693  0.70005155  0.11314793  1
  Hf  Hf7  1  0.58931456  0.19305172  0.01635886  1
  Hf  Hf8  1  0.41774562  0.80732901  0.24750948  1
  Hf  Hf9  1  0.79342458  0.39022873  0.74210029  1
  Hf  Hf10  1  0.49054866  0.29457763  0.15061002  1
  Hf  Hf11  1  -0.00733150  0.19464208  -0.00288908  1
  Hf  Hf12  1  0.01845320  0.81037990  -0.00845352  1
  Hf  Hf13  1  0.20349873  0.20195414  0.00061739  1
  Hf  Hf14  1  -0.01073582  0.01457158  0.24563170  1
  Hf  Hf15  1  0.49172977  0.49390029  0.35479828  1
  Hf  Hf16  1  0.21007408  0.41375404  0.00111552  1
  Hf  Hf17  1  0.78735120  0.78007893  0.76205111  1
  Hf  Hf18  1  0.10324294  0.51672311  0.87700320  1
  Hf  Hf19  1  0.10649436  0.90848882  0.13577287  1
  Hf  Hf20  1  0.09337543  0.31085357  0.88093465  1
  Hf  Hf21  1  0.60818994  0.78795756  0.50229827  1
  Hf  Hf22  1  0.89168382  0.29691548  0.12936719  1
  Hf  Hf23  1  0.40574204  0.39732204  0.00272985  1
  Hf  Hf24  1  0.79962834  -0.00354488  -0.01006177  1
  Hf  Hf25  1  0.58427623  0.01450275  0.73343310  1
  Hf  Hf26  1  0.19279107  0.40540031  0.26055888  1
  Hf  Hf27  1  0.90503963  0.47730115  0.88573133  1
  Hf  Hf28  1  0.09519577  0.30574417  0.12354647  1
  Hf  Hf29  1  -0.01014449  0.19421317  0.50127873  1
  Hf  Hf30  1  0.69589013  0.29614040  0.14542986  1
  Hf  Hf31  1  0.78946662  0.60088383  0.49901969  1
  Hf  Hf32  1  0.79084049  0.19901866  0.00100210  1
  Hf  Hf33  1  -0.01159871  0.40259379  0.25899769  1
  Hf  Hf34  1  0.50926585  0.68476641  0.63174159  1
  Hf  Hf35  1  0.00046870  0.21160048  0.74478592  1
  Hf  Hf36  1  0.80379352  0.79605161  0.50959593  1
  Hf  Hf37  1  0.31219331  0.10418921  0.60513889  1
  Hf  Hf38  1  0.50988900  0.69350534  0.36992995  1
  Hf  Hf39  1  0.70506396  0.90835285  0.37475735  1
  Zr  Zr40  1  0.30430123  0.30296992  0.60439617  1
  Zr  Zr41  1  0.38798622  0.18417030  0.27209618  1
  Zr  Zr42  1  0.10600010  0.92111227  0.36503559  1
  Zr  Zr43  1  0.30314192  0.70535574  0.13218665  1
  Zr  Zr44  1  0.79532244  -0.00077389  0.51689034  1
  Zr  Zr45  1  0.20654916  0.40290863  0.74746490  1
  Zr  Zr46  1  0.50820151  0.29046610  0.87314496  1
  Zr  Zr47  1  0.89493955  0.49923916  0.61689359  1
  Zr  Zr48  1  0.20499865  0.80269824  0.50164127  1
  Zr  Zr49  1  0.20450320  0.19890021  0.75207685  1
  Zr  Zr50  1  0.40122476  0.00789027  0.47652591  1
  Zr  Zr51  1  0.31831321  0.50645874  0.62395709  1
  Zr  Zr52  1  0.79919361  0.58458001  0.76011510  1
  Zr  Zr53  1  0.91303489  0.68489168  0.88261145  1
  Zr  Zr54  1  0.09712296  0.29098230  0.38249701  1
  Zr  Zr55  1  0.30562417  0.10082054  0.87980604  1
  Zr  Zr56  1  0.28622079  0.70793382  0.87196998  1
  Zr  Zr57  1  0.61741431  0.80168086  0.23453717  1
  Zr  Zr58  1  0.90235320  0.89500628  0.64662324  1
  Zr  Zr59  1  0.02061009  -0.00738457  0.75108973  1
  Zr  Zr60  1  0.50257185  0.49577165  0.14059855  1
  Zr  Zr61  1  0.68312569  0.10831857  0.86668718  1
  Zr  Zr62  1  0.60168270  0.59758273  0.76529935  1
  Zr  Zr63  1  0.71302307  0.48776483  0.13198724  1
  Zr  Zr64  1  -0.00174008  0.40365777  0.49836227  1
  Zr  Zr65  1  0.70822197  0.68903028  0.10952832  1
  Zr  Zr66  1  0.39863301  0.81452326  0.00220316  1
  Zr  Zr67  1  0.68162664  0.89613600  0.86224148  1
  Zr  Zr68  1  0.58485667  -0.00682034  0.01380411  1
  Zr  Zr69  1  0.00551674  0.80659091  0.50605959  1
  Zr  Zr70  1  0.48627374  0.90187776  0.61425249  1
  Zr  Zr71  1  0.80842998  0.59665318  0.25109854  1
  Zr  Zr72  1  0.01285682  0.60563928  0.49729929  1
  Zr  Zr73  1  0.30809934  0.70735106  0.62599961  1
  Zr  Zr74  1  0.10778958  0.70863601  0.13524020  1
  Zr  Zr75  1  0.11143212  0.70520329  0.36076933  1
  Zr  Zr76  1  0.88742318  0.09357406  0.38239232  1
  Zr  Zr77  1  0.61223470  0.39945618  -0.00451486  1
  Zr  Zr78  1  0.10601445  0.10550152  0.61635708  1
  Zr  Zr79  1  0.41223408  0.20760669  0.74263418  1
  Ta  Ta80  1  0.39027794  -0.00534964  0.27141157  1
  Ta  Ta81  1  0.00441619  0.41209136  0.73634680  1
  Ta  Ta82  1  0.39680369  0.59085729  -0.00739768  1
  Ta  Ta83  1  0.30972070  0.69790711  0.36359946  1
  Ta  Ta84  1  0.59798599  0.40113734  0.74849681  1
  Ta  Ta85  1  0.89622247  0.10057957  0.63155491  1
  Ta  Ta86  1  0.89072765  0.90803760  0.12206787  1
  Ta  Ta87  1  0.69800982  0.48252544  0.36590735  1
  Ta  Ta88  1  0.90009899  0.89537728  0.37173965  1
  Ta  Ta89  1  0.90443367  0.69292481  0.63732371  1
  Ta  Ta90  1  0.79070842  0.19867018  0.73542052  1
  Ta  Ta91  1  0.29704112  0.30215401  0.13831443  1
  Ta  Ta92  1  0.09534035  0.10339660  0.12310083  1
  Ta  Ta93  1  0.19261088  0.81780979  0.73782678  1
  Ta  Ta94  1  0.19549237  -0.00725506  0.00200727  1
  Ta  Ta95  1  0.10516527  0.50503079  0.12225908  1
  Ta  Ta96  1  0.90649510  0.89765208  0.86364909  1
  Ta  Ta97  1  0.89269211  0.29564900  0.61851497  1
  Ta  Ta98  1  0.40085656  0.79690656  0.48876912  1
  Ta  Ta99  1  0.48624811  0.91446604  0.87098149  1
  Ta  Ta100  1  0.59511146  0.19589483  0.50027639  1
  Ta  Ta101  1  0.50517153  0.29618786  0.37130710  1
  Ta  Ta102  1  0.89370534  0.50090705  0.38278915  1
  Ta  Ta103  1  0.59520277  0.58306079  0.49561123  1
  Ta  Ta104  1  0.39158581  0.00727253  0.74226474  1
  Ta  Ta105  1  0.31061664  0.92071461  0.12666856  1
  Ta  Ta106  1  0.89929519  0.70610693  0.37135751  1
  Ta  Ta107  1  0.80225797  0.80181608  -0.01304794  1
  Ta  Ta108  1  0.30230537  0.30609953  0.38480405  1
  Ta  Ta109  1  0.30717712  0.31090721  0.87612488  1
  Ta  Ta110  1  0.68932984  0.88407194  0.64040833  1
  Ta  Ta111  1  0.60134740  0.18309727  0.26312527  1
  Ta  Ta112  1  0.50187462  0.69169972  0.11610872  1
  Ta  Ta113  1  0.20536327  0.61306646  0.00209868  1
  Ta  Ta114  1  0.20022279  0.41946477  0.49066709  1
  Ta  Ta115  1  0.60288607  0.80059617  0.00819410  1
  Ta  Ta116  1  0.01459734  0.78058473  0.75709289  1
  Ta  Ta117  1  0.18586264  0.19164339  0.25367963  1
  Ta  Ta118  1  0.30397283  0.50400737  0.14137282  1
  Ta  Ta119  1  0.87639325  0.30233293  0.37976838  1
  Ti  Ti120  1  0.19433067  -0.00557196  0.50537056  1
  Ti  Ti121  1  0.68134045  0.50188480  0.62231319  1
  Ti  Ti122  1  0.29259839  0.10329153  0.12969681  1
  Ti  Ti123  1  0.26762181  0.10199835  0.38743968  1
  Ti  Ti124  1  0.10367055  0.09148357  0.87760099  1
  Ti  Ti125  1  0.50012406  0.31141504  0.61227742  1
  Ti  Ti126  1  0.10294380  0.31036788  0.61316796  1
  Ti  Ti127  1  0.59391545  -0.00980276  0.24777021  1
  Ti  Ti128  1  0.89558770  0.29479437  0.87237484  1
  Ti  Ti129  1  0.59565077  0.59326112  -0.01408846  1
  Ti  Ti130  1  0.79014546  0.58251104  -0.01440764  1
  Ti  Ti131  1  0.29694006  0.51244060  0.36356362  1
  Ti  Ti132  1  -0.00622858  0.80539846  0.24824154  1
  Ti  Ti133  1  0.49272870  0.09751274  0.87980082  1
  Ti  Ti134  1  0.60457612  0.00666282  0.51018000  1
  Ti  Ti135  1  0.20943763  -0.00188004  0.74022538  1
  Ti  Ti136  1  0.77997943  0.19919525  0.50880856  1
  Ti  Ti137  1  0.78375844  0.39453707  0.50270104  1
  Ti  Ti138  1  0.80102862  0.18612972  0.25946838  1
  Ti  Ti139  1  0.60558130  0.60018687  0.24725999  1
  Ti  Ti140  1  0.40989914  0.40929312  0.49131425  1
  Ti  Ti141  1  0.70695163  0.69542116  0.36921891  1
  Ti  Ti142  1  0.29100874  0.90988122  0.87856236  1
  Ti  Ti143  1  -0.00122665  -0.00495034  0.50639257  1
  Ti  Ti144  1  -0.00319801  0.00119648  -0.00210486  1
  Ti  Ti145  1  0.90574026  0.49043398  0.10873176  1
  Ti  Ti146  1  0.60640274  0.21194019  0.72123534  1
  Ti  Ti147  1  0.79030782  0.00061403  0.74503062  1
  Ti  Ti148  1  0.41208052  0.41517753  0.75518428  1
  Ti  Ti149  1  0.70681521  0.30148997  0.87158195  1
  Ti  Ti150  1  0.40167063  0.60071109  0.49286522  1
  Ti  Ti151  1  0.60051901  0.39470473  0.49368116  1
  Ti  Ti152  1  0.39702050  0.19868738  0.01105019  1
  Ti  Ti153  1  0.48221594  0.08448910  0.13881303  1
  Ti  Ti154  1  0.21934433  0.82293598  0.25630240  1
  Ti  Ti155  1  0.50965810  0.89737806  0.38162702  1
  Ti  Ti156  1  0.20374237  0.60360630  0.50302436  1
  Ti  Ti157  1  -0.00702783  0.20205798  0.25607708  1
  Ti  Ti158  1  0.80647832  0.80557380  0.24417876  1
  Ti  Ti159  1  0.01131380  0.59611712  0.00639179  1
  Mo  Mo160  1  0.30543470  0.50435906  0.87053219  1
  Mo  Mo161  1  0.20540057  0.60175478  0.25043892  1
  Mo  Mo162  1  0.40478919  0.60493901  0.24724014  1
  Mo  Mo163  1  0.10656345  0.50516695  0.37661255  1
  Mo  Mo164  1  0.49858380  0.90240214  0.12953550  1
  Mo  Mo165  1  0.60294016  0.38897831  0.26130348  1
  Mo  Mo166  1  0.10430005  0.90030850  0.62275746  1
  Mo  Mo167  1  0.00317196  0.40218073  0.00760015  1
  Mo  Mo168  1  0.69788810  0.28957328  0.37473414  1
  Mo  Mo169  1  0.20722196  0.01655557  0.24697444  1
  Mo  Mo170  1  0.69370770  0.09707052  0.37512536  1
  Mo  Mo171  1  0.39823824  0.59165623  0.76708240  1
  Mo  Mo172  1  -0.00081151  0.59441297  0.74645375  1
  Mo  Mo173  1  0.69352508  0.30790576  0.61663748  1
  Mo  Mo174  1  0.20491852  0.81082566  0.00461085  1
  Mo  Mo175  1  0.40658270  0.20898567  0.47861418  1
  Mo  Mo176  1  0.19860345  0.20736828  0.49566101  1
  Mo  Mo177  1  0.90520567  0.09926766  0.12597227  1
  Mo  Mo178  1  0.69793165  0.69490940  0.89720273  1
  Mo  Mo179  1  0.70915926  0.89012478  0.11852630  1
  Mo  Mo180  1  0.59368983  0.80398289  0.74971311  1
  Mo  Mo181  1  0.29797174  0.90965947  0.62144496  1
  Mo  Mo182  1  0.11200070  0.90196608  0.87452209  1
  Mo  Mo183  1  0.30260234  0.89428651  0.37375187  1
  Mo  Mo184  1  0.38873236  0.39402963  0.25829321  1
  Mo  Mo185  1  0.80408818  0.39234079  0.26023863  1
  Mo  Mo186  1  0.69768876  0.10020399  0.62694965  1
  Mo  Mo187  1  0.39232903  0.01501997  0.00594944  1
  Mo  Mo188  1  0.10605050  0.70609597  0.88032244  1
  Mo  Mo189  1  0.49861591  0.11513582  0.61194490  1
  Mo  Mo190  1  0.79622505  -0.01183057  0.25092236  1
  Mo  Mo191  1  0.80676965  0.38813497  -0.00285648  1
  Mo  Mo192  1  0.51877769  0.08770347  0.37355553  1
  Mo  Mo193  1  0.10768133  0.49828610  0.62023839  1
  Mo  Mo194  1  0.50328899  0.49166238  0.61929234  1
  Mo  Mo195  1  0.09682260  0.69826207  0.62397204  1
  Mo  Mo196  1  0.69768710  0.48511898  0.87829647  1
  Mo  Mo197  1  0.49167445  0.49682444  0.87629515  1
  Mo  Mo198  1  0.70293322  0.69269327  0.62636972  1
  Mo  Mo199  1  0.09274787  0.09871918  0.38410451  1
