# generated using pymatgen
data_HfZrTaTiMo
_symmetry_space_group_name_H-M   'P 1'
_cell_length_a   15.18217389
_cell_length_b   15.17116308
_cell_length_c   16.79293136
_cell_angle_alpha   90.00876875
_cell_angle_beta   89.99861115
_cell_angle_gamma   90.12146920
_symmetry_Int_Tables_number   1
_chemical_formula_structural   HfZrTaTiMo
_chemical_formula_sum   'Hf40 Zr40 Ta40 Ti40 Mo40'
_cell_volume   3867.92789675
_cell_formula_units_Z   40
loop_
 _symmetry_equiv_pos_site_id
 _symmetry_equiv_pos_as_xyz
  1  'x, y, z'
loop_
 _atom_site_type_symbol
 _atom_site_label
 _atom_site_symmetry_multiplicity
 _atom_site_fract_x
 _atom_site_fract_y
 _atom_site_fract_z
 _atom_site_occupancy
  Hf  Hf0  1  0.51308148  0.70005583  0.62380295  1
  Hf  Hf1  1  -0.01421988  0.20291035  -0.02024843  1
  Hf  Hf2  1  0.08403355  0.51893187  0.37424339  1
  Hf  Hf3  1  0.09658935  0.50576940  0.61536036  1
  Hf  Hf4  1  0.68519433  0.49144651  0.63671002  1
  Hf  Hf5  1  0.69311577  0.88378105  0.62014459  1
  Hf  Hf6  1  0.60679180  0.40971515  0.23975449  1
  Hf  Hf7  1  0.69875640  0.70413471  0.86200984  1
  Hf  Hf8  1  0.40636169  0.39814743  0.25593393  1
  Hf  Hf9  1  0.90580056  0.29561697  0.62944584  1
  Hf  Hf10  1  0.39779670  0.00533298  0.51151411  1
  Hf  Hf11  1  0.51107085  0.29054109  0.87145075  1
  Hf  Hf12  1  0.89196283  0.27127252  0.12354904  1
  Hf  Hf13  1  0.00228576  0.60027920  0.00143606  1
  Hf  Hf14  1  0.20887429  0.42633989  0.75449195  1
  Hf  Hf15  1  0.79102580  0.57917067  0.25934671  1
  Hf  Hf16  1  0.19458878  0.81182522  0.25661619  1
  Hf  Hf17  1  0.51216919  0.10136862  0.12557084  1
  Hf  Hf18  1  0.78266794  0.38839790  0.50256778  1
  Hf  Hf19  1  0.38462101  0.60190507  0.74202243  1
  Hf  Hf20  1  0.88462400  0.50527369  0.63300449  1
  Hf  Hf21  1  0.70706659  0.28708372  0.85385903  1
  Hf  Hf22  1  0.19282763  0.81087451  0.49833228  1
  Hf  Hf23  1  0.00658694  0.18964301  0.75604428  1
  Hf  Hf24  1  0.80925598  -0.00229785  0.26389512  1
  Hf  Hf25  1  0.70350064  0.90203401  0.86225772  1
  Hf  Hf26  1  0.41097377  0.41236136  0.49620364  1
  Hf  Hf27  1  0.28757561  0.90946600  0.63625638  1
  Hf  Hf28  1  0.48896824  0.49281649  0.86436379  1
  Hf  Hf29  1  0.49803562  0.29428085  0.11576048  1
  Hf  Hf30  1  0.40921117  -0.00837716  0.00074582  1
  Hf  Hf31  1  0.29457287  0.30293331  0.12151535  1
  Hf  Hf32  1  0.61620663  0.00282578  -0.00002105  1
  Hf  Hf33  1  0.90440718  0.49330285  0.86949231  1
  Hf  Hf34  1  0.10159577  0.51397803  0.13791358  1
  Hf  Hf35  1  0.41063947  0.21173012  0.51477397  1
  Hf  Hf36  1  0.50778292  0.09206969  0.86636246  1
  Hf  Hf37  1  0.49546064  0.51322628  0.12178607  1
  Hf  Hf38  1  0.09792926  0.10629716  0.38629673  1
  Hf  Hf39  1  0.49521089  0.90655347  0.38832763  1
  Zr  Zr40  1  0.78929435  0.58689316  0.00277053  1
  Zr  Zr41  1  0.09930808  0.29814174  0.38722792  1
  Zr  Zr42  1  0.00301318  0.00042558  -0.01861683  1
  Zr  Zr43  1  0.19610958  0.78889801  0.00055575  1
  Zr  Zr44  1  0.20685040  -0.00295671  -0.01896431  1
  Zr  Zr45  1  0.20718017  0.40760522  0.48680719  1
  Zr  Zr46  1  0.29426560  0.69518916  0.14050407  1
  Zr  Zr47  1  -0.01563613  0.61879014  0.50299373  1
  Zr  Zr48  1  0.20050223  0.42848590  -0.00666373  1
  Zr  Zr49  1  0.09727321  0.71830052  0.63052837  1
  Zr  Zr50  1  0.31407623  0.31615307  0.87399358  1
  Zr  Zr51  1  0.88095770  0.09211431  0.85476444  1
  Zr  Zr52  1  0.59098165  0.60778618  -0.00960967  1
  Zr  Zr53  1  0.09073711  0.31402361  0.11496082  1
  Zr  Zr54  1  0.39963658  0.80123328  -0.00096121  1
  Zr  Zr55  1  0.30859092  0.70982851  0.37003793  1
  Zr  Zr56  1  0.28643803  0.70459655  0.85649472  1
  Zr  Zr57  1  0.09298866  0.11432614  0.11874786  1
  Zr  Zr58  1  0.89374922  0.27373495  0.39274554  1
  Zr  Zr59  1  0.79455445  0.79220965  0.00659424  1
  Zr  Zr60  1  -0.00645048  0.39841907  0.26258378  1
  Zr  Zr61  1  0.58257394  0.60737009  0.26880527  1
  Zr  Zr62  1  0.30546188  0.10618481  0.12364149  1
  Zr  Zr63  1  0.60761288  0.00408749  0.26874128  1
  Zr  Zr64  1  0.10777616  0.90751686  0.12434621  1
  Zr  Zr65  1  0.19973667  0.21439853  0.75649629  1
  Zr  Zr66  1  0.10481565  0.30291649  0.61460262  1
  Zr  Zr67  1  0.31523308  0.10926516  0.36992237  1
  Zr  Zr68  1  0.31236119  0.10183156  0.86284974  1
  Zr  Zr69  1  0.20490111  0.01275982  0.25280547  1
  Zr  Zr70  1  0.91100539  0.88137367  0.38192567  1
  Zr  Zr71  1  -0.00691972  0.79979835  -0.00036058  1
  Zr  Zr72  1  0.89578149  0.48516797  0.12254233  1
  Zr  Zr73  1  0.79489414  0.37168754  0.26277316  1
  Zr  Zr74  1  0.60441610  0.20796975  0.26118075  1
  Zr  Zr75  1  0.61366635  0.78890289  0.48291147  1
  Zr  Zr76  1  0.61682685  0.40281399  -0.00046892  1
  Zr  Zr77  1  0.61152642  0.79924248  0.27248215  1
  Zr  Zr78  1  0.70244912  0.89382694  0.13346385  1
  Zr  Zr79  1  0.37484557  0.59876072  -0.00854299  1
  Ta  Ta80  1  0.58492553  -0.01842226  0.73645087  1
  Ta  Ta81  1  0.59500746  0.60125011  0.75376687  1
  Ta  Ta82  1  -0.01471088  0.18642636  0.25356709  1
  Ta  Ta83  1  0.29518418  0.51572735  0.61554068  1
  Ta  Ta84  1  0.50383872  0.89751475  0.13470887  1
  Ta  Ta85  1  0.00689545  -0.01909201  0.75220729  1
  Ta  Ta86  1  0.00201344  -0.00038641  0.25190767  1
  Ta  Ta87  1  0.00827919  0.40271497  0.75069317  1
  Ta  Ta88  1  0.71862526  0.10442273  0.13159515  1
  Ta  Ta89  1  0.20193321  0.00701661  0.50081039  1
  Ta  Ta90  1  0.80142518  -0.01946957  0.50545244  1
  Ta  Ta91  1  0.41549746  0.81584918  0.73006240  1
  Ta  Ta92  1  0.78231363  0.18674216  -0.00851077  1
  Ta  Ta93  1  0.59356930  0.80243526  0.00093905  1
  Ta  Ta94  1  0.81195686  0.77677977  0.25584176  1
  Ta  Ta95  1  0.60344685  0.18491962  0.73071595  1
  Ta  Ta96  1  0.41222305  0.20500902  0.73421191  1
  Ta  Ta97  1  0.71283259  0.68317818  0.63032232  1
  Ta  Ta98  1  0.30996555  0.31724771  0.62959477  1
  Ta  Ta99  1  0.70362739  0.48945806  0.85169248  1
  Ta  Ta100  1  0.21649901  0.19928508  0.50846644  1
  Ta  Ta101  1  0.70038329  0.29185997  0.11792525  1
  Ta  Ta102  1  0.30606719  0.51140222  0.36839431  1
  Ta  Ta103  1  0.91339547  0.08122508  0.62118912  1
  Ta  Ta104  1  0.08812334  0.70714291  0.86118200  1
  Ta  Ta105  1  0.89564613  0.69471135  0.86416548  1
  Ta  Ta106  1  0.10633655  0.09497621  0.62196084  1
  Ta  Ta107  1  0.39514398  0.79879411  0.51611958  1
  Ta  Ta108  1  0.90580768  0.89463596  0.13500471  1
  Ta  Ta109  1  0.20237309  0.40592001  0.26130760  1
  Ta  Ta110  1  0.61158389  0.21063103  0.51399707  1
  Ta  Ta111  1  0.20383757  0.61517297  0.49331655  1
  Ta  Ta112  1  -0.00298778  0.60566228  0.74406061  1
  Ta  Ta113  1  0.19636961  0.21653673  0.25190955  1
  Ta  Ta114  1  0.19365064  0.20416189  -0.01986713  1
  Ta  Ta115  1  0.49596584  0.71172879  0.85941032  1
  Ta  Ta116  1  0.68106269  0.48028883  0.38635358  1
  Ta  Ta117  1  0.80243134  0.18615292  0.52315395  1
  Ta  Ta118  1  0.71305274  0.10373528  0.39458584  1
  Ta  Ta119  1  0.81098117  -0.00311728  0.00388457  1
  Ti  Ti120  1  0.19014937  0.00935255  0.76222276  1
  Ti  Ti121  1  0.10634915  0.52171292  0.87107885  1
  Ti  Ti122  1  0.50903955  0.11662587  0.38740609  1
  Ti  Ti123  1  0.09067929  0.32091936  0.88071536  1
  Ti  Ti124  1  0.51388221  0.31168895  0.63360856  1
  Ti  Ti125  1  0.31068948  0.29799754  0.37174787  1
  Ti  Ti126  1  0.40170100  0.40485948  0.00282920  1
  Ti  Ti127  1  0.29683175  0.50353986  0.14071947  1
  Ti  Ti128  1  0.40221688  0.19735891  -0.00606975  1
  Ti  Ti129  1  0.81561752  0.77784400  0.50163560  1
  Ti  Ti130  1  -0.01499874  0.40783002  0.49294885  1
  Ti  Ti131  1  0.07968978  0.71780945  0.37111778  1
  Ti  Ti132  1  0.51695528  0.31425601  0.38326884  1
  Ti  Ti133  1  0.50562633  0.89523610  0.86804982  1
  Ti  Ti134  1  0.40960986  0.00542056  0.25128525  1
  Ti  Ti135  1  0.69875924  0.08599981  0.61973267  1
  Ti  Ti136  1  0.80994273  0.38381376  -0.00611173  1
  Ti  Ti137  1  0.69643071  0.09350524  0.85621402  1
  Ti  Ti138  1  0.78888351  0.59248227  0.48728651  1
  Ti  Ti139  1  0.09827452  0.91032450  0.37855199  1
  Ti  Ti140  1  0.90992128  0.08591891  0.39932777  1
  Ti  Ti141  1  0.49296828  0.49567943  0.63567496  1
  Ti  Ti142  1  0.29972167  0.10861027  0.63734762  1
  Ti  Ti143  1  0.31246195  0.90023600  0.13377597  1
  Ti  Ti144  1  0.49696641  0.70874546  0.12885998  1
  Ti  Ti145  1  0.89300274  0.29962819  0.85620648  1
  Ti  Ti146  1  0.70695644  0.29848572  0.64597998  1
  Ti  Ti147  1  0.80257286  -0.00974165  0.72917833  1
  Ti  Ti148  1  0.39972509  0.60822141  0.50398019  1
  Ti  Ti149  1  0.18482617  0.81508164  0.74925890  1
  Ti  Ti150  1  0.89849780  0.88802465  0.86806604  1
  Ti  Ti151  1  0.30175478  0.90895109  0.37684137  1
  Ti  Ti152  1  0.59195008  0.58708156  0.49189306  1
  Ti  Ti153  1  0.19226342  0.60718605  0.26344710  1
  Ti  Ti154  1  0.07794804  0.70607811  0.14280694  1
  Ti  Ti155  1  0.31203455  0.90133892  0.85304103  1
  Ti  Ti156  1  0.69385717  0.68474828  0.13005193  1
  Ti  Ti157  1  0.41296852  0.79917581  0.25593509  1
  Ti  Ti158  1  0.81175171  0.79516744  0.73759808  1
  Ti  Ti159  1  0.50716311  0.09016637  0.62001352  1
  Mo  Mo160  1  0.71428771  0.89853990  0.38782873  1
  Mo  Mo161  1  0.18903193  0.60951726  0.74036627  1
  Mo  Mo162  1  0.29507620  0.50988641  0.87359511  1
  Mo  Mo163  1  0.09379129  0.91616214  0.62552822  1
  Mo  Mo164  1  0.69007726  0.28578041  0.38674780  1
  Mo  Mo165  1  0.60749148  0.00920937  0.49180184  1
  Mo  Mo166  1  0.90394890  0.88777267  0.61862044  1
  Mo  Mo167  1  0.79854723  0.59897466  0.75470138  1
  Mo  Mo168  1  0.69664126  0.49279923  0.12270653  1
  Mo  Mo169  1  0.59477206  0.39249298  0.75069678  1
  Mo  Mo170  1  0.50228654  0.90231367  0.60561672  1
  Mo  Mo171  1  0.88859616  0.49206295  0.38550770  1
  Mo  Mo172  1  0.90015463  0.08614649  0.12313509  1
  Mo  Mo173  1  0.40128833  0.20054330  0.25392740  1
  Mo  Mo174  1  -0.00085746  0.80716322  0.50314670  1
  Mo  Mo175  1  -0.00731504  0.39919987  -0.01181422  1
  Mo  Mo176  1  0.89241333  0.70090166  0.63163456  1
  Mo  Mo177  1  -0.01763502  0.61419612  0.25314694  1
  Mo  Mo178  1  0.90276748  0.68340927  0.37280257  1
  Mo  Mo179  1  0.49080113  0.69741930  0.39039912  1
  Mo  Mo180  1  0.71009326  0.68769373  0.38248934  1
  Mo  Mo181  1  0.18287433  0.61439782  0.00468026  1
  Mo  Mo182  1  0.40067274  0.40118020  0.73944811  1
  Mo  Mo183  1  0.60657205  0.19325152  -0.00257704  1
  Mo  Mo184  1  0.40313251  0.00555680  0.73526607  1
  Mo  Mo185  1  0.60352060  0.79645113  0.74366177  1
  Mo  Mo186  1  0.80808243  0.39325734  0.74783195  1
  Mo  Mo187  1  0.80066189  0.18103874  0.25857148  1
  Mo  Mo188  1  0.10722413  0.89576016  0.86880269  1
  Mo  Mo189  1  -0.00716971  0.80486384  0.75442326  1
  Mo  Mo190  1  0.00879271  -0.00865707  0.50592044  1
  Mo  Mo191  1  0.89184255  0.69687008  0.13373186  1
  Mo  Mo192  1  0.29837258  0.70601389  0.62489840  1
  Mo  Mo193  1  0.79877314  0.18133790  0.72496182  1
  Mo  Mo194  1  0.09886523  0.10526604  0.87063448  1
  Mo  Mo195  1  0.39313802  0.60202856  0.24828180  1
  Mo  Mo196  1  0.59298389  0.39747381  0.51145551  1
  Mo  Mo197  1  -0.00033539  0.80658012  0.24776664  1
  Mo  Mo198  1  0.49205341  0.50307174  0.37919183  1
  Mo  Mo199  1  0.00508492  0.19139316  0.51434542  1
