# generated using pymatgen
data_HfZrTaTiMo
_symmetry_space_group_name_H-M   'P 1'
_cell_length_a   15.22516543
_cell_length_b   15.21269582
_cell_length_c   16.83544995
_cell_angle_alpha   89.99548719
_cell_angle_beta   90.02344195
_cell_angle_gamma   89.85898247
_symmetry_Int_Tables_number   1
_chemical_formula_structural   HfZrTaTiMo
_chemical_formula_sum   'Hf40 Zr40 Ta40 Ti40 Mo40'
_cell_volume   3899.34423460
_cell_formula_units_Z   40
loop_
 _symmetry_equiv_pos_site_id
 _symmetry_equiv_pos_as_xyz
  1  'x, y, z'
loop_
 _atom_site_type_symbol
 _atom_site_label
 _atom_site_symmetry_multiplicity
 _atom_site_fract_x
 _atom_site_fract_y
 _atom_site_fract_z
 _atom_site_occupancy
  Hf  Hf0  1  0.57720922  0.59398883  -0.01114091  1
  Hf  Hf1  1  0.89931972  0.29406572  0.11887034  1
  Hf  Hf2  1  0.79294157  0.58991780  0.23065119  1
  Hf  Hf3  1  0.20174569  0.40039090  -0.00766084  1
  Hf  Hf4  1  0.18819956  0.40687413  0.75021509  1
  Hf  Hf5  1  0.29624017  0.90085681  0.36372227  1
  Hf  Hf6  1  0.41376474  0.40824685  0.73042784  1
  Hf  Hf7  1  -0.00691443  0.60693130  0.23800985  1
  Hf  Hf8  1  0.81130960  0.78914547  0.51258638  1
  Hf  Hf9  1  0.29870948  0.08949948  0.62576465  1
  Hf  Hf10  1  0.71079308  0.89687245  0.86986986  1
  Hf  Hf11  1  0.60581996  0.41066879  0.51582904  1
  Hf  Hf12  1  0.40656300  0.61003407  0.50229704  1
  Hf  Hf13  1  0.50171215  0.89588095  0.37736949  1
  Hf  Hf14  1  -0.00641259  0.41200461  0.00784028  1
  Hf  Hf15  1  0.08413007  0.10678492  0.37718317  1
  Hf  Hf16  1  0.18803608  0.59787351  -0.00845424  1
  Hf  Hf17  1  0.10327365  0.69529252  0.62526020  1
  Hf  Hf18  1  0.50483154  0.32586096  0.87572461  1
  Hf  Hf19  1  0.49444857  0.09919588  0.11859918  1
  Hf  Hf20  1  0.18643546  0.20219921  0.50063395  1
  Hf  Hf21  1  0.70995659  0.10550108  0.64325736  1
  Hf  Hf22  1  0.31059643  0.91007700  0.10999669  1
  Hf  Hf23  1  0.50421137  0.30958158  0.37004525  1
  Hf  Hf24  1  0.47901923  0.90792427  0.62055817  1
  Hf  Hf25  1  0.41977961  0.79104878  -0.00148811  1
  Hf  Hf26  1  0.61127468  0.79897067  0.25121575  1
  Hf  Hf27  1  0.40182533  0.40593643  0.52212178  1
  Hf  Hf28  1  0.79579086  0.58626522  0.74915884  1
  Hf  Hf29  1  0.30230903  0.50385607  0.37403393  1
  Hf  Hf30  1  -0.00965713  0.60589143  0.02543348  1
  Hf  Hf31  1  0.20553000  0.82063322  0.50935502  1
  Hf  Hf32  1  0.50232345  0.30717569  0.12388566  1
  Hf  Hf33  1  0.90267593  0.08186330  0.86559276  1
  Hf  Hf34  1  0.70793745  0.90473877  0.38323708  1
  Hf  Hf35  1  0.40103167  0.81720620  0.76002615  1
  Hf  Hf36  1  -0.01337471  0.80239140  0.02236532  1
  Hf  Hf37  1  0.09654751  0.08632840  0.63051949  1
  Hf  Hf38  1  0.59978391  0.78839536  0.74001261  1
  Hf  Hf39  1  0.89688750  0.30665714  0.87601381  1
  Zr  Zr40  1  0.09756962  0.30229991  0.87326484  1
  Zr  Zr41  1  0.10184455  0.90580441  0.36637173  1
  Zr  Zr42  1  0.90722654  0.28254269  0.36998210  1
  Zr  Zr43  1  0.90425744  0.89242250  0.36867065  1
  Zr  Zr44  1  0.07720774  0.50563751  0.62320916  1
  Zr  Zr45  1  0.20668110  0.40614921  0.51023066  1
  Zr  Zr46  1  0.19262091  0.80800338  0.75483888  1
  Zr  Zr47  1  0.20705763  -0.00325653  0.76262007  1
  Zr  Zr48  1  0.50429456  0.70083453  0.13210552  1
  Zr  Zr49  1  0.40605867  0.42458051  -0.00009249  1
  Zr  Zr50  1  0.60534730  0.19928138  0.24653406  1
  Zr  Zr51  1  0.29994165  0.70497597  0.87839085  1
  Zr  Zr52  1  0.61182406  0.00018700  -0.00337915  1
  Zr  Zr53  1  0.71220684  0.90597384  0.62694984  1
  Zr  Zr54  1  0.30675663  0.91885945  0.90274713  1
  Zr  Zr55  1  -0.00005195  0.37597998  0.49539348  1
  Zr  Zr56  1  0.30763342  0.70513793  0.63690327  1
  Zr  Zr57  1  0.71209615  0.68692452  0.37746667  1
  Zr  Zr58  1  0.50844814  0.50534141  0.37089691  1
  Zr  Zr59  1  0.19144902  0.01315502  0.23639930  1
  Zr  Zr60  1  0.61154024  0.21064044  0.50517002  1
  Zr  Zr61  1  0.80631119  0.78654906  0.74064619  1
  Zr  Zr62  1  0.40456974  0.00385035  0.24771023  1
  Zr  Zr63  1  0.00413198  0.79343117  0.50318534  1
  Zr  Zr64  1  0.30776549  0.50814854  0.85657349  1
  Zr  Zr65  1  0.09891892  0.49934501  0.36972534  1
  Zr  Zr66  1  0.09219397  0.29165721  0.63674218  1
  Zr  Zr67  1  0.28849038  0.11861099  0.10915203  1
  Zr  Zr68  1  0.39398153  0.20657803  0.49330824  1
  Zr  Zr69  1  0.60295804  0.20590081  -0.00685704  1
  Zr  Zr70  1  0.49062682  0.11296127  0.63125201  1
  Zr  Zr71  1  0.88858898  0.49621024  0.37134491  1
  Zr  Zr72  1  0.49964172  0.10088463  0.37380427  1
  Zr  Zr73  1  0.59669174  0.77966978  0.51085647  1
  Zr  Zr74  1  0.79752264  0.18554155  -0.00662665  1
  Zr  Zr75  1  0.58681744  0.21366515  0.75019153  1
  Zr  Zr76  1  0.48191724  0.10047009  0.87219242  1
  Zr  Zr77  1  0.00186920  0.80240797  0.22580978  1
  Zr  Zr78  1  0.90131803  0.07900545  0.65156146  1
  Zr  Zr79  1  0.60478470  0.00700538  0.50388964  1
  Ta  Ta80  1  0.71422462  0.88224115  0.11852047  1
  Ta  Ta81  1  0.61304525  0.41646178  0.73872452  1
  Ta  Ta82  1  0.49651050  0.70003216  0.36534655  1
  Ta  Ta83  1  0.71109883  0.30280667  0.63853947  1
  Ta  Ta84  1  0.51002944  0.89767838  0.88047700  1
  Ta  Ta85  1  0.10888761  0.49564636  0.13392692  1
  Ta  Ta86  1  0.50312399  0.50373769  0.13393683  1
  Ta  Ta87  1  0.80057631  0.39105570  0.51012443  1
  Ta  Ta88  1  0.89898453  0.28663601  0.63724705  1
  Ta  Ta89  1  0.70547881  0.30399457  0.86414855  1
  Ta  Ta90  1  0.11057919  0.29374794  0.12300595  1
  Ta  Ta91  1  0.90824631  0.88284872  0.87369442  1
  Ta  Ta92  1  0.19821420  0.61313507  0.49423750  1
  Ta  Ta93  1  0.20272921  0.79906079  0.22824642  1
  Ta  Ta94  1  0.20783851  0.39738786  0.24563569  1
  Ta  Ta95  1  0.38368946  0.21074772  0.25119143  1
  Ta  Ta96  1  0.59055379  -0.00729472  0.75132394  1
  Ta  Ta97  1  0.70287483  0.69499899  0.88936999  1
  Ta  Ta98  1  0.09357653  0.89916770  0.89154108  1
  Ta  Ta99  1  0.18761497  0.80029672  0.01447404  1
  Ta  Ta100  1  0.00336417  0.78655920  0.75203754  1
  Ta  Ta101  1  0.90509029  0.68114826  0.88106624  1
  Ta  Ta102  1  0.59923917  0.60154130  0.76250636  1
  Ta  Ta103  1  0.30158674  0.69380470  0.11581500  1
  Ta  Ta104  1  0.61266811  -0.00301645  0.24463650  1
  Ta  Ta105  1  0.00060880  0.39711107  0.23818850  1
  Ta  Ta106  1  0.40108048  0.40429845  0.24463363  1
  Ta  Ta107  1  0.00589148  0.19513805  0.23660933  1
  Ta  Ta108  1  0.39164668  0.21696297  -0.00384419  1
  Ta  Ta109  1  0.20292664  0.60679767  0.24568747  1
  Ta  Ta110  1  0.71133217  0.30290102  0.37275769  1
  Ta  Ta111  1  0.30709908  0.30023038  0.86462754  1
  Ta  Ta112  1  -0.00965959  0.00645071  0.23083522  1
  Ta  Ta113  1  0.80289551  0.18849199  0.24442891  1
  Ta  Ta114  1  0.81925431  0.00697670  0.50256963  1
  Ta  Ta115  1  0.39795961  0.79755752  0.24303421  1
  Ta  Ta116  1  0.20430324  0.19579459  0.75822920  1
  Ta  Ta117  1  0.10313494  0.70380240  0.36760415  1
  Ta  Ta118  1  0.90788594  0.67342856  0.62802224  1
  Ta  Ta119  1  0.70137167  0.48900234  0.88460499  1
  Ti  Ti120  1  0.39668120  0.60392510  0.25054113  1
  Ti  Ti121  1  0.37798486  -0.00327841  0.49145585  1
  Ti  Ti122  1  0.29812712  0.70646949  0.36978134  1
  Ti  Ti123  1  0.00536481  -0.00788566  0.50579305  1
  Ti  Ti124  1  0.30482504  0.29033369  0.63792580  1
  Ti  Ti125  1  0.30316357  0.50536711  0.12705794  1
  Ti  Ti126  1  0.10190125  0.09439113  0.88441841  1
  Ti  Ti127  1  0.29294092  0.11002179  0.89285972  1
  Ti  Ti128  1  0.29704362  0.30426288  0.37101359  1
  Ti  Ti129  1  0.89528594  0.09042093  0.37031538  1
  Ti  Ti130  1  0.69415799  0.69264413  0.10520986  1
  Ti  Ti131  1  0.79236685  0.58750046  0.51241605  1
  Ti  Ti132  1  0.80990985  0.78879724  0.24696347  1
  Ti  Ti133  1  0.09729338  0.10746493  0.11062764  1
  Ti  Ti134  1  0.81175458  -0.01977532  0.00113875  1
  Ti  Ti135  1  -0.00054741  -0.00239467  0.01214036  1
  Ti  Ti136  1  0.60344085  0.59584822  0.24570999  1
  Ti  Ti137  1  0.61229668  0.40459380  0.24493828  1
  Ti  Ti138  1  0.79827006  -0.00655103  0.24442166  1
  Ti  Ti139  1  0.79922356  0.57915139  0.01169025  1
  Ti  Ti140  1  0.70335511  0.30204964  0.11989383  1
  Ti  Ti141  1  0.70452940  0.08927825  0.12512573  1
  Ti  Ti142  1  -0.01108029  0.60043693  0.48593868  1
  Ti  Ti143  1  0.70321742  0.09944345  0.85327085  1
  Ti  Ti144  1  0.00526575  0.19813212  -0.00310356  1
  Ti  Ti145  1  0.69899575  0.49098188  0.37813873  1
  Ti  Ti146  1  0.29792747  0.30985781  0.12334746  1
  Ti  Ti147  1  0.10733010  0.29843628  0.35832054  1
  Ti  Ti148  1  0.89519289  0.09734318  0.11970187  1
  Ti  Ti149  1  0.79864856  0.39191452  0.24126914  1
  Ti  Ti150  1  0.39624524  0.80001322  0.49931740  1
  Ti  Ti151  1  0.81260894  0.40070588  0.74478168  1
  Ti  Ti152  1  0.28478159  0.10655557  0.37249435  1
  Ti  Ti153  1  0.70860868  0.10376076  0.37330766  1
  Ti  Ti154  1  0.51639182  0.90061888  0.11833944  1
  Ti  Ti155  1  0.16309326  0.60933231  0.77390587  1
  Ti  Ti156  1  0.51610209  0.53235885  0.62638716  1
  Ti  Ti157  1  0.00301752  0.19554819  0.76174039  1
  Ti  Ti158  1  0.80975524  0.19631227  0.50280738  1
  Ti  Ti159  1  0.28763484  0.52115413  0.64031903  1
  Mo  Mo160  1  0.70953816  0.50285554  0.62645540  1
  Mo  Mo161  1  0.40191752  0.00570403  0.75768476  1
  Mo  Mo162  1  0.39010331  0.60055567  0.00324034  1
  Mo  Mo163  1  0.90625714  0.68936546  0.37369122  1
  Mo  Mo164  1  0.50348706  0.50776607  0.86363597  1
  Mo  Mo165  1  0.40867971  0.00751294  0.00664240  1
  Mo  Mo166  1  0.68958398  0.48899996  0.11596258  1
  Mo  Mo167  1  -0.02242900  0.17231674  0.50772294  1
  Mo  Mo168  1  0.61054314  0.40265504  0.00243121  1
  Mo  Mo169  1  0.09210514  0.90311393  0.62991677  1
  Mo  Mo170  1  0.88910466  0.49884760  0.88229653  1
  Mo  Mo171  1  0.87111619  0.70777867  0.12087145  1
  Mo  Mo172  1  -0.01108390  0.40633342  0.75257441  1
  Mo  Mo173  1  0.80079048  0.78689616  -0.00562076  1
  Mo  Mo174  1  0.38660622  0.20684463  0.75464899  1
  Mo  Mo175  1  0.06797210  0.51220333  0.87307834  1
  Mo  Mo176  1  0.80099534  -0.01266631  0.76103223  1
  Mo  Mo177  1  0.88808850  0.91049669  0.12671682  1
  Mo  Mo178  1  0.91950140  0.88983201  0.63071864  1
  Mo  Mo179  1  0.49932389  0.70473371  0.62768945  1
  Mo  Mo180  1  0.19671547  0.21016580  -0.01142104  1
  Mo  Mo181  1  0.11064929  0.69569768  0.12855554  1
  Mo  Mo182  1  0.18790398  0.00740888  0.00093214  1
  Mo  Mo183  1  0.10235426  0.91298702  0.11565767  1
  Mo  Mo184  1  0.80152731  0.20172545  0.76177554  1
  Mo  Mo185  1  0.69636165  0.68097714  0.62105258  1
  Mo  Mo186  1  0.08172156  0.71270736  0.88471092  1
  Mo  Mo187  1  0.61033678  0.79965696  -0.00287453  1
  Mo  Mo188  1  0.50376271  0.70363084  0.87162525  1
  Mo  Mo189  1  0.50196772  0.31117839  0.62689276  1
  Mo  Mo190  1  0.78993791  0.39535256  0.00405036  1
  Mo  Mo191  1  0.01056317  -0.02260475  0.76253102  1
  Mo  Mo192  1  0.89661382  0.48403977  0.61779808  1
  Mo  Mo193  1  0.19803219  0.20964741  0.25093295  1
  Mo  Mo194  1  0.89506662  0.49033016  0.13389478  1
  Mo  Mo195  1  -0.01166832  0.59398611  0.75584608  1
  Mo  Mo196  1  0.60625400  0.59945851  0.49682225  1
  Mo  Mo197  1  0.29480204  0.90933985  0.62256969  1
  Mo  Mo198  1  0.41774735  0.61320883  0.74366247  1
  Mo  Mo199  1  0.19877206  0.00765576  0.49603653  1
