# generated using pymatgen
data_HfZrTaTiMo
_symmetry_space_group_name_H-M   'P 1'
_cell_length_a   15.21387570
_cell_length_b   15.20516147
_cell_length_c   16.85618590
_cell_angle_alpha   90.01274379
_cell_angle_beta   89.98874693
_cell_angle_gamma   89.97824708
_symmetry_Int_Tables_number   1
_chemical_formula_structural   HfZrTaTiMo
_chemical_formula_sum   'Hf40 Zr40 Ta40 Ti40 Mo40'
_cell_volume   3899.33153573
_cell_formula_units_Z   40
loop_
 _symmetry_equiv_pos_site_id
 _symmetry_equiv_pos_as_xyz
  1  'x, y, z'
loop_
 _atom_site_type_symbol
 _atom_site_label
 _atom_site_symmetry_multiplicity
 _atom_site_fract_x
 _atom_site_fract_y
 _atom_site_fract_z
 _atom_site_occupancy
  Hf  Hf0  1  0.28743652  0.29451956  0.14548067  1
  Hf  Hf1  1  0.58304484  0.59967735  0.76144382  1
  Hf  Hf2  1  -0.01985894  0.21241202  0.49443981  1
  Hf  Hf3  1  0.79680688  0.60212149  -0.00907267  1
  Hf  Hf4  1  0.70172746  0.49581013  0.65268725  1
  Hf  Hf5  1  0.07373195  0.49763698  0.36049092  1
  Hf  Hf6  1  0.68259637  0.71189056  0.62976026  1
  Hf  Hf7  1  0.88489386  0.68910849  0.38954854  1
  Hf  Hf8  1  0.30430097  0.88893643  0.87728959  1
  Hf  Hf9  1  0.52031290  0.88095474  0.61941355  1
  Hf  Hf10  1  0.12094772  0.90834068  0.37937082  1
  Hf  Hf11  1  0.29825286  0.28887939  0.61938226  1
  Hf  Hf12  1  0.40955369  0.37952040  0.48638833  1
  Hf  Hf13  1  0.09816564  0.90463679  0.87752155  1
  Hf  Hf14  1  0.08848400  0.70325301  0.37511669  1
  Hf  Hf15  1  0.19319116  0.39888393  0.01228504  1
  Hf  Hf16  1  0.40515193  0.19299483  0.74334658  1
  Hf  Hf17  1  0.72434037  0.90373665  0.12746498  1
  Hf  Hf18  1  0.79786111  0.58962702  0.24847574  1
  Hf  Hf19  1  0.19048166  0.38928265  0.48974270  1
  Hf  Hf20  1  0.08354467  0.29329229  0.34936798  1
  Hf  Hf21  1  0.11057154  0.91325405  0.61470804  1
  Hf  Hf22  1  0.50825488  0.89849690  0.12725088  1
  Hf  Hf23  1  0.09840571  0.10699613  0.89424134  1
  Hf  Hf24  1  0.20761639  0.79378285  0.49920764  1
  Hf  Hf25  1  0.19213930  0.61085388  0.24151431  1
  Hf  Hf26  1  0.08486638  0.10933088  0.62326466  1
  Hf  Hf27  1  0.31597425  0.89746371  0.61473305  1
  Hf  Hf28  1  0.90020504  0.91766555  0.61810084  1
  Hf  Hf29  1  0.40953944  0.60004030  0.25417954  1
  Hf  Hf30  1  0.01567700  0.02310442  0.26724330  1
  Hf  Hf31  1  0.89367874  0.71445579  0.12145494  1
  Hf  Hf32  1  0.78576141  0.39858626  -0.01887395  1
  Hf  Hf33  1  0.52176127  0.90785756  0.87416500  1
  Hf  Hf34  1  0.09530058  0.30242874  0.88354509  1
  Hf  Hf35  1  0.21242885  0.79968493  0.74215140  1
  Hf  Hf36  1  0.29863593  0.49014517  0.61840197  1
  Hf  Hf37  1  0.00152886  0.80962460  0.74333084  1
  Hf  Hf38  1  0.19068530  0.19458206  0.75047414  1
  Hf  Hf39  1  0.30886644  0.09907232  0.87968561  1
  Zr  Zr40  1  0.61654661  0.00111288  0.25727211  1
  Zr  Zr41  1  0.09004985  0.49619875  0.13613215  1
  Zr  Zr42  1  0.69707444  0.30615785  0.38241387  1
  Zr  Zr43  1  0.60057282  0.57809643  -0.02126472  1
  Zr  Zr44  1  0.40181471  0.38331530  -0.00390152  1
  Zr  Zr45  1  0.82076797  -0.00172754  0.27687599  1
  Zr  Zr46  1  0.19767393  0.61277628  0.02188704  1
  Zr  Zr47  1  0.50747463  0.69491407  0.11703818  1
  Zr  Zr48  1  0.58243574  0.19793864  0.25689693  1
  Zr  Zr49  1  0.28237173  0.48613076  0.35412985  1
  Zr  Zr50  1  0.41913316  0.38040352  0.26334634  1
  Zr  Zr51  1  -0.00709992  0.02048977  0.75411874  1
  Zr  Zr52  1  0.60626582  0.59721128  0.25697593  1
  Zr  Zr53  1  0.40673743  -0.01084810  0.74849304  1
  Zr  Zr54  1  0.90096739  0.09146464  0.12068805  1
  Zr  Zr55  1  0.60252237  0.79450007  0.26552597  1
  Zr  Zr56  1  0.81556115  -0.00621921  -0.01579149  1
  Zr  Zr57  1  0.90970402  0.71043164  0.86685275  1
  Zr  Zr58  1  0.41759875  0.00595885  0.00375717  1
  Zr  Zr59  1  0.41725165  0.78474588  0.48719819  1
  Zr  Zr60  1  0.59627918  0.20196631  0.51102712  1
  Zr  Zr61  1  0.00783476  0.01657700  0.47677780  1
  Zr  Zr62  1  0.09940701  0.69756674  0.61847578  1
  Zr  Zr63  1  0.08800256  0.51244690  0.88194491  1
  Zr  Zr64  1  0.70024243  0.70965925  0.85884649  1
  Zr  Zr65  1  0.79822701  0.20955343  0.24057527  1
  Zr  Zr66  1  0.60993243  0.40988650  0.51386786  1
  Zr  Zr67  1  0.68705425  0.30076891  0.11631966  1
  Zr  Zr68  1  0.88582318  0.50255806  0.85265245  1
  Zr  Zr69  1  0.68718098  0.10934669  0.86733406  1
  Zr  Zr70  1  0.20551880  -0.01192904  0.01255458  1
  Zr  Zr71  1  0.29173726  0.26582845  0.36071599  1
  Zr  Zr72  1  0.20457530  0.39657807  0.75236175  1
  Zr  Zr73  1  0.19359194  0.60207948  0.74977364  1
  Zr  Zr74  1  0.39739093  0.59047277  0.01047288  1
  Zr  Zr75  1  0.48820239  0.70872803  0.88739347  1
  Zr  Zr76  1  0.80073425  0.79355295  0.26072038  1
  Zr  Zr77  1  0.81244987  0.02074068  0.48638301  1
  Zr  Zr78  1  0.39791471  0.58581814  0.47849358  1
  Zr  Zr79  1  0.29427682  0.49908416  0.88305213  1
  Ta  Ta80  1  0.41216831  0.00434777  0.25204660  1
  Ta  Ta81  1  0.29198460  0.70245061  0.88296332  1
  Ta  Ta82  1  0.79326558  0.59366900  0.51953374  1
  Ta  Ta83  1  0.30632817  0.49212331  0.14229925  1
  Ta  Ta84  1  0.31623415  0.68582447  0.62030608  1
  Ta  Ta85  1  -0.00437447  0.61213734  0.00812303  1
  Ta  Ta86  1  0.39813102  0.80611128  0.26127032  1
  Ta  Ta87  1  0.49262338  0.50739859  0.62773914  1
  Ta  Ta88  1  0.72316195  0.50207979  0.38618476  1
  Ta  Ta89  1  0.10560634  0.71351407  0.88778461  1
  Ta  Ta90  1  0.80239264  0.80524599  -0.01001139  1
  Ta  Ta91  1  -0.00931988  0.59287579  0.50890707  1
  Ta  Ta92  1  0.40916981  0.40050163  0.75778790  1
  Ta  Ta93  1  0.50895546  0.47548321  0.12577609  1
  Ta  Ta94  1  0.09564722  0.30315434  0.62326403  1
  Ta  Ta95  1  0.70871092  0.28620332  0.64210325  1
  Ta  Ta96  1  0.88762543  0.32692978  0.37153159  1
  Ta  Ta97  1  0.88549315  0.49990347  0.11554010  1
  Ta  Ta98  1  0.48705035  0.27327851  0.11912561  1
  Ta  Ta99  1  0.69381517  0.50003635  0.11745519  1
  Ta  Ta100  1  0.60576521  0.00002793  0.49701140  1
  Ta  Ta101  1  0.61332541  0.39996421  0.25207404  1
  Ta  Ta102  1  0.19210735  0.59179883  0.49204452  1
  Ta  Ta103  1  0.00313431  0.39329268  0.74790152  1
  Ta  Ta104  1  0.89636638  0.29221114  0.87042124  1
  Ta  Ta105  1  0.90211265  0.49870091  0.64018064  1
  Ta  Ta106  1  0.21907729  0.01013951  0.24756191  1
  Ta  Ta107  1  0.70138752  0.10918775  0.38310035  1
  Ta  Ta108  1  0.31937686  0.10688144  0.12541373  1
  Ta  Ta109  1  -0.01555237  0.40371213  0.00245967  1
  Ta  Ta110  1  0.29143631  0.70402301  0.36445680  1
  Ta  Ta111  1  0.50801358  0.90540830  0.38235568  1
  Ta  Ta112  1  0.09550103  0.49419213  0.62174145  1
  Ta  Ta113  1  0.61618590  0.01374769  0.00712095  1
  Ta  Ta114  1  -0.01408106  0.61235868  0.24109441  1
  Ta  Ta115  1  0.50127378  0.08923075  0.61832114  1
  Ta  Ta116  1  -0.00719718  0.80272101  0.50160819  1
  Ta  Ta117  1  0.39068730  0.59569849  0.75629382  1
  Ta  Ta118  1  0.10853973  0.10869709  0.11944720  1
  Ta  Ta119  1  -0.00260764  0.82481145  0.00337844  1
  Ti  Ti120  1  0.30277533  0.71049269  0.13592407  1
  Ti  Ti121  1  0.59302667  0.61151468  0.49781688  1
  Ti  Ti122  1  0.80976529  0.39704239  0.51769176  1
  Ti  Ti123  1  0.48952759  0.10132170  0.38550200  1
  Ti  Ti124  1  0.08178155  0.29677232  0.13649730  1
  Ti  Ti125  1  0.50702067  0.27591604  0.86667515  1
  Ti  Ti126  1  -0.01163776  0.20906309  0.01146439  1
  Ti  Ti127  1  0.88938994  0.70462922  0.62472964  1
  Ti  Ti128  1  -0.03517125  0.40130553  0.23567826  1
  Ti  Ti129  1  0.90295784  0.29442533  0.63784003  1
  Ti  Ti130  1  0.39158099  0.18196630  0.50165669  1
  Ti  Ti131  1  0.19919052  0.81203811  0.24975902  1
  Ti  Ti132  1  0.80843361  0.18594100  0.74807670  1
  Ti  Ti133  1  0.69619460  0.30440794  0.84594105  1
  Ti  Ti134  1  0.29264101  0.08844101  0.61756238  1
  Ti  Ti135  1  0.30217192  0.89959442  0.13301307  1
  Ti  Ti136  1  0.90587756  0.10770939  0.88285215  1
  Ti  Ti137  1  -0.00653347  0.81509325  0.25759670  1
  Ti  Ti138  1  0.21176812  0.20424174  0.00700612  1
  Ti  Ti139  1  0.52134914  0.48982401  0.37728208  1
  Ti  Ti140  1  0.20204933  -0.00017309  0.75059454  1
  Ti  Ti141  1  0.09142776  0.72383175  0.12675674  1
  Ti  Ti142  1  0.38742242  0.80165115  0.00948419  1
  Ti  Ti143  1  0.61176715  0.00138063  0.73968935  1
  Ti  Ti144  1  0.50443381  0.30502192  0.63532427  1
  Ti  Ti145  1  0.18810970  0.18660624  0.49500143  1
  Ti  Ti146  1  0.30230316  0.29239277  0.87467403  1
  Ti  Ti147  1  0.78362478  0.19832652  0.00020238  1
  Ti  Ti148  1  0.80046410  -0.00159367  0.75680077  1
  Ti  Ti149  1  0.61392027  0.81076585  -0.00030022  1
  Ti  Ti150  1  0.31396851  0.90973747  0.38280354  1
  Ti  Ti151  1  0.70951219  0.90658458  0.61176727  1
  Ti  Ti152  1  0.59400085  0.38493811  -0.01891650  1
  Ti  Ti153  1  -0.00562535  0.40681572  0.50441732  1
  Ti  Ti154  1  0.09022798  0.91290265  0.13309813  1
  Ti  Ti155  1  0.79390660  0.81517177  0.74830949  1
  Ti  Ti156  1  0.69830538  0.69885659  0.11552274  1
  Ti  Ti157  1  0.41583779  0.78320037  0.74603435  1
  Ti  Ti158  1  -0.00099941  0.60646545  0.74196413  1
  Ti  Ti159  1  0.71560245  0.88569921  0.39647830  1
  Mo  Mo160  1  0.40094938  0.19860274  -0.00523426  1
  Mo  Mo161  1  0.11380589  0.11485295  0.37207386  1
  Mo  Mo162  1  0.29682958  0.08128971  0.38139784  1
  Mo  Mo163  1  0.80212112  0.79962021  0.50897583  1
  Mo  Mo164  1  0.41346193  0.00093683  0.50235219  1
  Mo  Mo165  1  0.69412837  0.48998957  0.85022537  1
  Mo  Mo166  1  0.18858819  0.39853017  0.24077341  1
  Mo  Mo167  1  0.89263890  0.30726934  0.10719187  1
  Mo  Mo168  1  0.80340274  0.61112686  0.73190611  1
  Mo  Mo169  1  0.60005651  0.81362750  0.74985208  1
  Mo  Mo170  1  0.60955676  0.79658724  0.48839041  1
  Mo  Mo171  1  0.50533872  0.10131628  0.86834933  1
  Mo  Mo172  1  0.88221612  0.11347129  0.62638854  1
  Mo  Mo173  1  0.19833832  0.80091650  0.01677855  1
  Mo  Mo174  1  0.21471563  0.00717357  0.50054420  1
  Mo  Mo175  1  0.39307594  0.17725594  0.25498410  1
  Mo  Mo176  1  0.91694202  0.89908675  0.13077604  1
  Mo  Mo177  1  0.59840949  0.19125045  0.73205250  1
  Mo  Mo178  1  0.50282005  0.29225673  0.38191940  1
  Mo  Mo179  1  0.59119532  0.39045041  0.74914344  1
  Mo  Mo180  1  0.59063611  0.20090493  -0.00532887  1
  Mo  Mo181  1  0.70508070  0.90311756  0.87038403  1
  Mo  Mo182  1  -0.01205061  0.20690337  0.23651073  1
  Mo  Mo183  1  0.80641472  0.38630207  0.74908594  1
  Mo  Mo184  1  0.50906257  0.09619638  0.12703458  1
  Mo  Mo185  1  0.70720285  0.09138455  0.62900297  1
  Mo  Mo186  1  0.49882196  0.69779873  0.36914250  1
  Mo  Mo187  1  0.91540858  0.88127591  0.38442028  1
  Mo  Mo188  1  0.90334508  0.14427651  0.36366640  1
  Mo  Mo189  1  0.49474963  0.68777937  0.62675851  1
  Mo  Mo190  1  0.90035922  0.90238476  0.86753587  1
  Mo  Mo191  1  0.89841225  0.49968216  0.38181697  1
  Mo  Mo192  1  0.79607261  0.21581359  0.50569409  1
  Mo  Mo193  1  0.69571281  0.69025293  0.39673901  1
  Mo  Mo194  1  0.69577824  0.10002101  0.11681126  1
  Mo  Mo195  1  -0.00449610  0.20976910  0.75470930  1
  Mo  Mo196  1  0.00654777  0.00944623  0.00246085  1
  Mo  Mo197  1  0.18527043  0.18275291  0.24151623  1
  Mo  Mo198  1  0.79136271  0.40830514  0.24249479  1
  Mo  Mo199  1  0.49716127  0.48234903  0.86960428  1
