# generated using pymatgen
data_HfZrTaTiMo
_symmetry_space_group_name_H-M   'P 1'
_cell_length_a   15.20007387
_cell_length_b   15.20928412
_cell_length_c   16.83604581
_cell_angle_alpha   90.02548228
_cell_angle_beta   89.96728699
_cell_angle_gamma   90.00632069
_symmetry_Int_Tables_number   1
_chemical_formula_structural   HfZrTaTiMo
_chemical_formula_sum   'Hf40 Zr40 Ta40 Ti40 Mo40'
_cell_volume   3892.19377461
_cell_formula_units_Z   40
loop_
 _symmetry_equiv_pos_site_id
 _symmetry_equiv_pos_as_xyz
  1  'x, y, z'
loop_
 _atom_site_type_symbol
 _atom_site_label
 _atom_site_symmetry_multiplicity
 _atom_site_fract_x
 _atom_site_fract_y
 _atom_site_fract_z
 _atom_site_occupancy
  Hf  Hf0  1  -0.01960733  0.58663826  0.51437837  1
  Hf  Hf1  1  -0.00545725  0.79406653  0.76009229  1
  Hf  Hf2  1  0.09421053  0.30094811  0.12360429  1
  Hf  Hf3  1  0.30771469  0.10512113  0.38440176  1
  Hf  Hf4  1  0.00520551  0.00626977  0.01303427  1
  Hf  Hf5  1  0.39503248  0.39683136  0.24998883  1
  Hf  Hf6  1  0.70170904  0.09688185  0.63948970  1
  Hf  Hf7  1  0.08878449  0.89119471  0.62435901  1
  Hf  Hf8  1  0.18417235  0.60394735  0.24797913  1
  Hf  Hf9  1  0.19683575  0.40295016  0.24393823  1
  Hf  Hf10  1  0.61232464  0.38888796  0.51094584  1
  Hf  Hf11  1  0.47967716  0.50233989  0.61587392  1
  Hf  Hf12  1  0.70624874  0.29977326  0.86648901  1
  Hf  Hf13  1  0.70903204  0.51771008  0.61959581  1
  Hf  Hf14  1  0.09861223  0.09627869  0.86838174  1
  Hf  Hf15  1  -0.02244903  -0.00294403  0.49791823  1
  Hf  Hf16  1  0.41006803  0.01166089  0.24572553  1
  Hf  Hf17  1  0.50406488  0.30032949  0.87774917  1
  Hf  Hf18  1  0.50798045  0.69825650  0.34990433  1
  Hf  Hf19  1  0.69176299  0.71759680  0.62681845  1
  Hf  Hf20  1  0.70110261  0.28410333  0.36521227  1
  Hf  Hf21  1  0.09858384  0.10284287  0.36602326  1
  Hf  Hf22  1  0.00777087  -0.01474086  0.24699955  1
  Hf  Hf23  1  0.29494711  0.29670399  0.39631125  1
  Hf  Hf24  1  0.82453148  0.40464587  0.51323942  1
  Hf  Hf25  1  0.20278279  0.41210811  0.74980794  1
  Hf  Hf26  1  0.80117571  0.79163098  -0.00845758  1
  Hf  Hf27  1  0.30269130  0.30677473  0.10645715  1
  Hf  Hf28  1  0.21563903  -0.01522649  0.00952862  1
  Hf  Hf29  1  0.29946652  0.69510611  0.62188345  1
  Hf  Hf30  1  0.79814317  0.19642666  0.50406585  1
  Hf  Hf31  1  0.81022594  0.60000841  0.25794583  1
  Hf  Hf32  1  -0.00816616  0.20037042  0.00514874  1
  Hf  Hf33  1  0.89648266  0.29456884  0.85558214  1
  Hf  Hf34  1  0.31519984  0.10963537  0.11935592  1
  Hf  Hf35  1  0.49847543  0.08786495  0.62193142  1
  Hf  Hf36  1  0.11218014  0.89387313  0.88164194  1
  Hf  Hf37  1  0.30492235  0.10841092  0.59892335  1
  Hf  Hf38  1  0.41701877  0.79310743  0.49523804  1
  Hf  Hf39  1  0.67882114  0.50196869  0.87379307  1
  Zr  Zr40  1  0.59137921  0.77804236  -0.00411283  1
  Zr  Zr41  1  0.50586400  0.89063594  0.13429734  1
  Zr  Zr42  1  0.17956450  0.80754572  0.26292511  1
  Zr  Zr43  1  0.40153485  0.41419772  0.75612469  1
  Zr  Zr44  1  0.40292991  0.00396972  0.75577440  1
  Zr  Zr45  1  -0.01435253  0.61125938  -0.02185185  1
  Zr  Zr46  1  0.89299306  0.69245354  0.11957550  1
  Zr  Zr47  1  0.59101451  0.19387710  0.75208076  1
  Zr  Zr48  1  0.00619847  0.21448566  0.50843752  1
  Zr  Zr49  1  0.20561331  -0.00740174  0.74362671  1
  Zr  Zr50  1  0.18201603  -0.00506325  0.49434663  1
  Zr  Zr51  1  0.30600667  0.51668992  0.11466114  1
  Zr  Zr52  1  0.09103185  0.30986371  0.36862735  1
  Zr  Zr53  1  0.52253319  0.90143677  0.35439613  1
  Zr  Zr54  1  0.90070995  0.91271333  0.88934817  1
  Zr  Zr55  1  0.88683603  0.70680148  0.62855921  1
  Zr  Zr56  1  0.49804868  0.28818989  0.61869012  1
  Zr  Zr57  1  0.19852659  0.41303743  -0.01379761  1
  Zr  Zr58  1  0.60362692  0.18354726  0.00337607  1
  Zr  Zr59  1  0.70326095  0.50074387  0.12986173  1
  Zr  Zr60  1  0.22197848  0.19784356  0.74481814  1
  Zr  Zr61  1  0.71015580  0.50236655  0.38209456  1
  Zr  Zr62  1  0.41790393  0.00172951  0.00521899  1
  Zr  Zr63  1  0.52245999  0.88833035  0.63035120  1
  Zr  Zr64  1  0.30438277  0.90240451  0.38030509  1
  Zr  Zr65  1  0.30495177  0.31340278  0.60870559  1
  Zr  Zr66  1  0.71698853  0.09234931  0.86798767  1
  Zr  Zr67  1  0.62977883  -0.00475304  0.49349097  1
  Zr  Zr68  1  0.28465492  0.49470670  0.38595672  1
  Zr  Zr69  1  0.31094919  0.89811403  0.61054155  1
  Zr  Zr70  1  0.09345382  0.51464112  0.11010220  1
  Zr  Zr71  1  0.29534162  0.69664127  0.37844722  1
  Zr  Zr72  1  0.59662351  0.39105811  0.24767893  1
  Zr  Zr73  1  0.49673542  0.49479220  0.38222490  1
  Zr  Zr74  1  0.30869052  0.30318183  0.88619906  1
  Zr  Zr75  1  0.60394519  0.39773420  0.01073082  1
  Zr  Zr76  1  0.89737301  0.10098281  0.63993196  1
  Zr  Zr77  1  0.59497512  0.61630867  0.49897766  1
  Zr  Zr78  1  -0.00944120  0.40294034  -0.01200420  1
  Zr  Zr79  1  0.09759953  0.29504878  0.86277093  1
  Ta  Ta80  1  0.18007456  0.59196073  0.50904089  1
  Ta  Ta81  1  0.17161764  0.39691090  0.51519228  1
  Ta  Ta82  1  0.48781775  0.67337852  0.87411747  1
  Ta  Ta83  1  0.80082467  0.81974585  0.49421301  1
  Ta  Ta84  1  0.40798237  0.20786244  0.25458548  1
  Ta  Ta85  1  0.70816095  0.89229726  0.12342302  1
  Ta  Ta86  1  0.91915690  0.50217240  0.37390682  1
  Ta  Ta87  1  0.39874587  0.79599462  0.75765214  1
  Ta  Ta88  1  0.30763040  0.09964818  0.88606034  1
  Ta  Ta89  1  0.80329043  -0.00590295  0.23878021  1
  Ta  Ta90  1  0.19593139  0.18961613  0.00029758  1
  Ta  Ta91  1  0.09678326  0.69246005  0.63091243  1
  Ta  Ta92  1  0.89792966  0.10875196  0.13970793  1
  Ta  Ta93  1  0.80372470  0.20183599  0.00931580  1
  Ta  Ta94  1  0.20473206  0.79538317  0.74904664  1
  Ta  Ta95  1  -0.00525692  0.79480692  0.49159124  1
  Ta  Ta96  1  0.21059739  0.20073002  0.24548184  1
  Ta  Ta97  1  0.49256218  0.68837106  0.13750576  1
  Ta  Ta98  1  0.61204785  -0.01157374  0.00368250  1
  Ta  Ta99  1  -0.00513083  -0.00707722  0.74685852  1
  Ta  Ta100  1  0.49735510  0.29327892  0.38773924  1
  Ta  Ta101  1  -0.00685977  0.41595173  0.24126830  1
  Ta  Ta102  1  0.07629372  0.67814904  0.37967361  1
  Ta  Ta103  1  0.60342785  0.78645668  0.76954554  1
  Ta  Ta104  1  0.89243847  0.10709481  0.35986302  1
  Ta  Ta105  1  0.20890018  0.00095699  0.24431557  1
  Ta  Ta106  1  0.90823254  0.89149362  0.12105978  1
  Ta  Ta107  1  0.68710769  0.69459490  0.13402828  1
  Ta  Ta108  1  0.09172833  0.71159518  0.11371893  1
  Ta  Ta109  1  0.80183423  0.39330784  0.00190210  1
  Ta  Ta110  1  0.78768282  0.61480210  0.76366453  1
  Ta  Ta111  1  0.08124949  0.49148002  0.64142859  1
  Ta  Ta112  1  0.49606373  0.88821696  0.87860418  1
  Ta  Ta113  1  0.49441150  0.28822324  0.11759208  1
  Ta  Ta114  1  0.39177162  0.59641007  0.24980162  1
  Ta  Ta115  1  0.18471929  0.78884124  0.49298930  1
  Ta  Ta116  1  0.89438287  0.90114376  0.36737598  1
  Ta  Ta117  1  0.10588706  0.10155548  0.13585987  1
  Ta  Ta118  1  0.38268318  0.79922727  0.00268181  1
  Ta  Ta119  1  0.60545844  0.40123414  0.73335520  1
  Ti  Ti120  1  -0.00677943  0.21137517  0.24396644  1
  Ti  Ti121  1  0.80200579  0.80121491  0.24999787  1
  Ti  Ti122  1  0.10869571  0.89209544  0.11980930  1
  Ti  Ti123  1  0.80192844  0.01020019  0.01722310  1
  Ti  Ti124  1  0.49510612  0.69854476  0.63634303  1
  Ti  Ti125  1  0.29081898  0.71402031  0.12551798  1
  Ti  Ti126  1  0.38787245  0.59679336  0.49697214  1
  Ti  Ti127  1  -0.00934458  0.59829941  0.75807282  1
  Ti  Ti128  1  0.58437940  0.59316664  0.74722110  1
  Ti  Ti129  1  0.20543639  0.60449488  0.75110040  1
  Ti  Ti130  1  0.81053441  0.39106294  0.24759874  1
  Ti  Ti131  1  0.69824113  0.89812053  0.88216320  1
  Ti  Ti132  1  0.88419746  0.50011705  0.86696879  1
  Ti  Ti133  1  0.42486694  -0.00269789  0.48675416  1
  Ti  Ti134  1  0.10444857  0.51157715  0.86810120  1
  Ti  Ti135  1  0.10305687  0.70293681  0.87670806  1
  Ti  Ti136  1  0.69571135  0.09623268  0.13829966  1
  Ti  Ti137  1  0.70748848  0.28707709  0.13694434  1
  Ti  Ti138  1  0.60648915  -0.01774052  0.76058579  1
  Ti  Ti139  1  0.09984610  0.10684680  0.62831031  1
  Ti  Ti140  1  0.70623063  0.08822444  0.35581624  1
  Ti  Ti141  1  0.50182984  0.50497287  0.12911531  1
  Ti  Ti142  1  0.29798815  0.71053840  0.87553932  1
  Ti  Ti143  1  0.77934970  0.59817549  -0.01131085  1
  Ti  Ti144  1  0.91986905  0.31649595  0.64694390  1
  Ti  Ti145  1  0.21141781  0.61713852  -0.00745874  1
  Ti  Ti146  1  0.90306678  0.10801934  0.85783828  1
  Ti  Ti147  1  0.89851174  0.30348711  0.37181872  1
  Ti  Ti148  1  0.60507810  0.19120864  0.50145693  1
  Ti  Ti149  1  0.79865402  0.41079664  0.73841218  1
  Ti  Ti150  1  -0.01028731  0.78161441  0.25886340  1
  Ti  Ti151  1  0.70461493  0.71154834  0.36766921  1
  Ti  Ti152  1  0.51894333  0.10711367  0.36785291  1
  Ti  Ti153  1  0.79873652  0.80921601  0.76669139  1
  Ti  Ti154  1  0.72495253  0.90558334  0.63645173  1
  Ti  Ti155  1  0.61033289  0.80606887  0.48971570  1
  Ti  Ti156  1  0.38648517  0.80182558  0.24490011  1
  Ti  Ti157  1  0.89645312  0.49693730  0.11876094  1
  Ti  Ti158  1  0.50246322  0.09507935  0.87522282  1
  Ti  Ti159  1  0.41049886  0.42770457  -0.01098073  1
  Mo  Mo160  1  0.88768237  0.70030592  0.38161980  1
  Mo  Mo161  1  0.89596229  0.50951452  0.64628102  1
  Mo  Mo162  1  -0.00190965  0.60194328  0.24564479  1
  Mo  Mo163  1  -0.00130561  0.41396138  0.76601241  1
  Mo  Mo164  1  0.29917148  0.89685071  0.13599236  1
  Mo  Mo165  1  0.40480261  0.20260658  -0.00426574  1
  Mo  Mo166  1  0.79617995  0.61417206  0.48819053  1
  Mo  Mo167  1  0.51189329  0.10457628  0.12933163  1
  Mo  Mo168  1  -0.00162943  0.40183164  0.50877240  1
  Mo  Mo169  1  0.00952930  0.19814082  0.74119046  1
  Mo  Mo170  1  0.58761819  0.59387425  0.00503547  1
  Mo  Mo171  1  0.89403780  0.89681993  0.62898255  1
  Mo  Mo172  1  0.49602666  0.49592771  0.87117007  1
  Mo  Mo173  1  0.59299090  0.19297981  0.24490490  1
  Mo  Mo174  1  0.80199355  -0.00719766  0.75839709  1
  Mo  Mo175  1  0.89274693  0.69757781  0.87081696  1
  Mo  Mo176  1  0.80095630  0.19932727  0.24688506  1
  Mo  Mo177  1  0.80403980  0.00670685  0.49155376  1
  Mo  Mo178  1  0.71236504  0.29995744  0.63425479  1
  Mo  Mo179  1  0.28195394  0.51072489  0.61641782  1
  Mo  Mo180  1  0.19302090  0.19888099  0.50591935  1
  Mo  Mo181  1  0.00580048  0.80448854  -0.00148178  1
  Mo  Mo182  1  0.80060667  0.21043144  0.73921464  1
  Mo  Mo183  1  0.39857534  0.19444140  0.75596650  1
  Mo  Mo184  1  0.30817045  0.89456380  0.87348538  1
  Mo  Mo185  1  0.71535305  0.89806345  0.36222998  1
  Mo  Mo186  1  0.61317736  -0.00163115  0.24092323  1
  Mo  Mo187  1  0.40742872  0.61523211  0.00609581  1
  Mo  Mo188  1  0.61419753  0.79422042  0.24092634  1
  Mo  Mo189  1  0.41474529  0.19214209  0.48800137  1
  Mo  Mo190  1  0.20048656  0.79394704  0.00099445  1
  Mo  Mo191  1  0.89330756  0.30685064  0.12857197  1
  Mo  Mo192  1  0.38837065  0.60753929  0.74993345  1
  Mo  Mo193  1  0.09717134  0.29739564  0.64322871  1
  Mo  Mo194  1  0.08777643  0.89026629  0.37705262  1
  Mo  Mo195  1  0.09387174  0.49755911  0.37673888  1
  Mo  Mo196  1  0.30694046  0.53018966  0.88002673  1
  Mo  Mo197  1  0.69186079  0.69634657  0.87243927  1
  Mo  Mo198  1  0.59915456  0.59583123  0.25208631  1
  Mo  Mo199  1  0.39794515  0.40399549  0.49986628  1
