# generated using pymatgen
data_HfZrTaTiMo
_symmetry_space_group_name_H-M   'P 1'
_cell_length_a   15.20500253
_cell_length_b   15.22232570
_cell_length_c   16.85419009
_cell_angle_alpha   90.01063770
_cell_angle_beta   89.97394755
_cell_angle_gamma   89.95444015
_symmetry_Int_Tables_number   1
_chemical_formula_structural   HfZrTaTiMo
_chemical_formula_sum   'Hf40 Zr40 Ta40 Ti40 Mo40'
_cell_volume   3900.99330380
_cell_formula_units_Z   40
loop_
 _symmetry_equiv_pos_site_id
 _symmetry_equiv_pos_as_xyz
  1  'x, y, z'
loop_
 _atom_site_type_symbol
 _atom_site_label
 _atom_site_symmetry_multiplicity
 _atom_site_fract_x
 _atom_site_fract_y
 _atom_site_fract_z
 _atom_site_occupancy
  Hf  Hf0  1  0.60627159  0.78211070  0.75503635  1
  Hf  Hf1  1  0.10018914  0.09823663  0.88464138  1
  Hf  Hf2  1  0.09946092  0.29836607  0.37548538  1
  Hf  Hf3  1  0.80075581  0.60581721  0.75728788  1
  Hf  Hf4  1  0.01451193  0.20232737  0.75847340  1
  Hf  Hf5  1  0.79329564  0.18466184  -0.00512392  1
  Hf  Hf6  1  0.60587724  0.20126948  0.49731623  1
  Hf  Hf7  1  0.30589990  0.69198301  0.87810386  1
  Hf  Hf8  1  0.30024966  0.10008101  0.87615554  1
  Hf  Hf9  1  0.20020972  0.38702439  0.74045154  1
  Hf  Hf10  1  0.19028820  -0.01937380  -0.00220248  1
  Hf  Hf11  1  0.40704735  0.80860708  -0.00887705  1
  Hf  Hf12  1  0.91270420  0.71520157  0.62460198  1
  Hf  Hf13  1  0.19149637  0.00974305  0.74507358  1
  Hf  Hf14  1  0.50302695  0.10945169  0.12092237  1
  Hf  Hf15  1  0.69397981  0.87591993  0.36263610  1
  Hf  Hf16  1  0.09847282  0.50153002  0.37977945  1
  Hf  Hf17  1  0.51844490  0.70390623  0.37717949  1
  Hf  Hf18  1  0.39183314  0.40143774  0.49926603  1
  Hf  Hf19  1  0.00144961  0.81618568  0.24485328  1
  Hf  Hf20  1  0.71235693  0.07832703  0.13074424  1
  Hf  Hf21  1  0.49570630  0.10410999  0.86576901  1
  Hf  Hf22  1  0.07420104  0.89525851  0.63519735  1
  Hf  Hf23  1  -0.03375033  0.00766841  -0.00965922  1
  Hf  Hf24  1  0.40062364  0.39673763  0.25074197  1
  Hf  Hf25  1  -0.02175430  -0.00356177  0.76911575  1
  Hf  Hf26  1  -0.01423395  0.21210613  -0.01080111  1
  Hf  Hf27  1  0.50483810  0.51603597  0.61894903  1
  Hf  Hf28  1  0.48952087  0.29972794  0.62310663  1
  Hf  Hf29  1  0.60600782  0.40638413  0.49540474  1
  Hf  Hf30  1  0.40935968  0.60213108  0.24484875  1
  Hf  Hf31  1  0.30188412  0.10618392  0.61637071  1
  Hf  Hf32  1  0.18964793  0.78660615  0.74800193  1
  Hf  Hf33  1  0.31535897  0.69605577  0.63436168  1
  Hf  Hf34  1  0.49308314  0.89367381  0.62163866  1
  Hf  Hf35  1  0.00350001  0.60398890  0.24732269  1
  Hf  Hf36  1  0.71886533  0.70436734  0.89245037  1
  Hf  Hf37  1  0.59111652  0.19177443  0.26520744  1
  Hf  Hf38  1  0.01073060  0.81842385  0.01743258  1
  Hf  Hf39  1  0.61357573  0.59284232  0.01398882  1
  Zr  Zr40  1  0.31383384  0.29918664  0.11969660  1
  Zr  Zr41  1  0.30984540  0.69988769  0.36701907  1
  Zr  Zr42  1  0.21434523  0.60030669  0.50682177  1
  Zr  Zr43  1  0.19420947  0.40475914  0.24382092  1
  Zr  Zr44  1  -0.00674899  0.61995573  0.48430523  1
  Zr  Zr45  1  0.87220404  0.91438399  0.13382531  1
  Zr  Zr46  1  0.00653552  0.61415225  0.75698138  1
  Zr  Zr47  1  0.49524543  0.08886126  0.61352880  1
  Zr  Zr48  1  0.80443504  0.39775911  0.49725304  1
  Zr  Zr49  1  0.10098097  0.31538428  0.11285792  1
  Zr  Zr50  1  0.19028044  0.80068039  0.51252187  1
  Zr  Zr51  1  0.38993541  0.00461625  0.25148612  1
  Zr  Zr52  1  0.59503881  0.39990494  0.23838604  1
  Zr  Zr53  1  0.70069478  0.88585712  0.62526522  1
  Zr  Zr54  1  0.91886288  0.09398613  0.61519804  1
  Zr  Zr55  1  0.50321912  0.50742049  0.38013871  1
  Zr  Zr56  1  0.89541985  0.30064990  0.13151774  1
  Zr  Zr57  1  0.11036342  0.71703942  0.36134250  1
  Zr  Zr58  1  0.08788729  0.10241212  0.11307794  1
  Zr  Zr59  1  0.69936252  0.49475427  0.87135738  1
  Zr  Zr60  1  0.29256130  0.88835794  0.12814832  1
  Zr  Zr61  1  0.70498139  0.30093766  0.36518060  1
  Zr  Zr62  1  0.28895204  0.08704749  0.38769700  1
  Zr  Zr63  1  0.58887364  0.38409068  0.00922574  1
  Zr  Zr64  1  0.81389666  0.18328817  0.25966388  1
  Zr  Zr65  1  0.89475195  0.32601433  0.87223388  1
  Zr  Zr66  1  0.89268023  0.50862244  0.62407758  1
  Zr  Zr67  1  0.10963706  0.30903706  0.88545691  1
  Zr  Zr68  1  0.60217904  0.19897560  0.73772618  1
  Zr  Zr69  1  0.09444561  0.50388846  0.61880688  1
  Zr  Zr70  1  0.29816610  0.09872080  0.11640663  1
  Zr  Zr71  1  0.78940356  0.40186320  0.01112138  1
  Zr  Zr72  1  0.19087724  0.20225759  0.50207404  1
  Zr  Zr73  1  0.09729285  0.49984007  0.89005147  1
  Zr  Zr74  1  0.48903549  0.09084411  0.40201958  1
  Zr  Zr75  1  0.79975740  0.78445609  0.48768178  1
  Zr  Zr76  1  0.80420308  0.19114940  0.75327677  1
  Zr  Zr77  1  0.90551551  0.30142646  0.62740900  1
  Zr  Zr78  1  0.58510881  -0.01416025  0.25665466  1
  Zr  Zr79  1  0.40217063  0.41058125  0.75461842  1
  Ta  Ta80  1  0.31650702  0.69294684  0.12189975  1
  Ta  Ta81  1  0.17940079  -0.00412072  0.51404870  1
  Ta  Ta82  1  0.08797211  0.88377685  0.86937100  1
  Ta  Ta83  1  0.81050867  0.19280590  0.49134293  1
  Ta  Ta84  1  0.68750674  0.09009064  0.87187943  1
  Ta  Ta85  1  0.21543740  0.58744430  0.01559451  1
  Ta  Ta86  1  0.70763233  0.50374309  0.35803786  1
  Ta  Ta87  1  0.29691998  0.49987479  0.37538272  1
  Ta  Ta88  1  0.40541580  0.80559878  0.76029110  1
  Ta  Ta89  1  0.11795454  0.71021158  0.12925088  1
  Ta  Ta90  1  -0.01105980  0.82711611  0.48228062  1
  Ta  Ta91  1  0.90397524  0.70345868  0.11563824  1
  Ta  Ta92  1  0.10658605  0.69376664  0.89229853  1
  Ta  Ta93  1  0.48823615  0.50717625  0.11671331  1
  Ta  Ta94  1  0.71543459  0.70534558  0.11845998  1
  Ta  Ta95  1  0.69171906  0.28190603  0.13545191  1
  Ta  Ta96  1  0.70936411  0.08268436  0.38314778  1
  Ta  Ta97  1  0.30139024  0.90332692  0.63555726  1
  Ta  Ta98  1  0.79292465  0.59452580  0.48372816  1
  Ta  Ta99  1  0.61008124  0.60592543  0.23063301  1
  Ta  Ta100  1  0.41817998  0.60958072  0.75885572  1
  Ta  Ta101  1  0.61109554  0.81701534  -0.00319250  1
  Ta  Ta102  1  0.20773110  0.59097632  0.74909657  1
  Ta  Ta103  1  0.78602345  -0.00720083  0.75961095  1
  Ta  Ta104  1  0.30485948  0.29739381  0.37481378  1
  Ta  Ta105  1  0.39567549  0.79056584  0.50263406  1
  Ta  Ta106  1  0.51054242  0.71632391  0.11437548  1
  Ta  Ta107  1  0.38246665  0.20474645  0.74827238  1
  Ta  Ta108  1  0.81106029  0.59671162  0.24599418  1
  Ta  Ta109  1  0.20420511  0.19308005  0.25194292  1
  Ta  Ta110  1  0.81341436  -0.01513703  0.48618772  1
  Ta  Ta111  1  0.18031752  -0.00538870  0.24624576  1
  Ta  Ta112  1  0.41712190  0.80820453  0.24445862  1
  Ta  Ta113  1  0.38942957  0.41588703  -0.00295830  1
  Ta  Ta114  1  0.71254534  0.08697047  0.60994195  1
  Ta  Ta115  1  -0.01341594  0.01826553  0.24876600  1
  Ta  Ta116  1  0.91662021  0.71276319  0.90123419  1
  Ta  Ta117  1  0.40207825  -0.00052266  -0.00300349  1
  Ta  Ta118  1  0.30482684  0.30173071  0.88163840  1
  Ta  Ta119  1  0.01285192  0.20414053  0.25177828  1
  Ti  Ti120  1  0.77403561  -0.02053347  -0.02072420  1
  Ti  Ti121  1  0.69279061  0.29430758  0.86857613  1
  Ti  Ti122  1  0.51276989  0.69664005  0.88547196  1
  Ti  Ti123  1  0.29780524  0.49973646  0.87518630  1
  Ti  Ti124  1  0.51004035  0.69723266  0.62156467  1
  Ti  Ti125  1  0.90461407  0.30928340  0.36876954  1
  Ti  Ti126  1  0.20093499  0.39803656  0.50778947  1
  Ti  Ti127  1  0.68278374  0.88512231  0.13969694  1
  Ti  Ti128  1  0.48432110  0.89405702  0.39124533  1
  Ti  Ti129  1  0.60954611  -0.01670741  0.49847010  1
  Ti  Ti130  1  0.50189744  0.90923672  0.86632546  1
  Ti  Ti131  1  -0.01080165  0.41099051  0.24977065  1
  Ti  Ti132  1  0.20600508  0.59723997  0.23641716  1
  Ti  Ti133  1  0.41317521  0.21014875  -0.00635790  1
  Ti  Ti134  1  0.30942582  0.49891450  0.62877252  1
  Ti  Ti135  1  0.00027844  0.39539539  0.49759034  1
  Ti  Ti136  1  0.81560915  0.80415956  0.76188878  1
  Ti  Ti137  1  0.09432043  0.92161424  0.37359458  1
  Ti  Ti138  1  0.40211397  0.20127285  0.25872800  1
  Ti  Ti139  1  0.20588618  0.79241959  -0.00323365  1
  Ti  Ti140  1  0.10023391  0.28653358  0.62287021  1
  Ti  Ti141  1  0.69642606  0.50124132  0.62982514  1
  Ti  Ti142  1  0.79427004  0.39947848  0.74412301  1
  Ti  Ti143  1  0.58991556  -0.00096989  -0.00104538  1
  Ti  Ti144  1  0.70452654  0.29736930  0.62243560  1
  Ti  Ti145  1  0.70227495  0.68236276  0.62601755  1
  Ti  Ti146  1  0.60555149  0.78491880  0.50381376  1
  Ti  Ti147  1  0.90433726  0.50512217  0.11491286  1
  Ti  Ti148  1  0.60156177  0.40475199  0.74773627  1
  Ti  Ti149  1  0.92199907  0.09912265  0.38683343  1
  Ti  Ti150  1  0.88700479  0.90474475  0.62545754  1
  Ti  Ti151  1  0.20769187  0.20398063  0.00040349  1
  Ti  Ti152  1  0.60175241  0.19602938  -0.00396687  1
  Ti  Ti153  1  0.49902947  0.30584826  0.86786151  1
  Ti  Ti154  1  0.90168601  0.52368945  0.90278886  1
  Ti  Ti155  1  0.50022655  0.50808538  0.88230957  1
  Ti  Ti156  1  0.59529094  -0.00498781  0.74153758  1
  Ti  Ti157  1  -0.00311986  0.41136733  0.74920715  1
  Ti  Ti158  1  0.28826614  0.89037692  0.37192801  1
  Ti  Ti159  1  0.29691261  0.90280439  0.86472315  1
  Mo  Mo160  1  0.20910700  0.80383270  0.24608195  1
  Mo  Mo161  1  0.80132071  0.80954177  0.00379434  1
  Mo  Mo162  1  -0.00399648  0.20953567  0.49349277  1
  Mo  Mo163  1  0.30075622  0.50372422  0.12719551  1
  Mo  Mo164  1  0.90094265  0.49555084  0.36958163  1
  Mo  Mo165  1  0.68548731  0.89739179  0.86487230  1
  Mo  Mo166  1  0.88393415  0.89000532  0.88142454  1
  Mo  Mo167  1  0.89344022  0.70491930  0.36141197  1
  Mo  Mo168  1  0.59932862  0.59509678  0.75620547  1
  Mo  Mo169  1  -0.00285800  0.41616869  0.00878058  1
  Mo  Mo170  1  0.20390382  0.20294973  0.74721340  1
  Mo  Mo171  1  0.79974590  0.78347986  0.25059384  1
  Mo  Mo172  1  0.09445402  0.90720017  0.12981143  1
  Mo  Mo173  1  0.01345376  0.61076289  0.01740535  1
  Mo  Mo174  1  0.09659867  0.09937301  0.62924587  1
  Mo  Mo175  1  0.88310525  0.10137047  0.87032441  1
  Mo  Mo176  1  0.00214258  0.00366114  0.49575503  1
  Mo  Mo177  1  0.70841700  0.49578261  0.13904839  1
  Mo  Mo178  1  0.50080319  0.29515066  0.12036881  1
  Mo  Mo179  1  0.59461089  0.78845596  0.24107392  1
  Mo  Mo180  1  0.20852910  0.40073348  0.00251945  1
  Mo  Mo181  1  0.80364231  0.40444768  0.23988684  1
  Mo  Mo182  1  0.29657933  0.30406202  0.62459912  1
  Mo  Mo183  1  0.80920862  0.60185158  0.01142578  1
  Mo  Mo184  1  0.89607869  0.90698624  0.36184152  1
  Mo  Mo185  1  0.10291591  0.69948455  0.62792661  1
  Mo  Mo186  1  0.39954080  0.20870991  0.49429853  1
  Mo  Mo187  1  0.37342108  -0.02731765  0.50087585  1
  Mo  Mo188  1  0.09534683  0.51124135  0.11970342  1
  Mo  Mo189  1  0.70075320  0.68549698  0.36210060  1
  Mo  Mo190  1  0.50072480  0.90408707  0.11510639  1
  Mo  Mo191  1  0.79913972  -0.00676263  0.26662659  1
  Mo  Mo192  1  0.49058805  0.29496630  0.38330379  1
  Mo  Mo193  1  0.39757345  -0.00459741  0.75224019  1
  Mo  Mo194  1  0.89357778  0.10750030  0.12852530  1
  Mo  Mo195  1  0.09967695  0.10062579  0.36898381  1
  Mo  Mo196  1  0.40603434  0.60402132  0.50182595  1
  Mo  Mo197  1  0.40943771  0.60239768  -0.00279279  1
  Mo  Mo198  1  -0.00615503  0.79667296  0.76168769  1
  Mo  Mo199  1  0.61722001  0.60476638  0.50143413  1
