# generated using pymatgen
data_HfZrTaTiMo
_symmetry_space_group_name_H-M   'P 1'
_cell_length_a   15.20541075
_cell_length_b   15.21044217
_cell_length_c   16.88388006
_cell_angle_alpha   89.94288805
_cell_angle_beta   90.00933553
_cell_angle_gamma   89.99531679
_symmetry_Int_Tables_number   1
_chemical_formula_structural   HfZrTaTiMo
_chemical_formula_sum   'Hf40 Zr40 Ta40 Ti40 Mo40'
_cell_volume   3904.91901293
_cell_formula_units_Z   40
loop_
 _symmetry_equiv_pos_site_id
 _symmetry_equiv_pos_as_xyz
  1  'x, y, z'
loop_
 _atom_site_type_symbol
 _atom_site_label
 _atom_site_symmetry_multiplicity
 _atom_site_fract_x
 _atom_site_fract_y
 _atom_site_fract_z
 _atom_site_occupancy
  Hf  Hf0  1  0.59343157  0.39842518  0.49044427  1
  Hf  Hf1  1  0.59858003  0.41422965  0.00210894  1
  Hf  Hf2  1  0.40404377  0.00027090  0.26274318  1
  Hf  Hf3  1  0.49572637  0.89055505  0.14368338  1
  Hf  Hf4  1  0.00208654  0.60085681  0.76032952  1
  Hf  Hf5  1  0.30023389  0.29572571  0.87957782  1
  Hf  Hf6  1  0.41721035  0.80298254  -0.00244204  1
  Hf  Hf7  1  0.90165881  0.90898627  0.63290197  1
  Hf  Hf8  1  0.68013274  0.91554575  0.36227634  1
  Hf  Hf9  1  0.30136502  0.30110709  0.12145902  1
  Hf  Hf10  1  -0.00527629  0.19397308  -0.00584529  1
  Hf  Hf11  1  0.50813659  0.91057124  0.63199384  1
  Hf  Hf12  1  0.29595238  0.51139883  0.62067826  1
  Hf  Hf13  1  0.89970692  0.50225521  0.12656002  1
  Hf  Hf14  1  0.80228817  0.79163496  0.01667626  1
  Hf  Hf15  1  0.77019377  0.80245678  0.73715619  1
  Hf  Hf16  1  0.02421916  0.80604370  0.73924790  1
  Hf  Hf17  1  0.90067304  0.49168558  0.62133543  1
  Hf  Hf18  1  -0.01469329  0.78080840  0.25170447  1
  Hf  Hf19  1  0.50755482  0.50697005  0.13867214  1
  Hf  Hf20  1  0.80132124  0.40161672  -0.00377250  1
  Hf  Hf21  1  0.00152649  -0.01374202  0.25685646  1
  Hf  Hf22  1  -0.00389246  -0.00840462  0.49750647  1
  Hf  Hf23  1  0.19933435  0.40407185  0.25374510  1
  Hf  Hf24  1  0.01592403  -0.01868653  0.00302524  1
  Hf  Hf25  1  0.77911039  0.19613605  0.73787743  1
  Hf  Hf26  1  0.38363348  -0.00434521  -0.00133543  1
  Hf  Hf27  1  0.29544923  0.50972143  0.11967239  1
  Hf  Hf28  1  -0.00782459  0.20087865  0.74554392  1
  Hf  Hf29  1  0.66656719  0.70661899  0.88835433  1
  Hf  Hf30  1  0.90497691  0.50731836  0.37492520  1
  Hf  Hf31  1  0.00809794  0.59464568  0.50153318  1
  Hf  Hf32  1  0.40306149  0.81328346  0.49152896  1
  Hf  Hf33  1  0.49441728  0.51309619  0.86868000  1
  Hf  Hf34  1  0.29531126  0.71066486  0.36254445  1
  Hf  Hf35  1  0.20440194  0.40941411  0.49791968  1
  Hf  Hf36  1  0.91741610  0.89870881  0.86281837  1
  Hf  Hf37  1  0.20658698  0.81842558  0.00857818  1
  Hf  Hf38  1  0.11380607  0.07769471  0.13089638  1
  Hf  Hf39  1  -0.00043326  0.39636938  0.25048527  1
  Zr  Zr40  1  0.40088626  0.40937001  0.26661908  1
  Zr  Zr41  1  0.62760695  0.00701090  0.75108026  1
  Zr  Zr42  1  0.10376465  0.29932494  0.11677072  1
  Zr  Zr43  1  0.79603867  0.39835257  0.49168217  1
  Zr  Zr44  1  0.09572126  0.09004324  0.85992691  1
  Zr  Zr45  1  0.71404366  0.90657716  0.88545752  1
  Zr  Zr46  1  -0.00352642  0.40593605  0.76392439  1
  Zr  Zr47  1  0.29700750  0.69686464  0.88156125  1
  Zr  Zr48  1  0.09750951  0.69416966  0.37707796  1
  Zr  Zr49  1  0.21686260  0.20340522  0.73566870  1
  Zr  Zr50  1  0.57957081  0.20538941  0.72588806  1
  Zr  Zr51  1  0.50848187  0.71484118  0.36380229  1
  Zr  Zr52  1  0.00036774  0.40284816  -0.01247665  1
  Zr  Zr53  1  0.21711775  0.19348484  0.52210468  1
  Zr  Zr54  1  0.50299920  0.10080183  0.87712121  1
  Zr  Zr55  1  0.70402930  0.30731907  0.13256679  1
  Zr  Zr56  1  0.87821992  0.09314655  0.86969166  1
  Zr  Zr57  1  0.30322156  0.10768857  0.37647441  1
  Zr  Zr58  1  0.60428596  0.40333964  0.73672000  1
  Zr  Zr59  1  0.10441567  0.09310491  0.38494953  1
  Zr  Zr60  1  0.20449654  0.18186596  -0.00301452  1
  Zr  Zr61  1  0.09866763  0.08023830  0.62722040  1
  Zr  Zr62  1  0.50239417  0.28302983  0.37988212  1
  Zr  Zr63  1  0.09109394  0.70163798  0.10878719  1
  Zr  Zr64  1  0.88455130  0.88282584  0.37728285  1
  Zr  Zr65  1  0.79097189  0.59017102  0.74872265  1
  Zr  Zr66  1  0.59476746  0.61927559  0.73825386  1
  Zr  Zr67  1  0.49674758  0.30459552  0.87408383  1
  Zr  Zr68  1  0.50473642  0.30376068  0.13542025  1
  Zr  Zr69  1  0.10564426  0.29189758  0.38232311  1
  Zr  Zr70  1  0.88156136  0.09786987  0.38293938  1
  Zr  Zr71  1  0.80269428  0.20026412  0.24365679  1
  Zr  Zr72  1  0.49866679  0.09827746  0.12561812  1
  Zr  Zr73  1  0.48737213  0.70311677  0.61389151  1
  Zr  Zr74  1  0.88447522  0.70144186  0.87270829  1
  Zr  Zr75  1  0.69845510  0.28930438  0.87587449  1
  Zr  Zr76  1  0.89854685  0.69603674  0.62854478  1
  Zr  Zr77  1  0.49065168  0.49631194  0.61698088  1
  Zr  Zr78  1  0.00280993  0.19378671  0.24742732  1
  Zr  Zr79  1  0.40994580  0.60572608  0.00673742  1
  Ta  Ta80  1  0.11807382  0.68685129  0.62007598  1
  Ta  Ta81  1  0.10380801  0.50341855  0.10963802  1
  Ta  Ta82  1  0.69995618  0.09264907  0.11396231  1
  Ta  Ta83  1  0.40351600  0.01376832  0.49919516  1
  Ta  Ta84  1  0.69950069  0.50393081  0.87566775  1
  Ta  Ta85  1  0.71708920  0.71385255  0.37787726  1
  Ta  Ta86  1  0.20644459  -0.02021676  0.74207398  1
  Ta  Ta87  1  0.59496843  -0.01426011  0.00307227  1
  Ta  Ta88  1  0.90965595  0.89043846  0.12618563  1
  Ta  Ta89  1  0.09613274  0.70706443  0.88968792  1
  Ta  Ta90  1  0.30371729  0.90064685  0.62110918  1
  Ta  Ta91  1  0.40114402  0.80228114  0.75330086  1
  Ta  Ta92  1  0.21340355  0.78675490  0.74263403  1
  Ta  Ta93  1  0.39733225  0.40201173  0.00109844  1
  Ta  Ta94  1  0.29934564  0.08723042  0.86484742  1
  Ta  Ta95  1  0.00217489  0.79538031  0.50784864  1
  Ta  Ta96  1  0.70026500  0.51152018  0.13828548  1
  Ta  Ta97  1  0.19484034  0.59457872  0.75747085  1
  Ta  Ta98  1  0.79386980  -0.00256157  0.23540649  1
  Ta  Ta99  1  0.00604132  0.59324573  0.24515660  1
  Ta  Ta100  1  0.10982193  0.30548870  0.87091660  1
  Ta  Ta101  1  0.69955439  0.50660887  0.61027702  1
  Ta  Ta102  1  0.10034720  0.31083227  0.62877182  1
  Ta  Ta103  1  0.60910366  0.40629942  0.27125206  1
  Ta  Ta104  1  0.61018500  0.81303105  0.49967409  1
  Ta  Ta105  1  0.38320375  0.38919005  0.74338396  1
  Ta  Ta106  1  0.20362225  0.79542693  0.50684830  1
  Ta  Ta107  1  0.60311199  0.60746059  0.48990308  1
  Ta  Ta108  1  0.00303112  0.39270850  0.50057209  1
  Ta  Ta109  1  0.40106991  0.20244932  0.25368714  1
  Ta  Ta110  1  0.50995385  0.88937215  0.86526842  1
  Ta  Ta111  1  0.77234110  0.00095366  0.50798767  1
  Ta  Ta112  1  0.81001413  0.61358081  0.25169396  1
  Ta  Ta113  1  0.89039065  0.09932575  0.62324924  1
  Ta  Ta114  1  0.60308576  0.19846702  0.00507331  1
  Ta  Ta115  1  0.90177834  0.29641917  0.38244284  1
  Ta  Ta116  1  0.10891077  0.89199054  0.38271461  1
  Ta  Ta117  1  0.60335467  0.18478618  0.51485366  1
  Ta  Ta118  1  0.10198333  0.49737324  0.62913160  1
  Ta  Ta119  1  0.19736131  0.60343448  0.24282554  1
  Ti  Ti120  1  0.70527351  0.28169410  0.37402057  1
  Ti  Ti121  1  0.10640615  0.50702872  0.88846113  1
  Ti  Ti122  1  0.79911591  0.40560069  0.26189378  1
  Ti  Ti123  1  0.30030427  0.51167174  0.37622909  1
  Ti  Ti124  1  0.79933333  0.61060127  0.49788939  1
  Ti  Ti125  1  0.29054610  0.49113031  0.87954659  1
  Ti  Ti126  1  -0.01753129  0.60594082  -0.00740443  1
  Ti  Ti127  1  0.70190906  0.51202699  0.37632050  1
  Ti  Ti128  1  0.31007681  0.71472841  0.13773190  1
  Ti  Ti129  1  0.38643655  0.60623257  0.75041324  1
  Ti  Ti130  1  -0.00429051  0.20202213  0.51116066  1
  Ti  Ti131  1  0.69033885  0.89348709  0.12810255  1
  Ti  Ti132  1  0.47198863  0.29509649  0.60685430  1
  Ti  Ti133  1  0.20563695  0.19716334  0.25056537  1
  Ti  Ti134  1  0.79269074  0.20156855  0.51080767  1
  Ti  Ti135  1  0.79919073  0.19625289  0.00654513  1
  Ti  Ti136  1  0.60632171  0.18457958  0.25069857  1
  Ti  Ti137  1  0.40237529  0.00936032  0.74699516  1
  Ti  Ti138  1  0.79912434  0.80300265  0.51202122  1
  Ti  Ti139  1  0.61401486  0.60822440  0.26129736  1
  Ti  Ti140  1  0.89589742  0.29991265  0.87180490  1
  Ti  Ti141  1  0.28725100  0.91352160  0.14107229  1
  Ti  Ti142  1  0.90415189  0.09386129  0.12329224  1
  Ti  Ti143  1  0.40171942  0.60823994  0.25295869  1
  Ti  Ti144  1  0.51797357  0.70210271  0.13866498  1
  Ti  Ti145  1  0.80549551  -0.00325600  0.01418278  1
  Ti  Ti146  1  0.52286983  0.08601344  0.37632191  1
  Ti  Ti147  1  0.12402913  0.89727668  0.87209990  1
  Ti  Ti148  1  0.78957038  0.79508304  0.23437247  1
  Ti  Ti149  1  0.40461700  0.19899570  0.00306220  1
  Ti  Ti150  1  0.18890514  0.81056301  0.24260582  1
  Ti  Ti151  1  0.78527204  0.59576439  0.00435999  1
  Ti  Ti152  1  0.89418864  0.30045574  0.62253819  1
  Ti  Ti153  1  0.79615488  0.39681345  0.74828104  1
  Ti  Ti154  1  0.39801680  0.59787719  0.48525097  1
  Ti  Ti155  1  0.29389486  0.90604873  0.37350686  1
  Ti  Ti156  1  0.30530310  0.30213487  0.38555757  1
  Ti  Ti157  1  0.10707597  0.50073458  0.37462353  1
  Ti  Ti158  1  0.90348420  0.29777349  0.12074220  1
  Ti  Ti159  1  0.30343839  0.10012105  0.13566019  1
  Mo  Mo160  1  0.88822659  0.50127198  0.87901485  1
  Mo  Mo161  1  0.09969851  0.89404479  0.13325767  1
  Mo  Mo162  1  0.49131237  0.90471906  0.36915580  1
  Mo  Mo163  1  0.50416491  0.51014863  0.37190769  1
  Mo  Mo164  1  0.69974481  0.89931144  0.62037916  1
  Mo  Mo165  1  0.69680762  0.09772789  0.61947963  1
  Mo  Mo166  1  0.40845462  0.20064087  0.49596789  1
  Mo  Mo167  1  0.10843681  0.88815316  0.61482637  1
  Mo  Mo168  1  -0.00296473  0.79927046  -0.00411700  1
  Mo  Mo169  1  0.69961843  0.09638152  0.90398392  1
  Mo  Mo170  1  0.89408587  0.69808766  0.38311138  1
  Mo  Mo171  1  0.30740820  0.90347194  0.86308076  1
  Mo  Mo172  1  0.60841264  0.00488138  0.24035595  1
  Mo  Mo173  1  0.69313852  0.69980327  0.60477534  1
  Mo  Mo174  1  0.20555355  0.40469623  -0.00457309  1
  Mo  Mo175  1  0.49131502  0.09890506  0.62247005  1
  Mo  Mo176  1  0.30309214  0.70025614  0.62501727  1
  Mo  Mo177  1  0.19484016  0.59891084  -0.00470108  1
  Mo  Mo178  1  0.49107669  0.70205369  0.87008181  1
  Mo  Mo179  1  0.80650060  0.00521818  0.74224674  1
  Mo  Mo180  1  0.20049054  -0.00204869  0.25710203  1
  Mo  Mo181  1  0.89164711  0.69022769  0.12182967  1
  Mo  Mo182  1  0.69323422  0.69371229  0.12789006  1
  Mo  Mo183  1  0.19724448  0.40744921  0.75099916  1
  Mo  Mo184  1  0.60769627  0.79911162  0.25058640  1
  Mo  Mo185  1  0.31816324  0.09425152  0.62814670  1
  Mo  Mo186  1  0.58985489  -0.00308392  0.50066273  1
  Mo  Mo187  1  0.60161064  0.60342555  0.00971861  1
  Mo  Mo188  1  0.00808145  0.00012886  0.74556735  1
  Mo  Mo189  1  0.59086598  0.80350820  0.74600516  1
  Mo  Mo190  1  0.70051885  0.31055560  0.61614847  1
  Mo  Mo191  1  0.21119417  -0.01814226  0.50578003  1
  Mo  Mo192  1  0.39507888  0.19988701  0.74522788  1
  Mo  Mo193  1  0.20848522  -0.00389280  -0.00353320  1
  Mo  Mo194  1  0.38856934  0.80048451  0.25087666  1
  Mo  Mo195  1  0.69665971  0.10941187  0.37775861  1
  Mo  Mo196  1  0.30161238  0.31241515  0.61885265  1
  Mo  Mo197  1  0.39673841  0.40596775  0.48352761  1
  Mo  Mo198  1  0.59468658  0.80013086  0.01040146  1
  Mo  Mo199  1  0.20667715  0.60288940  0.49590472  1
