# generated using pymatgen
data_HfZrTaTiMo
_symmetry_space_group_name_H-M   'P 1'
_cell_length_a   15.21382085
_cell_length_b   15.22276457
_cell_length_c   16.85692879
_cell_angle_alpha   89.99001662
_cell_angle_beta   89.92322283
_cell_angle_gamma   90.04177892
_symmetry_Int_Tables_number   1
_chemical_formula_structural   HfZrTaTiMo
_chemical_formula_sum   'Hf40 Zr40 Ta40 Ti40 Mo40'
_cell_volume   3903.99964072
_cell_formula_units_Z   40
loop_
 _symmetry_equiv_pos_site_id
 _symmetry_equiv_pos_as_xyz
  1  'x, y, z'
loop_
 _atom_site_type_symbol
 _atom_site_label
 _atom_site_symmetry_multiplicity
 _atom_site_fract_x
 _atom_site_fract_y
 _atom_site_fract_z
 _atom_site_occupancy
  Hf  Hf0  1  0.40860596  0.40088350  0.00510283  1
  Hf  Hf1  1  0.20941051  0.39719407  0.25897026  1
  Hf  Hf2  1  0.70298159  0.29402830  0.87105088  1
  Hf  Hf3  1  0.58938480  0.58556339  0.26017668  1
  Hf  Hf4  1  0.60142428  0.79978415  0.48406076  1
  Hf  Hf5  1  0.78794560  0.60512571  0.73515403  1
  Hf  Hf6  1  0.30580300  0.92873350  0.87432126  1
  Hf  Hf7  1  0.57293762  0.58703791  0.76258683  1
  Hf  Hf8  1  0.70087873  0.31354555  0.38841324  1
  Hf  Hf9  1  0.38991997  0.18991250  -0.00341708  1
  Hf  Hf10  1  0.91048111  0.09192384  0.86810490  1
  Hf  Hf11  1  0.60744687  -0.01271759  0.74674173  1
  Hf  Hf12  1  0.59184145  0.19673998  -0.00357488  1
  Hf  Hf13  1  0.91039343  0.90951282  0.13408939  1
  Hf  Hf14  1  0.00526791  0.39511619  0.48021474  1
  Hf  Hf15  1  0.58857762  0.59332148  -0.01128443  1
  Hf  Hf16  1  0.00496611  0.79627866  0.24962842  1
  Hf  Hf17  1  0.50458494  0.31219829  0.62299452  1
  Hf  Hf18  1  0.71971500  0.29893201  0.12876724  1
  Hf  Hf19  1  0.21222029  0.60045985  0.24680493  1
  Hf  Hf20  1  0.49336974  0.11403934  0.36976342  1
  Hf  Hf21  1  0.80124903  0.78932591  0.00123106  1
  Hf  Hf22  1  0.19487603  0.82254074  0.74683713  1
  Hf  Hf23  1  -0.00158317  0.59993799  0.49724607  1
  Hf  Hf24  1  0.19257202  0.20316386  0.00240311  1
  Hf  Hf25  1  0.81608808  0.80647602  0.73786966  1
  Hf  Hf26  1  0.50244363  0.10992957  0.62565548  1
  Hf  Hf27  1  0.69425278  0.68662573  0.12994078  1
  Hf  Hf28  1  0.00963763  0.19304759  0.47950250  1
  Hf  Hf29  1  0.70309233  0.49946903  0.86879040  1
  Hf  Hf30  1  0.90126235  0.90035866  0.37042025  1
  Hf  Hf31  1  0.38067310  0.80093125  0.26020756  1
  Hf  Hf32  1  0.41750212  0.79683804  0.76193442  1
  Hf  Hf33  1  0.48515066  0.91257528  0.37901618  1
  Hf  Hf34  1  0.50989273  0.32107917  0.14681655  1
  Hf  Hf35  1  0.80005657  0.18543019  0.74593825  1
  Hf  Hf36  1  0.51077430  0.88757478  0.61872061  1
  Hf  Hf37  1  0.50440333  0.50035714  0.39647521  1
  Hf  Hf38  1  0.48426439  0.09191240  0.86376683  1
  Hf  Hf39  1  0.91438410  0.28621715  0.63055906  1
  Zr  Zr40  1  0.49946388  0.68465621  0.61873880  1
  Zr  Zr41  1  0.20952592  0.19322327  0.25978302  1
  Zr  Zr42  1  0.61804602  0.20250407  0.25406316  1
  Zr  Zr43  1  0.88928337  0.68947728  0.87105852  1
  Zr  Zr44  1  0.67382970  0.49317297  0.61081615  1
  Zr  Zr45  1  0.29995095  0.70701389  0.62791828  1
  Zr  Zr46  1  0.48540779  0.69255697  0.12891528  1
  Zr  Zr47  1  0.80847916  0.19703607  0.49781298  1
  Zr  Zr48  1  0.19667095  0.59871735  0.74126655  1
  Zr  Zr49  1  0.80403055  -0.00431298  -0.00104734  1
  Zr  Zr50  1  0.68868895  0.89754932  0.12196309  1
  Zr  Zr51  1  0.11258457  0.30228994  0.62578286  1
  Zr  Zr52  1  0.10151870  0.49286144  0.86672525  1
  Zr  Zr53  1  0.59612302  0.79429905  -0.01904356  1
  Zr  Zr54  1  0.09641633  0.09411398  0.13681961  1
  Zr  Zr55  1  0.79440984  0.01234318  0.25098822  1
  Zr  Zr56  1  0.10738133  0.89951808  0.38468048  1
  Zr  Zr57  1  0.58898435  0.79332475  0.26801172  1
  Zr  Zr58  1  0.69189491  0.71172258  0.61856788  1
  Zr  Zr59  1  -0.00200206  0.40267694  0.27268005  1
  Zr  Zr60  1  0.18569695  0.01823778  0.73945300  1
  Zr  Zr61  1  0.40086081  0.81148057  -0.01170585  1
  Zr  Zr62  1  0.48483697  0.10838306  0.13928572  1
  Zr  Zr63  1  0.60596467  0.39676563  -0.00355734  1
  Zr  Zr64  1  0.39275386  0.00335179  0.51768626  1
  Zr  Zr65  1  0.29372919  0.70097054  0.87443468  1
  Zr  Zr66  1  0.00388694  0.79977128  0.01078010  1
  Zr  Zr67  1  0.90149634  0.48832932  0.62094772  1
  Zr  Zr68  1  0.01180728  0.39259216  -0.00204777  1
  Zr  Zr69  1  0.00265072  0.59857793  0.26017868  1
  Zr  Zr70  1  0.79144845  0.39358028  0.74032676  1
  Zr  Zr71  1  -0.00733564  0.59004117  0.00146062  1
  Zr  Zr72  1  0.89979757  0.11436337  0.13253845  1
  Zr  Zr73  1  0.79116751  0.79363943  0.25381476  1
  Zr  Zr74  1  0.38783312  0.00151453  0.72730617  1
  Zr  Zr75  1  0.30085062  0.30988288  0.87297737  1
  Zr  Zr76  1  0.59751841  -0.00428692  0.25396798  1
  Zr  Zr77  1  0.08954932  0.71027736  0.86922373  1
  Zr  Zr78  1  0.29809743  0.08849263  0.38193397  1
  Zr  Zr79  1  0.80592571  0.20145796  -0.00746044  1
  Ta  Ta80  1  0.91347070  0.30578983  0.13416206  1
  Ta  Ta81  1  0.08763682  0.71085990  0.62699058  1
  Ta  Ta82  1  0.58186207  -0.00510578  -0.00404662  1
  Ta  Ta83  1  0.89519788  0.69531873  0.37931243  1
  Ta  Ta84  1  0.19282541  0.60487091  0.50990890  1
  Ta  Ta85  1  0.39823288  0.21555961  0.74951077  1
  Ta  Ta86  1  0.79157671  0.58810456  0.00261726  1
  Ta  Ta87  1  0.89635237  0.07634480  0.62449566  1
  Ta  Ta88  1  0.00208350  0.20013497  -0.00581173  1
  Ta  Ta89  1  0.72077482  0.91581214  0.60941287  1
  Ta  Ta90  1  0.30595780  0.50427929  0.87453426  1
  Ta  Ta91  1  0.47381724  0.90793992  0.13108255  1
  Ta  Ta92  1  0.02111586  0.00223798  -0.00706733  1
  Ta  Ta93  1  0.10051291  0.29943673  0.13405798  1
  Ta  Ta94  1  0.69391637  0.49095070  0.13014133  1
  Ta  Ta95  1  0.10370888  0.49404542  0.12837345  1
  Ta  Ta96  1  0.40553418  0.42672004  0.25624348  1
  Ta  Ta97  1  0.21742278  0.00923647  0.00752359  1
  Ta  Ta98  1  -0.00908593  0.60339183  0.73528059  1
  Ta  Ta99  1  0.91361091  0.30083737  0.85768092  1
  Ta  Ta100  1  0.39270894  0.79382395  0.49361992  1
  Ta  Ta101  1  0.29119515  0.70989764  0.11502450  1
  Ta  Ta102  1  0.91915297  0.89196927  0.87328229  1
  Ta  Ta103  1  0.70014271  0.10168571  0.61793485  1
  Ta  Ta104  1  0.81607095  0.40263134  -0.00417398  1
  Ta  Ta105  1  0.60121137  0.20126936  0.75105709  1
  Ta  Ta106  1  0.49800424  0.30969029  0.36894183  1
  Ta  Ta107  1  0.79826142  0.60423857  0.50447476  1
  Ta  Ta108  1  0.20036804  0.59593261  0.00662409  1
  Ta  Ta109  1  0.20299573  0.20948319  0.48453809  1
  Ta  Ta110  1  -0.00886762  -0.00340279  0.50050711  1
  Ta  Ta111  1  0.38489368  0.59501882  0.49309350  1
  Ta  Ta112  1  0.00666855  0.20384599  0.27280442  1
  Ta  Ta113  1  0.21265709  -0.01817326  0.24503023  1
  Ta  Ta114  1  0.31583537  0.50766103  0.12557474  1
  Ta  Ta115  1  0.19451971  0.79159304  0.24910867  1
  Ta  Ta116  1  0.27847073  0.69895424  0.38623630  1
  Ta  Ta117  1  0.89431636  0.68729274  0.13015903  1
  Ta  Ta118  1  0.69216955  0.08709913  0.87444102  1
  Ta  Ta119  1  0.89144862  0.49415276  0.13038792  1
  Ti  Ti120  1  0.11927911  0.51435678  0.38099717  1
  Ti  Ti121  1  0.79967610  0.59064450  0.25899965  1
  Ti  Ti122  1  0.10111583  0.49430634  0.62531241  1
  Ti  Ti123  1  0.70453404  0.50075050  0.39469146  1
  Ti  Ti124  1  0.21648030  0.40467900  0.48706655  1
  Ti  Ti125  1  0.69904683  0.68807812  0.38279673  1
  Ti  Ti126  1  0.81314925  0.80419231  0.50276691  1
  Ti  Ti127  1  0.00032568  -0.02122090  0.74301653  1
  Ti  Ti128  1  0.80407444  -0.00675226  0.75138968  1
  Ti  Ti129  1  0.20632551  0.20002680  0.75326698  1
  Ti  Ti130  1  0.60463743  0.00772510  0.49886340  1
  Ti  Ti131  1  0.30628200  0.30973118  0.62418161  1
  Ti  Ti132  1  0.30206244  0.49687723  0.62402175  1
  Ti  Ti133  1  0.81405060  0.21389975  0.26695597  1
  Ti  Ti134  1  0.70021760  0.29832641  0.61387684  1
  Ti  Ti135  1  0.48494828  0.49633386  0.61201900  1
  Ti  Ti136  1  0.71195081  0.89591560  0.87616163  1
  Ti  Ti137  1  0.20931321  0.40252381  0.01276405  1
  Ti  Ti138  1  0.09290463  0.10573520  0.61395073  1
  Ti  Ti139  1  0.11180607  0.89684035  0.12647213  1
  Ti  Ti140  1  0.79811422  0.40565799  0.26066775  1
  Ti  Ti141  1  0.09974125  0.69429115  0.12049378  1
  Ti  Ti142  1  0.90376582  0.09195350  0.36856210  1
  Ti  Ti143  1  0.30906237  0.29383151  0.13502422  1
  Ti  Ti144  1  0.28756835  0.11827819  0.61390506  1
  Ti  Ti145  1  0.28952457  0.89641062  0.39289549  1
  Ti  Ti146  1  0.09811981  0.29345313  0.86237344  1
  Ti  Ti147  1  0.70738098  0.90847595  0.38627149  1
  Ti  Ti148  1  0.10170993  0.90516632  0.60849216  1
  Ti  Ti149  1  0.90299723  0.49188070  0.85938866  1
  Ti  Ti150  1  0.61399784  0.78714748  0.77131926  1
  Ti  Ti151  1  0.59546709  0.20322647  0.49690960  1
  Ti  Ti152  1  0.20927644  0.39973116  0.74627800  1
  Ti  Ti153  1  0.69506951  0.09660881  0.11647898  1
  Ti  Ti154  1  0.70267155  0.10120763  0.38445243  1
  Ti  Ti155  1  0.39661084  0.21761471  0.49765019  1
  Ti  Ti156  1  0.19441589  0.81370872  -0.00616479  1
  Ti  Ti157  1  0.01345870  0.18182031  0.74937690  1
  Ti  Ti158  1  0.39820939  0.59984724  -0.00654985  1
  Ti  Ti159  1  0.00222005  0.79270920  0.49764416  1
  Mo  Mo160  1  0.19598564  0.80128344  0.51175171  1
  Mo  Mo161  1  0.30495932  0.09071402  0.13144508  1
  Mo  Mo162  1  0.51583105  0.90691501  0.86616782  1
  Mo  Mo163  1  0.29401708  0.89950142  0.61147372  1
  Mo  Mo164  1  0.87991325  0.50204291  0.38717925  1
  Mo  Mo165  1  0.40163935  0.41394432  0.74723998  1
  Mo  Mo166  1  0.10011832  0.91220099  0.87798806  1
  Mo  Mo167  1  0.38644135  0.00244596  0.25373225  1
  Mo  Mo168  1  0.39439135  0.21916825  0.25516512  1
  Mo  Mo169  1  0.10412478  0.10359300  0.87658406  1
  Mo  Mo170  1  0.70293733  0.69367013  0.87069312  1
  Mo  Mo171  1  0.79991290  -0.00032283  0.49184512  1
  Mo  Mo172  1  0.59655784  0.60621094  0.49106582  1
  Mo  Mo173  1  0.01332814  0.00257733  0.25577038  1
  Mo  Mo174  1  0.49994164  0.50878961  0.12869730  1
  Mo  Mo175  1  0.09705876  0.08809704  0.36862443  1
  Mo  Mo176  1  0.29397000  0.89583093  0.12057419  1
  Mo  Mo177  1  0.09914446  0.70168500  0.38079106  1
  Mo  Mo178  1  0.48602762  0.48637418  0.87391069  1
  Mo  Mo179  1  0.59704119  0.39320898  0.50041727  1
  Mo  Mo180  1  0.89717245  0.30132474  0.37424593  1
  Mo  Mo181  1  0.61170581  0.40833718  0.25760739  1
  Mo  Mo182  1  0.11282260  0.30173801  0.37835680  1
  Mo  Mo183  1  0.39239712  0.60765039  0.26103283  1
  Mo  Mo184  1  0.31599981  0.30271247  0.37450932  1
  Mo  Mo185  1  0.38956603  0.58936924  0.74960294  1
  Mo  Mo186  1  0.50114125  0.29652185  0.86393041  1
  Mo  Mo187  1  0.40272379  0.00431132  0.00053184  1
  Mo  Mo188  1  0.91167372  0.89387334  0.61474812  1
  Mo  Mo189  1  0.30027303  0.50370249  0.38086694  1
  Mo  Mo190  1  0.48538712  0.69976313  0.38211666  1
  Mo  Mo191  1  0.18627968  0.01400863  0.51173029  1
  Mo  Mo192  1  0.29032747  0.11211213  0.86835318  1
  Mo  Mo193  1  0.49325271  0.69068135  0.87344134  1
  Mo  Mo194  1  0.58553336  0.38544456  0.75614080  1
  Mo  Mo195  1  0.39095606  0.39554897  0.50029811  1
  Mo  Mo196  1  0.80502759  0.40166319  0.50597173  1
  Mo  Mo197  1  0.01000267  0.39781059  0.74926434  1
  Mo  Mo198  1  0.00438887  0.80400438  0.74246099  1
  Mo  Mo199  1  0.90134487  0.70050079  0.61551766  1
