# generated using pymatgen
data_HfZrTaTiMo
_symmetry_space_group_name_H-M   'P 1'
_cell_length_a   15.21080760
_cell_length_b   15.21366908
_cell_length_c   16.85116560
_cell_angle_alpha   89.99946263
_cell_angle_beta   90.07782905
_cell_angle_gamma   90.10715540
_symmetry_Int_Tables_number   1
_chemical_formula_structural   HfZrTaTiMo
_chemical_formula_sum   'Hf40 Zr40 Ta40 Ti40 Mo40'
_cell_volume   3899.55477386
_cell_formula_units_Z   40
loop_
 _symmetry_equiv_pos_site_id
 _symmetry_equiv_pos_as_xyz
  1  'x, y, z'
loop_
 _atom_site_type_symbol
 _atom_site_label
 _atom_site_symmetry_multiplicity
 _atom_site_fract_x
 _atom_site_fract_y
 _atom_site_fract_z
 _atom_site_occupancy
  Hf  Hf0  1  0.69804466  0.09913677  0.87173040  1
  Hf  Hf1  1  0.00968198  0.61203745  0.74362033  1
  Hf  Hf2  1  0.68155668  0.89805672  0.87736700  1
  Hf  Hf3  1  0.28764633  0.90798016  0.36131783  1
  Hf  Hf4  1  0.43378771  0.60226528  0.24558924  1
  Hf  Hf5  1  0.09206149  0.91654619  0.12690633  1
  Hf  Hf6  1  0.90546993  0.30909708  0.12063780  1
  Hf  Hf7  1  0.29772635  0.89709506  0.63154057  1
  Hf  Hf8  1  0.37740600  0.79741389  0.49809277  1
  Hf  Hf9  1  0.10146078  0.71122187  0.12190939  1
  Hf  Hf10  1  0.89037382  0.89780899  0.87699819  1
  Hf  Hf11  1  -0.00165010  0.00915318  0.50617558  1
  Hf  Hf12  1  0.59531137  0.37943616  0.73090202  1
  Hf  Hf13  1  0.59517623  0.00105150  0.24650742  1
  Hf  Hf14  1  0.79551588  0.79988517  0.49883713  1
  Hf  Hf15  1  0.90644950  0.09808884  0.13182402  1
  Hf  Hf16  1  0.89163488  0.90519948  0.62669537  1
  Hf  Hf17  1  0.00082276  0.21324761  0.51352077  1
  Hf  Hf18  1  0.59460397  0.80521708  0.50651986  1
  Hf  Hf19  1  0.77974662  0.79211313  0.24833867  1
  Hf  Hf20  1  0.00295311  0.21993494  0.25882737  1
  Hf  Hf21  1  0.28350355  0.68304961  0.87986185  1
  Hf  Hf22  1  0.19785026  0.38405083  0.26271025  1
  Hf  Hf23  1  0.00807157  0.00183341  0.74907802  1
  Hf  Hf24  1  0.21546398  0.21144802  0.75261520  1
  Hf  Hf25  1  0.32297960  0.49287491  0.37602505  1
  Hf  Hf26  1  0.52759263  0.50410112  0.40299206  1
  Hf  Hf27  1  0.11202909  0.51432606  0.61461261  1
  Hf  Hf28  1  0.08455015  0.70541079  0.89874159  1
  Hf  Hf29  1  -0.00590960  0.79968578  0.75397718  1
  Hf  Hf30  1  0.90169979  0.10758997  0.85582937  1
  Hf  Hf31  1  0.48971144  0.90135103  0.37592184  1
  Hf  Hf32  1  0.78986148  0.79884882  0.74751894  1
  Hf  Hf33  1  0.62574794  0.41638088  0.25726543  1
  Hf  Hf34  1  0.20751847  0.21849328  -0.01160912  1
  Hf  Hf35  1  0.20999863  -0.00122299  0.75978750  1
  Hf  Hf36  1  0.10034233  0.90639748  0.89309933  1
  Hf  Hf37  1  0.68485658  0.67867896  0.38278940  1
  Hf  Hf38  1  0.69828162  0.30561493  0.86925537  1
  Hf  Hf39  1  0.20799999  0.61184538  0.47919914  1
  Zr  Zr40  1  0.41223230  0.59726595  -0.00320913  1
  Zr  Zr41  1  0.48028820  0.88192542  0.11895279  1
  Zr  Zr42  1  0.49782377  0.90667299  0.62240707  1
  Zr  Zr43  1  0.69022237  0.90135620  0.37117632  1
  Zr  Zr44  1  0.49967875  0.08672052  0.10594986  1
  Zr  Zr45  1  0.32159455  0.11006704  0.63024713  1
  Zr  Zr46  1  0.50506118  0.48823278  0.86506828  1
  Zr  Zr47  1  0.51125651  0.30403752  0.37825290  1
  Zr  Zr48  1  0.89844881  0.47280226  0.39325532  1
  Zr  Zr49  1  0.11064613  0.10725268  0.37252829  1
  Zr  Zr50  1  0.79892488  -0.00607500  0.00699572  1
  Zr  Zr51  1  0.89870684  0.51223043  0.86563725  1
  Zr  Zr52  1  0.31394969  0.49820305  0.60970959  1
  Zr  Zr53  1  0.67876536  0.68261966  0.12419898  1
  Zr  Zr54  1  0.20018808  0.59461609  0.24759550  1
  Zr  Zr55  1  0.10262632  0.11132534  0.12360030  1
  Zr  Zr56  1  0.89163464  0.91118498  0.36168289  1
  Zr  Zr57  1  0.10646462  0.31155582  0.86434868  1
  Zr  Zr58  1  0.30587466  0.48658020  0.13551669  1
  Zr  Zr59  1  0.48308279  0.68919147  0.62512942  1
  Zr  Zr60  1  0.00280051  0.40391620  -0.00979958  1
  Zr  Zr61  1  0.39457836  0.38924040  -0.00498650  1
  Zr  Zr62  1  0.29543914  0.08497761  0.10496812  1
  Zr  Zr63  1  0.40062143  0.20067269  0.23898977  1
  Zr  Zr64  1  -0.00027789  0.60436260  0.49649554  1
  Zr  Zr65  1  0.53138041  0.49112488  0.11339554  1
  Zr  Zr66  1  0.79714869  0.20344175  0.51101278  1
  Zr  Zr67  1  0.27289713  0.69359861  0.63356799  1
  Zr  Zr68  1  -0.00141345  0.80395158  0.49051420  1
  Zr  Zr69  1  0.00427573  0.40853774  0.73448594  1
  Zr  Zr70  1  -0.01159152  0.60212348  0.01162929  1
  Zr  Zr71  1  0.39320009  0.79130280  0.76824588  1
  Zr  Zr72  1  0.09223169  0.90570067  0.35079563  1
  Zr  Zr73  1  0.59794982  0.21044145  0.23836165  1
  Zr  Zr74  1  0.80836668  0.20733414  -0.00433809  1
  Zr  Zr75  1  0.79433052  0.20972391  0.25436161  1
  Zr  Zr76  1  0.42100582  -0.00146844  0.76689614  1
  Zr  Zr77  1  0.20362281  0.00180125  0.50569951  1
  Zr  Zr78  1  -0.00698110  0.58558817  0.25107034  1
  Zr  Zr79  1  0.31287494  0.70918078  0.12748474  1
  Ta  Ta80  1  0.78584919  0.20636486  0.73543042  1
  Ta  Ta81  1  0.80327549  0.60002587  0.73183951  1
  Ta  Ta82  1  0.69308297  0.70438061  0.62594157  1
  Ta  Ta83  1  0.51101365  0.08732230  0.89519953  1
  Ta  Ta84  1  0.78682365  0.57990069  0.25750235  1
  Ta  Ta85  1  0.79371164  0.00796616  0.49988086  1
  Ta  Ta86  1  0.00234881  0.20491484  -0.00939290  1
  Ta  Ta87  1  0.10139970  0.49244533  0.38074105  1
  Ta  Ta88  1  0.60148834  0.20922375  0.00737305  1
  Ta  Ta89  1  0.79082442  0.58985415  0.51638484  1
  Ta  Ta90  1  0.21693481  0.41789654  0.74714448  1
  Ta  Ta91  1  0.88964646  0.69359295  0.36720135  1
  Ta  Ta92  1  0.30115809  0.70819278  0.35448485  1
  Ta  Ta93  1  0.52398418  0.10961758  0.63138082  1
  Ta  Ta94  1  0.11904056  0.51363656  0.87436934  1
  Ta  Ta95  1  0.79185748  0.78916621  0.00544096  1
  Ta  Ta96  1  0.79360234  0.41385513  -0.00979125  1
  Ta  Ta97  1  0.57419905  0.78183209  0.25006041  1
  Ta  Ta98  1  0.10160974  0.89331493  0.62773018  1
  Ta  Ta99  1  -0.01201683  0.79655919  0.24158351  1
  Ta  Ta100  1  0.50736108  0.49184786  0.61143457  1
  Ta  Ta101  1  0.89760696  0.10231924  0.64019449  1
  Ta  Ta102  1  0.48930312  0.69571602  0.38998364  1
  Ta  Ta103  1  0.10321141  0.10795762  0.87499089  1
  Ta  Ta104  1  0.20171028  0.58415564  0.01295226  1
  Ta  Ta105  1  0.60201908  0.01769580  0.49741615  1
  Ta  Ta106  1  0.39166561  0.00729831  0.25231346  1
  Ta  Ta107  1  0.88425631  0.69489925  0.13508906  1
  Ta  Ta108  1  0.59871915  0.21246551  0.50457465  1
  Ta  Ta109  1  0.70078528  0.10153176  0.11764962  1
  Ta  Ta110  1  0.69781142  0.32014272  0.11419105  1
  Ta  Ta111  1  0.69428433  0.11221635  0.37685911  1
  Ta  Ta112  1  0.30393569  0.28373098  0.38059263  1
  Ta  Ta113  1  0.89844686  0.30283991  0.85160643  1
  Ta  Ta114  1  0.10745516  0.30796448  0.12115366  1
  Ta  Ta115  1  0.20142217  0.39337257  0.49366019  1
  Ta  Ta116  1  0.30748359  0.10197854  0.88480495  1
  Ta  Ta117  1  0.90062818  0.70021534  0.61996085  1
  Ta  Ta118  1  0.21354026  0.20428417  0.50738695  1
  Ta  Ta119  1  0.18477780  0.79575906  0.76121067  1
  Ti  Ti120  1  0.08822525  0.30902922  0.38889541  1
  Ti  Ti121  1  0.79926749  0.40364172  0.72624895  1
  Ti  Ti122  1  0.41835416  0.38993166  0.24656179  1
  Ti  Ti123  1  0.28324461  0.89838378  0.14860247  1
  Ti  Ti124  1  0.21651564  0.81705746  0.00201350  1
  Ti  Ti125  1  0.38700682  0.57983888  0.75690239  1
  Ti  Ti126  1  0.40726119  0.37436825  0.50588193  1
  Ti  Ti127  1  0.88719635  0.89950988  0.13699437  1
  Ti  Ti128  1  0.51590118  0.69349755  0.86627299  1
  Ti  Ti129  1  0.49424939  0.10735706  0.37594005  1
  Ti  Ti130  1  0.09593142  0.48854506  0.12882716  1
  Ti  Ti131  1  0.09592342  0.70350201  0.35719719  1
  Ti  Ti132  1  -0.02469911  0.80737282  0.01436526  1
  Ti  Ti133  1  0.69316924  0.91818608  0.63268105  1
  Ti  Ti134  1  0.89953589  0.10650563  0.37256452  1
  Ti  Ti135  1  0.50436955  0.28742201  0.87723673  1
  Ti  Ti136  1  0.68480809  0.89853500  0.12073412  1
  Ti  Ti137  1  0.40252618  0.01382107  0.49627196  1
  Ti  Ti138  1  0.58999368  0.80571710  0.74833930  1
  Ti  Ti139  1  0.21160092  0.19112081  0.25041796  1
  Ti  Ti140  1  0.18525567  0.80211572  0.49167088  1
  Ti  Ti141  1  0.38708499  -0.02443043  -0.01624210  1
  Ti  Ti142  1  0.39685193  0.38486192  0.74376125  1
  Ti  Ti143  1  0.79107398  0.00935933  0.24760879  1
  Ti  Ti144  1  0.29980071  0.29650624  0.12529063  1
  Ti  Ti145  1  0.60215766  0.59872701  0.73931498  1
  Ti  Ti146  1  -0.00342679  0.01344974  -0.00437794  1
  Ti  Ti147  1  0.89176399  0.49671342  0.12693530  1
  Ti  Ti148  1  0.81744950  0.39450227  0.25710769  1
  Ti  Ti149  1  0.70965852  0.69275255  0.86875106  1
  Ti  Ti150  1  0.11291483  0.30446177  0.62828437  1
  Ti  Ti151  1  0.10657625  0.10431843  0.63268568  1
  Ti  Ti152  1  0.40509360  0.20157321  -0.00185670  1
  Ti  Ti153  1  0.80123867  0.39204539  0.53017998  1
  Ti  Ti154  1  0.61618989  0.58712725  -0.01615775  1
  Ti  Ti155  1  0.70233902  0.50025359  0.85431067  1
  Ti  Ti156  1  0.41497058  0.20150657  0.76061450  1
  Ti  Ti157  1  0.40464354  0.79013193  -0.02105392  1
  Ti  Ti158  1  0.59394880  0.78900777  -0.00339610  1
  Ti  Ti159  1  0.79917568  0.60366380  -0.00311239  1
  Mo  Mo160  1  0.00774612  0.39567169  0.51978990  1
  Mo  Mo161  1  0.29501377  0.89312506  0.87681676  1
  Mo  Mo162  1  0.39880580  0.59970988  0.49403650  1
  Mo  Mo163  1  0.20020921  0.40736787  0.00275539  1
  Mo  Mo164  1  -0.01530750  0.00851213  0.24649913  1
  Mo  Mo165  1  0.29898907  0.49146843  0.87155066  1
  Mo  Mo166  1  0.39815109  0.80115497  0.25482436  1
  Mo  Mo167  1  0.30713816  0.10256128  0.37626663  1
  Mo  Mo168  1  0.19788267  0.60381976  0.75387944  1
  Mo  Mo169  1  0.60692432  0.59873257  0.25731798  1
  Mo  Mo170  1  0.50309303  0.30171432  0.11698570  1
  Mo  Mo171  1  0.68941942  0.28822991  0.62910997  1
  Mo  Mo172  1  0.19908543  0.01081175  0.24705157  1
  Mo  Mo173  1  0.90001651  0.29630553  0.38530715  1
  Mo  Mo174  1  0.19825806  0.00577147  -0.01050009  1
  Mo  Mo175  1  0.00524649  0.20429002  0.73823885  1
  Mo  Mo176  1  0.71634211  0.31765467  0.38708454  1
  Mo  Mo177  1  0.18926589  0.79831265  0.24543291  1
  Mo  Mo178  1  0.88471517  0.70490161  0.87855240  1
  Mo  Mo179  1  0.90157635  0.50209615  0.61636058  1
  Mo  Mo180  1  0.59974711  -0.00776405  0.00892462  1
  Mo  Mo181  1  0.69755413  0.50226562  0.63696738  1
  Mo  Mo182  1  0.58930817  0.18812675  0.75763228  1
  Mo  Mo183  1  0.40846587  0.18917860  0.49772226  1
  Mo  Mo184  1  0.60176700  -0.00422660  0.75261974  1
  Mo  Mo185  1  0.09730838  0.71371197  0.62074449  1
  Mo  Mo186  1  0.30007987  0.30253290  0.62051441  1
  Mo  Mo187  1  0.79608893  0.00110881  0.74740256  1
  Mo  Mo188  1  0.61603016  0.39382328  0.52172294  1
  Mo  Mo189  1  0.90421220  0.29823876  0.64328425  1
  Mo  Mo190  1  0.70199654  0.09091053  0.62920572  1
  Mo  Mo191  1  0.50234753  0.88854310  0.88603017  1
  Mo  Mo192  1  0.00581822  0.39921787  0.25139259  1
  Mo  Mo193  1  0.60336306  0.60183323  0.51996357  1
  Mo  Mo194  1  0.72283106  0.49871943  0.12015639  1
  Mo  Mo195  1  0.48334980  0.28880579  0.62309405  1
  Mo  Mo196  1  0.71218344  0.48860487  0.39288991  1
  Mo  Mo197  1  0.31578174  0.30216298  0.86939890  1
  Mo  Mo198  1  0.50162605  0.69680573  0.11268960  1
  Mo  Mo199  1  0.60831004  0.39868195  -0.01293774  1
