# generated using pymatgen
data_HfZrTaTiMo
_symmetry_space_group_name_H-M   'P 1'
_cell_length_a   15.20852131
_cell_length_b   15.20113691
_cell_length_c   16.84437873
_cell_angle_alpha   89.93781443
_cell_angle_beta   90.03069337
_cell_angle_gamma   90.07615068
_symmetry_Int_Tables_number   1
_chemical_formula_structural   HfZrTaTiMo
_chemical_formula_sum   'Hf40 Zr40 Ta40 Ti40 Mo40'
_cell_volume   3894.19197474
_cell_formula_units_Z   40
loop_
 _symmetry_equiv_pos_site_id
 _symmetry_equiv_pos_as_xyz
  1  'x, y, z'
loop_
 _atom_site_type_symbol
 _atom_site_label
 _atom_site_symmetry_multiplicity
 _atom_site_fract_x
 _atom_site_fract_y
 _atom_site_fract_z
 _atom_site_occupancy
  Hf  Hf0  1  0.40254120  -0.00152172  0.76007995  1
  Hf  Hf1  1  0.50562135  0.90800114  0.62028745  1
  Hf  Hf2  1  0.10047847  0.90317033  0.63185274  1
  Hf  Hf3  1  0.37682628  0.41522587  0.26587524  1
  Hf  Hf4  1  0.89815246  0.29426941  0.88898282  1
  Hf  Hf5  1  0.59286409  0.59330028  0.73766292  1
  Hf  Hf6  1  0.81150287  0.00099739  0.75765526  1
  Hf  Hf7  1  0.70044024  0.29010860  0.87896884  1
  Hf  Hf8  1  0.00573654  0.80042719  0.50117355  1
  Hf  Hf9  1  0.51197507  0.69050677  0.87283518  1
  Hf  Hf10  1  0.38408999  0.40535940  0.50201504  1
  Hf  Hf11  1  0.09232702  0.30425411  0.37344540  1
  Hf  Hf12  1  -0.00196589  0.19656890  0.49640379  1
  Hf  Hf13  1  0.51576005  0.89037516  0.14301494  1
  Hf  Hf14  1  -0.00611079  0.40207303  0.23900130  1
  Hf  Hf15  1  0.78422207  -0.02166137  0.00414306  1
  Hf  Hf16  1  0.39416235  0.59371957  0.00555350  1
  Hf  Hf17  1  0.40241570  0.79535460  0.74873171  1
  Hf  Hf18  1  0.70540663  0.69923762  0.36851932  1
  Hf  Hf19  1  -0.00465390  0.00109940  0.48881641  1
  Hf  Hf20  1  0.50154877  0.10642301  0.87976930  1
  Hf  Hf21  1  0.71294176  0.10395494  0.62261617  1
  Hf  Hf22  1  0.40128210  0.20082101  0.00504781  1
  Hf  Hf23  1  0.10351808  0.88922217  0.36510091  1
  Hf  Hf24  1  0.89771864  0.70083884  0.88041912  1
  Hf  Hf25  1  0.40735808  0.20640993  0.75081266  1
  Hf  Hf26  1  0.01163158  0.61157891  0.25028650  1
  Hf  Hf27  1  0.61032568  0.60314737  0.50899349  1
  Hf  Hf28  1  0.89265526  0.50222616  0.62186880  1
  Hf  Hf29  1  0.59817446  0.59958427  0.01240377  1
  Hf  Hf30  1  0.10673565  0.50450387  0.12169519  1
  Hf  Hf31  1  0.40438194  0.00755525  0.48381259  1
  Hf  Hf32  1  0.19979992  0.60481241  0.75493259  1
  Hf  Hf33  1  0.19421014  0.80608756  -0.00372126  1
  Hf  Hf34  1  0.61760721  0.80336013  -0.00059332  1
  Hf  Hf35  1  0.90313723  0.70240253  0.38289723  1
  Hf  Hf36  1  -0.01071563  0.19524795  0.24196928  1
  Hf  Hf37  1  0.61226177  0.19876585  0.48975070  1
  Hf  Hf38  1  0.49744037  0.09410444  0.13542497  1
  Hf  Hf39  1  0.40014933  0.81158611  0.49322008  1
  Zr  Zr40  1  0.80756341  0.58826893  0.24288641  1
  Zr  Zr41  1  0.59218189  0.39773987  0.75266735  1
  Zr  Zr42  1  0.38723829  0.61509847  0.50144725  1
  Zr  Zr43  1  0.61127081  0.20294428  0.73938932  1
  Zr  Zr44  1  0.30158483  0.32814636  0.12561679  1
  Zr  Zr45  1  0.61313236  0.20449771  0.26589819  1
  Zr  Zr46  1  0.09409903  0.30652988  0.87319536  1
  Zr  Zr47  1  0.21818416  0.59033713  0.25328622  1
  Zr  Zr48  1  0.20556076  0.00182524  -0.01022598  1
  Zr  Zr49  1  0.88179771  0.29189956  0.62273395  1
  Zr  Zr50  1  0.39873407  0.41113036  0.74564216  1
  Zr  Zr51  1  0.49865815  0.50775091  0.38048009  1
  Zr  Zr52  1  0.90175683  0.09192475  0.10877884  1
  Zr  Zr53  1  0.70568919  0.71330218  0.13386899  1
  Zr  Zr54  1  0.10218381  0.09710985  0.63285489  1
  Zr  Zr55  1  0.29976134  0.29769306  0.87583187  1
  Zr  Zr56  1  0.70123369  0.08859144  0.87741745  1
  Zr  Zr57  1  0.19745195  0.81182897  0.77026616  1
  Zr  Zr58  1  0.61442098  0.79584751  0.74359367  1
  Zr  Zr59  1  0.20428629  0.20139511  0.50466546  1
  Zr  Zr60  1  0.50285373  0.71045638  0.36909215  1
  Zr  Zr61  1  0.92069310  0.70197522  0.10740123  1
  Zr  Zr62  1  0.59574236  0.39999520  0.26149690  1
  Zr  Zr63  1  0.29985411  0.90594473  0.13166466  1
  Zr  Zr64  1  0.30878116  0.70176944  0.88102016  1
  Zr  Zr65  1  0.87459600  0.29895220  0.11564495  1
  Zr  Zr66  1  0.18992815  0.20834824  0.01692336  1
  Zr  Zr67  1  -0.01697473  0.19529650  0.74942376  1
  Zr  Zr68  1  0.48737851  0.48926225  0.13116139  1
  Zr  Zr69  1  0.58734389  0.39790750  -0.01009283  1
  Zr  Zr70  1  0.08917368  0.10357943  0.88245296  1
  Zr  Zr71  1  -0.00527551  -0.01732170  0.24582038  1
  Zr  Zr72  1  0.70328815  0.09904617  0.13776262  1
  Zr  Zr73  1  0.19487751  0.20908137  0.23400812  1
  Zr  Zr74  1  0.20331721  -0.00773745  0.49193020  1
  Zr  Zr75  1  0.31210945  0.10019398  0.62219307  1
  Zr  Zr76  1  0.89759350  0.69918079  0.62677819  1
  Zr  Zr77  1  0.89801200  0.49696898  0.38324986  1
  Zr  Zr78  1  0.10217620  0.69849252  0.63238475  1
  Zr  Zr79  1  0.28740671  0.30516134  0.37851584  1
  Ta  Ta80  1  0.70377224  0.48564946  0.12546670  1
  Ta  Ta81  1  0.20264580  0.41767831  -0.00686031  1
  Ta  Ta82  1  0.29867141  0.89669495  0.62772927  1
  Ta  Ta83  1  0.19317775  0.40102933  0.74385505  1
  Ta  Ta84  1  0.71280121  0.90207990  0.62430832  1
  Ta  Ta85  1  0.81843374  0.81089987  0.24643448  1
  Ta  Ta86  1  0.89616447  0.49858439  0.87895902  1
  Ta  Ta87  1  0.18740367  0.60686879  -0.00782175  1
  Ta  Ta88  1  0.60327206  -0.00298874  0.74678459  1
  Ta  Ta89  1  0.78728030  0.39243168  0.49706533  1
  Ta  Ta90  1  0.20986536  0.00498039  0.77227140  1
  Ta  Ta91  1  0.00768795  0.59213671  0.49802724  1
  Ta  Ta92  1  0.40051848  0.00198636  0.26121057  1
  Ta  Ta93  1  0.60871408  0.80831487  0.50236895  1
  Ta  Ta94  1  0.89931192  0.89912015  0.62656874  1
  Ta  Ta95  1  0.40488002  0.20789866  0.25412112  1
  Ta  Ta96  1  0.60417482  0.19677634  0.01057118  1
  Ta  Ta97  1  0.29952003  0.10311936  0.36202682  1
  Ta  Ta98  1  0.00299726  0.40231244  0.00509698  1
  Ta  Ta99  1  0.59647972  0.60439689  0.23688953  1
  Ta  Ta100  1  0.90022497  0.08608787  0.62189117  1
  Ta  Ta101  1  0.19815334  0.59668284  0.50290849  1
  Ta  Ta102  1  0.10515526  0.09697570  0.36139749  1
  Ta  Ta103  1  0.11204921  0.69342063  0.37942951  1
  Ta  Ta104  1  0.50745827  0.10108356  0.61539212  1
  Ta  Ta105  1  0.69880901  0.90046727  0.35853725  1
  Ta  Ta106  1  0.79395023  0.39459952  0.75445717  1
  Ta  Ta107  1  0.49647391  0.29491582  0.60696825  1
  Ta  Ta108  1  0.78961679  0.40718893  -0.00583915  1
  Ta  Ta109  1  0.79555280  0.60055071  0.75748075  1
  Ta  Ta110  1  0.59217003  -0.00581912  0.00564374  1
  Ta  Ta111  1  0.09130538  0.49882160  0.63225930  1
  Ta  Ta112  1  0.89084188  0.29556147  0.37300079  1
  Ta  Ta113  1  0.18726988  0.79188716  0.23592489  1
  Ta  Ta114  1  0.08995925  0.50862914  0.87053624  1
  Ta  Ta115  1  0.89780656  0.10038395  0.90214464  1
  Ta  Ta116  1  0.21140253  0.78993967  0.50026289  1
  Ta  Ta117  1  0.79162694  0.60303196  -0.00405811  1
  Ta  Ta118  1  0.90976905  0.90153975  0.88994910  1
  Ta  Ta119  1  0.20348699  0.20111698  0.74877640  1
  Ti  Ti120  1  0.18737841  0.40941433  0.51376726  1
  Ti  Ti121  1  0.89280541  0.90214806  0.37308906  1
  Ti  Ti122  1  0.09476880  0.30358997  0.63215566  1
  Ti  Ti123  1  0.00513233  -0.00826076  0.75914558  1
  Ti  Ti124  1  0.29369791  0.51428892  0.63151546  1
  Ti  Ti125  1  0.49363885  0.70251511  0.62131624  1
  Ti  Ti126  1  -0.00932982  0.40741713  0.74985398  1
  Ti  Ti127  1  0.61053151  -0.00232635  0.48950331  1
  Ti  Ti128  1  0.29700515  0.89457577  0.35841250  1
  Ti  Ti129  1  0.40115192  -0.00549234  -0.00656745  1
  Ti  Ti130  1  0.50955687  0.89885286  0.87682040  1
  Ti  Ti131  1  0.30269485  0.09964372  0.13864636  1
  Ti  Ti132  1  0.30136270  0.50399361  0.86607503  1
  Ti  Ti133  1  0.79593526  0.80509815  0.49769545  1
  Ti  Ti134  1  0.89815856  0.50335740  0.10875967  1
  Ti  Ti135  1  0.78816637  0.38368022  0.25461575  1
  Ti  Ti136  1  0.49187449  0.29795131  0.38804326  1
  Ti  Ti137  1  0.41274399  0.80295208  0.00543422  1
  Ti  Ti138  1  0.39465536  0.79161568  0.24822207  1
  Ti  Ti139  1  0.70236913  0.50066268  0.37772178  1
  Ti  Ti140  1  0.71301812  0.87858398  0.86582359  1
  Ti  Ti141  1  0.40162157  0.60814164  0.24487506  1
  Ti  Ti142  1  0.69330283  0.51061703  0.87231612  1
  Ti  Ti143  1  0.29933208  0.69825098  0.11824959  1
  Ti  Ti144  1  -0.00299192  0.39752245  0.50420049  1
  Ti  Ti145  1  0.50718049  0.29585875  0.13125643  1
  Ti  Ti146  1  0.90441753  0.89058329  0.11076194  1
  Ti  Ti147  1  0.60083499  0.39884441  0.49977186  1
  Ti  Ti148  1  0.39973772  0.40339898  -0.01550795  1
  Ti  Ti149  1  0.10665476  0.49397618  0.37539926  1
  Ti  Ti150  1  0.71253263  0.70173564  0.62116497  1
  Ti  Ti151  1  -0.00636350  0.79828047  0.76059130  1
  Ti  Ti152  1  0.10173142  0.07989364  0.12538505  1
  Ti  Ti153  1  0.29611198  0.30280095  0.62479979  1
  Ti  Ti154  1  0.70391649  0.49324284  0.62405113  1
  Ti  Ti155  1  0.80311340  0.18861891  0.48181388  1
  Ti  Ti156  1  0.79862440  -0.00092867  0.49063259  1
  Ti  Ti157  1  0.50555976  0.10008133  0.37002270  1
  Ti  Ti158  1  0.49498572  0.49879326  0.61552218  1
  Ti  Ti159  1  0.50842936  0.90144629  0.36139990  1
  Mo  Mo160  1  0.29702421  0.50717117  0.11514274  1
  Mo  Mo161  1  0.40981222  0.20004785  0.49115680  1
  Mo  Mo162  1  0.09015141  0.89042112  0.12559901  1
  Mo  Mo163  1  0.80356788  0.20035300  0.26302976  1
  Mo  Mo164  1  0.80071280  0.79755820  0.00019483  1
  Mo  Mo165  1  0.08824426  0.30415624  0.11644147  1
  Mo  Mo166  1  0.40057109  0.60093649  0.73674537  1
  Mo  Mo167  1  0.70371111  0.30735956  0.38324831  1
  Mo  Mo168  1  0.80551198  0.19966966  0.75091109  1
  Mo  Mo169  1  0.71116232  0.09075428  0.37069442  1
  Mo  Mo170  1  0.80735668  0.80479993  0.74708661  1
  Mo  Mo171  1  0.79584189  0.59685454  0.50135685  1
  Mo  Mo172  1  -0.00108740  0.79085025  0.25179374  1
  Mo  Mo173  1  0.09463531  0.90030057  0.87136594  1
  Mo  Mo174  1  -0.00695195  0.59082417  0.75549744  1
  Mo  Mo175  1  0.20359008  -0.00130101  0.25005513  1
  Mo  Mo176  1  0.69779405  0.30722246  0.61701429  1
  Mo  Mo177  1  0.29232921  0.71317016  0.36871694  1
  Mo  Mo178  1  0.69354686  0.30304872  0.12241187  1
  Mo  Mo179  1  0.49095622  0.70237710  0.12957287  1
  Mo  Mo180  1  0.00287678  0.59266825  -0.00573617  1
  Mo  Mo181  1  0.30216490  0.10431202  0.87516126  1
  Mo  Mo182  1  0.00090347  0.19953744  0.01687004  1
  Mo  Mo183  1  0.48959451  0.50544244  0.87345698  1
  Mo  Mo184  1  0.18442365  0.40483999  0.25099361  1
  Mo  Mo185  1  0.80293681  0.00234843  0.25356299  1
  Mo  Mo186  1  0.28335624  0.50912236  0.38779266  1
  Mo  Mo187  1  0.70582039  0.69118850  0.87284210  1
  Mo  Mo188  1  0.90140698  0.09588530  0.37077430  1
  Mo  Mo189  1  0.00721109  -0.01114915  0.00547024  1
  Mo  Mo190  1  0.71029105  0.90521647  0.14515997  1
  Mo  Mo191  1  0.50097072  0.29850993  0.88220467  1
  Mo  Mo192  1  0.31710114  0.90451022  0.88496420  1
  Mo  Mo193  1  0.30002118  0.70815248  0.62910196  1
  Mo  Mo194  1  0.00980717  0.79946451  -0.01025949  1
  Mo  Mo195  1  0.78950692  0.19759129  0.00208713  1
  Mo  Mo196  1  0.60471117  0.79592617  0.25216696  1
  Mo  Mo197  1  0.10955048  0.70438897  0.12024698  1
  Mo  Mo198  1  0.08966565  0.69911927  0.87265764  1
  Mo  Mo199  1  0.59867820  -0.00001785  0.26270370  1
