# generated using pymatgen
data_HfZrTaTiMo
_symmetry_space_group_name_H-M   'P 1'
_cell_length_a   15.21201443
_cell_length_b   15.20888407
_cell_length_c   16.84859458
_cell_angle_alpha   89.99028183
_cell_angle_beta   89.98696267
_cell_angle_gamma   89.92498165
_symmetry_Int_Tables_number   1
_chemical_formula_structural   HfZrTaTiMo
_chemical_formula_sum   'Hf40 Zr40 Ta40 Ti40 Mo40'
_cell_volume   3898.04966862
_cell_formula_units_Z   40
loop_
 _symmetry_equiv_pos_site_id
 _symmetry_equiv_pos_as_xyz
  1  'x, y, z'
loop_
 _atom_site_type_symbol
 _atom_site_label
 _atom_site_symmetry_multiplicity
 _atom_site_fract_x
 _atom_site_fract_y
 _atom_site_fract_z
 _atom_site_occupancy
  Hf  Hf0  1  0.00996442  0.79370636  -0.00446738  1
  Hf  Hf1  1  0.87068960  0.30988132  0.38141256  1
  Hf  Hf2  1  0.60859232  0.60153145  0.75317691  1
  Hf  Hf3  1  0.38790709  0.21312992  0.25222969  1
  Hf  Hf4  1  0.08629103  0.31198419  0.38263353  1
  Hf  Hf5  1  0.28509889  0.09727724  0.12111186  1
  Hf  Hf6  1  0.78104493  0.19464883  0.74852864  1
  Hf  Hf7  1  0.91564818  0.48812913  0.87670818  1
  Hf  Hf8  1  0.29638959  0.89878372  0.13815865  1
  Hf  Hf9  1  0.29578714  0.10595678  0.38755072  1
  Hf  Hf10  1  0.01032530  0.60238959  0.74966509  1
  Hf  Hf11  1  0.20549445  0.39835465  0.24607196  1
  Hf  Hf12  1  0.51722365  0.50288425  0.12489440  1
  Hf  Hf13  1  0.50904707  0.51093021  0.37925939  1
  Hf  Hf14  1  0.58432562  -0.01225592  0.25734763  1
  Hf  Hf15  1  0.89177869  0.09187598  0.62418073  1
  Hf  Hf16  1  0.40382765  0.39636590  -0.00442034  1
  Hf  Hf17  1  0.08518406  0.29894086  0.87872254  1
  Hf  Hf18  1  0.49517650  0.30709068  0.37922746  1
  Hf  Hf19  1  0.90196623  0.50396914  0.37795052  1
  Hf  Hf20  1  -0.00651306  0.19211844  0.01056787  1
  Hf  Hf21  1  0.40515124  0.62154386  0.76419554  1
  Hf  Hf22  1  0.48719161  0.10087036  0.13193797  1
  Hf  Hf23  1  0.71126456  0.49363318  0.88849025  1
  Hf  Hf24  1  0.59308361  0.80180563  0.74854743  1
  Hf  Hf25  1  0.28869314  0.89314343  0.86779433  1
  Hf  Hf26  1  0.40238030  0.20929486  0.51192300  1
  Hf  Hf27  1  0.58557907  -0.01020974  0.48825957  1
  Hf  Hf28  1  0.40421481  0.82301322  0.49724947  1
  Hf  Hf29  1  0.89761836  0.89579766  0.63204058  1
  Hf  Hf30  1  0.38193448  0.41358292  0.75429029  1
  Hf  Hf31  1  0.80299587  0.59390748  0.75037778  1
  Hf  Hf32  1  0.31157162  0.51006976  0.12814456  1
  Hf  Hf33  1  0.69085232  0.90927769  0.62155188  1
  Hf  Hf34  1  0.69718287  0.89355060  0.12663957  1
  Hf  Hf35  1  0.68672781  0.30030564  0.88683487  1
  Hf  Hf36  1  0.89892680  0.09992480  0.87644433  1
  Hf  Hf37  1  0.41404427  0.61623103  0.25376917  1
  Hf  Hf38  1  0.09237569  0.08478398  0.12893250  1
  Hf  Hf39  1  0.40231005  0.20017405  0.73718050  1
  Zr  Zr40  1  0.40989498  0.60436619  -0.01252447  1
  Zr  Zr41  1  0.91438486  0.70105913  0.62440713  1
  Zr  Zr42  1  0.02947646  0.58915595  0.49748785  1
  Zr  Zr43  1  0.48665336  0.51691616  0.61974111  1
  Zr  Zr44  1  0.21391096  0.62322225  0.00040108  1
  Zr  Zr45  1  0.20412621  0.59934755  0.24709570  1
  Zr  Zr46  1  0.20696040  -0.02295595  0.49789965  1
  Zr  Zr47  1  0.71034335  0.67782382  0.37282170  1
  Zr  Zr48  1  0.68421626  0.30051049  0.11192582  1
  Zr  Zr49  1  0.90793687  0.89813191  0.87338336  1
  Zr  Zr50  1  0.10283072  0.89251633  0.63087592  1
  Zr  Zr51  1  0.49294915  0.91589407  0.87834371  1
  Zr  Zr52  1  0.78754091  -0.00256214  0.75473678  1
  Zr  Zr53  1  0.69137722  0.09676830  0.13062419  1
  Zr  Zr54  1  0.12107358  0.50039998  0.86236598  1
  Zr  Zr55  1  0.19375527  0.19571736  0.74408829  1
  Zr  Zr56  1  0.79887561  0.79146529  0.00743128  1
  Zr  Zr57  1  0.00080649  0.40800181  0.23367748  1
  Zr  Zr58  1  0.91351870  0.48805722  0.61794805  1
  Zr  Zr59  1  0.88715833  0.29773274  0.88194323  1
  Zr  Zr60  1  -0.00775336  0.61027329  0.23858944  1
  Zr  Zr61  1  0.12326322  0.49018824  0.64372126  1
  Zr  Zr62  1  0.69335636  0.89478530  0.88504867  1
  Zr  Zr63  1  -0.01644905  0.20334281  0.24483983  1
  Zr  Zr64  1  0.88489492  0.09701639  0.36405734  1
  Zr  Zr65  1  0.19381163  0.41130263  0.00992411  1
  Zr  Zr66  1  0.19125897  0.20188414  0.25327588  1
  Zr  Zr67  1  0.59353769  0.39159053  0.73787562  1
  Zr  Zr68  1  0.28738343  0.29340534  0.87983781  1
  Zr  Zr69  1  0.28551414  0.31635463  0.61815939  1
  Zr  Zr70  1  0.10281619  0.10212530  0.60793455  1
  Zr  Zr71  1  0.01357673  0.79696377  0.49275435  1
  Zr  Zr72  1  0.81969593  0.59995374  0.01247610  1
  Zr  Zr73  1  0.09806522  0.09215236  0.37678015  1
  Zr  Zr74  1  0.88576663  0.29796980  0.61790367  1
  Zr  Zr75  1  -0.01458738  0.19488838  0.49282221  1
  Zr  Zr76  1  0.82179812  0.78466499  0.23746227  1
  Zr  Zr77  1  0.70499484  0.70379595  0.61536665  1
  Zr  Zr78  1  0.69874769  0.87964258  0.37130896  1
  Zr  Zr79  1  0.69143096  0.10863744  0.36685625  1
  Ta  Ta80  1  -0.00430581  -0.02437067  0.26246219  1
  Ta  Ta81  1  0.61018060  0.40447945  0.25463095  1
  Ta  Ta82  1  0.20428132  -0.00231867  0.74574540  1
  Ta  Ta83  1  0.49501034  0.28943015  0.87502262  1
  Ta  Ta84  1  0.61317592  0.61023813  -0.00596464  1
  Ta  Ta85  1  0.01182040  0.00918186  0.75501466  1
  Ta  Ta86  1  0.32648783  0.70391388  0.62234925  1
  Ta  Ta87  1  0.70694627  0.49245682  0.61526480  1
  Ta  Ta88  1  0.79800120  0.78803680  0.76038922  1
  Ta  Ta89  1  0.31442473  0.71144108  0.37521004  1
  Ta  Ta90  1  0.39011868  0.79766810  0.00258628  1
  Ta  Ta91  1  0.12097178  0.71472635  0.86157140  1
  Ta  Ta92  1  0.58709429  0.21035740  0.25440215  1
  Ta  Ta93  1  0.10501067  0.29190751  0.11607529  1
  Ta  Ta94  1  0.11315215  0.69645836  0.36943216  1
  Ta  Ta95  1  0.08529734  0.30622317  0.61490560  1
  Ta  Ta96  1  0.13456606  0.69217461  0.63667071  1
  Ta  Ta97  1  0.68175111  0.09951298  0.88787575  1
  Ta  Ta98  1  0.59199433  0.79671336  0.00826532  1
  Ta  Ta99  1  0.79544089  0.00015674  0.49606688  1
  Ta  Ta100  1  0.90898964  0.69298023  0.87255132  1
  Ta  Ta101  1  0.22693767  0.60116049  0.49635879  1
  Ta  Ta102  1  0.10085175  0.89800832  0.13553757  1
  Ta  Ta103  1  0.70586885  0.49263914  0.11299859  1
  Ta  Ta104  1  0.60160117  0.60169909  0.50477366  1
  Ta  Ta105  1  0.79773397  0.39559138  0.74631176  1
  Ta  Ta106  1  0.50963496  0.09609227  0.62017702  1
  Ta  Ta107  1  0.59444971  0.39265073  0.50943369  1
  Ta  Ta108  1  0.11048738  0.71186350  0.13113601  1
  Ta  Ta109  1  0.49654880  0.70307715  0.12335050  1
  Ta  Ta110  1  0.11164533  0.09244200  0.88515369  1
  Ta  Ta111  1  -0.01199994  -0.01649901  0.48433370  1
  Ta  Ta112  1  0.51107905  0.49214078  0.87694697  1
  Ta  Ta113  1  0.89078673  0.08718065  0.13302356  1
  Ta  Ta114  1  0.48381397  0.09502959  0.37206491  1
  Ta  Ta115  1  0.49046538  0.89720357  0.12631639  1
  Ta  Ta116  1  0.01889076  0.59881559  0.00881373  1
  Ta  Ta117  1  0.18782136  0.41560958  0.49151524  1
  Ta  Ta118  1  0.51483774  0.71605736  0.38191516  1
  Ta  Ta119  1  0.80404831  0.00112127  0.00462042  1
  Ti  Ti120  1  0.39300084  0.19155171  -0.00165982  1
  Ti  Ti121  1  0.00964643  0.80284966  0.75617287  1
  Ti  Ti122  1  0.29913608  0.29522523  0.11473975  1
  Ti  Ti123  1  0.30446208  0.09351671  0.87959574  1
  Ti  Ti124  1  0.39013732  -0.00307193  0.00105783  1
  Ti  Ti125  1  0.78138761  0.21251970  0.24489275  1
  Ti  Ti126  1  -0.00453375  0.20272149  0.74628526  1
  Ti  Ti127  1  0.40537158  0.40667440  0.25183802  1
  Ti  Ti128  1  0.59505644  0.19778228  0.49861867  1
  Ti  Ti129  1  0.79397872  0.58947833  0.23188516  1
  Ti  Ti130  1  0.80895125  0.59817448  0.50318222  1
  Ti  Ti131  1  0.80624723  0.80562115  0.49575183  1
  Ti  Ti132  1  0.59231896  0.01307681  0.75163016  1
  Ti  Ti133  1  0.90585830  0.70319297  0.37996694  1
  Ti  Ti134  1  0.59106464  0.00274752  0.00597178  1
  Ti  Ti135  1  0.19949675  0.81662560  0.00176840  1
  Ti  Ti136  1  0.00876674  -0.01018795  -0.00245154  1
  Ti  Ti137  1  0.48657804  0.90078852  0.63012749  1
  Ti  Ti138  1  0.59191163  0.19428252  0.74719693  1
  Ti  Ti139  1  0.79131092  0.19024023  0.00678206  1
  Ti  Ti140  1  0.91287958  0.89781780  0.12295732  1
  Ti  Ti141  1  0.20847372  0.78967843  0.49744953  1
  Ti  Ti142  1  0.50968425  0.71471162  0.88050882  1
  Ti  Ti143  1  0.57908318  0.19756899  -0.00039443  1
  Ti  Ti144  1  0.79927493  -0.01211367  0.24999651  1
  Ti  Ti145  1  0.77794158  0.19887240  0.50028800  1
  Ti  Ti146  1  -0.00675256  0.40597552  0.01922350  1
  Ti  Ti147  1  0.39876611  0.00473233  0.74667950  1
  Ti  Ti148  1  0.59760733  0.78045343  0.24147784  1
  Ti  Ti149  1  0.49400657  0.30669073  0.12648638  1
  Ti  Ti150  1  0.68679473  0.29085506  0.62042292  1
  Ti  Ti151  1  0.79678404  0.40274525  0.24172754  1
  Ti  Ti152  1  0.38894473  0.42315789  0.50399562  1
  Ti  Ti153  1  0.31176023  0.91127533  0.35735260  1
  Ti  Ti154  1  0.20377930  0.80179944  0.25841499  1
  Ti  Ti155  1  0.30435542  0.08503930  0.61217107  1
  Ti  Ti156  1  0.70609867  0.48269662  0.38722835  1
  Ti  Ti157  1  0.88581996  0.30137080  0.11900885  1
  Ti  Ti158  1  0.29143273  0.30849613  0.39123044  1
  Ti  Ti159  1  0.30255901  0.50535263  0.37160809  1
  Mo  Mo160  1  0.19712949  -0.00496188  -0.00235685  1
  Mo  Mo161  1  0.19852709  0.19167328  0.00119156  1
  Mo  Mo162  1  0.19833386  0.21275449  0.50054443  1
  Mo  Mo163  1  0.91589265  0.70503535  0.12071759  1
  Mo  Mo164  1  -0.00303487  0.38569204  0.74933782  1
  Mo  Mo165  1  0.31136811  0.50209385  0.87771654  1
  Mo  Mo166  1  0.10960452  0.50476634  0.37363306  1
  Mo  Mo167  1  0.60271469  0.79721893  0.50306193  1
  Mo  Mo168  1  0.70357508  0.69862921  0.87512120  1
  Mo  Mo169  1  0.01214276  0.79690965  0.25878394  1
  Mo  Mo170  1  0.10431999  0.50376526  0.11957441  1
  Mo  Mo171  1  0.78511711  0.40289468  0.50309066  1
  Mo  Mo172  1  0.49330388  0.89641507  0.36639604  1
  Mo  Mo173  1  0.68623705  0.30494316  0.37585889  1
  Mo  Mo174  1  0.19741105  0.39038206  0.75572983  1
  Mo  Mo175  1  0.61274037  0.59402536  0.24968321  1
  Mo  Mo176  1  0.40466205  0.61281580  0.48689950  1
  Mo  Mo177  1  0.11226087  0.88863085  0.36905911  1
  Mo  Mo178  1  0.22395547  0.59724007  0.75765058  1
  Mo  Mo179  1  0.59173621  0.40256727  -0.00329402  1
  Mo  Mo180  1  0.39285913  0.00781395  0.25064612  1
  Mo  Mo181  1  0.19259373  -0.00709071  0.26083599  1
  Mo  Mo182  1  0.30688768  0.70837309  0.87322147  1
  Mo  Mo183  1  0.30699755  0.71701091  0.13107991  1
  Mo  Mo184  1  0.40452990  0.81344757  0.74482903  1
  Mo  Mo185  1  0.49856805  0.30069889  0.61831814  1
  Mo  Mo186  1  -0.00335746  0.40314861  0.49476622  1
  Mo  Mo187  1  0.68786159  0.68542275  0.13081166  1
  Mo  Mo188  1  0.30256474  0.89706227  0.63669803  1
  Mo  Mo189  1  0.69073142  0.10178590  0.61615708  1
  Mo  Mo190  1  0.90070811  0.49621154  0.12263324  1
  Mo  Mo191  1  0.40242339  0.00743890  0.50432101  1
  Mo  Mo192  1  0.50866696  0.71286061  0.61488625  1
  Mo  Mo193  1  0.80401795  0.39230522  0.00927052  1
  Mo  Mo194  1  0.41122874  0.80805686  0.25515654  1
  Mo  Mo195  1  0.21371774  0.79250215  0.74313017  1
  Mo  Mo196  1  0.10127118  0.90480438  0.86436530  1
  Mo  Mo197  1  0.89700915  0.89245847  0.37710974  1
  Mo  Mo198  1  0.49242634  0.10679718  0.87569820  1
  Mo  Mo199  1  0.29668221  0.52026492  0.62438869  1
