# generated using pymatgen
data_HfZrTaTiMo
_symmetry_space_group_name_H-M   'P 1'
_cell_length_a   15.20892617
_cell_length_b   15.21117694
_cell_length_c   16.84706293
_cell_angle_alpha   89.93080488
_cell_angle_beta   89.96428674
_cell_angle_gamma   89.99203153
_symmetry_Int_Tables_number   1
_chemical_formula_structural   HfZrTaTiMo
_chemical_formula_sum   'Hf40 Zr40 Ta40 Ti40 Mo40'
_cell_volume   3897.49137303
_cell_formula_units_Z   40
loop_
 _symmetry_equiv_pos_site_id
 _symmetry_equiv_pos_as_xyz
  1  'x, y, z'
loop_
 _atom_site_type_symbol
 _atom_site_label
 _atom_site_symmetry_multiplicity
 _atom_site_fract_x
 _atom_site_fract_y
 _atom_site_fract_z
 _atom_site_occupancy
  Hf  Hf0  1  0.50281497  0.50309935  0.38734313  1
  Hf  Hf1  1  0.71171267  0.08760823  0.36387393  1
  Hf  Hf2  1  0.60013874  0.78955930  0.73814637  1
  Hf  Hf3  1  0.71654662  0.09472384  0.87643530  1
  Hf  Hf4  1  0.08742383  0.69044376  0.10952159  1
  Hf  Hf5  1  0.79312378  0.78429600  0.00460960  1
  Hf  Hf6  1  0.20436213  0.21700610  0.26035999  1
  Hf  Hf7  1  0.90183781  0.68073547  0.61102276  1
  Hf  Hf8  1  0.09489387  0.10554659  0.86183141  1
  Hf  Hf9  1  0.78385146  0.78693575  0.26207978  1
  Hf  Hf10  1  0.09977963  0.90736443  0.38032944  1
  Hf  Hf11  1  0.50185339  0.69042799  0.87777322  1
  Hf  Hf12  1  -0.01416526  0.80772355  0.25156243  1
  Hf  Hf13  1  0.30135477  0.91950235  0.87921940  1
  Hf  Hf14  1  0.78425052  0.79742454  0.49626696  1
  Hf  Hf15  1  0.01480529  0.39641886  0.26510787  1
  Hf  Hf16  1  0.30938839  0.31423450  0.13551349  1
  Hf  Hf17  1  0.41557524  0.21413360  0.01114766  1
  Hf  Hf18  1  0.91820056  0.08967508  0.36618069  1
  Hf  Hf19  1  0.29409820  0.50776833  0.63121779  1
  Hf  Hf20  1  0.69403391  0.89173047  0.86635735  1
  Hf  Hf21  1  0.29960673  0.70557807  0.87027163  1
  Hf  Hf22  1  0.48792071  0.68078322  0.12730534  1
  Hf  Hf23  1  0.82055999  0.18252064  0.01350140  1
  Hf  Hf24  1  0.70904251  0.68455761  0.86908462  1
  Hf  Hf25  1  0.08839639  0.30862743  0.62216157  1
  Hf  Hf26  1  0.79960997  0.00310319  0.73459013  1
  Hf  Hf27  1  0.08206099  0.70060654  0.89041093  1
  Hf  Hf28  1  0.48458890  0.70478417  0.38033078  1
  Hf  Hf29  1  0.59896161  0.79186288  0.01003890  1
  Hf  Hf30  1  0.21017573  0.00918214  0.50577093  1
  Hf  Hf31  1  0.39884197  0.39514737  0.74674791  1
  Hf  Hf32  1  0.07285065  0.49245782  0.89620543  1
  Hf  Hf33  1  0.51468295  0.30303687  0.61265596  1
  Hf  Hf34  1  0.51526869  0.11445479  0.13966173  1
  Hf  Hf35  1  0.38443726  0.78948426  0.24564504  1
  Hf  Hf36  1  0.39105183  0.79289588  0.01002018  1
  Hf  Hf37  1  0.67974377  0.69137963  0.38512883  1
  Hf  Hf38  1  0.37409945  0.60202314  0.49456179  1
  Hf  Hf39  1  0.08024909  0.92262750  0.12488068  1
  Zr  Zr40  1  0.20589775  0.38657401  -0.00227104  1
  Zr  Zr41  1  0.89545507  0.49830099  0.13699514  1
  Zr  Zr42  1  0.30226384  0.51798622  0.12108380  1
  Zr  Zr43  1  0.69083332  0.49523733  0.87442729  1
  Zr  Zr44  1  0.00070035  0.60537135  0.25669897  1
  Zr  Zr45  1  0.11428920  0.29263852  0.87274550  1
  Zr  Zr46  1  -0.02372285  0.58353994  0.75696286  1
  Zr  Zr47  1  0.19238385  0.80995186  0.00720230  1
  Zr  Zr48  1  0.80374698  0.41099081  0.00171323  1
  Zr  Zr49  1  0.01636661  0.19617079  0.25078997  1
  Zr  Zr50  1  0.50328392  0.48037434  0.12943511  1
  Zr  Zr51  1  0.29073258  0.91788767  0.12772297  1
  Zr  Zr52  1  0.49668392  0.90432918  0.14097318  1
  Zr  Zr53  1  0.60752318  0.00929514  0.01407744  1
  Zr  Zr54  1  0.49381506  0.91293420  0.88025210  1
  Zr  Zr55  1  0.18143210  0.41025348  0.74723245  1
  Zr  Zr56  1  0.69343227  0.29843717  0.12040165  1
  Zr  Zr57  1  0.39903235  0.80750753  0.74654070  1
  Zr  Zr58  1  0.31110325  0.12170865  0.87742413  1
  Zr  Zr59  1  0.91661579  0.29364245  0.88339519  1
  Zr  Zr60  1  0.61111465  -0.00192410  0.50379958  1
  Zr  Zr61  1  0.80809571  -0.01455577  0.01634171  1
  Zr  Zr62  1  0.41175477  0.18279051  0.73188618  1
  Zr  Zr63  1  0.00610693  0.00626680  0.51351337  1
  Zr  Zr64  1  0.22002954  0.00796562  0.73260968  1
  Zr  Zr65  1  0.18568035  0.79755926  0.24483191  1
  Zr  Zr66  1  0.50711944  0.09914155  0.36541694  1
  Zr  Zr67  1  0.88909356  0.89739471  0.38711704  1
  Zr  Zr68  1  0.17968660  0.61700725  0.74815563  1
  Zr  Zr69  1  0.09982042  0.90437351  0.87268513  1
  Zr  Zr70  1  0.41264616  -0.01219194  0.50608380  1
  Zr  Zr71  1  0.89699682  0.89809366  0.86174014  1
  Zr  Zr72  1  0.90532293  0.88684877  0.62121421  1
  Zr  Zr73  1  0.29875904  0.50754308  0.86670433  1
  Zr  Zr74  1  0.60821931  0.39373706  0.74578707  1
  Zr  Zr75  1  0.81555605  0.20099063  0.49074432  1
  Zr  Zr76  1  -0.00482499  0.39099813  0.48072178  1
  Zr  Zr77  1  0.58207481  0.00389630  0.73307614  1
  Zr  Zr78  1  0.40337288  0.19261262  0.50118712  1
  Zr  Zr79  1  0.61437562  0.20035559  0.74516299  1
  Ta  Ta80  1  -0.01984587  0.81026259  0.00543824  1
  Ta  Ta81  1  0.81141094  0.40128249  0.75806080  1
  Ta  Ta82  1  0.69892957  0.89121274  0.62681906  1
  Ta  Ta83  1  0.70127489  0.28870000  0.89025961  1
  Ta  Ta84  1  0.80067736  0.00343054  0.51415627  1
  Ta  Ta85  1  0.30529079  0.31063796  0.38272294  1
  Ta  Ta86  1  0.80047120  0.38812919  0.26022052  1
  Ta  Ta87  1  0.51280426  0.89681030  0.35640763  1
  Ta  Ta88  1  0.19193933  0.02772754  0.00284779  1
  Ta  Ta89  1  0.81187846  0.20940756  0.75223441  1
  Ta  Ta90  1  0.89315468  0.49872633  0.37317618  1
  Ta  Ta91  1  0.61743348  0.20465810  0.49572939  1
  Ta  Ta92  1  0.11067351  0.88664924  0.62132201  1
  Ta  Ta93  1  0.89044016  0.47968721  0.61529379  1
  Ta  Ta94  1  0.69941948  0.48789242  0.61807768  1
  Ta  Ta95  1  0.91147097  0.11385137  0.63243359  1
  Ta  Ta96  1  0.48187489  0.70208619  0.60994559  1
  Ta  Ta97  1  0.60621929  0.39985274  0.26067257  1
  Ta  Ta98  1  0.79078829  0.58274969  0.49697106  1
  Ta  Ta99  1  0.69614705  0.88817412  0.14299324  1
  Ta  Ta100  1  0.11049122  0.52242561  0.38814230  1
  Ta  Ta101  1  0.81099997  -0.00844116  0.23783437  1
  Ta  Ta102  1  0.18987309  0.01660432  0.25820777  1
  Ta  Ta103  1  0.08193833  0.51642324  0.60809003  1
  Ta  Ta104  1  0.20783315  0.79532647  0.49665019  1
  Ta  Ta105  1  0.29478503  0.30231856  0.61318356  1
  Ta  Ta106  1  0.40678887  0.21197955  0.25803348  1
  Ta  Ta107  1  0.09443340  0.48988112  0.11239964  1
  Ta  Ta108  1  0.49776118  0.50256053  0.87273334  1
  Ta  Ta109  1  0.50089947  0.29784071  0.87414303  1
  Ta  Ta110  1  0.58488900  0.59421009  0.73200085  1
  Ta  Ta111  1  0.40403656  0.40646320  -0.01049600  1
  Ta  Ta112  1  0.88134424  0.69908230  0.13127888  1
  Ta  Ta113  1  0.38473299  0.59091233  0.26463223  1
  Ta  Ta114  1  0.30644618  0.89850389  0.37189959  1
  Ta  Ta115  1  0.00766459  -0.00120897  0.73493490  1
  Ta  Ta116  1  -0.00762753  0.01680581  -0.00767068  1
  Ta  Ta117  1  0.21232826  0.21126304  0.73754302  1
  Ta  Ta118  1  0.81064644  0.19769190  0.24039559  1
  Ta  Ta119  1  0.00471537  0.78679592  0.74439969  1
  Ti  Ti120  1  0.30065281  0.11172993  0.13217932  1
  Ti  Ti121  1  0.91981370  0.30284814  0.12388495  1
  Ti  Ti122  1  0.59631243  0.59857839  0.24946657  1
  Ti  Ti123  1  0.50933602  0.30283265  0.38372836  1
  Ti  Ti124  1  0.39901785  0.01296636  0.01061968  1
  Ti  Ti125  1  0.19830612  0.20915051  0.49362626  1
  Ti  Ti126  1  0.70781657  0.11639917  0.62106615  1
  Ti  Ti127  1  0.39718861  0.40051920  0.50002105  1
  Ti  Ti128  1  0.69692559  0.49438676  0.37870550  1
  Ti  Ti129  1  0.21042695  0.60446521  -0.00128055  1
  Ti  Ti130  1  0.01288953  0.78201072  0.49647053  1
  Ti  Ti131  1  0.03229448  0.20295967  0.01874471  1
  Ti  Ti132  1  0.39449792  0.00842948  0.25425351  1
  Ti  Ti133  1  0.78592076  0.58912146  0.25625047  1
  Ti  Ti134  1  0.27124857  0.69093770  0.37462087  1
  Ti  Ti135  1  0.80548588  0.78269110  0.74115577  1
  Ti  Ti136  1  0.68875466  0.68872151  0.61232424  1
  Ti  Ti137  1  0.79555642  0.38458521  0.48287690  1
  Ti  Ti138  1  0.31219483  0.89023021  0.61711719  1
  Ti  Ti139  1  0.58986264  0.38651853  -0.00014855  1
  Ti  Ti140  1  0.10729882  0.11398137  0.62938755  1
  Ti  Ti141  1  0.40550676  0.40115543  0.26600473  1
  Ti  Ti142  1  0.28468376  0.70476540  0.62534206  1
  Ti  Ti143  1  0.60761920  0.58711112  0.01129660  1
  Ti  Ti144  1  0.01191538  0.19952165  0.48530920  1
  Ti  Ti145  1  -0.04085295  0.60098699  -0.00313352  1
  Ti  Ti146  1  0.78629913  0.59168670  0.73694679  1
  Ti  Ti147  1  0.61202030  0.21041877  0.25763152  1
  Ti  Ti148  1  0.51500808  0.10812750  0.88598511  1
  Ti  Ti149  1  0.20687746  0.41662088  0.26139086  1
  Ti  Ti150  1  0.58307768  0.80580119  0.50403941  1
  Ti  Ti151  1  0.19483793  0.80857660  0.74850931  1
  Ti  Ti152  1  0.49706711  0.50507803  0.61176002  1
  Ti  Ti153  1  0.19346326  0.60117330  0.24329792  1
  Ti  Ti154  1  0.20310131  0.41431277  0.49759027  1
  Ti  Ti155  1  0.92546325  0.08421625  0.13598306  1
  Ti  Ti156  1  0.61228265  0.39960904  0.49700217  1
  Ti  Ti157  1  0.89944601  0.68847583  0.38638271  1
  Ti  Ti158  1  0.29986764  0.10197277  0.37363679  1
  Ti  Ti159  1  0.89607129  0.29883701  0.62731303  1
  Mo  Mo160  1  0.31378698  0.30168853  0.86963282  1
  Mo  Mo161  1  0.61146960  0.20288807  0.00126027  1
  Mo  Mo162  1  0.00378819  0.20263437  0.74256676  1
  Mo  Mo163  1  0.50262857  0.88915811  0.61907984  1
  Mo  Mo164  1  0.11410941  0.10668682  0.12557833  1
  Mo  Mo165  1  0.11562623  0.31020273  0.38544853  1
  Mo  Mo166  1  0.40630174  0.60400782  0.73587161  1
  Mo  Mo167  1  0.69776211  0.50354741  0.13857968  1
  Mo  Mo168  1  0.40229746  -0.00245881  0.72612923  1
  Mo  Mo169  1  0.11560345  0.10487064  0.38351996  1
  Mo  Mo170  1  0.29564853  0.49985279  0.37476759  1
  Mo  Mo171  1  0.71166804  0.09928978  0.14291628  1
  Mo  Mo172  1  0.72318818  0.30857077  0.62024118  1
  Mo  Mo173  1  0.60985320  -0.00128877  0.24714149  1
  Mo  Mo174  1  0.00457230  -0.00185328  0.25458181  1
  Mo  Mo175  1  0.69050753  0.68550738  0.13522555  1
  Mo  Mo176  1  0.51278556  0.10282508  0.61159836  1
  Mo  Mo177  1  0.69124551  0.89875059  0.36524259  1
  Mo  Mo178  1  -0.00265048  0.39621989  0.01030500  1
  Mo  Mo179  1  0.09288545  0.70602715  0.62387891  1
  Mo  Mo180  1  0.89920055  0.29373652  0.36403618  1
  Mo  Mo181  1  0.89520418  0.89135607  0.12784136  1
  Mo  Mo182  1  0.10722625  0.30982043  0.12887079  1
  Mo  Mo183  1  0.89362645  0.70161229  0.87203616  1
  Mo  Mo184  1  0.69887868  0.29595553  0.36742662  1
  Mo  Mo185  1  0.09270680  0.70760086  0.37658581  1
  Mo  Mo186  1  -0.01244687  0.59619451  0.49127890  1
  Mo  Mo187  1  0.59250525  0.78849527  0.24780195  1
  Mo  Mo188  1  0.40483164  0.59697514  -0.00721356  1
  Mo  Mo189  1  -0.01370345  0.39531976  0.74493379  1
  Mo  Mo190  1  0.29842282  0.10864529  0.61472933  1
  Mo  Mo191  1  0.39009584  0.80024209  0.48752194  1
  Mo  Mo192  1  0.90800345  0.09575740  0.85768037  1
  Mo  Mo193  1  0.88397580  0.50830530  0.87742559  1
  Mo  Mo194  1  0.18616436  0.60880119  0.50774531  1
  Mo  Mo195  1  0.50100729  0.30356829  0.13837543  1
  Mo  Mo196  1  0.21511092  0.20121081  0.01072756  1
  Mo  Mo197  1  0.59427245  0.59672098  0.51342454  1
  Mo  Mo198  1  0.78667004  0.60261286  0.00994795  1
  Mo  Mo199  1  0.29128210  0.69455893  0.12632555  1
