# generated using pymatgen
data_HfZrTaTiMo
_symmetry_space_group_name_H-M   'P 1'
_cell_length_a   15.20260399
_cell_length_b   15.21672971
_cell_length_c   16.82491495
_cell_angle_alpha   89.97753092
_cell_angle_beta   89.94435619
_cell_angle_gamma   89.97227918
_symmetry_Int_Tables_number   1
_chemical_formula_structural   HfZrTaTiMo
_chemical_formula_sum   'Hf40 Zr40 Ta40 Ti40 Mo40'
_cell_volume   3892.17086766
_cell_formula_units_Z   40
loop_
 _symmetry_equiv_pos_site_id
 _symmetry_equiv_pos_as_xyz
  1  'x, y, z'
loop_
 _atom_site_type_symbol
 _atom_site_label
 _atom_site_symmetry_multiplicity
 _atom_site_fract_x
 _atom_site_fract_y
 _atom_site_fract_z
 _atom_site_occupancy
  Hf  Hf0  1  0.69966149  0.30057016  0.37857834  1
  Hf  Hf1  1  0.41616590  0.39358404  0.01931536  1
  Hf  Hf2  1  0.40483262  0.79179707  0.48260395  1
  Hf  Hf3  1  0.07923373  0.11468691  0.38552239  1
  Hf  Hf4  1  0.20994358  0.60016133  0.48639393  1
  Hf  Hf5  1  0.38204740  0.21029402  0.24695307  1
  Hf  Hf6  1  0.48988731  0.30515802  0.36292555  1
  Hf  Hf7  1  0.57690383  0.19507271  0.50178326  1
  Hf  Hf8  1  0.87415630  0.49375899  0.62477266  1
  Hf  Hf9  1  0.60459867  0.00109814  0.74993626  1
  Hf  Hf10  1  0.49799870  0.50316520  0.63006970  1
  Hf  Hf11  1  0.19608896  0.59829231  0.76931410  1
  Hf  Hf12  1  0.20377416  0.80005036  0.74403225  1
  Hf  Hf13  1  0.18237655  0.81463204  0.00579304  1
  Hf  Hf14  1  0.60788744  0.40322642  0.50821156  1
  Hf  Hf15  1  0.19104943  0.80494734  0.25289079  1
  Hf  Hf16  1  0.50988954  0.90508091  0.36605044  1
  Hf  Hf17  1  0.50614638  0.90222743  0.89213236  1
  Hf  Hf18  1  0.88633576  0.08807358  0.86800145  1
  Hf  Hf19  1  0.80338934  0.01452806  0.24931310  1
  Hf  Hf20  1  0.79673511  0.20159122  0.74762072  1
  Hf  Hf21  1  0.90960852  0.90700074  0.37794605  1
  Hf  Hf22  1  -0.00161543  -0.00090938  0.72798550  1
  Hf  Hf23  1  0.70287620  0.50434683  0.36236233  1
  Hf  Hf24  1  0.31635455  0.49122671  0.36109753  1
  Hf  Hf25  1  0.80744061  0.78731712  0.49429694  1
  Hf  Hf26  1  0.40725407  0.80566576  0.75448499  1
  Hf  Hf27  1  0.58913429  0.19590788  0.74080636  1
  Hf  Hf28  1  0.00706412  0.19126916  -0.02637431  1
  Hf  Hf29  1  0.40469668  0.02589335  0.74414774  1
  Hf  Hf30  1  0.10551726  0.48364175  0.36979923  1
  Hf  Hf31  1  0.40398712  0.80109544  0.01521754  1
  Hf  Hf32  1  0.59958414  0.60297635  0.49680558  1
  Hf  Hf33  1  0.69918394  0.71124023  0.89322815  1
  Hf  Hf34  1  0.10263571  0.69541021  0.62311099  1
  Hf  Hf35  1  0.20233392  0.80288733  0.49677621  1
  Hf  Hf36  1  -0.01295108  0.38252755  0.50319240  1
  Hf  Hf37  1  0.69324984  0.09422821  0.61084775  1
  Hf  Hf38  1  0.40193149  0.39776874  0.49893895  1
  Hf  Hf39  1  0.20942460  0.60248436  0.25255499  1
  Zr  Zr40  1  0.11244529  0.48566306  0.12211464  1
  Zr  Zr41  1  0.79609105  0.40469881  0.77210843  1
  Zr  Zr42  1  0.31240113  0.90258684  0.61325892  1
  Zr  Zr43  1  0.31575123  0.49832694  0.88987529  1
  Zr  Zr44  1  0.29035290  0.91228702  0.12596194  1
  Zr  Zr45  1  0.29494582  0.10905203  0.12791396  1
  Zr  Zr46  1  0.80692356  0.80415678  0.24756270  1
  Zr  Zr47  1  0.40173139  0.60693916  0.75775389  1
  Zr  Zr48  1  0.20097019  0.00453120  0.73350456  1
  Zr  Zr49  1  0.78073644  0.01209779  0.01003878  1
  Zr  Zr50  1  0.59951899  0.39097588  0.74107327  1
  Zr  Zr51  1  0.51243490  0.48934832  0.88622688  1
  Zr  Zr52  1  0.38936630  0.79273547  0.25453302  1
  Zr  Zr53  1  0.60659904  0.59885372  0.75752324  1
  Zr  Zr54  1  0.90643182  0.48809786  0.12266254  1
  Zr  Zr55  1  0.41517432  0.59499847  0.22387483  1
  Zr  Zr56  1  0.00731457  0.59228385  -0.00944561  1
  Zr  Zr57  1  0.09316220  0.90874406  0.86933024  1
  Zr  Zr58  1  0.29920861  0.49697108  0.63262194  1
  Zr  Zr59  1  0.00003622  0.39225311  0.76759696  1
  Zr  Zr60  1  0.19864407  0.38493515  0.50444522  1
  Zr  Zr61  1  0.49910168  0.91206421  0.14131096  1
  Zr  Zr62  1  0.81481366  0.20453542  0.50519184  1
  Zr  Zr63  1  0.89523200  0.88691256  0.87544725  1
  Zr  Zr64  1  0.18799381  0.01442748  0.25444847  1
  Zr  Zr65  1  0.09736562  0.91098949  0.38657806  1
  Zr  Zr66  1  0.89870354  0.29042660  0.11352100  1
  Zr  Zr67  1  0.09542053  0.49162731  0.62959376  1
  Zr  Zr68  1  -0.00188516  -0.00976897  0.00923836  1
  Zr  Zr69  1  0.30425362  0.91588144  0.88241183  1
  Zr  Zr70  1  0.70779326  0.68830863  0.62106573  1
  Zr  Zr71  1  0.21691206  0.19662395  0.75856077  1
  Zr  Zr72  1  -0.01377329  0.59945742  0.75859643  1
  Zr  Zr73  1  0.80634965  0.60840709  0.00994910  1
  Zr  Zr74  1  0.01472961  0.37166696  0.25352699  1
  Zr  Zr75  1  0.51487486  0.91134920  0.60604428  1
  Zr  Zr76  1  -0.00115186  0.59640747  0.24966352  1
  Zr  Zr77  1  0.60430300  0.79842707  0.75088333  1
  Zr  Zr78  1  0.70398470  0.91404504  0.88305746  1
  Zr  Zr79  1  -0.00955969  0.59828244  0.49687306  1
  Ta  Ta80  1  0.68322149  0.12161168  0.13370452  1
  Ta  Ta81  1  0.09403107  0.70398205  0.37444631  1
  Ta  Ta82  1  0.51053397  0.49735480  0.36233090  1
  Ta  Ta83  1  0.30333034  0.91643097  0.37914014  1
  Ta  Ta84  1  -0.00846793  0.39282330  -0.03026544  1
  Ta  Ta85  1  0.78048982  0.21702375  -0.01635312  1
  Ta  Ta86  1  0.29364186  0.69619115  0.11229489  1
  Ta  Ta87  1  -0.00155063  0.79759781  0.73446800  1
  Ta  Ta88  1  -0.01580964  0.78754113  0.01452959  1
  Ta  Ta89  1  0.80830459  0.00102340  0.49959854  1
  Ta  Ta90  1  0.40719837  0.18569165  0.01148331  1
  Ta  Ta91  1  0.59217181  0.59635184  0.02336456  1
  Ta  Ta92  1  0.89964352  0.69459608  0.36736567  1
  Ta  Ta93  1  0.80734757  0.39469714  0.25308000  1
  Ta  Ta94  1  0.19464437  0.02734758  -0.00505799  1
  Ta  Ta95  1  0.50720198  0.68804686  0.36315237  1
  Ta  Ta96  1  0.51900622  0.27842368  0.13202209  1
  Ta  Ta97  1  0.00368777  0.19343470  0.75282987  1
  Ta  Ta98  1  0.80670592  0.79599803  0.73977780  1
  Ta  Ta99  1  0.20375315  0.02185029  0.51203614  1
  Ta  Ta100  1  0.17385389  0.21945369  0.24770142  1
  Ta  Ta101  1  0.70538209  0.70891625  0.12525206  1
  Ta  Ta102  1  0.20034272  0.60514510  -0.00869058  1
  Ta  Ta103  1  0.62260662  0.37936627  0.01368640  1
  Ta  Ta104  1  0.09908467  0.69968425  0.12418007  1
  Ta  Ta105  1  0.60787092  0.39565689  0.23571650  1
  Ta  Ta106  1  0.40834960  0.02066804  0.48969520  1
  Ta  Ta107  1  0.70438812  0.90402616  0.37708548  1
  Ta  Ta108  1  0.49590389  0.10210032  0.35697199  1
  Ta  Ta109  1  0.49871925  0.69536524  0.89820634  1
  Ta  Ta110  1  0.40484193  0.59919697  0.48992215  1
  Ta  Ta111  1  0.20564774  0.39442034  0.76873620  1
  Ta  Ta112  1  0.30230042  0.70948913  0.89152228  1
  Ta  Ta113  1  0.60356176  0.79431455  0.24599050  1
  Ta  Ta114  1  0.09089671  0.11121335  0.12233626  1
  Ta  Ta115  1  0.70608847  0.89608291  0.60958301  1
  Ta  Ta116  1  0.09315324  0.71217557  0.87589646  1
  Ta  Ta117  1  0.50895385  0.28519244  0.88736148  1
  Ta  Ta118  1  0.49698548  0.70565155  0.61782145  1
  Ta  Ta119  1  0.70032271  0.69998467  0.36427181  1
  Ti  Ti120  1  0.80176664  0.59929670  0.24084265  1
  Ti  Ti121  1  0.72424635  0.31590078  0.61642162  1
  Ti  Ti122  1  0.69237171  0.91593342  0.13187314  1
  Ti  Ti123  1  0.28254273  0.30414904  0.11365137  1
  Ti  Ti124  1  0.49753623  0.09737409  0.88564053  1
  Ti  Ti125  1  0.90715141  0.28257557  0.37406551  1
  Ti  Ti126  1  0.18795759  0.39672709  -0.02359441  1
  Ti  Ti127  1  0.10778483  0.29225277  0.63790769  1
  Ti  Ti128  1  0.89460337  0.70346691  0.87627953  1
  Ti  Ti129  1  0.69644893  0.09757544  0.38008499  1
  Ti  Ti130  1  0.30941249  0.69388153  0.62259329  1
  Ti  Ti131  1  0.39789285  0.38013763  0.75804660  1
  Ti  Ti132  1  0.28774896  0.10949372  0.37350898  1
  Ti  Ti133  1  0.79523442  0.60395116  0.76017970  1
  Ti  Ti134  1  -0.00298045  -0.00468954  0.23568442  1
  Ti  Ti135  1  0.79843406  -0.00591959  0.73368505  1
  Ti  Ti136  1  0.89084652  0.10506985  0.11533348  1
  Ti  Ti137  1  0.79447511  0.20422770  0.25547317  1
  Ti  Ti138  1  0.29742849  0.49877785  0.11107708  1
  Ti  Ti139  1  0.49967480  0.09398565  0.14976699  1
  Ti  Ti140  1  0.70273432  0.50245333  0.89657486  1
  Ti  Ti141  1  -0.01738020  0.18092479  0.24839089  1
  Ti  Ti142  1  0.37488494  0.20391333  0.49457797  1
  Ti  Ti143  1  0.27594109  0.30041437  0.36889267  1
  Ti  Ti144  1  0.60558284  0.79753654  0.48896572  1
  Ti  Ti145  1  0.00101590  0.80027178  0.23951614  1
  Ti  Ti146  1  0.31196854  0.28809385  0.89137026  1
  Ti  Ti147  1  0.00041983  0.00469597  0.52329494  1
  Ti  Ti148  1  0.00074758  0.79680860  0.50787358  1
  Ti  Ti149  1  0.71056639  0.48873956  0.12325970  1
  Ti  Ti150  1  0.79723100  0.58878367  0.49195368  1
  Ti  Ti151  1  0.09830873  0.29513633  0.10339604  1
  Ti  Ti152  1  0.89839512  0.89101339  0.61731829  1
  Ti  Ti153  1  0.60651113  0.80792249  0.01892345  1
  Ti  Ti154  1  0.60692272  0.59763330  0.22989730  1
  Ti  Ti155  1  0.47049619  0.28483837  0.62674268  1
  Ti  Ti156  1  0.00501053  0.19249847  0.52643085  1
  Ti  Ti157  1  0.89747016  0.49014009  0.37202816  1
  Ti  Ti158  1  0.40339361  0.40091255  0.22509596  1
  Ti  Ti159  1  0.89275858  0.89434718  0.12174404  1
  Mo  Mo160  1  0.79678608  0.80733950  0.01719847  1
  Mo  Mo161  1  0.68653215  0.30155574  0.87367539  1
  Mo  Mo162  1  0.59854304  0.18863778  0.00411123  1
  Mo  Mo163  1  0.89394439  0.29219934  0.87504010  1
  Mo  Mo164  1  0.80615111  0.40180821  0.48705615  1
  Mo  Mo165  1  0.40253069  0.00626032  0.00652426  1
  Mo  Mo166  1  0.60767557  0.00165032  0.48416380  1
  Mo  Mo167  1  0.61160035  0.00221955  0.25878587  1
  Mo  Mo168  1  0.10705756  0.29507611  0.86801879  1
  Mo  Mo169  1  0.09893430  0.89783283  0.60981012  1
  Mo  Mo170  1  0.19582530  0.20224924  0.50464650  1
  Mo  Mo171  1  0.90885073  0.29755243  0.63376782  1
  Mo  Mo172  1  0.10569126  0.10623778  0.62138738  1
  Mo  Mo173  1  0.40081633  0.60103598  0.01510719  1
  Mo  Mo174  1  0.90403538  0.69991735  0.13352928  1
  Mo  Mo175  1  0.39108606  0.00757974  0.26861818  1
  Mo  Mo176  1  0.49297842  0.10280400  0.61512016  1
  Mo  Mo177  1  0.80266737  0.40310752  -0.01371418  1
  Mo  Mo178  1  0.10212728  0.09525898  0.86758359  1
  Mo  Mo179  1  0.31497947  0.12053479  0.61680108  1
  Mo  Mo180  1  0.89247840  0.09757336  0.37720694  1
  Mo  Mo181  1  0.10527808  0.50330992  0.87708531  1
  Mo  Mo182  1  0.60314924  0.20101504  0.26058801  1
  Mo  Mo183  1  0.29851006  0.30345608  0.63317505  1
  Mo  Mo184  1  0.30285305  0.70003660  0.37237012  1
  Mo  Mo185  1  0.31113528  0.10401477  0.88704662  1
  Mo  Mo186  1  0.58280268  0.01554273  0.01266733  1
  Mo  Mo187  1  0.51392619  0.48616967  0.12210028  1
  Mo  Mo188  1  0.89163984  0.50843435  0.87894326  1
  Mo  Mo189  1  0.21683480  0.38890919  0.24074900  1
  Mo  Mo190  1  0.69826194  0.49807001  0.62183246  1
  Mo  Mo191  1  0.20188506  0.20756778  -0.00993914  1
  Mo  Mo192  1  0.08880848  0.90660408  0.12734541  1
  Mo  Mo193  1  0.71324686  0.29979556  0.13133243  1
  Mo  Mo194  1  0.50867228  0.70342731  0.12442464  1
  Mo  Mo195  1  0.09285752  0.29253242  0.37983777  1
  Mo  Mo196  1  0.90124764  0.70025911  0.62557972  1
  Mo  Mo197  1  0.40700392  0.20887004  0.76261193  1
  Mo  Mo198  1  0.68005622  0.11312298  0.87581024  1
  Mo  Mo199  1  0.89612953  0.09848213  0.63410136  1
