# generated using pymatgen
data_HfZrTaTiMo
_symmetry_space_group_name_H-M   'P 1'
_cell_length_a   15.21834494
_cell_length_b   15.20714960
_cell_length_c   16.82664025
_cell_angle_alpha   90.04064694
_cell_angle_beta   89.95238620
_cell_angle_gamma   90.00961047
_symmetry_Int_Tables_number   1
_chemical_formula_structural   HfZrTaTiMo
_chemical_formula_sum   'Hf40 Zr40 Ta40 Ti40 Mo40'
_cell_volume   3894.14740254
_cell_formula_units_Z   40
loop_
 _symmetry_equiv_pos_site_id
 _symmetry_equiv_pos_as_xyz
  1  'x, y, z'
loop_
 _atom_site_type_symbol
 _atom_site_label
 _atom_site_symmetry_multiplicity
 _atom_site_fract_x
 _atom_site_fract_y
 _atom_site_fract_z
 _atom_site_occupancy
  Hf  Hf0  1  0.59728207  0.60449424  0.50267586  1
  Hf  Hf1  1  0.10855563  0.49464142  0.63921133  1
  Hf  Hf2  1  0.81251753  0.40716049  0.50045465  1
  Hf  Hf3  1  0.49873423  0.10545939  0.63128941  1
  Hf  Hf4  1  0.61215354  0.80423588  0.49125707  1
  Hf  Hf5  1  0.38417700  0.21420631  0.75880102  1
  Hf  Hf6  1  0.11555580  0.29170486  0.62546501  1
  Hf  Hf7  1  0.11210975  0.90352542  0.12656600  1
  Hf  Hf8  1  0.39248241  0.80496897  0.49730189  1
  Hf  Hf9  1  0.60529874  -0.00224995  0.76382350  1
  Hf  Hf10  1  0.69001716  0.89184404  0.13700286  1
  Hf  Hf11  1  0.30391497  0.48530350  0.62870435  1
  Hf  Hf12  1  0.79851606  0.00190391  0.76521104  1
  Hf  Hf13  1  0.68515115  0.30675048  0.36318027  1
  Hf  Hf14  1  0.40339572  0.01337583  0.24094162  1
  Hf  Hf15  1  0.90203820  0.29990324  0.87716351  1
  Hf  Hf16  1  0.51002639  0.48810702  0.35505519  1
  Hf  Hf17  1  0.69283953  0.10008793  0.62322054  1
  Hf  Hf18  1  0.69588897  0.49912010  0.63035208  1
  Hf  Hf19  1  0.40526493  0.00688229  0.50315587  1
  Hf  Hf20  1  0.79289989  0.39090360  0.75776825  1
  Hf  Hf21  1  0.78578449  0.79650209  -0.01895598  1
  Hf  Hf22  1  0.20427377  -0.00661090  0.49289267  1
  Hf  Hf23  1  0.09671058  0.50401284  0.36264502  1
  Hf  Hf24  1  0.69174514  0.09064772  0.13475921  1
  Hf  Hf25  1  -0.00428340  0.59320558  0.51450789  1
  Hf  Hf26  1  0.49489527  0.30536425  0.62820693  1
  Hf  Hf27  1  0.50597247  0.91400672  0.36495761  1
  Hf  Hf28  1  0.21675885  0.37754198  0.76374954  1
  Hf  Hf29  1  0.39240130  0.41117821  0.01580174  1
  Hf  Hf30  1  0.00523213  0.20475841  0.49552682  1
  Hf  Hf31  1  0.40074848  0.39703729  0.49248165  1
  Hf  Hf32  1  0.90331284  0.30288429  0.37321908  1
  Hf  Hf33  1  0.89747295  0.90034643  0.12101093  1
  Hf  Hf34  1  0.10495898  0.50192228  0.86603883  1
  Hf  Hf35  1  0.62174988  0.60758192  0.24731990  1
  Hf  Hf36  1  0.49900718  0.10723278  0.88199505  1
  Hf  Hf37  1  0.30702265  0.50815011  0.87030988  1
  Hf  Hf38  1  0.29706202  0.09857376  0.88252804  1
  Hf  Hf39  1  0.78647504  0.20528275  -0.00052657  1
  Zr  Zr40  1  0.91511810  0.49681257  0.86892196  1
  Zr  Zr41  1  0.50588551  0.51859893  0.87937101  1
  Zr  Zr42  1  0.00234092  0.00869773  0.74200537  1
  Zr  Zr43  1  0.28518543  0.08740919  0.11430819  1
  Zr  Zr44  1  0.39053024  -0.01582110  0.00209905  1
  Zr  Zr45  1  0.88937745  0.10216717  0.61927785  1
  Zr  Zr46  1  0.90446230  0.88963052  0.37135849  1
  Zr  Zr47  1  0.40164785  0.61925070  0.02157735  1
  Zr  Zr48  1  0.11639553  0.48785695  0.13189583  1
  Zr  Zr49  1  0.57470623  0.20703426  0.23641111  1
  Zr  Zr50  1  0.79371612  0.61184136  0.76264060  1
  Zr  Zr51  1  0.40234062  0.59974307  0.50440944  1
  Zr  Zr52  1  0.27599029  0.30060121  0.12132601  1
  Zr  Zr53  1  0.29882598  0.50130124  0.35980924  1
  Zr  Zr54  1  0.50183630  0.70180957  0.36419653  1
  Zr  Zr55  1  0.80713784  0.59611784  -0.01093936  1
  Zr  Zr56  1  0.79041232  0.00431495  -0.00898154  1
  Zr  Zr57  1  0.60326093  0.40108601  0.49968022  1
  Zr  Zr58  1  0.92012941  0.91128812  0.88469959  1
  Zr  Zr59  1  0.28929553  0.11613714  0.62644025  1
  Zr  Zr60  1  0.80049477  0.40428719  0.24759232  1
  Zr  Zr61  1  0.93860334  0.71068761  0.88144667  1
  Zr  Zr62  1  -0.00103238  -0.02144702  0.50785553  1
  Zr  Zr63  1  0.00650493  0.00251920  0.25445374  1
  Zr  Zr64  1  0.60647164  0.60932677  0.01030149  1
  Zr  Zr65  1  0.69012135  0.09359521  0.36000909  1
  Zr  Zr66  1  0.82723417  0.60373335  0.23983378  1
  Zr  Zr67  1  0.48659409  0.88894062  0.87291321  1
  Zr  Zr68  1  0.51101902  0.89172642  0.62959233  1
  Zr  Zr69  1  0.90361925  0.50145055  0.64234557  1
  Zr  Zr70  1  0.50916925  0.72706654  0.14037929  1
  Zr  Zr71  1  0.90761636  0.29993244  0.63097192  1
  Zr  Zr72  1  0.89915956  0.68972017  0.38268586  1
  Zr  Zr73  1  0.28314576  0.69869521  0.62578252  1
  Zr  Zr74  1  0.89408606  0.09639118  0.37308375  1
  Zr  Zr75  1  0.19279357  -0.01478790  0.76359305  1
  Zr  Zr76  1  0.79724301  0.80449402  0.76151284  1
  Zr  Zr77  1  0.00796155  0.77999077  0.24453015  1
  Zr  Zr78  1  0.60341715  0.39287104  -0.00219433  1
  Zr  Zr79  1  0.01886046  0.63032587  0.74138593  1
  Ta  Ta80  1  0.09663768  0.10338688  0.12021363  1
  Ta  Ta81  1  0.91380481  0.70252201  0.10642396  1
  Ta  Ta82  1  0.70729311  0.89715506  0.35656994  1
  Ta  Ta83  1  0.70897039  0.49712696  0.12230003  1
  Ta  Ta84  1  0.69340193  0.71122208  0.62839829  1
  Ta  Ta85  1  0.69993628  0.29137531  0.62637084  1
  Ta  Ta86  1  0.41145419  0.40582558  0.75364244  1
  Ta  Ta87  1  0.22382464  0.79674423  -0.01314068  1
  Ta  Ta88  1  0.17689664  0.18726172  0.76893251  1
  Ta  Ta89  1  0.11618044  0.70300801  0.11237487  1
  Ta  Ta90  1  0.59830079  0.39933335  0.75669958  1
  Ta  Ta91  1  0.10336785  0.29977556  0.37199363  1
  Ta  Ta92  1  0.17817768  -0.01410525  -0.02031809  1
  Ta  Ta93  1  0.29106637  0.90056730  0.63106515  1
  Ta  Ta94  1  0.40960587  0.60696943  0.73715991  1
  Ta  Ta95  1  0.29751714  0.10489176  0.37354273  1
  Ta  Ta96  1  0.20859104  -0.01149835  0.26326839  1
  Ta  Ta97  1  0.00134237  0.39702845  0.24065851  1
  Ta  Ta98  1  0.18155441  0.78205344  0.76352557  1
  Ta  Ta99  1  0.39515922  0.60371425  0.23735726  1
  Ta  Ta100  1  0.69365499  0.30557211  0.13143339  1
  Ta  Ta101  1  0.48849259  0.11846299  0.37429953  1
  Ta  Ta102  1  0.71334286  0.51690425  0.37678929  1
  Ta  Ta103  1  0.21524685  0.59052085  0.00956143  1
  Ta  Ta104  1  0.10105167  0.09841838  0.61963895  1
  Ta  Ta105  1  0.79156273  0.19444168  0.76460010  1
  Ta  Ta106  1  0.89931685  0.10096920  0.12709329  1
  Ta  Ta107  1  0.60226159  0.20956848  0.76258013  1
  Ta  Ta108  1  0.78367699  0.20436992  0.49414410  1
  Ta  Ta109  1  0.38432559  0.20466352  0.23783800  1
  Ta  Ta110  1  0.80310557  0.19865846  0.24180073  1
  Ta  Ta111  1  0.58729437  0.20269575  0.49411342  1
  Ta  Ta112  1  0.18543862  0.19762025  -0.01355439  1
  Ta  Ta113  1  0.39020863  0.79860422  0.74408714  1
  Ta  Ta114  1  0.19530877  0.59717864  0.49767930  1
  Ta  Ta115  1  0.19607108  0.39259862  0.49330931  1
  Ta  Ta116  1  0.01757069  0.59294540  0.00787922  1
  Ta  Ta117  1  0.28363154  0.70969322  0.37567971  1
  Ta  Ta118  1  0.38270434  0.80924119  0.25898000  1
  Ta  Ta119  1  0.39516467  -0.00055557  0.74939737  1
  Ti  Ti120  1  -0.00374736  0.82010737  0.71501364  1
  Ti  Ti121  1  0.59382633  0.60249082  0.74376720  1
  Ti  Ti122  1  0.59925339  -0.00096270  -0.00630760  1
  Ti  Ti123  1  0.50139196  0.91321215  0.12923508  1
  Ti  Ti124  1  0.30114749  0.88062705  0.12615337  1
  Ti  Ti125  1  0.60296543  0.00500285  0.49489447  1
  Ti  Ti126  1  0.39760304  0.20785454  0.01067064  1
  Ti  Ti127  1  0.80882681  0.80359686  0.50588814  1
  Ti  Ti128  1  0.90914157  0.10874217  0.88116435  1
  Ti  Ti129  1  0.79731846  0.79133284  0.24914644  1
  Ti  Ti130  1  -0.00310203  0.19799807  0.00759408  1
  Ti  Ti131  1  0.19844087  0.61889047  0.24218611  1
  Ti  Ti132  1  0.31457797  0.70180004  0.87015097  1
  Ti  Ti133  1  0.00841074  0.39226723  0.00973706  1
  Ti  Ti134  1  0.30169732  0.29267382  0.36759185  1
  Ti  Ti135  1  0.79257483  0.61150778  0.50921749  1
  Ti  Ti136  1  0.89925998  0.30018635  0.12265777  1
  Ti  Ti137  1  0.20194244  0.38599817  0.25237839  1
  Ti  Ti138  1  0.59238030  0.19809976  0.00823753  1
  Ti  Ti139  1  0.19035843  0.19002389  0.25095843  1
  Ti  Ti140  1  0.11465030  0.87786604  0.37862629  1
  Ti  Ti141  1  0.90849767  0.49896362  0.11721851  1
  Ti  Ti142  1  0.59523159  0.78724505  0.76129392  1
  Ti  Ti143  1  0.38750941  0.20829485  0.49888512  1
  Ti  Ti144  1  0.09583565  0.69643476  0.38312955  1
  Ti  Ti145  1  0.70079502  0.49758365  0.87522200  1
  Ti  Ti146  1  0.79066792  -0.00462782  0.49579698  1
  Ti  Ti147  1  0.70975771  0.90302289  0.62514052  1
  Ti  Ti148  1  0.08988003  0.29416700  0.87514766  1
  Ti  Ti149  1  0.10193956  0.10072175  0.37715612  1
  Ti  Ti150  1  0.19759834  0.39386577  -0.01053776  1
  Ti  Ti151  1  0.49012872  0.30653154  0.88217291  1
  Ti  Ti152  1  0.40768487  0.38827492  0.23776108  1
  Ti  Ti153  1  0.71545582  0.70291003  0.12152467  1
  Ti  Ti154  1  0.58967336  0.80285617  -0.01077483  1
  Ti  Ti155  1  0.51160719  0.49284129  0.13829206  1
  Ti  Ti156  1  0.00310452  0.20546373  0.24401469  1
  Ti  Ti157  1  0.80155428  0.39841080  -0.00054847  1
  Ti  Ti158  1  0.91041972  0.49806178  0.37384811  1
  Ti  Ti159  1  0.02458354  0.80918423  0.00258347  1
  Mo  Mo160  1  0.21438257  0.60122583  0.75324419  1
  Mo  Mo161  1  0.20268383  0.19994997  0.48526387  1
  Mo  Mo162  1  0.09156457  0.87843883  0.87497809  1
  Mo  Mo163  1  0.50414241  0.70300961  0.62765347  1
  Mo  Mo164  1  0.29722687  0.70730926  0.13236091  1
  Mo  Mo165  1  0.40374213  0.80100642  0.00413741  1
  Mo  Mo166  1  0.48407739  0.29662788  0.37151007  1
  Mo  Mo167  1  0.69028556  0.30033799  0.87821276  1
  Mo  Mo168  1  0.68994122  0.89769494  0.87838410  1
  Mo  Mo169  1  0.50348277  0.50211117  0.63369493  1
  Mo  Mo170  1  0.80354094  -0.00141195  0.24292709  1
  Mo  Mo171  1  0.01385450  0.40315410  0.49238528  1
  Mo  Mo172  1  0.59450873  0.00158262  0.24968779  1
  Mo  Mo173  1  0.49490791  0.09996354  0.10729988  1
  Mo  Mo174  1  0.08191217  0.09440696  0.88690122  1
  Mo  Mo175  1  0.30260661  0.50250647  0.14449994  1
  Mo  Mo176  1  0.29768525  0.29992204  0.62188521  1
  Mo  Mo177  1  0.60067866  0.40716315  0.24289287  1
  Mo  Mo178  1  0.88747598  0.71045945  0.61800816  1
  Mo  Mo179  1  0.00074914  0.00789543  0.01044447  1
  Mo  Mo180  1  0.10093365  0.70224865  0.61582638  1
  Mo  Mo181  1  0.11105853  0.89492355  0.62128825  1
  Mo  Mo182  1  0.71084294  0.70579967  0.37862638  1
  Mo  Mo183  1  0.19927576  0.80067642  0.25265759  1
  Mo  Mo184  1  0.49306287  0.29979511  0.11668640  1
  Mo  Mo185  1  0.29537162  0.89027999  0.86220704  1
  Mo  Mo186  1  0.49298923  0.69650974  0.87199636  1
  Mo  Mo187  1  0.69352499  0.10687867  0.88150317  1
  Mo  Mo188  1  0.30284657  0.90282300  0.37488111  1
  Mo  Mo189  1  0.60210445  0.80257763  0.25715642  1
  Mo  Mo190  1  0.67159548  0.69295467  0.87292969  1
  Mo  Mo191  1  0.01369465  0.37872249  0.75572615  1
  Mo  Mo192  1  0.00109844  0.78988939  0.51622845  1
  Mo  Mo193  1  0.12628732  0.68583950  0.90063269  1
  Mo  Mo194  1  0.19140403  0.79753631  0.49930948  1
  Mo  Mo195  1  0.00942718  0.59549049  0.23012681  1
  Mo  Mo196  1  -0.00155930  0.20031402  0.75319121  1
  Mo  Mo197  1  0.08878680  0.28824183  0.12386394  1
  Mo  Mo198  1  0.88646432  0.90224355  0.62005731  1
  Mo  Mo199  1  0.30018620  0.29910660  0.89240550  1
