# generated using pymatgen
data_HfZrTaTiMo
_symmetry_space_group_name_H-M   'P 1'
_cell_length_a   15.22012580
_cell_length_b   15.20515227
_cell_length_c   16.83633405
_cell_angle_alpha   89.98189827
_cell_angle_beta   90.02798426
_cell_angle_gamma   90.01423573
_symmetry_Int_Tables_number   1
_chemical_formula_structural   HfZrTaTiMo
_chemical_formula_sum   'Hf40 Zr40 Ta40 Ti40 Mo40'
_cell_volume   3896.33655244
_cell_formula_units_Z   40
loop_
 _symmetry_equiv_pos_site_id
 _symmetry_equiv_pos_as_xyz
  1  'x, y, z'
loop_
 _atom_site_type_symbol
 _atom_site_label
 _atom_site_symmetry_multiplicity
 _atom_site_fract_x
 _atom_site_fract_y
 _atom_site_fract_z
 _atom_site_occupancy
  Hf  Hf0  1  0.89487929  0.31889372  0.85861152  1
  Hf  Hf1  1  0.20145346  0.80588915  0.75261103  1
  Hf  Hf2  1  0.90621551  0.68634564  0.87091863  1
  Hf  Hf3  1  -0.00176553  0.60188828  0.49502776  1
  Hf  Hf4  1  0.09467156  0.09556885  0.11469803  1
  Hf  Hf5  1  0.79136321  0.59464801  0.73914550  1
  Hf  Hf6  1  0.19192068  0.20261651  0.49016528  1
  Hf  Hf7  1  -0.01330854  0.21256917  0.00927812  1
  Hf  Hf8  1  0.39906681  -0.00595312  0.25064161  1
  Hf  Hf9  1  0.79529939  0.39651035  -0.00127238  1
  Hf  Hf10  1  0.21224013  0.01142460  0.48400780  1
  Hf  Hf11  1  0.59938341  0.59395885  0.24083298  1
  Hf  Hf12  1  0.21510267  0.79389755  0.49575232  1
  Hf  Hf13  1  0.79047272  0.20095931  -0.00100254  1
  Hf  Hf14  1  0.01289801  -0.02180039  0.76228963  1
  Hf  Hf15  1  0.70847585  0.69495843  0.11530981  1
  Hf  Hf16  1  0.19748097  0.60202325  -0.00714474  1
  Hf  Hf17  1  0.70015261  0.90553545  0.63773438  1
  Hf  Hf18  1  0.20405180  0.00818413  0.26466605  1
  Hf  Hf19  1  0.80484561  0.79189568  0.51473155  1
  Hf  Hf20  1  0.69166235  0.70104585  0.86621628  1
  Hf  Hf21  1  0.31946422  0.69171089  0.86742355  1
  Hf  Hf22  1  0.89472572  0.50104922  0.13294584  1
  Hf  Hf23  1  0.50718581  0.10649393  0.86572709  1
  Hf  Hf24  1  0.00276397  0.59790538  0.26857751  1
  Hf  Hf25  1  -0.00276057  -0.01413275  -0.01177866  1
  Hf  Hf26  1  0.20126613  0.40748704  0.48985702  1
  Hf  Hf27  1  0.79663956  0.00756940  0.50761373  1
  Hf  Hf28  1  0.78619115  0.59742625  0.51873000  1
  Hf  Hf29  1  0.31987218  0.50154487  0.36309979  1
  Hf  Hf30  1  0.00528405  0.00363320  0.25605976  1
  Hf  Hf31  1  0.80928926  0.80619387  -0.01223398  1
  Hf  Hf32  1  0.89809370  0.10617039  0.86568287  1
  Hf  Hf33  1  0.10237358  0.30443111  0.88245190  1
  Hf  Hf34  1  0.60562429  0.80706716  0.00125682  1
  Hf  Hf35  1  0.60708856  0.20959732  0.51495121  1
  Hf  Hf36  1  0.89489808  0.88983705  0.38251283  1
  Hf  Hf37  1  0.70077919  0.11103545  0.36939884  1
  Hf  Hf38  1  0.70667496  0.09793597  0.13370056  1
  Hf  Hf39  1  0.09478535  0.90049563  0.39028469  1
  Zr  Zr40  1  0.19699165  0.39914442  0.75672750  1
  Zr  Zr41  1  0.78138585  0.39364372  0.51485598  1
  Zr  Zr42  1  0.59167746  0.39683956  -0.00213696  1
  Zr  Zr43  1  0.38442407  0.39049153  0.00041467  1
  Zr  Zr44  1  0.88790567  0.28770139  0.37610184  1
  Zr  Zr45  1  0.09598819  0.31929115  0.12734346  1
  Zr  Zr46  1  -0.02768093  0.20128406  0.23228135  1
  Zr  Zr47  1  0.19552413  0.19973218  0.24780324  1
  Zr  Zr48  1  0.69411110  0.30565880  0.36285465  1
  Zr  Zr49  1  0.40748656  -0.00323959  0.50080931  1
  Zr  Zr50  1  0.01157205  0.20107566  0.75098452  1
  Zr  Zr51  1  0.30247195  0.51898913  0.63509257  1
  Zr  Zr52  1  0.10987185  0.10335159  0.88570948  1
  Zr  Zr53  1  0.50326683  0.88627853  0.85652873  1
  Zr  Zr54  1  0.59449397  -0.00351672  0.25194327  1
  Zr  Zr55  1  0.30812706  0.29490946  0.36726498  1
  Zr  Zr56  1  0.59978852  0.00456474  0.00322760  1
  Zr  Zr57  1  0.88379731  0.49917864  0.37350281  1
  Zr  Zr58  1  0.60098746  0.78675532  0.25232489  1
  Zr  Zr59  1  0.30588088  0.10881782  0.87998365  1
  Zr  Zr60  1  -0.00480775  0.79458249  0.25416969  1
  Zr  Zr61  1  0.50079411  0.30798556  0.37168871  1
  Zr  Zr62  1  0.09899191  0.89596147  0.61021423  1
  Zr  Zr63  1  0.69804379  0.89700257  0.37887737  1
  Zr  Zr64  1  0.11620392  0.69201554  0.62462993  1
  Zr  Zr65  1  -0.00414190  0.39228823  0.49508697  1
  Zr  Zr66  1  0.39723294  0.21778429  0.74657812  1
  Zr  Zr67  1  0.10760078  0.09824420  0.62471913  1
  Zr  Zr68  1  0.40332392  0.20169880  0.51186190  1
  Zr  Zr69  1  0.00340652  0.59230942  0.74454119  1
  Zr  Zr70  1  0.91025488  0.69501061  0.11557958  1
  Zr  Zr71  1  0.68068783  0.50823677  0.37543575  1
  Zr  Zr72  1  0.28865122  0.50428240  0.13144567  1
  Zr  Zr73  1  0.20989368  0.80634535  0.26131140  1
  Zr  Zr74  1  0.01641422  0.79284939  -0.00987856  1
  Zr  Zr75  1  0.31725840  0.70979390  0.13519608  1
  Zr  Zr76  1  0.50699495  0.88727027  0.63085773  1
  Zr  Zr77  1  0.40194905  -0.01421718  0.00272981  1
  Zr  Zr78  1  0.79734477  -0.00165663  -0.00796204  1
  Zr  Zr79  1  0.21586679  0.80590368  -0.00564867  1
  Ta  Ta80  1  0.20258097  -0.00478975  0.00241529  1
  Ta  Ta81  1  0.09808906  0.30386682  0.62247013  1
  Ta  Ta82  1  0.41511455  0.78198686  -0.00194865  1
  Ta  Ta83  1  0.40361141  0.41528720  0.50458071  1
  Ta  Ta84  1  0.80294415  0.58730256  -0.01317823  1
  Ta  Ta85  1  0.30197140  0.89883539  0.62782863  1
  Ta  Ta86  1  0.58362571  0.20100389  0.23579322  1
  Ta  Ta87  1  0.57495984  0.60299645  0.74833801  1
  Ta  Ta88  1  0.48804449  0.88003675  0.13134880  1
  Ta  Ta89  1  0.30160924  0.09235833  0.12022249  1
  Ta  Ta90  1  0.21659371  0.21484042  0.01311221  1
  Ta  Ta91  1  0.69842884  0.10489973  0.85424137  1
  Ta  Ta92  1  0.18765861  0.40811501  -0.00267854  1
  Ta  Ta93  1  0.10169357  0.49392931  0.62274130  1
  Ta  Ta94  1  0.90520179  0.09595418  0.63255842  1
  Ta  Ta95  1  0.60276908  0.21973564  0.74226680  1
  Ta  Ta96  1  0.50823455  0.67758184  0.39026184  1
  Ta  Ta97  1  0.21204491  0.59909297  0.48483148  1
  Ta  Ta98  1  0.40584483  0.39494869  0.22940218  1
  Ta  Ta99  1  0.41226398  0.19843531  0.01526070  1
  Ta  Ta100  1  0.09101687  0.51392917  0.12663689  1
  Ta  Ta101  1  0.59942559  0.00813716  0.50186358  1
  Ta  Ta102  1  0.69428376  0.49656651  0.86425507  1
  Ta  Ta103  1  0.10878878  0.89553951  0.12805847  1
  Ta  Ta104  1  0.08965618  0.29746573  0.36724960  1
  Ta  Ta105  1  0.81095509  0.00293563  0.25036120  1
  Ta  Ta106  1  0.69775914  0.30131371  0.13285444  1
  Ta  Ta107  1  0.90125009  0.90543039  0.12903864  1
  Ta  Ta108  1  0.29584658  0.31080441  0.62163777  1
  Ta  Ta109  1  0.11155043  0.69629417  0.12984645  1
  Ta  Ta110  1  0.70621156  0.10866118  0.64267781  1
  Ta  Ta111  1  0.39617012  -0.00171987  0.74337029  1
  Ta  Ta112  1  0.19657757  0.60336575  0.26583111  1
  Ta  Ta113  1  0.90978686  0.89801539  0.62468658  1
  Ta  Ta114  1  0.89785583  0.29310550  0.63473754  1
  Ta  Ta115  1  0.48639959  0.50735010  0.87660990  1
  Ta  Ta116  1  0.51004668  0.09756582  0.63862996  1
  Ta  Ta117  1  0.70187968  0.90455910  0.85287915  1
  Ta  Ta118  1  0.81075063  -0.00038114  0.74895438  1
  Ta  Ta119  1  0.90203018  0.48988359  0.62819787  1
  Ti  Ti120  1  0.59104157  0.60440887  -0.00654144  1
  Ti  Ti121  1  0.70827604  0.89373634  0.13506553  1
  Ti  Ti122  1  0.68737259  0.29750926  0.86789816  1
  Ti  Ti123  1  0.31939357  0.70229234  0.36829943  1
  Ti  Ti124  1  0.41272981  0.77617460  0.73662102  1
  Ti  Ti125  1  0.09767852  0.70261253  0.38485765  1
  Ti  Ti126  1  0.90158994  0.10205380  0.38033505  1
  Ti  Ti127  1  -0.01243078  0.41882625  0.00012316  1
  Ti  Ti128  1  0.29215652  0.49618269  0.86870783  1
  Ti  Ti129  1  0.30506393  0.90172946  0.86744627  1
  Ti  Ti130  1  0.67125907  0.49276467  0.63778905  1
  Ti  Ti131  1  0.59062474  0.40307658  0.23442809  1
  Ti  Ti132  1  0.70883673  0.70209609  0.38207558  1
  Ti  Ti133  1  0.07879332  0.50263062  0.87367007  1
  Ti  Ti134  1  0.50153298  0.32505975  0.63313493  1
  Ti  Ti135  1  0.20725845  0.20333546  0.74859201  1
  Ti  Ti136  1  0.41358011  0.60429571  0.24742101  1
  Ti  Ti137  1  0.10788129  0.69797924  0.86310353  1
  Ti  Ti138  1  0.80603736  0.19930992  0.51355621  1
  Ti  Ti139  1  0.20804210  0.00514094  0.75332342  1
  Ti  Ti140  1  0.39805948  0.19462284  0.23006528  1
  Ti  Ti141  1  0.80172666  0.62276183  0.25642832  1
  Ti  Ti142  1  -0.00086764  0.40400488  0.25689711  1
  Ti  Ti143  1  0.49347531  0.51091606  0.11071486  1
  Ti  Ti144  1  -0.00146956  0.01501012  0.49735702  1
  Ti  Ti145  1  0.59563007  0.20285324  0.00654899  1
  Ti  Ti146  1  0.69972799  0.50068332  0.12011189  1
  Ti  Ti147  1  0.78234282  0.39210784  0.73883949  1
  Ti  Ti148  1  0.91392791  0.70317639  0.63101516  1
  Ti  Ti149  1  0.49204320  0.10551493  0.37540697  1
  Ti  Ti150  1  0.58706516  0.41586826  0.50373405  1
  Ti  Ti151  1  0.67998424  0.70346497  0.63415649  1
  Ti  Ti152  1  0.50138358  0.88348487  0.38239751  1
  Ti  Ti153  1  0.81391589  0.79958599  0.74726277  1
  Ti  Ti154  1  0.19401284  0.40788131  0.25675273  1
  Ti  Ti155  1  0.79772230  0.39445821  0.24187358  1
  Ti  Ti156  1  0.60093833  0.79186358  0.50261335  1
  Ti  Ti157  1  0.30350086  0.10198343  0.62811760  1
  Ti  Ti158  1  0.40540645  0.78108212  0.51005579  1
  Ti  Ti159  1  0.31642896  0.89651254  0.37979831  1
  Mo  Mo160  1  0.49939561  0.49523905  0.36809160  1
  Mo  Mo161  1  0.29828885  0.30235680  0.88334319  1
  Mo  Mo162  1  0.00504171  0.58975200  -0.00569308  1
  Mo  Mo163  1  0.41453545  0.79695014  0.26399665  1
  Mo  Mo164  1  0.88838405  0.69910153  0.38185946  1
  Mo  Mo165  1  -0.00225329  0.79608125  0.50066873  1
  Mo  Mo166  1  0.50783607  0.69309280  0.12048181  1
  Mo  Mo167  1  0.89977192  0.89033851  0.86086164  1
  Mo  Mo168  1  -0.00246410  0.39945359  0.73890199  1
  Mo  Mo169  1  0.50571203  0.69368642  0.87476262  1
  Mo  Mo170  1  0.08501139  0.11140107  0.37956113  1
  Mo  Mo171  1  0.39396983  0.59399004  0.75216859  1
  Mo  Mo172  1  0.11648558  0.89951738  0.87403922  1
  Mo  Mo173  1  0.10671109  0.49846860  0.37307654  1
  Mo  Mo174  1  0.31242184  0.10506739  0.36929128  1
  Mo  Mo175  1  0.78953940  0.19685227  0.24311206  1
  Mo  Mo176  1  0.80029508  0.80406226  0.24540844  1
  Mo  Mo177  1  0.29907417  0.90118999  0.12702536  1
  Mo  Mo178  1  0.50034972  0.30097431  0.12563738  1
  Mo  Mo179  1  0.40282658  0.40167732  0.76204669  1
  Mo  Mo180  1  -0.00684315  0.19541120  0.50638919  1
  Mo  Mo181  1  0.60013732  0.00619517  0.74884652  1
  Mo  Mo182  1  0.19843719  0.59886621  0.76349485  1
  Mo  Mo183  1  0.79947257  0.20363522  0.74711460  1
  Mo  Mo184  1  0.40379224  0.59452356  0.00030132  1
  Mo  Mo185  1  0.49972487  0.09616690  0.12412010  1
  Mo  Mo186  1  0.69407955  0.30421655  0.62913790  1
  Mo  Mo187  1  -0.00139886  0.79663550  0.75457521  1
  Mo  Mo188  1  0.49389188  0.68338985  0.61372207  1
  Mo  Mo189  1  0.49876164  0.29999704  0.87488324  1
  Mo  Mo190  1  0.30393283  0.70900810  0.62935042  1
  Mo  Mo191  1  0.88653523  0.30896794  0.12718671  1
  Mo  Mo192  1  0.49350540  0.49839474  0.63114437  1
  Mo  Mo193  1  0.89675472  0.09099734  0.12059370  1
  Mo  Mo194  1  0.88729080  0.49577364  0.86569624  1
  Mo  Mo195  1  0.59342512  0.59953449  0.51278858  1
  Mo  Mo196  1  0.60693642  0.79158902  0.74614253  1
  Mo  Mo197  1  0.39545687  0.59968585  0.49660902  1
  Mo  Mo198  1  0.59014273  0.40446896  0.76360079  1
  Mo  Mo199  1  0.29499625  0.29984555  0.13283122  1
