# generated using pymatgen
data_HfZrTaTiMo
_symmetry_space_group_name_H-M   'P 1'
_cell_length_a   15.20860584
_cell_length_b   15.20843049
_cell_length_c   16.86142646
_cell_angle_alpha   90.03877841
_cell_angle_beta   90.03554402
_cell_angle_gamma   89.87329474
_symmetry_Int_Tables_number   1
_chemical_formula_structural   HfZrTaTiMo
_chemical_formula_sum   'Hf40 Zr40 Ta40 Ti40 Mo40'
_cell_volume   3900.02032078
_cell_formula_units_Z   40
loop_
 _symmetry_equiv_pos_site_id
 _symmetry_equiv_pos_as_xyz
  1  'x, y, z'
loop_
 _atom_site_type_symbol
 _atom_site_label
 _atom_site_symmetry_multiplicity
 _atom_site_fract_x
 _atom_site_fract_y
 _atom_site_fract_z
 _atom_site_occupancy
  Hf  Hf0  1  0.91168764  0.69169611  0.63120859  1
  Hf  Hf1  1  0.48719742  0.50651671  0.87235363  1
  Hf  Hf2  1  0.30242574  0.49620031  0.13274026  1
  Hf  Hf3  1  0.21110088  0.81108712  0.49354789  1
  Hf  Hf4  1  0.11282531  0.10383395  0.88597540  1
  Hf  Hf5  1  0.79761298  0.40392328  -0.01029676  1
  Hf  Hf6  1  0.58893990  0.00924809  0.73604611  1
  Hf  Hf7  1  0.50195419  0.71281286  0.87359421  1
  Hf  Hf8  1  0.40196608  0.79322222  0.73727773  1
  Hf  Hf9  1  0.40248868  0.17564416  0.74372837  1
  Hf  Hf10  1  0.09283626  0.10654568  0.11526542  1
  Hf  Hf11  1  0.29769568  0.69476045  0.87182369  1
  Hf  Hf12  1  0.81770135  0.80654793  0.50281429  1
  Hf  Hf13  1  0.39241229  0.39669732  0.00016979  1
  Hf  Hf14  1  0.20014937  0.59177855  0.25447800  1
  Hf  Hf15  1  0.20000156  0.39386626  0.51794232  1
  Hf  Hf16  1  0.39899486  -0.01238451  0.48385993  1
  Hf  Hf17  1  0.19250416  0.61474895  0.50837063  1
  Hf  Hf18  1  0.61989494  0.79391294  0.73651446  1
  Hf  Hf19  1  0.59861747  0.81027408  0.27368613  1
  Hf  Hf20  1  0.61322932  0.19128764  0.50320575  1
  Hf  Hf21  1  0.49902233  0.88418850  0.13846404  1
  Hf  Hf22  1  0.29825385  0.89800830  0.87062955  1
  Hf  Hf23  1  0.11394091  0.29631982  0.38314076  1
  Hf  Hf24  1  0.07323776  0.51659615  0.61908337  1
  Hf  Hf25  1  0.00403719  0.19202615  0.74531693  1
  Hf  Hf26  1  0.60201258  0.40150947  0.75062444  1
  Hf  Hf27  1  0.19704941  0.40897560  0.72403032  1
  Hf  Hf28  1  0.10534433  0.31022605  0.86625899  1
  Hf  Hf29  1  0.79633180  0.01920672  0.51715381  1
  Hf  Hf30  1  0.79593202  0.40579678  0.76392667  1
  Hf  Hf31  1  0.49781836  0.50824328  0.13863519  1
  Hf  Hf32  1  0.89475909  0.08886083  0.12503288  1
  Hf  Hf33  1  0.90191277  0.10078750  0.88015637  1
  Hf  Hf34  1  0.58912542  0.60993461  0.26538406  1
  Hf  Hf35  1  0.19190422  0.00996342  0.24937612  1
  Hf  Hf36  1  -0.00924701  0.58887980  0.24331043  1
  Hf  Hf37  1  0.50624933  0.09709816  0.37313043  1
  Hf  Hf38  1  0.59924133  0.19688648  0.02362558  1
  Hf  Hf39  1  0.79244118  0.19667710  0.24138944  1
  Zr  Zr40  1  0.49588465  0.92265308  0.87069675  1
  Zr  Zr41  1  0.89851406  0.48979069  0.11918056  1
  Zr  Zr42  1  0.08327132  0.10213479  0.38232283  1
  Zr  Zr43  1  0.70521218  0.89192684  0.87330792  1
  Zr  Zr44  1  0.50309553  0.27758764  0.87537039  1
  Zr  Zr45  1  0.27574972  0.49869035  0.87141453  1
  Zr  Zr46  1  0.90488103  0.89620313  0.13746143  1
  Zr  Zr47  1  -0.00944420  -0.00714557  0.50250894  1
  Zr  Zr48  1  0.51584993  0.69452169  0.60294984  1
  Zr  Zr49  1  0.80013326  0.00658471  0.73769990  1
  Zr  Zr50  1  0.39392847  0.38812803  0.26918085  1
  Zr  Zr51  1  0.68738924  0.10057896  0.87947173  1
  Zr  Zr52  1  0.91202648  0.51547827  0.87386646  1
  Zr  Zr53  1  0.59508432  0.60662734  0.00457702  1
  Zr  Zr54  1  0.58666220  0.59518873  0.74423435  1
  Zr  Zr55  1  0.88744685  0.69428821  0.12623357  1
  Zr  Zr56  1  0.01031919  0.79233549  0.75311627  1
  Zr  Zr57  1  0.39360552  0.18742632  0.01367878  1
  Zr  Zr58  1  0.29688200  0.90783168  0.62857418  1
  Zr  Zr59  1  0.31403212  0.69940069  0.14004916  1
  Zr  Zr60  1  0.10307919  0.09047617  0.62191447  1
  Zr  Zr61  1  0.09971623  0.68457568  0.88165716  1
  Zr  Zr62  1  -0.00009695  0.80095489  0.00006481  1
  Zr  Zr63  1  0.71072779  0.49828086  0.37987784  1
  Zr  Zr64  1  0.40002315  0.39568015  0.74169800  1
  Zr  Zr65  1  0.40781193  0.80186716  0.00511333  1
  Zr  Zr66  1  0.70999333  0.31811857  0.61266329  1
  Zr  Zr67  1  0.68370600  0.71784466  0.12578566  1
  Zr  Zr68  1  -0.02401334  0.39991710  0.49517234  1
  Zr  Zr69  1  0.01585650  0.39131005  -0.00395125  1
  Zr  Zr70  1  0.28941948  0.11253362  0.37777332  1
  Zr  Zr71  1  0.78458744  0.61285380  0.74290589  1
  Zr  Zr72  1  0.29463151  0.28639389  0.87139957  1
  Zr  Zr73  1  0.70369687  0.92104470  0.38320881  1
  Zr  Zr74  1  0.60515570  0.01867463  0.23620968  1
  Zr  Zr75  1  0.70326595  0.70276138  0.39398790  1
  Zr  Zr76  1  0.60163674  0.40491634  -0.00232120  1
  Zr  Zr77  1  0.01541626  0.79486969  0.50306073  1
  Zr  Zr78  1  0.59830008  -0.00651502  0.01718690  1
  Zr  Zr79  1  0.08726012  0.50625827  0.38395022  1
  Ta  Ta80  1  0.70389677  0.29276612  0.87533002  1
  Ta  Ta81  1  0.88115826  0.49092856  0.62970200  1
  Ta  Ta82  1  0.49338293  0.30573411  0.13363384  1
  Ta  Ta83  1  0.39448397  0.60077188  0.00286978  1
  Ta  Ta84  1  0.69790620  0.89507840  0.61431732  1
  Ta  Ta85  1  0.10253119  0.70807681  0.36321335  1
  Ta  Ta86  1  0.39875818  0.19113881  0.24508370  1
  Ta  Ta87  1  0.79782646  0.20354089  0.74312530  1
  Ta  Ta88  1  0.49311630  0.09744278  0.60657435  1
  Ta  Ta89  1  0.81003799  0.40001909  0.25325528  1
  Ta  Ta90  1  0.29233328  0.48919430  0.38801593  1
  Ta  Ta91  1  0.10986864  0.47996980  0.13010835  1
  Ta  Ta92  1  0.81870595  0.59193811  0.50129851  1
  Ta  Ta93  1  0.90548527  0.90299631  0.86528546  1
  Ta  Ta94  1  0.39102771  0.59497923  0.50243963  1
  Ta  Ta95  1  0.20216008  0.80211152  0.00994595  1
  Ta  Ta96  1  0.88823187  0.71187669  0.87212941  1
  Ta  Ta97  1  0.90589889  0.68860990  0.36864592  1
  Ta  Ta98  1  0.90790079  0.30128897  0.63233466  1
  Ta  Ta99  1  0.90779044  0.89790951  0.35813341  1
  Ta  Ta100  1  0.70533570  0.29565971  0.37541283  1
  Ta  Ta101  1  0.10614711  0.69628425  0.12663219  1
  Ta  Ta102  1  0.29882624  0.90034525  0.14343928  1
  Ta  Ta103  1  0.60546503  0.20041719  0.73540475  1
  Ta  Ta104  1  0.91046034  0.29009050  0.12265187  1
  Ta  Ta105  1  0.10136496  0.89901285  0.36018897  1
  Ta  Ta106  1  0.10631547  0.90351896  0.87122893  1
  Ta  Ta107  1  0.49430290  0.49930123  0.38519930  1
  Ta  Ta108  1  0.70476826  0.50940324  0.14194775  1
  Ta  Ta109  1  0.70061333  0.69644920  0.88161260  1
  Ta  Ta110  1  0.20620890  0.01079982  0.75451603  1
  Ta  Ta111  1  0.50176827  0.29478259  0.61783951  1
  Ta  Ta112  1  0.70631737  0.31399477  0.12984602  1
  Ta  Ta113  1  0.28300994  0.30488314  0.12947078  1
  Ta  Ta114  1  0.00704195  0.38433953  0.25312988  1
  Ta  Ta115  1  0.30191804  0.69269955  0.36905749  1
  Ta  Ta116  1  0.49957614  0.90266904  0.61705091  1
  Ta  Ta117  1  0.68722803  0.51540770  0.60069946  1
  Ta  Ta118  1  0.60361961  0.39594584  0.25964603  1
  Ta  Ta119  1  0.80128308  0.20317750  0.00743234  1
  Ti  Ti120  1  0.39881996  -0.00049086  0.01627915  1
  Ti  Ti121  1  0.80310395  -0.00248100  -0.00135242  1
  Ti  Ti122  1  0.19717959  0.59064303  0.00903660  1
  Ti  Ti123  1  0.30164142  0.89616236  0.35200887  1
  Ti  Ti124  1  0.59110336  0.39115978  0.48487034  1
  Ti  Ti125  1  0.49369673  0.48583776  0.60313809  1
  Ti  Ti126  1  0.18970108  0.21768193  0.00931222  1
  Ti  Ti127  1  0.10563959  0.89714036  0.64266118  1
  Ti  Ti128  1  0.59206165  0.81467546  0.48796447  1
  Ti  Ti129  1  0.79939791  0.79317523  0.25878421  1
  Ti  Ti130  1  0.70684983  0.10811644  0.37354870  1
  Ti  Ti131  1  0.00041256  0.19227259  0.25043295  1
  Ti  Ti132  1  0.59580311  0.21017484  0.23979215  1
  Ti  Ti133  1  0.30126565  0.10170104  0.60761182  1
  Ti  Ti134  1  0.79476896  0.60147714  -0.00478404  1
  Ti  Ti135  1  0.00513761  -0.00557836  -0.00364397  1
  Ti  Ti136  1  0.00400112  0.59722335  0.00986569  1
  Ti  Ti137  1  0.19038841  0.61635225  0.72907125  1
  Ti  Ti138  1  0.00895229  0.79499824  0.24496658  1
  Ti  Ti139  1  0.90215151  0.29334078  0.87416134  1
  Ti  Ti140  1  0.40296491  0.21507846  0.48728591  1
  Ti  Ti141  1  0.40926598  0.78537171  0.26619784  1
  Ti  Ti142  1  0.89147791  0.09173936  0.36430321  1
  Ti  Ti143  1  0.29669168  0.09795121  0.13241058  1
  Ti  Ti144  1  0.19408292  0.00039156  0.49089142  1
  Ti  Ti145  1  0.19671396  0.21762105  0.24701910  1
  Ti  Ti146  1  0.38301251  0.59329473  0.71966479  1
  Ti  Ti147  1  0.90097202  0.29087381  0.37151494  1
  Ti  Ti148  1  0.39953952  0.79490895  0.49066856  1
  Ti  Ti149  1  0.20747070  -0.00592393  0.00762531  1
  Ti  Ti150  1  0.10521107  0.89903860  0.13142159  1
  Ti  Ti151  1  0.20450064  0.20471609  0.73285559  1
  Ti  Ti152  1  0.79453135  0.80438249  0.00066608  1
  Ti  Ti153  1  0.71611414  0.91091744  0.13276705  1
  Ti  Ti154  1  0.00042443  0.40512761  0.74962979  1
  Ti  Ti155  1  0.31130260  0.29425008  0.61624679  1
  Ti  Ti156  1  0.00805699  0.20279581  0.51655218  1
  Ti  Ti157  1  0.90983140  0.90588546  0.64218945  1
  Ti  Ti158  1  0.31556523  0.08831909  0.88059220  1
  Ti  Ti159  1  0.81863002  0.20723614  0.50413773  1
  Mo  Mo160  1  -0.00076415  -0.00027175  0.25115830  1
  Mo  Mo161  1  0.39502366  0.00260118  0.73845902  1
  Mo  Mo162  1  0.20125183  0.40102925  0.00425657  1
  Mo  Mo163  1  -0.00764152  0.60942402  0.49388238  1
  Mo  Mo164  1  -0.00470791  0.19559191  -0.00512166  1
  Mo  Mo165  1  0.30262791  0.70451244  0.61976721  1
  Mo  Mo166  1  0.79850002  0.39218728  0.49322337  1
  Mo  Mo167  1  0.49671400  0.10029815  0.87717201  1
  Mo  Mo168  1  0.89606653  0.49392233  0.36529873  1
  Mo  Mo169  1  0.49381625  0.69701327  0.13362838  1
  Mo  Mo170  1  0.30287714  0.29714480  0.38161852  1
  Mo  Mo171  1  0.39656598  -0.00239382  0.25153410  1
  Mo  Mo172  1  0.20494588  0.80152811  0.75266054  1
  Mo  Mo173  1  0.59728040  0.59614473  0.48958172  1
  Mo  Mo174  1  0.10919018  0.71278778  0.62833724  1
  Mo  Mo175  1  0.48879669  0.09942411  0.13817071  1
  Mo  Mo176  1  0.20318890  0.19903621  0.51575121  1
  Mo  Mo177  1  0.09638060  0.30078352  0.63043492  1
  Mo  Mo178  1  0.59676102  -0.00070064  0.50743098  1
  Mo  Mo179  1  0.49340374  0.69956151  0.39555032  1
  Mo  Mo180  1  0.69774831  0.10891163  0.62542839  1
  Mo  Mo181  1  0.90079471  0.10924419  0.62927994  1
  Mo  Mo182  1  0.19496113  0.39551457  0.25940940  1
  Mo  Mo183  1  -0.00107132  0.59220443  0.75198537  1
  Mo  Mo184  1  0.79594862  0.60190663  0.25184813  1
  Mo  Mo185  1  0.10305178  0.50402097  0.86598656  1
  Mo  Mo186  1  0.30209183  0.50345907  0.61223062  1
  Mo  Mo187  1  0.70787361  0.70522568  0.59922696  1
  Mo  Mo188  1  0.69688672  0.50539589  0.87746930  1
  Mo  Mo189  1  0.39983384  0.59382268  0.27426075  1
  Mo  Mo190  1  0.80253778  0.80502540  0.74266537  1
  Mo  Mo191  1  0.19828461  0.79844904  0.24850377  1
  Mo  Mo192  1  0.51050004  0.29228707  0.36863145  1
  Mo  Mo193  1  0.60745461  0.80288392  0.00082255  1
  Mo  Mo194  1  0.70598910  0.10498692  0.11791570  1
  Mo  Mo195  1  0.09609624  0.29475273  0.13166552  1
  Mo  Mo196  1  0.01029689  -0.00170818  0.76028161  1
  Mo  Mo197  1  0.40226810  0.39305014  0.49202609  1
  Mo  Mo198  1  0.49170770  0.90215081  0.36937837  1
  Mo  Mo199  1  0.80165958  0.00022780  0.25574712  1
