# generated using pymatgen
data_HfZrTaTiMo
_symmetry_space_group_name_H-M   'P 1'
_cell_length_a   15.21809080
_cell_length_b   15.21841309
_cell_length_c   16.86170157
_cell_angle_alpha   90.01512802
_cell_angle_beta   90.01028678
_cell_angle_gamma   89.92676795
_symmetry_Int_Tables_number   1
_chemical_formula_structural   HfZrTaTiMo
_chemical_formula_sum   'Hf40 Zr40 Ta40 Ti40 Mo40'
_cell_volume   3905.08562841
_cell_formula_units_Z   40
loop_
 _symmetry_equiv_pos_site_id
 _symmetry_equiv_pos_as_xyz
  1  'x, y, z'
loop_
 _atom_site_type_symbol
 _atom_site_label
 _atom_site_symmetry_multiplicity
 _atom_site_fract_x
 _atom_site_fract_y
 _atom_site_fract_z
 _atom_site_occupancy
  Hf  Hf0  1  0.69337080  0.29762315  0.63052253  1
  Hf  Hf1  1  0.30543967  0.29342834  0.86548813  1
  Hf  Hf2  1  0.10254430  0.71896852  0.88533506  1
  Hf  Hf3  1  0.89485903  0.69711458  0.11408469  1
  Hf  Hf4  1  0.80139809  0.18557758  0.24291783  1
  Hf  Hf5  1  0.39433515  0.59723493  0.49708013  1
  Hf  Hf6  1  0.10328791  0.10308545  0.88343131  1
  Hf  Hf7  1  0.01271745  0.20901154  0.75558061  1
  Hf  Hf8  1  0.39459621  0.40377743  -0.00382725  1
  Hf  Hf9  1  0.10083486  0.49973155  0.88212058  1
  Hf  Hf10  1  0.49521162  0.50354533  0.11672607  1
  Hf  Hf11  1  0.78898083  0.79876060  0.24245538  1
  Hf  Hf12  1  0.18619465  -0.01373538  0.74394877  1
  Hf  Hf13  1  0.60223029  0.39957289  0.77456014  1
  Hf  Hf14  1  0.38719902  0.18890080  0.00740689  1
  Hf  Hf15  1  0.09389854  0.50084155  0.12099563  1
  Hf  Hf16  1  0.30337793  0.30213292  0.13749300  1
  Hf  Hf17  1  0.77237941  0.80616827  0.01776115  1
  Hf  Hf18  1  0.29266412  0.89300986  0.87595062  1
  Hf  Hf19  1  0.60396390  0.59827314  0.75980525  1
  Hf  Hf20  1  0.90096276  0.28646532  0.62209025  1
  Hf  Hf21  1  0.10241599  0.51150409  0.37461558  1
  Hf  Hf22  1  0.11357992  0.30222088  0.37548377  1
  Hf  Hf23  1  0.50248645  0.71199786  0.87160210  1
  Hf  Hf24  1  0.08736559  0.09532726  0.61892176  1
  Hf  Hf25  1  0.78423696  -0.01653442  0.74217797  1
  Hf  Hf26  1  0.68955044  0.90367401  0.38774357  1
  Hf  Hf27  1  0.30163459  0.90976287  0.13210518  1
  Hf  Hf28  1  -0.00283957  0.81363339  0.74441415  1
  Hf  Hf29  1  0.21327337  0.19653571  0.50619022  1
  Hf  Hf30  1  0.88304091  0.70915838  0.88609036  1
  Hf  Hf31  1  0.88973048  0.52405292  0.38752994  1
  Hf  Hf32  1  0.81347786  0.18671493  0.76276129  1
  Hf  Hf33  1  0.89169588  0.50644528  0.61782447  1
  Hf  Hf34  1  0.51482564  0.09550593  0.63003349  1
  Hf  Hf35  1  0.41838946  0.20862939  0.50231820  1
  Hf  Hf36  1  0.10675909  0.10235636  0.12160308  1
  Hf  Hf37  1  0.50187111  0.48604499  0.63463991  1
  Hf  Hf38  1  0.30228718  0.49894744  0.63219255  1
  Hf  Hf39  1  0.29960864  0.89612757  0.36863994  1
  Zr  Zr40  1  0.00426569  0.20178384  0.26048319  1
  Zr  Zr41  1  0.39931469  0.00109484  0.50957676  1
  Zr  Zr42  1  0.84390174  0.19301582  0.00316551  1
  Zr  Zr43  1  0.31424211  0.30681593  0.35546567  1
  Zr  Zr44  1  -0.00441164  0.60716262  0.76032010  1
  Zr  Zr45  1  0.09217446  0.51068686  0.62506482  1
  Zr  Zr46  1  0.50039161  0.09395285  0.11356673  1
  Zr  Zr47  1  0.50165377  0.69817269  0.62584708  1
  Zr  Zr48  1  0.70814136  0.69387723  0.38977707  1
  Zr  Zr49  1  0.19873571  0.39536744  0.00146659  1
  Zr  Zr50  1  0.00084602  0.60333309  0.00123110  1
  Zr  Zr51  1  0.00011099  -0.00017029  0.48693220  1
  Zr  Zr52  1  0.10717410  0.30664432  0.61693411  1
  Zr  Zr53  1  0.49291031  0.90688111  0.85669580  1
  Zr  Zr54  1  0.79882687  0.40151076  0.76068068  1
  Zr  Zr55  1  0.71583072  0.08645037  0.10529578  1
  Zr  Zr56  1  0.00609511  0.79496908  0.24242411  1
  Zr  Zr57  1  0.09883730  0.90577040  0.12924956  1
  Zr  Zr58  1  -0.00838814  0.60005189  0.24282247  1
  Zr  Zr59  1  0.70815347  0.08091379  0.89357953  1
  Zr  Zr60  1  0.61650403  -0.00035038  0.24508815  1
  Zr  Zr61  1  0.89895765  0.89700292  0.36589044  1
  Zr  Zr62  1  0.78857604  0.59090733  0.23542595  1
  Zr  Zr63  1  0.30199827  0.09810317  0.37026336  1
  Zr  Zr64  1  0.20461242  0.61224473  0.75195508  1
  Zr  Zr65  1  0.60672915  0.18632203  0.76671742  1
  Zr  Zr66  1  0.79273240  0.61287194  0.75315350  1
  Zr  Zr67  1  0.88960917  0.31074617  0.36973088  1
  Zr  Zr68  1  0.21643809  0.18206025  0.73962646  1
  Zr  Zr69  1  0.68030907  0.90302974  0.60254544  1
  Zr  Zr70  1  0.59102430  0.60425725  0.24213171  1
  Zr  Zr71  1  0.78318103  0.39517600  0.50134155  1
  Zr  Zr72  1  0.88840115  0.90638350  0.87777072  1
  Zr  Zr73  1  0.29267688  0.69832418  0.36769816  1
  Zr  Zr74  1  0.68469598  0.48546991  0.37306817  1
  Zr  Zr75  1  0.19769230  0.39868848  0.75751566  1
  Zr  Zr76  1  0.70703396  0.30368973  0.10503960  1
  Zr  Zr77  1  0.00196000  0.40357432  0.49539099  1
  Zr  Zr78  1  0.40198083  0.39975421  0.49465806  1
  Zr  Zr79  1  0.51566644  0.10179735  0.37267373  1
  Ta  Ta80  1  0.30715171  0.69426881  0.88433007  1
  Ta  Ta81  1  0.58693729  0.38429303  0.49868775  1
  Ta  Ta82  1  0.21344832  0.60288164  0.00636251  1
  Ta  Ta83  1  -0.00277660  0.19268488  0.48289130  1
  Ta  Ta84  1  0.40789882  0.79565264  0.24800488  1
  Ta  Ta85  1  0.19357737  0.40684389  0.24372165  1
  Ta  Ta86  1  0.49649775  0.09578991  0.88734365  1
  Ta  Ta87  1  0.21372272  0.40681781  0.49908258  1
  Ta  Ta88  1  0.19664728  0.60528994  0.50439553  1
  Ta  Ta89  1  0.20206049  0.80062392  0.50616170  1
  Ta  Ta90  1  0.62293698  0.79910723  0.74287801  1
  Ta  Ta91  1  0.88894141  0.49694690  0.89000871  1
  Ta  Ta92  1  0.79903340  0.01372895  0.49389512  1
  Ta  Ta93  1  0.01067689  0.80386236  0.49954655  1
  Ta  Ta94  1  0.19137168  0.61381224  0.23760138  1
  Ta  Ta95  1  0.32128533  0.29861689  0.64006080  1
  Ta  Ta96  1  0.29682700  0.89264121  0.62919932  1
  Ta  Ta97  1  0.40556139  -0.00091981  0.24911333  1
  Ta  Ta98  1  0.80938858  0.80427921  0.50331518  1
  Ta  Ta99  1  0.39865779  0.79859848  0.50806472  1
  Ta  Ta100  1  -0.01450051  0.01298521  0.74836768  1
  Ta  Ta101  1  0.48688829  0.50923611  0.88497171  1
  Ta  Ta102  1  0.90460548  0.70402491  0.61352311  1
  Ta  Ta103  1  0.71185091  0.10198024  0.62091913  1
  Ta  Ta104  1  0.59924735  -0.02431085  0.00120793  1
  Ta  Ta105  1  0.19751161  -0.00913259  0.50867745  1
  Ta  Ta106  1  -0.00553343  0.38226314  -0.00010913  1
  Ta  Ta107  1  0.30202724  0.70422485  0.12816948  1
  Ta  Ta108  1  0.59529474  0.61785346  0.00286499  1
  Ta  Ta109  1  0.59586004  0.79715171  0.24953599  1
  Ta  Ta110  1  0.88490123  0.48004958  0.10955028  1
  Ta  Ta111  1  0.20377066  0.19000914  0.24723250  1
  Ta  Ta112  1  0.70295223  0.69616189  0.60658232  1
  Ta  Ta113  1  0.51192102  0.30684454  0.35643155  1
  Ta  Ta114  1  0.49841424  0.89445744  0.38004512  1
  Ta  Ta115  1  -0.01336145  0.01570234  0.00421542  1
  Ta  Ta116  1  -0.00837841  0.81643317  0.01231840  1
  Ta  Ta117  1  0.50170538  0.70286428  0.38312665  1
  Ta  Ta118  1  0.70623359  0.29486454  0.89790554  1
  Ta  Ta119  1  0.50264141  0.88818400  0.12341775  1
  Ti  Ti120  1  0.39078883  0.01448816  0.73832902  1
  Ti  Ti121  1  0.19804568  0.79728856  0.74462764  1
  Ti  Ti122  1  0.19854667  0.80106078  0.00889025  1
  Ti  Ti123  1  0.09554526  0.70676728  0.37727302  1
  Ti  Ti124  1  0.50778843  0.29925186  0.11442741  1
  Ti  Ti125  1  0.69273256  0.28917669  0.36684441  1
  Ti  Ti126  1  0.38705794  0.78825566  0.74051890  1
  Ti  Ti127  1  0.60012356  0.39862531  0.23300741  1
  Ti  Ti128  1  0.00231950  0.01304830  0.26073586  1
  Ti  Ti129  1  0.60547515  0.41131183  -0.00877005  1
  Ti  Ti130  1  -0.00903202  0.40541484  0.24775496  1
  Ti  Ti131  1  0.40206475  0.79943239  0.00500222  1
  Ti  Ti132  1  0.69282604  0.50028352  0.62146623  1
  Ti  Ti133  1  0.90114762  0.91037221  0.61839732  1
  Ti  Ti134  1  0.61562324  0.19444589  0.49569904  1
  Ti  Ti135  1  0.30972196  0.08843894  0.87480498  1
  Ti  Ti136  1  -0.00463533  0.40498331  0.75830560  1
  Ti  Ti137  1  0.77781337  0.59335649  0.00530406  1
  Ti  Ti138  1  0.59603876  0.58549509  0.49673853  1
  Ti  Ti139  1  0.79460175  0.39461515  0.23987570  1
  Ti  Ti140  1  0.30077649  0.50386272  0.13501722  1
  Ti  Ti141  1  0.49092099  0.49525685  0.36376914  1
  Ti  Ti142  1  0.10243512  0.71045077  0.62097568  1
  Ti  Ti143  1  0.88578528  0.92308477  0.13444492  1
  Ti  Ti144  1  0.50053720  0.29286395  0.88301571  1
  Ti  Ti145  1  0.91336184  0.29768326  0.87647517  1
  Ti  Ti146  1  0.11307614  0.90169571  0.36318186  1
  Ti  Ti147  1  0.39708601  0.59364211  0.75524625  1
  Ti  Ti148  1  0.69195738  0.87947562  0.87298188  1
  Ti  Ti149  1  0.09234558  0.30101624  0.13206736  1
  Ti  Ti150  1  0.29510766  0.49929602  0.36060475  1
  Ti  Ti151  1  0.19671254  0.20613701  0.00285232  1
  Ti  Ti152  1  0.49694068  0.89810556  0.63654642  1
  Ti  Ti153  1  0.80433109  0.19566596  0.49067188  1
  Ti  Ti154  1  0.39704022  0.60072849  0.25062410  1
  Ti  Ti155  1  0.60565067  0.20267196  0.23974438  1
  Ti  Ti156  1  0.50224985  0.29507511  0.64491865  1
  Ti  Ti157  1  0.41200159  0.19723058  0.23788788  1
  Ti  Ti158  1  0.09222619  0.90922817  0.88923596  1
  Ti  Ti159  1  0.21503883  0.00703882  0.00244168  1
  Mo  Mo160  1  0.10856835  0.70610427  0.11171344  1
  Mo  Mo161  1  0.58901794  0.79508610  0.49918940  1
  Mo  Mo162  1  0.80999356  -0.00135672  0.25815594  1
  Mo  Mo163  1  0.80201829  0.79798200  0.72731521  1
  Mo  Mo164  1  0.41065299  0.19644334  0.75770826  1
  Mo  Mo165  1  0.90723879  0.70390340  0.39270669  1
  Mo  Mo166  1  0.91063920  0.09504097  0.87073210  1
  Mo  Mo167  1  0.69298394  0.49639009  0.11030825  1
  Mo  Mo168  1  0.69763896  0.70595244  0.87696429  1
  Mo  Mo169  1  0.59681096  -0.00824258  0.75273529  1
  Mo  Mo170  1  0.40863961  0.40855667  0.24363580  1
  Mo  Mo171  1  0.59147786  0.20092947  -0.01075811  1
  Mo  Mo172  1  0.69169982  0.89950993  0.13205268  1
  Mo  Mo173  1  0.00576644  0.61767967  0.49921766  1
  Mo  Mo174  1  0.10066259  0.30138121  0.87628919  1
  Mo  Mo175  1  0.80290372  0.39826672  -0.01135909  1
  Mo  Mo176  1  0.68147546  0.69924967  0.12643609  1
  Mo  Mo177  1  0.89736490  0.10133415  0.37269637  1
  Mo  Mo178  1  0.79629271  0.60155332  0.50882586  1
  Mo  Mo179  1  0.01996021  0.20602840  -0.00025669  1
  Mo  Mo180  1  0.69411968  0.50734967  0.89202581  1
  Mo  Mo181  1  0.91663561  0.09408518  0.13322190  1
  Mo  Mo182  1  0.48581507  0.70346104  0.12461770  1
  Mo  Mo183  1  0.39427348  0.60621172  0.00220327  1
  Mo  Mo184  1  0.30502831  0.50801060  0.87532177  1
  Mo  Mo185  1  0.89421797  0.09998217  0.61975525  1
  Mo  Mo186  1  0.70878337  0.10524567  0.37724929  1
  Mo  Mo187  1  0.10964712  0.09282754  0.37811665  1
  Mo  Mo188  1  0.80618946  -0.01167495  0.00119185  1
  Mo  Mo189  1  0.40916795  0.39933996  0.76399903  1
  Mo  Mo190  1  0.30519080  0.09657640  0.62487424  1
  Mo  Mo191  1  0.30002011  0.09851646  0.13596197  1
  Mo  Mo192  1  0.19666190  0.00170840  0.25555187  1
  Mo  Mo193  1  0.91148887  0.30294922  0.13350770  1
  Mo  Mo194  1  0.29827126  0.70202379  0.62251317  1
  Mo  Mo195  1  0.20271272  0.79580137  0.24738671  1
  Mo  Mo196  1  0.58635089  0.79965330  -0.00031987  1
  Mo  Mo197  1  0.59678758  0.00737255  0.49555062  1
  Mo  Mo198  1  0.09382051  0.89560437  0.62259532  1
  Mo  Mo199  1  0.39551684  -0.01075680  -0.00226538  1
