# generated using pymatgen
data_HfZrTaTiMo
_symmetry_space_group_name_H-M   'P 1'
_cell_length_a   15.17022533
_cell_length_b   15.18916849
_cell_length_c   16.78821550
_cell_angle_alpha   89.97346325
_cell_angle_beta   90.06750123
_cell_angle_gamma   89.88172144
_symmetry_Int_Tables_number   1
_chemical_formula_structural   HfZrTaTiMo
_chemical_formula_sum   'Hf40 Zr40 Ta40 Ti40 Mo40'
_cell_volume   3868.38145624
_cell_formula_units_Z   40
loop_
 _symmetry_equiv_pos_site_id
 _symmetry_equiv_pos_as_xyz
  1  'x, y, z'
loop_
 _atom_site_type_symbol
 _atom_site_label
 _atom_site_symmetry_multiplicity
 _atom_site_fract_x
 _atom_site_fract_y
 _atom_site_fract_z
 _atom_site_occupancy
  Hf  Hf0  1  0.11158699  0.68619391  0.37123892  1
  Hf  Hf1  1  0.01391083  0.60414295  0.73934467  1
  Hf  Hf2  1  0.19530010  -0.00071547  0.24842945  1
  Hf  Hf3  1  0.51222820  0.50530669  0.86024622  1
  Hf  Hf4  1  0.40284998  0.21202558  -0.00869105  1
  Hf  Hf5  1  0.69464033  0.31316796  0.36953600  1
  Hf  Hf6  1  0.53491873  0.51039014  0.64344496  1
  Hf  Hf7  1  0.28890145  0.31524586  0.85746242  1
  Hf  Hf8  1  0.90363069  0.88896780  0.12700967  1
  Hf  Hf9  1  -0.00392942  -0.01016642  0.75164969  1
  Hf  Hf10  1  0.19535413  -0.00794059  0.00865674  1
  Hf  Hf11  1  0.08301124  0.10818883  0.12835781  1
  Hf  Hf12  1  0.09255105  0.10803909  0.37583858  1
  Hf  Hf13  1  0.00931953  0.59224057  0.00570778  1
  Hf  Hf14  1  0.68710381  0.11050551  0.13589347  1
  Hf  Hf15  1  0.41339474  0.62492037  0.74594386  1
  Hf  Hf16  1  0.09802268  0.89320009  0.62042004  1
  Hf  Hf17  1  0.59242685  0.19622616  0.50024141  1
  Hf  Hf18  1  0.39383482  0.21492757  0.51061287  1
  Hf  Hf19  1  0.88929509  0.08533429  0.61346847  1
  Hf  Hf20  1  0.42016426  0.00574329  0.50996543  1
  Hf  Hf21  1  0.20830081  0.60126158  -0.00382568  1
  Hf  Hf22  1  0.68264950  0.89661486  0.61605465  1
  Hf  Hf23  1  -0.02298828  0.19964019  -0.00407878  1
  Hf  Hf24  1  -0.00176785  -0.00757009  0.48718857  1
  Hf  Hf25  1  -0.00372434  -0.00822259  0.26078344  1
  Hf  Hf26  1  0.10521044  0.49693581  0.86254261  1
  Hf  Hf27  1  0.91421972  0.69692324  0.87849908  1
  Hf  Hf28  1  0.41104553  0.60957593  0.25471836  1
  Hf  Hf29  1  0.31994738  0.70484453  0.38710734  1
  Hf  Hf30  1  0.79622635  -0.00396687  0.75654377  1
  Hf  Hf31  1  0.89614206  0.29126673  0.38383512  1
  Hf  Hf32  1  0.28804612  0.31896623  0.12885120  1
  Hf  Hf33  1  0.78111624  0.77808690  0.48707159  1
  Hf  Hf34  1  0.43607673  0.60933166  0.50943267  1
  Hf  Hf35  1  0.59834536  0.39280257  0.00252568  1
  Hf  Hf36  1  0.89159998  0.30304026  0.60618911  1
  Hf  Hf37  1  -0.00221851  0.78406602  0.48735662  1
  Hf  Hf38  1  0.78720418  0.39575081  0.73767759  1
  Hf  Hf39  1  0.91652564  0.48532236  0.14041326  1
  Zr  Zr40  1  0.39969230  0.00400222  0.75103672  1
  Zr  Zr41  1  0.39433146  -0.00586829  0.23561234  1
  Zr  Zr42  1  0.29613813  0.11639516  0.38049931  1
  Zr  Zr43  1  0.18000419  0.22165068  0.24967744  1
  Zr  Zr44  1  0.18922901  0.21311316  0.00185866  1
  Zr  Zr45  1  0.08727662  0.30971241  0.39799922  1
  Zr  Zr46  1  0.29641849  0.11357899  0.12578826  1
  Zr  Zr47  1  0.49165959  0.30741859  0.36765832  1
  Zr  Zr48  1  0.69635190  0.10189899  0.35957323  1
  Zr  Zr49  1  0.29721437  0.10082876  0.63058467  1
  Zr  Zr50  1  0.50017631  0.90797987  0.89097764  1
  Zr  Zr51  1  0.70012616  0.89901456  0.89489148  1
  Zr  Zr52  1  0.08779411  0.30150228  0.86900802  1
  Zr  Zr53  1  -0.00411569  0.39578076  0.73755097  1
  Zr  Zr54  1  -0.01791849  0.19049964  0.74297971  1
  Zr  Zr55  1  0.52741134  0.71045621  0.37129408  1
  Zr  Zr56  1  0.70455428  0.69554398  0.89034419  1
  Zr  Zr57  1  0.89626098  0.67055626  0.35607106  1
  Zr  Zr58  1  0.40136644  0.41571384  0.51020752  1
  Zr  Zr59  1  0.88767449  0.88682518  0.61482948  1
  Zr  Zr60  1  0.09378866  0.09261456  0.87352880  1
  Zr  Zr61  1  0.29892830  0.90954253  0.39096743  1
  Zr  Zr62  1  0.69738401  0.90179150  0.10592314  1
  Zr  Zr63  1  0.49900986  0.30263154  0.14067561  1
  Zr  Zr64  1  0.30054783  0.51429330  0.13267479  1
  Zr  Zr65  1  0.30372598  0.70939029  0.60997760  1
  Zr  Zr66  1  0.40043184  0.81473217  0.74777942  1
  Zr  Zr67  1  0.40210588  0.60783047  -0.00702718  1
  Zr  Zr68  1  0.49927354  0.09986790  0.35951000  1
  Zr  Zr69  1  0.77421030  0.19780571  0.74160965  1
  Zr  Zr70  1  0.29419444  0.10169473  0.87045885  1
  Zr  Zr71  1  0.21094958  0.80296003  0.25468878  1
  Zr  Zr72  1  0.39452068  0.41074452  -0.01176065  1
  Zr  Zr73  1  0.88689009  0.89075827  0.37146488  1
  Zr  Zr74  1  0.69989236  0.68222226  0.63005820  1
  Zr  Zr75  1  0.10151942  0.68390438  0.14384911  1
  Zr  Zr76  1  0.80820590  0.59643479  0.75559855  1
  Zr  Zr77  1  0.71350723  0.48578341  0.88421730  1
  Zr  Zr78  1  0.78813749  0.78508607  0.24279627  1
  Zr  Zr79  1  0.88539626  0.09458927  0.13314684  1
  Ta  Ta80  1  0.78672093  -0.00962070  0.25451479  1
  Ta  Ta81  1  0.59764746  0.20663358  0.00028617  1
  Ta  Ta82  1  0.40522328  0.20990201  0.75174664  1
  Ta  Ta83  1  0.50580004  0.71133568  0.88569408  1
  Ta  Ta84  1  0.80251941  0.80049301  0.75419848  1
  Ta  Ta85  1  0.50763549  0.70452280  0.11919528  1
  Ta  Ta86  1  0.52247767  0.50412950  0.36978226  1
  Ta  Ta87  1  0.90620475  0.47873725  0.36475381  1
  Ta  Ta88  1  0.20123546  0.79235658  0.00664897  1
  Ta  Ta89  1  0.87428013  0.29567479  0.87498165  1
  Ta  Ta90  1  0.11934735  0.69937312  0.87051890  1
  Ta  Ta91  1  0.21853266  0.58522917  0.49897514  1
  Ta  Ta92  1  0.70661532  0.68920802  0.11014810  1
  Ta  Ta93  1  0.19714599  0.79515288  0.74472014  1
  Ta  Ta94  1  0.39336945  0.80827593  0.01114576  1
  Ta  Ta95  1  0.49662191  0.89923011  0.37672842  1
  Ta  Ta96  1  0.60014061  0.79648821  0.75377452  1
  Ta  Ta97  1  0.50817800  0.50737689  0.13321091  1
  Ta  Ta98  1  0.01098597  0.79248352  0.00506485  1
  Ta  Ta99  1  0.18502351  0.20366923  0.73134597  1
  Ta  Ta100  1  0.29893107  0.90196718  0.61178124  1
  Ta  Ta101  1  0.78842059  0.41547791  0.49687392  1
  Ta  Ta102  1  0.80680773  0.38282544  0.01295665  1
  Ta  Ta103  1  0.90047478  0.89651777  0.88484772  1
  Ta  Ta104  1  0.30207589  0.50763905  0.64287796  1
  Ta  Ta105  1  0.51087560  0.30270253  0.63771422  1
  Ta  Ta106  1  0.60248846  0.00134702  0.75540589  1
  Ta  Ta107  1  0.89778415  0.50929083  0.61377984  1
  Ta  Ta108  1  0.70665290  0.49241615  0.12476494  1
  Ta  Ta109  1  0.67658785  0.89004954  0.37560681  1
  Ta  Ta110  1  0.50990277  0.11347585  0.87251376  1
  Ta  Ta111  1  -0.00932298  -0.00802102  -0.00160564  1
  Ta  Ta112  1  0.18719331  0.42098767  0.25629017  1
  Ta  Ta113  1  0.19317780  0.20760403  0.51976576  1
  Ta  Ta114  1  0.28462994  0.32371331  0.38337553  1
  Ta  Ta115  1  0.78797645  0.19762115  0.49979554  1
  Ta  Ta116  1  0.09709537  0.88678065  0.87587883  1
  Ta  Ta117  1  0.29396889  0.51920539  0.84659131  1
  Ta  Ta118  1  0.28807595  0.89214736  0.88075028  1
  Ta  Ta119  1  0.39763376  0.00591779  0.00820231  1
  Ti  Ti120  1  0.40818173  0.40498859  0.74805642  1
  Ti  Ti121  1  0.90454900  0.69798755  0.62021311  1
  Ti  Ti122  1  0.70248330  0.10484944  0.88244783  1
  Ti  Ti123  1  0.89047388  0.10257113  0.36991253  1
  Ti  Ti124  1  0.19096153  0.00839549  0.50349953  1
  Ti  Ti125  1  0.69031073  0.09568118  0.61788521  1
  Ti  Ti126  1  0.11622344  0.48945746  0.39327922  1
  Ti  Ti127  1  0.19512810  -0.00851574  0.74525274  1
  Ti  Ti128  1  0.81584463  0.58710807  0.01125326  1
  Ti  Ti129  1  0.78342658  -0.00020541  0.48530432  1
  Ti  Ti130  1  0.60993729  0.40703819  0.24475547  1
  Ti  Ti131  1  0.10569555  0.68980077  0.61204414  1
  Ti  Ti132  1  0.81542716  0.78899329  0.00838088  1
  Ti  Ti133  1  0.63812129  0.59336765  0.48967374  1
  Ti  Ti134  1  0.78473418  0.19989848  0.00586150  1
  Ti  Ti135  1  0.19496998  0.80291350  0.49261340  1
  Ti  Ti136  1  0.38821397  0.21204068  0.25336878  1
  Ti  Ti137  1  0.60056063  0.40586649  0.50151229  1
  Ti  Ti138  1  0.30363653  0.70684230  0.13352383  1
  Ti  Ti139  1  0.79734698  0.21646435  0.24404857  1
  Ti  Ti140  1  0.59066004  -0.01091366  0.23907856  1
  Ti  Ti141  1  0.90768003  0.48686735  0.87982080  1
  Ti  Ti142  1  0.00361523  0.58546428  0.49538497  1
  Ti  Ti143  1  0.00042488  0.18917841  0.51397986  1
  Ti  Ti144  1  0.00604309  0.79512185  0.25766796  1
  Ti  Ti145  1  0.59785264  0.80348518  0.23270906  1
  Ti  Ti146  1  0.41041877  0.81103157  0.23554500  1
  Ti  Ti147  1  -0.00030091  0.39272016  0.00322279  1
  Ti  Ti148  1  -0.00203997  0.79624813  0.74851565  1
  Ti  Ti149  1  0.62128400  0.60585101  0.24460164  1
  Ti  Ti150  1  0.60177831  0.59436861  0.00419918  1
  Ti  Ti151  1  0.59460901  0.01588448  0.00596666  1
  Ti  Ti152  1  0.02700019  0.56644214  0.25612138  1
  Ti  Ti153  1  0.50884147  0.09958093  0.63594626  1
  Ti  Ti154  1  0.39269552  0.41541058  0.26122963  1
  Ti  Ti155  1  0.10014519  0.89280154  0.12681637  1
  Ti  Ti156  1  0.29569519  0.31266679  0.63813508  1
  Ti  Ti157  1  0.49539261  0.10732518  0.13057916  1
  Ti  Ti158  1  0.10759837  0.49045601  0.61589349  1
  Ti  Ti159  1  0.19099866  0.40960178  0.00024470  1
  Mo  Mo160  1  0.60498047  0.38325858  0.75677219  1
  Mo  Mo161  1  0.19912502  0.40339691  0.73463055  1
  Mo  Mo162  1  0.70281178  0.69441910  0.36583160  1
  Mo  Mo163  1  0.90495232  0.69114791  0.12792304  1
  Mo  Mo164  1  0.21511458  0.59446176  0.27083122  1
  Mo  Mo165  1  0.08186065  0.31534885  0.12343171  1
  Mo  Mo166  1  0.09599371  0.29846478  0.61614183  1
  Mo  Mo167  1  0.20808339  0.40060061  0.51824799  1
  Mo  Mo168  1  0.89863976  0.29148563  0.12808857  1
  Mo  Mo169  1  0.00727371  0.37829758  0.25328767  1
  Mo  Mo170  1  0.80116264  0.39938037  0.24825468  1
  Mo  Mo171  1  0.80368971  0.00974801  -0.00476413  1
  Mo  Mo172  1  0.50149324  0.30254918  0.86159434  1
  Mo  Mo173  1  0.69024317  0.28901846  0.88000219  1
  Mo  Mo174  1  0.59243663  0.20563424  0.24665958  1
  Mo  Mo175  1  0.59654846  0.19009108  0.74623355  1
  Mo  Mo176  1  0.68947823  0.30120484  0.60917284  1
  Mo  Mo177  1  0.60874350  0.60584735  0.76406215  1
  Mo  Mo178  1  0.70184290  0.30261324  0.13278760  1
  Mo  Mo179  1  0.88546752  0.09387272  0.88327022  1
  Mo  Mo180  1  0.50500160  0.90802696  0.62966215  1
  Mo  Mo181  1  -0.00618869  0.40940672  0.50774673  1
  Mo  Mo182  1  0.09649512  0.09110445  0.62496355  1
  Mo  Mo183  1  0.81785879  0.59417202  0.49494968  1
  Mo  Mo184  1  0.71225841  0.50933349  0.36137491  1
  Mo  Mo185  1  0.49984054  0.90619426  0.11124035  1
  Mo  Mo186  1  0.59552500  0.79121771  0.00861572  1
  Mo  Mo187  1  0.29563825  0.89668845  0.11825951  1
  Mo  Mo188  1  0.30090474  0.71151145  0.87178780  1
  Mo  Mo189  1  0.58671146  0.79431161  0.50285125  1
  Mo  Mo190  1  0.51857778  0.71822923  0.62548983  1
  Mo  Mo191  1  0.80370577  0.58778326  0.23333785  1
  Mo  Mo192  1  0.10055605  0.89554773  0.38156796  1
  Mo  Mo193  1  0.60385615  -0.00034514  0.49542544  1
  Mo  Mo194  1  -0.01264301  0.20016937  0.25378715  1
  Mo  Mo195  1  0.20133144  0.60857080  0.73636629  1
  Mo  Mo196  1  0.70762751  0.49019505  0.62279700  1
  Mo  Mo197  1  0.40934720  0.80907633  0.50702148  1
  Mo  Mo198  1  0.31353697  0.50346551  0.37990704  1
  Mo  Mo199  1  0.11162427  0.48715129  0.12399874  1
