# generated using pymatgen
data_HfZrTaTiMo
_symmetry_space_group_name_H-M   'P 1'
_cell_length_a   15.21217182
_cell_length_b   15.20635932
_cell_length_c   16.84894898
_cell_angle_alpha   90.00222739
_cell_angle_beta   90.01946886
_cell_angle_gamma   89.96631034
_symmetry_Int_Tables_number   1
_chemical_formula_structural   HfZrTaTiMo
_chemical_formula_sum   'Hf40 Zr40 Ta40 Ti40 Mo40'
_cell_volume   3897.52747281
_cell_formula_units_Z   40
loop_
 _symmetry_equiv_pos_site_id
 _symmetry_equiv_pos_as_xyz
  1  'x, y, z'
loop_
 _atom_site_type_symbol
 _atom_site_label
 _atom_site_symmetry_multiplicity
 _atom_site_fract_x
 _atom_site_fract_y
 _atom_site_fract_z
 _atom_site_occupancy
  Hf  Hf0  1  0.00624654  0.19987888  0.49079321  1
  Hf  Hf1  1  0.10189336  0.11084078  0.35432364  1
  Hf  Hf2  1  0.00545102  0.40154537  0.49189561  1
  Hf  Hf3  1  0.88916768  0.68782139  0.14354439  1
  Hf  Hf4  1  0.09961477  0.48707968  0.87801784  1
  Hf  Hf5  1  0.60807818  -0.00389782  0.48892119  1
  Hf  Hf6  1  0.31024671  0.49483563  0.11095822  1
  Hf  Hf7  1  0.39459097  0.00189528  0.77191081  1
  Hf  Hf8  1  0.20884204  0.79688534  0.76372162  1
  Hf  Hf9  1  0.30187066  0.50460702  0.62134129  1
  Hf  Hf10  1  0.28461047  0.69844187  0.12076065  1
  Hf  Hf11  1  0.68562054  0.89774961  0.62506515  1
  Hf  Hf12  1  0.11232654  0.29576283  0.13934643  1
  Hf  Hf13  1  0.79478038  0.81092347  0.48173410  1
  Hf  Hf14  1  0.90798427  0.11781619  0.88884161  1
  Hf  Hf15  1  0.69272975  0.09687980  0.11242721  1
  Hf  Hf16  1  0.20438775  0.39736899  0.47782627  1
  Hf  Hf17  1  0.30312330  0.51155837  0.89856945  1
  Hf  Hf18  1  0.20705148  0.60226836  0.49335126  1
  Hf  Hf19  1  0.29920134  0.08708862  0.36841901  1
  Hf  Hf20  1  0.69771336  0.67757440  0.36759833  1
  Hf  Hf21  1  0.48623933  0.91458709  0.11410322  1
  Hf  Hf22  1  0.59026871  0.00582210  0.25025352  1
  Hf  Hf23  1  0.62209975  0.60714247  0.00505210  1
  Hf  Hf24  1  0.10296814  0.69944803  0.63512154  1
  Hf  Hf25  1  0.49719422  0.70252550  0.89061576  1
  Hf  Hf26  1  0.79479255  -0.00465463  0.26038798  1
  Hf  Hf27  1  0.00453326  -0.00823987  0.24153155  1
  Hf  Hf28  1  0.70375933  0.28608166  0.63403596  1
  Hf  Hf29  1  0.19856174  0.81202795  0.50028411  1
  Hf  Hf30  1  0.51195512  0.29600395  0.86311109  1
  Hf  Hf31  1  -0.01573804  0.60511082  0.00405238  1
  Hf  Hf32  1  0.49449004  0.11635964  0.37310777  1
  Hf  Hf33  1  0.08489787  0.29162051  0.88605307  1
  Hf  Hf34  1  0.62035339  0.39835733  -0.00183395  1
  Hf  Hf35  1  0.60188674  0.60482225  0.74395358  1
  Hf  Hf36  1  0.30672553  0.70761428  0.62327868  1
  Hf  Hf37  1  0.31779961  0.28839214  0.36539518  1
  Hf  Hf38  1  0.41184924  0.38112579  0.00067926  1
  Hf  Hf39  1  0.50539522  0.70784899  0.61717461  1
  Zr  Zr40  1  0.07484997  0.89272934  0.87353157  1
  Zr  Zr41  1  0.09071867  0.68825737  0.86477431  1
  Zr  Zr42  1  0.39629594  0.61086809  0.75744151  1
  Zr  Zr43  1  0.89811949  0.89082746  0.12153229  1
  Zr  Zr44  1  0.28786017  0.31037718  0.62529473  1
  Zr  Zr45  1  0.51365722  0.50325130  0.88138274  1
  Zr  Zr46  1  0.29479502  0.10251428  0.62959680  1
  Zr  Zr47  1  -0.01473393  0.01333030  0.75543077  1
  Zr  Zr48  1  0.59468059  0.38672014  0.50197628  1
  Zr  Zr49  1  0.60193184  0.58854433  0.50225939  1
  Zr  Zr50  1  0.00275387  0.60210105  0.50832803  1
  Zr  Zr51  1  0.38072452  0.40394710  0.76623690  1
  Zr  Zr52  1  0.22666449  0.40311998  0.25198559  1
  Zr  Zr53  1  0.18894187  0.21363967  0.75642744  1
  Zr  Zr54  1  0.80560506  0.60243608  0.73717281  1
  Zr  Zr55  1  0.79799117  0.80367714  0.26721886  1
  Zr  Zr56  1  0.80098924  0.20913962  0.00743223  1
  Zr  Zr57  1  0.51366818  0.09169974  0.63603592  1
  Zr  Zr58  1  0.50003417  0.29856485  0.64848356  1
  Zr  Zr59  1  0.81536533  0.40962380  0.00041791  1
  Zr  Zr60  1  0.10414782  0.51128016  0.13650020  1
  Zr  Zr61  1  0.91072968  0.29163680  0.62150610  1
  Zr  Zr62  1  0.49026782  0.69969103  0.37167173  1
  Zr  Zr63  1  0.09115549  0.90183743  0.63499437  1
  Zr  Zr64  1  -0.00668122  -0.00520911  0.00674656  1
  Zr  Zr65  1  0.59653220  -0.02786901  0.77609859  1
  Zr  Zr66  1  0.79422465  0.19616390  0.24714300  1
  Zr  Zr67  1  0.90453898  0.29179699  0.36315031  1
  Zr  Zr68  1  0.39303925  -0.00581847  0.50571690  1
  Zr  Zr69  1  0.40928356  0.21028640  0.50846284  1
  Zr  Zr70  1  0.10884507  0.51339943  0.35505264  1
  Zr  Zr71  1  0.89137928  0.50899176  0.36349294  1
  Zr  Zr72  1  0.58982761  0.21997981  0.24373473  1
  Zr  Zr73  1  0.41283115  0.81063614  0.76656385  1
  Zr  Zr74  1  0.38701035  0.81065087  0.23537527  1
  Zr  Zr75  1  0.09743521  0.71569543  0.36203753  1
  Zr  Zr76  1  0.80565632  0.77988399  -0.00593833  1
  Zr  Zr77  1  0.69501318  0.89685319  0.11699283  1
  Zr  Zr78  1  0.88239732  0.91589837  0.62281838  1
  Zr  Zr79  1  0.39937262  0.58881964  0.24664300  1
  Ta  Ta80  1  0.11788561  0.09951974  0.12318634  1
  Ta  Ta81  1  0.49745052  0.49778792  0.62939205  1
  Ta  Ta82  1  -0.00363485  0.80949320  0.49562898  1
  Ta  Ta83  1  0.20262709  0.38210566  0.00679791  1
  Ta  Ta84  1  0.19604058  0.00609901  0.75699274  1
  Ta  Ta85  1  0.90378812  0.49659791  0.14622258  1
  Ta  Ta86  1  0.48187121  0.11712706  0.11680975  1
  Ta  Ta87  1  0.08486256  0.11326066  0.62645822  1
  Ta  Ta88  1  0.79139735  0.81159888  0.75858561  1
  Ta  Ta89  1  0.79824532  0.39952137  0.49888611  1
  Ta  Ta90  1  0.71587237  0.29976673  0.86296421  1
  Ta  Ta91  1  0.70453227  0.70853782  0.61844964  1
  Ta  Ta92  1  0.90604758  0.30450355  0.14113320  1
  Ta  Ta93  1  0.78907858  0.00565053  0.77164283  1
  Ta  Ta94  1  0.81634609  0.19370197  0.75437936  1
  Ta  Ta95  1  0.59139939  0.80171528  0.25148252  1
  Ta  Ta96  1  0.38676339  0.80075929  0.00175811  1
  Ta  Ta97  1  0.51624685  0.50035356  0.12072692  1
  Ta  Ta98  1  0.42589990  0.38166818  0.23922816  1
  Ta  Ta99  1  0.28253391  0.90572042  0.89244027  1
  Ta  Ta100  1  0.29113029  0.89541442  0.36995161  1
  Ta  Ta101  1  -0.00029442  0.58012532  0.73365982  1
  Ta  Ta102  1  0.80064351  0.18991347  0.49430794  1
  Ta  Ta103  1  0.70006393  0.70107010  0.86868098  1
  Ta  Ta104  1  0.90867373  0.49816111  0.86822228  1
  Ta  Ta105  1  0.48622616  0.90714152  0.36784875  1
  Ta  Ta106  1  0.58988792  0.20520991  -0.00265129  1
  Ta  Ta107  1  0.71578419  0.51146177  0.13266334  1
  Ta  Ta108  1  0.11063461  0.09635943  0.89248752  1
  Ta  Ta109  1  0.90113134  0.71460275  0.62634163  1
  Ta  Ta110  1  0.20342040  0.58668806  0.75417861  1
  Ta  Ta111  1  0.39121569  0.19549718  0.77271156  1
  Ta  Ta112  1  0.70662788  0.49138536  0.62590811  1
  Ta  Ta113  1  -0.00920187  0.00461368  0.49571934  1
  Ta  Ta114  1  0.80520337  0.59633819  0.51169264  1
  Ta  Ta115  1  0.18057302  0.79638244  -0.00142683  1
  Ta  Ta116  1  0.19599618  0.20108359  0.49457418  1
  Ta  Ta117  1  0.29705630  0.90368447  0.63260876  1
  Ta  Ta118  1  0.38864834  0.01696776  -0.01309239  1
  Ta  Ta119  1  0.81583954  0.39975553  0.74732920  1
  Ti  Ti120  1  0.72082284  0.08908412  0.62526138  1
  Ti  Ti121  1  0.61261006  0.17906385  0.75829053  1
  Ti  Ti122  1  0.49210006  0.89536537  0.62314305  1
  Ti  Ti123  1  0.50008175  0.69916618  0.11864907  1
  Ti  Ti124  1  0.00936211  0.38373687  0.74229342  1
  Ti  Ti125  1  0.18621104  0.00713421  0.50385745  1
  Ti  Ti126  1  0.60911388  0.41474164  0.25034762  1
  Ti  Ti127  1  0.29255975  0.69662218  0.36193651  1
  Ti  Ti128  1  0.70054156  0.30980157  0.12788233  1
  Ti  Ti129  1  0.90354571  0.09255585  0.36814749  1
  Ti  Ti130  1  0.69265767  0.69705278  0.14282676  1
  Ti  Ti131  1  0.21694940  -0.00513570  0.23368744  1
  Ti  Ti132  1  0.40448056  0.40986472  0.49043416  1
  Ti  Ti133  1  0.69442036  0.30295105  0.37746498  1
  Ti  Ti134  1  0.59300388  0.80151076  0.48366268  1
  Ti  Ti135  1  0.40151512  0.59686032  0.48975608  1
  Ti  Ti136  1  0.10154900  0.89366168  0.11821371  1
  Ti  Ti137  1  0.09909460  0.91136326  0.37209016  1
  Ti  Ti138  1  0.10754172  0.48066720  0.62753360  1
  Ti  Ti139  1  0.00896505  0.39300221  0.25891870  1
  Ti  Ti140  1  0.69688598  0.10598702  0.88541804  1
  Ti  Ti141  1  0.79256577  0.39976692  0.25618084  1
  Ti  Ti142  1  0.08338717  0.70718364  0.13841166  1
  Ti  Ti143  1  0.90340254  0.10308844  0.12706180  1
  Ti  Ti144  1  0.19007401  0.60218474  0.00097435  1
  Ti  Ti145  1  0.59832992  0.80604974  0.00053183  1
  Ti  Ti146  1  0.61349937  0.40570544  0.74909634  1
  Ti  Ti147  1  0.79203592  -0.01034605  -0.01900850  1
  Ti  Ti148  1  0.31689410  0.26877239  0.12434716  1
  Ti  Ti149  1  0.58859190  0.00479861  -0.01415679  1
  Ti  Ti150  1  0.90720399  0.70123764  0.36834928  1
  Ti  Ti151  1  0.71572819  0.50272722  0.86798395  1
  Ti  Ti152  1  0.00282048  0.40095987  0.01296461  1
  Ti  Ti153  1  0.90352607  0.70261373  0.86098634  1
  Ti  Ti154  1  0.60723468  0.19600339  0.50211664  1
  Ti  Ti155  1  0.50960418  0.49346195  0.36643520  1
  Ti  Ti156  1  0.00613781  0.20711770  0.01976790  1
  Ti  Ti157  1  0.39370090  0.80110823  0.49172864  1
  Ti  Ti158  1  0.18966423  0.80976157  0.24172070  1
  Ti  Ti159  1  0.70141312  0.10302739  0.37728119  1
  Mo  Mo160  1  0.00067634  0.19239387  0.23195441  1
  Mo  Mo161  1  -0.00147693  0.60406640  0.24848551  1
  Mo  Mo162  1  0.80326761  0.59118341  -0.00602395  1
  Mo  Mo163  1  0.00084459  0.80727818  0.25497229  1
  Mo  Mo164  1  0.49251547  0.89811724  0.90219467  1
  Mo  Mo165  1  0.68385078  0.89879701  0.37039274  1
  Mo  Mo166  1  0.60416208  0.79058365  0.75274724  1
  Mo  Mo167  1  0.19448285  -0.00331127  0.00552623  1
  Mo  Mo168  1  0.90240055  0.49567804  0.62020191  1
  Mo  Mo169  1  0.30504485  0.09050337  0.12382269  1
  Mo  Mo170  1  0.11022242  0.29584922  0.35416973  1
  Mo  Mo171  1  0.50856942  0.30886268  0.37449812  1
  Mo  Mo172  1  0.50409066  0.10407162  0.87803189  1
  Mo  Mo173  1  0.20800313  0.19323945  0.24617765  1
  Mo  Mo174  1  -0.00080748  0.78778628  0.00376020  1
  Mo  Mo175  1  0.20924945  0.19594172  0.00098005  1
  Mo  Mo176  1  0.28846756  0.10403338  0.87614879  1
  Mo  Mo177  1  0.18850582  0.41143172  0.75649724  1
  Mo  Mo178  1  0.39660735  0.19964509  -0.01746281  1
  Mo  Mo179  1  0.79924004  0.00863982  0.48437218  1
  Mo  Mo180  1  0.59567032  0.60022581  0.24002654  1
  Mo  Mo181  1  0.32209966  0.50536379  0.37354106  1
  Mo  Mo182  1  0.28616457  0.90662356  0.10505528  1
  Mo  Mo183  1  0.89192248  0.10114248  0.62159028  1
  Mo  Mo184  1  0.29100321  0.70114309  0.89649929  1
  Mo  Mo185  1  0.20803135  0.61449884  0.24553328  1
  Mo  Mo186  1  -0.00203958  0.19907408  0.75281791  1
  Mo  Mo187  1  0.39839168  -0.00111780  0.24574539  1
  Mo  Mo188  1  0.10616962  0.29844104  0.61782279  1
  Mo  Mo189  1  -0.01777473  0.79016307  0.74539850  1
  Mo  Mo190  1  0.39902995  0.19435033  0.24450566  1
  Mo  Mo191  1  0.40922199  0.60328632  0.01726045  1
  Mo  Mo192  1  0.88821256  0.89580483  0.87412618  1
  Mo  Mo193  1  0.69771168  0.48676603  0.37684581  1
  Mo  Mo194  1  0.91096108  0.90263210  0.37878260  1
  Mo  Mo195  1  0.79155164  0.59178516  0.25587611  1
  Mo  Mo196  1  0.28932596  0.30253866  0.88467811  1
  Mo  Mo197  1  0.50791732  0.30351260  0.11703896  1
  Mo  Mo198  1  0.69557469  0.89192465  0.88923586  1
  Mo  Mo199  1  0.90511553  0.31253220  0.87125587  1
