# generated using pymatgen
data_HfZrTaTiMo
_symmetry_space_group_name_H-M   'P 1'
_cell_length_a   15.21228731
_cell_length_b   15.21018668
_cell_length_c   16.81852310
_cell_angle_alpha   90.00471880
_cell_angle_beta   90.00645124
_cell_angle_gamma   90.08525111
_symmetry_Int_Tables_number   1
_chemical_formula_structural   HfZrTaTiMo
_chemical_formula_sum   'Hf40 Zr40 Ta40 Ti40 Mo40'
_cell_volume   3891.49462050
_cell_formula_units_Z   40
loop_
 _symmetry_equiv_pos_site_id
 _symmetry_equiv_pos_as_xyz
  1  'x, y, z'
loop_
 _atom_site_type_symbol
 _atom_site_label
 _atom_site_symmetry_multiplicity
 _atom_site_fract_x
 _atom_site_fract_y
 _atom_site_fract_z
 _atom_site_occupancy
  Hf  Hf0  1  0.09995378  0.90103680  0.14543789  1
  Hf  Hf1  1  0.79180714  0.00811106  0.74228957  1
  Hf  Hf2  1  0.50083256  0.30228573  0.62631903  1
  Hf  Hf3  1  0.09703259  0.30328692  0.86848760  1
  Hf  Hf4  1  0.01014139  0.19924856  0.00338169  1
  Hf  Hf5  1  0.59521846  0.80637232  0.73976834  1
  Hf  Hf6  1  0.80628518  0.19387194  0.25233282  1
  Hf  Hf7  1  0.49142727  0.49678570  0.88156263  1
  Hf  Hf8  1  0.70054168  0.11095203  0.88108243  1
  Hf  Hf9  1  0.90637570  0.69879997  0.85889174  1
  Hf  Hf10  1  0.39265926  0.80981965  0.74431779  1
  Hf  Hf11  1  0.40306566  0.79654709  0.25296468  1
  Hf  Hf12  1  -0.01178804  0.79644019  0.50588141  1
  Hf  Hf13  1  0.28970246  0.67794614  0.37637427  1
  Hf  Hf14  1  0.30978840  0.69374429  0.87664194  1
  Hf  Hf15  1  0.79867025  0.38568099  0.73889200  1
  Hf  Hf16  1  0.30753450  0.28524047  0.62746145  1
  Hf  Hf17  1  0.69957534  0.89459842  0.88368684  1
  Hf  Hf18  1  0.28654513  0.89306969  0.88941616  1
  Hf  Hf19  1  0.60620618  -0.00152937  0.01783809  1
  Hf  Hf20  1  0.60093930  0.40962635  0.74950466  1
  Hf  Hf21  1  0.69035982  0.30643528  0.13315292  1
  Hf  Hf22  1  0.80212972  0.61036784  0.25342358  1
  Hf  Hf23  1  -0.00035888  0.00429792  0.73261599  1
  Hf  Hf24  1  0.20779118  0.00658150  0.26089004  1
  Hf  Hf25  1  0.81072645  0.80626485  0.01050072  1
  Hf  Hf26  1  0.79192216  0.79524120  0.73731557  1
  Hf  Hf27  1  0.20185654  0.60749785  0.00410286  1
  Hf  Hf28  1  0.49083193  0.47997551  0.12270966  1
  Hf  Hf29  1  0.10518850  0.08832529  0.87379182  1
  Hf  Hf30  1  0.19835078  0.39473476  0.74144802  1
  Hf  Hf31  1  0.38993220  0.00500678  0.75369401  1
  Hf  Hf32  1  -0.00082964  0.20834937  0.26514958  1
  Hf  Hf33  1  0.07995904  0.69864199  0.36379866  1
  Hf  Hf34  1  0.71217407  0.30864606  0.37501716  1
  Hf  Hf35  1  0.09187756  0.90588778  0.37274494  1
  Hf  Hf36  1  0.60624044  0.40718654  0.49125455  1
  Hf  Hf37  1  0.09423055  0.50916808  0.86623343  1
  Hf  Hf38  1  0.11497233  0.51346420  0.38719621  1
  Hf  Hf39  1  0.11351852  0.09251826  0.61211296  1
  Zr  Zr40  1  0.49996539  0.50176542  0.61714273  1
  Zr  Zr41  1  -0.00461582  0.21030523  0.73738619  1
  Zr  Zr42  1  0.48924905  0.50046960  0.37637381  1
  Zr  Zr43  1  0.41103605  0.78956015  0.49054046  1
  Zr  Zr44  1  0.89820754  0.49689953  0.87238682  1
  Zr  Zr45  1  0.18935022  -0.00300348  0.00761185  1
  Zr  Zr46  1  0.38772923  0.58375789  0.24591902  1
  Zr  Zr47  1  0.10221653  0.31951697  0.38561256  1
  Zr  Zr48  1  0.79021576  0.19926677  0.01689083  1
  Zr  Zr49  1  0.50317734  0.29483287  0.87067110  1
  Zr  Zr50  1  0.80514315  0.40465080  0.24777736  1
  Zr  Zr51  1  0.62310377  0.20423515  0.74283012  1
  Zr  Zr52  1  0.30266190  0.10936932  0.13201277  1
  Zr  Zr53  1  0.58920450  0.00169317  0.75126167  1
  Zr  Zr54  1  0.30210478  0.69834700  0.61549719  1
  Zr  Zr55  1  0.78841568  0.61196956  -0.00179312  1
  Zr  Zr56  1  -0.00079977  0.60891175  0.00358377  1
  Zr  Zr57  1  0.20922616  0.20089818  0.49153678  1
  Zr  Zr58  1  0.80102161  0.61188511  0.50400032  1
  Zr  Zr59  1  0.70397826  0.08289537  0.37320303  1
  Zr  Zr60  1  0.89955718  0.09707829  0.88168762  1
  Zr  Zr61  1  0.90213437  0.50252822  0.38409247  1
  Zr  Zr62  1  0.51721494  0.69804447  0.88430815  1
  Zr  Zr63  1  0.20348040  0.39929453  0.00573366  1
  Zr  Zr64  1  0.19659129  -0.02866776  0.74475363  1
  Zr  Zr65  1  0.59203847  0.40228108  0.26050287  1
  Zr  Zr66  1  0.21212740  0.42077086  0.24371373  1
  Zr  Zr67  1  0.60688040  0.80155432  0.23909620  1
  Zr  Zr68  1  0.91369413  0.90120258  0.87386932  1
  Zr  Zr69  1  0.88020675  0.89558638  0.37987813  1
  Zr  Zr70  1  0.29572218  0.49083966  0.60938408  1
  Zr  Zr71  1  0.58536286  0.19844094  0.01352576  1
  Zr  Zr72  1  0.62208548  0.80596936  0.51252969  1
  Zr  Zr73  1  0.88714606  0.29864837  0.87924033  1
  Zr  Zr74  1  0.09241763  0.10462927  0.13764411  1
  Zr  Zr75  1  0.00222512  0.41384501  0.24615535  1
  Zr  Zr76  1  0.68687724  0.51786722  0.12202118  1
  Zr  Zr77  1  0.11060775  0.72376947  0.86608945  1
  Zr  Zr78  1  0.60539937  0.19939500  0.49463961  1
  Zr  Zr79  1  0.40807619  0.59296905  0.74574325  1
  Ta  Ta80  1  0.59185227  0.19119893  0.25076589  1
  Ta  Ta81  1  0.79180287  -0.00619638  0.23466124  1
  Ta  Ta82  1  0.10865754  0.30180866  0.13013033  1
  Ta  Ta83  1  0.19024210  0.79516300  0.48965075  1
  Ta  Ta84  1  0.29856303  0.69947912  0.12808943  1
  Ta  Ta85  1  0.60248536  0.60881091  0.49332133  1
  Ta  Ta86  1  0.50740175  0.90476781  0.38068089  1
  Ta  Ta87  1  0.40876106  -0.00614179  0.25168468  1
  Ta  Ta88  1  -0.00084418  0.20238949  0.49622774  1
  Ta  Ta89  1  0.21017423  0.21631753  0.26385912  1
  Ta  Ta90  1  0.28783141  0.90316471  0.59874046  1
  Ta  Ta91  1  -0.01124729  0.00878767  0.50031214  1
  Ta  Ta92  1  0.38879771  0.19425551  -0.00525418  1
  Ta  Ta93  1  0.80048945  0.80539158  0.23484220  1
  Ta  Ta94  1  0.40088814  0.00230841  0.00421369  1
  Ta  Ta95  1  0.21114179  0.18163188  0.74884623  1
  Ta  Ta96  1  0.49483549  0.89641400  0.89145231  1
  Ta  Ta97  1  0.30342911  0.89916850  0.38545718  1
  Ta  Ta98  1  0.00408039  0.60437831  0.51343862  1
  Ta  Ta99  1  0.20662635  0.79822609  0.25795686  1
  Ta  Ta100  1  0.40003366  0.19104445  0.26812473  1
  Ta  Ta101  1  0.01431262  0.81084234  0.73134347  1
  Ta  Ta102  1  0.89245724  0.90346842  0.61835863  1
  Ta  Ta103  1  0.90786841  0.30065356  0.12204550  1
  Ta  Ta104  1  0.50961758  0.68133372  0.12437626  1
  Ta  Ta105  1  0.49461814  0.10241893  0.61564112  1
  Ta  Ta106  1  0.40116123  0.79395972  0.01209997  1
  Ta  Ta107  1  0.29768761  0.49115742  0.86974354  1
  Ta  Ta108  1  0.30105352  0.29374912  0.86415908  1
  Ta  Ta109  1  -0.00626255  0.41369767  0.72733896  1
  Ta  Ta110  1  0.61033609  0.78537163  0.01496118  1
  Ta  Ta111  1  0.61871450  0.60957788  0.74723605  1
  Ta  Ta112  1  0.81393912  0.19523131  0.48819133  1
  Ta  Ta113  1  0.00071778  0.40220818  0.01071660  1
  Ta  Ta114  1  0.69582823  0.50602105  0.87824744  1
  Ta  Ta115  1  0.02108405  0.81222563  0.00744835  1
  Ta  Ta116  1  0.19786951  0.60335852  0.74495071  1
  Ta  Ta117  1  0.50358513  0.08777771  0.37724962  1
  Ta  Ta118  1  0.38932735  0.37747189  0.25989990  1
  Ta  Ta119  1  0.48956692  0.91348512  0.61058119  1
  Ti  Ti120  1  0.71316907  0.71056314  0.37456319  1
  Ti  Ti121  1  0.89717367  0.09578880  0.11988138  1
  Ti  Ti122  1  -0.01860501  0.00978877  0.26134370  1
  Ti  Ti123  1  0.39694183  0.58901263  0.00906169  1
  Ti  Ti124  1  0.10800470  0.70744587  0.62893901  1
  Ti  Ti125  1  0.60285011  0.39846222  -0.00540955  1
  Ti  Ti126  1  0.49457122  0.89517627  0.11997844  1
  Ti  Ti127  1  -0.01064288  0.40206556  0.51616795  1
  Ti  Ti128  1  0.89026145  0.11167710  0.61983714  1
  Ti  Ti129  1  0.09849625  0.50875729  0.62141898  1
  Ti  Ti130  1  0.29949359  0.89635695  0.12577272  1
  Ti  Ti131  1  0.49357087  0.09246903  0.88028813  1
  Ti  Ti132  1  0.10198932  0.70605455  0.13936369  1
  Ti  Ti133  1  0.71832550  0.29653822  0.60764525  1
  Ti  Ti134  1  0.40579776  0.19357781  0.75392777  1
  Ti  Ti135  1  0.09993924  0.51366975  0.12758112  1
  Ti  Ti136  1  0.90023665  0.50392261  0.12095695  1
  Ti  Ti137  1  0.90875028  0.90854364  0.12351931  1
  Ti  Ti138  1  0.78795333  -0.00858916  0.50750806  1
  Ti  Ti139  1  0.47776310  0.28078789  0.13155047  1
  Ti  Ti140  1  0.69732209  0.09712717  0.61470553  1
  Ti  Ti141  1  0.09834020  0.10161868  0.37942291  1
  Ti  Ti142  1  0.39150011  0.38522971  0.00246845  1
  Ti  Ti143  1  0.10158663  0.30120403  0.61753065  1
  Ti  Ti144  1  0.80407260  0.58841463  0.74230897  1
  Ti  Ti145  1  0.39238292  0.38502620  0.48387074  1
  Ti  Ti146  1  0.30542979  0.09218100  0.38241608  1
  Ti  Ti147  1  0.50712615  0.69860021  0.62180910  1
  Ti  Ti148  1  0.69145865  0.89796687  0.37247092  1
  Ti  Ti149  1  0.51538738  0.69862552  0.36882588  1
  Ti  Ti150  1  0.40913908  0.19880570  0.48381521  1
  Ti  Ti151  1  0.70554749  0.50223063  0.61924498  1
  Ti  Ti152  1  0.79766410  0.40161934  0.00490571  1
  Ti  Ti153  1  0.59829826  -0.00085002  0.23275459  1
  Ti  Ti154  1  0.90831847  0.70117702  0.12718819  1
  Ti  Ti155  1  0.40096488  0.59439368  0.49467948  1
  Ti  Ti156  1  0.90373410  0.69179951  0.63670958  1
  Ti  Ti157  1  -0.01597852  0.79781631  0.25088473  1
  Ti  Ti158  1  0.20681134  0.20449497  -0.00274517  1
  Ti  Ti159  1  0.31103083  0.08803100  0.60929315  1
  Mo  Mo160  1  0.39423198  0.38984437  0.75406814  1
  Mo  Mo161  1  0.19254903  0.39837728  0.51528378  1
  Mo  Mo162  1  0.59106763  0.59628470  -0.00159074  1
  Mo  Mo163  1  0.70731779  0.69889698  0.86977953  1
  Mo  Mo164  1  0.69778616  0.90936124  0.62705691  1
  Mo  Mo165  1  0.09261968  0.89813124  0.87560523  1
  Mo  Mo166  1  0.70434037  0.90118478  0.11779857  1
  Mo  Mo167  1  0.19026889  0.60814968  0.50838134  1
  Mo  Mo168  1  0.49185147  0.09253946  0.13375284  1
  Mo  Mo169  1  0.90457328  0.09256759  0.37793931  1
  Mo  Mo170  1  0.89938355  0.50093256  0.62110410  1
  Mo  Mo171  1  0.80059544  0.39993319  0.50601007  1
  Mo  Mo172  1  0.90359318  0.30210240  0.39045260  1
  Mo  Mo173  1  0.00475881  0.60503912  0.73395683  1
  Mo  Mo174  1  0.09774222  0.89619667  0.60585335  1
  Mo  Mo175  1  0.50151755  0.28810034  0.37292971  1
  Mo  Mo176  1  -0.00754479  -0.00514388  0.00868683  1
  Mo  Mo177  1  0.30355192  0.50073025  0.11742948  1
  Mo  Mo178  1  0.69202124  0.52081534  0.37444371  1
  Mo  Mo179  1  0.29283206  0.48966976  0.39404880  1
  Mo  Mo180  1  0.20544075  0.79636366  0.73966834  1
  Mo  Mo181  1  0.30340047  0.10240292  0.87765751  1
  Mo  Mo182  1  0.30306896  0.29810797  0.12644247  1
  Mo  Mo183  1  0.60156811  0.60490044  0.26492679  1
  Mo  Mo184  1  0.89694582  0.70426945  0.37163197  1
  Mo  Mo185  1  0.19686089  -0.00352646  0.48500662  1
  Mo  Mo186  1  0.69763106  0.10069264  0.14001802  1
  Mo  Mo187  1  -0.00474209  0.60564520  0.23816435  1
  Mo  Mo188  1  0.70155442  0.70213405  0.12958522  1
  Mo  Mo189  1  0.69994071  0.69070850  0.62848625  1
  Mo  Mo190  1  0.59806859  0.00164416  0.50462564  1
  Mo  Mo191  1  0.80273637  -0.00043507  0.01838486  1
  Mo  Mo192  1  0.80067044  0.80136981  0.51479794  1
  Mo  Mo193  1  0.90147342  0.29879752  0.61150263  1
  Mo  Mo194  1  0.19247809  0.60903359  0.23961673  1
  Mo  Mo195  1  0.79841188  0.19759693  0.73917759  1
  Mo  Mo196  1  0.70255392  0.31647660  0.88220463  1
  Mo  Mo197  1  0.30149906  0.29929763  0.38036254  1
  Mo  Mo198  1  0.40044959  0.00411201  0.49408810  1
  Mo  Mo199  1  0.20544678  0.79793729  0.01767621  1
