# generated using pymatgen
data_HfZrTaTiMo
_symmetry_space_group_name_H-M   'P 1'
_cell_length_a   15.21402488
_cell_length_b   15.21626090
_cell_length_c   16.83969493
_cell_angle_alpha   90.01113900
_cell_angle_beta   90.00614030
_cell_angle_gamma   90.06848569
_symmetry_Int_Tables_number   1
_chemical_formula_structural   HfZrTaTiMo
_chemical_formula_sum   'Hf40 Zr40 Ta40 Ti40 Mo40'
_cell_volume   3898.39612453
_cell_formula_units_Z   40
loop_
 _symmetry_equiv_pos_site_id
 _symmetry_equiv_pos_as_xyz
  1  'x, y, z'
loop_
 _atom_site_type_symbol
 _atom_site_label
 _atom_site_symmetry_multiplicity
 _atom_site_fract_x
 _atom_site_fract_y
 _atom_site_fract_z
 _atom_site_occupancy
  Hf  Hf0  1  0.18101617  -0.01010961  0.49791127  1
  Hf  Hf1  1  0.48595035  0.10824525  0.12651386  1
  Hf  Hf2  1  0.18762271  0.20980605  0.50070175  1
  Hf  Hf3  1  0.50209464  0.49712950  0.13394489  1
  Hf  Hf4  1  0.68936474  0.10523622  0.38285284  1
  Hf  Hf5  1  0.89900914  0.09826251  0.13327214  1
  Hf  Hf6  1  0.20280679  0.60905199  0.25851502  1
  Hf  Hf7  1  -0.00386325  -0.01180735  0.00134206  1
  Hf  Hf8  1  0.49175119  0.29647292  0.87918184  1
  Hf  Hf9  1  0.69687917  0.10039409  0.12006580  1
  Hf  Hf10  1  0.59461054  0.60671769  0.48274746  1
  Hf  Hf11  1  0.20724347  0.41096408  0.48539250  1
  Hf  Hf12  1  0.89110256  0.10564794  0.62991408  1
  Hf  Hf13  1  0.80521006  0.79001321  -0.00512048  1
  Hf  Hf14  1  0.59000068  0.19944771  0.00237159  1
  Hf  Hf15  1  0.30599009  0.68882423  0.12186368  1
  Hf  Hf16  1  0.89745825  0.49578993  0.63335819  1
  Hf  Hf17  1  0.90365503  0.69390209  0.64272900  1
  Hf  Hf18  1  0.69172537  0.31129317  0.11262415  1
  Hf  Hf19  1  0.91316541  0.70826570  0.87035132  1
  Hf  Hf20  1  0.70207678  0.30175909  0.88650198  1
  Hf  Hf21  1  0.29590830  0.31026147  0.62570481  1
  Hf  Hf22  1  0.40792199  0.40985845  0.75198513  1
  Hf  Hf23  1  0.10918144  0.68689653  0.87338267  1
  Hf  Hf24  1  0.90721923  0.50053408  0.88721452  1
  Hf  Hf25  1  -0.00265070  0.19278670  0.00641284  1
  Hf  Hf26  1  0.20002503  0.19870043  0.00044300  1
  Hf  Hf27  1  0.59244341  0.80092580  0.74012008  1
  Hf  Hf28  1  0.69755398  0.88451780  0.36956938  1
  Hf  Hf29  1  0.40685260  0.80638520  0.24382296  1
  Hf  Hf30  1  0.70292221  0.09827330  0.87668467  1
  Hf  Hf31  1  0.38950321  0.20942342  0.25845828  1
  Hf  Hf32  1  0.29868215  0.10362259  0.39250729  1
  Hf  Hf33  1  0.69790310  0.68980004  0.63266971  1
  Hf  Hf34  1  0.88836698  0.50707466  0.11464967  1
  Hf  Hf35  1  0.58315572  0.60248848  0.77288773  1
  Hf  Hf36  1  0.00812158  0.39584582  0.01327676  1
  Hf  Hf37  1  0.60869509  0.40128889  0.75682207  1
  Hf  Hf38  1  0.11846744  0.49891466  0.12893302  1
  Hf  Hf39  1  0.80180087  0.20684826  0.75373171  1
  Zr  Zr40  1  0.79932526  -0.00243180  0.00393673  1
  Zr  Zr41  1  0.29810084  0.30240923  0.12224830  1
  Zr  Zr42  1  0.29349712  0.51060494  0.86678898  1
  Zr  Zr43  1  0.89412172  0.10166132  0.36470332  1
  Zr  Zr44  1  0.80211086  0.59410566  0.48585919  1
  Zr  Zr45  1  0.89357904  0.30775737  0.37046914  1
  Zr  Zr46  1  0.49795666  0.09372915  0.87474258  1
  Zr  Zr47  1  -0.00587160  0.19766503  0.49626314  1
  Zr  Zr48  1  0.70117945  0.49809123  0.62177833  1
  Zr  Zr49  1  0.79339932  -0.01218299  0.24397961  1
  Zr  Zr50  1  0.28940046  0.29468211  0.86646472  1
  Zr  Zr51  1  0.49252835  0.09338174  0.38448567  1
  Zr  Zr52  1  0.08482464  0.50944072  0.36667422  1
  Zr  Zr53  1  0.80912190  0.79262795  0.50433173  1
  Zr  Zr54  1  0.60183360  0.79824921  0.50702026  1
  Zr  Zr55  1  0.58710071  -0.01144617  0.24354339  1
  Zr  Zr56  1  0.70507090  0.29693416  0.61357060  1
  Zr  Zr57  1  0.19968507  -0.00617268  0.00511984  1
  Zr  Zr58  1  0.49397539  0.51208503  0.62091902  1
  Zr  Zr59  1  0.48333571  0.89235520  0.87581776  1
  Zr  Zr60  1  0.31332720  0.71497586  0.88519510  1
  Zr  Zr61  1  0.49008683  0.49095818  0.36883649  1
  Zr  Zr62  1  0.91359354  0.69524645  0.36730541  1
  Zr  Zr63  1  0.52813272  0.69719568  0.13046504  1
  Zr  Zr64  1  0.28926739  0.51565879  0.63252142  1
  Zr  Zr65  1  0.00543560  0.59993531  0.50583662  1
  Zr  Zr66  1  0.39950888  -0.01252735  0.73258449  1
  Zr  Zr67  1  0.69201490  0.89936222  0.87082149  1
  Zr  Zr68  1  0.21997316  0.80560721  0.74865823  1
  Zr  Zr69  1  0.79880117  -0.00485916  0.49522512  1
  Zr  Zr70  1  0.10201163  0.89284406  0.87534973  1
  Zr  Zr71  1  0.03013776  0.81055683  0.51217623  1
  Zr  Zr72  1  0.79292389  0.40009707  0.24455503  1
  Zr  Zr73  1  0.39488071  0.19275633  0.73473442  1
  Zr  Zr74  1  0.69194963  0.09710172  0.61609326  1
  Zr  Zr75  1  0.11935301  0.69159962  0.63785776  1
  Zr  Zr76  1  0.90321921  0.90548483  0.63801705  1
  Zr  Zr77  1  0.20324604  -0.00002645  0.25396673  1
  Zr  Zr78  1  0.40562531  0.81287935  0.02079437  1
  Zr  Zr79  1  0.92072446  0.89520983  0.36752290  1
  Ta  Ta80  1  0.79716782  0.79922082  0.75626663  1
  Ta  Ta81  1  0.39142117  0.00982805  0.00761570  1
  Ta  Ta82  1  0.40356740  0.59896050  0.25886474  1
  Ta  Ta83  1  0.20724291  0.80716528  0.24237876  1
  Ta  Ta84  1  0.09004113  0.09605415  0.36550798  1
  Ta  Ta85  1  0.20555890  0.61395810  0.48557952  1
  Ta  Ta86  1  -0.00074510  0.38637264  0.75323436  1
  Ta  Ta87  1  0.58891593  -0.01887165  0.01398005  1
  Ta  Ta88  1  0.90746349  0.30273687  0.62272872  1
  Ta  Ta89  1  0.00394616  0.39732629  0.49972760  1
  Ta  Ta90  1  0.29899482  0.89334835  0.38844320  1
  Ta  Ta91  1  0.42426990  0.59297687  -0.00536336  1
  Ta  Ta92  1  0.01279984  0.79225021  0.23089415  1
  Ta  Ta93  1  0.29376969  0.09610269  0.60625527  1
  Ta  Ta94  1  0.59630861  0.20848529  0.24715641  1
  Ta  Ta95  1  0.09927932  0.30023750  0.36288166  1
  Ta  Ta96  1  0.09232651  0.29741453  0.87419316  1
  Ta  Ta97  1  0.29559610  0.09011831  0.87000488  1
  Ta  Ta98  1  0.09878827  0.10317932  0.13688966  1
  Ta  Ta99  1  0.21941111  0.39964646  0.26658160  1
  Ta  Ta100  1  0.59322502  0.20257309  0.74398794  1
  Ta  Ta101  1  0.69934397  0.48749773  0.37635510  1
  Ta  Ta102  1  0.79124555  0.59694083  0.77143024  1
  Ta  Ta103  1  0.79694550  0.59781220  0.25926113  1
  Ta  Ta104  1  0.18137947  0.19887452  0.73775677  1
  Ta  Ta105  1  0.00183757  0.40041860  0.23865525  1
  Ta  Ta106  1  0.00620635  0.01058007  0.75147571  1
  Ta  Ta107  1  0.58436896  0.38980625  0.50079018  1
  Ta  Ta108  1  0.00645609  0.61758687  0.01484041  1
  Ta  Ta109  1  0.90161597  0.29509382  0.88519053  1
  Ta  Ta110  1  0.78528778  0.20349673  0.24642428  1
  Ta  Ta111  1  0.49742641  0.29561708  0.37662371  1
  Ta  Ta112  1  -0.00344296  0.60069209  0.23220706  1
  Ta  Ta113  1  0.20227961  0.00411216  0.73936537  1
  Ta  Ta114  1  0.09865008  0.10339146  0.86843728  1
  Ta  Ta115  1  0.39585913  0.40154416  -0.00616348  1
  Ta  Ta116  1  0.71978572  0.70422329  0.13457878  1
  Ta  Ta117  1  0.30172850  0.89332123  0.60402096  1
  Ta  Ta118  1  0.58945692  0.42523100  -0.01057311  1
  Ta  Ta119  1  0.69092714  0.51925849  0.11723052  1
  Ti  Ti120  1  -0.00349066  0.00069815  0.50146031  1
  Ti  Ti121  1  0.90180553  0.10256066  0.87010076  1
  Ti  Ti122  1  0.59715890  0.39544028  0.25194777  1
  Ti  Ti123  1  -0.00422504  0.20360419  0.24707249  1
  Ti  Ti124  1  0.39066402  -0.00351305  0.24555601  1
  Ti  Ti125  1  0.31594973  0.69632005  0.61843266  1
  Ti  Ti126  1  0.31213520  0.49425445  0.12812910  1
  Ti  Ti127  1  0.09843303  0.49015811  0.62648888  1
  Ti  Ti128  1  0.41178374  0.79311752  0.50251774  1
  Ti  Ti129  1  0.00753489  0.58486953  0.75390160  1
  Ti  Ti130  1  0.19196941  0.79435450  0.01322854  1
  Ti  Ti131  1  0.00626311  -0.00972238  0.24243855  1
  Ti  Ti132  1  0.11098639  0.72603740  0.37164772  1
  Ti  Ti133  1  0.20106147  0.40011659  -0.00362637  1
  Ti  Ti134  1  0.10153156  0.89743966  0.12281440  1
  Ti  Ti135  1  0.69097921  0.29477510  0.38521599  1
  Ti  Ti136  1  0.49478773  0.10333123  0.60801835  1
  Ti  Ti137  1  0.70449933  0.90405346  0.63330072  1
  Ti  Ti138  1  0.59736913  0.00480101  0.73838490  1
  Ti  Ti139  1  0.40927118  0.78905428  0.73750140  1
  Ti  Ti140  1  0.89206168  0.29462089  0.12225250  1
  Ti  Ti141  1  0.29271898  0.10253086  0.12759621  1
  Ti  Ti142  1  0.39619343  0.59738482  0.48659807  1
  Ti  Ti143  1  0.49042509  0.30648869  0.11986815  1
  Ti  Ti144  1  0.80601286  0.39684163  0.49357581  1
  Ti  Ti145  1  0.01211518  0.80796426  0.74449500  1
  Ti  Ti146  1  0.49295217  0.89103227  0.37805677  1
  Ti  Ti147  1  0.58603221  -0.01159944  0.50582802  1
  Ti  Ti148  1  0.09026050  0.10199756  0.62672114  1
  Ti  Ti149  1  0.80515865  0.40319526  0.76140727  1
  Ti  Ti150  1  0.31362386  0.70715659  0.37545642  1
  Ti  Ti151  1  0.88996374  0.88013638  0.13069273  1
  Ti  Ti152  1  0.40454266  0.22241299  0.50617350  1
  Ti  Ti153  1  0.89710073  0.91043144  0.85997459  1
  Ti  Ti154  1  0.10467259  0.29637847  0.13906254  1
  Ti  Ti155  1  0.09999852  0.49392135  0.87974212  1
  Ti  Ti156  1  0.20823111  0.59446074  0.00398603  1
  Ti  Ti157  1  0.18569069  0.40107007  0.75022855  1
  Ti  Ti158  1  0.19648406  0.20165398  0.25957709  1
  Ti  Ti159  1  0.79584613  0.40487584  -0.00083769  1
  Mo  Mo160  1  0.50734142  0.70641847  0.88875840  1
  Mo  Mo161  1  0.09543061  0.30957944  0.62555619  1
  Mo  Mo162  1  0.70577124  0.50099289  0.88408932  1
  Mo  Mo163  1  0.50136196  0.90274618  0.61895612  1
  Mo  Mo164  1  0.50245881  0.70690496  0.36376560  1
  Mo  Mo165  1  0.59100557  0.20177408  0.50000681  1
  Mo  Mo166  1  0.61503283  0.61431607  -0.01247670  1
  Mo  Mo167  1  0.80479881  0.20646827  -0.00135926  1
  Mo  Mo168  1  0.49158285  0.69604097  0.62201888  1
  Mo  Mo169  1  0.29939659  0.50991549  0.37386846  1
  Mo  Mo170  1  0.40003013  0.40272961  0.50387440  1
  Mo  Mo171  1  0.39766845  -0.00791401  0.50552481  1
  Mo  Mo172  1  0.70300970  0.70386686  0.87273777  1
  Mo  Mo173  1  0.60923958  0.79857200  0.00348181  1
  Mo  Mo174  1  0.39543492  0.61827363  0.75478151  1
  Mo  Mo175  1  0.49469296  0.50190763  0.87779265  1
  Mo  Mo176  1  0.49952137  0.90453219  0.12830789  1
  Mo  Mo177  1  0.79763564  0.59879864  -0.01162575  1
  Mo  Mo178  1  0.30703138  0.30616795  0.38232025  1
  Mo  Mo179  1  0.00498066  0.79931298  0.01591478  1
  Mo  Mo180  1  0.21580583  0.79244668  0.49957548  1
  Mo  Mo181  1  0.40213901  0.39769385  0.24796366  1
  Mo  Mo182  1  0.69101939  0.88140076  0.12394317  1
  Mo  Mo183  1  0.61061255  0.59136074  0.26016334  1
  Mo  Mo184  1  0.80915300  0.79299080  0.24672560  1
  Mo  Mo185  1  0.79728092  -0.00096111  0.75535437  1
  Mo  Mo186  1  -0.00065880  0.20298903  0.75170518  1
  Mo  Mo187  1  0.19732747  0.59469290  0.75430165  1
  Mo  Mo188  1  0.60695523  0.79150785  0.25560982  1
  Mo  Mo189  1  0.10794971  0.91113106  0.63505268  1
  Mo  Mo190  1  0.10517990  0.89753271  0.36490935  1
  Mo  Mo191  1  0.39072792  0.19645454  -0.00037468  1
  Mo  Mo192  1  0.90090420  0.49433385  0.36657543  1
  Mo  Mo193  1  0.50223118  0.29827462  0.62625774  1
  Mo  Mo194  1  0.79662800  0.20964729  0.49856120  1
  Mo  Mo195  1  0.90053693  0.69536940  0.12779752  1
  Mo  Mo196  1  0.29724640  0.90419396  0.12955009  1
  Mo  Mo197  1  0.11007821  0.69853248  0.12303299  1
  Mo  Mo198  1  0.29893977  0.91166939  0.87512150  1
  Mo  Mo199  1  0.69782623  0.69469151  0.35763362  1
