# generated using pymatgen
data_HfZrTaTiMo
_symmetry_space_group_name_H-M   'P 1'
_cell_length_a   15.19869851
_cell_length_b   15.21600067
_cell_length_c   16.86026214
_cell_angle_alpha   89.98280605
_cell_angle_beta   89.99199855
_cell_angle_gamma   89.89213457
_symmetry_Int_Tables_number   1
_chemical_formula_structural   HfZrTaTiMo
_chemical_formula_sum   'Hf40 Zr40 Ta40 Ti40 Mo40'
_cell_volume   3899.15453739
_cell_formula_units_Z   40
loop_
 _symmetry_equiv_pos_site_id
 _symmetry_equiv_pos_as_xyz
  1  'x, y, z'
loop_
 _atom_site_type_symbol
 _atom_site_label
 _atom_site_symmetry_multiplicity
 _atom_site_fract_x
 _atom_site_fract_y
 _atom_site_fract_z
 _atom_site_occupancy
  Hf  Hf0  1  0.00207728  0.79296783  0.25775918  1
  Hf  Hf1  1  0.29678824  0.29286305  0.37135664  1
  Hf  Hf2  1  0.67659333  0.71595238  0.37356468  1
  Hf  Hf3  1  0.09316114  0.11398101  0.12034174  1
  Hf  Hf4  1  0.49499874  0.91316817  0.90167194  1
  Hf  Hf5  1  0.80391921  0.00230708  0.50650189  1
  Hf  Hf6  1  0.50166794  0.49074646  0.86471544  1
  Hf  Hf7  1  0.70748700  0.50800086  0.37776796  1
  Hf  Hf8  1  0.20315454  -0.00098519  0.24108158  1
  Hf  Hf9  1  0.20950019  0.19188484  0.76279925  1
  Hf  Hf10  1  0.28225510  0.48845149  0.37143758  1
  Hf  Hf11  1  0.39013969  0.60787518  0.49472956  1
  Hf  Hf12  1  0.81263421  0.18488240  -0.00208849  1
  Hf  Hf13  1  0.30857347  0.30625804  0.13001220  1
  Hf  Hf14  1  0.69949755  0.50407598  0.62470448  1
  Hf  Hf15  1  0.12618799  0.10254708  0.61968491  1
  Hf  Hf16  1  0.70574444  0.90328920  0.88262140  1
  Hf  Hf17  1  0.89928289  0.30772610  0.37648456  1
  Hf  Hf18  1  0.39697407  0.81408853  0.75384028  1
  Hf  Hf19  1  0.19929895  0.21465948  -0.00380358  1
  Hf  Hf20  1  0.59905492  0.38836318  0.49629311  1
  Hf  Hf21  1  0.51412240  0.89880462  0.10519985  1
  Hf  Hf22  1  0.92831962  0.29816438  0.11434188  1
  Hf  Hf23  1  0.41231598  0.20044636  -0.00574793  1
  Hf  Hf24  1  0.27753008  0.69987888  0.35775324  1
  Hf  Hf25  1  0.48845867  0.09396586  0.62696970  1
  Hf  Hf26  1  0.28506430  0.69953787  0.13726763  1
  Hf  Hf27  1  0.49180749  0.69968866  0.11757236  1
  Hf  Hf28  1  0.91469404  0.30354608  0.88570803  1
  Hf  Hf29  1  0.11787798  0.89896237  0.37162754  1
  Hf  Hf30  1  0.39220604  0.39971027  0.50793481  1
  Hf  Hf31  1  0.61944353  0.20238688  0.26543710  1
  Hf  Hf32  1  0.89550436  0.51063449  0.62237645  1
  Hf  Hf33  1  0.09944711  0.68757369  0.12432831  1
  Hf  Hf34  1  0.19291115  0.60343540  0.75661840  1
  Hf  Hf35  1  0.19342101  0.80008393  0.76112895  1
  Hf  Hf36  1  0.79429617  0.21079285  0.50098338  1
  Hf  Hf37  1  0.58611028  -0.00012812  0.75699566  1
  Hf  Hf38  1  0.08332236  0.48832262  0.11513639  1
  Hf  Hf39  1  0.60555465  0.22122250  -0.02168181  1
  Zr  Zr40  1  0.69239197  0.10116455  0.62732823  1
  Zr  Zr41  1  0.29675321  0.88548040  0.90087739  1
  Zr  Zr42  1  0.42308324  -0.01297936  0.24998621  1
  Zr  Zr43  1  0.19599090  0.38667293  0.75077789  1
  Zr  Zr44  1  0.68379526  0.49953402  0.12697028  1
  Zr  Zr45  1  -0.00258468  0.79826223  -0.00234360  1
  Zr  Zr46  1  0.10967675  0.89985923  0.61343487  1
  Zr  Zr47  1  0.41430138  -0.01161382  0.48344822  1
  Zr  Zr48  1  0.89758299  0.90025485  0.37906616  1
  Zr  Zr49  1  0.18387433  0.59928055  0.49983539  1
  Zr  Zr50  1  0.89730325  0.69709520  0.12779883  1
  Zr  Zr51  1  0.30367483  0.49850734  0.86416721  1
  Zr  Zr52  1  0.71020075  0.29582450  0.12051960  1
  Zr  Zr53  1  0.30816670  0.91510033  0.61994043  1
  Zr  Zr54  1  0.48149914  0.70214358  0.88971098  1
  Zr  Zr55  1  0.70015718  0.30557992  0.63304880  1
  Zr  Zr56  1  0.40039469  0.19188803  0.49159196  1
  Zr  Zr57  1  0.01486479  0.20420779  0.50124626  1
  Zr  Zr58  1  0.39715481  0.59351687  0.25384862  1
  Zr  Zr59  1  0.30690897  0.89072045  0.11528257  1
  Zr  Zr60  1  0.59081039  0.60711265  0.50067144  1
  Zr  Zr61  1  -0.01113178  0.60466017  0.76606049  1
  Zr  Zr62  1  0.90872940  0.89257298  0.61522006  1
  Zr  Zr63  1  0.37385533  0.59006364  0.00460505  1
  Zr  Zr64  1  -0.00437106  0.80522581  0.76216995  1
  Zr  Zr65  1  0.78910294  0.81004084  0.24904374  1
  Zr  Zr66  1  0.08452360  0.69871014  0.62391617  1
  Zr  Zr67  1  0.31255021  0.08569725  0.88879261  1
  Zr  Zr68  1  0.80332234  0.39900055  0.24745358  1
  Zr  Zr69  1  0.80799722  0.20880446  0.75202999  1
  Zr  Zr70  1  0.01468145  0.20420508  0.74878783  1
  Zr  Zr71  1  0.80817804  -0.00270595  0.74175436  1
  Zr  Zr72  1  0.91133286  0.10016733  0.37517414  1
  Zr  Zr73  1  0.51945992  0.10303931  0.12885973  1
  Zr  Zr74  1  0.79485355  0.60297887  0.00720208  1
  Zr  Zr75  1  0.59681127  0.79670309  0.75237753  1
  Zr  Zr76  1  0.09768763  0.48794204  0.62464594  1
  Zr  Zr77  1  0.68669108  0.70148151  0.88784609  1
  Zr  Zr78  1  0.51564638  0.30634540  0.13514777  1
  Zr  Zr79  1  0.00633547  0.78098485  0.48194650  1
  Ta  Ta80  1  0.09831921  0.89117757  0.12384104  1
  Ta  Ta81  1  0.01372521  0.20607042  0.25451011  1
  Ta  Ta82  1  0.09493811  0.09795963  0.88915499  1
  Ta  Ta83  1  -0.02167315  0.00418987  0.01625951  1
  Ta  Ta84  1  0.31987644  0.88478269  0.36531121  1
  Ta  Ta85  1  0.18878543  -0.00006894  0.01305529  1
  Ta  Ta86  1  0.79932716  0.79229922  0.74797095  1
  Ta  Ta87  1  0.39769450  0.60764833  0.74287297  1
  Ta  Ta88  1  0.70237190  0.49901188  0.87169265  1
  Ta  Ta89  1  -0.00914118  0.40092609  0.75600810  1
  Ta  Ta90  1  0.78064303  0.79732794  0.49332957  1
  Ta  Ta91  1  0.00353668  0.40690445  0.49580140  1
  Ta  Ta92  1  0.81042499  0.40834659  0.00128575  1
  Ta  Ta93  1  0.49610113  0.50028382  0.37539670  1
  Ta  Ta94  1  0.68406321  0.71234332  0.12420191  1
  Ta  Ta95  1  0.49380093  0.29568222  0.63458721  1
  Ta  Ta96  1  0.90902825  0.31309696  0.62267777  1
  Ta  Ta97  1  0.80073427  0.81666884  0.01181517  1
  Ta  Ta98  1  0.30893518  0.10124662  0.12183816  1
  Ta  Ta99  1  0.10908767  0.30781072  0.37569236  1
  Ta  Ta100  1  0.79076947  0.60102221  0.24202221  1
  Ta  Ta101  1  0.29697334  0.70573808  0.62532221  1
  Ta  Ta102  1  0.40606171  0.19377479  0.25631954  1
  Ta  Ta103  1  0.69728652  0.89031926  0.62384814  1
  Ta  Ta104  1  0.88453702  0.67797135  0.37545925  1
  Ta  Ta105  1  0.01455420  0.00417910  0.75075397  1
  Ta  Ta106  1  0.20641267  -0.00297748  0.75991637  1
  Ta  Ta107  1  0.09149353  0.48929680  0.88370748  1
  Ta  Ta108  1  -0.00282646  0.00142839  0.23816472  1
  Ta  Ta109  1  0.49181605  0.70413565  0.62415176  1
  Ta  Ta110  1  0.41721072  0.39518837  -0.00102767  1
  Ta  Ta111  1  0.91404403  0.10379123  0.62197968  1
  Ta  Ta112  1  0.48965032  0.49321436  0.12818228  1
  Ta  Ta113  1  0.88668283  0.70623734  0.88249169  1
  Ta  Ta114  1  0.09514550  0.90989790  0.88967394  1
  Ta  Ta115  1  0.08606208  0.50417786  0.37202545  1
  Ta  Ta116  1  0.59418529  0.20394819  0.76616008  1
  Ta  Ta117  1  0.79145787  0.60467251  0.75499903  1
  Ta  Ta118  1  0.21033446  0.40875771  -0.00191201  1
  Ta  Ta119  1  0.59520156  0.60137437  0.74476282  1
  Ti  Ti120  1  0.71031688  0.09625525  0.37612234  1
  Ti  Ti121  1  0.61270913  0.02172435  -0.00493889  1
  Ti  Ti122  1  -0.01388881  0.58603384  0.25020839  1
  Ti  Ti123  1  0.59059761  0.60763715  0.25387731  1
  Ti  Ti124  1  0.49405901  0.49879382  0.63109771  1
  Ti  Ti125  1  0.40341525  0.39558192  0.25605695  1
  Ti  Ti126  1  0.88246464  0.69864696  0.61264556  1
  Ti  Ti127  1  0.21736711  0.01437087  0.48926246  1
  Ti  Ti128  1  0.59963044  0.40718670  0.26592936  1
  Ti  Ti129  1  0.81607020  0.19670042  0.24931386  1
  Ti  Ti130  1  0.90631158  0.09219576  0.87307353  1
  Ti  Ti131  1  0.69401266  0.70234035  0.62071697  1
  Ti  Ti132  1  0.30418718  0.09327877  0.36196806  1
  Ti  Ti133  1  0.51946155  0.08281291  0.36584133  1
  Ti  Ti134  1  -0.01170498  0.58587847  -0.01099871  1
  Ti  Ti135  1  0.80358516  0.41057120  0.49507061  1
  Ti  Ti136  1  0.18676077  0.39704620  0.24291309  1
  Ti  Ti137  1  0.50234332  0.29831506  0.37235666  1
  Ti  Ti138  1  0.20478155  0.20177371  0.24314514  1
  Ti  Ti139  1  0.28611726  0.50084955  0.13392001  1
  Ti  Ti140  1  0.11407134  0.10693183  0.37104307  1
  Ti  Ti141  1  0.59814007  0.19198648  0.48933182  1
  Ti  Ti142  1  0.58502566  0.81551701  0.24882191  1
  Ti  Ti143  1  0.50458955  0.89335385  0.61733501  1
  Ti  Ti144  1  0.58829571  0.58661419  0.00239390  1
  Ti  Ti145  1  0.40402046  0.19379882  0.75716196  1
  Ti  Ti146  1  0.31829840  0.30794545  0.87108858  1
  Ti  Ti147  1  0.89757758  0.90811629  0.87675891  1
  Ti  Ti148  1  0.59865581  0.39943530  0.74664098  1
  Ti  Ti149  1  0.70712847  0.31739790  0.86772433  1
  Ti  Ti150  1  -0.00141088  0.39877550  0.25155166  1
  Ti  Ti151  1  0.61021832  -0.01119913  0.49459497  1
  Ti  Ti152  1  0.28786242  0.28543792  0.61902224  1
  Ti  Ti153  1  0.01507342  0.00297857  0.49669325  1
  Ti  Ti154  1  0.71364198  0.09728053  0.12759179  1
  Ti  Ti155  1  0.21487515  0.79955703  0.49543293  1
  Ti  Ti156  1  0.70481928  0.91285670  0.11789768  1
  Ti  Ti157  1  0.80000103  0.00370518  0.25022846  1
  Ti  Ti158  1  0.70780580  0.10056920  0.86995850  1
  Ti  Ti159  1  0.30013571  0.49869818  0.63104739  1
  Mo  Mo160  1  0.88967631  0.49927389  0.87395223  1
  Mo  Mo161  1  0.79325669  0.60755536  0.50107402  1
  Mo  Mo162  1  0.58886302  0.80667390  0.50527470  1
  Mo  Mo163  1  0.60879850  0.79983785  0.00608644  1
  Mo  Mo164  1  0.10027319  0.69791200  0.89054338  1
  Mo  Mo165  1  0.30696345  0.10400377  0.63036791  1
  Mo  Mo166  1  0.18333333  0.59702482  -0.00945807  1
  Mo  Mo167  1  0.20797431  0.19760306  0.49087109  1
  Mo  Mo168  1  0.11385051  0.30309593  0.13031089  1
  Mo  Mo169  1  0.01027751  0.39437083  -0.00714473  1
  Mo  Mo170  1  0.19185628  0.78910517  -0.00320727  1
  Mo  Mo171  1  0.51771555  0.88299354  0.37668336  1
  Mo  Mo172  1  0.19441606  0.38771635  0.50332458  1
  Mo  Mo173  1  0.39906641  0.39566900  0.72866589  1
  Mo  Mo174  1  0.89567724  0.49645018  0.12361123  1
  Mo  Mo175  1  0.11172939  0.30271237  0.87970336  1
  Mo  Mo176  1  -0.01573625  0.59367095  0.49318452  1
  Mo  Mo177  1  0.49734101  0.30736562  0.85870719  1
  Mo  Mo178  1  0.39780895  0.79072600  0.49929775  1
  Mo  Mo179  1  0.09955988  0.30019329  0.62046515  1
  Mo  Mo180  1  0.69768903  0.29728709  0.37918232  1
  Mo  Mo181  1  0.17671787  0.58767130  0.25184831  1
  Mo  Mo182  1  0.40496431  0.79530329  0.24790769  1
  Mo  Mo183  1  0.60636951  0.40831554  -0.00898709  1
  Mo  Mo184  1  0.80509259  0.41167248  0.75384520  1
  Mo  Mo185  1  0.89929769  0.50106182  0.37561614  1
  Mo  Mo186  1  0.89761910  0.90835061  0.13336479  1
  Mo  Mo187  1  0.69404366  0.91241614  0.37567387  1
  Mo  Mo188  1  0.39628772  0.79206859  0.00349849  1
  Mo  Mo189  1  0.39417343  0.00501109  0.75325640  1
  Mo  Mo190  1  0.40171711  0.00896293  0.01504528  1
  Mo  Mo191  1  0.00682379  0.19136739  -0.00500078  1
  Mo  Mo192  1  0.62461373  -0.00450966  0.25191048  1
  Mo  Mo193  1  0.89547833  0.10327594  0.13817636  1
  Mo  Mo194  1  0.19486768  0.80541355  0.25013234  1
  Mo  Mo195  1  0.48323829  0.71144260  0.36745095  1
  Mo  Mo196  1  0.29145543  0.69450508  0.87280481  1
  Mo  Mo197  1  0.79912188  0.00325307  -0.00043558  1
  Mo  Mo198  1  0.08980195  0.68907025  0.36117477  1
  Mo  Mo199  1  0.50921626  0.10283837  0.87534919  1
