# generated using pymatgen
data_HfZrTaTiMo
_symmetry_space_group_name_H-M   'P 1'
_cell_length_a   15.21777002
_cell_length_b   15.21888958
_cell_length_c   16.84410694
_cell_angle_alpha   90.00858787
_cell_angle_beta   89.95207467
_cell_angle_gamma   90.06518468
_symmetry_Int_Tables_number   1
_chemical_formula_structural   HfZrTaTiMo
_chemical_formula_sum   'Hf40 Zr40 Ta40 Ti40 Mo40'
_cell_volume   3901.05016145
_cell_formula_units_Z   40
loop_
 _symmetry_equiv_pos_site_id
 _symmetry_equiv_pos_as_xyz
  1  'x, y, z'
loop_
 _atom_site_type_symbol
 _atom_site_label
 _atom_site_symmetry_multiplicity
 _atom_site_fract_x
 _atom_site_fract_y
 _atom_site_fract_z
 _atom_site_occupancy
  Hf  Hf0  1  0.89627460  0.68531372  0.88449648  1
  Hf  Hf1  1  0.19543171  0.80182109  0.74110443  1
  Hf  Hf2  1  0.51699114  0.89999555  0.14442031  1
  Hf  Hf3  1  0.30106158  0.90698405  0.13328641  1
  Hf  Hf4  1  0.89901058  0.50138778  0.35768060  1
  Hf  Hf5  1  0.39837960  0.21989639  -0.00014670  1
  Hf  Hf6  1  0.29353549  0.90705380  0.87000491  1
  Hf  Hf7  1  0.78429129  0.77433972  0.74737932  1
  Hf  Hf8  1  0.30133647  0.89878433  0.39139166  1
  Hf  Hf9  1  0.89589976  0.69873814  0.12852891  1
  Hf  Hf10  1  0.70650314  0.07573318  0.13213364  1
  Hf  Hf11  1  0.10338517  0.89694231  0.60808874  1
  Hf  Hf12  1  0.11376992  0.50236785  0.37675714  1
  Hf  Hf13  1  0.09459571  0.30911785  0.62456095  1
  Hf  Hf14  1  0.48182429  0.29064133  0.37727024  1
  Hf  Hf15  1  0.78736849  0.79896773  0.00704947  1
  Hf  Hf16  1  -0.01577625  0.20445522  0.24679927  1
  Hf  Hf17  1  0.19693625  0.19933261  -0.00762484  1
  Hf  Hf18  1  0.60691237  -0.01346947  -0.00499764  1
  Hf  Hf19  1  0.39675205  0.00491982  0.00364942  1
  Hf  Hf20  1  0.79172842  0.39347367  0.75033604  1
  Hf  Hf21  1  0.30376707  0.10757236  0.86202064  1
  Hf  Hf22  1  0.61144140  0.59197614  0.49483454  1
  Hf  Hf23  1  0.50324462  0.49233540  0.13042862  1
  Hf  Hf24  1  0.90251955  0.29481537  0.88044615  1
  Hf  Hf25  1  0.19363779  0.79974989  0.25277074  1
  Hf  Hf26  1  0.49917009  0.30962572  0.86107698  1
  Hf  Hf27  1  0.10847338  0.50545097  0.11052933  1
  Hf  Hf28  1  0.49555029  0.69674518  0.13912340  1
  Hf  Hf29  1  0.21564608  0.39714080  -0.01341600  1
  Hf  Hf30  1  0.18864588  0.59949476  0.76035758  1
  Hf  Hf31  1  0.79890447  0.38005288  0.23783054  1
  Hf  Hf32  1  0.10193147  0.09887171  0.39415361  1
  Hf  Hf33  1  0.81929113  0.60103371  0.49975186  1
  Hf  Hf34  1  0.60375546  -0.01132989  0.75123000  1
  Hf  Hf35  1  0.60164437  0.59642891  -0.00168757  1
  Hf  Hf36  1  -0.01219961  0.40889070  0.50220682  1
  Hf  Hf37  1  0.10014751  0.89307820  0.39690323  1
  Hf  Hf38  1  0.29877037  0.11250386  0.13367733  1
  Hf  Hf39  1  0.30338934  0.71182211  0.87484151  1
  Zr  Zr40  1  0.51647374  0.70840910  0.62897010  1
  Zr  Zr41  1  0.51316417  0.09760596  0.61838712  1
  Zr  Zr42  1  0.48988079  0.89286927  0.86823855  1
  Zr  Zr43  1  0.41495504  0.02184550  0.26406276  1
  Zr  Zr44  1  0.90622275  0.49806163  0.12702301  1
  Zr  Zr45  1  0.40611906  0.60694827  -0.01602205  1
  Zr  Zr46  1  0.08534419  0.50296551  0.88750792  1
  Zr  Zr47  1  -0.02057174  0.78626142  0.50034813  1
  Zr  Zr48  1  0.19852394  0.20926476  0.74476046  1
  Zr  Zr49  1  0.31357967  0.11684939  0.38213984  1
  Zr  Zr50  1  0.30059101  0.09152675  0.61786308  1
  Zr  Zr51  1  0.40378431  0.60423113  0.51423518  1
  Zr  Zr52  1  0.59370904  0.38820466  0.26039712  1
  Zr  Zr53  1  0.00561070  0.81076046  0.25058689  1
  Zr  Zr54  1  0.69135915  0.30194675  0.61325432  1
  Zr  Zr55  1  0.09588112  0.08844614  0.12279110  1
  Zr  Zr56  1  0.89579863  0.70510201  0.35565856  1
  Zr  Zr57  1  0.88876593  0.89822207  0.63619631  1
  Zr  Zr58  1  0.69794638  0.69589041  0.35626091  1
  Zr  Zr59  1  0.29807436  0.70292550  0.11717535  1
  Zr  Zr60  1  0.41144760  0.41362402  -0.01258023  1
  Zr  Zr61  1  0.00998417  0.39830066  0.24355147  1
  Zr  Zr62  1  0.20994528  0.21987090  0.51011863  1
  Zr  Zr63  1  0.90694807  0.91186111  0.12129949  1
  Zr  Zr64  1  0.00210795  -0.00015739  0.74837378  1
  Zr  Zr65  1  0.61190189  0.20596914  0.74711052  1
  Zr  Zr66  1  0.19105367  0.20380942  0.25282743  1
  Zr  Zr67  1  0.91010664  0.51347669  0.64286942  1
  Zr  Zr68  1  0.38543828  0.40714574  0.52239865  1
  Zr  Zr69  1  0.80654765  -0.00960110  0.50218122  1
  Zr  Zr70  1  0.69478343  0.29890256  0.88948535  1
  Zr  Zr71  1  0.20451109  0.60662635  0.24977745  1
  Zr  Zr72  1  0.50861633  0.11376532  0.11820675  1
  Zr  Zr73  1  0.50453688  0.10517525  0.87199765  1
  Zr  Zr74  1  0.09008516  0.30222539  0.38629578  1
  Zr  Zr75  1  0.90397581  0.88976394  0.87229846  1
  Zr  Zr76  1  0.70834535  0.09297169  0.37472122  1
  Zr  Zr77  1  0.58655313  0.18488927  0.26057303  1
  Zr  Zr78  1  0.71536476  0.08939689  0.62372384  1
  Zr  Zr79  1  0.40026219  0.60401342  0.74403813  1
  Ta  Ta80  1  0.19874377  -0.00080204  0.73852967  1
  Ta  Ta81  1  0.11130537  0.49948771  0.62616077  1
  Ta  Ta82  1  0.69509927  0.88199043  0.87130986  1
  Ta  Ta83  1  0.00151271  0.00722830  0.25861576  1
  Ta  Ta84  1  0.69807213  0.50000538  0.13401228  1
  Ta  Ta85  1  0.60503810  -0.01677847  0.49732846  1
  Ta  Ta86  1  0.79172076  0.40110070  0.01049863  1
  Ta  Ta87  1  0.09297894  0.71036781  0.10235901  1
  Ta  Ta88  1  0.90272949  0.10736311  0.11399274  1
  Ta  Ta89  1  0.30545448  0.89034483  0.60326273  1
  Ta  Ta90  1  0.29297690  0.32072590  0.37677435  1
  Ta  Ta91  1  0.21333995  0.39752912  0.23952783  1
  Ta  Ta92  1  0.08596448  0.68496980  0.61824455  1
  Ta  Ta93  1  0.00005041  0.77849499  0.74549352  1
  Ta  Ta94  1  0.09165795  0.71022668  0.89323771  1
  Ta  Ta95  1  0.40676495  0.80754804  0.00358389  1
  Ta  Ta96  1  0.81219997  0.20466377  0.50262685  1
  Ta  Ta97  1  0.77965316  0.79278348  0.50536881  1
  Ta  Ta98  1  0.50673194  0.89355195  0.36995723  1
  Ta  Ta99  1  0.70114217  0.29467229  0.38833946  1
  Ta  Ta100  1  0.79305577  0.59399910  0.00775110  1
  Ta  Ta101  1  0.09434636  0.29686935  0.11259915  1
  Ta  Ta102  1  0.31037760  0.50160613  0.12692979  1
  Ta  Ta103  1  0.19416115  -0.00425739  0.25948444  1
  Ta  Ta104  1  0.19810276  -0.00116657  -0.00352534  1
  Ta  Ta105  1  0.58741631  0.39516864  0.49277414  1
  Ta  Ta106  1  0.70101983  0.89382329  0.36804667  1
  Ta  Ta107  1  0.20608190  0.60171463  -0.01092789  1
  Ta  Ta108  1  0.67694345  0.28877387  0.11178853  1
  Ta  Ta109  1  0.89196258  0.49377635  0.87818691  1
  Ta  Ta110  1  0.41507040  0.21426084  0.51890418  1
  Ta  Ta111  1  0.48512344  0.69006097  0.37114492  1
  Ta  Ta112  1  0.09437860  0.10192462  0.61191299  1
  Ta  Ta113  1  0.70099217  0.50388222  0.87320200  1
  Ta  Ta114  1  0.00599834  -0.00090817  -0.00869016  1
  Ta  Ta115  1  0.09886663  0.09592703  0.87285325  1
  Ta  Ta116  1  0.38783635  0.40186525  0.73747920  1
  Ta  Ta117  1  0.32073697  0.50802985  0.37075113  1
  Ta  Ta118  1  0.69159650  0.69783839  0.14298225  1
  Ta  Ta119  1  0.80301074  -0.00121996  -0.01078041  1
  Ti  Ti120  1  0.70693598  0.09836535  0.87985361  1
  Ti  Ti121  1  0.58944347  0.58967258  0.26180472  1
  Ti  Ti122  1  0.90790187  0.10835669  0.62695801  1
  Ti  Ti123  1  0.39652768  -0.00247760  0.73917240  1
  Ti  Ti124  1  0.29016249  0.70255852  0.38988562  1
  Ti  Ti125  1  0.09831563  0.29661025  0.87481232  1
  Ti  Ti126  1  0.19902223  0.59459949  0.50145265  1
  Ti  Ti127  1  0.88992732  0.29992239  0.38050701  1
  Ti  Ti128  1  0.79770415  -0.00266213  0.76354781  1
  Ti  Ti129  1  0.01375288  0.61120006  0.24700424  1
  Ti  Ti130  1  0.28813071  0.69917989  0.61833266  1
  Ti  Ti131  1  0.59215622  0.79243526  0.49066526  1
  Ti  Ti132  1  0.09984620  0.89822723  0.87131603  1
  Ti  Ti133  1  0.49521107  0.89687533  0.61849403  1
  Ti  Ti134  1  -0.00726066  0.38898084  0.00377420  1
  Ti  Ti135  1  -0.00797069  0.00664571  0.50275102  1
  Ti  Ti136  1  0.89201901  0.91060007  0.36928878  1
  Ti  Ti137  1  0.50979577  0.50441408  0.85424471  1
  Ti  Ti138  1  0.39417095  0.79252292  0.26037665  1
  Ti  Ti139  1  0.90292136  0.10831130  0.37898902  1
  Ti  Ti140  1  0.51597870  0.49375789  0.63653765  1
  Ti  Ti141  1  0.39800584  0.80504324  0.73885498  1
  Ti  Ti142  1  0.40272251  0.20858019  0.73000731  1
  Ti  Ti143  1  0.62561043  0.61014364  0.74983837  1
  Ti  Ti144  1  0.89864034  0.29818784  0.62926539  1
  Ti  Ti145  1  0.90418018  0.10175382  0.88084577  1
  Ti  Ti146  1  0.00958682  0.40303791  0.75626038  1
  Ti  Ti147  1  0.68293780  0.87849457  0.62859828  1
  Ti  Ti148  1  0.59644184  0.79113521  0.00371026  1
  Ti  Ti149  1  0.78760815  0.82193316  0.23690422  1
  Ti  Ti150  1  0.19797936  0.81365113  0.00200897  1
  Ti  Ti151  1  0.70393351  0.49086746  0.36710212  1
  Ti  Ti152  1  0.51870970  0.70762263  0.86146890  1
  Ti  Ti153  1  0.41074736  -0.00072373  0.49474535  1
  Ti  Ti154  1  0.80724417  0.19062659  0.75171385  1
  Ti  Ti155  1  0.79090790  0.40661174  0.50191773  1
  Ti  Ti156  1  0.80106679  0.19661686  0.00620633  1
  Ti  Ti157  1  0.70372717  0.50562743  0.63028477  1
  Ti  Ti158  1  -0.00132442  0.19966497  0.75118100  1
  Ti  Ti159  1  0.79465413  0.19435333  0.24330860  1
  Mo  Mo160  1  0.51060243  0.09185341  0.40293474  1
  Mo  Mo161  1  -0.01063208  0.20173743  0.50699870  1
  Mo  Mo162  1  0.70643915  0.69062395  0.61685663  1
  Mo  Mo163  1  0.81777758  0.00588388  0.25351371  1
  Mo  Mo164  1  -0.00459754  0.60045590  0.00370137  1
  Mo  Mo165  1  0.40784806  0.80088900  0.49496020  1
  Mo  Mo166  1  0.60304124  0.19734089  0.49429287  1
  Mo  Mo167  1  -0.00027970  0.19760489  -0.00688710  1
  Mo  Mo168  1  0.59349819  0.79392094  0.25857942  1
  Mo  Mo169  1  0.69439449  0.69385236  0.88273247  1
  Mo  Mo170  1  -0.00137315  0.60002429  0.75791761  1
  Mo  Mo171  1  0.80050712  0.59029193  0.75703893  1
  Mo  Mo172  1  0.29521045  0.30862621  0.63495513  1
  Mo  Mo173  1  0.89872413  0.69818833  0.62847262  1
  Mo  Mo174  1  0.60591060  0.19586234  -0.00530890  1
  Mo  Mo175  1  0.59852151  0.41515870  0.74741049  1
  Mo  Mo176  1  0.30312605  0.49974424  0.86261773  1
  Mo  Mo177  1  0.61328866  -0.01194968  0.26080305  1
  Mo  Mo178  1  0.50378664  0.49762377  0.38027937  1
  Mo  Mo179  1  0.79325276  0.59081285  0.23965027  1
  Mo  Mo180  1  0.00323928  0.80759295  -0.00032738  1
  Mo  Mo181  1  0.39804049  0.40621398  0.25150963  1
  Mo  Mo182  1  0.20043586  0.41552368  0.50060195  1
  Mo  Mo183  1  0.39919922  0.60035088  0.25579821  1
  Mo  Mo184  1  0.59348539  0.79721786  0.74755212  1
  Mo  Mo185  1  0.20003451  0.40486550  0.76654588  1
  Mo  Mo186  1  0.10819175  0.90321848  0.12260762  1
  Mo  Mo187  1  0.49349125  0.30413197  0.12351565  1
  Mo  Mo188  1  0.89233312  0.28931447  0.11188093  1
  Mo  Mo189  1  0.10190918  0.69372423  0.38553301  1
  Mo  Mo190  1  0.30284124  0.30406760  0.85612691  1
  Mo  Mo191  1  0.00891190  0.59720498  0.49316702  1
  Mo  Mo192  1  0.20125522  0.78408558  0.50624689  1
  Mo  Mo193  1  0.29652632  0.31314746  0.12216260  1
  Mo  Mo194  1  0.20203632  0.00095132  0.50717251  1
  Mo  Mo195  1  0.50247922  0.30532035  0.63037280  1
  Mo  Mo196  1  0.28520664  0.51034292  0.63351325  1
  Mo  Mo197  1  0.70227831  0.89110917  0.12319403  1
  Mo  Mo198  1  0.38393203  0.23644728  0.23509914  1
  Mo  Mo199  1  0.60516941  0.40443590  0.00177519  1
