# generated using pymatgen
data_HfZrTaTiMo
_symmetry_space_group_name_H-M   'P 1'
_cell_length_a   15.19054462
_cell_length_b   15.20380945
_cell_length_c   16.78647564
_cell_angle_alpha   90.01249254
_cell_angle_beta   89.96792959
_cell_angle_gamma   89.96906371
_symmetry_Int_Tables_number   1
_chemical_formula_structural   HfZrTaTiMo
_chemical_formula_sum   'Hf40 Zr40 Ta40 Ti40 Mo40'
_cell_volume   3876.90487718
_cell_formula_units_Z   40
loop_
 _symmetry_equiv_pos_site_id
 _symmetry_equiv_pos_as_xyz
  1  'x, y, z'
loop_
 _atom_site_type_symbol
 _atom_site_label
 _atom_site_symmetry_multiplicity
 _atom_site_fract_x
 _atom_site_fract_y
 _atom_site_fract_z
 _atom_site_occupancy
  Hf  Hf0  1  0.00267017  0.81052404  0.25374657  1
  Hf  Hf1  1  0.79144041  0.19064667  0.74903174  1
  Hf  Hf2  1  -0.00357567  0.20573454  0.51126273  1
  Hf  Hf3  1  0.41448598  0.00630526  0.75651867  1
  Hf  Hf4  1  0.28854522  0.10027555  0.12313679  1
  Hf  Hf5  1  0.79308766  0.01456467  0.24921450  1
  Hf  Hf6  1  0.59928266  0.40255810  0.49789895  1
  Hf  Hf7  1  0.38701730  0.00283067  0.25214435  1
  Hf  Hf8  1  0.60559452  0.00819991  0.74665868  1
  Hf  Hf9  1  0.58779614  0.80972014  0.75545578  1
  Hf  Hf10  1  0.88615971  0.30043744  0.62922227  1
  Hf  Hf11  1  0.49921116  0.10674684  0.38206899  1
  Hf  Hf12  1  0.48416908  0.89774419  0.38272986  1
  Hf  Hf13  1  -0.00242183  0.01279327  0.25857094  1
  Hf  Hf14  1  0.68672451  0.69582369  0.34477900  1
  Hf  Hf15  1  0.90627234  0.29592946  0.86670611  1
  Hf  Hf16  1  0.50429143  0.50201201  0.37044430  1
  Hf  Hf17  1  -0.00535409  0.80709176  0.48574760  1
  Hf  Hf18  1  -0.00518116  0.19873093  0.00601936  1
  Hf  Hf19  1  0.30494944  0.50257914  0.86923339  1
  Hf  Hf20  1  0.09679440  0.90546646  0.62707846  1
  Hf  Hf21  1  0.39576437  0.59931495  0.24666094  1
  Hf  Hf22  1  0.89747953  0.50055511  0.11461704  1
  Hf  Hf23  1  0.49152917  0.27522068  0.87723847  1
  Hf  Hf24  1  0.70523528  0.68770809  0.14441001  1
  Hf  Hf25  1  0.61496467  0.19801767  0.01206298  1
  Hf  Hf26  1  0.29018483  0.90324717  0.12197993  1
  Hf  Hf27  1  0.80578407  -0.00501861  0.75355037  1
  Hf  Hf28  1  0.58876057  0.00009459  0.25080304  1
  Hf  Hf29  1  0.18420873  0.81853654  -0.00506514  1
  Hf  Hf30  1  0.20223702  0.39861932  0.00308443  1
  Hf  Hf31  1  0.48536209  0.69784991  0.86194980  1
  Hf  Hf32  1  0.49285319  0.10457743  0.11786897  1
  Hf  Hf33  1  0.70511071  0.89390975  0.87913265  1
  Hf  Hf34  1  0.69877113  0.49190994  0.63082236  1
  Hf  Hf35  1  0.59840439  0.39144552  0.76242496  1
  Hf  Hf36  1  0.41227832  0.59016680  -0.00307995  1
  Hf  Hf37  1  0.29417945  0.89702243  0.85981015  1
  Hf  Hf38  1  -0.00395547  0.41385581  0.73346658  1
  Hf  Hf39  1  0.30775070  0.11399280  0.87028593  1
  Zr  Zr40  1  0.30830152  0.69969788  0.37648200  1
  Zr  Zr41  1  0.91747268  0.89010841  0.87889781  1
  Zr  Zr42  1  0.70663675  0.69883334  0.64660535  1
  Zr  Zr43  1  0.91046141  0.31180132  0.37683466  1
  Zr  Zr44  1  0.88674299  0.68841826  0.35737272  1
  Zr  Zr45  1  0.29694059  0.30761377  0.37785932  1
  Zr  Zr46  1  0.00312617  0.58656028  0.25052346  1
  Zr  Zr47  1  0.09977401  0.50686788  0.88036305  1
  Zr  Zr48  1  0.89893501  0.89721985  0.62619545  1
  Zr  Zr49  1  0.00170411  0.60288023  0.50791415  1
  Zr  Zr50  1  0.09957350  0.70575180  0.12021015  1
  Zr  Zr51  1  0.19386964  0.79375361  0.50319282  1
  Zr  Zr52  1  0.09174202  0.71545927  0.88412590  1
  Zr  Zr53  1  0.59923368  0.78814081  -0.00629003  1
  Zr  Zr54  1  0.69849727  0.48463311  0.13556295  1
  Zr  Zr55  1  0.10615278  0.69080410  0.37141303  1
  Zr  Zr56  1  0.72396546  0.49199712  0.35802921  1
  Zr  Zr57  1  0.01726570  0.39139857  0.23908867  1
  Zr  Zr58  1  0.38886564  0.80371250  0.51268562  1
  Zr  Zr59  1  0.50774206  0.69392840  0.13061652  1
  Zr  Zr60  1  0.69637397  0.89152100  0.13091652  1
  Zr  Zr61  1  0.01310260  0.19741413  0.73381447  1
  Zr  Zr62  1  0.49636942  0.69401723  0.64049118  1
  Zr  Zr63  1  0.60115144  0.40461958  -0.01239168  1
  Zr  Zr64  1  0.38304346  0.78853135  0.00140586  1
  Zr  Zr65  1  0.79902453  0.59475643  0.50387599  1
  Zr  Zr66  1  0.29543589  0.30018063  0.86457723  1
  Zr  Zr67  1  0.09606884  0.12666552  0.38175166  1
  Zr  Zr68  1  0.30699827  0.50208113  0.12063950  1
  Zr  Zr69  1  0.79541512  0.79687298  0.49106181  1
  Zr  Zr70  1  0.40157738  0.59170291  0.51207950  1
  Zr  Zr71  1  0.19916957  0.39812932  0.72810355  1
  Zr  Zr72  1  0.79730811  0.00436142  0.00562650  1
  Zr  Zr73  1  0.18681294  0.21133021  0.25068423  1
  Zr  Zr74  1  0.30668441  0.09930560  0.62285952  1
  Zr  Zr75  1  0.59637303  0.78831233  0.50051729  1
  Zr  Zr76  1  0.01261485  0.61291734  0.73944781  1
  Zr  Zr77  1  0.90126243  0.69215171  0.88746917  1
  Zr  Zr78  1  0.31120753  0.29662053  0.12823482  1
  Zr  Zr79  1  0.69852754  0.90163528  0.62158723  1
  Ta  Ta80  1  0.81039309  0.58566792  0.75642866  1
  Ta  Ta81  1  0.80373884  0.00337951  0.48776698  1
  Ta  Ta82  1  0.40412372  0.20852248  0.50093879  1
  Ta  Ta83  1  0.59027300  0.19127696  0.74591552  1
  Ta  Ta84  1  0.59962687  -0.00150804  0.49543291  1
  Ta  Ta85  1  0.59889034  0.58161924  0.76811389  1
  Ta  Ta86  1  0.20192885  0.59868139  0.24340478  1
  Ta  Ta87  1  0.88521327  0.11094854  0.12407286  1
  Ta  Ta88  1  0.60503287  0.20677119  0.49972699  1
  Ta  Ta89  1  0.39618068  0.00497401  -0.00825777  1
  Ta  Ta90  1  0.51199713  0.30579896  0.13102693  1
  Ta  Ta91  1  0.49819790  0.29827403  0.62536823  1
  Ta  Ta92  1  0.69102460  0.09876395  0.88074526  1
  Ta  Ta93  1  0.70524843  0.69271217  0.86425084  1
  Ta  Ta94  1  0.61336633  0.19702795  0.24324225  1
  Ta  Ta95  1  0.20380273  -0.00530108  0.48920622  1
  Ta  Ta96  1  0.20704340  0.80620165  0.25286015  1
  Ta  Ta97  1  0.69343120  0.89776145  0.36462133  1
  Ta  Ta98  1  0.90074263  0.09776519  0.87699255  1
  Ta  Ta99  1  0.70643466  0.10392900  0.60818515  1
  Ta  Ta100  1  0.69958096  0.10463514  0.38359684  1
  Ta  Ta101  1  0.00427284  0.39143922  0.00861125  1
  Ta  Ta102  1  0.19311986  0.20340346  0.00228484  1
  Ta  Ta103  1  0.80050003  0.37869592  -0.00101216  1
  Ta  Ta104  1  0.30194787  0.10098165  0.38606837  1
  Ta  Ta105  1  0.39984417  0.80520339  0.24181103  1
  Ta  Ta106  1  0.21202768  0.61464032  0.00279313  1
  Ta  Ta107  1  0.48852350  0.91094314  0.61899147  1
  Ta  Ta108  1  0.10107918  0.29915283  0.87052558  1
  Ta  Ta109  1  0.09905470  0.10730513  0.87251048  1
  Ta  Ta110  1  0.89692643  0.70311455  0.12645997  1
  Ta  Ta111  1  0.00725571  0.40877928  0.52074041  1
  Ta  Ta112  1  0.40655799  0.39777157  0.25317733  1
  Ta  Ta113  1  0.19181487  0.01091443  -0.01002932  1
  Ta  Ta114  1  0.49447934  0.90279429  0.11435480  1
  Ta  Ta115  1  0.80617007  0.39608187  0.50361057  1
  Ta  Ta116  1  0.90243344  0.49414877  0.89124999  1
  Ta  Ta117  1  0.19109503  -0.00119451  0.26683865  1
  Ta  Ta118  1  0.29493729  0.89800782  0.64180843  1
  Ta  Ta119  1  0.00168349  0.00166985  0.48629716  1
  Ti  Ti120  1  0.27886669  0.68873819  0.63765082  1
  Ti  Ti121  1  0.20422491  0.41006454  0.24758493  1
  Ti  Ti122  1  0.70445679  0.28923199  0.87338916  1
  Ti  Ti123  1  0.09660270  0.91296977  0.12862940  1
  Ti  Ti124  1  0.40942054  0.38978882  -0.00168109  1
  Ti  Ti125  1  0.20479336  0.21725012  0.51018145  1
  Ti  Ti126  1  0.09386211  0.10120945  0.12611084  1
  Ti  Ti127  1  0.90053812  0.09013688  0.61747850  1
  Ti  Ti128  1  0.49945503  0.90712894  0.88750873  1
  Ti  Ti129  1  0.71094953  0.29159832  0.37302325  1
  Ti  Ti130  1  -0.01519671  0.20584636  0.23638887  1
  Ti  Ti131  1  0.40652775  0.39664958  0.73902422  1
  Ti  Ti132  1  0.10716250  0.09921179  0.61548959  1
  Ti  Ti133  1  0.00529600  -0.00325395  0.00174467  1
  Ti  Ti134  1  0.10518866  0.48807133  0.38721615  1
  Ti  Ti135  1  0.60173342  0.59794948  0.50128698  1
  Ti  Ti136  1  0.79587522  0.40215952  0.75918628  1
  Ti  Ti137  1  0.50092177  0.70048915  0.36524012  1
  Ti  Ti138  1  0.10385815  0.50473411  0.11222978  1
  Ti  Ti139  1  0.69341383  0.29408386  0.62489926  1
  Ti  Ti140  1  0.60449360  0.59216146  -0.01934303  1
  Ti  Ti141  1  0.40795352  0.20350636  0.25585962  1
  Ti  Ti142  1  0.90346194  0.70559167  0.63341568  1
  Ti  Ti143  1  0.50719399  0.49244661  0.13207049  1
  Ti  Ti144  1  0.50613512  0.10241741  0.61117900  1
  Ti  Ti145  1  0.17838439  0.79563713  0.74790273  1
  Ti  Ti146  1  0.29040049  0.69804009  0.85632251  1
  Ti  Ti147  1  0.50632231  0.30049977  0.37328938  1
  Ti  Ti148  1  0.00561415  0.00069556  0.75291303  1
  Ti  Ti149  1  0.88941025  0.11475944  0.37770455  1
  Ti  Ti150  1  0.79190505  0.59201964  -0.00294683  1
  Ti  Ti151  1  0.88970216  0.90669347  0.36716926  1
  Ti  Ti152  1  0.80212239  0.79202510  0.00661561  1
  Ti  Ti153  1  0.39368787  0.40056344  0.51350430  1
  Ti  Ti154  1  0.19394372  0.01388343  0.75290708  1
  Ti  Ti155  1  0.39741418  0.58652561  0.74160374  1
  Ti  Ti156  1  0.90175314  0.90093762  0.12734104  1
  Ti  Ti157  1  0.29347555  0.50008430  0.38019668  1
  Ti  Ti158  1  0.12284558  0.52236807  0.61785487  1
  Ti  Ti159  1  0.60697683  0.38705795  0.25367124  1
  Mo  Mo160  1  0.59171087  0.58565621  0.25195794  1
  Mo  Mo161  1  0.31130666  0.50182447  0.63093462  1
  Mo  Mo162  1  0.10820037  0.31931456  0.39920548  1
  Mo  Mo163  1  -0.00031743  0.59650829  0.00923918  1
  Mo  Mo164  1  -0.00595445  0.80925500  0.74728242  1
  Mo  Mo165  1  0.89337980  0.50129547  0.63044677  1
  Mo  Mo166  1  0.80325292  0.19786642  -0.00923169  1
  Mo  Mo167  1  0.79964366  0.20386405  0.25302998  1
  Mo  Mo168  1  0.58550839  0.80661822  0.24998565  1
  Mo  Mo169  1  0.20702734  0.59216678  0.50126256  1
  Mo  Mo170  1  0.69834417  0.09895181  0.12585113  1
  Mo  Mo171  1  0.09906724  0.91743423  0.86745544  1
  Mo  Mo172  1  -0.00989936  0.81262113  0.01875577  1
  Mo  Mo173  1  0.20786277  0.41094082  0.51469739  1
  Mo  Mo174  1  0.50681577  0.49226043  0.62994679  1
  Mo  Mo175  1  0.38631540  0.79943628  0.74036650  1
  Mo  Mo176  1  0.79695983  0.20218132  0.50195075  1
  Mo  Mo177  1  0.80774798  0.59199187  0.24282669  1
  Mo  Mo178  1  0.91384680  0.48929814  0.37997636  1
  Mo  Mo179  1  0.80264105  0.80894333  0.24667772  1
  Mo  Mo180  1  0.19770902  0.19578519  0.73835745  1
  Mo  Mo181  1  0.40908017  0.20132823  0.73765474  1
  Mo  Mo182  1  0.39741203  0.20211332  0.00676711  1
  Mo  Mo183  1  0.30785814  0.29694025  0.62512770  1
  Mo  Mo184  1  0.81111477  0.38592389  0.24508422  1
  Mo  Mo185  1  0.29340783  0.90400013  0.37175104  1
  Mo  Mo186  1  0.09731063  0.90749273  0.37330629  1
  Mo  Mo187  1  0.49370588  0.49109142  0.86983005  1
  Mo  Mo188  1  0.59246974  -0.00381287  0.00137190  1
  Mo  Mo189  1  0.71347630  0.49549789  0.87678614  1
  Mo  Mo190  1  0.39615999  0.00417673  0.50291499  1
  Mo  Mo191  1  0.20436088  0.60391818  0.75197064  1
  Mo  Mo192  1  0.29463416  0.70500959  0.12856761  1
  Mo  Mo193  1  0.50616598  0.09440405  0.88774164  1
  Mo  Mo194  1  0.89575493  0.30117093  0.12410437  1
  Mo  Mo195  1  0.10470493  0.30158989  0.61186013  1
  Mo  Mo196  1  0.10301104  0.29550353  0.11966677  1
  Mo  Mo197  1  0.80223660  0.78605620  0.75483854  1
  Mo  Mo198  1  0.71675292  0.28816287  0.13223851  1
  Mo  Mo199  1  0.09768625  0.71104423  0.62477097  1
