# generated using pymatgen
data_HfZrTaTiMo
_symmetry_space_group_name_H-M   'P 1'
_cell_length_a   15.17846874
_cell_length_b   15.20887202
_cell_length_c   16.78413436
_cell_angle_alpha   89.92790071
_cell_angle_beta   89.97757317
_cell_angle_gamma   90.03770200
_symmetry_Int_Tables_number   1
_chemical_formula_structural   HfZrTaTiMo
_chemical_formula_sum   'Hf40 Zr40 Ta40 Ti40 Mo40'
_cell_volume   3874.56938144
_cell_formula_units_Z   40
loop_
 _symmetry_equiv_pos_site_id
 _symmetry_equiv_pos_as_xyz
  1  'x, y, z'
loop_
 _atom_site_type_symbol
 _atom_site_label
 _atom_site_symmetry_multiplicity
 _atom_site_fract_x
 _atom_site_fract_y
 _atom_site_fract_z
 _atom_site_occupancy
  Hf  Hf0  1  0.21107972  0.79384789  0.76295197  1
  Hf  Hf1  1  0.59707847  0.57947217  0.24473368  1
  Hf  Hf2  1  0.61513350  0.20082700  0.73132772  1
  Hf  Hf3  1  0.89709423  0.11329352  0.12186082  1
  Hf  Hf4  1  0.69952630  0.69512230  0.10681354  1
  Hf  Hf5  1  0.48231495  0.30361411  0.63271188  1
  Hf  Hf6  1  0.21658287  0.01541787  0.75343346  1
  Hf  Hf7  1  0.20372080  0.59595305  0.26198775  1
  Hf  Hf8  1  0.47649930  0.09570771  0.63349616  1
  Hf  Hf9  1  0.92154314  0.50761728  0.85430958  1
  Hf  Hf10  1  0.21618478  0.80689828  0.48671008  1
  Hf  Hf11  1  0.29640508  0.32180862  0.12821837  1
  Hf  Hf12  1  0.40347154  -0.00396325  0.49152203  1
  Hf  Hf13  1  0.68855685  0.09980683  0.38059441  1
  Hf  Hf14  1  0.90879669  0.50225442  0.11999339  1
  Hf  Hf15  1  0.80254467  -0.00020251  0.51466540  1
  Hf  Hf16  1  0.59157979  0.40266507  0.51231177  1
  Hf  Hf17  1  0.80096945  0.00157076  0.75143731  1
  Hf  Hf18  1  0.59611221  0.59701280  0.77153710  1
  Hf  Hf19  1  0.09337156  0.29317200  0.10849106  1
  Hf  Hf20  1  0.11227668  0.11676849  0.88671812  1
  Hf  Hf21  1  0.41210627  0.01331706  0.00733255  1
  Hf  Hf22  1  0.69692295  0.48768258  0.11110587  1
  Hf  Hf23  1  0.79801821  0.39500607  0.24752195  1
  Hf  Hf24  1  0.69804253  0.29751687  0.38265945  1
  Hf  Hf25  1  0.21008909  0.79567201  0.25027617  1
  Hf  Hf26  1  0.78863070  0.21759832  -0.00586633  1
  Hf  Hf27  1  0.09236406  0.10375383  0.37872903  1
  Hf  Hf28  1  0.71229160  0.87322900  0.63426964  1
  Hf  Hf29  1  0.79107902  0.59709441  0.51686678  1
  Hf  Hf30  1  0.80541074  0.79900324  0.24608936  1
  Hf  Hf31  1  0.39993093  0.59937333  0.26065249  1
  Hf  Hf32  1  0.09649912  0.70689067  0.38117572  1
  Hf  Hf33  1  0.89214488  0.72321173  0.64257823  1
  Hf  Hf34  1  0.80808592  0.80185002  0.49357790  1
  Hf  Hf35  1  0.30042112  0.68592318  0.88505145  1
  Hf  Hf36  1  0.59784286  -0.01103484  0.50894870  1
  Hf  Hf37  1  0.40872545  0.59190095  0.48997013  1
  Hf  Hf38  1  0.58747269  0.18605654  0.00527565  1
  Hf  Hf39  1  0.50793411  0.89831699  0.12454602  1
  Zr  Zr40  1  0.61807437  0.79086479  0.78042617  1
  Zr  Zr41  1  0.60060041  0.19627479  0.24827769  1
  Zr  Zr42  1  -0.01761442  0.21060071  0.24910079  1
  Zr  Zr43  1  0.09608182  0.50359205  0.62151600  1
  Zr  Zr44  1  0.29193653  0.27284254  0.63086220  1
  Zr  Zr45  1  0.10507526  0.90171783  0.63209668  1
  Zr  Zr46  1  0.30024852  0.28808407  0.86986489  1
  Zr  Zr47  1  0.21288112  0.59606411  0.48820427  1
  Zr  Zr48  1  0.09694865  0.31033401  0.60612701  1
  Zr  Zr49  1  0.10479413  0.90125615  0.87757278  1
  Zr  Zr50  1  0.01638911  0.21581933  0.75356139  1
  Zr  Zr51  1  0.88560250  0.10666514  0.37725530  1
  Zr  Zr52  1  0.11968706  0.48969811  0.12965970  1
  Zr  Zr53  1  0.78434651  0.61231455  0.75617013  1
  Zr  Zr54  1  0.79925013  0.01164253  -0.01449138  1
  Zr  Zr55  1  -0.00464395  0.60098560  0.25157662  1
  Zr  Zr56  1  0.10388297  0.90025251  0.11899537  1
  Zr  Zr57  1  0.70834091  0.68928199  0.37006254  1
  Zr  Zr58  1  0.48581425  0.48500735  0.87278918  1
  Zr  Zr59  1  0.31751966  0.89850474  0.63355323  1
  Zr  Zr60  1  0.60083136  -0.00416209  0.74752294  1
  Zr  Zr61  1  0.41579351  0.79896407  0.48704588  1
  Zr  Zr62  1  0.38727560  0.19776571  0.25776649  1
  Zr  Zr63  1  0.00473240  0.80048163  0.24157709  1
  Zr  Zr64  1  0.30052361  0.48207048  0.62986202  1
  Zr  Zr65  1  0.10532229  0.70680151  0.62320205  1
  Zr  Zr66  1  0.51345318  0.70430488  0.62884700  1
  Zr  Zr67  1  0.88371168  0.31240296  0.86182088  1
  Zr  Zr68  1  -0.01437936  0.61196918  0.50427148  1
  Zr  Zr69  1  0.39147677  0.80387286  -0.00328728  1
  Zr  Zr70  1  -0.00145427  -0.00079283  0.50946957  1
  Zr  Zr71  1  0.88981179  0.30804100  0.38942218  1
  Zr  Zr72  1  0.81071318  0.59382384  -0.01623578  1
  Zr  Zr73  1  0.18348309  0.20806226  0.25306491  1
  Zr  Zr74  1  0.70159889  0.90312179  0.11338150  1
  Zr  Zr75  1  0.59951156  0.78961192  0.24622884  1
  Zr  Zr76  1  0.21077418  0.00822886  0.49538067  1
  Zr  Zr77  1  0.39273743  0.60447152  0.75044929  1
  Zr  Zr78  1  0.89955387  0.90520637  0.11428717  1
  Zr  Zr79  1  0.21279165  -0.00513627  0.00366713  1
  Ta  Ta80  1  0.39800183  0.20994508  0.00849926  1
  Ta  Ta81  1  0.19277188  0.78358422  -0.00106341  1
  Ta  Ta82  1  0.88597400  0.50519079  0.37554221  1
  Ta  Ta83  1  0.60746206  0.40101077  0.74220088  1
  Ta  Ta84  1  0.69742989  0.29460360  0.12848623  1
  Ta  Ta85  1  0.89060788  0.30811036  0.63850630  1
  Ta  Ta86  1  0.59963313  0.38132764  -0.00548360  1
  Ta  Ta87  1  0.59968731  0.79868351  -0.01466851  1
  Ta  Ta88  1  0.69620568  0.11398220  0.86959759  1
  Ta  Ta89  1  0.90135256  0.70191828  0.11027380  1
  Ta  Ta90  1  0.20209251  0.57827745  -0.00020651  1
  Ta  Ta91  1  0.00699293  0.39978764  0.25715270  1
  Ta  Ta92  1  0.69425691  0.48929211  0.37557169  1
  Ta  Ta93  1  0.10308800  0.90880350  0.36565238  1
  Ta  Ta94  1  0.29835017  0.68572438  0.11746245  1
  Ta  Ta95  1  0.08864393  0.49459787  0.38569680  1
  Ta  Ta96  1  0.79581757  0.00897893  0.24857516  1
  Ta  Ta97  1  0.00701003  0.00892905  0.74856277  1
  Ta  Ta98  1  0.70001502  0.90463927  0.36926007  1
  Ta  Ta99  1  0.59060298  0.59015795  -0.01464716  1
  Ta  Ta100  1  0.38737843  0.39064520  0.48495270  1
  Ta  Ta101  1  0.39795574  0.19120802  0.48108452  1
  Ta  Ta102  1  0.89626436  0.50250238  0.64835538  1
  Ta  Ta103  1  0.90541181  0.90602288  0.36645323  1
  Ta  Ta104  1  0.49935676  0.91077085  0.88163183  1
  Ta  Ta105  1  -0.01112876  0.20159937  0.51116393  1
  Ta  Ta106  1  0.11342732  0.11345188  0.62314309  1
  Ta  Ta107  1  0.49359420  0.68598203  0.10928033  1
  Ta  Ta108  1  0.30600309  0.69743266  0.62666782  1
  Ta  Ta109  1  0.90216244  0.10830391  0.63866826  1
  Ta  Ta110  1  0.18412999  0.38722130  0.75429631  1
  Ta  Ta111  1  0.50469639  0.30001169  0.37551784  1
  Ta  Ta112  1  0.28539936  0.48518257  0.86831325  1
  Ta  Ta113  1  0.60144518  0.59741890  0.50086248  1
  Ta  Ta114  1  0.00373162  0.00868908  0.24356161  1
  Ta  Ta115  1  -0.00125845  0.79431202  -0.00823064  1
  Ta  Ta116  1  0.20293042  0.00938809  0.24378480  1
  Ta  Ta117  1  0.09229658  0.30647419  0.39338926  1
  Ta  Ta118  1  0.31688161  0.91232399  0.35274483  1
  Ta  Ta119  1  0.50166400  0.28915937  0.86161393  1
  Ti  Ti120  1  -0.02043141  0.41134693  0.50436001  1
  Ti  Ti121  1  0.90024410  0.70194972  0.37270377  1
  Ti  Ti122  1  0.41022626  0.80174543  0.77047268  1
  Ti  Ti123  1  0.90631922  0.70686757  0.86742432  1
  Ti  Ti124  1  0.49054632  0.49133808  0.11754264  1
  Ti  Ti125  1  0.09288141  0.68073776  0.87691925  1
  Ti  Ti126  1  0.49700676  0.09613553  0.13871283  1
  Ti  Ti127  1  0.00459202  0.42057160  -0.00697629  1
  Ti  Ti128  1  0.90593062  0.90904840  0.87439158  1
  Ti  Ti129  1  -0.00743897  0.20396281  -0.00796032  1
  Ti  Ti130  1  0.90226143  0.11115371  0.86421039  1
  Ti  Ti131  1  0.78834415  0.20221200  0.52373576  1
  Ti  Ti132  1  0.40576808  0.79428974  0.24909813  1
  Ti  Ti133  1  0.40696101  0.40696801  0.26616554  1
  Ti  Ti134  1  0.79933720  0.59826225  0.24193463  1
  Ti  Ti135  1  0.49773414  0.10508694  0.86448568  1
  Ti  Ti136  1  0.10235741  0.31664875  0.89097357  1
  Ti  Ti137  1  0.78829817  0.40652755  0.52001224  1
  Ti  Ti138  1  0.39349867  0.40370224  0.00037642  1
  Ti  Ti139  1  0.49486034  0.50171962  0.63392689  1
  Ti  Ti140  1  0.00116795  0.80783349  0.75924765  1
  Ti  Ti141  1  0.20856993  0.40155963  0.27510298  1
  Ti  Ti142  1  0.28948080  0.11031934  0.12277826  1
  Ti  Ti143  1  0.30675007  0.89702956  0.13406193  1
  Ti  Ti144  1  0.70962850  0.47380375  0.88056198  1
  Ti  Ti145  1  0.00286144  0.00900707  -0.00173329  1
  Ti  Ti146  1  0.50864085  0.69849522  0.37293442  1
  Ti  Ti147  1  0.69217361  0.09395296  0.12734235  1
  Ti  Ti148  1  0.49988110  0.30605203  0.13248217  1
  Ti  Ti149  1  0.31317565  0.09816591  0.88078261  1
  Ti  Ti150  1  0.61048987  0.79425612  0.49264309  1
  Ti  Ti151  1  0.50427214  0.89045784  0.63762718  1
  Ti  Ti152  1  0.18899267  0.59349389  0.75170863  1
  Ti  Ti153  1  0.89374197  0.31294596  0.11501546  1
  Ti  Ti154  1  0.20969231  0.20418695  0.48392445  1
  Ti  Ti155  1  0.49179621  0.07665140  0.35937433  1
  Ti  Ti156  1  0.09779230  0.68933216  0.11624813  1
  Ti  Ti157  1  -0.00073696  0.81391034  0.49996585  1
  Ti  Ti158  1  0.80051664  0.80254123  -0.02201825  1
  Ti  Ti159  1  0.59157313  0.19388948  0.51270784  1
  Mo  Mo160  1  0.40276369  -0.01009556  0.76252861  1
  Mo  Mo161  1  0.79408614  0.19975115  0.24041082  1
  Mo  Mo162  1  0.91114980  0.90555042  0.63993289  1
  Mo  Mo163  1  0.49646854  0.69773460  0.89235633  1
  Mo  Mo164  1  0.80981150  0.81066746  0.77767661  1
  Mo  Mo165  1  0.51247179  0.89820989  0.36024492  1
  Mo  Mo166  1  0.39918253  0.39414389  0.75052925  1
  Mo  Mo167  1  0.29876157  0.29908506  0.37369075  1
  Mo  Mo168  1  0.60105543  -0.00542336  0.25206291  1
  Mo  Mo169  1  0.29864961  0.09764793  0.36503972  1
  Mo  Mo170  1  0.20799987  0.20026793  0.00775910  1
  Mo  Mo171  1  0.59947081  0.00487470  -0.00961878  1
  Mo  Mo172  1  0.29933180  0.09771763  0.62040418  1
  Mo  Mo173  1  0.70318471  0.90927338  0.88630927  1
  Mo  Mo174  1  0.68493208  0.30062734  0.87111871  1
  Mo  Mo175  1  0.69598558  0.30250178  0.61519015  1
  Mo  Mo176  1  0.59102192  0.39570226  0.24723273  1
  Mo  Mo177  1  0.39649925  -0.00338589  0.23253422  1
  Mo  Mo178  1  0.69359035  0.70025028  0.62464882  1
  Mo  Mo179  1  0.09446745  0.10036747  0.11165787  1
  Mo  Mo180  1  0.80158101  0.39786118  0.00142098  1
  Mo  Mo181  1  0.68749907  0.50629739  0.63134210  1
  Mo  Mo182  1  0.69904397  0.09596958  0.61747256  1
  Mo  Mo183  1  0.00583606  0.61503064  0.74517037  1
  Mo  Mo184  1  0.50923027  0.49106048  0.37788442  1
  Mo  Mo185  1  0.31510105  0.50266536  0.12933543  1
  Mo  Mo186  1  0.10714236  0.49993888  0.87163954  1
  Mo  Mo187  1  0.00325771  0.40807357  0.74687424  1
  Mo  Mo188  1  0.31001997  0.70788351  0.36922813  1
  Mo  Mo189  1  0.01291311  0.60924651  -0.00073848  1
  Mo  Mo190  1  0.78744718  0.40133953  0.73990537  1
  Mo  Mo191  1  0.30109192  0.49601317  0.37761416  1
  Mo  Mo192  1  0.70423337  0.69360149  0.89596730  1
  Mo  Mo193  1  0.39632811  0.18464398  0.75691778  1
  Mo  Mo194  1  0.19497678  0.19720972  0.75402930  1
  Mo  Mo195  1  0.19927635  0.39740452  0.48558363  1
  Mo  Mo196  1  0.39570355  0.58820068  0.00293219  1
  Mo  Mo197  1  0.30700045  0.90119697  0.87463012  1
  Mo  Mo198  1  0.20560021  0.39545434  -0.00401743  1
  Mo  Mo199  1  0.79940472  0.19969731  0.74209491  1
