# generated using pymatgen
data_HfZrTaTiMo
_symmetry_space_group_name_H-M   'P 1'
_cell_length_a   15.21873878
_cell_length_b   15.22287317
_cell_length_c   16.86688044
_cell_angle_alpha   90.00510855
_cell_angle_beta   89.96101943
_cell_angle_gamma   90.02339219
_symmetry_Int_Tables_number   1
_chemical_formula_structural   HfZrTaTiMo
_chemical_formula_sum   'Hf40 Zr40 Ta40 Ti40 Mo40'
_cell_volume   3907.59836918
_cell_formula_units_Z   40
loop_
 _symmetry_equiv_pos_site_id
 _symmetry_equiv_pos_as_xyz
  1  'x, y, z'
loop_
 _atom_site_type_symbol
 _atom_site_label
 _atom_site_symmetry_multiplicity
 _atom_site_fract_x
 _atom_site_fract_y
 _atom_site_fract_z
 _atom_site_occupancy
  Hf  Hf0  1  0.79541329  0.19091010  0.74771912  1
  Hf  Hf1  1  0.39576527  0.39839002  0.74463892  1
  Hf  Hf2  1  0.47727585  0.10874334  0.88392131  1
  Hf  Hf3  1  0.20891039  0.60020518  0.75775090  1
  Hf  Hf4  1  0.58645500  0.18413662  0.51909368  1
  Hf  Hf5  1  0.27111938  0.09260620  0.88581440  1
  Hf  Hf6  1  0.50628395  0.49864411  0.86638329  1
  Hf  Hf7  1  0.01771584  0.39344817  0.75660664  1
  Hf  Hf8  1  -0.02138464  -0.00702157  0.01313202  1
  Hf  Hf9  1  0.11491852  0.70090929  0.36199309  1
  Hf  Hf10  1  0.71338181  0.69464167  0.12311619  1
  Hf  Hf11  1  0.11940919  0.71239584  0.88065133  1
  Hf  Hf12  1  0.38858752  0.19055431  0.24281319  1
  Hf  Hf13  1  0.29103434  0.49645536  0.38494487  1
  Hf  Hf14  1  0.70445490  0.49388692  0.64590567  1
  Hf  Hf15  1  0.71445865  0.90277999  0.87736767  1
  Hf  Hf16  1  0.07662093  0.11926574  0.12475652  1
  Hf  Hf17  1  0.40341794  0.59069634  0.25588339  1
  Hf  Hf18  1  0.82348303  0.81134760  0.00975800  1
  Hf  Hf19  1  0.19455829  0.39058572  0.50974393  1
  Hf  Hf20  1  0.11712406  0.89821748  0.63052641  1
  Hf  Hf21  1  0.58150594  0.20765258  0.24297914  1
  Hf  Hf22  1  0.80911789  0.79906410  0.24239613  1
  Hf  Hf23  1  0.60232549  0.81113327  0.24613484  1
  Hf  Hf24  1  0.48822805  0.10551453  0.10286236  1
  Hf  Hf25  1  0.81202222  0.60544030  0.75082360  1
  Hf  Hf26  1  0.27698079  0.09553737  0.10463765  1
  Hf  Hf27  1  0.81800210  0.59313540  0.51108042  1
  Hf  Hf28  1  0.02438967  0.80575644  0.01038903  1
  Hf  Hf29  1  0.29761745  0.09528449  0.37847266  1
  Hf  Hf30  1  0.88135743  0.08308315  0.88199855  1
  Hf  Hf31  1  0.11213808  0.90426735  0.37295926  1
  Hf  Hf32  1  0.89485798  0.88946576  0.39203926  1
  Hf  Hf33  1  0.69024953  0.30040514  0.13082675  1
  Hf  Hf34  1  0.51038239  0.48000377  0.13075994  1
  Hf  Hf35  1  0.50104954  0.70921146  0.37511117  1
  Hf  Hf36  1  -0.00594634  0.41057266  0.49250730  1
  Hf  Hf37  1  0.01124963  0.01863800  0.74862758  1
  Hf  Hf38  1  0.38157639  -0.02213447  -0.00359568  1
  Hf  Hf39  1  0.86134475  0.09607299  0.12709775  1
  Zr  Zr40  1  0.79714947  0.79785539  0.73686479  1
  Zr  Zr41  1  0.78737620  0.01112295  0.50977241  1
  Zr  Zr42  1  0.71233103  0.69953514  0.37514596  1
  Zr  Zr43  1  0.10222060  0.52352404  0.61776898  1
  Zr  Zr44  1  0.80363024  -0.00638565  0.73042993  1
  Zr  Zr45  1  0.70284379  0.69990597  0.87663359  1
  Zr  Zr46  1  0.60625423  0.59530887  0.00514338  1
  Zr  Zr47  1  0.60224775  0.39419792  0.50437903  1
  Zr  Zr48  1  0.91520520  0.11768434  0.61266656  1
  Zr  Zr49  1  0.71002232  0.92334881  0.11875087  1
  Zr  Zr50  1  0.39699863  -0.00785774  0.24152662  1
  Zr  Zr51  1  0.20672097  0.39395046  0.73738710  1
  Zr  Zr52  1  -0.01094358  0.43418832  0.25087500  1
  Zr  Zr53  1  0.90108497  0.30909258  0.62978413  1
  Zr  Zr54  1  0.39264775  0.38390708  0.25230461  1
  Zr  Zr55  1  0.50373731  0.89164478  0.87505677  1
  Zr  Zr56  1  0.79551305  0.39953053  0.49671307  1
  Zr  Zr57  1  0.90112453  0.30122888  0.13501948  1
  Zr  Zr58  1  0.09613243  0.51352674  0.10762521  1
  Zr  Zr59  1  0.80176847  0.39123878  -0.00809721  1
  Zr  Zr60  1  0.59624254  0.00722319  0.24542054  1
  Zr  Zr61  1  0.89640854  0.11864061  0.38265975  1
  Zr  Zr62  1  0.67678931  0.10470051  0.87740407  1
  Zr  Zr63  1  -0.01340278  0.01340658  0.25352681  1
  Zr  Zr64  1  0.91065546  0.50037884  0.88244449  1
  Zr  Zr65  1  0.01087021  0.81471701  0.23366735  1
  Zr  Zr66  1  0.00239165  0.80527502  0.75672436  1
  Zr  Zr67  1  0.68480577  0.10169907  0.38134140  1
  Zr  Zr68  1  0.12916323  0.71250411  0.12687469  1
  Zr  Zr69  1  0.29228202  0.70344552  0.62484953  1
  Zr  Zr70  1  0.90887999  0.89352025  0.60704493  1
  Zr  Zr71  1  0.59456158  -0.00349240  0.73075288  1
  Zr  Zr72  1  0.40621327  0.60594289  0.50032939  1
  Zr  Zr73  1  0.61081883  0.59833993  0.25127974  1
  Zr  Zr74  1  0.07810058  0.12444179  0.89632004  1
  Zr  Zr75  1  0.91452284  0.68001162  0.36568110  1
  Zr  Zr76  1  0.61243222  0.59627647  0.49596559  1
  Zr  Zr77  1  0.01794936  0.00933624  0.49358748  1
  Zr  Zr78  1  0.41377193  0.00131535  0.51546928  1
  Zr  Zr79  1  0.38745194  -0.00061563  0.75087498  1
  Ta  Ta80  1  0.28884991  0.88077287  0.12261469  1
  Ta  Ta81  1  0.91084978  0.28293140  0.87417855  1
  Ta  Ta82  1  0.01850911  0.77934285  0.50275217  1
  Ta  Ta83  1  0.28671494  0.10571589  0.62659554  1
  Ta  Ta84  1  0.50632326  0.69646603  0.87044413  1
  Ta  Ta85  1  0.49415727  0.89018431  0.11346980  1
  Ta  Ta86  1  0.01477218  0.38400863  -0.00289538  1
  Ta  Ta87  1  0.60187460  0.80050296  0.00621156  1
  Ta  Ta88  1  0.57932568  0.19771338  0.74079015  1
  Ta  Ta89  1  0.19222482  0.19563304  0.50038086  1
  Ta  Ta90  1  0.10283086  0.31108188  0.35618695  1
  Ta  Ta91  1  0.40208055  0.77590203  0.00069523  1
  Ta  Ta92  1  0.72116032  0.49246618  0.13456682  1
  Ta  Ta93  1  0.20346569  0.58747471  0.24747447  1
  Ta  Ta94  1  0.17554595  0.19661601  0.74794704  1
  Ta  Ta95  1  0.69203949  0.29685224  0.64156871  1
  Ta  Ta96  1  0.29344312  0.29371693  0.88053559  1
  Ta  Ta97  1  0.31505050  0.68783588  0.12817277  1
  Ta  Ta98  1  0.68430595  0.89005480  0.60901223  1
  Ta  Ta99  1  0.60297137  0.39845639  -0.00666559  1
  Ta  Ta100  1  0.40259095  0.79585152  0.24474365  1
  Ta  Ta101  1  0.21103477  -0.00227590  0.50243695  1
  Ta  Ta102  1  0.21032498  0.79849296  0.49713340  1
  Ta  Ta103  1  0.39908248  0.39222988  0.50527769  1
  Ta  Ta104  1  0.10574492  0.31423043  0.14325853  1
  Ta  Ta105  1  0.19797073  0.20419870  0.24602392  1
  Ta  Ta106  1  0.68917416  0.30317653  0.36533823  1
  Ta  Ta107  1  0.49001351  0.28669705  0.38676232  1
  Ta  Ta108  1  0.50955026  0.48238778  0.37286136  1
  Ta  Ta109  1  0.22395305  0.60916570  -0.00562021  1
  Ta  Ta110  1  0.49456323  0.29964590  0.86910285  1
  Ta  Ta111  1  0.10912772  0.91767092  0.87510268  1
  Ta  Ta112  1  0.68753302  0.89322590  0.39764937  1
  Ta  Ta113  1  0.40946213  0.60228981  0.74238323  1
  Ta  Ta114  1  0.69943058  0.49773070  0.86094357  1
  Ta  Ta115  1  0.68972013  0.30402828  0.86011381  1
  Ta  Ta116  1  0.50746189  0.50374067  0.63316884  1
  Ta  Ta117  1  0.48459204  0.29727879  0.62738082  1
  Ta  Ta118  1  0.19643850  -0.00119657  0.24279149  1
  Ta  Ta119  1  0.01112142  0.60339212  0.76290217  1
  Ti  Ti120  1  0.78527325  0.19706498  -0.00501686  1
  Ti  Ti121  1  0.89443984  0.31151821  0.36211307  1
  Ti  Ti122  1  0.40771592  0.79549671  0.74652636  1
  Ti  Ti123  1  0.30943218  0.89289026  0.37457505  1
  Ti  Ti124  1  0.00935732  0.21869979  0.48788498  1
  Ti  Ti125  1  0.79059978  0.19650190  0.25588461  1
  Ti  Ti126  1  0.59903654  0.00192141  0.00095461  1
  Ti  Ti127  1  0.50500056  0.69521362  0.12674631  1
  Ti  Ti128  1  0.49860132  0.90476368  0.38071441  1
  Ti  Ti129  1  0.21042615  0.40476937  -0.00196927  1
  Ti  Ti130  1  0.57447052  0.79966336  0.51007324  1
  Ti  Ti131  1  0.91092914  0.70717964  0.88330904  1
  Ti  Ti132  1  0.30030811  0.29917234  0.11584993  1
  Ti  Ti133  1  0.78832923  0.21309438  0.50431380  1
  Ti  Ti134  1  0.92047251  0.67738827  0.12296808  1
  Ti  Ti135  1  0.91015785  0.50120432  0.63849162  1
  Ti  Ti136  1  0.49145339  0.09759021  0.38007935  1
  Ti  Ti137  1  0.40537423  0.38822097  -0.00162062  1
  Ti  Ti138  1  0.17685238  0.22457688  0.00600346  1
  Ti  Ti139  1  0.29974368  0.49297284  0.12269942  1
  Ti  Ti140  1  0.79667104  0.78534079  0.51194130  1
  Ti  Ti141  1  0.30275567  0.70202642  0.37398224  1
  Ti  Ti142  1  0.29368339  0.29268904  0.37925685  1
  Ti  Ti143  1  0.09391769  0.51341521  0.37881061  1
  Ti  Ti144  1  0.40980225  0.58653757  0.00186649  1
  Ti  Ti145  1  0.80819407  0.39455400  0.76167424  1
  Ti  Ti146  1  0.30693786  0.50191831  0.61353538  1
  Ti  Ti147  1  0.29099138  0.88380233  0.87093049  1
  Ti  Ti148  1  0.37783443  0.20188584  0.74846258  1
  Ti  Ti149  1  0.11189819  0.50315214  0.88754857  1
  Ti  Ti150  1  0.92543504  0.69152334  0.62574823  1
  Ti  Ti151  1  0.71905974  0.49591868  0.35679605  1
  Ti  Ti152  1  0.68053604  0.69477511  0.63057939  1
  Ti  Ti153  1  0.81263786  0.59712055  -0.00125688  1
  Ti  Ti154  1  0.30911123  0.49715742  0.87783153  1
  Ti  Ti155  1  0.10441454  0.11386349  0.36419800  1
  Ti  Ti156  1  0.30531394  0.89800845  0.62958912  1
  Ti  Ti157  1  0.58561589  0.21728083  -0.00056165  1
  Ti  Ti158  1  0.31741465  0.69705517  0.87038582  1
  Ti  Ti159  1  0.79062495  -0.00871265  0.27005391  1
  Mo  Mo160  1  0.59629189  0.39730070  0.25976037  1
  Mo  Mo161  1  0.22389272  0.80545450  -0.00520973  1
  Mo  Mo162  1  0.90121588  0.90193820  0.13403542  1
  Mo  Mo163  1  0.89870916  0.50218041  0.37430746  1
  Mo  Mo164  1  0.29661531  0.29285877  0.62063957  1
  Mo  Mo165  1  0.00757555  0.60106283  0.50048893  1
  Mo  Mo166  1  0.19372609  0.60919386  0.49331554  1
  Mo  Mo167  1  0.68284800  0.11396470  0.10926063  1
  Mo  Mo168  1  0.00942740  0.60412960  -0.01385215  1
  Mo  Mo169  1  0.20391500  0.40454408  0.24890964  1
  Mo  Mo170  1  -0.00494413  0.20412683  0.75240280  1
  Mo  Mo171  1  0.10655104  0.10235168  0.62004474  1
  Mo  Mo172  1  0.79391800  0.39503565  0.25233724  1
  Mo  Mo173  1  0.20115672  0.00149329  0.75183420  1
  Mo  Mo174  1  0.49276236  0.88498834  0.63158208  1
  Mo  Mo175  1  0.18028343  -0.01210710  0.00708134  1
  Mo  Mo176  1  0.21410945  0.80812536  0.75526733  1
  Mo  Mo177  1  -0.00290544  0.21175525  0.26129854  1
  Mo  Mo178  1  0.22244682  0.80470155  0.25561517  1
  Mo  Mo179  1  0.09399300  0.28042848  0.61845529  1
  Mo  Mo180  1  0.38471565  0.20410284  0.50491256  1
  Mo  Mo181  1  0.59290212  0.79143068  0.74059395  1
  Mo  Mo182  1  0.69433318  0.10495732  0.62392323  1
  Mo  Mo183  1  0.01029626  0.60857313  0.24158845  1
  Mo  Mo184  1  0.10224224  0.70815793  0.63223765  1
  Mo  Mo185  1  0.39136444  0.80691502  0.49658012  1
  Mo  Mo186  1  0.90094081  0.50429035  0.10432837  1
  Mo  Mo187  1  0.91317483  0.89419523  0.87374132  1
  Mo  Mo188  1  0.48284324  0.10468401  0.63672408  1
  Mo  Mo189  1  0.38195831  0.20893286  -0.00559312  1
  Mo  Mo190  1  0.82192727  0.58585854  0.23809902  1
  Mo  Mo191  1  0.60031497  0.60374539  0.75025611  1
  Mo  Mo192  1  -0.02178801  0.21230241  0.00890917  1
  Mo  Mo193  1  0.59621920  0.39431443  0.74768183  1
  Mo  Mo194  1  0.11117472  0.91859547  0.12830720  1
  Mo  Mo195  1  0.49932005  0.70161969  0.62648643  1
  Mo  Mo196  1  0.59289731  -0.00824293  0.51155777  1
  Mo  Mo197  1  0.10617744  0.31005319  0.88032091  1
  Mo  Mo198  1  0.49078601  0.30237207  0.11287828  1
  Mo  Mo199  1  0.78797583  0.00119278  -0.00544852  1
