# generated using pymatgen
data_HfZrTaTiMo
_symmetry_space_group_name_H-M   'P 1'
_cell_length_a   15.21929998
_cell_length_b   15.20272011
_cell_length_c   16.82181091
_cell_angle_alpha   89.96108596
_cell_angle_beta   89.96589931
_cell_angle_gamma   90.01524825
_symmetry_Int_Tables_number   1
_chemical_formula_structural   HfZrTaTiMo
_chemical_formula_sum   'Hf40 Zr40 Ta40 Ti40 Mo40'
_cell_volume   3892.14070099
_cell_formula_units_Z   40
loop_
 _symmetry_equiv_pos_site_id
 _symmetry_equiv_pos_as_xyz
  1  'x, y, z'
loop_
 _atom_site_type_symbol
 _atom_site_label
 _atom_site_symmetry_multiplicity
 _atom_site_fract_x
 _atom_site_fract_y
 _atom_site_fract_z
 _atom_site_occupancy
  Hf  Hf0  1  0.10264237  0.70226753  0.88239343  1
  Hf  Hf1  1  0.89861483  0.09190319  0.12002695  1
  Hf  Hf2  1  0.90598126  0.29396265  0.35453943  1
  Hf  Hf3  1  0.88313656  0.28989273  0.87065287  1
  Hf  Hf4  1  0.39822474  0.61416119  0.25964883  1
  Hf  Hf5  1  0.78565524  -0.00166446  0.50200667  1
  Hf  Hf6  1  0.39412878  0.20575759  0.49562194  1
  Hf  Hf7  1  0.20058131  0.79379525  0.74198782  1
  Hf  Hf8  1  0.30300963  0.68237901  0.61332584  1
  Hf  Hf9  1  0.80313352  0.19137807  0.49662691  1
  Hf  Hf10  1  0.09213051  0.08684723  0.62601285  1
  Hf  Hf11  1  0.01390515  0.41224076  0.50322831  1
  Hf  Hf12  1  0.32317933  0.90410508  0.11998397  1
  Hf  Hf13  1  0.00213671  0.59187383  -0.00149327  1
  Hf  Hf14  1  0.90963484  0.50299198  0.62776468  1
  Hf  Hf15  1  0.09954602  0.29902450  0.62922311  1
  Hf  Hf16  1  0.79315191  0.40396903  0.23599365  1
  Hf  Hf17  1  -0.00131092  0.59654958  0.25369973  1
  Hf  Hf18  1  0.80890583  0.80276845  0.74638064  1
  Hf  Hf19  1  0.88961065  0.10210052  0.63379625  1
  Hf  Hf20  1  0.90144214  0.29711149  0.64239675  1
  Hf  Hf21  1  0.21637354  0.39735915  0.50640424  1
  Hf  Hf22  1  0.40157098  0.38959107  0.24893774  1
  Hf  Hf23  1  0.21004422  0.18042589  0.75024048  1
  Hf  Hf24  1  0.40427674  0.18143201  0.25722490  1
  Hf  Hf25  1  0.68908568  0.90641707  0.37286218  1
  Hf  Hf26  1  0.57867253  0.40326774  -0.01756259  1
  Hf  Hf27  1  0.78429963  0.60283157  0.74831195  1
  Hf  Hf28  1  0.59902051  0.18603651  0.50066851  1
  Hf  Hf29  1  0.09878044  0.89397062  0.12554630  1
  Hf  Hf30  1  0.60594118  0.82387143  0.00539988  1
  Hf  Hf31  1  0.80190955  0.39349482  0.50826527  1
  Hf  Hf32  1  0.21316484  0.79335135  0.26370897  1
  Hf  Hf33  1  0.09831693  0.67957558  0.60640243  1
  Hf  Hf34  1  0.40277171  0.60796803  0.75901145  1
  Hf  Hf35  1  0.39684458  0.41228326  0.74979328  1
  Hf  Hf36  1  0.69674783  0.28939737  0.63067151  1
  Hf  Hf37  1  0.80029777  0.60709047  0.24430993  1
  Hf  Hf38  1  0.00702720  0.79758917  0.26021912  1
  Hf  Hf39  1  0.09181667  0.49068420  0.12826908  1
  Zr  Zr40  1  0.20588422  0.58799483  0.75722277  1
  Zr  Zr41  1  0.19892973  0.39367862  -0.01513033  1
  Zr  Zr42  1  0.00372579  0.19305785  0.76971091  1
  Zr  Zr43  1  0.59941284  0.21394598  0.24055878  1
  Zr  Zr44  1  0.89596072  0.70489087  0.88314541  1
  Zr  Zr45  1  0.40753132  -0.00117677  0.52147040  1
  Zr  Zr46  1  -0.00025543  0.01389506  0.48519274  1
  Zr  Zr47  1  0.49792415  0.50439885  0.12784265  1
  Zr  Zr48  1  0.40848245  0.79806397  0.49466515  1
  Zr  Zr49  1  0.80420915  0.81248265  0.24078567  1
  Zr  Zr50  1  0.69216905  0.49686926  0.38190479  1
  Zr  Zr51  1  0.50455711  0.31071122  0.38121395  1
  Zr  Zr52  1  0.19220573  0.39862653  0.75590966  1
  Zr  Zr53  1  0.30361532  0.69537998  0.11458684  1
  Zr  Zr54  1  0.00398360  -0.01271417  0.76088983  1
  Zr  Zr55  1  0.29961244  0.07144176  0.38161192  1
  Zr  Zr56  1  0.58563782  0.00488563  0.24081601  1
  Zr  Zr57  1  0.90192155  0.49622522  0.37730047  1
  Zr  Zr58  1  -0.00753309  0.39102991  -0.01256370  1
  Zr  Zr59  1  0.00317178  0.59777159  0.75713581  1
  Zr  Zr60  1  0.51291813  0.70598574  0.88346081  1
  Zr  Zr61  1  0.19812348  0.59739061  0.26218258  1
  Zr  Zr62  1  0.58171367  0.61436278  0.50132338  1
  Zr  Zr63  1  0.69387267  0.50120899  0.11260298  1
  Zr  Zr64  1  0.89620916  0.70234957  0.61287558  1
  Zr  Zr65  1  0.20676712  -0.00027970  0.24361330  1
  Zr  Zr66  1  0.60617104  0.79836831  0.75001246  1
  Zr  Zr67  1  0.29801632  0.11427088  0.11076575  1
  Zr  Zr68  1  0.09429623  0.09848806  0.11747886  1
  Zr  Zr69  1  0.19346978  0.18370294  0.49693523  1
  Zr  Zr70  1  0.69869177  0.70676131  0.11410198  1
  Zr  Zr71  1  0.30873220  0.29169223  0.87061739  1
  Zr  Zr72  1  0.00544658  0.81138797  0.49095914  1
  Zr  Zr73  1  0.70287866  0.30004300  0.37261716  1
  Zr  Zr74  1  0.78377086  0.40112907  0.75679627  1
  Zr  Zr75  1  0.49706735  0.11738234  0.64790992  1
  Zr  Zr76  1  0.11522659  0.28837941  0.12648593  1
  Zr  Zr77  1  0.10281884  0.30628537  0.36862063  1
  Zr  Zr78  1  0.69726421  0.70738036  0.38065624  1
  Zr  Zr79  1  0.90759221  0.29950951  0.13041983  1
  Ta  Ta80  1  0.40616218  0.20841895  -0.00512089  1
  Ta  Ta81  1  0.11553365  0.91388597  0.37524738  1
  Ta  Ta82  1  0.60009805  0.82323274  0.51070855  1
  Ta  Ta83  1  0.49557619  0.10545666  0.86492972  1
  Ta  Ta84  1  0.88748613  0.50074117  0.87487191  1
  Ta  Ta85  1  0.10462852  0.69649129  0.11934555  1
  Ta  Ta86  1  0.20809014  0.79223629  0.48771014  1
  Ta  Ta87  1  0.20543879  -0.00897496  -0.00190859  1
  Ta  Ta88  1  0.79908420  0.00003851  0.75815341  1
  Ta  Ta89  1  0.50138041  0.50655130  0.37150181  1
  Ta  Ta90  1  0.90781267  0.90737357  0.62358598  1
  Ta  Ta91  1  0.20599013  -0.01669542  0.73990603  1
  Ta  Ta92  1  0.49629366  0.70829178  0.11547988  1
  Ta  Ta93  1  0.68122977  0.49458553  0.61877974  1
  Ta  Ta94  1  0.31273453  0.28996655  0.63379483  1
  Ta  Ta95  1  0.58972885  0.80311273  0.24103180  1
  Ta  Ta96  1  0.59588885  0.60698462  0.25325398  1
  Ta  Ta97  1  0.20216516  0.79909267  0.00074259  1
  Ta  Ta98  1  0.59162080  0.41298476  0.76590734  1
  Ta  Ta99  1  0.10522215  0.89462194  0.88169704  1
  Ta  Ta100  1  0.70445498  0.90532375  0.87534510  1
  Ta  Ta101  1  0.20963526  0.20251254  0.26225179  1
  Ta  Ta102  1  0.89820517  0.89696823  0.88494664  1
  Ta  Ta103  1  0.50816605  0.31858636  0.62763265  1
  Ta  Ta104  1  0.49222954  0.09124400  0.10834744  1
  Ta  Ta105  1  0.20734288  0.39671690  0.25052533  1
  Ta  Ta106  1  0.59857441  0.20335483  -0.01216859  1
  Ta  Ta107  1  0.30377896  0.70545522  0.88584391  1
  Ta  Ta108  1  0.68989783  0.09087146  0.64580641  1
  Ta  Ta109  1  0.30774503  0.08628668  0.88258542  1
  Ta  Ta110  1  -0.00725694  -0.00235693  0.25752765  1
  Ta  Ta111  1  0.60720042  0.21706179  0.77149749  1
  Ta  Ta112  1  0.89869328  0.70191023  0.38649226  1
  Ta  Ta113  1  0.30260265  0.48458851  0.37590864  1
  Ta  Ta114  1  -0.00647340  0.20648449  0.49613224  1
  Ta  Ta115  1  0.29790861  0.48723159  0.11802189  1
  Ta  Ta116  1  0.90971128  0.70337098  0.11839212  1
  Ta  Ta117  1  0.79503038  0.19883470  0.00157713  1
  Ta  Ta118  1  0.69316943  0.10309566  0.11317603  1
  Ta  Ta119  1  0.40464696  0.58778572  -0.00992834  1
  Ti  Ti120  1  0.69343738  0.09871401  0.36655690  1
  Ti  Ti121  1  0.40854447  0.40607442  0.50561480  1
  Ti  Ti122  1  0.89105641  0.08793103  0.88659332  1
  Ti  Ti123  1  0.30070424  0.89939897  0.87540974  1
  Ti  Ti124  1  0.70382712  0.10257092  0.87518977  1
  Ti  Ti125  1  0.51188378  0.91219031  0.64227806  1
  Ti  Ti126  1  0.69005636  0.51737228  0.88817382  1
  Ti  Ti127  1  0.11303674  0.08983362  0.88364184  1
  Ti  Ti128  1  0.69329874  0.69999730  0.61811030  1
  Ti  Ti129  1  0.68902309  0.30244754  0.11426792  1
  Ti  Ti130  1  0.79370942  0.00077802  0.23834149  1
  Ti  Ti131  1  0.80455590  0.59889547  0.00598249  1
  Ti  Ti132  1  0.59620204  0.59606755  0.74718217  1
  Ti  Ti133  1  0.49355125  0.91898417  0.37734142  1
  Ti  Ti134  1  0.40489238  0.81149523  -0.00791264  1
  Ti  Ti135  1  0.79571974  0.80460570  0.50544413  1
  Ti  Ti136  1  0.38730307  0.00544444  0.74144185  1
  Ti  Ti137  1  0.79983955  0.59786548  0.50488692  1
  Ti  Ti138  1  0.48873910  0.51281180  0.62107885  1
  Ti  Ti139  1  0.49086523  0.29837694  0.11801945  1
  Ti  Ti140  1  0.38568710  0.59680877  0.48378296  1
  Ti  Ti141  1  0.49962203  0.71213040  0.63147827  1
  Ti  Ti142  1  0.79541952  0.19267538  0.23736135  1
  Ti  Ti143  1  0.40764134  0.81194927  0.26192131  1
  Ti  Ti144  1  0.89079353  0.90323072  0.37495345  1
  Ti  Ti145  1  0.79279853  -0.01347652  0.00761614  1
  Ti  Ti146  1  0.49794938  0.91547933  0.86349563  1
  Ti  Ti147  1  0.39357803  0.81020636  0.74798297  1
  Ti  Ti148  1  -0.00159982  0.80312407  0.00618200  1
  Ti  Ti149  1  0.20575575  -0.02447898  0.52426060  1
  Ti  Ti150  1  0.70242011  0.90624648  0.63383592  1
  Ti  Ti151  1  0.00616606  0.80086423  0.74350546  1
  Ti  Ti152  1  0.59488093  0.00937115  -0.00695700  1
  Ti  Ti153  1  0.79455653  0.39991235  -0.00055761  1
  Ti  Ti154  1  0.70889136  0.70901199  0.89356251  1
  Ti  Ti155  1  0.00419977  0.40416068  0.76812915  1
  Ti  Ti156  1  -0.00118170  -0.00797284  -0.00440129  1
  Ti  Ti157  1  0.20237800  0.59252425  -0.00670283  1
  Ti  Ti158  1  0.00611472  0.19451651  -0.01489075  1
  Ti  Ti159  1  0.89328783  0.10091381  0.36096059  1
  Mo  Mo160  1  0.30305330  0.89541946  0.37932971  1
  Mo  Mo161  1  0.69836122  0.30328893  0.88775426  1
  Mo  Mo162  1  0.30684537  0.88796611  0.63227758  1
  Mo  Mo163  1  0.09728706  0.28457754  0.87315477  1
  Mo  Mo164  1  0.40562872  -0.00685148  0.24836089  1
  Mo  Mo165  1  0.09216436  0.49758626  0.87987685  1
  Mo  Mo166  1  0.80845519  0.80980867  0.00889602  1
  Mo  Mo167  1  0.19252221  0.58837620  0.47938994  1
  Mo  Mo168  1  0.49784374  0.29973305  0.87027007  1
  Mo  Mo169  1  0.60178965  0.00330175  0.76674872  1
  Mo  Mo170  1  0.30378010  0.29627637  0.37408561  1
  Mo  Mo171  1  0.51137447  0.09338335  0.38038598  1
  Mo  Mo172  1  0.89496731  0.50698945  0.11998672  1
  Mo  Mo173  1  0.40219114  0.20504887  0.75031201  1
  Mo  Mo174  1  0.50156724  0.89846801  0.11964008  1
  Mo  Mo175  1  0.79226498  0.18764898  0.76233562  1
  Mo  Mo176  1  0.90588024  0.90227384  0.12197464  1
  Mo  Mo177  1  0.50718242  0.71367471  0.36785103  1
  Mo  Mo178  1  0.59292304  0.40412206  0.50996788  1
  Mo  Mo179  1  0.49717625  0.50680390  0.87182542  1
  Mo  Mo180  1  0.30051343  0.50735767  0.88591656  1
  Mo  Mo181  1  0.29456237  0.09739540  0.62581715  1
  Mo  Mo182  1  0.59716199  0.41060870  0.24328803  1
  Mo  Mo183  1  0.60034832  -0.00184640  0.50773534  1
  Mo  Mo184  1  -0.00008932  0.60068885  0.48495028  1
  Mo  Mo185  1  0.30472840  0.49544926  0.61475325  1
  Mo  Mo186  1  0.00333055  0.18770785  0.25156816  1
  Mo  Mo187  1  0.59720340  0.61015001  -0.00404061  1
  Mo  Mo188  1  0.39462458  0.39833854  0.00303098  1
  Mo  Mo189  1  0.30729209  0.30064572  0.12003559  1
  Mo  Mo190  1  0.19854228  0.19053395  -0.01686111  1
  Mo  Mo191  1  0.09795808  0.69792763  0.38701678  1
  Mo  Mo192  1  0.00601372  0.40157701  0.24353831  1
  Mo  Mo193  1  0.11116876  0.50103615  0.62135690  1
  Mo  Mo194  1  0.30640093  0.69540708  0.38307152  1
  Mo  Mo195  1  0.08622978  0.10645679  0.36269525  1
  Mo  Mo196  1  0.70182387  0.91681227  0.12539345  1
  Mo  Mo197  1  0.09948429  0.88916412  0.62095575  1
  Mo  Mo198  1  0.10536344  0.49768367  0.36839730  1
  Mo  Mo199  1  0.41045232  -0.00107634  -0.01294267  1
