# generated using pymatgen
data_HfZrTaTiMo
_symmetry_space_group_name_H-M   'P 1'
_cell_length_a   15.19787356
_cell_length_b   15.21098394
_cell_length_c   16.82848442
_cell_angle_alpha   90.01543338
_cell_angle_beta   89.94657785
_cell_angle_gamma   90.09811403
_symmetry_Int_Tables_number   1
_chemical_formula_structural   HfZrTaTiMo
_chemical_formula_sum   'Hf40 Zr40 Ta40 Ti40 Mo40'
_cell_volume   3890.31079730
_cell_formula_units_Z   40
loop_
 _symmetry_equiv_pos_site_id
 _symmetry_equiv_pos_as_xyz
  1  'x, y, z'
loop_
 _atom_site_type_symbol
 _atom_site_label
 _atom_site_symmetry_multiplicity
 _atom_site_fract_x
 _atom_site_fract_y
 _atom_site_fract_z
 _atom_site_occupancy
  Hf  Hf0  1  0.80630907  0.82478362  0.51070523  1
  Hf  Hf1  1  0.00469624  0.39095614  0.49898565  1
  Hf  Hf2  1  0.50219024  0.48980047  0.13229871  1
  Hf  Hf3  1  0.80613837  0.60301290  0.24548823  1
  Hf  Hf4  1  0.90274662  0.92490974  0.64589943  1
  Hf  Hf5  1  0.19609759  0.58754437  0.00826692  1
  Hf  Hf6  1  0.02091901  0.40820799  -0.01647305  1
  Hf  Hf7  1  0.10596290  0.51809825  0.61051512  1
  Hf  Hf8  1  0.41096985  0.38747099  -0.00301604  1
  Hf  Hf9  1  0.79382791  0.00099308  0.00637954  1
  Hf  Hf10  1  0.10033659  0.48886205  0.13943610  1
  Hf  Hf11  1  0.80583349  0.39448013  0.75709214  1
  Hf  Hf12  1  0.21573869  0.79099431  0.74235203  1
  Hf  Hf13  1  0.90096908  0.50764331  0.62051989  1
  Hf  Hf14  1  0.01083283  0.79611730  0.74766408  1
  Hf  Hf15  1  0.19665429  0.19448475  -0.00531961  1
  Hf  Hf16  1  0.31205895  0.28597160  0.86711934  1
  Hf  Hf17  1  -0.02541632  0.19745987  0.76688764  1
  Hf  Hf18  1  0.71507295  0.89912613  0.36579065  1
  Hf  Hf19  1  0.61004696  0.00033224  0.49454783  1
  Hf  Hf20  1  0.79403774  0.61050965  0.50686180  1
  Hf  Hf21  1  0.40824749  -0.00945420  0.48468348  1
  Hf  Hf22  1  0.70197683  0.29353073  0.64123577  1
  Hf  Hf23  1  0.39385948  0.78629757  0.48019839  1
  Hf  Hf24  1  0.69906216  0.89446313  0.88554085  1
  Hf  Hf25  1  0.89880490  0.70984869  0.88522025  1
  Hf  Hf26  1  0.79719689  0.38874253  0.50789572  1
  Hf  Hf27  1  0.20412738  0.59865803  0.25834145  1
  Hf  Hf28  1  0.30063515  0.48473799  0.37542265  1
  Hf  Hf29  1  0.11045826  0.10850230  0.14759931  1
  Hf  Hf30  1  0.91413147  0.90895719  0.87972037  1
  Hf  Hf31  1  0.11295615  0.30453596  0.86518856  1
  Hf  Hf32  1  0.01439425  0.01052480  0.01051210  1
  Hf  Hf33  1  0.07565083  0.89695763  0.36815948  1
  Hf  Hf34  1  0.59611859  0.58974381  0.00070250  1
  Hf  Hf35  1  0.08015138  0.10055029  0.63166012  1
  Hf  Hf36  1  0.19901252  0.79483158  0.24814314  1
  Hf  Hf37  1  0.50853687  0.29675351  0.63947616  1
  Hf  Hf38  1  0.69548088  0.70346786  0.63005178  1
  Hf  Hf39  1  0.89964810  0.50245094  0.38702020  1
  Zr  Zr40  1  0.29201480  0.08832319  0.61775074  1
  Zr  Zr41  1  0.61762305  0.39077015  0.24634184  1
  Zr  Zr42  1  0.58845341  -0.00607816  0.76697175  1
  Zr  Zr43  1  0.80292917  0.03042225  0.77623796  1
  Zr  Zr44  1  0.89382335  0.72820486  0.37717772  1
  Zr  Zr45  1  -0.01925014  -0.00138284  0.49849960  1
  Zr  Zr46  1  0.59303440  0.80320582  0.01391444  1
  Zr  Zr47  1  0.69557689  0.90639843  0.63928511  1
  Zr  Zr48  1  0.90258157  0.30887300  0.11147103  1
  Zr  Zr49  1  0.11856338  0.89293202  0.87805056  1
  Zr  Zr50  1  0.49769064  0.89431642  0.61828334  1
  Zr  Zr51  1  0.59631679  0.39920905  0.50014101  1
  Zr  Zr52  1  0.20748723  0.41050701  0.73332149  1
  Zr  Zr53  1  0.50167619  0.28140101  0.36698377  1
  Zr  Zr54  1  0.28747397  0.49042301  0.87997311  1
  Zr  Zr55  1  0.40884933  0.19422674  0.50693513  1
  Zr  Zr56  1  0.60402140  0.61569806  0.23507049  1
  Zr  Zr57  1  0.00536565  0.40963206  0.74586980  1
  Zr  Zr58  1  0.68499678  0.11271158  0.11759268  1
  Zr  Zr59  1  0.30542454  0.10058543  0.37068388  1
  Zr  Zr60  1  0.77427723  0.79686259  0.21145028  1
  Zr  Zr61  1  0.40017584  0.79835716  0.26643664  1
  Zr  Zr62  1  0.38304865  0.59928573  0.74978719  1
  Zr  Zr63  1  0.41152512  0.80049640  0.74792435  1
  Zr  Zr64  1  0.69103677  0.10720643  0.35934488  1
  Zr  Zr65  1  0.80444978  -0.00589463  0.22076784  1
  Zr  Zr66  1  0.90970966  0.50426600  0.12215810  1
  Zr  Zr67  1  0.49752921  0.68768222  0.62196231  1
  Zr  Zr68  1  0.22280472  -0.00020900  0.00734469  1
  Zr  Zr69  1  0.70120161  0.50537730  0.37500669  1
  Zr  Zr70  1  0.10332489  0.30300000  0.12599647  1
  Zr  Zr71  1  0.09041989  0.69026280  0.12588982  1
  Zr  Zr72  1  -0.00479610  0.21762000  0.26762173  1
  Zr  Zr73  1  0.89452398  0.08375849  0.36099842  1
  Zr  Zr74  1  -0.02360756  0.80769245  0.22928082  1
  Zr  Zr75  1  0.50014229  0.49768793  0.36146793  1
  Zr  Zr76  1  0.30409660  0.28171491  0.12352184  1
  Zr  Zr77  1  0.30310881  0.48845825  0.13166383  1
  Zr  Zr78  1  0.30031966  0.70374134  0.88532679  1
  Zr  Zr79  1  0.80208036  0.60749498  0.74979193  1
  Ta  Ta80  1  0.20635443  0.79703930  0.01853534  1
  Ta  Ta81  1  0.79595818  0.20517206  -0.02053548  1
  Ta  Ta82  1  0.30907802  0.07686737  0.15499871  1
  Ta  Ta83  1  0.81587426  0.39672540  0.25269862  1
  Ta  Ta84  1  0.39984344  0.17533902  0.00044505  1
  Ta  Ta85  1  0.68635256  0.49945287  0.63684433  1
  Ta  Ta86  1  0.40109866  0.59255757  0.49206943  1
  Ta  Ta87  1  0.21202871  0.21908954  0.27139585  1
  Ta  Ta88  1  0.50808177  0.28765432  0.12857741  1
  Ta  Ta89  1  0.80033154  0.80431453  0.75493358  1
  Ta  Ta90  1  0.49213476  0.10313767  0.13753015  1
  Ta  Ta91  1  0.71547859  0.49891895  0.11393559  1
  Ta  Ta92  1  0.38948175  -0.00391777  0.74228356  1
  Ta  Ta93  1  0.51440620  0.09625689  0.63161907  1
  Ta  Ta94  1  0.09759993  0.09193613  0.86287848  1
  Ta  Ta95  1  0.40414228  0.39943618  0.74278147  1
  Ta  Ta96  1  -0.00209136  0.19992765  0.48567175  1
  Ta  Ta97  1  0.59887005  0.79514117  0.48650481  1
  Ta  Ta98  1  0.40119842  0.39771379  0.51051575  1
  Ta  Ta99  1  0.00645956  0.80475147  0.01050124  1
  Ta  Ta100  1  0.19010593  0.20446153  0.49188444  1
  Ta  Ta101  1  0.79381383  0.21355557  0.24182851  1
  Ta  Ta102  1  0.00369836  0.60535895  0.27016898  1
  Ta  Ta103  1  0.01017098  0.62479176  0.48813232  1
  Ta  Ta104  1  0.70423764  0.30783816  0.11006784  1
  Ta  Ta105  1  0.71252451  0.10413962  0.63024410  1
  Ta  Ta106  1  0.10335256  0.89841022  0.61745296  1
  Ta  Ta107  1  0.31792783  0.90577520  0.87665267  1
  Ta  Ta108  1  0.47974392  0.91545382  0.13307964  1
  Ta  Ta109  1  0.90839971  0.51225841  0.87053460  1
  Ta  Ta110  1  0.61182413  0.19555415  0.50440905  1
  Ta  Ta111  1  0.70363304  0.69619036  0.89007805  1
  Ta  Ta112  1  0.40010728  0.60370055  0.00617378  1
  Ta  Ta113  1  0.10677572  0.50619546  0.38822220  1
  Ta  Ta114  1  0.58670293  0.20574790  -0.01197783  1
  Ta  Ta115  1  0.10844141  0.90935937  0.13565019  1
  Ta  Ta116  1  0.90533019  0.11371140  0.11987035  1
  Ta  Ta117  1  0.90180952  0.28168848  0.62474242  1
  Ta  Ta118  1  0.29982038  0.29794669  0.62309713  1
  Ta  Ta119  1  0.10008803  0.69034164  0.87931489  1
  Ti  Ti120  1  0.39348115  0.81239848  0.00938963  1
  Ti  Ti121  1  0.29157989  0.88480209  0.60597597  1
  Ti  Ti122  1  0.49975376  0.70243858  0.88426749  1
  Ti  Ti123  1  0.60794624  0.18720933  0.76643600  1
  Ti  Ti124  1  0.80393767  0.40651976  -0.01840239  1
  Ti  Ti125  1  0.71076031  0.29839757  0.37569064  1
  Ti  Ti126  1  0.39944270  0.18850788  0.74035182  1
  Ti  Ti127  1  0.28153692  0.89707065  0.37802820  1
  Ti  Ti128  1  0.60559973  0.39576392  -0.00523491  1
  Ti  Ti129  1  0.48418907  0.70260248  0.12384699  1
  Ti  Ti130  1  0.48133503  0.09252970  0.87151275  1
  Ti  Ti131  1  -0.00162806  0.59979092  -0.00519963  1
  Ti  Ti132  1  0.59231561  -0.00506510  0.24877290  1
  Ti  Ti133  1  0.18933489  -0.00060934  0.49429319  1
  Ti  Ti134  1  0.30317748  0.51461051  0.61525583  1
  Ti  Ti135  1  0.59040756  0.80570367  0.24039219  1
  Ti  Ti136  1  0.59267401  0.59805266  0.76233037  1
  Ti  Ti137  1  -0.00349967  0.20374410  -0.01559384  1
  Ti  Ti138  1  0.88317479  0.69365252  0.09895853  1
  Ti  Ti139  1  0.57466360  0.00595824  -0.00306242  1
  Ti  Ti140  1  0.69592603  0.50067546  0.87027849  1
  Ti  Ti141  1  0.29368727  0.09242088  0.86378368  1
  Ti  Ti142  1  0.69272631  0.70282055  0.37309207  1
  Ti  Ti143  1  0.38522903  0.37567702  0.25288762  1
  Ti  Ti144  1  0.60370475  0.79064212  0.76607781  1
  Ti  Ti145  1  0.10229974  0.09435178  0.36183904  1
  Ti  Ti146  1  0.50328723  0.29982948  0.85923930  1
  Ti  Ti147  1  0.49632926  0.49574463  0.87193283  1
  Ti  Ti148  1  0.59436863  0.60020324  0.49750267  1
  Ti  Ti149  1  0.91416234  0.70970217  0.62382547  1
  Ti  Ti150  1  0.20158814  0.19339305  0.74294035  1
  Ti  Ti151  1  0.20696857  0.39683282  0.50640221  1
  Ti  Ti152  1  0.00859026  0.40520730  0.27409720  1
  Ti  Ti153  1  0.69411050  0.30358623  0.86994842  1
  Ti  Ti154  1  0.11585329  0.70689166  0.61279802  1
  Ti  Ti155  1  0.10028439  0.29499765  0.62529369  1
  Ti  Ti156  1  0.50155469  0.49695497  0.63146403  1
  Ti  Ti157  1  0.39827174  0.60915237  0.25473460  1
  Ti  Ti158  1  0.19835861  -0.01015365  0.74367284  1
  Ti  Ti159  1  0.80528149  0.18802435  0.49576307  1
  Mo  Mo160  1  0.59752538  0.40836403  0.75977079  1
  Mo  Mo161  1  0.90395088  0.10174846  0.89504626  1
  Mo  Mo162  1  0.40531356  -0.00959461  0.27335615  1
  Mo  Mo163  1  0.51392190  0.89658628  0.37134020  1
  Mo  Mo164  1  0.79224851  0.20599833  0.77385835  1
  Mo  Mo165  1  0.69429510  0.68986212  0.10351992  1
  Mo  Mo166  1  0.29587530  0.69025748  0.37954110  1
  Mo  Mo167  1  0.50694478  0.09197821  0.36483325  1
  Mo  Mo168  1  0.40187038  0.00147493  0.00363248  1
  Mo  Mo169  1  0.20814692  0.39291213  -0.00524468  1
  Mo  Mo170  1  -0.00159643  0.80512105  0.51311205  1
  Mo  Mo171  1  0.89847766  0.31139057  0.88619111  1
  Mo  Mo172  1  0.89136298  0.11295974  0.62640084  1
  Mo  Mo173  1  0.19755494  -0.00368196  0.26145155  1
  Mo  Mo174  1  0.09848263  0.51444448  0.86749486  1
  Mo  Mo175  1  0.79187912  0.01459536  0.50377824  1
  Mo  Mo176  1  0.21040612  0.60665298  0.48881091  1
  Mo  Mo177  1  0.30700679  0.69748376  0.12040471  1
  Mo  Mo178  1  0.30386277  0.30020060  0.39254596  1
  Mo  Mo179  1  0.01114786  0.00125937  0.75477829  1
  Mo  Mo180  1  0.68264217  0.10563489  0.89372194  1
  Mo  Mo181  1  0.40597916  0.19577924  0.25216265  1
  Mo  Mo182  1  0.79849906  0.80125419  0.00954260  1
  Mo  Mo183  1  0.79944127  0.59105142  -0.01338754  1
  Mo  Mo184  1  0.10078558  0.70709240  0.37441479  1
  Mo  Mo185  1  0.10748456  0.30697647  0.38528513  1
  Mo  Mo186  1  0.18334596  0.60834489  0.74538212  1
  Mo  Mo187  1  0.00044131  0.00542192  0.23231447  1
  Mo  Mo188  1  0.60736289  0.20042854  0.24169616  1
  Mo  Mo189  1  0.00929038  0.61176370  0.74516858  1
  Mo  Mo190  1  0.49205342  0.89320830  0.88036041  1
  Mo  Mo191  1  0.50876834  0.69248914  0.37459389  1
  Mo  Mo192  1  0.89275876  0.29819557  0.37905779  1
  Mo  Mo193  1  0.90242140  0.90268640  0.10194371  1
  Mo  Mo194  1  0.19469181  0.39454014  0.26413697  1
  Mo  Mo195  1  0.18581817  0.79999289  0.48980619  1
  Mo  Mo196  1  0.67557508  0.90851316  0.11503827  1
  Mo  Mo197  1  0.88970263  0.90458472  0.36755772  1
  Mo  Mo198  1  0.29233961  0.69478566  0.60813206  1
  Mo  Mo199  1  0.30147028  0.89511726  0.13598419  1
