# generated using pymatgen
data_HfZrTaTiMo
_symmetry_space_group_name_H-M   'P 1'
_cell_length_a   15.21108496
_cell_length_b   15.21168472
_cell_length_c   16.82651622
_cell_angle_alpha   89.91113289
_cell_angle_beta   90.04489258
_cell_angle_gamma   89.95395802
_symmetry_Int_Tables_number   1
_chemical_formula_structural   HfZrTaTiMo
_chemical_formula_sum   'Hf40 Zr40 Ta40 Ti40 Mo40'
_cell_volume   3893.41699162
_cell_formula_units_Z   40
loop_
 _symmetry_equiv_pos_site_id
 _symmetry_equiv_pos_as_xyz
  1  'x, y, z'
loop_
 _atom_site_type_symbol
 _atom_site_label
 _atom_site_symmetry_multiplicity
 _atom_site_fract_x
 _atom_site_fract_y
 _atom_site_fract_z
 _atom_site_occupancy
  Hf  Hf0  1  0.30748304  0.10153229  0.61484341  1
  Hf  Hf1  1  0.90316340  0.09615617  0.62172427  1
  Hf  Hf2  1  0.69490290  0.92142639  0.36755287  1
  Hf  Hf3  1  0.20986771  0.61245759  -0.01908320  1
  Hf  Hf4  1  0.40544457  -0.01119548  0.25808644  1
  Hf  Hf5  1  0.80652788  -0.00550541  0.01328894  1
  Hf  Hf6  1  0.79217713  0.59998769  0.49965255  1
  Hf  Hf7  1  0.69984462  0.71132676  0.62231767  1
  Hf  Hf8  1  0.30215250  0.89526518  0.62963962  1
  Hf  Hf9  1  0.60679932  0.58223657  0.74057443  1
  Hf  Hf10  1  0.59172618  0.19264169  0.76538214  1
  Hf  Hf11  1  0.09871841  0.69174141  0.62376564  1
  Hf  Hf12  1  0.48921797  0.89281819  0.11456216  1
  Hf  Hf13  1  0.62587405  0.19691018  0.48558840  1
  Hf  Hf14  1  0.60715697  0.40008813  0.49392074  1
  Hf  Hf15  1  0.17090952  0.20293065  0.24806347  1
  Hf  Hf16  1  0.40561285  -0.01032477  0.49490388  1
  Hf  Hf17  1  0.90039550  0.50519787  0.12269995  1
  Hf  Hf18  1  0.60290830  0.00484559  -0.00646387  1
  Hf  Hf19  1  0.18786839  -0.00134782  0.50363186  1
  Hf  Hf20  1  0.50852797  0.09931289  0.12900874  1
  Hf  Hf21  1  0.69281314  0.10061422  0.63508853  1
  Hf  Hf22  1  0.62024754  0.19207082  0.25947053  1
  Hf  Hf23  1  0.17571916  0.40768410  0.74711496  1
  Hf  Hf24  1  0.49653707  0.49450300  0.12099997  1
  Hf  Hf25  1  0.08611800  0.30556064  0.87969744  1
  Hf  Hf26  1  0.19300940  0.41388164  -0.01132883  1
  Hf  Hf27  1  0.29687037  0.29980784  0.86228049  1
  Hf  Hf28  1  0.89962736  0.49103998  0.38310406  1
  Hf  Hf29  1  0.29865463  0.09892768  0.86959023  1
  Hf  Hf30  1  0.29402997  0.30866788  0.39137409  1
  Hf  Hf31  1  0.29770375  0.70412985  0.63481551  1
  Hf  Hf32  1  0.09243335  0.89671722  0.36276303  1
  Hf  Hf33  1  0.00477998  0.59351339  0.75842898  1
  Hf  Hf34  1  0.41983092  0.39777841  0.73633302  1
  Hf  Hf35  1  0.39696685  0.39619156  -0.00418277  1
  Hf  Hf36  1  0.19674879  0.20047542  0.73215388  1
  Hf  Hf37  1  0.59456173  0.79582032  0.22965156  1
  Hf  Hf38  1  0.80876688  0.59825243  0.74658962  1
  Hf  Hf39  1  0.51943916  0.48694699  0.88405362  1
  Zr  Zr40  1  0.80333469  -0.00821281  0.75697959  1
  Zr  Zr41  1  0.20365398  0.20179063  0.00658816  1
  Zr  Zr42  1  0.89728461  0.90101078  0.34763575  1
  Zr  Zr43  1  0.08217054  0.89141499  0.61809195  1
  Zr  Zr44  1  0.08489485  0.71931822  0.87817465  1
  Zr  Zr45  1  0.28922696  0.50485484  0.63017905  1
  Zr  Zr46  1  0.29484520  0.51232362  0.12484111  1
  Zr  Zr47  1  0.00228586  0.20495080  0.74497146  1
  Zr  Zr48  1  0.71007366  0.88915618  0.88294861  1
  Zr  Zr49  1  0.50071438  0.68879147  0.87584450  1
  Zr  Zr50  1  0.89606089  0.49946213  0.61237226  1
  Zr  Zr51  1  0.59208165  0.39169308  0.25569712  1
  Zr  Zr52  1  0.29382504  0.10217729  0.38201628  1
  Zr  Zr53  1  0.18919588  0.40999456  0.25427228  1
  Zr  Zr54  1  0.68632977  0.71319401  0.37591449  1
  Zr  Zr55  1  0.19668955  0.81510835  -0.00458556  1
  Zr  Zr56  1  0.79186799  0.18986932  -0.00475341  1
  Zr  Zr57  1  0.09651279  0.09856823  0.87898781  1
  Zr  Zr58  1  0.52192356  0.08060602  0.37714517  1
  Zr  Zr59  1  0.69871269  0.50442267  0.36539451  1
  Zr  Zr60  1  0.41246902  0.21669295  0.26954453  1
  Zr  Zr61  1  0.09934656  0.70476593  0.12038872  1
  Zr  Zr62  1  0.90247634  0.28882338  0.39366968  1
  Zr  Zr63  1  0.08631478  0.30781139  0.11172888  1
  Zr  Zr64  1  0.30662382  0.50486043  0.38036345  1
  Zr  Zr65  1  0.72268057  0.49559756  0.89069187  1
  Zr  Zr66  1  0.80553778  0.20634202  0.76511450  1
  Zr  Zr67  1  0.88851469  0.09458824  0.36547084  1
  Zr  Zr68  1  0.50711032  0.86940184  0.37999107  1
  Zr  Zr69  1  0.90801747  0.89730266  0.14525638  1
  Zr  Zr70  1  0.81115026  0.81515282  0.49796635  1
  Zr  Zr71  1  0.30455910  0.10050582  0.13353440  1
  Zr  Zr72  1  0.31403870  0.50891554  0.86184094  1
  Zr  Zr73  1  0.70592158  0.31477145  0.63688814  1
  Zr  Zr74  1  0.08444569  0.10814102  0.38527561  1
  Zr  Zr75  1  0.51204670  0.89679399  0.62665785  1
  Zr  Zr76  1  0.20711223  0.62027297  0.25690263  1
  Zr  Zr77  1  0.30691979  0.30885552  0.13620508  1
  Zr  Zr78  1  0.58315791  0.60262613  0.50851685  1
  Zr  Zr79  1  0.00764572  0.58544330  0.25836719  1
  Ta  Ta80  1  -0.00395958  0.38276539  0.25348127  1
  Ta  Ta81  1  0.00122400  -0.00513784  0.74663973  1
  Ta  Ta82  1  0.89348898  0.30533759  0.11261183  1
  Ta  Ta83  1  0.29583545  0.90235186  0.86461787  1
  Ta  Ta84  1  0.39346054  0.79002185  -0.01238453  1
  Ta  Ta85  1  -0.01440203  0.80247370  0.74927943  1
  Ta  Ta86  1  0.40751388  0.00371306  0.75390416  1
  Ta  Ta87  1  0.80219085  0.39194560  0.24438210  1
  Ta  Ta88  1  0.19888135  0.60500697  0.49500242  1
  Ta  Ta89  1  0.40430568  0.78217205  0.50134507  1
  Ta  Ta90  1  0.60470782  0.79346198  0.00907735  1
  Ta  Ta91  1  0.41821969  0.20725453  0.49479530  1
  Ta  Ta92  1  0.41250626  0.40533096  0.51242723  1
  Ta  Ta93  1  0.39064960  -0.00651954  -0.00648306  1
  Ta  Ta94  1  0.40441357  0.80200328  0.76089645  1
  Ta  Ta95  1  0.91743066  0.89202647  0.88625449  1
  Ta  Ta96  1  0.68895023  0.31109907  0.87808995  1
  Ta  Ta97  1  0.41428581  0.59989477  0.24964558  1
  Ta  Ta98  1  0.78516633  0.01552190  0.50212212  1
  Ta  Ta99  1  0.81464780  0.78719373  0.01120142  1
  Ta  Ta100  1  0.19898404  0.00135901  0.24984027  1
  Ta  Ta101  1  0.70691207  0.69249902  0.88498968  1
  Ta  Ta102  1  0.49294489  0.29376997  0.87671965  1
  Ta  Ta103  1  0.29495084  0.89359235  0.13159095  1
  Ta  Ta104  1  0.10077164  0.90266187  0.14301314  1
  Ta  Ta105  1  0.19967642  0.79483867  0.49573054  1
  Ta  Ta106  1  0.19994403  0.00227626  0.01093584  1
  Ta  Ta107  1  0.60218592  0.59928958  0.01190421  1
  Ta  Ta108  1  0.30285902  0.30168932  0.61255840  1
  Ta  Ta109  1  0.50500647  0.29425485  0.11715698  1
  Ta  Ta110  1  0.59444682  0.19744296  -0.01328285  1
  Ta  Ta111  1  0.70213002  0.49227719  0.12178576  1
  Ta  Ta112  1  0.29428771  0.88927631  0.37446252  1
  Ta  Ta113  1  0.90453384  0.30400420  0.60682650  1
  Ta  Ta114  1  0.19435188  0.00221424  0.73775217  1
  Ta  Ta115  1  0.60558435  0.79647177  0.75915225  1
  Ta  Ta116  1  0.88599382  0.31914108  0.89125876  1
  Ta  Ta117  1  0.90167015  0.70175245  0.36438895  1
  Ta  Ta118  1  0.40281897  0.19547978  0.74191440  1
  Ta  Ta119  1  0.39412692  0.78539752  0.24949777  1
  Ti  Ti120  1  -0.01789889  0.61888733  -0.01272909  1
  Ti  Ti121  1  0.50076997  0.70445351  0.63365257  1
  Ti  Ti122  1  0.49727786  0.89698214  0.88076621  1
  Ti  Ti123  1  0.69498631  0.29548502  0.11570533  1
  Ti  Ti124  1  0.40784324  0.60102013  0.74151543  1
  Ti  Ti125  1  0.09186863  0.49303987  0.60671238  1
  Ti  Ti126  1  -0.02267436  0.40296822  0.75599878  1
  Ti  Ti127  1  0.31016699  0.70220600  0.37942769  1
  Ti  Ti128  1  0.10223919  0.48918902  0.39312320  1
  Ti  Ti129  1  0.79641008  0.59973173  0.24965084  1
  Ti  Ti130  1  0.59857765  0.60377668  0.23915292  1
  Ti  Ti131  1  0.49370038  0.49773882  0.37109623  1
  Ti  Ti132  1  -0.00720268  0.19360248  0.00047194  1
  Ti  Ti133  1  0.70057227  0.90416840  0.62741165  1
  Ti  Ti134  1  0.00783050  -0.00350370  0.01313904  1
  Ti  Ti135  1  0.10066325  0.29659652  0.60140009  1
  Ti  Ti136  1  0.90960277  0.10718002  0.13439418  1
  Ti  Ti137  1  0.09501017  0.50858040  0.11711691  1
  Ti  Ti138  1  -0.02006586  -0.01883805  0.50024692  1
  Ti  Ti139  1  0.50566574  0.09571637  0.61742542  1
  Ti  Ti140  1  0.79028055  0.79597987  0.23892525  1
  Ti  Ti141  1  -0.00962240  0.42191474  -0.00972912  1
  Ti  Ti142  1  0.40201869  0.19045668  -0.00325858  1
  Ti  Ti143  1  0.90789941  0.71315490  0.61762618  1
  Ti  Ti144  1  0.90745767  0.69895555  0.13694323  1
  Ti  Ti145  1  0.90379433  0.09153936  0.87815866  1
  Ti  Ti146  1  0.80558469  0.20889638  0.24075881  1
  Ti  Ti147  1  0.50965269  0.29068397  0.62230275  1
  Ti  Ti148  1  0.19080312  0.80689298  0.75477699  1
  Ti  Ti149  1  0.39787882  0.59811549  0.51047192  1
  Ti  Ti150  1  0.10268487  0.70476240  0.37647789  1
  Ti  Ti151  1  0.19942514  0.61038566  0.76693380  1
  Ti  Ti152  1  0.09775544  0.30113080  0.40068365  1
  Ti  Ti153  1  0.77315609  0.01261272  0.22601370  1
  Ti  Ti154  1  0.59891681  -0.00408111  0.76966484  1
  Ti  Ti155  1  0.31284602  0.70451326  0.12039648  1
  Ti  Ti156  1  0.80260233  0.79764471  0.75085235  1
  Ti  Ti157  1  0.70746160  0.69124229  0.11954564  1
  Ti  Ti158  1  0.09975147  0.91485801  0.87244820  1
  Ti  Ti159  1  0.00078313  0.61180813  0.49047265  1
  Mo  Mo160  1  0.50012760  0.30549310  0.38445627  1
  Mo  Mo161  1  0.49471733  0.69286852  0.11352434  1
  Mo  Mo162  1  0.70005741  0.09903260  0.87125003  1
  Mo  Mo163  1  0.20568818  0.20188191  0.51111054  1
  Mo  Mo164  1  0.09310226  0.09594196  0.12167013  1
  Mo  Mo165  1  0.60973407  -0.00460551  0.50598004  1
  Mo  Mo166  1  -0.00485871  0.81280238  0.00744350  1
  Mo  Mo167  1  0.00241009  0.79029588  0.48800097  1
  Mo  Mo168  1  0.00454194  0.18730399  0.51157489  1
  Mo  Mo169  1  0.09715310  0.09741393  0.61568376  1
  Mo  Mo170  1  0.69922850  0.89311876  0.11551353  1
  Mo  Mo171  1  0.60885758  0.39262135  0.75225991  1
  Mo  Mo172  1  0.80292750  0.20035185  0.50799133  1
  Mo  Mo173  1  0.60135342  -0.00759922  0.23268961  1
  Mo  Mo174  1  0.20256292  0.40683143  0.50694380  1
  Mo  Mo175  1  0.30233306  0.70993206  0.85650638  1
  Mo  Mo176  1  0.71786040  0.30254706  0.37141134  1
  Mo  Mo177  1  0.60141132  0.38868470  0.00909091  1
  Mo  Mo178  1  0.88819507  0.89464375  0.62513612  1
  Mo  Mo179  1  0.59801436  0.80297541  0.50699344  1
  Mo  Mo180  1  0.20998688  0.80330193  0.25292564  1
  Mo  Mo181  1  0.01204341  0.02062978  0.23908431  1
  Mo  Mo182  1  0.80710915  0.40398222  0.75421736  1
  Mo  Mo183  1  0.40394829  0.40393280  0.25363865  1
  Mo  Mo184  1  0.50097468  0.49533861  0.62424818  1
  Mo  Mo185  1  0.00520428  0.78530493  0.25329124  1
  Mo  Mo186  1  0.80072013  0.60601470  0.01247374  1
  Mo  Mo187  1  0.90400061  0.50776093  0.88295827  1
  Mo  Mo188  1  0.40312515  0.60652556  -0.00019150  1
  Mo  Mo189  1  0.79201159  0.39474050  0.49700794  1
  Mo  Mo190  1  0.71477169  0.10189830  0.36605557  1
  Mo  Mo191  1  0.09311429  0.50546094  0.87506611  1
  Mo  Mo192  1  0.49214098  0.68274211  0.37369102  1
  Mo  Mo193  1  0.79856348  0.39927314  0.01388488  1
  Mo  Mo194  1  0.88514065  0.70823802  0.87421550  1
  Mo  Mo195  1  0.70056025  0.50014678  0.62630363  1
  Mo  Mo196  1  0.69932980  0.10686020  0.11991097  1
  Mo  Mo197  1  0.00357938  0.40305445  0.50011601  1
  Mo  Mo198  1  0.49033585  0.09279008  0.87694695  1
  Mo  Mo199  1  -0.01215912  0.21217016  0.24293002  1
