# generated using pymatgen
data_HfZrTaTiMo
_symmetry_space_group_name_H-M   'P 1'
_cell_length_a   15.20192929
_cell_length_b   15.22271983
_cell_length_c   16.85470382
_cell_angle_alpha   90.06569895
_cell_angle_beta   89.94546691
_cell_angle_gamma   89.95656966
_symmetry_Int_Tables_number   1
_chemical_formula_structural   HfZrTaTiMo
_chemical_formula_sum   'Hf40 Zr40 Ta40 Ti40 Mo40'
_cell_volume   3900.42095128
_cell_formula_units_Z   40
loop_
 _symmetry_equiv_pos_site_id
 _symmetry_equiv_pos_as_xyz
  1  'x, y, z'
loop_
 _atom_site_type_symbol
 _atom_site_label
 _atom_site_symmetry_multiplicity
 _atom_site_fract_x
 _atom_site_fract_y
 _atom_site_fract_z
 _atom_site_occupancy
  Hf  Hf0  1  0.69610423  0.49535898  0.38140857  1
  Hf  Hf1  1  0.92437985  0.07661054  0.36733084  1
  Hf  Hf2  1  0.41028384  0.00474835  0.26496426  1
  Hf  Hf3  1  0.30091404  0.69764598  0.62216886  1
  Hf  Hf4  1  0.30188207  0.32376930  0.37561556  1
  Hf  Hf5  1  0.60246556  0.80942287  -0.01600728  1
  Hf  Hf6  1  -0.00553635  -0.00931508  -0.00590041  1
  Hf  Hf7  1  0.91834133  0.11512819  0.63614830  1
  Hf  Hf8  1  -0.00003464  0.78461394  0.76519008  1
  Hf  Hf9  1  0.58524239  0.60597229  0.48904618  1
  Hf  Hf10  1  0.48862215  0.49564136  0.14070028  1
  Hf  Hf11  1  0.09807997  0.87920080  0.13450902  1
  Hf  Hf12  1  0.51525790  0.89939965  0.12381971  1
  Hf  Hf13  1  0.79127570  0.60155938  -0.00326718  1
  Hf  Hf14  1  -0.00295977  0.59505100  0.49864322  1
  Hf  Hf15  1  0.79829541  0.40059014  0.00162951  1
  Hf  Hf16  1  0.31003466  0.31855317  0.13689459  1
  Hf  Hf17  1  0.37405835  0.60773565  0.26899882  1
  Hf  Hf18  1  0.21883455  -0.01135284  0.75061959  1
  Hf  Hf19  1  0.20393026  0.39966100  0.74018457  1
  Hf  Hf20  1  0.50160131  0.70006443  0.62891149  1
  Hf  Hf21  1  0.30626252  0.89270769  0.12140378  1
  Hf  Hf22  1  0.91379858  0.51541927  0.12152156  1
  Hf  Hf23  1  0.41288598  0.00514235  -0.00778916  1
  Hf  Hf24  1  0.78259194  0.79809446  0.51143254  1
  Hf  Hf25  1  0.89534927  0.90313527  0.64013884  1
  Hf  Hf26  1  0.48309603  0.70061020  0.12472177  1
  Hf  Hf27  1  0.20580391  0.19251535  0.49391616  1
  Hf  Hf28  1  0.30570604  0.11691568  0.86779074  1
  Hf  Hf29  1  0.39134875  0.42373566  0.50765303  1
  Hf  Hf30  1  0.42307926  0.21324310  -0.01078071  1
  Hf  Hf31  1  0.08926429  0.28854644  0.63214359  1
  Hf  Hf32  1  -0.02112543  0.78565085  0.25228836  1
  Hf  Hf33  1  0.68765218  0.51238801  0.61919624  1
  Hf  Hf34  1  0.80102577  0.40604771  0.24805274  1
  Hf  Hf35  1  0.00154914  0.20191752  0.00529713  1
  Hf  Hf36  1  0.90632085  0.30711643  0.37202833  1
  Hf  Hf37  1  -0.00596721  0.59242584  0.75287108  1
  Hf  Hf38  1  0.52122409  0.10515699  0.12892791  1
  Hf  Hf39  1  0.39628823  0.80925810  0.75681914  1
  Zr  Zr40  1  0.69232630  0.28957961  0.12938718  1
  Zr  Zr41  1  0.79492440  0.19249587  -0.00199531  1
  Zr  Zr42  1  0.11042956  0.29305551  0.86159919  1
  Zr  Zr43  1  0.30812322  0.29427697  0.62376432  1
  Zr  Zr44  1  0.19378946  0.79621355  0.76040770  1
  Zr  Zr45  1  0.09856853  0.09737514  0.86623014  1
  Zr  Zr46  1  0.19982447  -0.00358756  -0.00240234  1
  Zr  Zr47  1  0.60834525  0.19101342  0.26940274  1
  Zr  Zr48  1  0.20897083  0.20283333  0.25466454  1
  Zr  Zr49  1  0.41240055  0.20400702  0.27093662  1
  Zr  Zr50  1  0.90759885  0.30273549  0.12855020  1
  Zr  Zr51  1  0.78996995  0.59631413  0.75506830  1
  Zr  Zr52  1  0.52366916  0.31502897  0.86266003  1
  Zr  Zr53  1  0.20744003  0.20895259  0.00794941  1
  Zr  Zr54  1  -0.00966532  0.80534685  0.50100956  1
  Zr  Zr55  1  0.57863442  0.59587441  -0.00104128  1
  Zr  Zr56  1  0.59367615  0.61352003  0.25844231  1
  Zr  Zr57  1  0.28403323  0.51188856  0.12459280  1
  Zr  Zr58  1  0.71175281  0.31511363  0.60468390  1
  Zr  Zr59  1  0.00955296  -0.00974978  0.75257931  1
  Zr  Zr60  1  0.79673564  0.79576058  -0.02259432  1
  Zr  Zr61  1  0.51877274  0.31085002  0.39353734  1
  Zr  Zr62  1  0.81656404  0.19756905  0.49687428  1
  Zr  Zr63  1  0.79038194  0.79989524  0.75568932  1
  Zr  Zr64  1  0.80140489  0.18628550  0.25650248  1
  Zr  Zr65  1  0.80365466  0.61512000  0.24836177  1
  Zr  Zr66  1  0.80734752  0.21212418  0.75047584  1
  Zr  Zr67  1  0.59786993  0.80112120  0.75395624  1
  Zr  Zr68  1  0.31694593  0.08541002  0.62051489  1
  Zr  Zr69  1  0.29585721  0.90920014  0.39632463  1
  Zr  Zr70  1  0.00784487  0.20067299  0.24809930  1
  Zr  Zr71  1  0.19229808  0.78747701  -0.01322236  1
  Zr  Zr72  1  0.82025272  -0.00912135  0.49884853  1
  Zr  Zr73  1  0.31693256  0.10416180  0.12571945  1
  Zr  Zr74  1  0.39406736  0.80318372  0.26370619  1
  Zr  Zr75  1  0.60227283  0.20842623  0.73197877  1
  Zr  Zr76  1  0.40789290  0.41816762  -0.00984984  1
  Zr  Zr77  1  0.88421759  0.88417864  0.11934260  1
  Zr  Zr78  1  0.08885639  0.89622448  0.36694515  1
  Zr  Zr79  1  0.09903387  0.08950774  0.13362532  1
  Ta  Ta80  1  0.79124125  -0.00221991  -0.01321398  1
  Ta  Ta81  1  0.50789527  0.10290896  0.61043846  1
  Ta  Ta82  1  0.17893625  0.60102923  0.25564188  1
  Ta  Ta83  1  0.01317724  0.19464431  0.49214109  1
  Ta  Ta84  1  0.48979280  0.90830261  0.61798205  1
  Ta  Ta85  1  0.68639614  0.10959257  0.86741997  1
  Ta  Ta86  1  0.11596439  0.09791818  0.63513286  1
  Ta  Ta87  1  0.88997569  0.48795880  0.62017137  1
  Ta  Ta88  1  0.10262559  0.30496480  0.37739127  1
  Ta  Ta89  1  -0.00293849  0.78533577  -0.02079070  1
  Ta  Ta90  1  0.80544510  -0.02335657  0.26019719  1
  Ta  Ta91  1  0.20117072  0.40108305  -0.00973047  1
  Ta  Ta92  1  0.08061097  0.67896899  0.12118426  1
  Ta  Ta93  1  0.30649329  0.90192248  0.88145027  1
  Ta  Ta94  1  0.69606573  0.72065184  0.12601308  1
  Ta  Ta95  1  0.67742869  0.48151575  0.86911767  1
  Ta  Ta96  1  0.61446625  -0.01659728  0.26084598  1
  Ta  Ta97  1  0.89229704  0.69021109  0.62434704  1
  Ta  Ta98  1  0.89577376  0.90592617  0.86707607  1
  Ta  Ta99  1  0.18974451  0.40259447  0.51135457  1
  Ta  Ta100  1  0.09227191  0.49846576  0.62700038  1
  Ta  Ta101  1  0.69189310  0.50415639  0.12868863  1
  Ta  Ta102  1  0.29496410  0.49687184  0.86942177  1
  Ta  Ta103  1  0.48771573  0.50805596  0.63495131  1
  Ta  Ta104  1  0.00971435  0.40582155  -0.00513969  1
  Ta  Ta105  1  0.12140429  0.08830330  0.37116417  1
  Ta  Ta106  1  0.19790814  0.59812684  0.74741401  1
  Ta  Ta107  1  0.60777658  0.00225868  0.73726671  1
  Ta  Ta108  1  0.50098838  0.30152094  0.13220082  1
  Ta  Ta109  1  0.40415910  0.79315331  -0.01197876  1
  Ta  Ta110  1  -0.01937651  0.39135017  0.74773073  1
  Ta  Ta111  1  0.70565325  0.08496363  0.38556870  1
  Ta  Ta112  1  0.30922951  0.68458337  0.87499171  1
  Ta  Ta113  1  0.48472741  0.49893217  0.36826655  1
  Ta  Ta114  1  0.61481677  -0.01055427  0.51174046  1
  Ta  Ta115  1  0.20967197  -0.01187956  0.24987951  1
  Ta  Ta116  1  0.40783769  0.19722298  0.49064791  1
  Ta  Ta117  1  0.09488307  0.49354746  0.86677353  1
  Ta  Ta118  1  0.20140960  0.59123774  0.50272939  1
  Ta  Ta119  1  0.09541954  0.69595127  0.62186943  1
  Ti  Ti120  1  0.02107398  0.00477976  0.51011246  1
  Ti  Ti121  1  0.68997091  0.72101022  0.37067272  1
  Ti  Ti122  1  0.50845804  0.31135634  0.61256317  1
  Ti  Ti123  1  0.70868132  0.30373180  0.39187463  1
  Ti  Ti124  1  0.88811727  0.70407043  0.38252764  1
  Ti  Ti125  1  0.90002124  0.49988470  0.38019397  1
  Ti  Ti126  1  0.89007164  0.49252642  0.87535462  1
  Ti  Ti127  1  0.18788771  0.59079545  -0.00801135  1
  Ti  Ti128  1  0.40277204  0.40659830  0.74602226  1
  Ti  Ti129  1  0.78638238  0.39858894  0.75298784  1
  Ti  Ti130  1  0.61091916  0.19394628  0.50438704  1
  Ti  Ti131  1  0.38931822  0.61658853  0.48281180  1
  Ti  Ti132  1  0.70960575  0.07834225  0.12862492  1
  Ti  Ti133  1  0.10323008  0.49113466  0.38174981  1
  Ti  Ti134  1  0.28108573  0.70269266  0.12262809  1
  Ti  Ti135  1  0.90233528  0.30037983  0.87795382  1
  Ti  Ti136  1  0.10985771  0.32300891  0.12840207  1
  Ti  Ti137  1  0.59822346  0.39850127  0.25257064  1
  Ti  Ti138  1  0.01817280  0.41272416  0.24999469  1
  Ti  Ti139  1  -0.00535421  0.60085985  -0.01857498  1
  Ti  Ti140  1  0.71436886  0.08913094  0.62470835  1
  Ti  Ti141  1  0.89515698  0.10237457  0.86484176  1
  Ti  Ti142  1  0.41920751  0.01113469  0.75607107  1
  Ti  Ti143  1  -0.00475832  0.39321394  0.50449434  1
  Ti  Ti144  1  -0.00349649  0.59568319  0.26127789  1
  Ti  Ti145  1  0.50890067  0.08439083  0.39775633  1
  Ti  Ti146  1  0.79500779  0.60411628  0.49955884  1
  Ti  Ti147  1  0.19623008  0.79177627  0.50043646  1
  Ti  Ti148  1  0.10256398  0.69633279  0.37878161  1
  Ti  Ti149  1  0.89991920  0.08309237  0.13244327  1
  Ti  Ti150  1  0.40479884  0.20779418  0.75026151  1
  Ti  Ti151  1  0.11088412  0.89434874  0.62021161  1
  Ti  Ti152  1  0.59382873  0.79873851  0.50833707  1
  Ti  Ti153  1  0.30432824  0.89405410  0.60445062  1
  Ti  Ti154  1  0.60255414  0.38871970  0.00795643  1
  Ti  Ti155  1  0.48850658  0.52758077  0.85415269  1
  Ti  Ti156  1  0.67970956  0.68209551  0.87107657  1
  Ti  Ti157  1  0.51321182  0.88954200  0.38680900  1
  Ti  Ti158  1  0.60761350  0.01622034  -0.00850950  1
  Ti  Ti159  1  0.50854826  0.91469543  0.87163337  1
  Mo  Mo160  1  0.88896316  0.88400005  0.37178638  1
  Mo  Mo161  1  0.00185888  -0.00879445  0.24509540  1
  Mo  Mo162  1  0.59824312  0.80370067  0.25164330  1
  Mo  Mo163  1  0.69453760  0.89788466  0.38325642  1
  Mo  Mo164  1  0.40735163  0.79502359  0.49636173  1
  Mo  Mo165  1  0.19670240  0.78090215  0.24929625  1
  Mo  Mo166  1  0.70943004  0.30682130  0.87611260  1
  Mo  Mo167  1  0.59320859  0.40959980  0.50335327  1
  Mo  Mo168  1  0.31006869  0.31112507  0.86321984  1
  Mo  Mo169  1  0.28249172  0.50779882  0.37740980  1
  Mo  Mo170  1  0.38852090  0.60233490  0.74728480  1
  Mo  Mo171  1  0.80967571  0.41545492  0.48995595  1
  Mo  Mo172  1  0.19393932  0.41189566  0.25606368  1
  Mo  Mo173  1  0.69764310  0.91983418  0.86873641  1
  Mo  Mo174  1  0.69430173  0.91048687  0.11870462  1
  Mo  Mo175  1  0.38301136  0.60736501  -0.00000224  1
  Mo  Mo176  1  0.49312849  0.70595088  0.87293419  1
  Mo  Mo177  1  0.50590517  0.10128317  0.86433303  1
  Mo  Mo178  1  0.10492758  0.68007974  0.87527316  1
  Mo  Mo179  1  0.41200432  -0.00287249  0.49434783  1
  Mo  Mo180  1  0.60303155  0.19936409  -0.00083831  1
  Mo  Mo181  1  0.00221968  0.20325497  0.75583552  1
  Mo  Mo182  1  0.40418163  0.40732810  0.25661366  1
  Mo  Mo183  1  0.89430810  0.68951412  0.87396645  1
  Mo  Mo184  1  0.77650674  0.79901963  0.24954650  1
  Mo  Mo185  1  0.69142934  0.90141641  0.62906801  1
  Mo  Mo186  1  0.21313268  0.19464061  0.74353071  1
  Mo  Mo187  1  0.79353052  0.00775878  0.75804862  1
  Mo  Mo188  1  0.30641367  0.10194925  0.38273687  1
  Mo  Mo189  1  0.90596136  0.30773013  0.61817026  1
  Mo  Mo190  1  0.49377887  0.70760420  0.38167007  1
  Mo  Mo191  1  0.90001256  0.69949366  0.11527958  1
  Mo  Mo192  1  0.59249482  0.59902913  0.75173808  1
  Mo  Mo193  1  0.29419795  0.50706111  0.62674206  1
  Mo  Mo194  1  0.19472785  -0.00449493  0.50912638  1
  Mo  Mo195  1  0.10041425  0.89323773  0.88156729  1
  Mo  Mo196  1  0.09776944  0.49930085  0.11880553  1
  Mo  Mo197  1  0.27961671  0.70804128  0.38509895  1
  Mo  Mo198  1  0.59749330  0.40807183  0.73861117  1
  Mo  Mo199  1  0.69852530  0.70021522  0.62199731  1
