# generated using pymatgen
data_HfZrTaTiMo
_symmetry_space_group_name_H-M   'P 1'
_cell_length_a   15.20050113
_cell_length_b   15.21768655
_cell_length_c   16.83696253
_cell_angle_alpha   89.96249394
_cell_angle_beta   89.93222209
_cell_angle_gamma   90.08274059
_symmetry_Int_Tables_number   1
_chemical_formula_structural   HfZrTaTiMo
_chemical_formula_sum   'Hf40 Zr40 Ta40 Ti40 Mo40'
_cell_volume   3894.65897444
_cell_formula_units_Z   40
loop_
 _symmetry_equiv_pos_site_id
 _symmetry_equiv_pos_as_xyz
  1  'x, y, z'
loop_
 _atom_site_type_symbol
 _atom_site_label
 _atom_site_symmetry_multiplicity
 _atom_site_fract_x
 _atom_site_fract_y
 _atom_site_fract_z
 _atom_site_occupancy
  Hf  Hf0  1  0.59956916  0.19482709  0.24214180  1
  Hf  Hf1  1  0.10225269  0.70213787  0.65095063  1
  Hf  Hf2  1  0.30810026  0.69137806  0.63082806  1
  Hf  Hf3  1  0.70394975  0.48591409  0.37801307  1
  Hf  Hf4  1  0.29065041  0.90493613  0.13186272  1
  Hf  Hf5  1  0.59549416  0.59425052  0.26105748  1
  Hf  Hf6  1  0.09398502  0.88763480  0.86343496  1
  Hf  Hf7  1  0.29613311  0.10448051  0.61786931  1
  Hf  Hf8  1  0.21951615  0.58978985  0.49376634  1
  Hf  Hf9  1  0.90539924  0.67706018  0.64216685  1
  Hf  Hf10  1  0.29346082  0.11099258  0.37734258  1
  Hf  Hf11  1  0.47837543  0.49919505  0.61135607  1
  Hf  Hf12  1  0.20798826  0.58982757  -0.00987971  1
  Hf  Hf13  1  0.39216877  0.41694086  0.25908596  1
  Hf  Hf14  1  0.19771933  0.21210203  0.25020184  1
  Hf  Hf15  1  -0.00884649  0.20596907  0.50653504  1
  Hf  Hf16  1  0.30591565  0.68830264  0.13075413  1
  Hf  Hf17  1  0.00189138  0.59592761  -0.01430150  1
  Hf  Hf18  1  0.69519224  0.08158290  0.13141225  1
  Hf  Hf19  1  0.40553350  0.22352160  0.49516171  1
  Hf  Hf20  1  0.22366925  0.81372036  0.75398391  1
  Hf  Hf21  1  0.59038022  0.38529187  0.49941970  1
  Hf  Hf22  1  0.59607267  -0.00752368  0.74286632  1
  Hf  Hf23  1  0.60233967  0.40392086  0.73881967  1
  Hf  Hf24  1  0.29336180  0.33254368  0.62078037  1
  Hf  Hf25  1  -0.00075761  0.19659318  0.26328753  1
  Hf  Hf26  1  0.78230630  0.79536205  0.74152837  1
  Hf  Hf27  1  -0.00315473  -0.00552263  -0.00573590  1
  Hf  Hf28  1  0.89990359  0.89620767  0.13160173  1
  Hf  Hf29  1  0.70722854  0.10045742  0.86341768  1
  Hf  Hf30  1  0.68744683  0.30221639  0.87381733  1
  Hf  Hf31  1  0.19042061  0.79754994  0.00421359  1
  Hf  Hf32  1  0.89822608  0.69217281  0.85335655  1
  Hf  Hf33  1  0.11273031  0.48021685  0.12213370  1
  Hf  Hf34  1  0.89724168  0.90483477  0.38718023  1
  Hf  Hf35  1  0.79931491  -0.00138448  -0.00222017  1
  Hf  Hf36  1  0.00022525  0.20166168  -0.01275799  1
  Hf  Hf37  1  0.50248659  0.90704932  0.13285439  1
  Hf  Hf38  1  0.40246651  0.22321805  0.23986722  1
  Hf  Hf39  1  0.69900199  0.69493345  0.61036744  1
  Zr  Zr40  1  0.71590648  0.10001144  0.38912758  1
  Zr  Zr41  1  0.80157779  -0.00529081  0.25831442  1
  Zr  Zr42  1  0.39018536  0.01550132  -0.00120527  1
  Zr  Zr43  1  0.40348324  0.01382839  0.25047990  1
  Zr  Zr44  1  0.49286691  0.11245210  0.86648721  1
  Zr  Zr45  1  0.19246614  0.78982382  0.25518428  1
  Zr  Zr46  1  0.60291499  0.80335370  0.27124960  1
  Zr  Zr47  1  0.48809299  0.50641754  0.12434817  1
  Zr  Zr48  1  0.59186322  0.19531290  0.01170666  1
  Zr  Zr49  1  0.39852407  0.22659029  0.01227434  1
  Zr  Zr50  1  0.20233932  0.19782685  -0.01002367  1
  Zr  Zr51  1  0.11532184  0.50137174  0.63888513  1
  Zr  Zr52  1  -0.00754825  0.79041262  0.25101210  1
  Zr  Zr53  1  0.71988520  0.48703277  0.61167179  1
  Zr  Zr54  1  0.19340508  0.79310033  0.49396847  1
  Zr  Zr55  1  0.38776248  -0.00519575  0.75331856  1
  Zr  Zr56  1  0.51746456  0.50630594  0.88014248  1
  Zr  Zr57  1  0.81477408  0.40337159  -0.00794303  1
  Zr  Zr58  1  0.09590396  0.09995189  0.12479076  1
  Zr  Zr59  1  0.83088145  0.58384794  0.49562727  1
  Zr  Zr60  1  0.59704431  0.77799926  0.00673849  1
  Zr  Zr61  1  0.80539807  0.79584327  -0.00334452  1
  Zr  Zr62  1  0.41106102  0.59754160  0.75324501  1
  Zr  Zr63  1  0.59106704  -0.01003948  -0.00602397  1
  Zr  Zr64  1  0.70892049  0.30327490  0.12487356  1
  Zr  Zr65  1  0.68765540  0.88828838  0.86814047  1
  Zr  Zr66  1  0.50404434  0.11575339  0.38008917  1
  Zr  Zr67  1  0.89679331  0.90765834  0.85573622  1
  Zr  Zr68  1  0.90222719  0.89016402  0.62960210  1
  Zr  Zr69  1  0.79486277  0.60471364  0.00772113  1
  Zr  Zr70  1  0.19192703  0.21208901  0.74975620  1
  Zr  Zr71  1  0.80398647  0.19513293  -0.00159519  1
  Zr  Zr72  1  0.39432550  0.80193026  0.48386617  1
  Zr  Zr73  1  0.31214537  0.71070821  0.87480674  1
  Zr  Zr74  1  0.92672945  0.30261539  0.12452931  1
  Zr  Zr75  1  0.71445883  0.69165634  0.38332856  1
  Zr  Zr76  1  0.91145661  0.50695903  0.13279853  1
  Zr  Zr77  1  0.59487789  -0.00277569  0.49626614  1
  Zr  Zr78  1  0.19160061  0.20763230  0.50109109  1
  Zr  Zr79  1  -0.01233361  0.19996452  0.73644699  1
  Ta  Ta80  1  0.49343327  0.10055336  0.62392121  1
  Ta  Ta81  1  0.19786262  -0.00318520  0.49784681  1
  Ta  Ta82  1  0.81000644  0.40518650  0.75639124  1
  Ta  Ta83  1  0.81456113  0.60277946  0.24942643  1
  Ta  Ta84  1  0.09137702  0.90300012  0.37638065  1
  Ta  Ta85  1  0.69561169  0.89899826  0.61200130  1
  Ta  Ta86  1  0.49434890  0.89475347  0.61957031  1
  Ta  Ta87  1  0.88451562  0.31744853  0.61952193  1
  Ta  Ta88  1  0.09519506  0.50992771  0.37287278  1
  Ta  Ta89  1  0.70932704  0.50269414  0.87283175  1
  Ta  Ta90  1  0.59714688  0.79995929  0.48574347  1
  Ta  Ta91  1  0.39703349  0.80621395  0.00773039  1
  Ta  Ta92  1  0.00282132  0.79167842  0.50314300  1
  Ta  Ta93  1  0.20874076  0.39113467  -0.02163008  1
  Ta  Ta94  1  0.10946949  0.90398453  0.63124237  1
  Ta  Ta95  1  0.69918917  0.88676434  0.13030691  1
  Ta  Ta96  1  0.18577626  0.00390548  0.25670424  1
  Ta  Ta97  1  0.80129316  0.39544803  0.25358162  1
  Ta  Ta98  1  0.50315754  0.70235901  0.61210245  1
  Ta  Ta99  1  0.00381356  0.00751764  0.73343576  1
  Ta  Ta100  1  0.80554278  0.20127825  0.25106017  1
  Ta  Ta101  1  0.59267877  0.39079060  0.25349890  1
  Ta  Ta102  1  0.48000958  0.88375534  0.87200137  1
  Ta  Ta103  1  0.19720649  -0.00180749  -0.01378827  1
  Ta  Ta104  1  0.41369458  0.60844584  -0.00097687  1
  Ta  Ta105  1  0.08767083  0.09623560  0.86811305  1
  Ta  Ta106  1  0.19769929  0.01265086  0.75528666  1
  Ta  Ta107  1  0.69661557  0.49992277  0.13528627  1
  Ta  Ta108  1  0.00752506  -0.00102216  0.51472478  1
  Ta  Ta109  1  0.49110320  0.29877043  0.63257245  1
  Ta  Ta110  1  0.68999677  0.68446913  0.86688399  1
  Ta  Ta111  1  0.90179599  0.09689619  0.13281769  1
  Ta  Ta112  1  0.40015036  0.79998277  0.26440343  1
  Ta  Ta113  1  -0.00649600  0.41453982  0.49882272  1
  Ta  Ta114  1  0.29238850  0.90801272  0.36947588  1
  Ta  Ta115  1  0.80506331  0.79830068  0.50189281  1
  Ta  Ta116  1  0.59386226  0.40358685  0.00700228  1
  Ta  Ta117  1  0.59436732  0.19963053  0.73744113  1
  Ta  Ta118  1  0.00603480  0.39876810  0.76193555  1
  Ta  Ta119  1  0.19852217  0.40114547  0.26510521  1
  Ti  Ti120  1  0.09414561  0.90371759  0.12954038  1
  Ti  Ti121  1  0.78990651  0.20720309  0.73794785  1
  Ti  Ti122  1  0.39725315  0.00260324  0.49372478  1
  Ti  Ti123  1  0.09560523  0.30797362  0.38606597  1
  Ti  Ti124  1  0.28997929  0.33270080  0.12214398  1
  Ti  Ti125  1  0.88842974  0.10229888  0.61256874  1
  Ti  Ti126  1  0.60325769  -0.00899017  0.27051256  1
  Ti  Ti127  1  0.70392413  0.69534126  0.13826146  1
  Ti  Ti128  1  0.90250025  0.10040497  0.39001898  1
  Ti  Ti129  1  0.88854101  0.30117137  0.38246855  1
  Ti  Ti130  1  -0.00420999  0.78934628  0.00551384  1
  Ti  Ti131  1  0.38945384  0.20624310  0.74925732  1
  Ti  Ti132  1  0.59580522  0.59652073  0.49354412  1
  Ti  Ti133  1  0.08671347  0.68359370  0.12781654  1
  Ti  Ti134  1  0.61238297  0.60052384  0.73620134  1
  Ti  Ti135  1  0.50336862  0.70283447  0.13687834  1
  Ti  Ti136  1  0.58456218  0.79164104  0.74102378  1
  Ti  Ti137  1  0.29551494  0.10361462  0.12961243  1
  Ti  Ti138  1  0.21168889  0.40744667  0.77077820  1
  Ti  Ti139  1  0.09209976  0.09218791  0.37946786  1
  Ti  Ti140  1  0.01834856  0.39677295  -0.02677541  1
  Ti  Ti141  1  0.50787304  0.70191307  0.87353265  1
  Ti  Ti142  1  0.60531225  0.20207352  0.51569020  1
  Ti  Ti143  1  0.92316868  0.68880050  0.37638713  1
  Ti  Ti144  1  0.09026464  0.31264989  0.61920059  1
  Ti  Ti145  1  0.48787452  0.31372070  0.86657233  1
  Ti  Ti146  1  0.10171735  0.69043963  0.85430287  1
  Ti  Ti147  1  0.69698324  0.29098222  0.37511442  1
  Ti  Ti148  1  0.00704505  0.39570425  0.25638526  1
  Ti  Ti149  1  0.89719254  0.29134962  0.86582432  1
  Ti  Ti150  1  0.80041382  0.00920839  0.73701781  1
  Ti  Ti151  1  0.48847496  0.49792560  0.38598455  1
  Ti  Ti152  1  0.69970569  0.10041560  0.62022402  1
  Ti  Ti153  1  0.20712110  0.59004367  0.25535811  1
  Ti  Ti154  1  0.32061335  0.49275019  0.87599936  1
  Ti  Ti155  1  0.79747269  0.79534070  0.25949161  1
  Ti  Ti156  1  0.30358711  0.90188353  0.61727511  1
  Ti  Ti157  1  0.48883919  0.68987935  0.37942477  1
  Ti  Ti158  1  0.90593910  0.49483763  0.36236494  1
  Ti  Ti159  1  0.02063592  0.60480870  0.50633770  1
  Mo  Mo160  1  0.29802984  0.50547947  0.37363074  1
  Mo  Mo161  1  0.89914916  0.70064458  0.13020383  1
  Mo  Mo162  1  0.11020955  0.50046803  0.86733512  1
  Mo  Mo163  1  0.00017036  0.58464779  0.76584811  1
  Mo  Mo164  1  0.70456641  0.89630422  0.39416413  1
  Mo  Mo165  1  0.79432464  0.20548054  0.50708576  1
  Mo  Mo166  1  0.29426635  0.50464059  0.12087523  1
  Mo  Mo167  1  0.29580258  0.90453636  0.88519931  1
  Mo  Mo168  1  0.39430370  0.41309791  -0.00115002  1
  Mo  Mo169  1  0.89763072  0.09963700  0.85632327  1
  Mo  Mo170  1  0.39867258  0.61030910  0.25636728  1
  Mo  Mo171  1  0.38054248  0.41310322  0.48452976  1
  Mo  Mo172  1  0.09850212  0.09747911  0.62008988  1
  Mo  Mo173  1  0.90169390  0.49421100  0.87417003  1
  Mo  Mo174  1  0.69772405  0.29186697  0.62950334  1
  Mo  Mo175  1  0.10051931  0.29815754  0.86722129  1
  Mo  Mo176  1  0.50357509  0.31322171  0.12628939  1
  Mo  Mo177  1  0.00249926  0.00153814  0.25704113  1
  Mo  Mo178  1  0.91961514  0.48802852  0.62992646  1
  Mo  Mo179  1  0.10430408  0.30456676  0.12527007  1
  Mo  Mo180  1  0.40188047  0.39442999  0.75152883  1
  Mo  Mo181  1  0.60737047  0.59883556  0.01042187  1
  Mo  Mo182  1  0.41275295  0.80309421  0.74066699  1
  Mo  Mo183  1  0.50848906  0.31001241  0.37391612  1
  Mo  Mo184  1  0.29584853  0.50454348  0.63471590  1
  Mo  Mo185  1  0.79119041  0.58660411  0.74790188  1
  Mo  Mo186  1  0.18594368  0.40254412  0.48794559  1
  Mo  Mo187  1  0.00637453  0.80135445  0.74610499  1
  Mo  Mo188  1  0.80548386  -0.00024178  0.51391431  1
  Mo  Mo189  1  0.40559761  0.60415870  0.49699462  1
  Mo  Mo190  1  0.29617166  0.31238605  0.37940558  1
  Mo  Mo191  1  0.01394262  0.59337271  0.25095334  1
  Mo  Mo192  1  0.29257476  0.10448309  0.86985052  1
  Mo  Mo193  1  0.49219543  0.90267101  0.37435430  1
  Mo  Mo194  1  0.20957781  0.59492465  0.77001302  1
  Mo  Mo195  1  0.30012968  0.69629210  0.36193746  1
  Mo  Mo196  1  0.49354832  0.10039469  0.13242745  1
  Mo  Mo197  1  0.31113862  0.30091372  0.86897743  1
  Mo  Mo198  1  0.09736931  0.69642295  0.37773969  1
  Mo  Mo199  1  0.80502322  0.38660772  0.48853268  1
