# generated using pymatgen
data_HfZrTaTiMo
_symmetry_space_group_name_H-M   'P 1'
_cell_length_a   15.21660172
_cell_length_b   15.20969569
_cell_length_c   16.79543234
_cell_angle_alpha   89.95026219
_cell_angle_beta   90.00766977
_cell_angle_gamma   90.08683488
_symmetry_Int_Tables_number   1
_chemical_formula_structural   HfZrTaTiMo
_chemical_formula_sum   'Hf40 Zr40 Ta40 Ti40 Mo40'
_cell_volume   3887.12691083
_cell_formula_units_Z   40
loop_
 _symmetry_equiv_pos_site_id
 _symmetry_equiv_pos_as_xyz
  1  'x, y, z'
loop_
 _atom_site_type_symbol
 _atom_site_label
 _atom_site_symmetry_multiplicity
 _atom_site_fract_x
 _atom_site_fract_y
 _atom_site_fract_z
 _atom_site_occupancy
  Hf  Hf0  1  0.89378435  0.68502167  0.37252800  1
  Hf  Hf1  1  0.80552633  -0.00381242  0.49412054  1
  Hf  Hf2  1  0.79245348  0.78947322  0.24480570  1
  Hf  Hf3  1  0.11458824  0.88909470  0.11614964  1
  Hf  Hf4  1  0.80786733  0.79434719  0.49224348  1
  Hf  Hf5  1  0.10192328  0.09018471  0.86131119  1
  Hf  Hf6  1  0.79962670  0.39840142  0.24496690  1
  Hf  Hf7  1  0.10202883  0.09579794  0.64566043  1
  Hf  Hf8  1  0.52883779  0.11032184  0.60954404  1
  Hf  Hf9  1  0.81024030  0.00857843  0.23493631  1
  Hf  Hf10  1  0.77193304  0.19176262  0.73658135  1
  Hf  Hf11  1  0.51217375  0.11155592  0.88281245  1
  Hf  Hf12  1  0.29663362  0.49469207  0.11904477  1
  Hf  Hf13  1  0.38971125  0.79878160  0.51461173  1
  Hf  Hf14  1  0.38940077  0.18995811  0.26374573  1
  Hf  Hf15  1  0.08768975  0.29929598  0.11824484  1
  Hf  Hf16  1  0.27417524  0.31123674  0.40057068  1
  Hf  Hf17  1  0.00467844  -0.00210997  -0.00076308  1
  Hf  Hf18  1  0.28978935  0.70870528  0.88735234  1
  Hf  Hf19  1  0.39516730  0.20936434  -0.00162767  1
  Hf  Hf20  1  0.39328709  0.40369473  -0.00489425  1
  Hf  Hf21  1  0.00596404  0.00060769  0.50896153  1
  Hf  Hf22  1  0.59931604  0.00393937  0.24282574  1
  Hf  Hf23  1  0.68476423  0.29341580  0.13132667  1
  Hf  Hf24  1  0.11234642  0.10688228  0.10993096  1
  Hf  Hf25  1  0.01033422  0.01251270  0.23925712  1
  Hf  Hf26  1  0.87783850  0.30026592  0.86412900  1
  Hf  Hf27  1  0.40215741  0.00331004  0.74454200  1
  Hf  Hf28  1  0.10104287  0.49312698  0.12825180  1
  Hf  Hf29  1  0.48335362  0.30613417  0.14146632  1
  Hf  Hf30  1  0.19108876  0.39389907  -0.02759717  1
  Hf  Hf31  1  0.72299428  0.91297866  0.63335874  1
  Hf  Hf32  1  0.11079037  0.88566463  0.87294564  1
  Hf  Hf33  1  0.80841228  0.00164567  0.00973291  1
  Hf  Hf34  1  0.60940200  0.00673520  0.00347010  1
  Hf  Hf35  1  0.20782805  0.59009931  0.25540377  1
  Hf  Hf36  1  0.30576876  0.09373994  0.87651303  1
  Hf  Hf37  1  0.61955065  0.01228612  0.76166345  1
  Hf  Hf38  1  -0.00992899  0.20243106  -0.01788765  1
  Hf  Hf39  1  -0.00158074  0.37740541  0.26132908  1
  Zr  Zr40  1  -0.00014100  0.79729628  0.24566545  1
  Zr  Zr41  1  0.71000172  0.49538544  0.88143027  1
  Zr  Zr42  1  0.41511319  0.20747346  0.74274941  1
  Zr  Zr43  1  0.61256643  0.59262700  0.75243913  1
  Zr  Zr44  1  0.41527694  0.60935740  0.24959288  1
  Zr  Zr45  1  -0.02284461  0.40431827  0.51521486  1
  Zr  Zr46  1  0.78729805  0.40712693  0.73134029  1
  Zr  Zr47  1  0.70945000  0.70623135  0.63131134  1
  Zr  Zr48  1  0.18098940  0.20989733  0.26180535  1
  Zr  Zr49  1  0.30274836  0.71132464  0.36802775  1
  Zr  Zr50  1  0.40956253  0.60368154  0.48901953  1
  Zr  Zr51  1  0.49523424  0.30832632  0.38632156  1
  Zr  Zr52  1  0.09775352  0.29702415  0.62276262  1
  Zr  Zr53  1  0.91860857  0.11246018  0.37538163  1
  Zr  Zr54  1  0.50463135  0.50000119  0.87851287  1
  Zr  Zr55  1  0.69835343  0.88858575  0.12635621  1
  Zr  Zr56  1  0.29624779  0.90507313  0.37055053  1
  Zr  Zr57  1  0.37666493  0.40995031  0.26690487  1
  Zr  Zr58  1  -0.00474965  0.40437962  -0.02001160  1
  Zr  Zr59  1  0.51760584  0.90264883  0.63668261  1
  Zr  Zr60  1  0.29844167  0.30455356  0.60644169  1
  Zr  Zr61  1  0.80084001  0.58931338  0.23310523  1
  Zr  Zr62  1  0.50385170  0.48758137  0.61391866  1
  Zr  Zr63  1  0.21489516  0.00524483  0.24338341  1
  Zr  Zr64  1  0.00194907  0.60208121  0.50643506  1
  Zr  Zr65  1  0.39007277  0.39937796  0.75294630  1
  Zr  Zr66  1  0.40447206  -0.00494398  0.50919960  1
  Zr  Zr67  1  0.80021173  0.20077987  0.50886234  1
  Zr  Zr68  1  0.39402031  0.59836943  0.74892635  1
  Zr  Zr69  1  0.70095949  0.90053071  0.36294386  1
  Zr  Zr70  1  0.10475385  0.70826946  0.62863491  1
  Zr  Zr71  1  0.10076069  0.70556288  0.36978787  1
  Zr  Zr72  1  0.39037699  0.79889208  0.75279103  1
  Zr  Zr73  1  0.60690973  0.79183513  -0.01341142  1
  Zr  Zr74  1  0.50523277  0.69867438  0.63433573  1
  Zr  Zr75  1  0.10734658  0.47990558  0.38118169  1
  Zr  Zr76  1  0.60019837  0.80516992  0.49960420  1
  Zr  Zr77  1  0.50556513  0.11008928  0.12310599  1
  Zr  Zr78  1  0.19097771  0.41179162  0.75934976  1
  Zr  Zr79  1  0.49659526  0.88944483  0.36565826  1
  Ta  Ta80  1  0.81148383  0.20363239  0.23993360  1
  Ta  Ta81  1  0.59344165  0.37964447  0.74300388  1
  Ta  Ta82  1  0.80448819  0.59791783  0.01023504  1
  Ta  Ta83  1  0.67428710  0.29596096  0.60620029  1
  Ta  Ta84  1  0.80520623  0.79137405  -0.00877025  1
  Ta  Ta85  1  0.50411202  0.50037815  0.12571882  1
  Ta  Ta86  1  0.30311580  0.90816841  0.10198541  1
  Ta  Ta87  1  -0.01203185  -0.01687317  0.75438313  1
  Ta  Ta88  1  0.19932604  -0.00396109  0.51071505  1
  Ta  Ta89  1  0.10311651  0.90849206  0.37262112  1
  Ta  Ta90  1  0.60815187  0.59917878  0.01338185  1
  Ta  Ta91  1  0.68547365  0.69158188  0.36925647  1
  Ta  Ta92  1  0.60928839  0.60806094  0.23056746  1
  Ta  Ta93  1  0.79681204  0.39422318  0.01161791  1
  Ta  Ta94  1  0.39525362  0.80507988  0.22915061  1
  Ta  Ta95  1  0.29035050  0.70713938  0.11781988  1
  Ta  Ta96  1  0.20984006  0.20874257  0.76136206  1
  Ta  Ta97  1  0.29645939  0.10116643  0.62655808  1
  Ta  Ta98  1  0.00296420  0.78500221  0.00065477  1
  Ta  Ta99  1  0.19967371  0.60869995  0.74690167  1
  Ta  Ta100  1  0.59634925  0.39627853  0.00869736  1
  Ta  Ta101  1  0.79373368  0.19632105  0.01632942  1
  Ta  Ta102  1  0.49550491  0.89909763  0.11777783  1
  Ta  Ta103  1  0.49692025  0.90648469  0.87933339  1
  Ta  Ta104  1  0.29908214  0.90520411  0.89044476  1
  Ta  Ta105  1  0.40491895  0.79954859  0.00043927  1
  Ta  Ta106  1  0.49654965  0.30064403  0.59189623  1
  Ta  Ta107  1  0.80706930  0.80924035  0.77055507  1
  Ta  Ta108  1  0.68489104  0.29242303  0.88333914  1
  Ta  Ta109  1  0.89292937  0.08299835  0.63950694  1
  Ta  Ta110  1  0.61796306  0.59656794  0.50074820  1
  Ta  Ta111  1  -0.00396119  0.58314154  0.25247535  1
  Ta  Ta112  1  0.28881172  0.50817715  0.61014245  1
  Ta  Ta113  1  0.40696203  0.60786158  0.00757349  1
  Ta  Ta114  1  0.07736585  0.27126137  0.40806974  1
  Ta  Ta115  1  0.60535587  0.20304066  0.26811729  1
  Ta  Ta116  1  -0.00665222  0.40920206  0.74560056  1
  Ta  Ta117  1  0.19278648  0.80794331  0.50435372  1
  Ta  Ta118  1  0.81363189  0.60894972  0.74849644  1
  Ta  Ta119  1  0.10056743  0.69103942  0.12896194  1
  Ti  Ti120  1  0.90206483  0.69293840  0.87899165  1
  Ti  Ti121  1  0.78555652  0.41196746  0.51400364  1
  Ti  Ti122  1  0.90264241  0.71447211  0.62888106  1
  Ti  Ti123  1  0.50171144  0.69730724  0.87427726  1
  Ti  Ti124  1  0.60154775  0.41268096  0.25367008  1
  Ti  Ti125  1  0.69854574  0.30630477  0.38000498  1
  Ti  Ti126  1  0.29502607  0.51398186  0.88005638  1
  Ti  Ti127  1  0.00342184  0.59369750  0.74262390  1
  Ti  Ti128  1  -0.00612350  0.20398697  0.75455121  1
  Ti  Ti129  1  0.28170160  0.29528883  0.12637719  1
  Ti  Ti130  1  0.20270462  0.60681497  0.49819161  1
  Ti  Ti131  1  0.90110705  0.50729893  0.87084873  1
  Ti  Ti132  1  0.70920069  0.10926241  0.88475203  1
  Ti  Ti133  1  0.89224826  0.09537748  0.86385253  1
  Ti  Ti134  1  0.88808125  0.30598828  0.38627218  1
  Ti  Ti135  1  0.19515222  0.20530145  -0.02335829  1
  Ti  Ti136  1  0.40223344  0.00134345  0.24349521  1
  Ti  Ti137  1  0.90767458  0.89112441  0.11925055  1
  Ti  Ti138  1  0.89328559  0.29369664  0.63183352  1
  Ti  Ti139  1  0.00072933  0.80996702  0.49757400  1
  Ti  Ti140  1  0.09560949  0.68859074  0.87236034  1
  Ti  Ti141  1  0.90337252  0.89791955  0.88489395  1
  Ti  Ti142  1  0.19021729  0.59949514  -0.00174395  1
  Ti  Ti143  1  0.50095408  0.30204392  0.87832656  1
  Ti  Ti144  1  0.90877800  0.48705345  0.12010366  1
  Ti  Ti145  1  0.39414587  0.19118517  0.49335162  1
  Ti  Ti146  1  0.71453803  0.50152652  0.37655953  1
  Ti  Ti147  1  0.61548204  0.80274659  0.77615671  1
  Ti  Ti148  1  0.70678724  0.10533110  0.37233053  1
  Ti  Ti149  1  0.09583001  0.89908373  0.64199733  1
  Ti  Ti150  1  0.90885921  0.90097598  0.36584542  1
  Ti  Ti151  1  0.30475708  0.10187411  0.11166976  1
  Ti  Ti152  1  0.28509106  0.09979513  0.38892174  1
  Ti  Ti153  1  0.80759280  0.59163631  0.50881874  1
  Ti  Ti154  1  0.50782496  0.09261843  0.38358157  1
  Ti  Ti155  1  0.28264639  0.89440132  0.63823657  1
  Ti  Ti156  1  -0.00359528  0.78963691  0.75778059  1
  Ti  Ti157  1  0.00017926  0.59696233  -0.00062557  1
  Ti  Ti158  1  0.90584878  0.69372681  0.12140057  1
  Ti  Ti159  1  0.51820309  0.51319409  0.37542452  1
  Mo  Mo160  1  0.19607467  0.79038952  0.00035857  1
  Mo  Mo161  1  -0.00642680  0.19744391  0.25184658  1
  Mo  Mo162  1  0.60374813  0.19757558  0.47281915  1
  Mo  Mo163  1  0.58437279  0.78605927  0.24141271  1
  Mo  Mo164  1  0.71268205  0.69504672  0.87491169  1
  Mo  Mo165  1  0.70254377  0.09571761  0.61649830  1
  Mo  Mo166  1  0.91005892  0.10983063  0.12192369  1
  Mo  Mo167  1  0.70981159  0.90504231  0.88092820  1
  Mo  Mo168  1  0.70437245  0.10381313  0.13412291  1
  Mo  Mo169  1  0.29905715  0.50348556  0.39233132  1
  Mo  Mo170  1  0.20532574  0.79872557  0.23767517  1
  Mo  Mo171  1  0.80560807  -0.00181605  0.76563930  1
  Mo  Mo172  1  -0.01123441  0.18943417  0.52371366  1
  Mo  Mo173  1  0.29306876  0.69954103  0.62090158  1
  Mo  Mo174  1  0.89070981  0.49219212  0.37719903  1
  Mo  Mo175  1  0.20592863  -0.00482486  0.74517351  1
  Mo  Mo176  1  0.51047326  0.70407952  0.36965987  1
  Mo  Mo177  1  0.18506127  0.41100435  0.51209896  1
  Mo  Mo178  1  0.59684802  0.20848061  0.74562888  1
  Mo  Mo179  1  0.10194719  0.50473186  0.62601242  1
  Mo  Mo180  1  0.39564615  0.41124773  0.48647299  1
  Mo  Mo181  1  0.70654308  0.69719813  0.11656231  1
  Mo  Mo182  1  0.09130078  0.51582119  0.86879908  1
  Mo  Mo183  1  0.89822925  0.29936863  0.11984506  1
  Mo  Mo184  1  0.19631997  0.79824132  0.75442442  1
  Mo  Mo185  1  0.69923955  0.50111623  0.62151033  1
  Mo  Mo186  1  0.20431065  0.00579381  -0.00224639  1
  Mo  Mo187  1  0.60241184  0.20975792  0.00306521  1
  Mo  Mo188  1  0.61401721  0.00582108  0.48809164  1
  Mo  Mo189  1  0.69785750  0.49245873  0.11719925  1
  Mo  Mo190  1  0.08848916  0.29632521  0.85495586  1
  Mo  Mo191  1  0.40683618  -0.00033134  -0.00164136  1
  Mo  Mo192  1  0.89637227  0.51517106  0.63458018  1
  Mo  Mo193  1  0.19729554  0.39531155  0.25051627  1
  Mo  Mo194  1  0.30113510  0.29914745  0.87313469  1
  Mo  Mo195  1  0.91180732  0.88855515  0.63200263  1
  Mo  Mo196  1  0.10807989  0.09120046  0.38535515  1
  Mo  Mo197  1  0.19195694  0.18313418  0.50573189  1
  Mo  Mo198  1  0.60663034  0.40920495  0.48566501  1
  Mo  Mo199  1  0.50050301  0.70475236  0.11659897  1
