# generated using pymatgen
data_HfZrTaTiMo
_symmetry_space_group_name_H-M   'P 1'
_cell_length_a   15.22050708
_cell_length_b   15.23461459
_cell_length_c   16.85601886
_cell_angle_alpha   90.03197449
_cell_angle_beta   90.05166091
_cell_angle_gamma   90.05861906
_symmetry_Int_Tables_number   1
_chemical_formula_structural   HfZrTaTiMo
_chemical_formula_sum   'Hf40 Zr40 Ta40 Ti40 Mo40'
_cell_volume   3908.54512086
_cell_formula_units_Z   40
loop_
 _symmetry_equiv_pos_site_id
 _symmetry_equiv_pos_as_xyz
  1  'x, y, z'
loop_
 _atom_site_type_symbol
 _atom_site_label
 _atom_site_symmetry_multiplicity
 _atom_site_fract_x
 _atom_site_fract_y
 _atom_site_fract_z
 _atom_site_occupancy
  Hf  Hf0  1  0.79763405  0.19728555  0.49226962  1
  Hf  Hf1  1  0.69542175  0.89706167  0.62350991  1
  Hf  Hf2  1  -0.00891018  0.59623271  0.00829335  1
  Hf  Hf3  1  0.60497718  0.00269321  0.48996017  1
  Hf  Hf4  1  0.10035497  0.09528307  0.62728576  1
  Hf  Hf5  1  0.79878691  -0.00545527  0.49512336  1
  Hf  Hf6  1  0.10649996  0.68931231  0.12709335  1
  Hf  Hf7  1  0.18963354  0.00454694  0.48761885  1
  Hf  Hf8  1  0.29784870  0.31477886  0.37935336  1
  Hf  Hf9  1  0.20582051  0.40495163  0.24815260  1
  Hf  Hf10  1  0.88086217  0.10139877  0.63845052  1
  Hf  Hf11  1  0.29002678  0.70906693  0.86379497  1
  Hf  Hf12  1  0.70523470  0.88142111  0.88617515  1
  Hf  Hf13  1  0.30425238  0.31082267  0.12082813  1
  Hf  Hf14  1  -0.00870015  0.20681451  0.00389051  1
  Hf  Hf15  1  0.78521224  0.40328164  0.24807113  1
  Hf  Hf16  1  0.51457541  0.31638321  0.12189047  1
  Hf  Hf17  1  -0.00910953  0.79018662  0.23975615  1
  Hf  Hf18  1  0.19116628  0.79573062  0.27025082  1
  Hf  Hf19  1  0.59577503  -0.00514710  0.75558339  1
  Hf  Hf20  1  0.50054717  0.90093101  0.61479168  1
  Hf  Hf21  1  0.70285408  0.09332569  0.88113506  1
  Hf  Hf22  1  0.80463244  0.61443756  0.49802380  1
  Hf  Hf23  1  0.39926375  0.41519564  0.49951159  1
  Hf  Hf24  1  0.39403817  0.78785744  0.26315066  1
  Hf  Hf25  1  0.00474551  0.39673071  0.51087961  1
  Hf  Hf26  1  0.79579450  0.40021324  0.49474868  1
  Hf  Hf27  1  0.51625125  0.51763893  0.88013798  1
  Hf  Hf28  1  -0.00811606  0.80104668  0.00671590  1
  Hf  Hf29  1  0.40715977  0.00925320  0.48190882  1
  Hf  Hf30  1  0.30603169  0.09575275  0.12753153  1
  Hf  Hf31  1  0.41434978  0.21598783  0.25272941  1
  Hf  Hf32  1  0.20711580  0.59320756  -0.00231402  1
  Hf  Hf33  1  0.60563704  0.20508587  0.00320977  1
  Hf  Hf34  1  0.40002386  0.41523828  -0.00826050  1
  Hf  Hf35  1  0.20789830  0.20023455  0.74093695  1
  Hf  Hf36  1  0.49644905  0.69885624  0.63185017  1
  Hf  Hf37  1  0.10304653  0.29896327  0.87983418  1
  Hf  Hf38  1  -0.00386460  0.22820013  0.73154621  1
  Hf  Hf39  1  0.60080094  0.59824443  0.51082424  1
  Zr  Zr40  1  0.40080565  0.20871210  0.75548723  1
  Zr  Zr41  1  0.79692533  0.61402711  0.25475924  1
  Zr  Zr42  1  -0.00176979  0.39049716  0.24514163  1
  Zr  Zr43  1  0.89252749  0.11489142  0.86534176  1
  Zr  Zr44  1  0.38710084  0.81588396  0.74598938  1
  Zr  Zr45  1  0.49453220  0.30611211  0.62332097  1
  Zr  Zr46  1  0.18263062  0.77414560  0.48593900  1
  Zr  Zr47  1  0.88632332  0.08732891  0.12393461  1
  Zr  Zr48  1  0.10192093  0.09741242  0.12246743  1
  Zr  Zr49  1  0.78705329  0.58777945  0.00618685  1
  Zr  Zr50  1  0.08925422  0.68790567  0.86334733  1
  Zr  Zr51  1  0.19579090  -0.00439041  0.26709139  1
  Zr  Zr52  1  0.09005533  0.48974294  0.86579102  1
  Zr  Zr53  1  0.19442931  0.20367040  0.25244943  1
  Zr  Zr54  1  0.90066179  0.33223299  0.86736517  1
  Zr  Zr55  1  0.29715581  0.89840362  0.60330511  1
  Zr  Zr56  1  0.10521289  0.09912465  0.86724116  1
  Zr  Zr57  1  0.49672556  0.89989720  0.13990531  1
  Zr  Zr58  1  0.21331026  0.58408950  0.49879963  1
  Zr  Zr59  1  0.60891795  0.40641994  0.75297671  1
  Zr  Zr60  1  0.88297713  0.70250082  0.87152353  1
  Zr  Zr61  1  0.71098948  0.89283605  0.35744514  1
  Zr  Zr62  1  0.71583358  0.29317920  0.63489723  1
  Zr  Zr63  1  0.40031656  0.41126644  0.75635105  1
  Zr  Zr64  1  0.09367576  0.87646391  0.62497661  1
  Zr  Zr65  1  0.30180505  0.09121549  0.88072857  1
  Zr  Zr66  1  0.11498518  0.88604053  0.86016309  1
  Zr  Zr67  1  0.30798332  0.10922900  0.60940397  1
  Zr  Zr68  1  0.59399554  0.79200569  0.01133392  1
  Zr  Zr69  1  -0.00964654  -0.00880283  0.25003422  1
  Zr  Zr70  1  0.90629466  0.50517776  0.37667890  1
  Zr  Zr71  1  0.00372189  -0.00683836  -0.01026971  1
  Zr  Zr72  1  -0.00555281  -0.01045190  0.75155363  1
  Zr  Zr73  1  0.49265478  0.70802074  0.86824735  1
  Zr  Zr74  1  0.78722696  0.20123918  0.23954261  1
  Zr  Zr75  1  0.39909432  0.00778340  0.26064208  1
  Zr  Zr76  1  0.51369755  0.89538301  0.36360806  1
  Zr  Zr77  1  0.21869272  0.60344507  0.27009309  1
  Zr  Zr78  1  -0.01300834  -0.00535271  0.50535053  1
  Zr  Zr79  1  0.59784070  0.19800895  0.75892041  1
  Ta  Ta80  1  0.60399098  0.79941975  0.75472949  1
  Ta  Ta81  1  0.30205593  0.71085889  0.12583729  1
  Ta  Ta82  1  0.07213225  0.88560948  0.38580006  1
  Ta  Ta83  1  0.29601599  0.30416506  0.88481875  1
  Ta  Ta84  1  0.40402310  0.01123136  0.74748949  1
  Ta  Ta85  1  0.49378340  0.91065203  0.88292589  1
  Ta  Ta86  1  0.59448175  0.57948917  0.24911868  1
  Ta  Ta87  1  0.31454597  0.51657377  0.12771721  1
  Ta  Ta88  1  0.10128306  0.30078183  0.11670974  1
  Ta  Ta89  1  0.20124222  0.59326174  0.73925889  1
  Ta  Ta90  1  0.21622533  -0.02002687  0.00302225  1
  Ta  Ta91  1  0.89381322  0.09521091  0.36576682  1
  Ta  Ta92  1  0.71348981  0.29903828  0.87312463  1
  Ta  Ta93  1  0.40877266  0.00296030  0.01231317  1
  Ta  Ta94  1  0.68738767  0.68167565  0.87132507  1
  Ta  Ta95  1  0.41071538  0.78854900  0.48866061  1
  Ta  Ta96  1  0.70938565  0.90811800  0.13293981  1
  Ta  Ta97  1  0.00929071  0.61054667  0.51158424  1
  Ta  Ta98  1  0.29501762  0.11446949  0.38175211  1
  Ta  Ta99  1  0.10726576  0.49213098  0.38217103  1
  Ta  Ta100  1  0.51825444  0.68560359  0.37318962  1
  Ta  Ta101  1  -0.00385719  0.40608108  0.01505766  1
  Ta  Ta102  1  0.00718665  0.59564743  0.25055279  1
  Ta  Ta103  1  0.11185442  0.89383060  0.12528644  1
  Ta  Ta104  1  0.60326397  0.00117428  0.01371070  1
  Ta  Ta105  1  0.29687234  0.89491400  0.38860413  1
  Ta  Ta106  1  0.40310640  0.20409900  0.00235349  1
  Ta  Ta107  1  0.68443219  0.50372591  0.37814956  1
  Ta  Ta108  1  0.49967085  0.09984452  0.88819428  1
  Ta  Ta109  1  0.19821875  0.79499530  0.00159382  1
  Ta  Ta110  1  0.41692472  0.42449742  0.25850455  1
  Ta  Ta111  1  0.50971165  0.50981318  0.11378153  1
  Ta  Ta112  1  0.88324392  0.87543450  0.62803934  1
  Ta  Ta113  1  0.19853774  0.39127000  0.73794532  1
  Ta  Ta114  1  0.71175808  0.70753386  0.63127915  1
  Ta  Ta115  1  0.59967991  0.20226981  0.50016898  1
  Ta  Ta116  1  0.38403307  0.81484829  0.00294368  1
  Ta  Ta117  1  -0.00621163  0.19987940  0.50958965  1
  Ta  Ta118  1  0.08360393  0.11081037  0.37991819  1
  Ta  Ta119  1  0.50582993  0.10123139  0.61845964  1
  Ti  Ti120  1  0.80811198  0.59698190  0.74551774  1
  Ti  Ti121  1  0.80126433  0.79244173  0.01991691  1
  Ti  Ti122  1  0.80667066  0.39508476  0.01514668  1
  Ti  Ti123  1  0.21645362  -0.01448301  0.74260263  1
  Ti  Ti124  1  0.70452155  0.50010923  0.62825615  1
  Ti  Ti125  1  0.89938705  0.72234503  0.37962010  1
  Ti  Ti126  1  0.29160339  0.69986857  0.62896928  1
  Ti  Ti127  1  0.19302640  0.21393400  0.50350477  1
  Ti  Ti128  1  0.60657163  0.02961965  0.23386745  1
  Ti  Ti129  1  0.69100131  0.68245083  0.12386777  1
  Ti  Ti130  1  0.20410779  0.19490082  0.00258789  1
  Ti  Ti131  1  0.61059665  0.77885049  0.24249519  1
  Ti  Ti132  1  0.09477143  0.29901219  0.38124863  1
  Ti  Ti133  1  0.40641109  0.60186944  0.49818300  1
  Ti  Ti134  1  0.79847859  -0.01913319  0.75953400  1
  Ti  Ti135  1  0.29742241  0.50539359  0.86617475  1
  Ti  Ti136  1  0.69698318  0.10482828  0.36490304  1
  Ti  Ti137  1  0.89602211  0.50286261  0.13598116  1
  Ti  Ti138  1  0.59690782  0.40051423  0.50532514  1
  Ti  Ti139  1  0.40133323  0.61713574  -0.00107616  1
  Ti  Ti140  1  0.31360785  0.50211613  0.63273054  1
  Ti  Ti141  1  -0.01689991  0.78412111  0.74453770  1
  Ti  Ti142  1  0.80656856  -0.01343544  -0.00233426  1
  Ti  Ti143  1  0.89925371  0.49902138  0.62639218  1
  Ti  Ti144  1  0.10987449  0.49605358  0.12813824  1
  Ti  Ti145  1  0.62245567  0.41201757  -0.00574814  1
  Ti  Ti146  1  0.69353621  0.09653187  0.63235633  1
  Ti  Ti147  1  0.10639975  0.49667511  0.62676420  1
  Ti  Ti148  1  0.19923265  0.40148616  0.00340920  1
  Ti  Ti149  1  0.72686016  0.49289474  0.86606285  1
  Ti  Ti150  1  0.80610678  0.80447074  0.23441552  1
  Ti  Ti151  1  0.40558020  0.21147849  0.49323092  1
  Ti  Ti152  1  -0.00488871  0.20063116  0.24253779  1
  Ti  Ti153  1  0.90369837  0.28955730  0.37381062  1
  Ti  Ti154  1  0.67913236  0.30055234  0.37137589  1
  Ti  Ti155  1  0.60149642  0.59914449  0.73861547  1
  Ti  Ti156  1  0.51040743  0.12198293  0.37139908  1
  Ti  Ti157  1  0.50528850  0.30595273  0.88522668  1
  Ti  Ti158  1  0.49234606  0.69158385  0.12943456  1
  Ti  Ti159  1  0.79701722  0.20694244  0.01282864  1
  Mo  Mo160  1  0.89830844  0.69353468  0.63089466  1
  Mo  Mo161  1  0.41168287  0.60350833  0.24786958  1
  Mo  Mo162  1  0.59452485  0.59995677  0.00077123  1
  Mo  Mo163  1  -0.00455175  0.59194156  0.73407597  1
  Mo  Mo164  1  0.50702935  0.30474175  0.38318787  1
  Mo  Mo165  1  0.50619622  0.49633471  0.38059228  1
  Mo  Mo166  1  0.39353435  0.60124249  0.74563670  1
  Mo  Mo167  1  0.90252131  0.50968812  0.87273175  1
  Mo  Mo168  1  0.79350130  0.79827394  0.49766129  1
  Mo  Mo169  1  0.00598176  0.41420264  0.73071420  1
  Mo  Mo170  1  0.69003529  0.48960648  0.12576889  1
  Mo  Mo171  1  0.90280159  0.30369681  0.12421065  1
  Mo  Mo172  1  0.31047425  0.50389474  0.37484962  1
  Mo  Mo173  1  0.60875783  0.78821294  0.49574077  1
  Mo  Mo174  1  0.07700644  0.68087234  0.37426069  1
  Mo  Mo175  1  0.29228591  0.31150266  0.61325273  1
  Mo  Mo176  1  0.50528760  0.50728680  0.62865453  1
  Mo  Mo177  1  0.89447675  0.89767060  0.87364009  1
  Mo  Mo178  1  0.31769075  0.70032450  0.38448863  1
  Mo  Mo179  1  0.30752691  0.90230369  0.87384738  1
  Mo  Mo180  1  0.59764148  0.39076050  0.25290543  1
  Mo  Mo181  1  0.60034097  0.20800481  0.24463597  1
  Mo  Mo182  1  -0.02287529  0.78594614  0.50588390  1
  Mo  Mo183  1  0.49923335  0.10859336  0.11936568  1
  Mo  Mo184  1  0.89828032  0.89332685  0.11991383  1
  Mo  Mo185  1  0.89745277  0.30679290  0.61960637  1
  Mo  Mo186  1  0.10669163  0.30089714  0.61566016  1
  Mo  Mo187  1  0.81180262  0.40768849  0.74287123  1
  Mo  Mo188  1  0.09798984  0.68678025  0.63654213  1
  Mo  Mo189  1  0.79376344  -0.00149720  0.25016514  1
  Mo  Mo190  1  0.79517620  0.20022952  0.75469133  1
  Mo  Mo191  1  0.89720702  0.89967216  0.37319214  1
  Mo  Mo192  1  0.19224852  0.79558120  0.73858436  1
  Mo  Mo193  1  0.19998612  0.39785826  0.50647084  1
  Mo  Mo194  1  0.29322008  0.89281701  0.13120489  1
  Mo  Mo195  1  0.89452359  0.69342637  0.12610139  1
  Mo  Mo196  1  0.79039425  0.79276311  0.75452098  1
  Mo  Mo197  1  0.69444518  0.09816358  0.11501291  1
  Mo  Mo198  1  0.70507991  0.30847531  0.11717072  1
  Mo  Mo199  1  0.69741028  0.69905183  0.37214527  1
