# generated using pymatgen
data_HfZrTaTiMo
_symmetry_space_group_name_H-M   'P 1'
_cell_length_a   15.21961611
_cell_length_b   15.20881910
_cell_length_c   16.84039645
_cell_angle_alpha   89.93151687
_cell_angle_beta   89.95641449
_cell_angle_gamma   89.86589668
_symmetry_Int_Tables_number   1
_chemical_formula_structural   HfZrTaTiMo
_chemical_formula_sum   'Hf40 Zr40 Ta40 Ti40 Mo40'
_cell_volume   3898.07220310
_cell_formula_units_Z   40
loop_
 _symmetry_equiv_pos_site_id
 _symmetry_equiv_pos_as_xyz
  1  'x, y, z'
loop_
 _atom_site_type_symbol
 _atom_site_label
 _atom_site_symmetry_multiplicity
 _atom_site_fract_x
 _atom_site_fract_y
 _atom_site_fract_z
 _atom_site_occupancy
  Hf  Hf0  1  0.62128931  0.00630689  0.75110380  1
  Hf  Hf1  1  0.30562646  0.11768474  0.14347300  1
  Hf  Hf2  1  0.39488623  0.20674197  0.00206965  1
  Hf  Hf3  1  0.19447776  0.20873723  0.00069355  1
  Hf  Hf4  1  -0.01959035  -0.01003284  0.74308595  1
  Hf  Hf5  1  0.60095016  0.20587660  0.73946683  1
  Hf  Hf6  1  0.18246852  0.40640953  -0.00636644  1
  Hf  Hf7  1  0.69537060  0.29344795  0.87744121  1
  Hf  Hf8  1  0.60414640  -0.00138991  0.24152844  1
  Hf  Hf9  1  0.39139054  0.01539436  0.49832644  1
  Hf  Hf10  1  0.60802765  0.80741667  0.76201028  1
  Hf  Hf11  1  -0.00308840  0.41695525  0.73643276  1
  Hf  Hf12  1  0.40591002  0.21383374  0.50934960  1
  Hf  Hf13  1  0.79887830  0.79700687  0.25197985  1
  Hf  Hf14  1  0.50838610  0.70406394  0.10862395  1
  Hf  Hf15  1  0.09724244  0.10501920  0.13049394  1
  Hf  Hf16  1  0.81337149  0.39602659  0.00618948  1
  Hf  Hf17  1  0.08509160  0.10816377  0.37617248  1
  Hf  Hf18  1  0.38702372  0.41001645  0.01048825  1
  Hf  Hf19  1  0.28358620  0.91966778  0.63124069  1
  Hf  Hf20  1  0.72019002  0.71326414  0.62762301  1
  Hf  Hf21  1  -0.00715269  0.22170603  -0.00089319  1
  Hf  Hf22  1  0.28466424  0.50782619  0.62701075  1
  Hf  Hf23  1  0.39459927  0.41200415  0.24270069  1
  Hf  Hf24  1  0.29547996  0.29876600  0.36492866  1
  Hf  Hf25  1  -0.00496486  0.80301386  0.25118471  1
  Hf  Hf26  1  -0.01903383  0.78073216  0.74773050  1
  Hf  Hf27  1  0.80269856  0.59186864  0.26588563  1
  Hf  Hf28  1  0.89506537  0.30005513  0.86315151  1
  Hf  Hf29  1  0.49641982  0.90853092  0.63383925  1
  Hf  Hf30  1  0.09609862  0.90138979  0.38436409  1
  Hf  Hf31  1  0.29783240  0.70787179  0.37692408  1
  Hf  Hf32  1  0.60307134  0.80174718  0.23987824  1
  Hf  Hf33  1  0.88909005  0.10130453  0.11042166  1
  Hf  Hf34  1  0.79584447  0.40885456  0.74366119  1
  Hf  Hf35  1  0.50356546  0.30374419  0.36462729  1
  Hf  Hf36  1  0.38867263  0.81387595  0.76774224  1
  Hf  Hf37  1  0.29940995  0.30163998  0.86902273  1
  Hf  Hf38  1  0.39925840  0.80570098  0.50818113  1
  Hf  Hf39  1  0.18507066  0.80019765  -0.00267036  1
  Zr  Zr40  1  0.01238478  0.58395747  0.00263664  1
  Zr  Zr41  1  0.41337138  0.60375641  0.25278332  1
  Zr  Zr42  1  0.68708536  0.49248841  0.37277643  1
  Zr  Zr43  1  0.70452849  0.29488293  0.37452757  1
  Zr  Zr44  1  0.51076974  0.11983643  0.88019274  1
  Zr  Zr45  1  0.29815365  0.68618740  0.12663143  1
  Zr  Zr46  1  0.49543625  0.28843500  0.13765952  1
  Zr  Zr47  1  0.88903537  0.68900694  0.12406778  1
  Zr  Zr48  1  0.61784368  0.59308916  0.74717066  1
  Zr  Zr49  1  0.40400920  0.81005460  0.24786406  1
  Zr  Zr50  1  0.91975026  0.48153140  0.14078347  1
  Zr  Zr51  1  0.20895063  0.00602669  -0.01026824  1
  Zr  Zr52  1  0.51148945  0.70195061  0.37853240  1
  Zr  Zr53  1  0.00776399  -0.01328535  -0.00018857  1
  Zr  Zr54  1  0.20784487  0.18543921  0.50960377  1
  Zr  Zr55  1  0.70025228  0.89872211  0.38685196  1
  Zr  Zr56  1  0.88047539  0.88271927  0.60882010  1
  Zr  Zr57  1  0.19071712  0.79852436  0.24619508  1
  Zr  Zr58  1  0.79511306  -0.00272546  0.24419007  1
  Zr  Zr59  1  0.21075622  0.60275013  -0.01157067  1
  Zr  Zr60  1  0.70140840  0.29953474  0.61250647  1
  Zr  Zr61  1  0.21509822  0.19546521  0.73725608  1
  Zr  Zr62  1  0.10012519  0.30446605  0.62280691  1
  Zr  Zr63  1  0.80206632  0.58884339  0.48265038  1
  Zr  Zr64  1  0.19152551  0.81011576  0.51115914  1
  Zr  Zr65  1  -0.00930129  0.00339119  0.24833908  1
  Zr  Zr66  1  0.60398099  0.39066013  0.01191718  1
  Zr  Zr67  1  0.49979038  0.69912432  0.64035159  1
  Zr  Zr68  1  0.10253732  0.68525201  0.62693467  1
  Zr  Zr69  1  0.50377386  0.68776925  0.87240683  1
  Zr  Zr70  1  0.41182302  0.00508528  0.25385850  1
  Zr  Zr71  1  0.59405319  0.40463528  0.74399947  1
  Zr  Zr72  1  0.09711745  0.88641737  0.85884118  1
  Zr  Zr73  1  0.29747989  0.90792566  0.12227347  1
  Zr  Zr74  1  0.18624813  0.40391274  0.49196002  1
  Zr  Zr75  1  0.09868001  0.10728520  0.86313604  1
  Zr  Zr76  1  0.00948739  0.59674253  0.26915780  1
  Zr  Zr77  1  0.38662051  0.79862047  -0.01927908  1
  Zr  Zr78  1  0.39966494  0.60101605  0.50492119  1
  Zr  Zr79  1  0.89298871  0.09226237  0.88256635  1
  Ta  Ta80  1  0.71096413  0.50180425  0.88088892  1
  Ta  Ta81  1  0.09156378  0.30931794  0.85919969  1
  Ta  Ta82  1  0.90320778  0.89128737  0.11287076  1
  Ta  Ta83  1  0.08159499  0.31149461  0.13455332  1
  Ta  Ta84  1  0.50497837  0.09554248  0.11460385  1
  Ta  Ta85  1  0.79695524  0.18268328  0.74132369  1
  Ta  Ta86  1  0.71436942  0.50470351  0.12775045  1
  Ta  Ta87  1  0.00505017  0.56929165  0.48192954  1
  Ta  Ta88  1  0.50423371  0.90393828  0.10107041  1
  Ta  Ta89  1  0.50069217  0.10487310  0.62859361  1
  Ta  Ta90  1  0.10773853  0.07793158  0.63127780  1
  Ta  Ta91  1  0.61304194  0.79737240  -0.01247285  1
  Ta  Ta92  1  0.19820781  0.40863177  0.74805543  1
  Ta  Ta93  1  0.60191413  0.00727283  0.51056773  1
  Ta  Ta94  1  0.50293839  0.90621440  0.38629770  1
  Ta  Ta95  1  0.50922575  0.91072515  0.88379560  1
  Ta  Ta96  1  -0.00765933  0.78345981  -0.01056924  1
  Ta  Ta97  1  0.27483961  0.31555529  0.14063457  1
  Ta  Ta98  1  0.61527447  0.59714690  -0.00021798  1
  Ta  Ta99  1  0.89853106  0.90647030  0.39665015  1
  Ta  Ta100  1  0.39633774  0.39903466  0.74214854  1
  Ta  Ta101  1  0.60074755  0.60162810  0.51086270  1
  Ta  Ta102  1  0.61037382  0.40465812  0.23453674  1
  Ta  Ta103  1  0.91081138  0.67368827  0.60321756  1
  Ta  Ta104  1  0.50658878  0.50800188  0.11923170  1
  Ta  Ta105  1  0.29624093  0.70644504  0.64648740  1
  Ta  Ta106  1  0.80697992  0.18789083  0.49839545  1
  Ta  Ta107  1  0.29607595  0.10446162  0.36083645  1
  Ta  Ta108  1  0.89687542  0.29822065  0.62106234  1
  Ta  Ta109  1  0.39834243  0.01818693  0.76566986  1
  Ta  Ta110  1  0.12412955  0.49504820  0.14159021  1
  Ta  Ta111  1  0.70898528  0.09935737  0.89165526  1
  Ta  Ta112  1  0.19454721  -0.00021590  0.25119718  1
  Ta  Ta113  1  0.29557140  0.91214590  0.37860264  1
  Ta  Ta114  1  0.91071994  0.50577800  0.87586534  1
  Ta  Ta115  1  0.40090778  0.00741219  -0.01257702  1
  Ta  Ta116  1  -0.00592728  0.19747210  0.73569518  1
  Ta  Ta117  1  0.58932090  0.40223054  0.50707080  1
  Ta  Ta118  1  0.60355621  0.80349609  0.51233400  1
  Ta  Ta119  1  0.00397050  -0.00195458  0.51332438  1
  Ti  Ti120  1  0.70206767  0.09657791  0.38088307  1
  Ti  Ti121  1  0.49677381  0.31021125  0.87742055  1
  Ti  Ti122  1  0.90434494  0.71183738  0.39320420  1
  Ti  Ti123  1  0.79744499  0.82560393  0.76749309  1
  Ti  Ti124  1  0.88982635  0.29301649  0.14073152  1
  Ti  Ti125  1  0.89121026  0.09373252  0.62174608  1
  Ti  Ti126  1  0.90937246  0.27939483  0.37224171  1
  Ti  Ti127  1  -0.00107804  0.19850299  0.51095984  1
  Ti  Ti128  1  0.81474266  0.39393404  0.49363887  1
  Ti  Ti129  1  0.19884017  0.60008108  0.49447877  1
  Ti  Ti130  1  0.39549805  0.40274824  0.50440100  1
  Ti  Ti131  1  0.39613921  0.59457128  0.75418409  1
  Ti  Ti132  1  0.80534823  0.60355174  -0.00373817  1
  Ti  Ti133  1  0.40378977  0.59644951  -0.00957410  1
  Ti  Ti134  1  0.71116305  0.50476376  0.61341872  1
  Ti  Ti135  1  0.20993211  0.59013309  0.25978756  1
  Ti  Ti136  1  0.29834402  0.50616066  0.86334396  1
  Ti  Ti137  1  0.50335638  0.10615550  0.37576433  1
  Ti  Ti138  1  0.61050424  0.60523358  0.23733217  1
  Ti  Ti139  1  0.01105992  0.38532444  0.27484656  1
  Ti  Ti140  1  0.60914176  0.00156736  -0.00024229  1
  Ti  Ti141  1  0.60407535  0.19265004  0.24762838  1
  Ti  Ti142  1  0.20807347  -0.00504941  0.76451423  1
  Ti  Ti143  1  0.69740056  0.11489612  0.10962193  1
  Ti  Ti144  1  0.40469815  0.21053503  0.73849703  1
  Ti  Ti145  1  0.80326459  0.19101705  0.25652207  1
  Ti  Ti146  1  0.71700653  0.69633374  0.87149933  1
  Ti  Ti147  1  0.69741232  0.70215800  0.38276517  1
  Ti  Ti148  1  0.17742147  0.21210740  0.25652211  1
  Ti  Ti149  1  0.09945460  0.70035963  0.38648869  1
  Ti  Ti150  1  0.50525220  0.49469319  0.87786748  1
  Ti  Ti151  1  0.50011102  0.49946128  0.37913002  1
  Ti  Ti152  1  0.09312362  0.69859671  0.12673692  1
  Ti  Ti153  1  0.80208884  0.80077646  -0.01123503  1
  Ti  Ti154  1  0.49563546  0.49818097  0.62406043  1
  Ti  Ti155  1  0.70477077  0.89243575  0.10968675  1
  Ti  Ti156  1  0.09558018  0.67891596  0.85666478  1
  Ti  Ti157  1  0.82362669  0.60712826  0.74973592  1
  Ti  Ti158  1  0.60031429  0.19833542  0.50426333  1
  Ti  Ti159  1  0.30210826  0.50120978  0.37931447  1
  Mo  Mo160  1  0.70911726  0.29619146  0.14054939  1
  Mo  Mo161  1  0.10066327  0.49252297  0.86693463  1
  Mo  Mo162  1  0.30407489  0.50269043  0.12422243  1
  Mo  Mo163  1  0.09083606  0.89901385  0.63453392  1
  Mo  Mo164  1  0.89150882  0.09672326  0.38530695  1
  Mo  Mo165  1  0.00312294  0.39632381  0.00024908  1
  Mo  Mo166  1  0.30698645  0.31188431  0.62843933  1
  Mo  Mo167  1  0.09405066  0.29254631  0.38394195  1
  Mo  Mo168  1  0.79700117  0.00553252  0.50008695  1
  Mo  Mo169  1  0.70537053  0.90771520  0.88869413  1
  Mo  Mo170  1  0.60079659  0.19923486  0.00578068  1
  Mo  Mo171  1  0.19556820  0.00767452  0.49703691  1
  Mo  Mo172  1  -0.00202713  0.78887332  0.50115924  1
  Mo  Mo173  1  0.89780037  0.69488662  0.87842961  1
  Mo  Mo174  1  0.70331245  0.09758491  0.61666672  1
  Mo  Mo175  1  -0.00725468  0.59428633  0.74641923  1
  Mo  Mo176  1  0.79577625  0.79285646  0.49379324  1
  Mo  Mo177  1  0.69447898  0.90295748  0.62053980  1
  Mo  Mo178  1  0.19197015  0.79987333  0.74770004  1
  Mo  Mo179  1  0.70287961  0.69533307  0.11458484  1
  Mo  Mo180  1  -0.01105124  0.20124406  0.24767015  1
  Mo  Mo181  1  0.30040064  0.90696382  0.87406357  1
  Mo  Mo182  1  0.08680962  0.50833222  0.61441440  1
  Mo  Mo183  1  0.19538748  0.40466349  0.26296633  1
  Mo  Mo184  1  0.79752436  0.00027492  0.74933070  1
  Mo  Mo185  1  0.10874660  0.49800805  0.36850449  1
  Mo  Mo186  1  0.28783667  0.69817853  0.85305094  1
  Mo  Mo187  1  0.09073023  0.89179250  0.12162937  1
  Mo  Mo188  1  0.79051195  0.20619665  0.00424421  1
  Mo  Mo189  1  0.31112701  0.09817080  0.63368979  1
  Mo  Mo190  1  0.30669706  0.10758033  0.87263297  1
  Mo  Mo191  1  -0.01006696  0.38721386  0.48782292  1
  Mo  Mo192  1  0.40258257  0.20096409  0.25249725  1
  Mo  Mo193  1  0.80484646  0.38697629  0.25180627  1
  Mo  Mo194  1  0.89982327  0.47262169  0.36428627  1
  Mo  Mo195  1  0.89275885  0.89217347  0.88338054  1
  Mo  Mo196  1  0.79548256  -0.00875356  0.01036862  1
  Mo  Mo197  1  0.49682527  0.30718195  0.61987896  1
  Mo  Mo198  1  0.89565287  0.49382531  0.61421312  1
  Mo  Mo199  1  0.19705997  0.59537733  0.75572435  1
