# generated using pymatgen
data_HfZrTaTiMo
_symmetry_space_group_name_H-M   'P 1'
_cell_length_a   15.21793823
_cell_length_b   15.20464376
_cell_length_c   16.81179913
_cell_angle_alpha   90.05312849
_cell_angle_beta   89.95203197
_cell_angle_gamma   90.09388914
_symmetry_Int_Tables_number   1
_chemical_formula_structural   HfZrTaTiMo
_chemical_formula_sum   'Hf40 Zr40 Ta40 Ti40 Mo40'
_cell_volume   3889.96180380
_cell_formula_units_Z   40
loop_
 _symmetry_equiv_pos_site_id
 _symmetry_equiv_pos_as_xyz
  1  'x, y, z'
loop_
 _atom_site_type_symbol
 _atom_site_label
 _atom_site_symmetry_multiplicity
 _atom_site_fract_x
 _atom_site_fract_y
 _atom_site_fract_z
 _atom_site_occupancy
  Hf  Hf0  1  0.58632091  0.20367096  0.02489426  1
  Hf  Hf1  1  0.09751607  0.70509750  0.11965926  1
  Hf  Hf2  1  0.59491009  -0.00470701  0.75143206  1
  Hf  Hf3  1  0.39784666  0.40513797  0.50122950  1
  Hf  Hf4  1  0.71031248  0.30352143  0.62800720  1
  Hf  Hf5  1  0.69489427  0.89867725  0.39347580  1
  Hf  Hf6  1  0.88932437  0.10858412  0.38153200  1
  Hf  Hf7  1  0.69436708  0.08799527  0.13959998  1
  Hf  Hf8  1  0.09531233  0.49405039  0.10736612  1
  Hf  Hf9  1  0.18855962  0.00264617  0.49236670  1
  Hf  Hf10  1  0.29989875  0.09900015  0.62403931  1
  Hf  Hf11  1  0.89510363  0.11220130  0.88993276  1
  Hf  Hf12  1  0.71478769  0.87688752  0.12594418  1
  Hf  Hf13  1  0.69720469  0.50269485  0.86526572  1
  Hf  Hf14  1  0.19334462  0.39930895  0.49799318  1
  Hf  Hf15  1  0.09758651  0.90248538  0.13227322  1
  Hf  Hf16  1  0.79496181  -0.00619984  -0.00467911  1
  Hf  Hf17  1  0.49600069  0.09492295  0.61890042  1
  Hf  Hf18  1  0.39331436  0.00137575  0.01272063  1
  Hf  Hf19  1  -0.00341827  0.21721240  0.75733126  1
  Hf  Hf20  1  0.11657340  0.70357238  0.63637047  1
  Hf  Hf21  1  0.90594434  0.48945433  0.63263836  1
  Hf  Hf22  1  0.60722668  0.79205432  -0.01645457  1
  Hf  Hf23  1  -0.01045732  0.59193666  0.24226266  1
  Hf  Hf24  1  0.20642873  0.79998827  0.49353372  1
  Hf  Hf25  1  -0.02134761  0.79479208  0.25479777  1
  Hf  Hf26  1  0.09393398  0.09152569  0.88584050  1
  Hf  Hf27  1  0.60992116  0.79260704  0.25751472  1
  Hf  Hf28  1  -0.00660723  0.78313420  0.50560258  1
  Hf  Hf29  1  0.40049863  0.80579911  0.26591682  1
  Hf  Hf30  1  0.10251056  0.28097540  0.36445312  1
  Hf  Hf31  1  0.79762093  0.80078747  0.75558455  1
  Hf  Hf32  1  0.49246890  0.10690411  0.87814368  1
  Hf  Hf33  1  0.91022729  0.30220436  0.10944911  1
  Hf  Hf34  1  0.41781786  0.60827058  0.25199793  1
  Hf  Hf35  1  0.39654682  0.60846391  -0.01363760  1
  Hf  Hf36  1  0.11353365  0.48491156  0.64096674  1
  Hf  Hf37  1  0.41347008  0.60138867  0.75362593  1
  Hf  Hf38  1  0.09972003  0.50358955  0.88693340  1
  Hf  Hf39  1  0.79741292  -0.01347643  0.25738992  1
  Zr  Zr40  1  0.70486979  0.51217098  0.36104858  1
  Zr  Zr41  1  0.39400787  0.00001726  0.25257530  1
  Zr  Zr42  1  0.39273236  0.20066986  0.75373964  1
  Zr  Zr43  1  0.09874045  0.10079425  0.62832734  1
  Zr  Zr44  1  0.50778663  0.90375508  0.12647451  1
  Zr  Zr45  1  0.38982298  0.20075494  0.23133781  1
  Zr  Zr46  1  0.32299597  0.49817150  0.13007901  1
  Zr  Zr47  1  0.80750102  0.40921160  0.48990089  1
  Zr  Zr48  1  0.01197384  0.58324102  0.50842515  1
  Zr  Zr49  1  0.20257060  0.60152430  0.23891240  1
  Zr  Zr50  1  0.21969411  0.39643818  -0.00183030  1
  Zr  Zr51  1  0.22302228  0.59495516  0.51376672  1
  Zr  Zr52  1  0.70461355  0.30116712  0.87380409  1
  Zr  Zr53  1  0.42023752  0.40891778  -0.01192975  1
  Zr  Zr54  1  0.59982780  -0.00160057  -0.00541670  1
  Zr  Zr55  1  0.58210241  0.00892379  0.48735723  1
  Zr  Zr56  1  0.28323915  0.11120501  0.37017042  1
  Zr  Zr57  1  -0.00657233  0.00147229  0.74241002  1
  Zr  Zr58  1  0.88675120  0.51016678  0.10124694  1
  Zr  Zr59  1  0.28971869  0.08970961  0.87708719  1
  Zr  Zr60  1  0.60749771  0.39229464  0.49647637  1
  Zr  Zr61  1  0.30128246  0.50471279  0.36396370  1
  Zr  Zr62  1  0.91586270  0.89987289  0.87812410  1
  Zr  Zr63  1  0.30378995  0.30747267  0.36313055  1
  Zr  Zr64  1  0.79037089  0.00293412  0.75065067  1
  Zr  Zr65  1  0.09763317  0.68582019  0.37338256  1
  Zr  Zr66  1  0.82147714  0.40742484  0.25052651  1
  Zr  Zr67  1  0.61498704  0.59866804  0.50868971  1
  Zr  Zr68  1  0.00242075  0.59983742  0.75329354  1
  Zr  Zr69  1  0.49510836  0.29648867  0.61986081  1
  Zr  Zr70  1  0.89187326  0.10661485  0.60756765  1
  Zr  Zr71  1  0.39011089  0.40589389  0.76368867  1
  Zr  Zr72  1  0.61963022  0.40654942  0.01673246  1
  Zr  Zr73  1  0.38494294  0.21084263  0.01887525  1
  Zr  Zr74  1  0.49752010  0.70170747  0.11861461  1
  Zr  Zr75  1  0.11344503  0.72010395  0.86917710  1
  Zr  Zr76  1  0.60266021  0.19924812  0.74741465  1
  Zr  Zr77  1  -0.00685663  0.00224632  0.26006634  1
  Zr  Zr78  1  0.89784405  0.49817322  0.89071744  1
  Zr  Zr79  1  0.29298650  0.87777580  0.88192198  1
  Ta  Ta80  1  0.59767007  0.80219095  0.75462953  1
  Ta  Ta81  1  0.20071665  0.80470450  0.25958886  1
  Ta  Ta82  1  0.89514858  0.09834567  0.11980543  1
  Ta  Ta83  1  0.29537916  0.88251963  0.12088849  1
  Ta  Ta84  1  0.39519021  0.79602360  0.74393006  1
  Ta  Ta85  1  0.29729371  0.89406918  0.62286922  1
  Ta  Ta86  1  0.09189574  0.89831032  0.37494225  1
  Ta  Ta87  1  0.49044604  0.89383434  0.62031121  1
  Ta  Ta88  1  0.22399114  0.59741974  0.75268140  1
  Ta  Ta89  1  0.90108620  0.30667315  0.89785103  1
  Ta  Ta90  1  0.88911087  0.71411559  0.10378097  1
  Ta  Ta91  1  0.40576718  0.80003503  0.49127773  1
  Ta  Ta92  1  0.59221674  0.19661267  0.23946810  1
  Ta  Ta93  1  0.88791533  0.89381946  0.61138798  1
  Ta  Ta94  1  0.68866067  0.11256453  0.36950267  1
  Ta  Ta95  1  0.51050688  0.29380653  0.36346315  1
  Ta  Ta96  1  0.20098223  0.20522875  0.50495601  1
  Ta  Ta97  1  0.88590464  0.88219538  0.39492594  1
  Ta  Ta98  1  -0.01055830  0.20189162  0.24558022  1
  Ta  Ta99  1  0.72454958  0.70951326  0.38702980  1
  Ta  Ta100  1  0.08779872  0.09945850  0.11468928  1
  Ta  Ta101  1  0.09393170  0.29345548  0.89808766  1
  Ta  Ta102  1  0.69522284  0.10649896  0.88025055  1
  Ta  Ta103  1  0.50556238  0.49469492  0.36572661  1
  Ta  Ta104  1  0.10223793  0.48361890  0.36376138  1
  Ta  Ta105  1  0.19079811  0.38988030  0.76739116  1
  Ta  Ta106  1  0.69794753  0.10439056  0.60667387  1
  Ta  Ta107  1  0.59410372  0.40952218  0.74660301  1
  Ta  Ta108  1  0.50195037  0.50400123  0.62718196  1
  Ta  Ta109  1  0.78350149  0.20460716  0.01377083  1
  Ta  Ta110  1  0.51960505  0.69800349  0.38658646  1
  Ta  Ta111  1  0.38717094  -0.00785500  0.48316735  1
  Ta  Ta112  1  0.69022091  0.90258937  0.60982111  1
  Ta  Ta113  1  0.28502816  0.30723518  0.62954967  1
  Ta  Ta114  1  0.70552126  0.50396933  0.63870145  1
  Ta  Ta115  1  0.09272728  0.29855949  0.62551866  1
  Ta  Ta116  1  0.70936913  0.29585286  0.35094284  1
  Ta  Ta117  1  0.19320814  0.00167204  0.25550399  1
  Ta  Ta118  1  0.80263988  0.60672275  0.74973537  1
  Ta  Ta119  1  0.80361011  0.19971443  0.74944114  1
  Ti  Ti120  1  -0.00102080  0.38689845  0.48781823  1
  Ti  Ti121  1  0.19321409  0.19929798  0.75205761  1
  Ti  Ti122  1  0.27507079  0.09514081  0.12525813  1
  Ti  Ti123  1  0.90572130  0.29961098  0.62179127  1
  Ti  Ti124  1  0.40698885  0.19616774  0.49000572  1
  Ti  Ti125  1  0.70912031  0.70869570  0.62448520  1
  Ti  Ti126  1  0.20388121  0.38618848  0.23352783  1
  Ti  Ti127  1  0.77881370  0.60561920  -0.00636269  1
  Ti  Ti128  1  0.29233798  0.28838168  0.87765207  1
  Ti  Ti129  1  0.18540067  -0.01726545  0.00104110  1
  Ti  Ti130  1  0.39514332  -0.00977262  0.74958028  1
  Ti  Ti131  1  0.50897611  0.70788890  0.62045265  1
  Ti  Ti132  1  0.51043816  0.30494980  0.87569139  1
  Ti  Ti133  1  0.19644970  -0.01780299  0.75091398  1
  Ti  Ti134  1  0.79113521  0.21524366  0.48954602  1
  Ti  Ti135  1  0.81414005  0.39508056  0.75370360  1
  Ti  Ti136  1  0.80058322  0.62424501  0.24471472  1
  Ti  Ti137  1  0.90475482  0.90031760  0.11393641  1
  Ti  Ti138  1  0.01467154  0.80889737  -0.00485394  1
  Ti  Ti139  1  0.41094574  0.60180019  0.50442362  1
  Ti  Ti140  1  0.90529984  0.69361692  0.88613910  1
  Ti  Ti141  1  0.10866295  0.28646350  0.10996902  1
  Ti  Ti142  1  0.01066093  0.39347355  0.24559333  1
  Ti  Ti143  1  0.00622487  0.19970597  0.49304961  1
  Ti  Ti144  1  0.70824521  0.30709848  0.14653353  1
  Ti  Ti145  1  0.82009569  0.61200807  0.51496317  1
  Ti  Ti146  1  0.49649573  0.70803736  0.87248689  1
  Ti  Ti147  1  0.69574422  0.68346836  0.12281632  1
  Ti  Ti148  1  -0.00749536  -0.00374263  0.49414912  1
  Ti  Ti149  1  0.60621341  0.61192881  0.74841695  1
  Ti  Ti150  1  0.00294858  0.80563234  0.74251776  1
  Ti  Ti151  1  0.49263080  0.89958530  0.87624766  1
  Ti  Ti152  1  0.91063527  0.51019568  0.37687840  1
  Ti  Ti153  1  0.49357732  0.32624943  0.14262902  1
  Ti  Ti154  1  0.09669670  0.90022788  0.62063146  1
  Ti  Ti155  1  0.20657226  0.61453055  -0.00219942  1
  Ti  Ti156  1  0.58597173  -0.00100841  0.26697801  1
  Ti  Ti157  1  0.59192557  0.59376892  -0.00892687  1
  Ti  Ti158  1  0.79629936  0.79621717  -0.02239085  1
  Ti  Ti159  1  0.30684688  0.69829985  0.37783204  1
  Mo  Mo160  1  0.30968931  0.49641858  0.63032460  1
  Mo  Mo161  1  0.40793366  0.40346518  0.25363077  1
  Mo  Mo162  1  0.79604085  0.00404052  0.49828388  1
  Mo  Mo163  1  -0.00488442  0.19500744  0.00407729  1
  Mo  Mo164  1  0.52166734  0.51173206  0.13506851  1
  Mo  Mo165  1  0.29709205  0.70813997  0.12498224  1
  Mo  Mo166  1  0.08895185  0.09632722  0.37667339  1
  Mo  Mo167  1  0.80352428  0.19534564  0.24395570  1
  Mo  Mo168  1  0.18049235  0.19342965  0.23228436  1
  Mo  Mo169  1  0.19926379  0.18826095  0.00506894  1
  Mo  Mo170  1  0.29479056  0.50360106  0.87476875  1
  Mo  Mo171  1  0.60295831  0.40188851  0.24581911  1
  Mo  Mo172  1  0.60306741  0.20722501  0.48861735  1
  Mo  Mo173  1  -0.00398009  -0.00564276  0.00768049  1
  Mo  Mo174  1  0.00630628  0.40131094  0.00357800  1
  Mo  Mo175  1  0.80291556  0.79673639  0.24968622  1
  Mo  Mo176  1  0.69287916  0.89986104  0.86944598  1
  Mo  Mo177  1  0.28900164  0.89550145  0.37647661  1
  Mo  Mo178  1  0.30386868  0.69690390  0.86959928  1
  Mo  Mo179  1  0.90584728  0.30315897  0.37213435  1
  Mo  Mo180  1  0.69938908  0.69718521  0.86783731  1
  Mo  Mo181  1  0.29489998  0.30224338  0.13140912  1
  Mo  Mo182  1  0.51178382  0.50378756  0.86941615  1
  Mo  Mo183  1  0.20592665  0.80307659  0.73658969  1
  Mo  Mo184  1  0.32468605  0.70507934  0.62150814  1
  Mo  Mo185  1  0.61020543  0.60762008  0.25916168  1
  Mo  Mo186  1  0.79646979  0.79404708  0.51473356  1
  Mo  Mo187  1  0.49733373  0.09888828  0.12976674  1
  Mo  Mo188  1  0.40403265  0.80150641  -0.00332143  1
  Mo  Mo189  1  0.10274642  0.90394404  0.87048148  1
  Mo  Mo190  1  0.90042096  0.69942009  0.63714710  1
  Mo  Mo191  1  -0.00286432  0.61800016  -0.00260540  1
  Mo  Mo192  1  0.20633956  0.79519791  0.00712865  1
  Mo  Mo193  1  0.59526744  0.79584068  0.50732565  1
  Mo  Mo194  1  0.79368623  0.39909007  0.00774720  1
  Mo  Mo195  1  0.49523041  0.89564260  0.37849830  1
  Mo  Mo196  1  0.69629714  0.51150596  0.14124899  1
  Mo  Mo197  1  0.00191870  0.39138099  0.75869376  1
  Mo  Mo198  1  0.89552459  0.68929324  0.37819526  1
  Mo  Mo199  1  0.49441826  0.10893783  0.37263497  1
