# generated using pymatgen
data_HfZrTaTiMo
_symmetry_space_group_name_H-M   'P 1'
_cell_length_a   15.20095188
_cell_length_b   15.22181679
_cell_length_c   16.83405781
_cell_angle_alpha   90.08604741
_cell_angle_beta   90.00306618
_cell_angle_gamma   89.98639319
_symmetry_Int_Tables_number   1
_chemical_formula_structural   HfZrTaTiMo
_chemical_formula_sum   'Hf40 Zr40 Ta40 Ti40 Mo40'
_cell_volume   3895.16255348
_cell_formula_units_Z   40
loop_
 _symmetry_equiv_pos_site_id
 _symmetry_equiv_pos_as_xyz
  1  'x, y, z'
loop_
 _atom_site_type_symbol
 _atom_site_label
 _atom_site_symmetry_multiplicity
 _atom_site_fract_x
 _atom_site_fract_y
 _atom_site_fract_z
 _atom_site_occupancy
  Hf  Hf0  1  0.80433799  -0.00166355  0.25099218  1
  Hf  Hf1  1  0.88788284  0.49692649  0.13100971  1
  Hf  Hf2  1  0.47767839  0.88627571  0.37493045  1
  Hf  Hf3  1  0.50384652  0.10496451  0.85478828  1
  Hf  Hf4  1  0.79910465  0.59991215  -0.00213095  1
  Hf  Hf5  1  0.51282409  0.30894696  0.38149331  1
  Hf  Hf6  1  -0.00851019  -0.01599640  0.52036925  1
  Hf  Hf7  1  0.00487262  0.60704401  0.76661261  1
  Hf  Hf8  1  0.41921189  0.80025337  -0.00788776  1
  Hf  Hf9  1  0.08833453  0.08585202  0.87636238  1
  Hf  Hf10  1  0.30907717  0.69499302  0.86392458  1
  Hf  Hf11  1  0.09236145  0.29848127  0.61864709  1
  Hf  Hf12  1  0.30576925  0.09156465  0.63718235  1
  Hf  Hf13  1  0.89043823  0.29297200  0.13036242  1
  Hf  Hf14  1  0.50014545  0.30750341  0.87226355  1
  Hf  Hf15  1  0.90057159  0.71688085  0.87860965  1
  Hf  Hf16  1  0.69030184  0.50956713  0.86964138  1
  Hf  Hf17  1  0.70465910  0.68959268  0.38226993  1
  Hf  Hf18  1  0.89632142  0.49055364  0.87271183  1
  Hf  Hf19  1  0.20269935  0.78412386  -0.00544253  1
  Hf  Hf20  1  0.00295343  0.60675499  0.24110378  1
  Hf  Hf21  1  0.90784263  0.69720612  0.37108086  1
  Hf  Hf22  1  0.20750339  -0.01418537  0.50044777  1
  Hf  Hf23  1  0.20305446  0.40281805  0.25355784  1
  Hf  Hf24  1  0.19696556  0.61765031  0.49639297  1
  Hf  Hf25  1  0.60200419  0.80190910  0.50158452  1
  Hf  Hf26  1  0.09922828  0.50651835  0.62083653  1
  Hf  Hf27  1  0.08778768  0.89823286  0.10514688  1
  Hf  Hf28  1  0.01209522  0.60846163  -0.00132214  1
  Hf  Hf29  1  0.60137633  0.40794933  0.24066448  1
  Hf  Hf30  1  0.50269049  0.31059045  0.10300526  1
  Hf  Hf31  1  0.40890211  0.40988367  0.52164508  1
  Hf  Hf32  1  0.10694049  0.09348686  0.10318543  1
  Hf  Hf33  1  0.40670571  0.59285410  0.73510919  1
  Hf  Hf34  1  0.90788067  0.50709336  0.63617851  1
  Hf  Hf35  1  0.49526497  0.50524366  0.88117939  1
  Hf  Hf36  1  0.10605246  0.49539175  0.12482769  1
  Hf  Hf37  1  -0.01156545  0.19770847  0.50388358  1
  Hf  Hf38  1  0.19169013  0.20271561  0.75089666  1
  Hf  Hf39  1  0.70246686  0.11760839  0.38130484  1
  Zr  Zr40  1  0.89863993  0.91516780  0.88237002  1
  Zr  Zr41  1  0.60574482  -0.01834935  -0.01936073  1
  Zr  Zr42  1  0.87041872  0.29506561  0.35942285  1
  Zr  Zr43  1  0.61484704  0.21231110  0.24527651  1
  Zr  Zr44  1  -0.00184527  0.39391815  0.00060995  1
  Zr  Zr45  1  0.50321933  0.09916576  0.11863306  1
  Zr  Zr46  1  0.90543501  0.07993792  0.37563254  1
  Zr  Zr47  1  0.79097691  -0.00343048  0.52071717  1
  Zr  Zr48  1  0.77274710  0.80304116  0.00239145  1
  Zr  Zr49  1  0.59435229  0.78935778  0.26374727  1
  Zr  Zr50  1  0.80463791  -0.02072409  0.73015965  1
  Zr  Zr51  1  0.20088278  0.40038514  0.74704543  1
  Zr  Zr52  1  0.38662147  0.80735842  0.51549781  1
  Zr  Zr53  1  0.17350225  0.00034348  0.25907957  1
  Zr  Zr54  1  0.40393980  0.00518838  -0.00986907  1
  Zr  Zr55  1  0.60722874  0.39034266  0.51775176  1
  Zr  Zr56  1  0.68717671  0.90509816  0.13044381  1
  Zr  Zr57  1  0.40789897  0.20258906  0.25093702  1
  Zr  Zr58  1  0.30691590  0.50537647  0.12033398  1
  Zr  Zr59  1  0.00768285  0.18620386  0.25209705  1
  Zr  Zr60  1  0.31825557  0.51470675  0.37750536  1
  Zr  Zr61  1  0.29748565  0.10522367  0.86965550  1
  Zr  Zr62  1  0.48764301  0.89415501  0.14057195  1
  Zr  Zr63  1  0.78876924  0.20183467  0.52513648  1
  Zr  Zr64  1  0.30638495  0.30111237  0.38119445  1
  Zr  Zr65  1  0.90411001  0.09419618  0.12170797  1
  Zr  Zr66  1  0.80690159  0.39827175  0.51156156  1
  Zr  Zr67  1  0.59134677  0.00818210  0.27025115  1
  Zr  Zr68  1  0.28145565  0.71459819  0.63742016  1
  Zr  Zr69  1  0.28851580  0.90923448  0.11433577  1
  Zr  Zr70  1  0.20262519  0.40474237  0.50021358  1
  Zr  Zr71  1  0.19375656  -0.02435229  0.75232026  1
  Zr  Zr72  1  0.70206744  0.51191792  0.63935629  1
  Zr  Zr73  1  0.20911369  0.19638416  0.25149274  1
  Zr  Zr74  1  0.79933126  0.79255646  0.24575357  1
  Zr  Zr75  1  0.70709911  0.30607937  0.87444302  1
  Zr  Zr76  1  0.50015277  0.09579063  0.64238826  1
  Zr  Zr77  1  0.69921388  0.48883183  0.37646733  1
  Zr  Zr78  1  0.37431638  0.00496024  0.26746671  1
  Zr  Zr79  1  0.09163679  0.30027088  0.38200303  1
  Ta  Ta80  1  0.61098711  0.19258705  -0.01149264  1
  Ta  Ta81  1  0.11232442  0.70163959  0.13202664  1
  Ta  Ta82  1  0.08529520  0.69809870  0.63064824  1
  Ta  Ta83  1  0.89401188  0.50128644  0.35885162  1
  Ta  Ta84  1  0.49496939  0.67890846  0.38420222  1
  Ta  Ta85  1  0.60228820  0.62129078  0.00111933  1
  Ta  Ta86  1  0.10782727  0.70769002  0.36507292  1
  Ta  Ta87  1  -0.01035704  0.19456615  -0.00830732  1
  Ta  Ta88  1  0.00482321  0.78289794  0.50084805  1
  Ta  Ta89  1  0.19942019  0.59638576  0.75526330  1
  Ta  Ta90  1  0.59379763  0.59289155  0.50897400  1
  Ta  Ta91  1  0.81129353  0.80403699  0.50455419  1
  Ta  Ta92  1  0.09561020  0.09528302  0.62949618  1
  Ta  Ta93  1  0.00062005  0.81679077  0.24629607  1
  Ta  Ta94  1  0.39288750  0.39958394  0.73862618  1
  Ta  Ta95  1  -0.00048343  0.39927200  0.25027465  1
  Ta  Ta96  1  0.89731305  0.90234836  0.10848994  1
  Ta  Ta97  1  0.09117676  0.51245552  0.37298561  1
  Ta  Ta98  1  0.59008764  0.00203161  0.49437190  1
  Ta  Ta99  1  0.81228812  0.60254619  0.50432617  1
  Ta  Ta100  1  0.00376707  0.81622193  0.74992685  1
  Ta  Ta101  1  0.30436314  0.49446019  0.88100171  1
  Ta  Ta102  1  0.20168939  0.80561851  0.24861961  1
  Ta  Ta103  1  0.40559424  0.81226814  0.74572830  1
  Ta  Ta104  1  0.40917274  0.40617093  0.24590596  1
  Ta  Ta105  1  0.30821101  0.71738840  0.37111279  1
  Ta  Ta106  1  0.70827697  0.11249489  0.11730620  1
  Ta  Ta107  1  0.41692423  0.60218548  0.24631610  1
  Ta  Ta108  1  0.90425487  0.70755585  0.12073987  1
  Ta  Ta109  1  0.49855918  0.28760111  0.64302212  1
  Ta  Ta110  1  0.29952351  0.30292359  0.11570336  1
  Ta  Ta111  1  0.10938805  0.49667646  0.88019667  1
  Ta  Ta112  1  0.70606540  0.30920539  0.09970068  1
  Ta  Ta113  1  0.40335505  0.60986714  -0.00014821  1
  Ta  Ta114  1  0.30039786  0.89757255  0.87570771  1
  Ta  Ta115  1  0.70983854  0.09785363  0.85845484  1
  Ta  Ta116  1  0.20468604  0.18951961  0.50552963  1
  Ta  Ta117  1  0.11382463  0.88137647  0.62289563  1
  Ta  Ta118  1  0.40363104  0.19578914  0.50147102  1
  Ta  Ta119  1  0.51899288  0.70493530  0.86091393  1
  Ti  Ti120  1  0.51055842  0.69980248  0.12790908  1
  Ti  Ti121  1  0.10092565  0.29368374  0.12109649  1
  Ti  Ti122  1  0.20395831  0.39402469  -0.00250940  1
  Ti  Ti123  1  0.60192005  -0.01817012  0.75738158  1
  Ti  Ti124  1  0.58889560  0.41342302  0.74258458  1
  Ti  Ti125  1  0.70902437  0.70824392  0.62200448  1
  Ti  Ti126  1  0.69192235  0.29440146  0.64903335  1
  Ti  Ti127  1  0.00552908  0.39370163  0.75767516  1
  Ti  Ti128  1  0.69558550  0.49983340  0.11380328  1
  Ti  Ti129  1  0.62015566  0.80120258  0.74452332  1
  Ti  Ti130  1  0.80279282  0.39866124  0.74717870  1
  Ti  Ti131  1  0.51457679  0.70071338  0.63317492  1
  Ti  Ti132  1  0.90082752  0.10588491  0.85853133  1
  Ti  Ti133  1  0.19942987  0.20388926  -0.00707434  1
  Ti  Ti134  1  0.30105166  0.29230032  0.62402126  1
  Ti  Ti135  1  0.21304450  0.60761296  0.25405722  1
  Ti  Ti136  1  0.71024898  0.90115947  0.38100224  1
  Ti  Ti137  1  0.10238151  0.09572503  0.39068922  1
  Ti  Ti138  1  0.50031420  0.90627839  0.62932247  1
  Ti  Ti139  1  0.08284635  0.89630637  0.38047684  1
  Ti  Ti140  1  0.40186010  0.60378319  0.52050988  1
  Ti  Ti141  1  0.90053438  0.70232694  0.63207827  1
  Ti  Ti142  1  0.79349015  0.61930482  0.75818083  1
  Ti  Ti143  1  0.09380842  0.88538465  0.89062079  1
  Ti  Ti144  1  0.20764881  0.59618067  -0.00406571  1
  Ti  Ti145  1  0.30326845  0.30640346  0.87652305  1
  Ti  Ti146  1  0.29962679  0.10713931  0.11064650  1
  Ti  Ti147  1  0.59425977  0.19400120  0.50789158  1
  Ti  Ti148  1  0.31215722  0.70631762  0.13172008  1
  Ti  Ti149  1  0.90460005  0.29943504  0.63924272  1
  Ti  Ti150  1  0.89939351  0.29192909  0.87024737  1
  Ti  Ti151  1  0.09574104  0.29599224  0.87841971  1
  Ti  Ti152  1  0.39878953  0.00784700  0.49137083  1
  Ti  Ti153  1  0.80686989  0.19559885  0.73981507  1
  Ti  Ti154  1  -0.00770021  0.41270704  0.49091928  1
  Ti  Ti155  1  0.79680899  0.02021130  -0.00824790  1
  Ti  Ti156  1  0.39925502  0.20804322  -0.00588753  1
  Ti  Ti157  1  0.60785784  0.59730991  0.24570488  1
  Ti  Ti158  1  0.68634327  0.09608427  0.64146469  1
  Ti  Ti159  1  0.50267387  0.50430755  0.10676712  1
  Mo  Mo160  1  -0.00562205  0.79355819  0.00579861  1
  Mo  Mo161  1  0.68779868  0.89445124  0.61667204  1
  Mo  Mo162  1  0.69668994  0.29902997  0.37931244  1
  Mo  Mo163  1  0.29548753  0.10249561  0.38808881  1
  Mo  Mo164  1  0.39110405  0.78712402  0.24891800  1
  Mo  Mo165  1  -0.00555130  0.59693254  0.49451331  1
  Mo  Mo166  1  0.39312473  0.40256848  -0.00375564  1
  Mo  Mo167  1  0.60251267  0.61121618  0.74225758  1
  Mo  Mo168  1  0.80014702  0.40065886  -0.00511366  1
  Mo  Mo169  1  0.50317602  0.50628497  0.37646514  1
  Mo  Mo170  1  0.39290671  0.21226784  0.75275207  1
  Mo  Mo171  1  -0.00834454  0.00273047  -0.00959316  1
  Mo  Mo172  1  0.20071148  -0.00413268  -0.01553398  1
  Mo  Mo173  1  0.50157708  0.89298892  0.85784759  1
  Mo  Mo174  1  0.29563389  0.50372830  0.62392432  1
  Mo  Mo175  1  -0.00054111  0.20466788  0.75288803  1
  Mo  Mo176  1  0.90946332  0.87944944  0.62591461  1
  Mo  Mo177  1  0.19187165  0.78986148  0.76455136  1
  Mo  Mo178  1  0.89997803  0.88853361  0.37929191  1
  Mo  Mo179  1  -0.00210279  -0.01058451  0.24773717  1
  Mo  Mo180  1  0.79290158  0.59489184  0.23887244  1
  Mo  Mo181  1  0.60271829  0.41139240  -0.00036110  1
  Mo  Mo182  1  0.90797771  0.10487944  0.63926630  1
  Mo  Mo183  1  0.79242173  0.19741782  0.24342740  1
  Mo  Mo184  1  0.69993087  0.70466328  0.86750322  1
  Mo  Mo185  1  0.50199894  0.50023008  0.63140255  1
  Mo  Mo186  1  0.49630322  0.10391669  0.38879800  1
  Mo  Mo187  1  0.78913875  0.39940247  0.24187717  1
  Mo  Mo188  1  0.70035068  0.68564647  0.13078892  1
  Mo  Mo189  1  0.80211131  0.19656061  -0.01368643  1
  Mo  Mo190  1  0.00154602  0.00217982  0.73311905  1
  Mo  Mo191  1  0.18956092  0.80060869  0.49423851  1
  Mo  Mo192  1  0.28156479  0.89463739  0.37440837  1
  Mo  Mo193  1  0.30685644  0.90385830  0.63219795  1
  Mo  Mo194  1  0.40253665  -0.00780704  0.75795695  1
  Mo  Mo195  1  0.80402080  0.79444969  0.74398870  1
  Mo  Mo196  1  0.59308959  0.79279925  -0.00168698  1
  Mo  Mo197  1  0.69871101  0.89433312  0.86672466  1
  Mo  Mo198  1  0.60925362  0.20225870  0.75743843  1
  Mo  Mo199  1  0.10604086  0.69890597  0.87367288  1
