# generated using pymatgen
data_HfZrTaTiMo
_symmetry_space_group_name_H-M   'P 1'
_cell_length_a   15.22192205
_cell_length_b   15.22576253
_cell_length_c   16.85712925
_cell_angle_alpha   90.03960064
_cell_angle_beta   90.00291045
_cell_angle_gamma   90.06256221
_symmetry_Int_Tables_number   1
_chemical_formula_structural   HfZrTaTiMo
_chemical_formula_sum   'Hf40 Zr40 Ta40 Ti40 Mo40'
_cell_volume   3906.89553893
_cell_formula_units_Z   40
loop_
 _symmetry_equiv_pos_site_id
 _symmetry_equiv_pos_as_xyz
  1  'x, y, z'
loop_
 _atom_site_type_symbol
 _atom_site_label
 _atom_site_symmetry_multiplicity
 _atom_site_fract_x
 _atom_site_fract_y
 _atom_site_fract_z
 _atom_site_occupancy
  Hf  Hf0  1  0.30353132  0.90644610  0.13838872  1
  Hf  Hf1  1  0.79970652  -0.01092642  0.24264990  1
  Hf  Hf2  1  0.52999164  0.70884417  0.63100252  1
  Hf  Hf3  1  0.70744941  0.70460204  0.86740127  1
  Hf  Hf4  1  0.82416558  0.60298007  -0.00605911  1
  Hf  Hf5  1  0.10901528  0.70086342  0.61698702  1
  Hf  Hf6  1  0.68533270  0.09540283  0.14074671  1
  Hf  Hf7  1  0.39396214  0.01310556  0.49036817  1
  Hf  Hf8  1  0.79760493  0.81638987  0.01584687  1
  Hf  Hf9  1  0.50075757  0.69298722  0.12827574  1
  Hf  Hf10  1  -0.01194673  0.77861091  -0.00605811  1
  Hf  Hf11  1  0.60607803  0.61518263  0.49704309  1
  Hf  Hf12  1  0.19602492  0.20336663  -0.00075644  1
  Hf  Hf13  1  0.30025713  0.10721303  0.35829162  1
  Hf  Hf14  1  0.41446904  0.00732603  0.00914541  1
  Hf  Hf15  1  -0.01893594  -0.00479507  -0.01656096  1
  Hf  Hf16  1  0.20980979  0.58519828  0.01041343  1
  Hf  Hf17  1  0.40221079  0.60188893  0.73424080  1
  Hf  Hf18  1  0.79086430  -0.00065010  0.75049528  1
  Hf  Hf19  1  0.50368984  0.12106310  0.35795425  1
  Hf  Hf20  1  0.30997810  0.10735179  0.87109708  1
  Hf  Hf21  1  0.50813680  0.70667808  0.87489949  1
  Hf  Hf22  1  0.09152935  0.30174235  0.13481011  1
  Hf  Hf23  1  0.80697273  0.79523599  0.23459110  1
  Hf  Hf24  1  -0.00627190  0.60150755  0.49166074  1
  Hf  Hf25  1  0.88646614  0.49673681  0.37709356  1
  Hf  Hf26  1  0.10816332  0.30282122  0.61778306  1
  Hf  Hf27  1  0.40596296  0.80750051  0.74356971  1
  Hf  Hf28  1  0.69801424  0.50491655  0.64003688  1
  Hf  Hf29  1  0.29922024  0.10541721  0.14453305  1
  Hf  Hf30  1  0.89988400  0.49215031  0.62322134  1
  Hf  Hf31  1  0.69086946  0.87754298  0.63296667  1
  Hf  Hf32  1  0.28740346  0.90414483  0.36296340  1
  Hf  Hf33  1  0.90738014  0.09589271  0.12247100  1
  Hf  Hf34  1  0.67971913  0.49378179  0.36671222  1
  Hf  Hf35  1  0.29874332  0.31119981  0.13001912  1
  Hf  Hf36  1  0.10156940  0.70891693  0.38411061  1
  Hf  Hf37  1  0.58672549  0.20072020  0.01566036  1
  Hf  Hf38  1  0.40907022  0.58886411  0.50115613  1
  Hf  Hf39  1  0.60884162  0.00632013  0.48738940  1
  Zr  Zr40  1  0.50080394  0.91270647  0.61247060  1
  Zr  Zr41  1  0.78963444  0.19140428  0.00814439  1
  Zr  Zr42  1  -0.00559192  0.21839079  -0.00586703  1
  Zr  Zr43  1  0.09265194  0.90619628  0.63540323  1
  Zr  Zr44  1  0.88302931  0.11900893  0.86020912  1
  Zr  Zr45  1  0.18419110  0.79204763  0.23935418  1
  Zr  Zr46  1  0.41209456  0.79428222  0.49077411  1
  Zr  Zr47  1  0.30970780  0.69830676  0.88361868  1
  Zr  Zr48  1  0.50162190  0.49969169  0.87385675  1
  Zr  Zr49  1  0.79630743  0.18635693  0.49663282  1
  Zr  Zr50  1  0.21391892  0.41879875  0.26884391  1
  Zr  Zr51  1  0.69141893  0.90325342  0.87294823  1
  Zr  Zr52  1  0.69753052  0.10468753  0.62691097  1
  Zr  Zr53  1  0.09933515  0.67793450  0.87607262  1
  Zr  Zr54  1  0.77964413  0.79083710  0.50017829  1
  Zr  Zr55  1  0.29323548  0.90677807  0.62591685  1
  Zr  Zr56  1  0.19896891  0.79506343  0.00867316  1
  Zr  Zr57  1  0.10880664  0.09924125  0.64249267  1
  Zr  Zr58  1  0.20372729  0.59784936  0.73546413  1
  Zr  Zr59  1  0.59394323  0.38041710  0.74536744  1
  Zr  Zr60  1  0.89266327  0.69939669  0.63172046  1
  Zr  Zr61  1  0.00792663  0.60322105  0.26243496  1
  Zr  Zr62  1  0.78556530  0.38826410  0.50443258  1
  Zr  Zr63  1  0.19840952  0.00432943  -0.00067901  1
  Zr  Zr64  1  0.70823005  0.49069858  0.87181688  1
  Zr  Zr65  1  0.30432992  0.90257350  0.87598933  1
  Zr  Zr66  1  -0.00262959  0.19026097  0.50304000  1
  Zr  Zr67  1  0.29918009  0.49594411  0.86959418  1
  Zr  Zr68  1  0.69834124  0.68517940  0.12390676  1
  Zr  Zr69  1  0.29737841  0.68476200  0.37806727  1
  Zr  Zr70  1  0.79856530  0.20366293  0.24704086  1
  Zr  Zr71  1  0.29727867  0.47774741  0.60900578  1
  Zr  Zr72  1  0.10157403  0.10502473  0.85672331  1
  Zr  Zr73  1  0.69911493  0.28120389  0.87030679  1
  Zr  Zr74  1  0.00023069  0.40290059  0.26634880  1
  Zr  Zr75  1  0.08336141  0.90157748  0.11891822  1
  Zr  Zr76  1  -0.00875232  0.81239853  0.50302701  1
  Zr  Zr77  1  0.10752223  0.29634246  0.38451094  1
  Zr  Zr78  1  0.09799651  0.09160967  0.36619768  1
  Zr  Zr79  1  0.40065173  0.78847706  0.25211604  1
  Ta  Ta80  1  0.18578647  0.39780246  -0.00268943  1
  Ta  Ta81  1  0.91032526  0.50344625  0.12505952  1
  Ta  Ta82  1  0.61112475  0.00205462  0.00601437  1
  Ta  Ta83  1  0.90016696  0.89856866  0.37530927  1
  Ta  Ta84  1  0.19338198  0.00597727  0.49821391  1
  Ta  Ta85  1  0.59371942  0.80956040  0.01111219  1
  Ta  Ta86  1  0.08700796  0.31339896  0.86409868  1
  Ta  Ta87  1  0.89209821  0.29348950  0.37329254  1
  Ta  Ta88  1  -0.00598462  -0.00744285  0.76350720  1
  Ta  Ta89  1  0.20207655  0.79817977  0.74977761  1
  Ta  Ta90  1  0.10136319  0.10126741  0.13803911  1
  Ta  Ta91  1  0.81740914  0.59276732  0.76414454  1
  Ta  Ta92  1  0.40697115  0.80203317  0.01334887  1
  Ta  Ta93  1  0.21375394  0.21741386  0.75044592  1
  Ta  Ta94  1  0.89492518  0.31089473  0.13096281  1
  Ta  Ta95  1  0.41988071  0.39379357  0.24723220  1
  Ta  Ta96  1  0.92746718  0.48863442  0.87460827  1
  Ta  Ta97  1  0.58757335  0.40684867  0.50984447  1
  Ta  Ta98  1  -0.00425597  -0.00951581  0.24962512  1
  Ta  Ta99  1  0.79185880  0.59752756  0.49882225  1
  Ta  Ta100  1  0.40206122  0.01336037  0.74990884  1
  Ta  Ta101  1  0.80102014  0.59011533  0.24311825  1
  Ta  Ta102  1  0.49757373  0.11270880  0.62138688  1
  Ta  Ta103  1  0.39414137  0.41101314  0.00760454  1
  Ta  Ta104  1  0.30522601  0.10940019  0.63128804  1
  Ta  Ta105  1  0.41295330  0.20891922  0.75207837  1
  Ta  Ta106  1  0.60479272  0.80528090  0.25161500  1
  Ta  Ta107  1  0.10003781  0.89253645  0.86691318  1
  Ta  Ta108  1  0.59035962  0.23867645  0.23441158  1
  Ta  Ta109  1  0.70446695  0.90167914  0.36967780  1
  Ta  Ta110  1  -0.00383527  0.39489561  0.49283587  1
  Ta  Ta111  1  0.09956257  0.49578709  0.60222507  1
  Ta  Ta112  1  0.81425022  0.39419864  -0.00049857  1
  Ta  Ta113  1  0.39665650  0.20785361  0.00512360  1
  Ta  Ta114  1  0.58721541  0.00472210  0.75164006  1
  Ta  Ta115  1  0.90675071  0.09907566  0.64377593  1
  Ta  Ta116  1  -0.00250871  0.78843709  0.75783636  1
  Ta  Ta117  1  0.69842921  0.69452446  0.35781416  1
  Ta  Ta118  1  0.40359868  0.57878372  0.25841846  1
  Ta  Ta119  1  0.50172588  0.90863784  0.36275516  1
  Ti  Ti120  1  0.19351885  0.40264825  0.74705077  1
  Ti  Ti121  1  -0.00861511  0.79939900  0.24434021  1
  Ti  Ti122  1  0.40587726  0.21118334  0.49936321  1
  Ti  Ti123  1  -0.00427586  0.00209110  0.50294161  1
  Ti  Ti124  1  0.49371552  0.30013107  0.62125834  1
  Ti  Ti125  1  0.89628210  0.90139800  0.63663706  1
  Ti  Ti126  1  0.69781845  0.10416113  0.35974678  1
  Ti  Ti127  1  0.60047044  0.59793942  -0.00351265  1
  Ti  Ti128  1  0.38690116  0.38961153  0.74606503  1
  Ti  Ti129  1  0.50280716  0.49720017  0.63214581  1
  Ti  Ti130  1  0.89515071  0.08947918  0.37237011  1
  Ti  Ti131  1  0.49858379  0.90599137  0.87938652  1
  Ti  Ti132  1  0.29707466  0.30514086  0.88024098  1
  Ti  Ti133  1  0.69360470  0.30012369  0.37016973  1
  Ti  Ti134  1  0.10695977  0.49311299  0.12919074  1
  Ti  Ti135  1  -0.00651813  0.19695678  0.25525112  1
  Ti  Ti136  1  0.60173932  0.21580638  0.49982716  1
  Ti  Ti137  1  0.88658305  0.29110458  0.63433009  1
  Ti  Ti138  1  0.50931775  0.32162084  0.37668075  1
  Ti  Ti139  1  0.20637947  0.59938342  0.24591374  1
  Ti  Ti140  1  0.78839648  0.39617763  0.24315703  1
  Ti  Ti141  1  0.21643251  0.19858354  0.50242362  1
  Ti  Ti142  1  0.01104106  0.58753362  0.74440218  1
  Ti  Ti143  1  0.70479421  0.49030893  0.11882520  1
  Ti  Ti144  1  0.88945027  0.88298902  0.86779335  1
  Ti  Ti145  1  0.51270852  0.10623183  0.87671118  1
  Ti  Ti146  1  0.80888951  -0.00770097  0.50431639  1
  Ti  Ti147  1  0.08254494  0.68125036  0.12046377  1
  Ti  Ti148  1  0.48963568  0.30058572  0.88370246  1
  Ti  Ti149  1  0.60241449  0.39532573  0.00448543  1
  Ti  Ti150  1  0.31738213  0.30530386  0.37783709  1
  Ti  Ti151  1  0.50995090  0.91301639  0.14241661  1
  Ti  Ti152  1  -0.00209037  0.39522087  0.73983963  1
  Ti  Ti153  1  0.19759818  0.21192095  0.25370109  1
  Ti  Ti154  1  0.20729626  0.80546843  0.50325101  1
  Ti  Ti155  1  0.50303999  0.49954546  0.12034402  1
  Ti  Ti156  1  0.09401845  0.90347791  0.37439844  1
  Ti  Ti157  1  0.48861727  0.10679919  0.15008251  1
  Ti  Ti158  1  0.30767777  0.68459162  0.12430258  1
  Ti  Ti159  1  0.88904892  0.70370536  0.37338234  1
  Mo  Mo160  1  0.89429656  0.31242350  0.86233567  1
  Mo  Mo161  1  0.68926555  0.29784804  0.62723204  1
  Mo  Mo162  1  0.39911511  0.21785111  0.25156836  1
  Mo  Mo163  1  0.00117828  0.40434368  0.00473992  1
  Mo  Mo164  1  0.49574649  0.30923121  0.11322733  1
  Mo  Mo165  1  0.90497604  0.69066137  0.86620401  1
  Mo  Mo166  1  0.11194881  0.50713403  0.40168019  1
  Mo  Mo167  1  0.40981141  0.38769428  0.49955472  1
  Mo  Mo168  1  0.10664805  0.48791337  0.86812706  1
  Mo  Mo169  1  0.60115120  0.00778428  0.26135522  1
  Mo  Mo170  1  0.90748213  0.69070346  0.12939316  1
  Mo  Mo171  1  0.70062430  0.31340331  0.11713665  1
  Mo  Mo172  1  0.70848176  0.68594870  0.65531718  1
  Mo  Mo173  1  0.68643205  0.09648756  0.87359823  1
  Mo  Mo174  1  0.59628018  0.80734676  0.46813110  1
  Mo  Mo175  1  0.60301987  0.59908641  0.75526553  1
  Mo  Mo176  1  0.59592260  0.59588732  0.24731652  1
  Mo  Mo177  1  0.01199911  0.57852517  0.00430925  1
  Mo  Mo178  1  0.80798737  0.79987452  0.75227399  1
  Mo  Mo179  1  0.51176184  0.69257186  0.35926081  1
  Mo  Mo180  1  0.90087209  0.90090832  0.12075509  1
  Mo  Mo181  1  0.30527771  0.70495355  0.61376466  1
  Mo  Mo182  1  0.20492644  0.39491221  0.48708294  1
  Mo  Mo183  1  0.79275548  0.00115812  0.00446783  1
  Mo  Mo184  1  0.49507874  0.49787537  0.37565810  1
  Mo  Mo185  1  0.20323417  0.60166522  0.50490742  1
  Mo  Mo186  1  0.68757050  0.89891516  0.12932189  1
  Mo  Mo187  1  0.30517692  0.28746105  0.62280985  1
  Mo  Mo188  1  -0.00102016  0.21013285  0.74340589  1
  Mo  Mo189  1  0.80993415  0.39487499  0.74985922  1
  Mo  Mo190  1  0.20560015  0.00076361  0.75802433  1
  Mo  Mo191  1  0.40288118  0.00210537  0.25354026  1
  Mo  Mo192  1  0.18905221  0.00110567  0.24854111  1
  Mo  Mo193  1  0.58830650  0.18941263  0.74959436  1
  Mo  Mo194  1  0.41070820  0.60107628  0.00551211  1
  Mo  Mo195  1  0.30934897  0.50249564  0.12675765  1
  Mo  Mo196  1  0.79142747  0.20815343  0.74064095  1
  Mo  Mo197  1  0.60064707  0.41558751  0.23791476  1
  Mo  Mo198  1  0.30755831  0.48903768  0.38816676  1
  Mo  Mo199  1  0.59885115  0.80919297  0.75677154  1
