# generated using pymatgen
data_HfZrTaTiMo
_symmetry_space_group_name_H-M   'P 1'
_cell_length_a   15.19839265
_cell_length_b   15.17321946
_cell_length_c   16.79467572
_cell_angle_alpha   90.04189584
_cell_angle_beta   89.94834066
_cell_angle_gamma   90.06735852
_symmetry_Int_Tables_number   1
_chemical_formula_structural   HfZrTaTiMo
_chemical_formula_sum   'Hf40 Zr40 Ta40 Ti40 Mo40'
_cell_volume   3872.99048294
_cell_formula_units_Z   40
loop_
 _symmetry_equiv_pos_site_id
 _symmetry_equiv_pos_as_xyz
  1  'x, y, z'
loop_
 _atom_site_type_symbol
 _atom_site_label
 _atom_site_symmetry_multiplicity
 _atom_site_fract_x
 _atom_site_fract_y
 _atom_site_fract_z
 _atom_site_occupancy
  Hf  Hf0  1  0.48437929  0.09680682  0.62060298  1
  Hf  Hf1  1  0.60165123  0.59025109  0.24611006  1
  Hf  Hf2  1  0.89740499  0.49910426  0.87659465  1
  Hf  Hf3  1  0.00033833  0.17337777  0.73261878  1
  Hf  Hf4  1  0.29585810  0.89957011  0.11172498  1
  Hf  Hf5  1  0.90344999  0.89827168  0.12760436  1
  Hf  Hf6  1  0.31460897  0.48474611  0.11876798  1
  Hf  Hf7  1  0.59309198  0.01217798  0.75143232  1
  Hf  Hf8  1  0.37500965  0.19521978  0.26659287  1
  Hf  Hf9  1  0.30380339  0.29180669  0.62057807  1
  Hf  Hf10  1  0.00723265  0.80558016  -0.00432826  1
  Hf  Hf11  1  0.22538297  0.80880965  0.49625138  1
  Hf  Hf12  1  0.20073103  0.39694918  0.76494153  1
  Hf  Hf13  1  0.90700879  0.10014312  0.14151802  1
  Hf  Hf14  1  0.80403463  0.00743745  0.00065380  1
  Hf  Hf15  1  0.02498247  0.80846789  0.74645992  1
  Hf  Hf16  1  0.40401381  0.19499935  0.75661422  1
  Hf  Hf17  1  0.39498684  0.78874368  -0.01766267  1
  Hf  Hf18  1  0.17282413  -0.01068931  0.74663122  1
  Hf  Hf19  1  0.91346564  0.90966780  0.87016195  1
  Hf  Hf20  1  0.80376728  0.80651611  0.51582796  1
  Hf  Hf21  1  0.69216401  0.10869633  0.11953484  1
  Hf  Hf22  1  0.20384346  0.18424307  0.74374644  1
  Hf  Hf23  1  -0.00279593  0.59549488  0.25140434  1
  Hf  Hf24  1  0.10779434  0.30438060  0.15008767  1
  Hf  Hf25  1  0.70416194  0.10799954  0.87643983  1
  Hf  Hf26  1  0.20175065  0.38401295  -0.00664413  1
  Hf  Hf27  1  0.68868488  0.70636979  0.65052014  1
  Hf  Hf28  1  0.09742425  0.27458019  0.87422773  1
  Hf  Hf29  1  0.79642376  0.79950786  -0.01593239  1
  Hf  Hf30  1  0.78815657  0.41279401  0.25048243  1
  Hf  Hf31  1  0.81653863  0.81100852  0.74791375  1
  Hf  Hf32  1  0.29707070  0.49641760  0.62684919  1
  Hf  Hf33  1  0.49110244  0.31638261  0.11398520  1
  Hf  Hf34  1  0.90314465  0.48718681  0.38242217  1
  Hf  Hf35  1  0.90493313  0.10382482  0.36560068  1
  Hf  Hf36  1  0.10241711  0.69977070  0.38456520  1
  Hf  Hf37  1  0.70075314  0.91027555  0.63418526  1
  Hf  Hf38  1  0.90388519  0.30725828  0.13150738  1
  Hf  Hf39  1  0.11359250  0.48441747  0.37420559  1
  Zr  Zr40  1  0.59946902  0.60545513  0.52022231  1
  Zr  Zr41  1  0.00486683  0.59964496  0.74179609  1
  Zr  Zr42  1  -0.00071878  0.39263664  0.74964759  1
  Zr  Zr43  1  0.59996471  0.00302445  0.24761528  1
  Zr  Zr44  1  0.70258515  0.50722349  0.38813939  1
  Zr  Zr45  1  0.90488768  0.69302238  0.11189277  1
  Zr  Zr46  1  0.40103885  0.79591332  0.23606624  1
  Zr  Zr47  1  0.69922341  0.90124712  0.38262395  1
  Zr  Zr48  1  0.00211945  0.59635691  0.50804796  1
  Zr  Zr49  1  0.91380094  0.10502982  0.87655711  1
  Zr  Zr50  1  0.21166709  0.59298458  0.24708997  1
  Zr  Zr51  1  0.80213867  0.80117234  0.25144962  1
  Zr  Zr52  1  0.58970214  -0.01217209  0.51016947  1
  Zr  Zr53  1  0.40578394  0.61619380  0.51765356  1
  Zr  Zr54  1  -0.00893128  0.18335246  0.50762353  1
  Zr  Zr55  1  0.21572247  0.00078534  0.26383689  1
  Zr  Zr56  1  0.10496511  0.29776958  0.62181627  1
  Zr  Zr57  1  0.69183472  0.31141302  0.12271186  1
  Zr  Zr58  1  0.69407629  0.90306477  0.11400659  1
  Zr  Zr59  1  0.09773331  0.49825045  0.11673605  1
  Zr  Zr60  1  0.49001337  0.11345661  0.11148152  1
  Zr  Zr61  1  0.78878581  0.20862023  0.25899187  1
  Zr  Zr62  1  0.48677728  0.07936604  0.38445063  1
  Zr  Zr63  1  0.41239017  0.39441993  0.26186850  1
  Zr  Zr64  1  0.58892473  0.21298360  0.50064247  1
  Zr  Zr65  1  0.01530887  0.19506396  0.01298904  1
  Zr  Zr66  1  0.38067657  0.00072888  0.76041136  1
  Zr  Zr67  1  0.11120926  0.70153968  0.11753227  1
  Zr  Zr68  1  0.40335479  0.39901819  0.49876840  1
  Zr  Zr69  1  0.40766828  -0.00872651  0.23902100  1
  Zr  Zr70  1  0.79099989  0.39076744  0.75005516  1
  Zr  Zr71  1  0.31127537  0.69786581  0.37278735  1
  Zr  Zr72  1  0.50438349  0.68635262  0.10362967  1
  Zr  Zr73  1  0.19677459  0.59856199  0.75230911  1
  Zr  Zr74  1  0.07401484  0.29568819  0.35686971  1
  Zr  Zr75  1  0.89865469  0.70185649  0.38770332  1
  Zr  Zr76  1  0.69784082  0.70239667  0.38045850  1
  Zr  Zr77  1  0.59748932  0.42600603  -0.01313512  1
  Zr  Zr78  1  0.69637173  0.10734923  0.38178877  1
  Zr  Zr79  1  0.69738292  0.70045605  0.11090377  1
  Ta  Ta80  1  0.50740270  0.30628726  0.86670953  1
  Ta  Ta81  1  0.38758417  0.61758796  0.75297000  1
  Ta  Ta82  1  0.41064390  0.59219044  0.24671705  1
  Ta  Ta83  1  0.38653705  0.19374987  0.48822449  1
  Ta  Ta84  1  0.70239007  0.11252860  0.62248825  1
  Ta  Ta85  1  0.09763349  0.50275817  0.88966070  1
  Ta  Ta86  1  0.11724689  0.71159880  0.61438314  1
  Ta  Ta87  1  0.10561933  0.70119206  0.88230849  1
  Ta  Ta88  1  0.50732843  0.89988197  0.09138689  1
  Ta  Ta89  1  0.10254489  0.90429351  0.13151267  1
  Ta  Ta90  1  0.38846882  0.01069797  -0.00660506  1
  Ta  Ta91  1  0.50719452  0.50111609  0.38121448  1
  Ta  Ta92  1  0.00843576  -0.01060425  0.25954745  1
  Ta  Ta93  1  0.20776971  0.59458784  0.50512639  1
  Ta  Ta94  1  0.50448530  0.70076996  0.37324962  1
  Ta  Ta95  1  0.89010653  0.50083411  0.11016381  1
  Ta  Ta96  1  0.81197953  0.01190199  0.50677608  1
  Ta  Ta97  1  -0.00614797  0.39609732  -0.00481379  1
  Ta  Ta98  1  0.89651828  0.49396667  0.62135570  1
  Ta  Ta99  1  0.49669482  0.50726576  0.85002124  1
  Ta  Ta100  1  0.70190856  0.69956822  0.85946702  1
  Ta  Ta101  1  0.50139473  0.90946609  0.88522229  1
  Ta  Ta102  1  0.19984452  0.80622136  0.25704547  1
  Ta  Ta103  1  0.90873311  0.70491753  0.62447085  1
  Ta  Ta104  1  0.58997940  0.80243876  0.24569620  1
  Ta  Ta105  1  0.80323941  0.60022939  0.24417260  1
  Ta  Ta106  1  0.59713561  0.40840963  0.51760221  1
  Ta  Ta107  1  0.50071116  0.50297960  0.65108070  1
  Ta  Ta108  1  0.11650828  0.10308320  0.14494823  1
  Ta  Ta109  1  0.89393973  0.29401257  0.87810329  1
  Ta  Ta110  1  0.57813345  0.22061294  0.26094040  1
  Ta  Ta111  1  0.78803558  0.59174243  -0.01549358  1
  Ta  Ta112  1  0.49088082  0.88023845  0.64415657  1
  Ta  Ta113  1  0.60690228  0.20988978  0.75190379  1
  Ta  Ta114  1  0.22091783  0.79260253  0.75443540  1
  Ta  Ta115  1  0.90687995  0.69498754  0.87429491  1
  Ta  Ta116  1  0.60083893  0.21408197  -0.01340316  1
  Ta  Ta117  1  0.19359967  0.20208701  0.48621949  1
  Ta  Ta118  1  0.00917705  0.80050631  0.25381868  1
  Ta  Ta119  1  -0.00639587  0.38755118  0.50523637  1
  Ti  Ti120  1  0.69570227  0.90600182  0.87016282  1
  Ti  Ti121  1  0.79714306  0.60164212  0.51975088  1
  Ti  Ti122  1  0.49653245  0.10717553  0.88730215  1
  Ti  Ti123  1  0.79996926  0.20110362  0.74755269  1
  Ti  Ti124  1  0.30574008  0.49616765  0.38043309  1
  Ti  Ti125  1  0.80025106  -0.00449093  0.25364625  1
  Ti  Ti126  1  0.39935069  0.40078329  -0.01983087  1
  Ti  Ti127  1  0.49898193  0.30426355  0.63648158  1
  Ti  Ti128  1  0.69811587  0.49989531  0.63954701  1
  Ti  Ti129  1  0.79698010  0.21168344  0.49670735  1
  Ti  Ti130  1  0.18825313  0.00551769  0.00060800  1
  Ti  Ti131  1  0.30549913  0.29052560  0.87869625  1
  Ti  Ti132  1  0.50585986  0.70750594  0.85783071  1
  Ti  Ti133  1  0.00990391  0.00174621  0.00839795  1
  Ti  Ti134  1  0.20016582  0.80093660  -0.00635798  1
  Ti  Ti135  1  0.28315267  0.08701980  0.60672325  1
  Ti  Ti136  1  0.92805359  0.91491415  0.61830787  1
  Ti  Ti137  1  0.28836374  0.90212341  0.88054672  1
  Ti  Ti138  1  0.58842645  0.79521438  0.51041834  1
  Ti  Ti139  1  0.79463867  0.40084571  0.50960641  1
  Ti  Ti140  1  0.80830560  0.59966918  0.74602439  1
  Ti  Ti141  1  0.81237317  0.01377854  0.73989557  1
  Ti  Ti142  1  0.69161444  0.50139993  0.85520515  1
  Ti  Ti143  1  0.39319687  0.39974621  0.75756576  1
  Ti  Ti144  1  0.69515520  0.30378117  0.62352188  1
  Ti  Ti145  1  0.30264331  0.69036563  0.11924927  1
  Ti  Ti146  1  0.89041908  0.29392826  0.62336878  1
  Ti  Ti147  1  0.21501711  0.59717511  -0.01069806  1
  Ti  Ti148  1  0.91055755  0.89826228  0.38586056  1
  Ti  Ti149  1  0.10106051  0.09617407  0.37021988  1
  Ti  Ti150  1  0.79230950  0.39619697  -0.00962199  1
  Ti  Ti151  1  0.68552789  0.31795727  0.38031357  1
  Ti  Ti152  1  0.68929185  0.50863181  0.11480281  1
  Ti  Ti153  1  0.10143192  0.49333083  0.61593075  1
  Ti  Ti154  1  0.40946124  0.58740490  -0.01979591  1
  Ti  Ti155  1  0.30045201  0.89485599  0.62931622  1
  Ti  Ti156  1  0.28248014  0.10475433  0.88679418  1
  Ti  Ti157  1  0.29806621  0.27496563  0.12048987  1
  Ti  Ti158  1  0.80444785  0.20869839  0.00242259  1
  Ti  Ti159  1  0.10345117  0.89854651  0.38731914  1
  Mo  Mo160  1  0.60136817  0.80281481  -0.02741851  1
  Mo  Mo161  1  0.22736888  0.38665656  0.25290637  1
  Mo  Mo162  1  0.49960716  0.30027583  0.38414328  1
  Mo  Mo163  1  0.39784141  0.21020701  -0.01507527  1
  Mo  Mo164  1  0.38632558  -0.02048037  0.50808478  1
  Mo  Mo165  1  0.49559760  0.70781081  0.65180586  1
  Mo  Mo166  1  0.20693823  0.18972302  0.00493508  1
  Mo  Mo167  1  -0.00692288  -0.00894539  0.74274066  1
  Mo  Mo168  1  0.20099539  0.19816076  0.26496416  1
  Mo  Mo169  1  0.87994453  0.30198707  0.38388446  1
  Mo  Mo170  1  0.11200904  0.90010828  0.60966903  1
  Mo  Mo171  1  -0.00043425  0.59622986  -0.00877047  1
  Mo  Mo172  1  0.30194011  0.49562938  0.87759954  1
  Mo  Mo173  1  0.59938693  0.60597487  -0.02986872  1
  Mo  Mo174  1  0.41804228  0.80762219  0.50370888  1
  Mo  Mo175  1  0.59750441  0.00992116  -0.01126547  1
  Mo  Mo176  1  0.10607371  0.90145141  0.88232686  1
  Mo  Mo177  1  0.19892669  0.00485278  0.49177419  1
  Mo  Mo178  1  0.60151140  0.60118285  0.75511981  1
  Mo  Mo179  1  0.88757897  0.09835970  0.62141251  1
  Mo  Mo180  1  0.32019072  0.90333027  0.37919196  1
  Mo  Mo181  1  0.39639902  0.80840520  0.77284570  1
  Mo  Mo182  1  0.59428928  0.39490796  0.74206328  1
  Mo  Mo183  1  0.60185991  0.81356885  0.76861140  1
  Mo  Mo184  1  0.29228696  0.09424753  0.39087818  1
  Mo  Mo185  1  0.09945032  0.08126624  0.87910425  1
  Mo  Mo186  1  0.29763903  0.69495634  0.88235717  1
  Mo  Mo187  1  0.00892183  0.80327865  0.50907299  1
  Mo  Mo188  1  0.29516249  0.10076557  0.11482552  1
  Mo  Mo189  1  0.09564291  0.07985545  0.60812757  1
  Mo  Mo190  1  0.59669066  0.40264506  0.25288883  1
  Mo  Mo191  1  0.00149939  -0.00698038  0.48670324  1
  Mo  Mo192  1  0.28335228  0.30905745  0.38473016  1
  Mo  Mo193  1  0.70345458  0.30083156  0.87725088  1
  Mo  Mo194  1  0.49845395  0.88017989  0.37684325  1
  Mo  Mo195  1  0.30938493  0.71068069  0.62895078  1
  Mo  Mo196  1  -0.02009561  0.40974933  0.24354916  1
  Mo  Mo197  1  -0.00292021  0.19399788  0.24901751  1
  Mo  Mo198  1  0.49882197  0.50368630  0.11625039  1
  Mo  Mo199  1  0.19546733  0.39878255  0.49700375  1
