# generated using pymatgen
data_HfZrTaTiMo
_symmetry_space_group_name_H-M   'P 1'
_cell_length_a   15.17213618
_cell_length_b   15.18243802
_cell_length_c   16.83986758
_cell_angle_alpha   89.98671873
_cell_angle_beta   89.93713520
_cell_angle_gamma   90.10072820
_symmetry_Int_Tables_number   1
_chemical_formula_structural   HfZrTaTiMo
_chemical_formula_sum   'Hf40 Zr40 Ta40 Ti40 Mo40'
_cell_volume   3879.05535015
_cell_formula_units_Z   40
loop_
 _symmetry_equiv_pos_site_id
 _symmetry_equiv_pos_as_xyz
  1  'x, y, z'
loop_
 _atom_site_type_symbol
 _atom_site_label
 _atom_site_symmetry_multiplicity
 _atom_site_fract_x
 _atom_site_fract_y
 _atom_site_fract_z
 _atom_site_occupancy
  Hf  Hf0  1  0.59270769  0.00367605  0.50330842  1
  Hf  Hf1  1  0.70887802  0.28739417  0.36639332  1
  Hf  Hf2  1  0.39426015  0.39507537  0.47813337  1
  Hf  Hf3  1  0.69555574  0.31025052  0.62242520  1
  Hf  Hf4  1  0.30690682  0.89066887  0.12252234  1
  Hf  Hf5  1  0.01130458  0.01487750  0.76858086  1
  Hf  Hf6  1  0.90837668  0.32429116  0.89844991  1
  Hf  Hf7  1  0.30719158  0.69713741  0.38348907  1
  Hf  Hf8  1  0.01248751  0.81300616  0.24838327  1
  Hf  Hf9  1  0.38200630  0.19962584  -0.00429306  1
  Hf  Hf10  1  0.11620754  0.51231988  0.39205404  1
  Hf  Hf11  1  0.19910826  0.20092532  0.48331335  1
  Hf  Hf12  1  0.40011565  0.39738169  0.26795394  1
  Hf  Hf13  1  0.38613758  0.18807984  0.76051172  1
  Hf  Hf14  1  0.89540894  0.12307966  0.88540658  1
  Hf  Hf15  1  0.81601752  0.81681762  -0.00295686  1
  Hf  Hf16  1  0.01352744  0.80013425  0.73169667  1
  Hf  Hf17  1  0.09369260  0.09602540  0.12807060  1
  Hf  Hf18  1  0.39535937  0.39134171  0.75729052  1
  Hf  Hf19  1  0.12663196  0.69595990  0.86600940  1
  Hf  Hf20  1  0.79484974  0.41223868  0.75491453  1
  Hf  Hf21  1  0.29396543  0.11722476  0.14291793  1
  Hf  Hf22  1  0.19674390  0.37872083  0.00035944  1
  Hf  Hf23  1  0.00381258  0.61839788  0.51810139  1
  Hf  Hf24  1  0.80622277  0.39394232  0.24531974  1
  Hf  Hf25  1  0.19567490  -0.00190386  0.48828358  1
  Hf  Hf26  1  0.50436744  0.10008494  0.87741911  1
  Hf  Hf27  1  0.29294932  0.88817086  0.37455108  1
  Hf  Hf28  1  0.08163258  0.29046401  0.61462792  1
  Hf  Hf29  1  0.07888240  0.48529635  0.88436666  1
  Hf  Hf30  1  0.49782142  0.49646044  0.87631909  1
  Hf  Hf31  1  0.40218849  0.60336478  0.25885456  1
  Hf  Hf32  1  0.89951662  0.51400248  0.11721432  1
  Hf  Hf33  1  0.00541491  0.61214449  0.24963724  1
  Hf  Hf34  1  0.91049771  0.11511841  0.63362294  1
  Hf  Hf35  1  -0.00726501  -0.00764189  -0.01568534  1
  Hf  Hf36  1  0.28647895  0.08529571  0.62599691  1
  Hf  Hf37  1  0.29287454  0.87159774  0.86827112  1
  Hf  Hf38  1  0.40018563  0.78973595  -0.00379798  1
  Hf  Hf39  1  0.31532183  0.10322471  0.35894879  1
  Zr  Zr40  1  0.49907529  0.70173919  0.12613107  1
  Zr  Zr41  1  0.89954139  0.70584680  0.38210421  1
  Zr  Zr42  1  0.41002242  -0.01524132  0.24552727  1
  Zr  Zr43  1  0.77307398  0.40057249  0.01121196  1
  Zr  Zr44  1  0.69707310  0.30019766  0.87330141  1
  Zr  Zr45  1  0.90549374  0.90402270  0.38052662  1
  Zr  Zr46  1  0.88461506  0.10468585  0.11353223  1
  Zr  Zr47  1  0.18331668  -0.01280016  0.25373733  1
  Zr  Zr48  1  0.79453521  0.00863550  0.75983463  1
  Zr  Zr49  1  0.49286407  0.49158727  0.12180802  1
  Zr  Zr50  1  0.69299641  0.90717507  0.12325236  1
  Zr  Zr51  1  0.90928282  0.49416854  0.38280799  1
  Zr  Zr52  1  -0.01032402  0.21028915  0.25279646  1
  Zr  Zr53  1  0.28528059  0.50831341  0.86406372  1
  Zr  Zr54  1  0.89586987  0.91031880  0.63621858  1
  Zr  Zr55  1  0.61449022  0.20996126  0.01582793  1
  Zr  Zr56  1  0.11036565  0.48897696  0.61492358  1
  Zr  Zr57  1  0.70468008  0.89697508  0.38070187  1
  Zr  Zr58  1  0.49229529  0.09164002  0.63032765  1
  Zr  Zr59  1  0.68437405  0.50140004  0.13320803  1
  Zr  Zr60  1  -0.01168554  0.20661500  0.48347328  1
  Zr  Zr61  1  0.49578405  0.69600593  0.86204080  1
  Zr  Zr62  1  0.49220403  0.29484081  0.61967498  1
  Zr  Zr63  1  0.18371932  0.38356832  0.75445592  1
  Zr  Zr64  1  0.50076188  0.08660558  0.11470914  1
  Zr  Zr65  1  0.20377516  -0.00157708  -0.00619559  1
  Zr  Zr66  1  0.78854402  0.61821421  -0.00129324  1
  Zr  Zr67  1  0.10981662  0.72301027  0.38789596  1
  Zr  Zr68  1  0.61123152  0.59443380  0.49157514  1
  Zr  Zr69  1  0.79288598  0.20091649  0.50611450  1
  Zr  Zr70  1  0.01508715  0.41357937  0.23459457  1
  Zr  Zr71  1  0.28979937  0.29567275  0.62035378  1
  Zr  Zr72  1  0.59913087  0.79186502  0.50427376  1
  Zr  Zr73  1  0.00256860  0.61512354  -0.00086599  1
  Zr  Zr74  1  0.50864714  0.48805996  0.62036207  1
  Zr  Zr75  1  0.89555732  0.48605351  0.61287706  1
  Zr  Zr76  1  0.58723627  0.79750381  0.25802877  1
  Zr  Zr77  1  0.00531082  0.59547854  0.74000804  1
  Zr  Zr78  1  0.60807173  0.79669416  -0.00692139  1
  Zr  Zr79  1  0.90806162  0.72523749  0.86444773  1
  Ta  Ta80  1  0.48629415  0.89708182  0.38869159  1
  Ta  Ta81  1  0.90433916  0.90785700  0.12683504  1
  Ta  Ta82  1  0.41432820  0.60144982  0.49344154  1
  Ta  Ta83  1  0.38803846  0.59642164  -0.00070758  1
  Ta  Ta84  1  0.80654277  0.79746974  0.51782899  1
  Ta  Ta85  1  0.89763879  0.30185805  0.11169800  1
  Ta  Ta86  1  0.79939673  0.00382099  0.50829691  1
  Ta  Ta87  1  0.60241740  0.19086249  0.23949368  1
  Ta  Ta88  1  0.60140375  0.80464568  0.74064163  1
  Ta  Ta89  1  0.00107692  0.01075424  0.49900464  1
  Ta  Ta90  1  0.80330984  0.60736139  0.74419260  1
  Ta  Ta91  1  0.10722944  0.69479911  0.12313090  1
  Ta  Ta92  1  0.80051846  0.60567912  0.25128229  1
  Ta  Ta93  1  0.22004323  0.60666716  0.51729505  1
  Ta  Ta94  1  0.69706674  0.10314926  0.63167770  1
  Ta  Ta95  1  0.48052075  0.89035168  0.62330890  1
  Ta  Ta96  1  0.31237615  0.49790120  0.62243586  1
  Ta  Ta97  1  0.21205562  0.78372140  0.23904375  1
  Ta  Ta98  1  0.70519060  0.69938289  0.13457315  1
  Ta  Ta99  1  0.00594371  0.21619826  0.76104688  1
  Ta  Ta100  1  0.80507065  0.80302848  0.24383676  1
  Ta  Ta101  1  0.40380223  -0.01136842  -0.01297341  1
  Ta  Ta102  1  0.20306769  0.58974018  0.24620946  1
  Ta  Ta103  1  0.69014811  0.50936184  0.87586357  1
  Ta  Ta104  1  0.70239058  0.70332392  0.85755651  1
  Ta  Ta105  1  0.29400229  0.48801256  0.12530159  1
  Ta  Ta106  1  0.09796267  0.31531666  0.37682127  1
  Ta  Ta107  1  0.50212383  0.69443255  0.63122539  1
  Ta  Ta108  1  0.60831502  0.59490632  0.74337165  1
  Ta  Ta109  1  0.39649528  -0.01722748  0.76106527  1
  Ta  Ta110  1  0.01102302  0.81921706  0.51959566  1
  Ta  Ta111  1  0.59433320  0.19849867  0.49678220  1
  Ta  Ta112  1  0.79257686  0.00713241  0.24786491  1
  Ta  Ta113  1  0.59981279  -0.00030486  0.25644126  1
  Ta  Ta114  1  0.59573213  0.39157764  0.26294678  1
  Ta  Ta115  1  0.21037580  0.39664084  0.25887506  1
  Ta  Ta116  1  0.11267754  0.92497674  0.63166301  1
  Ta  Ta117  1  0.01918493  0.21441761  0.00673665  1
  Ta  Ta118  1  0.60037096  0.20123196  0.74995528  1
  Ta  Ta119  1  0.88135070  0.10410635  0.36983729  1
  Ti  Ti120  1  0.80057709  0.60553209  0.50408699  1
  Ti  Ti121  1  -0.01416324  0.39846286  0.74966852  1
  Ti  Ti122  1  0.70819220  0.49809580  0.37089273  1
  Ti  Ti123  1  0.60162028  -0.00685958  -0.00853219  1
  Ti  Ti124  1  0.20228399  0.78048518  0.00629611  1
  Ti  Ti125  1  0.49569510  0.27180452  0.36894710  1
  Ti  Ti126  1  0.20385080  0.58948783  0.00672310  1
  Ti  Ti127  1  0.39338287  0.39583055  -0.00529658  1
  Ti  Ti128  1  0.69665529  0.10797645  0.87369526  1
  Ti  Ti129  1  0.69294099  0.90530037  0.62815209  1
  Ti  Ti130  1  0.50701555  0.89389067  0.86553732  1
  Ti  Ti131  1  0.59994464  0.59375972  0.26691928  1
  Ti  Ti132  1  0.21130963  0.62275753  0.72117159  1
  Ti  Ti133  1  0.39943469  0.60096888  0.74114546  1
  Ti  Ti134  1  0.90512268  0.71652884  0.12521087  1
  Ti  Ti135  1  0.21046815  0.80440897  0.52611390  1
  Ti  Ti136  1  0.69140772  0.09619498  0.37526480  1
  Ti  Ti137  1  0.70705864  0.69983078  0.37199366  1
  Ti  Ti138  1  0.09196839  0.09957077  0.36277057  1
  Ti  Ti139  1  0.59698464  0.39843883  0.75200068  1
  Ti  Ti140  1  0.70773853  0.70298244  0.63291526  1
  Ti  Ti141  1  0.27201654  0.27303711  0.87053660  1
  Ti  Ti142  1  0.59918303  0.39338838  0.47638001  1
  Ti  Ti143  1  0.11906832  0.12138177  0.88448381  1
  Ti  Ti144  1  0.49389582  0.29969852  0.12928016  1
  Ti  Ti145  1  0.88573043  0.51659341  0.88328718  1
  Ti  Ti146  1  -0.01283459  0.00312264  0.25212997  1
  Ti  Ti147  1  0.70125720  0.50297864  0.61909818  1
  Ti  Ti148  1  0.59582242  0.00145296  0.74912367  1
  Ti  Ti149  1  0.80299030  0.21557822  0.74578483  1
  Ti  Ti150  1  0.09248727  0.88418813  0.87592239  1
  Ti  Ti151  1  0.20335675  0.00068199  0.76441119  1
  Ti  Ti152  1  0.59446634  0.59781297  -0.00142648  1
  Ti  Ti153  1  0.50150766  0.29897783  0.88095591  1
  Ti  Ti154  1  0.78820099  0.00829936  -0.00968052  1
  Ti  Ti155  1  0.70738871  0.89659765  0.86468218  1
  Ti  Ti156  1  0.12469233  0.29383638  0.13662960  1
  Ti  Ti157  1  0.40215595  0.18029343  0.49414911  1
  Ti  Ti158  1  0.09724974  0.89112840  0.11293896  1
  Ti  Ti159  1  0.80357389  0.39412578  0.49068143  1
  Mo  Mo160  1  0.29741828  0.68477109  0.12458853  1
  Mo  Mo161  1  0.29886196  0.50311081  0.38240199  1
  Mo  Mo162  1  0.79359656  0.19346160  0.24764360  1
  Mo  Mo163  1  0.58095957  0.40267464  -0.00048217  1
  Mo  Mo164  1  0.40197306  0.79253820  0.74745390  1
  Mo  Mo165  1  0.20952901  0.80734001  0.73343101  1
  Mo  Mo166  1  0.89153483  0.30506216  0.63086631  1
  Mo  Mo167  1  0.09708571  0.10103717  0.62554285  1
  Mo  Mo168  1  0.49958211  0.90089538  0.11284771  1
  Mo  Mo169  1  0.20288851  0.40219503  0.49724109  1
  Mo  Mo170  1  0.31207147  0.30665062  0.13053014  1
  Mo  Mo171  1  0.79258128  0.80074143  0.73831806  1
  Mo  Mo172  1  0.01289371  0.80607665  0.00267749  1
  Mo  Mo173  1  0.20193874  0.19356252  0.00862341  1
  Mo  Mo174  1  0.32118325  0.70592334  0.61834063  1
  Mo  Mo175  1  0.41123905  0.20547161  0.24716088  1
  Mo  Mo176  1  0.09052824  0.29683235  0.87913844  1
  Mo  Mo177  1  0.18334871  0.18086823  0.74804936  1
  Mo  Mo178  1  0.19932027  0.21098512  0.26761199  1
  Mo  Mo179  1  0.39678201  0.79625418  0.24875561  1
  Mo  Mo180  1  0.69792267  0.29436605  0.14291422  1
  Mo  Mo181  1  0.39543050  -0.00665632  0.49710608  1
  Mo  Mo182  1  0.50782127  0.09407597  0.37380776  1
  Mo  Mo183  1  0.90054698  0.90618701  0.86428914  1
  Mo  Mo184  1  0.39929265  0.79554268  0.50519234  1
  Mo  Mo185  1  0.80191554  0.20080160  0.00015863  1
  Mo  Mo186  1  0.69808311  0.09436731  0.12460952  1
  Mo  Mo187  1  0.29635683  0.29454095  0.37684935  1
  Mo  Mo188  1  0.30141623  0.08546781  0.87368274  1
  Mo  Mo189  1  0.30058917  0.68588086  0.86963175  1
  Mo  Mo190  1  0.89720351  0.70186548  0.62451949  1
  Mo  Mo191  1  -0.00193587  0.40011470  0.49291714  1
  Mo  Mo192  1  0.10921546  0.50005083  0.12180796  1
  Mo  Mo193  1  0.90045652  0.30159891  0.36806308  1
  Mo  Mo194  1  0.51078212  0.49723660  0.37518356  1
  Mo  Mo195  1  0.50501470  0.70314283  0.37500662  1
  Mo  Mo196  1  0.00620851  0.40452055  0.02542416  1
  Mo  Mo197  1  0.11054135  0.71016864  0.61967991  1
  Mo  Mo198  1  0.09776397  0.90332179  0.38049178  1
  Mo  Mo199  1  0.30236566  0.90350394  0.63225364  1
