# generated using pymatgen
data_HfZrTaTiMo
_symmetry_space_group_name_H-M   'P 1'
_cell_length_a   15.20663980
_cell_length_b   15.21895140
_cell_length_c   16.82805369
_cell_angle_alpha   89.95260335
_cell_angle_beta   89.96552215
_cell_angle_gamma   90.01441349
_symmetry_Int_Tables_number   1
_chemical_formula_structural   HfZrTaTiMo
_chemical_formula_sum   'Hf40 Zr40 Ta40 Ti40 Mo40'
_cell_volume   3894.49935975
_cell_formula_units_Z   40
loop_
 _symmetry_equiv_pos_site_id
 _symmetry_equiv_pos_as_xyz
  1  'x, y, z'
loop_
 _atom_site_type_symbol
 _atom_site_label
 _atom_site_symmetry_multiplicity
 _atom_site_fract_x
 _atom_site_fract_y
 _atom_site_fract_z
 _atom_site_occupancy
  Hf  Hf0  1  0.60387682  0.78378911  0.25248356  1
  Hf  Hf1  1  0.00929500  0.20064849  0.74224408  1
  Hf  Hf2  1  0.48045208  0.08423495  0.12685274  1
  Hf  Hf3  1  0.39412982  0.57923926  0.50272002  1
  Hf  Hf4  1  0.00896270  0.59858221  0.74395453  1
  Hf  Hf5  1  0.70376158  0.90319783  0.85238512  1
  Hf  Hf6  1  -0.00009762  0.39530812  0.73760929  1
  Hf  Hf7  1  0.18975012  0.01397062  0.75424952  1
  Hf  Hf8  1  0.49770823  0.28168713  0.12253520  1
  Hf  Hf9  1  0.01082316  0.19836796  0.23899074  1
  Hf  Hf10  1  0.11047301  0.69989597  0.38352916  1
  Hf  Hf11  1  0.68827941  0.10332919  0.36494376  1
  Hf  Hf12  1  0.10184168  0.70054549  0.87746938  1
  Hf  Hf13  1  0.48894303  0.88785867  0.86570839  1
  Hf  Hf14  1  0.48834898  0.08465492  0.36146835  1
  Hf  Hf15  1  0.70094120  0.29948843  0.36923695  1
  Hf  Hf16  1  0.39266927  0.38911566  0.24492107  1
  Hf  Hf17  1  0.31890376  0.89988499  0.36938747  1
  Hf  Hf18  1  0.09567067  0.11725867  0.88518289  1
  Hf  Hf19  1  0.31839867  0.30301839  0.61621195  1
  Hf  Hf20  1  0.50612044  0.67949168  0.86421175  1
  Hf  Hf21  1  0.28523894  0.50391109  0.64099327  1
  Hf  Hf22  1  0.78776333  0.00758880  -0.00674910  1
  Hf  Hf23  1  0.19919138  0.01832398  0.25716881  1
  Hf  Hf24  1  0.80271691  0.20770097  0.00833206  1
  Hf  Hf25  1  0.22790666  0.21600555  0.27269743  1
  Hf  Hf26  1  0.09490879  0.91512935  0.11609910  1
  Hf  Hf27  1  0.80069738  0.59187993  0.49801134  1
  Hf  Hf28  1  0.00647540  0.80104667  0.24447424  1
  Hf  Hf29  1  0.20764721  0.81063232  0.75239936  1
  Hf  Hf30  1  0.79901812  0.20930574  0.22913657  1
  Hf  Hf31  1  0.40242242  -0.01825738  0.50949285  1
  Hf  Hf32  1  0.09168697  0.89616066  0.62059882  1
  Hf  Hf33  1  0.09824143  0.89540198  0.38391413  1
  Hf  Hf34  1  0.39485940  0.37857576  0.75773215  1
  Hf  Hf35  1  0.60966347  0.39299352  0.00931130  1
  Hf  Hf36  1  0.69937406  0.51063767  0.12986749  1
  Hf  Hf37  1  0.89263376  0.91413339  0.37372209  1
  Hf  Hf38  1  0.50702109  0.67690018  0.61877498  1
  Hf  Hf39  1  0.49549375  0.48121107  0.37392661  1
  Zr  Zr40  1  0.90971080  0.71413902  0.62457954  1
  Zr  Zr41  1  0.79882209  0.81848609  0.51265569  1
  Zr  Zr42  1  0.21711249  0.41499089  0.47579059  1
  Zr  Zr43  1  0.91770269  0.29808870  0.88374010  1
  Zr  Zr44  1  -0.01424588  0.00135078  -0.00963181  1
  Zr  Zr45  1  0.20516640  0.40219169  -0.00037983  1
  Zr  Zr46  1  0.70300164  0.30828381  0.86818092  1
  Zr  Zr47  1  0.60919491  0.79287730  -0.00987579  1
  Zr  Zr48  1  0.79662277  0.80803124  0.25532090  1
  Zr  Zr49  1  0.09958787  0.10362514  0.61577385  1
  Zr  Zr50  1  0.49629773  0.48504736  0.86909251  1
  Zr  Zr51  1  0.30656291  0.91716802  0.12304981  1
  Zr  Zr52  1  0.21015473  0.79741323  0.24096942  1
  Zr  Zr53  1  0.49969138  0.70222467  0.39365191  1
  Zr  Zr54  1  0.68377439  0.10116910  0.13022989  1
  Zr  Zr55  1  0.80781396  0.81270794  -0.00978991  1
  Zr  Zr56  1  0.60832750  0.78532865  0.73911222  1
  Zr  Zr57  1  0.89680834  0.50126655  0.87301199  1
  Zr  Zr58  1  0.08219560  0.10695584  0.38378477  1
  Zr  Zr59  1  0.09756431  0.49861499  0.88317743  1
  Zr  Zr60  1  0.00200802  0.59038352  0.24291014  1
  Zr  Zr61  1  0.79779721  0.60718775  -0.00629250  1
  Zr  Zr62  1  0.31278707  0.69905547  0.86789628  1
  Zr  Zr63  1  0.11656968  0.31536999  0.61404608  1
  Zr  Zr64  1  0.68313754  0.11136486  0.64674375  1
  Zr  Zr65  1  0.11712097  0.69581337  0.62267700  1
  Zr  Zr66  1  0.89883346  0.70225975  0.12183397  1
  Zr  Zr67  1  0.41624141  0.80574444  0.23748539  1
  Zr  Zr68  1  0.12960206  0.29743497  0.13249352  1
  Zr  Zr69  1  -0.02071768  0.21576436  0.51236413  1
  Zr  Zr70  1  0.68122365  0.90451983  0.38473226  1
  Zr  Zr71  1  0.79208683  0.60924184  0.26492618  1
  Zr  Zr72  1  -0.02243463  0.00016386  0.50442142  1
  Zr  Zr73  1  0.91198159  0.70789852  0.39193672  1
  Zr  Zr74  1  0.21536105  0.20677883  0.47601235  1
  Zr  Zr75  1  0.30137728  0.10274540  0.62081913  1
  Zr  Zr76  1  0.69278975  0.51364858  0.86026227  1
  Zr  Zr77  1  0.80197855  0.39264572  0.51117879  1
  Zr  Zr78  1  0.20468492  0.80499459  0.00115362  1
  Zr  Zr79  1  0.90115320  0.30042880  0.36838885  1
  Ta  Ta80  1  0.69644785  0.49239328  0.37262573  1
  Ta  Ta81  1  0.39710006  -0.00597282  -0.00477672  1
  Ta  Ta82  1  0.59251862  0.38460036  0.50389524  1
  Ta  Ta83  1  0.21032623  0.21812905  0.75877222  1
  Ta  Ta84  1  -0.00779093  0.00380782  0.24779490  1
  Ta  Ta85  1  0.80016681  0.40878466  0.73634361  1
  Ta  Ta86  1  0.49852944  0.28414204  0.88489078  1
  Ta  Ta87  1  0.39653979  0.60126985  0.25004848  1
  Ta  Ta88  1  0.28554724  0.12282406  0.10949342  1
  Ta  Ta89  1  0.78168091  0.19461041  0.51101769  1
  Ta  Ta90  1  0.49534022  0.47388811  0.63286525  1
  Ta  Ta91  1  0.89223110  0.90786099  0.12832953  1
  Ta  Ta92  1  0.81159274  0.40743316  0.23382064  1
  Ta  Ta93  1  0.30284164  0.50728906  0.86717744  1
  Ta  Ta94  1  0.89953637  0.50581692  0.62614159  1
  Ta  Ta95  1  0.00129831  0.40454965  0.02471227  1
  Ta  Ta96  1  0.59158379  0.59486820  0.00188288  1
  Ta  Ta97  1  0.88685060  0.09954954  0.64251153  1
  Ta  Ta98  1  0.40613984  0.78683425  0.01061339  1
  Ta  Ta99  1  0.59298626  -0.00687023  -0.00662043  1
  Ta  Ta100  1  0.58137612  -0.02225204  0.24221864  1
  Ta  Ta101  1  0.38251275  -0.01285855  0.74832856  1
  Ta  Ta102  1  0.59034133  0.01719339  0.51473619  1
  Ta  Ta103  1  0.69336198  0.70239294  0.12341201  1
  Ta  Ta104  1  0.29915706  0.10159344  0.88671686  1
  Ta  Ta105  1  0.50041365  0.68375722  0.12145981  1
  Ta  Ta106  1  0.90437891  0.49170858  0.37488407  1
  Ta  Ta107  1  0.10939907  0.69444902  0.11416955  1
  Ta  Ta108  1  0.60929049  0.38818684  0.23834976  1
  Ta  Ta109  1  0.40240231  0.18151738  0.75940876  1
  Ta  Ta110  1  0.31647307  0.70751329  0.63515314  1
  Ta  Ta111  1  0.89656997  0.91047013  0.65202660  1
  Ta  Ta112  1  0.20571625  0.59963340  0.24503079  1
  Ta  Ta113  1  0.68816311  0.10678830  0.86261064  1
  Ta  Ta114  1  0.20405205  -0.00263648  0.49289268  1
  Ta  Ta115  1  0.68545632  0.50462564  0.62849335  1
  Ta  Ta116  1  0.68978142  0.30568682  0.63751977  1
  Ta  Ta117  1  0.42660296  0.19250084  0.49695675  1
  Ta  Ta118  1  0.89684986  0.71035710  0.85695245  1
  Ta  Ta119  1  0.20220280  0.41379775  0.26318316  1
  Ti  Ti120  1  0.20326198  0.60053379  0.49861686  1
  Ti  Ti121  1  0.21672650  0.60186589  0.00773010  1
  Ti  Ti122  1  0.57571776  0.00732654  0.74634091  1
  Ti  Ti123  1  0.00529526  0.40363669  0.23192197  1
  Ti  Ti124  1  0.58602187  0.81930314  0.51472052  1
  Ti  Ti125  1  0.78529383  0.01137737  0.51158298  1
  Ti  Ti126  1  0.29835049  0.29575033  0.88642906  1
  Ti  Ti127  1  0.09442888  0.90692850  0.87663443  1
  Ti  Ti128  1  0.00729805  0.59637930  0.50561852  1
  Ti  Ti129  1  0.79411305  0.00368307  0.24342066  1
  Ti  Ti130  1  0.79015806  0.61477219  0.73912596  1
  Ti  Ti131  1  0.30523468  0.69713152  0.37905266  1
  Ti  Ti132  1  0.68877798  0.69600180  0.40064989  1
  Ti  Ti133  1  0.88313677  0.10831560  0.37111238  1
  Ti  Ti134  1  0.69785595  0.91120541  0.63858054  1
  Ti  Ti135  1  0.09532488  0.50651962  0.37342351  1
  Ti  Ti136  1  0.59241737  0.59209398  0.25448247  1
  Ti  Ti137  1  0.90915887  0.09534243  0.12332641  1
  Ti  Ti138  1  0.40036656  0.39939158  0.00420967  1
  Ti  Ti139  1  0.22282474  0.80402722  0.50666143  1
  Ti  Ti140  1  0.59952622  0.18817372  -0.00396471  1
  Ti  Ti141  1  0.08922558  0.31584176  0.37355871  1
  Ti  Ti142  1  -0.00339193  0.79784766  -0.00394141  1
  Ti  Ti143  1  0.00123061  0.41315158  0.50719320  1
  Ti  Ti144  1  0.69466464  0.89861316  0.12274078  1
  Ti  Ti145  1  0.47921227  0.88576657  0.63784873  1
  Ti  Ti146  1  0.49520462  0.49595182  0.12686592  1
  Ti  Ti147  1  0.00251384  0.59776237  0.00779574  1
  Ti  Ti148  1  0.69769437  0.69642321  0.60801681  1
  Ti  Ti149  1  0.80292483  0.21350978  0.74998813  1
  Ti  Ti150  1  0.51027744  0.28256794  0.36253981  1
  Ti  Ti151  1  0.90409540  0.90191911  0.84566466  1
  Ti  Ti152  1  0.29981880  0.50092277  0.12618501  1
  Ti  Ti153  1  0.01191097  0.20836750  0.01970216  1
  Ti  Ti154  1  0.29542558  0.90469758  0.88380992  1
  Ti  Ti155  1  0.88858226  0.09580159  0.85753749  1
  Ti  Ti156  1  0.49312567  0.09157704  0.87976481  1
  Ti  Ti157  1  0.19055371  0.40234825  0.76264120  1
  Ti  Ti158  1  0.81095022  0.40360378  0.02057851  1
  Ti  Ti159  1  0.50964606  0.27344202  0.63290401  1
  Mo  Mo160  1  0.60097156  0.19911252  0.49932343  1
  Mo  Mo161  1  0.33884188  0.30845393  0.38253816  1
  Mo  Mo162  1  0.20229112  0.20466148  -0.00532472  1
  Mo  Mo163  1  0.50969034  0.89222085  0.11243444  1
  Mo  Mo164  1  0.38991937  0.00127182  0.24317716  1
  Mo  Mo165  1  0.60132224  0.58919626  0.73896858  1
  Mo  Mo166  1  0.49144736  0.09204635  0.63293424  1
  Mo  Mo167  1  0.59585561  0.19627790  0.24410165  1
  Mo  Mo168  1  0.90880346  0.30052681  0.12262792  1
  Mo  Mo169  1  0.79139260  0.00973108  0.75566519  1
  Mo  Mo170  1  0.10368060  0.09666657  0.11902622  1
  Mo  Mo171  1  0.00608467  0.80271043  0.50049470  1
  Mo  Mo172  1  0.30567020  0.09771610  0.38739867  1
  Mo  Mo173  1  0.40040516  0.58733603  0.00625155  1
  Mo  Mo174  1  0.20342088  0.59623186  0.75589492  1
  Mo  Mo175  1  0.10276929  0.30294290  0.87975399  1
  Mo  Mo176  1  0.69904205  0.30454530  0.12190710  1
  Mo  Mo177  1  0.70765229  0.69679023  0.86508747  1
  Mo  Mo178  1  0.31094502  0.30547793  0.12136771  1
  Mo  Mo179  1  0.39765195  0.19180900  0.25053521  1
  Mo  Mo180  1  0.40195438  0.79879749  0.74847603  1
  Mo  Mo181  1  0.11006096  0.50799628  0.12381472  1
  Mo  Mo182  1  0.30642184  0.68929745  0.12092838  1
  Mo  Mo183  1  0.28971388  0.89577700  0.62401019  1
  Mo  Mo184  1  0.58620090  0.20180966  0.76554239  1
  Mo  Mo185  1  0.90224323  0.50476590  0.12441102  1
  Mo  Mo186  1  0.40054079  0.59098728  0.74060470  1
  Mo  Mo187  1  0.89042794  0.29733342  0.62772503  1
  Mo  Mo188  1  0.50659902  0.89812572  0.38059591  1
  Mo  Mo189  1  0.59541526  0.38970239  0.74446207  1
  Mo  Mo190  1  0.19842747  0.00510473  -0.00927038  1
  Mo  Mo191  1  0.00052773  0.00595783  0.75567236  1
  Mo  Mo192  1  0.60582789  0.57662957  0.49717444  1
  Mo  Mo193  1  0.40184380  0.19776843  -0.00924296  1
  Mo  Mo194  1  0.00772145  0.80520781  0.75861188  1
  Mo  Mo195  1  0.39919085  0.79115363  0.50563287  1
  Mo  Mo196  1  0.80036318  0.79918541  0.73738393  1
  Mo  Mo197  1  0.30258650  0.51264329  0.36721258  1
  Mo  Mo198  1  0.09678744  0.50365620  0.61796592  1
  Mo  Mo199  1  0.41070375  0.38601213  0.50237903  1
