# generated using pymatgen
data_HfZrTaTiMo
_symmetry_space_group_name_H-M   'P 1'
_cell_length_a   15.19213359
_cell_length_b   15.20074309
_cell_length_c   16.79365800
_cell_angle_alpha   89.98390706
_cell_angle_beta   89.95746896
_cell_angle_gamma   89.92576895
_symmetry_Int_Tables_number   1
_chemical_formula_structural   HfZrTaTiMo
_chemical_formula_sum   'Hf40 Zr40 Ta40 Ti40 Mo40'
_cell_volume   3878.18384799
_cell_formula_units_Z   40
loop_
 _symmetry_equiv_pos_site_id
 _symmetry_equiv_pos_as_xyz
  1  'x, y, z'
loop_
 _atom_site_type_symbol
 _atom_site_label
 _atom_site_symmetry_multiplicity
 _atom_site_fract_x
 _atom_site_fract_y
 _atom_site_fract_z
 _atom_site_occupancy
  Hf  Hf0  1  0.19619502  0.00462364  0.01680598  1
  Hf  Hf1  1  0.49915252  0.08695903  0.61484020  1
  Hf  Hf2  1  0.01733983  0.20516174  0.00701458  1
  Hf  Hf3  1  0.49681808  0.10548176  0.13144191  1
  Hf  Hf4  1  0.61422210  0.40290019  0.00447328  1
  Hf  Hf5  1  0.10031420  0.29767311  0.37634356  1
  Hf  Hf6  1  0.30479914  0.09335929  0.86940962  1
  Hf  Hf7  1  0.19703535  0.79990483  0.01474557  1
  Hf  Hf8  1  0.70078458  0.10824342  0.37586750  1
  Hf  Hf9  1  0.70031745  0.09587267  0.62629738  1
  Hf  Hf10  1  0.79978322  0.59634992  -0.01794524  1
  Hf  Hf11  1  0.31501493  0.28987166  0.14130627  1
  Hf  Hf12  1  0.20464982  0.39718937  0.74431856  1
  Hf  Hf13  1  0.09089432  0.50303709  0.39533799  1
  Hf  Hf14  1  0.19653560  0.38361973  -0.00451275  1
  Hf  Hf15  1  0.50234319  0.50537193  0.89140311  1
  Hf  Hf16  1  0.90414482  0.90877356  0.61228736  1
  Hf  Hf17  1  0.10417790  0.49912444  0.61533497  1
  Hf  Hf18  1  0.69219046  0.90597614  0.37615059  1
  Hf  Hf19  1  0.58345753  0.60057633  0.25420742  1
  Hf  Hf20  1  0.80628982  0.18193432  0.75925345  1
  Hf  Hf21  1  0.19788122  0.18657464  0.24628958  1
  Hf  Hf22  1  0.29091034  0.49115444  0.11607601  1
  Hf  Hf23  1  0.59822793  -0.00294573  0.75843621  1
  Hf  Hf24  1  0.88510292  0.69843421  0.12520602  1
  Hf  Hf25  1  0.91317392  0.50742575  0.12244207  1
  Hf  Hf26  1  0.30331522  0.50662381  0.88401256  1
  Hf  Hf27  1  0.09384291  0.70418602  0.60464377  1
  Hf  Hf28  1  0.79625620  0.38467719  0.51535837  1
  Hf  Hf29  1  0.89632601  0.10240747  0.11883883  1
  Hf  Hf30  1  0.19846086  0.57510237  0.25593124  1
  Hf  Hf31  1  0.78943617  0.79547396  0.50236312  1
  Hf  Hf32  1  0.68427234  0.89706455  0.62017655  1
  Hf  Hf33  1  0.59166684  0.40366779  0.24138319  1
  Hf  Hf34  1  -0.00245057  0.80326407  0.25053682  1
  Hf  Hf35  1  0.50487401  0.29489456  0.87970039  1
  Hf  Hf36  1  -0.01100472  0.79675006  -0.00496744  1
  Hf  Hf37  1  0.10113003  0.88876838  0.39457078  1
  Hf  Hf38  1  0.88582485  0.90317031  0.12049885  1
  Hf  Hf39  1  0.50566785  0.69906828  0.62580448  1
  Zr  Zr40  1  0.80463456  0.39889757  0.23686058  1
  Zr  Zr41  1  0.79836444  0.81703866  0.75824195  1
  Zr  Zr42  1  0.09551656  0.50187945  0.86986839  1
  Zr  Zr43  1  0.39391245  0.80495334  0.00876581  1
  Zr  Zr44  1  0.60233121  0.20644231  0.49972418  1
  Zr  Zr45  1  0.21087211  0.60927268  0.74031206  1
  Zr  Zr46  1  0.10604479  0.10933737  0.86944847  1
  Zr  Zr47  1  0.50272520  0.71136754  0.88614528  1
  Zr  Zr48  1  0.80338809  0.00627033  0.25528248  1
  Zr  Zr49  1  0.91075955  0.29561066  0.87225155  1
  Zr  Zr50  1  0.68497828  0.50162173  0.63342367  1
  Zr  Zr51  1  0.39721532  0.00342057  0.00624794  1
  Zr  Zr52  1  0.70718620  0.69233880  0.36483237  1
  Zr  Zr53  1  -0.01867847  0.00484655  0.75519936  1
  Zr  Zr54  1  0.29799646  0.29013381  0.87081503  1
  Zr  Zr55  1  0.09297647  0.09284881  0.61145275  1
  Zr  Zr56  1  0.89219141  0.49921831  0.37560928  1
  Zr  Zr57  1  -0.00512476  0.20256962  0.24164296  1
  Zr  Zr58  1  0.09895585  0.90408068  0.87282884  1
  Zr  Zr59  1  0.90456265  0.11210651  0.38896039  1
  Zr  Zr60  1  0.58440868  0.80416503  0.25608787  1
  Zr  Zr61  1  0.70420598  0.30287462  0.36745635  1
  Zr  Zr62  1  0.32115465  0.50264627  0.61527661  1
  Zr  Zr63  1  0.90300753  0.49899750  0.86138761  1
  Zr  Zr64  1  0.79641635  0.59362209  0.51273053  1
  Zr  Zr65  1  0.40206765  0.80372099  0.74783323  1
  Zr  Zr66  1  0.92274614  0.69769181  0.39063228  1
  Zr  Zr67  1  0.41375306  0.19301562  0.74430026  1
  Zr  Zr68  1  0.10675058  0.70116970  0.87145487  1
  Zr  Zr69  1  0.30858992  0.09697863  0.37692528  1
  Zr  Zr70  1  0.20607268  0.80762112  0.73320072  1
  Zr  Zr71  1  0.20034220  0.20448989  0.50480893  1
  Zr  Zr72  1  0.90400700  0.30456316  0.37731770  1
  Zr  Zr73  1  0.80283822  0.39220358  -0.00002099  1
  Zr  Zr74  1  0.18865426  0.78483719  0.24627461  1
  Zr  Zr75  1  0.59351857  0.60551833  0.48819749  1
  Zr  Zr76  1  0.77459785  0.80349266  -0.01719337  1
  Zr  Zr77  1  0.21050753  -0.01527618  0.24256475  1
  Zr  Zr78  1  0.31318378  0.69122021  0.36662696  1
  Zr  Zr79  1  0.58196140  0.40532859  0.49651730  1
  Ta  Ta80  1  -0.01283331  0.00329673  -0.00912552  1
  Ta  Ta81  1  0.30771248  0.89771873  0.38998415  1
  Ta  Ta82  1  0.70360620  0.51790121  0.12989031  1
  Ta  Ta83  1  0.08483699  0.90431112  0.12209928  1
  Ta  Ta84  1  0.50102294  0.09996236  0.37252810  1
  Ta  Ta85  1  0.31517737  0.90480035  0.60126081  1
  Ta  Ta86  1  0.89792579  0.49779744  0.63675801  1
  Ta  Ta87  1  0.40411574  0.19910140  0.00239865  1
  Ta  Ta88  1  0.40321005  0.21507708  0.49908810  1
  Ta  Ta89  1  0.90521207  0.70399240  0.86377970  1
  Ta  Ta90  1  0.69735497  0.29098406  0.64359403  1
  Ta  Ta91  1  0.09771862  0.09128882  0.39079822  1
  Ta  Ta92  1  0.00490057  0.20726658  0.73330548  1
  Ta  Ta93  1  0.49914306  0.69967429  0.11773108  1
  Ta  Ta94  1  0.29532311  0.89841995  0.87382957  1
  Ta  Ta95  1  0.20167388  0.19614243  0.73075562  1
  Ta  Ta96  1  0.79282930  0.00562199  0.49682164  1
  Ta  Ta97  1  0.50594975  0.30230657  0.12313123  1
  Ta  Ta98  1  0.49307512  0.50884890  0.11133228  1
  Ta  Ta99  1  -0.00296609  0.60927792  0.73523081  1
  Ta  Ta100  1  0.40801246  0.40699497  0.75344760  1
  Ta  Ta101  1  0.90259612  0.90490481  0.38722693  1
  Ta  Ta102  1  0.69938090  0.09532434  0.12111521  1
  Ta  Ta103  1  0.00427766  0.60568333  0.25281101  1
  Ta  Ta104  1  0.01006245  0.00297323  0.25383606  1
  Ta  Ta105  1  0.61030936  0.61280721  0.00036178  1
  Ta  Ta106  1  0.21651417  0.39624202  0.49899290  1
  Ta  Ta107  1  0.40712824  0.60168683  0.75024180  1
  Ta  Ta108  1  0.79994086  0.79924993  0.25622420  1
  Ta  Ta109  1  0.69207369  0.89984964  0.12902339  1
  Ta  Ta110  1  0.10754995  0.31354061  0.13339999  1
  Ta  Ta111  1  0.58239509  0.80587330  0.49287080  1
  Ta  Ta112  1  0.59908824  0.39726718  0.75958619  1
  Ta  Ta113  1  0.30733850  0.30789754  0.36229766  1
  Ta  Ta114  1  0.79111845  0.60955184  0.75210140  1
  Ta  Ta115  1  0.10631723  0.90250443  0.60370099  1
  Ta  Ta116  1  0.30285087  0.68624482  0.13024182  1
  Ta  Ta117  1  0.60024407  0.60025457  0.76032613  1
  Ta  Ta118  1  0.60450553  0.20126505  0.24575503  1
  Ta  Ta119  1  0.31106927  0.30042532  0.62607816  1
  Ti  Ti120  1  0.21246507  0.19181764  0.02131799  1
  Ti  Ti121  1  0.49568147  0.90309253  0.12920872  1
  Ti  Ti122  1  0.49909541  0.90638421  0.88280979  1
  Ti  Ti123  1  0.08781406  0.68176581  0.11886392  1
  Ti  Ti124  1  0.40309963  0.60546047  0.50022851  1
  Ti  Ti125  1  0.00770419  0.41106852  0.00279401  1
  Ti  Ti126  1  0.71057363  0.07849904  0.87981946  1
  Ti  Ti127  1  0.80320371  0.18855498  -0.01160923  1
  Ti  Ti128  1  0.51265010  0.10128585  0.88072744  1
  Ti  Ti129  1  0.21531497  0.78893515  0.50010534  1
  Ti  Ti130  1  0.69816986  0.28692235  0.86930525  1
  Ti  Ti131  1  0.49286093  0.30038720  0.36314705  1
  Ti  Ti132  1  0.69412007  0.70565075  0.13361173  1
  Ti  Ti133  1  0.60635627  -0.00914175  0.00090131  1
  Ti  Ti134  1  0.89405843  0.11159928  0.61023518  1
  Ti  Ti135  1  0.40120382  0.39185728  0.00222454  1
  Ti  Ti136  1  0.89340261  0.70337670  0.62575690  1
  Ti  Ti137  1  0.69855283  0.49668404  0.36667956  1
  Ti  Ti138  1  0.01794743  0.41317991  0.24630575  1
  Ti  Ti139  1  0.30365129  0.09436219  0.61290569  1
  Ti  Ti140  1  0.60811566  0.19538340  0.00104605  1
  Ti  Ti141  1  0.20767625  0.60026903  0.49376231  1
  Ti  Ti142  1  0.60418880  0.79483098  0.75352814  1
  Ti  Ti143  1  0.00132139  0.80496343  0.74603530  1
  Ti  Ti144  1  0.39056613  0.80739053  0.24226823  1
  Ti  Ti145  1  0.00281825  0.39618304  0.73684887  1
  Ti  Ti146  1  0.19046831  0.59788766  0.00354192  1
  Ti  Ti147  1  0.90395407  0.30145628  0.12099887  1
  Ti  Ti148  1  0.00035503  0.38387055  0.52079512  1
  Ti  Ti149  1  0.39354135  0.41706193  0.24725646  1
  Ti  Ti150  1  0.39661394  -0.00912335  0.74625920  1
  Ti  Ti151  1  0.10104967  0.29896687  0.86434344  1
  Ti  Ti152  1  0.50366281  0.30964566  0.63108009  1
  Ti  Ti153  1  0.79517992  0.39745249  0.75248770  1
  Ti  Ti154  1  0.20503539  -0.00165953  0.73765973  1
  Ti  Ti155  1  0.59349601  0.00287212  0.24904969  1
  Ti  Ti156  1  0.70746463  0.28751194  0.12516083  1
  Ti  Ti157  1  0.47165976  0.50734103  0.37119418  1
  Ti  Ti158  1  0.30327959  0.70012737  0.88354233  1
  Ti  Ti159  1  0.48686009  0.90694462  0.37531454  1
  Mo  Mo160  1  0.49031684  0.71008497  0.37389795  1
  Mo  Mo161  1  0.30605302  0.09839326  0.13389547  1
  Mo  Mo162  1  0.30395596  0.70173368  0.61155269  1
  Mo  Mo163  1  0.09964914  0.50265824  0.12088010  1
  Mo  Mo164  1  0.29976007  0.89342056  0.13244918  1
  Mo  Mo165  1  0.90108612  0.10121433  0.88472077  1
  Mo  Mo166  1  0.50028130  0.90030482  0.62440164  1
  Mo  Mo167  1  -0.00589212  0.59059577  0.52244486  1
  Mo  Mo168  1  0.41137823  0.00264906  0.49623216  1
  Mo  Mo169  1  0.79985322  0.60567357  0.24769773  1
  Mo  Mo170  1  0.89493800  0.30157003  0.64133667  1
  Mo  Mo171  1  -0.00347930  0.79961718  0.50458188  1
  Mo  Mo172  1  0.40505896  0.79437598  0.49897515  1
  Mo  Mo173  1  -0.00671108  0.20965004  0.51601132  1
  Mo  Mo174  1  0.69856813  0.70340537  0.63152879  1
  Mo  Mo175  1  0.40851033  -0.00731439  0.24966872  1
  Mo  Mo176  1  0.67981475  0.89939214  0.87565061  1
  Mo  Mo177  1  0.79748591  -0.00237505  0.74902026  1
  Mo  Mo178  1  0.20780076  -0.00367080  0.49782886  1
  Mo  Mo179  1  0.10390166  0.69188761  0.39202832  1
  Mo  Mo180  1  0.00069181  0.60512665  -0.00443225  1
  Mo  Mo181  1  0.88667157  0.91375489  0.87950388  1
  Mo  Mo182  1  0.59629119  -0.00406631  0.49061643  1
  Mo  Mo183  1  0.39454598  0.60029340  0.00647856  1
  Mo  Mo184  1  0.69656000  0.49348461  0.86547976  1
  Mo  Mo185  1  0.59365891  0.80657205  0.01308844  1
  Mo  Mo186  1  0.40492478  0.39345202  0.49495720  1
  Mo  Mo187  1  0.49957826  0.49708668  0.63505006  1
  Mo  Mo188  1  0.09556379  0.09731070  0.12454502  1
  Mo  Mo189  1  0.69550790  0.69495062  0.87055695  1
  Mo  Mo190  1  0.78984084  0.00250464  0.00125936  1
  Mo  Mo191  1  0.10560387  0.30348263  0.62463471  1
  Mo  Mo192  1  -0.00341064  0.00179554  0.49711355  1
  Mo  Mo193  1  0.79827864  0.20477288  0.51386404  1
  Mo  Mo194  1  0.30146754  0.49178092  0.38271631  1
  Mo  Mo195  1  0.41342086  0.20342869  0.25707936  1
  Mo  Mo196  1  0.19722132  0.39391474  0.25629225  1
  Mo  Mo197  1  0.40012276  0.60040709  0.23806115  1
  Mo  Mo198  1  0.79439638  0.20206659  0.23672233  1
  Mo  Mo199  1  0.60477314  0.19826271  0.75729227  1
