# generated using pymatgen
data_HfZrTaTiMo
_symmetry_space_group_name_H-M   'P 1'
_cell_length_a   15.21402573
_cell_length_b   15.21024117
_cell_length_c   16.83404162
_cell_angle_alpha   90.00241286
_cell_angle_beta   90.04824950
_cell_angle_gamma   90.09159086
_symmetry_Int_Tables_number   1
_chemical_formula_structural   HfZrTaTiMo
_chemical_formula_sum   'Hf40 Zr40 Ta40 Ti40 Mo40'
_cell_volume   3895.54238207
_cell_formula_units_Z   40
loop_
 _symmetry_equiv_pos_site_id
 _symmetry_equiv_pos_as_xyz
  1  'x, y, z'
loop_
 _atom_site_type_symbol
 _atom_site_label
 _atom_site_symmetry_multiplicity
 _atom_site_fract_x
 _atom_site_fract_y
 _atom_site_fract_z
 _atom_site_occupancy
  Hf  Hf0  1  0.89561703  0.88056401  0.62222245  1
  Hf  Hf1  1  0.40991682  0.00226169  0.74783899  1
  Hf  Hf2  1  0.58722691  0.60092332  0.00307838  1
  Hf  Hf3  1  0.70451100  0.50103521  0.88738033  1
  Hf  Hf4  1  0.90446596  0.30185651  0.37761428  1
  Hf  Hf5  1  0.71369827  0.50472591  0.11037280  1
  Hf  Hf6  1  0.71053504  0.91857037  0.87779140  1
  Hf  Hf7  1  0.40310473  0.19858564  0.26215132  1
  Hf  Hf8  1  0.80334998  0.80295425  0.00209721  1
  Hf  Hf9  1  0.20520319  0.39285946  0.26187135  1
  Hf  Hf10  1  0.30572257  0.50623995  0.62676397  1
  Hf  Hf11  1  -0.02741143  -0.00884088  0.76553922  1
  Hf  Hf12  1  0.50700668  0.91097980  0.62052717  1
  Hf  Hf13  1  0.71385675  0.50601330  0.37308372  1
  Hf  Hf14  1  0.79116568  0.19023962  0.49830743  1
  Hf  Hf15  1  0.60175688  0.40332544  0.75436274  1
  Hf  Hf16  1  0.69290688  0.28652064  0.63048482  1
  Hf  Hf17  1  0.20196839  0.39956843  -0.00367753  1
  Hf  Hf18  1  0.89916077  0.88806378  0.37259912  1
  Hf  Hf19  1  0.17328599  0.21070308  0.48747532  1
  Hf  Hf20  1  0.09324750  0.30257670  0.64203553  1
  Hf  Hf21  1  0.18237872  0.81176032  0.48657353  1
  Hf  Hf22  1  0.08566802  0.30896756  0.86328351  1
  Hf  Hf23  1  0.20200725  0.01180933  0.75132989  1
  Hf  Hf24  1  0.30585793  0.50431329  0.12988101  1
  Hf  Hf25  1  0.61913046  0.60709154  0.49701562  1
  Hf  Hf26  1  0.00253209  0.39363764  0.50359172  1
  Hf  Hf27  1  0.60139973  -0.00986793  0.23206337  1
  Hf  Hf28  1  0.29058209  0.30458067  0.63340446  1
  Hf  Hf29  1  0.70022667  0.30062257  0.37001318  1
  Hf  Hf30  1  0.10128826  0.89938832  0.87697876  1
  Hf  Hf31  1  0.31225626  0.10099890  0.88110038  1
  Hf  Hf32  1  0.80479346  0.40351269  0.23757804  1
  Hf  Hf33  1  0.60544118  0.81309075  0.49987426  1
  Hf  Hf34  1  0.08441038  0.10458335  0.62521330  1
  Hf  Hf35  1  0.10292911  0.50965190  0.61769074  1
  Hf  Hf36  1  0.00720062  0.41035034  0.23838150  1
  Hf  Hf37  1  0.28910278  0.91672757  0.37145195  1
  Hf  Hf38  1  0.10168842  0.09826169  0.11881814  1
  Hf  Hf39  1  0.79107176  0.19008600  0.00729266  1
  Zr  Zr40  1  0.71363982  0.70391248  0.63779174  1
  Zr  Zr41  1  0.78861903  0.81284399  0.23695122  1
  Zr  Zr42  1  0.40699777  0.41169662  0.49193015  1
  Zr  Zr43  1  0.09512249  0.69323620  0.13460053  1
  Zr  Zr44  1  -0.00315929  0.59176794  0.75557790  1
  Zr  Zr45  1  0.51585782  0.10956785  0.60781917  1
  Zr  Zr46  1  0.89114540  0.68438189  0.13185924  1
  Zr  Zr47  1  0.09898636  0.69581652  0.87745697  1
  Zr  Zr48  1  0.20126672  0.18733113  0.26449396  1
  Zr  Zr49  1  0.19679682  0.19981167  -0.00894719  1
  Zr  Zr50  1  0.00064023  -0.01353224  0.24766643  1
  Zr  Zr51  1  0.50918533  0.50732356  0.62719402  1
  Zr  Zr52  1  0.19427423  0.61188663  0.48194582  1
  Zr  Zr53  1  0.10642518  0.89432812  0.12455172  1
  Zr  Zr54  1  0.42070305  0.40151180  0.25187810  1
  Zr  Zr55  1  0.20208445  0.59620889  0.00340831  1
  Zr  Zr56  1  0.00502644  0.20136757  0.25267977  1
  Zr  Zr57  1  0.40213108  0.21310936  0.50341459  1
  Zr  Zr58  1  0.29569588  0.70523943  0.62017360  1
  Zr  Zr59  1  0.40878146  0.40631853  0.00365697  1
  Zr  Zr60  1  0.31042176  0.89432950  0.88182126  1
  Zr  Zr61  1  0.49437161  0.30123866  0.86797188  1
  Zr  Zr62  1  0.30888679  0.28743639  0.12708042  1
  Zr  Zr63  1  0.48956841  0.10710607  0.12276930  1
  Zr  Zr64  1  0.30055557  0.71807938  0.13933154  1
  Zr  Zr65  1  0.79603843  0.78039070  0.48881410  1
  Zr  Zr66  1  0.30112942  0.90319260  0.61492156  1
  Zr  Zr67  1  0.49750616  0.71065544  0.62657862  1
  Zr  Zr68  1  -0.02499630  0.19560234  0.76675553  1
  Zr  Zr69  1  0.90421374  0.09228599  0.37853306  1
  Zr  Zr70  1  0.09260361  0.90098062  0.63168728  1
  Zr  Zr71  1  0.90754893  0.47990845  0.88252107  1
  Zr  Zr72  1  0.40426080  0.61230621  0.47640881  1
  Zr  Zr73  1  0.19101235  0.59285320  0.25906902  1
  Zr  Zr74  1  0.60844449  0.59529171  0.23874444  1
  Zr  Zr75  1  0.81589266  0.38841774  0.74600793  1
  Zr  Zr76  1  0.39951060  0.19636252  0.74038101  1
  Zr  Zr77  1  0.51113317  0.08842306  0.38711355  1
  Zr  Zr78  1  0.40526503  0.60422647  0.26329458  1
  Zr  Zr79  1  0.60644766  0.61396944  0.75959086  1
  Ta  Ta80  1  0.80060556  0.40125827  0.51054579  1
  Ta  Ta81  1  -0.00723150  0.59062472  0.00269325  1
  Ta  Ta82  1  0.79715934  0.19280785  0.24116569  1
  Ta  Ta83  1  0.52662214  0.71925692  0.36301897  1
  Ta  Ta84  1  0.29289992  0.30444739  0.85659028  1
  Ta  Ta85  1  0.30241375  0.09809648  0.39801222  1
  Ta  Ta86  1  0.70402429  0.09068724  0.36329874  1
  Ta  Ta87  1  0.49217436  0.71608501  0.88126015  1
  Ta  Ta88  1  0.08627377  0.70498169  0.62726018  1
  Ta  Ta89  1  0.60621012  0.01211285  0.75899300  1
  Ta  Ta90  1  0.60593578  0.01243356  0.01061390  1
  Ta  Ta91  1  0.70389223  0.90603716  0.63948899  1
  Ta  Ta92  1  0.52139641  0.49557202  0.37569651  1
  Ta  Ta93  1  0.39814737  0.60673904  0.75663505  1
  Ta  Ta94  1  0.89720821  0.09002589  0.12742187  1
  Ta  Ta95  1  0.20805138  0.79857498  0.00067343  1
  Ta  Ta96  1  -0.01181245  0.19660083  -0.00799386  1
  Ta  Ta97  1  0.20135262  0.79812907  0.75106640  1
  Ta  Ta98  1  0.69157628  0.70757608  0.11608587  1
  Ta  Ta99  1  0.40323694  0.81137299  0.47839981  1
  Ta  Ta100  1  0.51596698  0.30015000  0.37924412  1
  Ta  Ta101  1  0.50342356  0.91573529  0.89002963  1
  Ta  Ta102  1  -0.00337497  0.79548083  -0.00155823  1
  Ta  Ta103  1  0.78727132  -0.01643002  0.49659661  1
  Ta  Ta104  1  0.59600647  0.80919001  0.00325300  1
  Ta  Ta105  1  0.09016464  0.49938221  0.38101387  1
  Ta  Ta106  1  0.30432638  0.69875179  0.87570348  1
  Ta  Ta107  1  0.89927267  0.28102095  0.61854745  1
  Ta  Ta108  1  0.10284818  0.29909836  0.12085756  1
  Ta  Ta109  1  0.90437816  0.50359995  0.37630279  1
  Ta  Ta110  1  0.20551888  0.40558726  0.48616879  1
  Ta  Ta111  1  0.59745201  0.20485985  -0.00124598  1
  Ta  Ta112  1  0.68098063  0.89493937  0.36445963  1
  Ta  Ta113  1  0.49255787  0.51051905  0.87138754  1
  Ta  Ta114  1  0.19700745  0.41422829  0.75385555  1
  Ta  Ta115  1  0.30446325  0.90876000  0.12587629  1
  Ta  Ta116  1  0.70917478  0.29533124  0.87670918  1
  Ta  Ta117  1  0.80887499  0.80065632  0.76838382  1
  Ta  Ta118  1  -0.01119776  -0.00340793  -0.00575711  1
  Ta  Ta119  1  0.28976103  0.10006674  0.60574536  1
  Ti  Ti120  1  0.89079513  0.68484128  0.35323155  1
  Ti  Ti121  1  0.79981204  -0.00220494  0.01506345  1
  Ti  Ti122  1  0.29694946  0.09188758  0.11942121  1
  Ti  Ti123  1  -0.00814267  0.77599821  0.49505799  1
  Ti  Ti124  1  0.39406730  0.00592403  0.25247122  1
  Ti  Ti125  1  0.59904150  0.20582198  0.24390907  1
  Ti  Ti126  1  0.39720371  0.60880265  0.00105568  1
  Ti  Ti127  1  0.07741822  0.70535641  0.35633894  1
  Ti  Ti128  1  0.71024352  0.50037634  0.62870726  1
  Ti  Ti129  1  0.41059316  0.81728532  0.25847394  1
  Ti  Ti130  1  0.80691746  0.38810783  0.00591530  1
  Ti  Ti131  1  0.80800924  0.60328684  0.75790151  1
  Ti  Ti132  1  0.10803351  0.07341738  0.38069916  1
  Ti  Ti133  1  0.60023524  0.19327752  0.76338472  1
  Ti  Ti134  1  0.30504615  0.50143679  0.86693734  1
  Ti  Ti135  1  0.40517715  0.20301957  -0.00369226  1
  Ti  Ti136  1  0.88996893  0.08453501  0.61763231  1
  Ti  Ti137  1  0.68932574  0.29884775  0.12780762  1
  Ti  Ti138  1  0.60992620  0.39651042  0.50703735  1
  Ti  Ti139  1  0.81955087  0.59649327  0.50623558  1
  Ti  Ti140  1  0.30514048  0.30360360  0.38017628  1
  Ti  Ti141  1  0.20221516  -0.00198021  -0.00426110  1
  Ti  Ti142  1  0.49772138  0.31183035  0.63158091  1
  Ti  Ti143  1  0.90646750  0.50052062  0.62458763  1
  Ti  Ti144  1  0.59914178  0.81372573  0.76307814  1
  Ti  Ti145  1  0.00216168  -0.01220035  0.49733901  1
  Ti  Ti146  1  -0.00814489  0.78780333  0.76165562  1
  Ti  Ti147  1  0.70105442  0.08972839  0.62384925  1
  Ti  Ti148  1  0.29421176  0.71577955  0.35883381  1
  Ti  Ti149  1  0.90417531  0.29260021  0.12294194  1
  Ti  Ti150  1  0.69859686  0.70581128  0.88411168  1
  Ti  Ti151  1  0.78984514  0.17288113  0.76081750  1
  Ti  Ti152  1  0.49361521  0.70241612  0.12643845  1
  Ti  Ti153  1  0.09683221  0.10200822  0.87468437  1
  Ti  Ti154  1  0.00420517  0.39366977  0.01168664  1
  Ti  Ti155  1  0.59914007  0.39404798  -0.00011451  1
  Ti  Ti156  1  0.10525137  0.49911285  0.87387466  1
  Ti  Ti157  1  0.20184231  0.60896423  0.75100534  1
  Ti  Ti158  1  0.40221494  0.80263711  0.75241736  1
  Ti  Ti159  1  0.49029520  0.89686183  0.11226105  1
  Mo  Mo160  1  0.69211599  0.10350498  0.88084577  1
  Mo  Mo161  1  0.90557530  0.89920118  0.11868050  1
  Mo  Mo162  1  0.80354729  0.59601522  0.24596837  1
  Mo  Mo163  1  0.90173996  0.89091739  0.88263684  1
  Mo  Mo164  1  0.79655913  0.00442355  0.24122112  1
  Mo  Mo165  1  0.20845436  0.00304351  0.24703970  1
  Mo  Mo166  1  0.89020954  0.68987954  0.88544830  1
  Mo  Mo167  1  0.70037028  0.10568005  0.13496349  1
  Mo  Mo168  1  0.69713256  0.90537471  0.11202618  1
  Mo  Mo169  1  0.90590267  0.69217666  0.63111392  1
  Mo  Mo170  1  0.88227018  0.08641468  0.88884574  1
  Mo  Mo171  1  -0.00435024  0.39950298  0.73943003  1
  Mo  Mo172  1  0.60590015  0.39444864  0.24434063  1
  Mo  Mo173  1  0.19664745  0.19818673  0.75690509  1
  Mo  Mo174  1  0.58998925  0.79896472  0.22790854  1
  Mo  Mo175  1  0.90566368  0.48914455  0.10834712  1
  Mo  Mo176  1  0.19052782  0.00573707  0.50440862  1
  Mo  Mo177  1  0.19287010  0.81059934  0.26114738  1
  Mo  Mo178  1  0.60975139  0.20684401  0.49663915  1
  Mo  Mo179  1  0.61636987  0.00244646  0.49583724  1
  Mo  Mo180  1  0.50687929  0.49704826  0.12024051  1
  Mo  Mo181  1  0.40359826  0.79689301  0.00504677  1
  Mo  Mo182  1  0.79634810  -0.00011521  0.74761855  1
  Mo  Mo183  1  0.79883691  0.60165908  -0.00943203  1
  Mo  Mo184  1  -0.00394313  0.79251649  0.24937104  1
  Mo  Mo185  1  0.50997151  0.30396202  0.12180766  1
  Mo  Mo186  1  0.40021611  0.00159165  0.00611093  1
  Mo  Mo187  1  0.50582838  0.09787879  0.88606761  1
  Mo  Mo188  1  0.39556238  0.41206472  0.75149565  1
  Mo  Mo189  1  0.10001628  0.49149418  0.11882390  1
  Mo  Mo190  1  0.89179616  0.29183174  0.88745792  1
  Mo  Mo191  1  0.09139755  0.89354956  0.37182796  1
  Mo  Mo192  1  0.30284995  0.50237676  0.37593373  1
  Mo  Mo193  1  -0.00850369  0.58855233  0.24879279  1
  Mo  Mo194  1  -0.00682334  0.60453392  0.49718252  1
  Mo  Mo195  1  0.49715821  0.90352736  0.36914017  1
  Mo  Mo196  1  0.40025570  -0.00216583  0.50104672  1
  Mo  Mo197  1  0.09601853  0.30588230  0.37627075  1
  Mo  Mo198  1  -0.01097304  0.19165432  0.50310026  1
  Mo  Mo199  1  0.70479926  0.70249884  0.36433549  1
