# generated using pymatgen
data_HfZrTaTiMo
_symmetry_space_group_name_H-M   'P 1'
_cell_length_a   15.20511430
_cell_length_b   15.20106274
_cell_length_c   16.82036525
_cell_angle_alpha   89.94521267
_cell_angle_beta   89.98193389
_cell_angle_gamma   90.12463776
_symmetry_Int_Tables_number   1
_chemical_formula_structural   HfZrTaTiMo
_chemical_formula_sum   'Hf40 Zr40 Ta40 Ti40 Mo40'
_cell_volume   3887.74538884
_cell_formula_units_Z   40
loop_
 _symmetry_equiv_pos_site_id
 _symmetry_equiv_pos_as_xyz
  1  'x, y, z'
loop_
 _atom_site_type_symbol
 _atom_site_label
 _atom_site_symmetry_multiplicity
 _atom_site_fract_x
 _atom_site_fract_y
 _atom_site_fract_z
 _atom_site_occupancy
  Hf  Hf0  1  0.30464237  0.48053747  0.60555483  1
  Hf  Hf1  1  0.09437626  0.68867940  0.11729956  1
  Hf  Hf2  1  0.79771095  0.79425522  0.25916252  1
  Hf  Hf3  1  0.11677768  0.48224879  0.87769805  1
  Hf  Hf4  1  0.50556971  0.11019913  0.63185897  1
  Hf  Hf5  1  0.59955985  0.01330150  0.01216730  1
  Hf  Hf6  1  0.20156764  0.37394179  0.74193465  1
  Hf  Hf7  1  0.19709220  0.79745951  0.51013271  1
  Hf  Hf8  1  0.68160533  0.90261344  0.37118952  1
  Hf  Hf9  1  0.69431014  0.90126333  0.62443044  1
  Hf  Hf10  1  0.19509285  0.18584277  0.47926903  1
  Hf  Hf11  1  0.59056956  0.40948674  0.75083570  1
  Hf  Hf12  1  0.00218704  0.58954129  0.25381618  1
  Hf  Hf13  1  0.79897972  0.39543749  0.75677586  1
  Hf  Hf14  1  0.89050507  0.70130621  0.63178855  1
  Hf  Hf15  1  0.89809732  0.47428434  0.38137886  1
  Hf  Hf16  1  0.58591935  0.80700154  0.49921323  1
  Hf  Hf17  1  0.79308431  0.79063621  0.48311622  1
  Hf  Hf18  1  0.50213588  0.89858596  0.89215776  1
  Hf  Hf19  1  0.31323203  0.49402922  0.13077076  1
  Hf  Hf20  1  0.89414622  0.90200151  0.62241896  1
  Hf  Hf21  1  0.00120541  -0.00971830  0.24516401  1
  Hf  Hf22  1  0.71022267  0.90524575  0.89872909  1
  Hf  Hf23  1  0.19561181  0.20873106  0.26268540  1
  Hf  Hf24  1  0.20680308  0.40028593  0.26356562  1
  Hf  Hf25  1  0.40381124  0.00042513  0.76214706  1
  Hf  Hf26  1  0.89863685  0.29217089  0.87849385  1
  Hf  Hf27  1  -0.00677388  0.79358230  0.25151791  1
  Hf  Hf28  1  0.29702978  0.89152251  0.88294137  1
  Hf  Hf29  1  0.89728557  0.09646354  0.11625415  1
  Hf  Hf30  1  0.79849201  -0.00619537  0.24731980  1
  Hf  Hf31  1  0.59504542  0.21684436  0.00689050  1
  Hf  Hf32  1  0.09347607  0.10937021  0.12188735  1
  Hf  Hf33  1  0.70507080  0.10560744  0.63746634  1
  Hf  Hf34  1  0.29699460  0.11838096  0.12745948  1
  Hf  Hf35  1  0.69804254  0.69483757  0.12110797  1
  Hf  Hf36  1  0.09274752  0.89549943  0.63427720  1
  Hf  Hf37  1  0.41075184  0.40695853  0.26242937  1
  Hf  Hf38  1  0.00328998  0.39423590  0.74793217  1
  Hf  Hf39  1  0.90527694  0.30021701  0.13182875  1
  Zr  Zr40  1  0.78999727  0.21128768  0.00865032  1
  Zr  Zr41  1  0.31354617  0.67432838  0.86073323  1
  Zr  Zr42  1  0.29510604  0.90520952  0.36897993  1
  Zr  Zr43  1  0.30592529  0.28790653  0.59997882  1
  Zr  Zr44  1  0.40183393  0.42042534  -0.00948314  1
  Zr  Zr45  1  -0.00269705  0.00361606  0.49368938  1
  Zr  Zr46  1  0.00367345  0.59621860  0.73858380  1
  Zr  Zr47  1  0.49510687  0.11571849  0.14018148  1
  Zr  Zr48  1  0.31047702  0.70654439  0.36255686  1
  Zr  Zr49  1  0.19261627  0.60153769  0.51817112  1
  Zr  Zr50  1  0.50457220  0.50355863  0.39030635  1
  Zr  Zr51  1  0.09229988  0.30161461  0.60141460  1
  Zr  Zr52  1  0.09677002  0.10137879  0.62736665  1
  Zr  Zr53  1  0.81010871  -0.00550671  0.75897307  1
  Zr  Zr54  1  -0.00004070  0.59174553  0.51269712  1
  Zr  Zr55  1  0.89454100  0.89156860  0.10216896  1
  Zr  Zr56  1  0.80855637  0.22132633  0.48968614  1
  Zr  Zr57  1  0.68685715  0.11359473  0.35276728  1
  Zr  Zr58  1  0.79857063  0.59819645  0.48872963  1
  Zr  Zr59  1  0.30383281  0.69755229  0.64729570  1
  Zr  Zr60  1  0.01522099  0.38951104  0.24869841  1
  Zr  Zr61  1  0.48924899  0.90486105  0.35578057  1
  Zr  Zr62  1  0.21454465  0.58638290  0.00637737  1
  Zr  Zr63  1  0.70666545  0.11950570  0.87001144  1
  Zr  Zr64  1  0.79916694  0.59647115  0.25971523  1
  Zr  Zr65  1  0.10576013  0.69012345  0.87182426  1
  Zr  Zr66  1  0.30319982  0.90117037  0.63732768  1
  Zr  Zr67  1  0.69510673  0.50000609  0.87921166  1
  Zr  Zr68  1  0.70142303  0.49135732  0.12107886  1
  Zr  Zr69  1  0.10493060  0.69202450  0.37197664  1
  Zr  Zr70  1  0.09438750  0.90801807  0.88677770  1
  Zr  Zr71  1  0.39137563  0.21645189  0.75777501  1
  Zr  Zr72  1  0.50967299  0.50552949  0.61386693  1
  Zr  Zr73  1  0.29174418  0.10712044  0.88329871  1
  Zr  Zr74  1  0.40697239  0.62434887  0.50477236  1
  Zr  Zr75  1  0.78650928  0.01287756  0.49060059  1
  Zr  Zr76  1  0.69918256  0.30211292  0.62855388  1
  Zr  Zr77  1  0.29878155  0.09959369  0.62807512  1
  Zr  Zr78  1  0.41640730  0.00877266  0.49782784  1
  Zr  Zr79  1  0.19929891  0.80521572  0.23194501  1
  Ta  Ta80  1  0.80773728  0.60566570  -0.00806107  1
  Ta  Ta81  1  0.39466252  0.41193364  0.75461816  1
  Ta  Ta82  1  0.50852595  0.70580801  0.35772975  1
  Ta  Ta83  1  -0.01578637  0.78204202  -0.01775210  1
  Ta  Ta84  1  0.79632876  0.79374487  0.76557100  1
  Ta  Ta85  1  0.90363592  0.11375122  0.35863806  1
  Ta  Ta86  1  0.90720112  0.08610775  0.89580415  1
  Ta  Ta87  1  0.69821301  0.89876050  0.11458715  1
  Ta  Ta88  1  0.49992921  0.30995859  0.87636799  1
  Ta  Ta89  1  0.59964342  0.18942128  0.49419881  1
  Ta  Ta90  1  0.61315904  0.61519949  0.49715908  1
  Ta  Ta91  1  0.48899818  0.88967239  0.12079009  1
  Ta  Ta92  1  0.70903996  0.51120313  0.62696217  1
  Ta  Ta93  1  0.51718253  0.29533280  0.37543612  1
  Ta  Ta94  1  0.59898419  0.00254747  0.76320776  1
  Ta  Ta95  1  0.19212944  0.00693249  0.76052212  1
  Ta  Ta96  1  0.20030079  0.00241735  0.01316076  1
  Ta  Ta97  1  0.90212656  0.11009591  0.62978646  1
  Ta  Ta98  1  0.19546834  -0.00205011  0.23316475  1
  Ta  Ta99  1  0.20313425  0.58854055  0.24466575  1
  Ta  Ta100  1  0.41724863  0.79548904  0.75908426  1
  Ta  Ta101  1  0.58125304  0.59799010  0.00209407  1
  Ta  Ta102  1  0.59124947  0.79021104  0.01048271  1
  Ta  Ta103  1  0.39680131  0.00414328  0.00875855  1
  Ta  Ta104  1  0.09792083  0.09015438  0.36404451  1
  Ta  Ta105  1  0.39440519  0.21729985  0.00047598  1
  Ta  Ta106  1  0.49874166  0.11016457  0.88167360  1
  Ta  Ta107  1  -0.01495848  0.80472432  0.76722754  1
  Ta  Ta108  1  0.71357048  0.31328500  0.35311719  1
  Ta  Ta109  1  0.31205105  0.30282136  0.39118132  1
  Ta  Ta110  1  0.20053207  -0.00626331  0.49609599  1
  Ta  Ta111  1  0.49708707  0.30507978  0.60863827  1
  Ta  Ta112  1  0.90884599  0.50140977  0.11750093  1
  Ta  Ta113  1  -0.00290284  0.79143407  0.49573767  1
  Ta  Ta114  1  0.60581931  0.80932426  0.75860812  1
  Ta  Ta115  1  0.29867905  0.50518967  0.38840875  1
  Ta  Ta116  1  0.49521787  0.31959664  0.13349791  1
  Ta  Ta117  1  0.69116984  0.70193387  0.88408149  1
  Ta  Ta118  1  0.89638943  0.69185581  0.11873828  1
  Ta  Ta119  1  0.10095538  0.89697293  0.37509110  1
  Ti  Ti120  1  0.59816021  0.79704506  0.23645287  1
  Ti  Ti121  1  0.90702840  0.50090429  0.87796414  1
  Ti  Ti122  1  -0.00087576  0.00323607  0.76020575  1
  Ti  Ti123  1  0.30957969  0.70191898  0.13258102  1
  Ti  Ti124  1  0.30713523  0.09558274  0.36105417  1
  Ti  Ti125  1  0.01346454  0.40027879  0.00405256  1
  Ti  Ti126  1  0.60046820  0.21228042  0.75901466  1
  Ti  Ti127  1  0.79780240  0.60101957  0.75983518  1
  Ti  Ti128  1  0.89857269  0.47967444  0.61509202  1
  Ti  Ti129  1  0.39815146  0.78251720  0.00152217  1
  Ti  Ti130  1  0.48659254  0.52582083  0.86716489  1
  Ti  Ti131  1  0.19000543  0.79757421  0.75324370  1
  Ti  Ti132  1  0.10113067  0.11159477  0.88689936  1
  Ti  Ti133  1  0.90268555  0.90022106  0.37883977  1
  Ti  Ti134  1  0.38647659  -0.00908057  0.23011715  1
  Ti  Ti135  1  0.69699831  0.30208964  0.15060030  1
  Ti  Ti136  1  0.49045725  0.68484982  0.13800692  1
  Ti  Ti137  1  0.59438955  -0.00548531  0.23132199  1
  Ti  Ti138  1  0.49508973  0.10400214  0.35360221  1
  Ti  Ti139  1  0.60038554  0.40268297  -0.00239843  1
  Ti  Ti140  1  0.58936309  0.58822741  0.24827710  1
  Ti  Ti141  1  0.00143558  0.58925058  -0.00352803  1
  Ti  Ti142  1  0.10148510  0.48533342  0.39186822  1
  Ti  Ti143  1  0.09254666  0.89567591  0.10612042  1
  Ti  Ti144  1  0.69713271  0.70303428  0.63228078  1
  Ti  Ti145  1  0.39635472  0.81200028  0.50501806  1
  Ti  Ti146  1  0.70090574  0.10819617  0.13750177  1
  Ti  Ti147  1  0.28275568  0.30877547  0.88357869  1
  Ti  Ti148  1  0.62071765  0.39708491  0.49836573  1
  Ti  Ti149  1  0.50404271  0.90794668  0.63331548  1
  Ti  Ti150  1  0.69618093  0.49571706  0.36999969  1
  Ti  Ti151  1  0.00969707  0.20949021  -0.00276312  1
  Ti  Ti152  1  0.20240521  0.79432264  0.00592438  1
  Ti  Ti153  1  0.50811873  0.71178027  0.63316530  1
  Ti  Ti154  1  0.00574289  0.19589830  0.76078881  1
  Ti  Ti155  1  0.59871251  0.61506091  0.75224308  1
  Ti  Ti156  1  0.89912968  0.29151976  0.62802710  1
  Ti  Ti157  1  0.80452885  0.40393371  -0.00488739  1
  Ti  Ti158  1  0.20274304  0.57315503  0.73413237  1
  Ti  Ti159  1  0.12323869  0.30617905  0.11810526  1
  Mo  Mo160  1  0.40453831  0.79949256  0.23331215  1
  Mo  Mo161  1  0.50735302  0.70400993  0.87409588  1
  Mo  Mo162  1  0.79312747  0.78934878  -0.00298058  1
  Mo  Mo163  1  0.20583131  0.38792599  0.00518493  1
  Mo  Mo164  1  0.69096712  0.30775092  0.87490100  1
  Mo  Mo165  1  0.18713053  0.19616486  0.75486080  1
  Mo  Mo166  1  0.50682100  0.50454498  0.12679759  1
  Mo  Mo167  1  0.39565902  0.20800985  0.26638005  1
  Mo  Mo168  1  -0.01492709  0.38131878  0.49632407  1
  Mo  Mo169  1  0.68343310  0.69437535  0.36384116  1
  Mo  Mo170  1  0.79467117  0.00637651  0.00927548  1
  Mo  Mo171  1  0.89287324  0.68807061  0.86823292  1
  Mo  Mo172  1  -0.00771832  0.19193906  0.49125905  1
  Mo  Mo173  1  0.90311395  0.70199113  0.37849566  1
  Mo  Mo174  1  0.41324526  0.59314234  0.73610183  1
  Mo  Mo175  1  0.59571055  0.00817206  0.50137807  1
  Mo  Mo176  1  0.00620793  0.19442607  0.24673600  1
  Mo  Mo177  1  0.29660067  0.89882167  0.10713921  1
  Mo  Mo178  1  0.09823983  0.29098497  0.88061736  1
  Mo  Mo179  1  0.31284508  0.29960986  0.12944578  1
  Mo  Mo180  1  0.40597965  0.61128037  0.00428478  1
  Mo  Mo181  1  0.89898477  0.89629867  0.88977287  1
  Mo  Mo182  1  0.80293203  0.20156745  0.24011910  1
  Mo  Mo183  1  0.80763278  0.40593270  0.24061502  1
  Mo  Mo184  1  0.41466932  0.39738367  0.48797369  1
  Mo  Mo185  1  0.41345134  0.19460423  0.47930851  1
  Mo  Mo186  1  0.10084114  0.49423664  0.12016146  1
  Mo  Mo187  1  0.20086519  0.20912098  0.00438838  1
  Mo  Mo188  1  0.59348365  0.21094286  0.24448747  1
  Mo  Mo189  1  0.00574686  0.00095546  -0.00016989  1
  Mo  Mo190  1  0.30118082  0.49460717  0.86529962  1
  Mo  Mo191  1  0.60526835  0.40722633  0.25365632  1
  Mo  Mo192  1  0.09821817  0.49028930  0.61867880  1
  Mo  Mo193  1  0.09248535  0.70601630  0.64345308  1
  Mo  Mo194  1  0.19755766  0.39705175  0.48379852  1
  Mo  Mo195  1  0.81752407  0.19960586  0.75359639  1
  Mo  Mo196  1  0.89865310  0.29209647  0.35467130  1
  Mo  Mo197  1  0.39588363  0.60076858  0.25666207  1
  Mo  Mo198  1  0.08601472  0.29383499  0.38973345  1
  Mo  Mo199  1  0.79384361  0.40209877  0.50229973  1
