# generated using pymatgen
data_HfZrTaTiMo
_symmetry_space_group_name_H-M   'P 1'
_cell_length_a   15.20705379
_cell_length_b   15.20865060
_cell_length_c   16.86648565
_cell_angle_alpha   90.00210187
_cell_angle_beta   90.03026216
_cell_angle_gamma   90.12554557
_symmetry_Int_Tables_number   1
_chemical_formula_structural   HfZrTaTiMo
_chemical_formula_sum   'Hf40 Zr40 Ta40 Ti40 Mo40'
_cell_volume   3900.85010332
_cell_formula_units_Z   40
loop_
 _symmetry_equiv_pos_site_id
 _symmetry_equiv_pos_as_xyz
  1  'x, y, z'
loop_
 _atom_site_type_symbol
 _atom_site_label
 _atom_site_symmetry_multiplicity
 _atom_site_fract_x
 _atom_site_fract_y
 _atom_site_fract_z
 _atom_site_occupancy
  Hf  Hf0  1  0.50211454  0.71514140  0.62362758  1
  Hf  Hf1  1  0.10212556  0.90249729  0.37950439  1
  Hf  Hf2  1  0.89764831  0.07153924  0.38352205  1
  Hf  Hf3  1  0.79349570  0.19074219  0.25041334  1
  Hf  Hf4  1  0.08973828  0.70712899  0.86869922  1
  Hf  Hf5  1  0.20691750  0.20491744  0.74771187  1
  Hf  Hf6  1  0.68832922  0.30167060  0.38142499  1
  Hf  Hf7  1  0.71635265  0.90172803  0.39553749  1
  Hf  Hf8  1  0.29615826  0.50705114  0.63066633  1
  Hf  Hf9  1  0.60029835  0.79847186  0.26348703  1
  Hf  Hf10  1  0.70143606  0.30282000  0.61476135  1
  Hf  Hf11  1  0.60476779  0.61927481  -0.00640091  1
  Hf  Hf12  1  0.79697220  0.19199427  0.49676621  1
  Hf  Hf13  1  0.91152254  0.09179394  0.88267701  1
  Hf  Hf14  1  0.89747812  0.09971012  0.62222192  1
  Hf  Hf15  1  0.69177360  0.50736006  0.87604199  1
  Hf  Hf16  1  0.30402292  0.71765014  0.37843505  1
  Hf  Hf17  1  0.00234684  0.57531984  0.50781520  1
  Hf  Hf18  1  0.50735040  0.70391447  0.85724055  1
  Hf  Hf19  1  0.09846070  0.68766661  0.37886017  1
  Hf  Hf20  1  0.07484738  0.30728460  0.61693379  1
  Hf  Hf21  1  0.21028304  0.60257339  0.75841873  1
  Hf  Hf22  1  0.70404243  0.31335385  0.88442408  1
  Hf  Hf23  1  0.91078873  0.50680878  0.36207820  1
  Hf  Hf24  1  0.28703091  0.31471550  0.12734827  1
  Hf  Hf25  1  0.60126449  0.00554865  0.75156760  1
  Hf  Hf26  1  0.40837294  0.61141813  0.25331476  1
  Hf  Hf27  1  0.90430757  0.49798691  0.13377337  1
  Hf  Hf28  1  0.29922029  0.29423063  0.88250833  1
  Hf  Hf29  1  0.59084631  -0.00324637  0.26442505  1
  Hf  Hf30  1  0.20296771  0.59611994  0.24762714  1
  Hf  Hf31  1  0.82242166  0.22111628  -0.00251153  1
  Hf  Hf32  1  0.91493874  0.09413373  0.10990805  1
  Hf  Hf33  1  0.50381555  0.71510357  0.12481619  1
  Hf  Hf34  1  0.00849974  -0.01008786  0.24734531  1
  Hf  Hf35  1  0.10528920  0.69409433  0.63519833  1
  Hf  Hf36  1  0.70828666  0.70046349  0.40059486  1
  Hf  Hf37  1  0.18954409  0.40631450  -0.00673092  1
  Hf  Hf38  1  0.40669728  0.59060382  -0.00124909  1
  Hf  Hf39  1  0.09829204  0.68958175  0.11839697  1
  Zr  Zr40  1  0.90044015  0.47173192  0.64283098  1
  Zr  Zr41  1  0.11381275  0.09667770  0.88783638  1
  Zr  Zr42  1  0.69403673  0.49855403  0.11887659  1
  Zr  Zr43  1  0.89246442  0.47608434  0.86025663  1
  Zr  Zr44  1  0.48873256  0.28822302  0.61541503  1
  Zr  Zr45  1  0.60051901  0.20401053  0.75098639  1
  Zr  Zr46  1  0.41319351  0.81308415  -0.00299882  1
  Zr  Zr47  1  0.17866927  0.42173479  0.50443721  1
  Zr  Zr48  1  0.40375631  0.21048850  0.01389700  1
  Zr  Zr49  1  0.70118134  0.09986800  0.10190836  1
  Zr  Zr50  1  0.80219133  -0.00649962  0.24396267  1
  Zr  Zr51  1  0.00413096  0.58839608  -0.00821768  1
  Zr  Zr52  1  0.28529442  0.31363742  0.37800148  1
  Zr  Zr53  1  0.20502657  -0.00913886  0.50463110  1
  Zr  Zr54  1  0.80664477  0.41180194  0.49408182  1
  Zr  Zr55  1  0.39376120  0.38865312  0.74346285  1
  Zr  Zr56  1  -0.00718897  0.78686336  0.24733706  1
  Zr  Zr57  1  0.70138389  0.10201100  0.88862581  1
  Zr  Zr58  1  0.32663219  0.10459954  0.61034817  1
  Zr  Zr59  1  0.20034820  0.80855062  0.24321505  1
  Zr  Zr60  1  0.19460296  0.81777734  0.74609952  1
  Zr  Zr61  1  0.32311715  0.91085119  0.13902063  1
  Zr  Zr62  1  0.80586163  0.61293080  0.25397706  1
  Zr  Zr63  1  0.60054823  0.59141113  0.26119662  1
  Zr  Zr64  1  0.48285945  0.29686824  0.37986169  1
  Zr  Zr65  1  0.00890233  0.79762025  0.51951905  1
  Zr  Zr66  1  0.18367737  0.20350648  0.24450313  1
  Zr  Zr67  1  0.71150429  0.70591090  0.12626446  1
  Zr  Zr68  1  0.01155628  -0.01955327  0.73403509  1
  Zr  Zr69  1  0.58964934  0.20030155  0.25293643  1
  Zr  Zr70  1  0.89785841  0.29523825  0.36696155  1
  Zr  Zr71  1  0.29605098  0.11268746  0.38537700  1
  Zr  Zr72  1  0.30684032  0.71149794  0.87259019  1
  Zr  Zr73  1  0.21461657  0.01247426  0.74389013  1
  Zr  Zr74  1  0.69048576  0.30263271  0.11567682  1
  Zr  Zr75  1  0.68553547  0.89799299  0.11382176  1
  Zr  Zr76  1  0.90488369  0.88461448  0.86762823  1
  Zr  Zr77  1  0.60361043  0.60489582  0.73845805  1
  Zr  Zr78  1  0.50014405  0.08659225  0.11745726  1
  Zr  Zr79  1  0.00427891  0.19440008  0.75082317  1
  Ta  Ta80  1  0.39633730  0.41446747  0.25267884  1
  Ta  Ta81  1  0.21190538  -0.00280857  0.00716704  1
  Ta  Ta82  1  0.78739694  0.40211397  0.25588931  1
  Ta  Ta83  1  0.58842062  0.41040066  0.49990142  1
  Ta  Ta84  1  0.79467096  0.60010741  0.74645808  1
  Ta  Ta85  1  0.09320859  0.29315368  0.38222669  1
  Ta  Ta86  1  0.50176714  0.30330842  0.87719832  1
  Ta  Ta87  1  0.28278856  0.29867019  0.60800633  1
  Ta  Ta88  1  0.49218768  0.10323691  0.88345275  1
  Ta  Ta89  1  -0.00783157  -0.01162496  0.51274261  1
  Ta  Ta90  1  0.30458552  0.51151887  0.37892190  1
  Ta  Ta91  1  0.89796577  0.68343662  0.63243438  1
  Ta  Ta92  1  0.30207397  0.49793139  0.87096016  1
  Ta  Ta93  1  0.90219256  0.70632386  0.39076207  1
  Ta  Ta94  1  0.58673962  -0.00903528  0.49886499  1
  Ta  Ta95  1  0.39372930  0.41223595  0.50324116  1
  Ta  Ta96  1  0.57367140  0.40939150  -0.00054122  1
  Ta  Ta97  1  0.30162094  0.70300319  0.11907600  1
  Ta  Ta98  1  0.40248964  0.60506352  0.50103921  1
  Ta  Ta99  1  0.32264663  0.91321345  0.36416868  1
  Ta  Ta100  1  -0.00216021  0.18376646  0.25539757  1
  Ta  Ta101  1  0.79694480  -0.00116031  0.74350881  1
  Ta  Ta102  1  0.10546420  0.48595067  0.13040526  1
  Ta  Ta103  1  0.89686470  0.88867438  0.11074525  1
  Ta  Ta104  1  0.50324521  0.70624387  0.39291299  1
  Ta  Ta105  1  0.39069161  0.19512846  0.23882953  1
  Ta  Ta106  1  0.49446299  0.90214460  0.85811421  1
  Ta  Ta107  1  0.69273889  0.09459728  0.61655450  1
  Ta  Ta108  1  0.20205931  0.80572635  0.00312094  1
  Ta  Ta109  1  0.18943889  0.39282056  0.75340029  1
  Ta  Ta110  1  0.79455500  0.78589305  -0.01343446  1
  Ta  Ta111  1  0.09505294  0.49559666  0.86237168  1
  Ta  Ta112  1  0.10853153  0.10647940  0.60955703  1
  Ta  Ta113  1  0.49747823  0.50357847  0.62483445  1
  Ta  Ta114  1  0.80261924  0.20639619  0.74974977  1
  Ta  Ta115  1  0.01174791  0.38686711  0.24682563  1
  Ta  Ta116  1  0.60210655  0.40272484  0.74304371  1
  Ta  Ta117  1  0.80828604  0.59642776  -0.00797830  1
  Ta  Ta118  1  -0.01894376  0.38351143  0.00056456  1
  Ta  Ta119  1  0.30535182  0.50545515  0.12173710  1
  Ti  Ti120  1  0.40174648  0.18286544  0.75597844  1
  Ti  Ti121  1  -0.00307994  0.79714794  -0.00024455  1
  Ti  Ti122  1  0.69846195  0.89772619  0.61625388  1
  Ti  Ti123  1  0.30300328  0.91487850  0.87041794  1
  Ti  Ti124  1  0.20725389  0.01484786  0.24896248  1
  Ti  Ti125  1  0.58831673  0.40727576  0.25827741  1
  Ti  Ti126  1  0.10517791  0.48871071  0.36070358  1
  Ti  Ti127  1  0.20688219  0.61057560  0.50402000  1
  Ti  Ti128  1  0.80599941  -0.01559341  -0.00619384  1
  Ti  Ti129  1  0.70367589  0.50865523  0.61849982  1
  Ti  Ti130  1  0.10094820  0.90234661  0.88693408  1
  Ti  Ti131  1  0.58878431  -0.01444848  -0.01415190  1
  Ti  Ti132  1  0.20287025  0.19614082  0.00813436  1
  Ti  Ti133  1  0.69718126  0.50439662  0.38438510  1
  Ti  Ti134  1  0.60140915  0.60160445  0.50856804  1
  Ti  Ti135  1  0.09014270  0.50087579  0.65326815  1
  Ti  Ti136  1  0.31536613  0.89813360  0.63120726  1
  Ti  Ti137  1  0.49754030  0.91487055  0.63328869  1
  Ti  Ti138  1  0.39427852  0.00625805  -0.00642654  1
  Ti  Ti139  1  0.49082253  0.49682326  0.86073030  1
  Ti  Ti140  1  0.49294226  0.32091660  0.12905764  1
  Ti  Ti141  1  0.89568878  0.69024430  0.85905643  1
  Ti  Ti142  1  -0.00052423  0.19346474  0.49261118  1
  Ti  Ti143  1  0.08470893  0.29807420  0.88104091  1
  Ti  Ti144  1  0.40857844  0.82116008  0.50176574  1
  Ti  Ti145  1  0.69037825  0.09543745  0.38706112  1
  Ti  Ti146  1  0.81125871  0.80249515  0.51939663  1
  Ti  Ti147  1  0.10554432  0.09421321  0.11445536  1
  Ti  Ti148  1  0.79862485  0.79746886  0.73748526  1
  Ti  Ti149  1  0.31217266  0.70625791  0.63043891  1
  Ti  Ti150  1  0.89702829  0.30021784  0.14008858  1
  Ti  Ti151  1  0.61269314  0.80584730  0.74246177  1
  Ti  Ti152  1  0.80591814  0.80764592  0.25884596  1
  Ti  Ti153  1  0.09678465  0.89984117  0.11477525  1
  Ti  Ti154  1  0.90163193  0.69726247  0.11756678  1
  Ti  Ti155  1  0.21040873  0.80170734  0.50953786  1
  Ti  Ti156  1  0.57910818  0.18529558  0.49613337  1
  Ti  Ti157  1  0.20383967  0.60214051  -0.00671579  1
  Ti  Ti158  1  0.08326002  0.29149678  0.11779785  1
  Ti  Ti159  1  0.69963169  0.89084371  0.87138304  1
  Mo  Mo160  1  -0.00168946  0.38297812  0.75911975  1
  Mo  Mo161  1  -0.00283003  0.59637129  0.75537149  1
  Mo  Mo162  1  0.79915823  0.41173352  0.00651615  1
  Mo  Mo163  1  0.48633998  0.08955404  0.37660012  1
  Mo  Mo164  1  0.60544345  0.80978256  -0.01962902  1
  Mo  Mo165  1  0.79659297  -0.00800041  0.51586743  1
  Mo  Mo166  1  0.90430746  0.88336008  0.38426629  1
  Mo  Mo167  1  0.41001607  0.00108532  0.49668379  1
  Mo  Mo168  1  0.39656925  0.20799930  0.49677978  1
  Mo  Mo169  1  0.18870421  0.20518236  0.50209141  1
  Mo  Mo170  1  0.80662944  0.60316873  0.50722483  1
  Mo  Mo171  1  0.29341892  0.10432570  0.12806526  1
  Mo  Mo172  1  0.40227261  0.59971695  0.74494037  1
  Mo  Mo173  1  -0.00944043  0.79008646  0.73755897  1
  Mo  Mo174  1  0.50919530  0.90484342  0.12415180  1
  Mo  Mo175  1  -0.00276571  0.39394318  0.48937548  1
  Mo  Mo176  1  0.49945121  0.50474689  0.38894075  1
  Mo  Mo177  1  0.89896394  0.29151737  0.87091608  1
  Mo  Mo178  1  0.78182297  0.39115619  0.74335734  1
  Mo  Mo179  1  0.41155380  0.80483212  0.25531000  1
  Mo  Mo180  1  0.40383053  0.01110019  0.25550206  1
  Mo  Mo181  1  0.19984049  0.40440164  0.24848342  1
  Mo  Mo182  1  0.30771897  0.10033960  0.88302244  1
  Mo  Mo183  1  0.01261849  0.20102410  0.00275463  1
  Mo  Mo184  1  0.40269559  0.81035004  0.74462213  1
  Mo  Mo185  1  0.49503086  0.49968463  0.12754475  1
  Mo  Mo186  1  0.89366230  0.89279436  0.63896006  1
  Mo  Mo187  1  0.01155588  -0.01513892  0.00391492  1
  Mo  Mo188  1  0.59917134  0.80143856  0.50927274  1
  Mo  Mo189  1  0.39532590  0.40820388  -0.00401840  1
  Mo  Mo190  1  0.00722961  0.59519857  0.24982986  1
  Mo  Mo191  1  0.70711489  0.70189427  0.61152543  1
  Mo  Mo192  1  0.71302287  0.70751318  0.86557955  1
  Mo  Mo193  1  0.51009243  0.09594265  0.62435239  1
  Mo  Mo194  1  0.09043710  0.10066646  0.38635787  1
  Mo  Mo195  1  0.50141145  0.89243639  0.38215836  1
  Mo  Mo196  1  0.10817854  0.90294664  0.61707468  1
  Mo  Mo197  1  0.59618102  0.20530725  -0.00896414  1
  Mo  Mo198  1  0.89135599  0.28735865  0.62136953  1
  Mo  Mo199  1  0.40556964  0.00460940  0.75519159  1
