# generated using pymatgen
data_HfZrTaTiMo
_symmetry_space_group_name_H-M   'P 1'
_cell_length_a   15.20069437
_cell_length_b   15.21180291
_cell_length_c   16.83640203
_cell_angle_alpha   89.97665337
_cell_angle_beta   90.03419219
_cell_angle_gamma   90.03200325
_symmetry_Int_Tables_number   1
_chemical_formula_structural   HfZrTaTiMo
_chemical_formula_sum   'Hf40 Zr40 Ta40 Ti40 Mo40'
_cell_volume   3893.07906030
_cell_formula_units_Z   40
loop_
 _symmetry_equiv_pos_site_id
 _symmetry_equiv_pos_as_xyz
  1  'x, y, z'
loop_
 _atom_site_type_symbol
 _atom_site_label
 _atom_site_symmetry_multiplicity
 _atom_site_fract_x
 _atom_site_fract_y
 _atom_site_fract_z
 _atom_site_occupancy
  Hf  Hf0  1  0.41305864  0.00202730  0.50145237  1
  Hf  Hf1  1  0.30953963  0.50354402  0.39414300  1
  Hf  Hf2  1  0.19140440  0.79649181  0.50275789  1
  Hf  Hf3  1  0.40201632  0.79209574  0.74573655  1
  Hf  Hf4  1  0.49483776  0.90649642  0.14172979  1
  Hf  Hf5  1  0.30974805  0.89288627  0.61205089  1
  Hf  Hf6  1  0.59132584  0.39203984  0.24989545  1
  Hf  Hf7  1  0.19091747  0.39912612  0.26607396  1
  Hf  Hf8  1  0.08781755  0.89720222  0.10549663  1
  Hf  Hf9  1  0.62717358  0.00421096  0.24304631  1
  Hf  Hf10  1  0.89807314  0.50041987  0.35641190  1
  Hf  Hf11  1  0.29242888  0.50308329  0.86546476  1
  Hf  Hf12  1  0.40820188  0.59924910  -0.00478544  1
  Hf  Hf13  1  0.90645319  0.90027101  0.38124399  1
  Hf  Hf14  1  0.61151666  0.00014581  0.50632117  1
  Hf  Hf15  1  0.29782679  0.49604515  0.12568311  1
  Hf  Hf16  1  0.89629732  0.30329395  0.12269546  1
  Hf  Hf17  1  0.80929838  -0.00794126  0.75456982  1
  Hf  Hf18  1  0.30859681  0.69809875  0.12787416  1
  Hf  Hf19  1  0.30991708  0.89921827  0.37958711  1
  Hf  Hf20  1  0.21292445  0.00306166  0.00781165  1
  Hf  Hf21  1  0.70901470  0.50292789  0.62268152  1
  Hf  Hf22  1  0.18795411  0.80348207  0.73425528  1
  Hf  Hf23  1  0.80395094  0.40954477  0.75633690  1
  Hf  Hf24  1  0.79014514  0.19914899  0.00325562  1
  Hf  Hf25  1  0.79055100  0.61120868  0.49156146  1
  Hf  Hf26  1  0.19471504  0.19873833  0.74320310  1
  Hf  Hf27  1  0.31195895  0.10166262  0.86727077  1
  Hf  Hf28  1  0.40721734  0.20085807  0.00107145  1
  Hf  Hf29  1  0.49674312  0.50738952  0.61090114  1
  Hf  Hf30  1  0.91618374  0.10742162  0.87792776  1
  Hf  Hf31  1  0.19819477  0.60044083  0.25457684  1
  Hf  Hf32  1  0.49114727  0.30450168  0.39585724  1
  Hf  Hf33  1  0.50390415  0.90809226  0.86868058  1
  Hf  Hf34  1  0.69452561  0.09480855  0.86905011  1
  Hf  Hf35  1  0.39678828  0.41134827  0.26019252  1
  Hf  Hf36  1  0.90282555  0.08806341  0.12103061  1
  Hf  Hf37  1  0.59632651  0.40223469  0.74454540  1
  Hf  Hf38  1  0.59270100  0.41140499  0.00650347  1
  Hf  Hf39  1  0.68705038  0.50843896  0.36497141  1
  Zr  Zr40  1  0.19775331  0.20381987  0.48516281  1
  Zr  Zr41  1  0.77340081  0.78731319  -0.01404232  1
  Zr  Zr42  1  0.40288456  0.20746257  0.73901214  1
  Zr  Zr43  1  0.30010689  0.89211371  0.13716773  1
  Zr  Zr44  1  -0.00207478  0.79059194  0.24503954  1
  Zr  Zr45  1  0.19814209  -0.00443952  0.25816766  1
  Zr  Zr46  1  0.20471100  0.21082426  0.27161447  1
  Zr  Zr47  1  0.02610165  -0.01472257  0.74526328  1
  Zr  Zr48  1  0.31475487  0.30817226  0.60350675  1
  Zr  Zr49  1  0.19689137  0.40786401  0.74119719  1
  Zr  Zr50  1  0.80951762  0.21378515  0.75666807  1
  Zr  Zr51  1  0.19842139  0.59344122  -0.00000602  1
  Zr  Zr52  1  0.32536694  0.09474248  0.14495090  1
  Zr  Zr53  1  -0.00638643  0.40124273  0.49320740  1
  Zr  Zr54  1  0.90234535  0.69681829  0.37097650  1
  Zr  Zr55  1  0.29120751  0.29826359  0.12550706  1
  Zr  Zr56  1  0.91799528  0.11229241  0.63652113  1
  Zr  Zr57  1  0.68879496  0.30596207  0.88686076  1
  Zr  Zr58  1  0.78020793  0.18492034  0.23858466  1
  Zr  Zr59  1  0.28584373  0.90202072  0.86702189  1
  Zr  Zr60  1  0.71483355  0.89072765  0.62447823  1
  Zr  Zr61  1  0.19055039  0.79497026  0.26864346  1
  Zr  Zr62  1  0.79738863  0.39337916  0.48724903  1
  Zr  Zr63  1  0.60183887  -0.00115743  0.00881364  1
  Zr  Zr64  1  0.59700909  0.20659047  0.73946431  1
  Zr  Zr65  1  0.51581878  0.89560170  0.36832025  1
  Zr  Zr66  1  0.09684485  0.71162073  0.88184897  1
  Zr  Zr67  1  0.08771269  0.29260532  0.62020068  1
  Zr  Zr68  1  0.39871284  0.80622980  -0.00626376  1
  Zr  Zr69  1  0.89083980  0.69033822  0.63012141  1
  Zr  Zr70  1  0.79712844  0.59088822  0.00660924  1
  Zr  Zr71  1  0.10871889  0.08847508  0.87844335  1
  Zr  Zr72  1  0.68381548  0.69874772  0.63277794  1
  Zr  Zr73  1  0.81463234  0.00875588  0.50831591  1
  Zr  Zr74  1  -0.00523515  0.21219731  0.26142150  1
  Zr  Zr75  1  0.92659284  0.88840510  0.88837291  1
  Zr  Zr76  1  -0.00513020  0.59343673  0.01608167  1
  Zr  Zr77  1  0.80028368  -0.00982099  -0.00595890  1
  Zr  Zr78  1  0.09318508  0.08722069  0.37597038  1
  Zr  Zr79  1  0.10778025  0.11197207  0.13112010  1
  Ta  Ta80  1  0.18879314  0.60399171  0.51115847  1
  Ta  Ta81  1  0.29805911  0.69868439  0.86845929  1
  Ta  Ta82  1  0.58623759  0.60253396  0.75425733  1
  Ta  Ta83  1  0.70795630  0.10725391  0.63004063  1
  Ta  Ta84  1  0.00132952  0.40410495  0.01036283  1
  Ta  Ta85  1  0.58387741  0.61098544  0.25144071  1
  Ta  Ta86  1  0.32284228  0.10505400  0.37489032  1
  Ta  Ta87  1  0.00219614  0.40928783  0.24072979  1
  Ta  Ta88  1  0.51372534  0.71159441  0.12379093  1
  Ta  Ta89  1  -0.00804140  -0.00932034  0.24750000  1
  Ta  Ta90  1  0.20360353  0.20884825  -0.00460217  1
  Ta  Ta91  1  0.49768728  0.50062047  0.87145722  1
  Ta  Ta92  1  0.89897063  0.68139936  0.87279567  1
  Ta  Ta93  1  0.70391496  0.09586300  0.37895524  1
  Ta  Ta94  1  0.40438428  0.40537109  0.74583194  1
  Ta  Ta95  1  0.01229019  -0.00846357  0.50744828  1
  Ta  Ta96  1  0.69508958  0.50212942  0.13716694  1
  Ta  Ta97  1  0.78941034  0.80563593  0.24673906  1
  Ta  Ta98  1  0.60067189  -0.00094203  0.73741878  1
  Ta  Ta99  1  0.51589994  0.10492389  0.36997409  1
  Ta  Ta100  1  0.51192021  0.88417277  0.62035079  1
  Ta  Ta101  1  0.39020816  0.40260092  -0.00662537  1
  Ta  Ta102  1  0.40991766  0.00182176  0.73195615  1
  Ta  Ta103  1  0.91209392  0.88830132  0.62391966  1
  Ta  Ta104  1  0.41553430  0.21156610  0.25754773  1
  Ta  Ta105  1  0.09511505  0.30009621  0.87336974  1
  Ta  Ta106  1  0.80094365  0.79465699  0.76903420  1
  Ta  Ta107  1  -0.01618175  0.19888190  0.48207443  1
  Ta  Ta108  1  0.79549111  0.39100893  0.24844066  1
  Ta  Ta109  1  0.30701876  0.69606003  0.38889249  1
  Ta  Ta110  1  0.40873548  0.00725329  0.00089461  1
  Ta  Ta111  1  0.61102101  0.78493688  0.49156685  1
  Ta  Ta112  1  0.69576782  0.51134387  0.87545278  1
  Ta  Ta113  1  0.50465913  0.10474555  0.87093535  1
  Ta  Ta114  1  0.41153493  0.77939791  0.26105415  1
  Ta  Ta115  1  0.09185160  0.51841223  0.37675212  1
  Ta  Ta116  1  0.01042739  0.20785554  0.00481858  1
  Ta  Ta117  1  0.29673857  0.30500662  0.87332514  1
  Ta  Ta118  1  0.60485681  0.61601067  -0.00019524  1
  Ta  Ta119  1  -0.00733425  0.39453366  0.75104529  1
  Ti  Ti120  1  0.69605647  0.28778031  0.37243167  1
  Ti  Ti121  1  0.00213415  0.79030506  0.50567087  1
  Ti  Ti122  1  0.69974513  0.30134459  0.61885568  1
  Ti  Ti123  1  0.80004057  0.20240012  0.49677197  1
  Ti  Ti124  1  0.19053845  0.60995831  0.73369818  1
  Ti  Ti125  1  0.89457316  0.30873294  0.62394458  1
  Ti  Ti126  1  0.90663220  0.31024069  0.88692377  1
  Ti  Ti127  1  0.60132828  0.40618051  0.49838836  1
  Ti  Ti128  1  0.52132867  0.11728313  0.13524879  1
  Ti  Ti129  1  0.60279345  0.80038373  0.75732675  1
  Ti  Ti130  1  0.71508393  0.89459783  0.37866098  1
  Ti  Ti131  1  0.10638215  0.09688657  0.61478095  1
  Ti  Ti132  1  0.88888336  0.09592887  0.36561864  1
  Ti  Ti133  1  0.18631071  0.39764494  -0.00224989  1
  Ti  Ti134  1  0.68125424  0.28961407  0.11984520  1
  Ti  Ti135  1  -0.00186792  0.78746039  0.74408800  1
  Ti  Ti136  1  0.30420969  0.10324963  0.61097978  1
  Ti  Ti137  1  -0.00641836  0.58881301  0.74696082  1
  Ti  Ti138  1  0.50147652  0.68292538  0.38692075  1
  Ti  Ti139  1  0.19112069  0.40593462  0.49340450  1
  Ti  Ti140  1  0.39330875  0.60098935  0.73979081  1
  Ti  Ti141  1  0.29651296  0.50666981  0.61505426  1
  Ti  Ti142  1  0.08344370  0.49829183  0.87148617  1
  Ti  Ti143  1  0.49174411  0.30332288  0.87721931  1
  Ti  Ti144  1  0.08676208  0.49979415  0.62458176  1
  Ti  Ti145  1  0.69103128  0.87690609  0.12490520  1
  Ti  Ti146  1  0.10276474  0.70031862  0.11900018  1
  Ti  Ti147  1  0.50276637  0.69923837  0.87456403  1
  Ti  Ti148  1  0.49473635  0.51169970  0.12695928  1
  Ti  Ti149  1  0.50376405  0.10756102  0.61856070  1
  Ti  Ti150  1  -0.00233059  0.60014283  0.50788118  1
  Ti  Ti151  1  0.20141551  -0.00276176  0.49622438  1
  Ti  Ti152  1  0.49217421  0.30804968  0.12204225  1
  Ti  Ti153  1  0.21456710  0.00057562  0.73005281  1
  Ti  Ti154  1  0.80194805  0.40747580  0.00541927  1
  Ti  Ti155  1  0.79261070  0.60638304  0.24299288  1
  Ti  Ti156  1  0.60556207  0.20073241  0.50643226  1
  Ti  Ti157  1  0.89276152  0.89107402  0.11560284  1
  Ti  Ti158  1  0.88937344  0.69998225  0.12789523  1
  Ti  Ti159  1  0.79628912  0.59883743  0.75923013  1
  Mo  Mo160  1  0.90283788  0.49709107  0.62654440  1
  Mo  Mo161  1  0.60508753  0.79438988  0.26007128  1
  Mo  Mo162  1  0.39707005  0.40618898  0.50082037  1
  Mo  Mo163  1  0.80984841  -0.01391819  0.24651596  1
  Mo  Mo164  1  0.41220974  0.00553478  0.26277559  1
  Mo  Mo165  1  0.59825285  0.59884721  0.49325511  1
  Mo  Mo166  1  0.59767479  0.20652600  0.25347554  1
  Mo  Mo167  1  0.51263133  0.30541488  0.60468062  1
  Mo  Mo168  1  0.00519233  0.20910588  0.75549586  1
  Mo  Mo169  1  0.00302498  0.59672589  0.23109247  1
  Mo  Mo170  1  0.10391636  0.89329215  0.90096649  1
  Mo  Mo171  1  0.09376424  0.89462979  0.38562422  1
  Mo  Mo172  1  0.59002681  0.79781957  -0.00439210  1
  Mo  Mo173  1  0.40353651  0.60311116  0.25403260  1
  Mo  Mo174  1  0.59026576  0.20287563  0.00017382  1
  Mo  Mo175  1  0.88909924  0.49910683  0.14285012  1
  Mo  Mo176  1  0.00106626  0.00563311  0.00847697  1
  Mo  Mo177  1  0.10010135  0.30664587  0.11938636  1
  Mo  Mo178  1  0.69561508  0.69571702  0.13210710  1
  Mo  Mo179  1  0.10011296  0.90126444  0.61786851  1
  Mo  Mo180  1  0.09073274  0.69130204  0.62933842  1
  Mo  Mo181  1  0.39529342  0.61221878  0.51208055  1
  Mo  Mo182  1  0.88751242  0.29320062  0.36459688  1
  Mo  Mo183  1  0.80499928  0.80218422  0.49891581  1
  Mo  Mo184  1  0.70010245  0.09631862  0.11683517  1
  Mo  Mo185  1  0.30021226  0.69225306  0.61987172  1
  Mo  Mo186  1  0.69014925  0.69401447  0.86330031  1
  Mo  Mo187  1  0.69526297  0.70802339  0.36744162  1
  Mo  Mo188  1  0.19807253  0.79262383  -0.00130861  1
  Mo  Mo189  1  0.69363207  0.89889024  0.86091525  1
  Mo  Mo190  1  0.08672087  0.31617298  0.38294465  1
  Mo  Mo191  1  0.41094192  0.79302702  0.49803590  1
  Mo  Mo192  1  0.50141776  0.50730400  0.38958169  1
  Mo  Mo193  1  0.49381750  0.70406147  0.61984287  1
  Mo  Mo194  1  0.09676048  0.69144130  0.38467053  1
  Mo  Mo195  1  0.41172295  0.19216778  0.50004338  1
  Mo  Mo196  1  0.90255786  0.49496423  0.87763749  1
  Mo  Mo197  1  -0.01333566  0.78808610  0.01220217  1
  Mo  Mo198  1  0.29915340  0.30216199  0.38981320  1
  Mo  Mo199  1  0.10033179  0.49595999  0.12928336  1
