# generated using pymatgen
data_HfZrTaTiMo
_symmetry_space_group_name_H-M   'P 1'
_cell_length_a   15.17391931
_cell_length_b   15.17870034
_cell_length_c   16.83824381
_cell_angle_alpha   89.98254085
_cell_angle_beta   89.99243019
_cell_angle_gamma   90.06228728
_symmetry_Int_Tables_number   1
_chemical_formula_structural   HfZrTaTiMo
_chemical_formula_sum   'Hf40 Zr40 Ta40 Ti40 Mo40'
_cell_volume   3878.18811032
_cell_formula_units_Z   40
loop_
 _symmetry_equiv_pos_site_id
 _symmetry_equiv_pos_as_xyz
  1  'x, y, z'
loop_
 _atom_site_type_symbol
 _atom_site_label
 _atom_site_symmetry_multiplicity
 _atom_site_fract_x
 _atom_site_fract_y
 _atom_site_fract_z
 _atom_site_occupancy
  Hf  Hf0  1  0.53097188  0.10601463  0.11974982  1
  Hf  Hf1  1  0.68946695  0.49899247  0.86854273  1
  Hf  Hf2  1  0.91075804  0.31467841  0.37082623  1
  Hf  Hf3  1  0.79198496  -0.00450620  0.73819392  1
  Hf  Hf4  1  0.08862851  0.49677959  0.11653025  1
  Hf  Hf5  1  -0.00778476  0.59750509  0.49923439  1
  Hf  Hf6  1  0.31364473  0.10431751  0.11282092  1
  Hf  Hf7  1  0.18972547  0.79070536  0.75496562  1
  Hf  Hf8  1  0.48921904  0.72344008  0.38643320  1
  Hf  Hf9  1  0.58705863  0.81535133  0.24794206  1
  Hf  Hf10  1  -0.00422867  0.19426947  0.76579954  1
  Hf  Hf11  1  0.48821575  0.10258618  0.38873792  1
  Hf  Hf12  1  -0.01167296  0.79270645  0.00902624  1
  Hf  Hf13  1  0.00032631  0.39809435  0.75679821  1
  Hf  Hf14  1  0.49788098  0.70201594  0.61741901  1
  Hf  Hf15  1  0.78935579  0.19436035  0.73919585  1
  Hf  Hf16  1  0.69887718  0.71660545  0.87873056  1
  Hf  Hf17  1  0.89856137  0.30261211  0.12749113  1
  Hf  Hf18  1  0.09496366  0.69318078  0.12736024  1
  Hf  Hf19  1  0.20907981  0.79311141  0.24954545  1
  Hf  Hf20  1  0.90945609  0.09708651  0.61964213  1
  Hf  Hf21  1  0.81299103  -0.01096787  0.48588163  1
  Hf  Hf22  1  0.57743622  0.39161021  -0.00977386  1
  Hf  Hf23  1  0.39145463  0.60561622  0.24513933  1
  Hf  Hf24  1  0.81144553  0.00221844  0.27383032  1
  Hf  Hf25  1  0.10086561  0.27122528  0.37241758  1
  Hf  Hf26  1  0.81341206  0.60049793  -0.00053943  1
  Hf  Hf27  1  0.39728324  0.40244159  0.48705571  1
  Hf  Hf28  1  0.28766596  0.08733016  0.37195532  1
  Hf  Hf29  1  0.60940085  0.80553278  0.74311769  1
  Hf  Hf30  1  0.19691496  0.58251082  0.25429854  1
  Hf  Hf31  1  0.49564091  0.49093357  0.13184145  1
  Hf  Hf32  1  0.78907071  0.80249651  0.25059846  1
  Hf  Hf33  1  0.89791053  0.50001341  0.63642351  1
  Hf  Hf34  1  0.42957097  -0.00898358  0.00056640  1
  Hf  Hf35  1  0.30011984  0.28112061  0.36981023  1
  Hf  Hf36  1  0.38266321  0.58124587  0.01165028  1
  Hf  Hf37  1  0.81219830  0.21030823  0.50274402  1
  Hf  Hf38  1  0.11069900  0.08797626  0.64586277  1
  Hf  Hf39  1  0.60287793  0.41819614  0.48415483  1
  Zr  Zr40  1  0.79485887  0.61129439  0.74917427  1
  Zr  Zr41  1  0.10355651  0.30812415  0.88748521  1
  Zr  Zr42  1  0.79129377  0.78612788  0.50122160  1
  Zr  Zr43  1  0.48677159  0.71354611  0.11385287  1
  Zr  Zr44  1  0.39811284  0.79329295  0.74746368  1
  Zr  Zr45  1  0.20100526  0.37947737  0.50424315  1
  Zr  Zr46  1  0.81357607  0.41970889  0.25471117  1
  Zr  Zr47  1  0.89090053  0.89656575  0.87773564  1
  Zr  Zr48  1  0.10126559  0.10291845  0.11093493  1
  Zr  Zr49  1  0.20643701  0.39758417  0.74449119  1
  Zr  Zr50  1  0.41504486  -0.00726861  0.23821988  1
  Zr  Zr51  1  0.11046672  0.89541771  0.62756612  1
  Zr  Zr52  1  -0.02041381  0.19411147  -0.00926910  1
  Zr  Zr53  1  0.70319534  0.50232492  0.12457690  1
  Zr  Zr54  1  0.10969233  0.51353435  0.89226372  1
  Zr  Zr55  1  0.39851152  0.39895029  0.26470118  1
  Zr  Zr56  1  0.22797753  0.21250132  -0.01584148  1
  Zr  Zr57  1  0.61641745  0.01133950  0.26406293  1
  Zr  Zr58  1  0.69245335  0.28900444  0.12802176  1
  Zr  Zr59  1  0.58698305  0.19646476  0.73213812  1
  Zr  Zr60  1  0.29439383  0.69188823  0.61481527  1
  Zr  Zr61  1  0.00209440  0.39444276  0.50970459  1
  Zr  Zr62  1  0.10652700  0.30231713  0.10902390  1
  Zr  Zr63  1  0.11476368  0.90468669  0.36783778  1
  Zr  Zr64  1  0.00837196  0.00815764  0.25373629  1
  Zr  Zr65  1  0.68497172  0.50866045  0.63686930  1
  Zr  Zr66  1  0.60040408  0.41182002  0.27167245  1
  Zr  Zr67  1  0.30660204  0.89043747  0.87894794  1
  Zr  Zr68  1  0.59694239  0.20999965  0.26968181  1
  Zr  Zr69  1  0.59718374  0.60319504  -0.00323869  1
  Zr  Zr70  1  0.69640903  0.31102692  0.61559827  1
  Zr  Zr71  1  0.01202143  0.60646748  0.75061322  1
  Zr  Zr72  1  0.48477649  0.69706637  0.87911883  1
  Zr  Zr73  1  0.08513747  0.68997133  0.36466716  1
  Zr  Zr74  1  0.19885174  0.79594114  0.49365200  1
  Zr  Zr75  1  0.79132093  0.38874392  -0.00907376  1
  Zr  Zr76  1  0.78905038  0.80954420  0.01220827  1
  Zr  Zr77  1  0.10240844  0.89750054  0.11875360  1
  Zr  Zr78  1  0.32610094  0.10203308  0.87320875  1
  Zr  Zr79  1  0.02217894  0.00443109  0.49108175  1
  Ta  Ta80  1  0.89252964  0.91787385  0.12767384  1
  Ta  Ta81  1  0.19444080  0.38572312  0.24957978  1
  Ta  Ta82  1  -0.00516429  0.79621972  0.75016790  1
  Ta  Ta83  1  0.39450641  0.80081804  0.24524890  1
  Ta  Ta84  1  0.50537499  0.91675733  0.63049617  1
  Ta  Ta85  1  0.09922305  0.28322007  0.63374243  1
  Ta  Ta86  1  0.60183277  0.61547691  0.25624685  1
  Ta  Ta87  1  0.79591462  0.60151406  0.51031962  1
  Ta  Ta88  1  0.20601305  -0.00521831  -0.00540881  1
  Ta  Ta89  1  0.30717396  0.49628662  0.61920954  1
  Ta  Ta90  1  0.60762442  0.61864782  0.49392616  1
  Ta  Ta91  1  0.80493008  0.80029281  0.73509270  1
  Ta  Ta92  1  0.68881181  0.09087255  0.60249108  1
  Ta  Ta93  1  0.40711810  0.40681453  0.74379222  1
  Ta  Ta94  1  0.91063231  0.89356685  0.62257688  1
  Ta  Ta95  1  0.79287712  0.39195725  0.75975062  1
  Ta  Ta96  1  0.21615933  -0.00170033  0.23450569  1
  Ta  Ta97  1  0.80496719  0.19613878  0.26218170  1
  Ta  Ta98  1  0.90273140  0.30085700  0.63236403  1
  Ta  Ta99  1  0.49300418  0.50951690  0.61602559  1
  Ta  Ta100  1  0.08983147  0.69495449  0.61606498  1
  Ta  Ta101  1  0.00142670  -0.01156844  0.75945449  1
  Ta  Ta102  1  0.68328303  0.27672761  0.87314263  1
  Ta  Ta103  1  0.58683356  0.82659750  0.00003367  1
  Ta  Ta104  1  0.88041509  0.68519226  0.36243141  1
  Ta  Ta105  1  0.09875054  0.89509840  0.88291860  1
  Ta  Ta106  1  0.31093827  0.88098761  0.10605412  1
  Ta  Ta107  1  -0.01266103  0.79948710  0.48966654  1
  Ta  Ta108  1  0.19905506  0.57927377  0.48754008  1
  Ta  Ta109  1  0.58878695  0.81891411  0.50548818  1
  Ta  Ta110  1  0.92433952  0.11607254  0.38346462  1
  Ta  Ta111  1  0.52952395  0.10550928  0.87783889  1
  Ta  Ta112  1  0.32313417  0.89000720  0.37806483  1
  Ta  Ta113  1  0.69172432  0.70717501  0.12352513  1
  Ta  Ta114  1  0.70823382  0.30670270  0.38478373  1
  Ta  Ta115  1  0.38315613  0.19877677  0.51460207  1
  Ta  Ta116  1  0.10603031  0.08651804  0.87535518  1
  Ta  Ta117  1  0.20649642  0.19617579  0.76233932  1
  Ta  Ta118  1  0.31156643  0.49200914  0.87469491  1
  Ta  Ta119  1  0.58833179  0.21153214  0.49786955  1
  Ti  Ti120  1  0.88231058  0.09168030  0.87476035  1
  Ti  Ti121  1  0.47951610  0.29465848  0.87347535  1
  Ti  Ti122  1  0.80668166  0.41657692  0.49687549  1
  Ti  Ti123  1  0.57406319  0.59783028  0.75583588  1
  Ti  Ti124  1  0.68919087  0.89409811  0.38464887  1
  Ti  Ti125  1  -0.01782249  0.41168162  -0.00784522  1
  Ti  Ti126  1  0.70475980  0.10959615  0.39658171  1
  Ti  Ti127  1  0.88260477  0.29397372  0.87397999  1
  Ti  Ti128  1  0.49552367  0.10040085  0.61320046  1
  Ti  Ti129  1  0.30217992  0.68842732  0.38583934  1
  Ti  Ti130  1  0.40520351  -0.01123851  0.50736726  1
  Ti  Ti131  1  0.00686307  0.20273182  0.24043634  1
  Ti  Ti132  1  0.69525578  0.91869491  0.12734373  1
  Ti  Ti133  1  0.39543952  0.21335196  0.73623365  1
  Ti  Ti134  1  0.69945841  0.90274464  0.61464716  1
  Ti  Ti135  1  0.48912352  0.52412391  0.37973599  1
  Ti  Ti136  1  0.90350517  0.69998494  0.87414363  1
  Ti  Ti137  1  0.69683889  0.91852426  0.87275501  1
  Ti  Ti138  1  0.30570764  0.90656103  0.63813143  1
  Ti  Ti139  1  0.51046252  0.90840247  0.86219248  1
  Ti  Ti140  1  0.89906053  0.50331801  0.86767480  1
  Ti  Ti141  1  0.58949027  0.39570858  0.75614074  1
  Ti  Ti142  1  0.09808959  0.70447093  0.89151570  1
  Ti  Ti143  1  0.21850478  -0.00574761  0.50468164  1
  Ti  Ti144  1  -0.01309632  0.80317390  0.25158042  1
  Ti  Ti145  1  -0.00749343  -0.00010692  -0.00256492  1
  Ti  Ti146  1  0.19074521  0.17996652  0.51041030  1
  Ti  Ti147  1  0.41412185  0.01040857  0.75003449  1
  Ti  Ti148  1  0.71772089  0.52693748  0.37371899  1
  Ti  Ti149  1  0.89535802  0.68482309  0.14050131  1
  Ti  Ti150  1  0.10929613  0.50047972  0.62488435  1
  Ti  Ti151  1  0.48929386  0.31395421  0.61562203  1
  Ti  Ti152  1  0.30051737  0.09429734  0.63879606  1
  Ti  Ti153  1  0.30582068  0.30663335  0.12791055  1
  Ti  Ti154  1  0.63521955  0.01777309  0.00023416  1
  Ti  Ti155  1  0.49187047  0.29448303  0.12205265  1
  Ti  Ti156  1  0.21193358  0.59633321  0.74785187  1
  Ti  Ti157  1  0.28629282  0.68782135  0.88610296  1
  Ti  Ti158  1  0.08663122  0.48058973  0.36751960  1
  Ti  Ti159  1  0.39791176  0.19549118  0.24649449  1
  Mo  Mo160  1  0.49762826  0.90879012  0.38143892  1
  Mo  Mo161  1  0.49869708  0.29861901  0.38868063  1
  Mo  Mo162  1  0.90422094  0.51004765  0.37900866  1
  Mo  Mo163  1  0.68843128  0.70376698  0.37331128  1
  Mo  Mo164  1  0.60115735  0.00575219  0.49427583  1
  Mo  Mo165  1  0.38951984  0.59069166  0.74921201  1
  Mo  Mo166  1  0.90827871  0.88593518  0.37158416  1
  Mo  Mo167  1  0.01053917  0.39965908  0.24829914  1
  Mo  Mo168  1  0.90436176  0.50159268  0.12032839  1
  Mo  Mo169  1  0.28767853  0.48786008  0.13001872  1
  Mo  Mo170  1  0.01083969  0.20097367  0.51030992  1
  Mo  Mo171  1  -0.00988021  0.60252789  -0.00386758  1
  Mo  Mo172  1  0.70480585  0.09469776  0.86739847  1
  Mo  Mo173  1  0.39395937  0.81408262  0.51397080  1
  Mo  Mo174  1  -0.01612633  0.58148973  0.25241940  1
  Mo  Mo175  1  0.30993067  0.30479711  0.86541083  1
  Mo  Mo176  1  0.42568838  0.20672972  0.00021311  1
  Mo  Mo177  1  0.40001216  0.79485829  -0.01033386  1
  Mo  Mo178  1  0.78837681  0.18507535  -0.00339638  1
  Mo  Mo179  1  0.38856905  0.38323836  0.00177867  1
  Mo  Mo180  1  0.49207764  0.49057590  0.87052697  1
  Mo  Mo181  1  0.20687147  0.19122506  0.23582834  1
  Mo  Mo182  1  0.19831319  0.79579661  -0.00320927  1
  Mo  Mo183  1  0.79013178  0.60812708  0.24184272  1
  Mo  Mo184  1  0.29891026  0.28831802  0.62674573  1
  Mo  Mo185  1  0.60106690  0.00369908  0.74182021  1
  Mo  Mo186  1  0.69183594  0.70433992  0.62634950  1
  Mo  Mo187  1  0.50748346  0.90698239  0.11957444  1
  Mo  Mo188  1  0.80925783  0.00780739  0.00421515  1
  Mo  Mo189  1  0.72739556  0.09966995  0.13328461  1
  Mo  Mo190  1  0.39718491  0.59985781  0.49281963  1
  Mo  Mo191  1  0.22205617  0.41466847  0.00501822  1
  Mo  Mo192  1  0.28798649  0.69656094  0.11926298  1
  Mo  Mo193  1  0.20869498  -0.00362071  0.76684627  1
  Mo  Mo194  1  0.11413560  0.10054853  0.36655472  1
  Mo  Mo195  1  0.90291567  0.70501533  0.62297396  1
  Mo  Mo196  1  0.89543698  0.10483550  0.13263929  1
  Mo  Mo197  1  0.19762154  0.60514566  0.00660727  1
  Mo  Mo198  1  0.28872395  0.49723159  0.37513834  1
  Mo  Mo199  1  0.60843165  0.20205655  -0.00036975  1
