# generated using pymatgen
data_HfZrTaTiMo
_symmetry_space_group_name_H-M   'P 1'
_cell_length_a   15.22300177
_cell_length_b   15.20281572
_cell_length_c   16.84849266
_cell_angle_alpha   90.04918099
_cell_angle_beta   89.99459132
_cell_angle_gamma   90.11359621
_symmetry_Int_Tables_number   1
_chemical_formula_structural   HfZrTaTiMo
_chemical_formula_sum   'Hf40 Zr40 Ta40 Ti40 Mo40'
_cell_volume   3899.27950259
_cell_formula_units_Z   40
loop_
 _symmetry_equiv_pos_site_id
 _symmetry_equiv_pos_as_xyz
  1  'x, y, z'
loop_
 _atom_site_type_symbol
 _atom_site_label
 _atom_site_symmetry_multiplicity
 _atom_site_fract_x
 _atom_site_fract_y
 _atom_site_fract_z
 _atom_site_occupancy
  Hf  Hf0  1  0.09587918  0.09815256  0.62814584  1
  Hf  Hf1  1  0.49255102  0.90938638  0.37105428  1
  Hf  Hf2  1  0.50224924  0.30351632  0.37358885  1
  Hf  Hf3  1  0.29705139  0.89049532  0.87474678  1
  Hf  Hf4  1  0.59320318  0.81928875  0.00893922  1
  Hf  Hf5  1  0.79602616  0.01255214  0.50140449  1
  Hf  Hf6  1  0.79749427  0.60255864  0.75133947  1
  Hf  Hf7  1  -0.00998319  0.59562621  0.25776589  1
  Hf  Hf8  1  0.71912758  0.30457890  0.87543545  1
  Hf  Hf9  1  -0.00677382  0.20470299  0.50585180  1
  Hf  Hf10  1  0.68992815  0.70658989  0.87287982  1
  Hf  Hf11  1  0.50668510  0.50752043  0.11942498  1
  Hf  Hf12  1  0.29608254  0.69509242  0.38891738  1
  Hf  Hf13  1  0.69015474  0.69588144  0.12601569  1
  Hf  Hf14  1  0.80868684  0.60880330  0.50018212  1
  Hf  Hf15  1  0.20512549  -0.02183254  0.74112524  1
  Hf  Hf16  1  0.81285126  0.40701511  0.22737902  1
  Hf  Hf17  1  0.49469259  0.51010347  0.88058481  1
  Hf  Hf18  1  0.80057417  0.00161495  0.75739982  1
  Hf  Hf19  1  0.09805649  0.48909917  0.13181771  1
  Hf  Hf20  1  0.40095224  0.79890006  0.00115987  1
  Hf  Hf21  1  0.70254697  0.29998109  0.64053160  1
  Hf  Hf22  1  0.78046038  0.80920080  0.48340492  1
  Hf  Hf23  1  0.49938012  0.29509415  0.11944579  1
  Hf  Hf24  1  0.41129341  0.18766898  0.24858183  1
  Hf  Hf25  1  0.89144849  0.89354248  0.62015127  1
  Hf  Hf26  1  0.21198808  0.20293889  0.75311604  1
  Hf  Hf27  1  0.69930169  0.29926908  0.10602703  1
  Hf  Hf28  1  0.79429192  0.00617121  0.00420825  1
  Hf  Hf29  1  0.19236592  0.79922744  0.00546675  1
  Hf  Hf30  1  -0.00857353  0.59278803  -0.00421129  1
  Hf  Hf31  1  0.90998169  0.50881916  0.63732983  1
  Hf  Hf32  1  0.59758305  0.40256871  0.76336312  1
  Hf  Hf33  1  0.60779178  0.41219679  0.24329032  1
  Hf  Hf34  1  0.79271635  0.19894265  0.23180425  1
  Hf  Hf35  1  0.10005903  0.29807573  0.37040948  1
  Hf  Hf36  1  0.01933791  0.00453811  0.24908134  1
  Hf  Hf37  1  0.30298734  0.49235494  0.12582861  1
  Hf  Hf38  1  0.49472238  0.68612186  0.62647411  1
  Hf  Hf39  1  0.38329573  0.79796088  0.73135371  1
  Zr  Zr40  1  0.70363394  0.30999113  0.37158041  1
  Zr  Zr41  1  0.41739585  0.20187973  0.74090159  1
  Zr  Zr42  1  0.69355095  0.72027415  0.62470904  1
  Zr  Zr43  1  0.39585734  0.38867091  -0.01185492  1
  Zr  Zr44  1  0.10509676  0.09440244  0.38961336  1
  Zr  Zr45  1  0.59566484  0.02582141  0.23683534  1
  Zr  Zr46  1  0.40856284  -0.00375828  0.72852472  1
  Zr  Zr47  1  0.68545387  0.50834894  0.62506086  1
  Zr  Zr48  1  0.30965284  0.09521141  0.39082814  1
  Zr  Zr49  1  0.78223126  0.59352426  0.25472919  1
  Zr  Zr50  1  0.18790485  0.59405302  0.00342226  1
  Zr  Zr51  1  0.09972222  0.30285930  0.63821597  1
  Zr  Zr52  1  0.29437893  0.90085672  0.39794520  1
  Zr  Zr53  1  0.18991350  0.80424125  0.25855400  1
  Zr  Zr54  1  0.60866626  0.20218865  0.50537959  1
  Zr  Zr55  1  0.68281237  0.10367373  0.86952883  1
  Zr  Zr56  1  0.30916517  0.49269108  0.37738690  1
  Zr  Zr57  1  0.79666168  0.80555524  0.75410295  1
  Zr  Zr58  1  0.30608004  0.90843110  0.13468642  1
  Zr  Zr59  1  0.00587407  0.79632721  0.75327420  1
  Zr  Zr60  1  0.01840092  0.39244890  -0.01594379  1
  Zr  Zr61  1  0.89640845  0.69320198  0.12222415  1
  Zr  Zr62  1  0.10776131  0.88535362  0.60538182  1
  Zr  Zr63  1  0.58997365  0.61579320  -0.00672840  1
  Zr  Zr64  1  0.39595157  0.39872105  0.75802757  1
  Zr  Zr65  1  0.00384107  -0.00443672  -0.00789395  1
  Zr  Zr66  1  0.10696276  0.50410026  0.63672744  1
  Zr  Zr67  1  0.89885206  0.29764535  0.36938103  1
  Zr  Zr68  1  -0.01920387  0.78379699  0.48486867  1
  Zr  Zr69  1  0.29427813  0.69507225  0.13499231  1
  Zr  Zr70  1  0.90014590  0.30620326  0.65119748  1
  Zr  Zr71  1  0.90254198  0.89587550  0.12859672  1
  Zr  Zr72  1  0.32005120  0.09901494  0.87245483  1
  Zr  Zr73  1  -0.00082475  -0.00281711  0.76266789  1
  Zr  Zr74  1  0.20167965  0.39964738  0.50018884  1
  Zr  Zr75  1  0.20497656  0.01019162  0.00133538  1
  Zr  Zr76  1  0.19807954  0.18161286  0.24814931  1
  Zr  Zr77  1  0.79433806  0.79914133  0.26526687  1
  Zr  Zr78  1  0.69796995  0.10599929  0.37188320  1
  Zr  Zr79  1  0.00394592  0.19624827  -0.02046160  1
  Ta  Ta80  1  0.42480066  0.00256896  0.00209411  1
  Ta  Ta81  1  0.40332917  0.20659184  0.51078542  1
  Ta  Ta82  1  0.59556568  0.41593898  0.50097603  1
  Ta  Ta83  1  0.41427521  -0.00881192  0.52165138  1
  Ta  Ta84  1  0.57797392  0.79776040  0.48995396  1
  Ta  Ta85  1  0.50483474  0.31628221  0.62134418  1
  Ta  Ta86  1  0.01196782  0.59549386  0.48890529  1
  Ta  Ta87  1  0.10505822  0.70329343  0.86842254  1
  Ta  Ta88  1  0.89929736  0.69310506  0.88027998  1
  Ta  Ta89  1  0.50264201  0.91002272  0.86749033  1
  Ta  Ta90  1  0.09923980  0.89913130  0.39083581  1
  Ta  Ta91  1  0.29709731  0.69132162  0.87180923  1
  Ta  Ta92  1  0.28397749  0.49695385  0.88016303  1
  Ta  Ta93  1  -0.01030906  0.00208334  0.49962935  1
  Ta  Ta94  1  0.79005934  0.58449719  -0.00608826  1
  Ta  Ta95  1  0.59215168  0.79628092  0.25615550  1
  Ta  Ta96  1  0.92050691  0.11303267  0.12744129  1
  Ta  Ta97  1  0.20399762  0.21776997  -0.01025779  1
  Ta  Ta98  1  0.29832138  0.09878223  0.61330569  1
  Ta  Ta99  1  0.11174873  0.09656860  0.86664408  1
  Ta  Ta100  1  0.00102628  0.79671698  -0.00931087  1
  Ta  Ta101  1  0.70487524  0.10273106  0.63907754  1
  Ta  Ta102  1  0.10110467  0.49700110  0.37023579  1
  Ta  Ta103  1  0.40133521  0.39640195  0.24870932  1
  Ta  Ta104  1  0.09427439  0.28036780  0.12781684  1
  Ta  Ta105  1  0.29281495  0.29740417  0.12569319  1
  Ta  Ta106  1  0.31356099  0.51141978  0.61743731  1
  Ta  Ta107  1  0.89762210  0.10624780  0.63443642  1
  Ta  Ta108  1  0.89198563  0.48840077  0.86140026  1
  Ta  Ta109  1  -0.00361030  0.79610496  0.26977774  1
  Ta  Ta110  1  0.19543098  0.59590689  0.25412510  1
  Ta  Ta111  1  0.89754860  0.91462009  0.37037795  1
  Ta  Ta112  1  0.80189544  0.40095365  0.50715032  1
  Ta  Ta113  1  0.90150519  0.10378493  0.36475124  1
  Ta  Ta114  1  -0.00504949  0.40487244  0.50052207  1
  Ta  Ta115  1  0.48973492  0.70653746  0.13785139  1
  Ta  Ta116  1  0.68946949  0.90327902  0.87898247  1
  Ta  Ta117  1  0.89843750  0.49372475  0.37996779  1
  Ta  Ta118  1  0.39100847  0.60541147  -0.00281590  1
  Ta  Ta119  1  0.79771392  0.79670452  -0.00448666  1
  Ti  Ti120  1  0.60561040  -0.00893225  0.51113139  1
  Ti  Ti121  1  0.30403379  0.10052736  0.12391207  1
  Ti  Ti122  1  0.89576687  0.89479502  0.88266493  1
  Ti  Ti123  1  0.08933251  0.70317364  0.13256457  1
  Ti  Ti124  1  0.30494172  0.29409144  0.37661240  1
  Ti  Ti125  1  0.49625813  0.90714799  0.14099930  1
  Ti  Ti126  1  0.48890861  0.71612871  0.86225449  1
  Ti  Ti127  1  0.68924029  0.91272766  0.36633281  1
  Ti  Ti128  1  0.39645911  0.80075897  0.25884044  1
  Ti  Ti129  1  0.20463787  0.61200103  0.74599924  1
  Ti  Ti130  1  0.59099287  0.60515680  0.75743699  1
  Ti  Ti131  1  0.80456635  0.00489355  0.23910558  1
  Ti  Ti132  1  -0.00135869  0.19946046  0.77215994  1
  Ti  Ti133  1  0.20366123  0.20272909  0.50692763  1
  Ti  Ti134  1  0.40824190  0.40334198  0.50066724  1
  Ti  Ti135  1  0.10109827  0.90353145  0.12871645  1
  Ti  Ti136  1  0.51233632  0.27299955  0.88223795  1
  Ti  Ti137  1  0.50177795  0.10109758  0.38788010  1
  Ti  Ti138  1  0.09778934  0.50714695  0.85800792  1
  Ti  Ti139  1  0.51294651  0.10591572  0.62014800  1
  Ti  Ti140  1  0.39843932  0.19159155  0.00121727  1
  Ti  Ti141  1  0.80424117  0.20601553  0.50612870  1
  Ti  Ti142  1  0.69990142  0.50204733  0.38622107  1
  Ti  Ti143  1  0.41889304  0.60114131  0.49511851  1
  Ti  Ti144  1  0.59459764  0.17064016  0.00930171  1
  Ti  Ti145  1  0.20537795  0.39397768  0.25303645  1
  Ti  Ti146  1  0.81283578  0.20102464  0.00076301  1
  Ti  Ti147  1  0.08665838  0.69034318  0.62549592  1
  Ti  Ti148  1  0.82190107  0.40230918  0.00764837  1
  Ti  Ti149  1  0.60039491  -0.00821304  0.73716149  1
  Ti  Ti150  1  0.39224919  0.59402915  0.75142432  1
  Ti  Ti151  1  0.69859088  0.90354474  0.13148096  1
  Ti  Ti152  1  0.51283590  0.51518072  0.36970486  1
  Ti  Ti153  1  0.30524483  0.30818534  0.62065041  1
  Ti  Ti154  1  0.28071021  0.70258986  0.60199990  1
  Ti  Ti155  1  0.00081993  0.38978832  0.24432812  1
  Ti  Ti156  1  0.67445430  0.69007942  0.37759534  1
  Ti  Ti157  1  0.20863997  0.40499738  0.75383290  1
  Ti  Ti158  1  0.40508598  0.59879850  0.25650020  1
  Ti  Ti159  1  0.61861516  0.41482783  -0.01155142  1
  Mo  Mo160  1  0.51582712  0.88768219  0.62258123  1
  Mo  Mo161  1  0.00077581  0.60418491  0.76245188  1
  Mo  Mo162  1  0.11095679  0.09722074  0.11860788  1
  Mo  Mo163  1  0.10502560  0.89264275  0.87625626  1
  Mo  Mo164  1  0.90459381  0.49405246  0.11809804  1
  Mo  Mo165  1  0.60072919  -0.00471593  0.01251529  1
  Mo  Mo166  1  0.59831547  0.19931343  0.74436187  1
  Mo  Mo167  1  0.30113242  0.89174304  0.60283899  1
  Mo  Mo168  1  0.00956291  0.39827823  0.76838445  1
  Mo  Mo169  1  0.50666807  0.09251847  0.87234687  1
  Mo  Mo170  1  0.59819750  0.21428382  0.23756621  1
  Mo  Mo171  1  0.20401805  0.78603328  0.74429937  1
  Mo  Mo172  1  0.90332757  0.29897411  0.86282310  1
  Mo  Mo173  1  0.58811474  0.80825023  0.75355111  1
  Mo  Mo174  1  0.49310011  0.49922381  0.62623447  1
  Mo  Mo175  1  0.11733027  0.30782215  0.86036255  1
  Mo  Mo176  1  0.30484741  0.30055150  0.87683577  1
  Mo  Mo177  1  0.91218129  0.30080044  0.11818642  1
  Mo  Mo178  1  0.49293800  0.09799630  0.12324274  1
  Mo  Mo179  1  0.19663228  0.59440185  0.50305256  1
  Mo  Mo180  1  -0.00291034  0.19864677  0.24660133  1
  Mo  Mo181  1  0.88868535  0.69591300  0.37087434  1
  Mo  Mo182  1  0.79855706  0.40515913  0.75271188  1
  Mo  Mo183  1  0.38929273  0.00008172  0.25333327  1
  Mo  Mo184  1  0.49031772  0.70212843  0.36816741  1
  Mo  Mo185  1  0.39871613  0.79538524  0.51096127  1
  Mo  Mo186  1  0.70841179  0.10038462  0.11631928  1
  Mo  Mo187  1  0.69279867  0.90830367  0.61987397  1
  Mo  Mo188  1  0.59084003  0.60456470  0.24891636  1
  Mo  Mo189  1  0.90645292  0.69583164  0.62460187  1
  Mo  Mo190  1  0.19961984  0.39477190  0.00095187  1
  Mo  Mo191  1  0.70188468  0.50038609  0.11080873  1
  Mo  Mo192  1  0.80611167  0.19430295  0.75894409  1
  Mo  Mo193  1  0.89435318  0.10351775  0.87450488  1
  Mo  Mo194  1  0.18410995  0.78087121  0.49159389  1
  Mo  Mo195  1  0.20650252  -0.00303343  0.24855504  1
  Mo  Mo196  1  0.70045429  0.50362715  0.87491944  1
  Mo  Mo197  1  0.09788130  0.69020227  0.37173909  1
  Mo  Mo198  1  0.19857948  -0.00064869  0.51417013  1
  Mo  Mo199  1  0.60011509  0.60433133  0.49440148  1
