# generated using pymatgen
data_HfZrTaTiMo
_symmetry_space_group_name_H-M   'P 1'
_cell_length_a   15.21192879
_cell_length_b   15.19842450
_cell_length_c   16.85019261
_cell_angle_alpha   90.06959401
_cell_angle_beta   89.97080067
_cell_angle_gamma   90.10745333
_symmetry_Int_Tables_number   1
_chemical_formula_structural   HfZrTaTiMo
_chemical_formula_sum   'Hf40 Zr40 Ta40 Ti40 Mo40'
_cell_volume   3895.70967161
_cell_formula_units_Z   40
loop_
 _symmetry_equiv_pos_site_id
 _symmetry_equiv_pos_as_xyz
  1  'x, y, z'
loop_
 _atom_site_type_symbol
 _atom_site_label
 _atom_site_symmetry_multiplicity
 _atom_site_fract_x
 _atom_site_fract_y
 _atom_site_fract_z
 _atom_site_occupancy
  Hf  Hf0  1  0.60244098  0.59707481  0.49625634  1
  Hf  Hf1  1  0.41188967  0.38239213  0.00923734  1
  Hf  Hf2  1  0.71465986  0.50319649  0.62070520  1
  Hf  Hf3  1  0.17708160  0.19739058  0.77098994  1
  Hf  Hf4  1  0.10954446  0.49904194  0.36142808  1
  Hf  Hf5  1  0.19877859  0.80338676  0.74947075  1
  Hf  Hf6  1  0.81630757  0.81236980  -0.00097740  1
  Hf  Hf7  1  0.50732660  0.69655355  0.36725029  1
  Hf  Hf8  1  0.69644463  0.11929318  0.88122158  1
  Hf  Hf9  1  0.37829658  0.17970704  0.00660445  1
  Hf  Hf10  1  0.29639839  0.71779695  0.12939638  1
  Hf  Hf11  1  0.89506422  0.09448770  0.37558225  1
  Hf  Hf12  1  0.89763146  0.29870206  0.88414712  1
  Hf  Hf13  1  0.28309486  0.10336463  0.36999056  1
  Hf  Hf14  1  0.08880914  0.29431986  0.12040433  1
  Hf  Hf15  1  0.29259840  0.48649015  0.62767871  1
  Hf  Hf16  1  0.51003844  0.69535060  0.12203913  1
  Hf  Hf17  1  0.08462221  0.49629804  0.88276642  1
  Hf  Hf18  1  0.90011127  0.68104419  0.87529266  1
  Hf  Hf19  1  0.49665758  0.10648954  0.37170151  1
  Hf  Hf20  1  -0.01691344  0.20040548  0.24839651  1
  Hf  Hf21  1  0.60817690  0.80514342  0.49945991  1
  Hf  Hf22  1  0.69465149  0.09527494  0.38307078  1
  Hf  Hf23  1  0.48352439  0.09660411  0.87438509  1
  Hf  Hf24  1  0.70298707  0.90542007  0.62628480  1
  Hf  Hf25  1  0.80915538  0.60301834  0.48622186  1
  Hf  Hf26  1  0.09179313  0.91103413  0.37640421  1
  Hf  Hf27  1  0.59571145  0.59907013  0.75013981  1
  Hf  Hf28  1  0.81393314  0.01937115  0.00915065  1
  Hf  Hf29  1  0.19436305  0.58984002  0.74900331  1
  Hf  Hf30  1  0.82360990  0.39427082  0.48133092  1
  Hf  Hf31  1  0.61379246  0.39957621  0.74848877  1
  Hf  Hf32  1  0.40367415  0.80819520  0.49592291  1
  Hf  Hf33  1  0.20996260  0.37316413  0.49192987  1
  Hf  Hf34  1  0.80553921  0.80473842  0.76387139  1
  Hf  Hf35  1  0.59709225  0.19159311  0.73332893  1
  Hf  Hf36  1  0.29397290  0.68608509  0.37418022  1
  Hf  Hf37  1  0.81253528  0.39212725  0.26605320  1
  Hf  Hf38  1  0.49461248  0.89857996  0.13244033  1
  Hf  Hf39  1  0.70166790  0.90268437  0.12355189  1
  Zr  Zr40  1  0.18787581  0.80697857  -0.01055077  1
  Zr  Zr41  1  0.29880026  0.69333231  0.62297788  1
  Zr  Zr42  1  0.48452385  0.30336746  0.62716386  1
  Zr  Zr43  1  0.30236430  0.49247651  0.12918499  1
  Zr  Zr44  1  0.09984072  0.30759244  0.62709697  1
  Zr  Zr45  1  0.69027190  0.29145456  0.38724840  1
  Zr  Zr46  1  0.21858834  0.01133594  -0.00475896  1
  Zr  Zr47  1  0.08801400  0.69604795  0.61774859  1
  Zr  Zr48  1  0.49301287  0.69996588  0.88557546  1
  Zr  Zr49  1  0.69445690  0.70037058  0.88243222  1
  Zr  Zr50  1  0.11275070  0.89063392  0.13134288  1
  Zr  Zr51  1  0.01279205  -0.00401555  0.00717583  1
  Zr  Zr52  1  0.60701675  0.00805081  0.24640585  1
  Zr  Zr53  1  0.70990149  0.70254960  0.62927946  1
  Zr  Zr54  1  0.59666605  0.81402322  0.75324533  1
  Zr  Zr55  1  0.90461361  0.89553519  0.62878856  1
  Zr  Zr56  1  0.80984321  0.81743713  0.24369155  1
  Zr  Zr57  1  0.19766418  0.80269211  0.49480692  1
  Zr  Zr58  1  0.30485662  0.29165438  0.87011208  1
  Zr  Zr59  1  0.87783387  0.29097443  0.11324970  1
  Zr  Zr60  1  0.70945145  0.30621954  0.61288753  1
  Zr  Zr61  1  0.69020679  0.13523317  0.11698379  1
  Zr  Zr62  1  0.30435324  0.47685543  0.35358806  1
  Zr  Zr63  1  0.40317626  0.79678478  0.25958714  1
  Zr  Zr64  1  0.40563056  0.00441888  0.50725937  1
  Zr  Zr65  1  0.19955138  0.38983969  -0.00334182  1
  Zr  Zr66  1  0.51784444  0.50067545  0.89775172  1
  Zr  Zr67  1  0.31468529  0.90643977  0.86729521  1
  Zr  Zr68  1  0.80094762  0.60248569  0.01478465  1
  Zr  Zr69  1  0.37407337  0.21334494  0.49545684  1
  Zr  Zr70  1  0.09382444  0.70045593  0.87134741  1
  Zr  Zr71  1  0.41335270  0.00041258  0.73039849  1
  Zr  Zr72  1  0.59291056  0.00483816  0.00307358  1
  Zr  Zr73  1  0.28883489  0.11236744  0.63160083  1
  Zr  Zr74  1  0.20059877  0.60219154  0.00928534  1
  Zr  Zr75  1  0.70913776  0.49533763  0.13521806  1
  Zr  Zr76  1  0.40543965  0.41678028  0.76057492  1
  Zr  Zr77  1  0.90227629  0.71418790  0.37071386  1
  Zr  Zr78  1  0.39568617  0.59195627  0.49625571  1
  Zr  Zr79  1  0.50568480  0.48800877  0.36257084  1
  Ta  Ta80  1  0.71974836  0.50364253  0.87627300  1
  Ta  Ta81  1  0.09870329  0.69826383  0.37598925  1
  Ta  Ta82  1  0.90070393  0.10284650  0.87310048  1
  Ta  Ta83  1  0.30711802  0.50926300  0.88164420  1
  Ta  Ta84  1  0.80651770  -0.00682149  0.50550360  1
  Ta  Ta85  1  0.70000129  0.70602646  0.36258045  1
  Ta  Ta86  1  0.00146255  0.00253217  0.23470623  1
  Ta  Ta87  1  0.51035155  0.29094862  0.87326519  1
  Ta  Ta88  1  0.00087179  0.01314832  0.50769502  1
  Ta  Ta89  1  0.81959808  0.40948792  0.75154808  1
  Ta  Ta90  1  0.51629013  0.48770353  0.12023911  1
  Ta  Ta91  1  0.00250588  0.79827241  0.74764540  1
  Ta  Ta92  1  0.20748714  0.81473267  0.26644794  1
  Ta  Ta93  1  -0.00651934  0.21241461  0.50028993  1
  Ta  Ta94  1  0.00002684  0.59242942  0.49345923  1
  Ta  Ta95  1  0.58813997  0.19204850  0.51512181  1
  Ta  Ta96  1  -0.01605983  0.58235171  0.74267917  1
  Ta  Ta97  1  0.70455717  0.50486127  0.36560157  1
  Ta  Ta98  1  0.91328615  0.71126969  0.12955447  1
  Ta  Ta99  1  0.19619202  0.60784331  0.23992709  1
  Ta  Ta100  1  0.10213063  0.90805759  0.62240534  1
  Ta  Ta101  1  0.41090163  0.37715210  0.23034034  1
  Ta  Ta102  1  0.40346261  0.79369000  0.74197854  1
  Ta  Ta103  1  0.80199943  0.20765389  0.73833182  1
  Ta  Ta104  1  0.50051790  0.50582517  0.62358021  1
  Ta  Ta105  1  0.19069197  0.00126361  0.75712014  1
  Ta  Ta106  1  0.37937138  -0.00688659  0.25561385  1
  Ta  Ta107  1  0.30581797  0.69631960  0.87166528  1
  Ta  Ta108  1  0.50028382  0.70104679  0.62542987  1
  Ta  Ta109  1  0.80303462  0.01646761  0.74954409  1
  Ta  Ta110  1  0.01146828  0.40381291  0.48525753  1
  Ta  Ta111  1  0.00366857  0.60461563  0.01801907  1
  Ta  Ta112  1  0.48314093  0.10184155  0.13029509  1
  Ta  Ta113  1  0.51464299  0.90560635  0.36800257  1
  Ta  Ta114  1  0.91136357  0.49624797  0.13316257  1
  Ta  Ta115  1  0.19828847  0.00706819  0.50220724  1
  Ta  Ta116  1  0.39575913  0.81116902  0.00348111  1
  Ta  Ta117  1  0.00236730  0.60243809  0.24477835  1
  Ta  Ta118  1  0.60708376  0.59970209  0.24573590  1
  Ta  Ta119  1  0.71680973  0.90109842  0.37745222  1
  Ti  Ti120  1  -0.00567420  0.40046101  0.00255697  1
  Ti  Ti121  1  0.70246394  0.70480656  0.13309234  1
  Ti  Ti122  1  0.91464856  0.48757883  0.61772437  1
  Ti  Ti123  1  0.60768419  0.00497564  0.74373515  1
  Ti  Ti124  1  0.00100497  0.00405115  0.74790360  1
  Ti  Ti125  1  0.60463614  0.38276097  0.24890185  1
  Ti  Ti126  1  0.69849994  0.30868195  0.87719520  1
  Ti  Ti127  1  0.10852139  0.29200037  0.36468783  1
  Ti  Ti128  1  0.79434054  0.40219676  -0.00066211  1
  Ti  Ti129  1  0.50618495  0.89970691  0.88091187  1
  Ti  Ti130  1  0.09053918  0.10492798  0.37543542  1
  Ti  Ti131  1  0.18807317  0.57873980  0.50310844  1
  Ti  Ti132  1  -0.01355307  0.80747287  0.49696222  1
  Ti  Ti133  1  0.40587976  0.58982188  0.23943376  1
  Ti  Ti134  1  0.80651713  0.18844149  0.51627952  1
  Ti  Ti135  1  0.40263686  0.40197938  0.49841976  1
  Ti  Ti136  1  0.29410306  0.29786361  0.64973062  1
  Ti  Ti137  1  0.17025245  0.19100633  -0.01457233  1
  Ti  Ti138  1  0.48625540  0.29807809  0.37498263  1
  Ti  Ti139  1  0.92098528  0.90429831  0.87273022  1
  Ti  Ti140  1  0.29686083  0.90158473  0.62728287  1
  Ti  Ti141  1  0.60428729  0.79852724  0.00020417  1
  Ti  Ti142  1  -0.01429554  0.19779970  0.74517854  1
  Ti  Ti143  1  0.29099995  0.28258500  0.12998517  1
  Ti  Ti144  1  0.00899132  0.80365378  0.25232704  1
  Ti  Ti145  1  0.40203495  0.60060185  0.00988438  1
  Ti  Ti146  1  0.60014158  0.00149313  0.51038897  1
  Ti  Ti147  1  0.18985523  0.39892958  0.76804519  1
  Ti  Ti148  1  0.09258893  0.10340725  0.62426136  1
  Ti  Ti149  1  0.00279291  0.39130797  0.75412832  1
  Ti  Ti150  1  0.18896777  0.18873476  0.23994459  1
  Ti  Ti151  1  0.81254361  0.01334505  0.23504717  1
  Ti  Ti152  1  0.77922993  0.20247404  0.25381249  1
  Ti  Ti153  1  0.89594165  0.69141070  0.62392106  1
  Ti  Ti154  1  0.00405746  0.39734947  0.25690496  1
  Ti  Ti155  1  0.59569734  0.40035347  0.49765055  1
  Ti  Ti156  1  0.80978060  0.60203332  0.25137185  1
  Ti  Ti157  1  0.70580609  0.91669810  0.87806941  1
  Ti  Ti158  1  0.10108802  0.49481336  0.13225651  1
  Ti  Ti159  1  0.39579353  0.19590489  0.24522206  1
  Mo  Mo160  1  0.39918090  0.60506809  0.75040717  1
  Mo  Mo161  1  0.90713542  0.90195721  0.12694000  1
  Mo  Mo162  1  0.19058758  0.00216526  0.25212674  1
  Mo  Mo163  1  0.70686907  0.09721118  0.61997238  1
  Mo  Mo164  1  0.08072942  0.09246967  0.86960014  1
  Mo  Mo165  1  0.09989716  0.69815194  0.13610988  1
  Mo  Mo166  1  0.10123334  0.10615099  0.12642276  1
  Mo  Mo167  1  0.80307131  0.80307289  0.49462465  1
  Mo  Mo168  1  0.30041412  0.90590873  0.38045226  1
  Mo  Mo169  1  0.09413259  0.49470652  0.62283261  1
  Mo  Mo170  1  0.17538463  0.18999181  0.49384333  1
  Mo  Mo171  1  0.09345467  0.90432691  0.86406017  1
  Mo  Mo172  1  0.61004612  0.79980552  0.25530468  1
  Mo  Mo173  1  0.50826688  0.28478329  0.12471911  1
  Mo  Mo174  1  0.50291154  0.89395043  0.62271717  1
  Mo  Mo175  1  0.89912715  0.10333765  0.12704671  1
  Mo  Mo176  1  0.58297443  0.21052296  0.25405208  1
  Mo  Mo177  1  0.58185658  0.21733325  -0.00431484  1
  Mo  Mo178  1  0.90359401  0.91472122  0.37861944  1
  Mo  Mo179  1  0.91148990  0.29124984  0.37526385  1
  Mo  Mo180  1  0.08460446  0.29723754  0.88369781  1
  Mo  Mo181  1  -0.01325026  0.18686479  0.00095245  1
  Mo  Mo182  1  0.50375747  0.10101256  0.62191078  1
  Mo  Mo183  1  0.40260251  -0.00599105  0.00560912  1
  Mo  Mo184  1  0.90054134  0.49517281  0.88160372  1
  Mo  Mo185  1  0.30640144  0.90576123  0.12755258  1
  Mo  Mo186  1  0.80484819  0.59245898  0.74654781  1
  Mo  Mo187  1  0.91233730  0.50444850  0.36340647  1
  Mo  Mo188  1  0.60564048  0.60105361  0.01597808  1
  Mo  Mo189  1  0.39676322  0.20224119  0.75513063  1
  Mo  Mo190  1  0.90564755  0.30481152  0.62726704  1
  Mo  Mo191  1  0.29055482  0.09315310  0.14017065  1
  Mo  Mo192  1  0.90348018  0.10255103  0.62799585  1
  Mo  Mo193  1  0.29477172  0.09774534  0.86411277  1
  Mo  Mo194  1  0.79055803  0.20943580  -0.00877512  1
  Mo  Mo195  1  0.19754411  0.38531126  0.23857094  1
  Mo  Mo196  1  0.68657023  0.31384690  0.12427020  1
  Mo  Mo197  1  0.61205170  0.39610750  -0.00028566  1
  Mo  Mo198  1  -0.00448091  0.79399258  0.00034103  1
  Mo  Mo199  1  0.29475702  0.29334954  0.35071688  1
