# generated using pymatgen
data_HfZrTaTiMo
_symmetry_space_group_name_H-M   'P 1'
_cell_length_a   15.17679965
_cell_length_b   15.16909491
_cell_length_c   16.82871534
_cell_angle_alpha   89.98656697
_cell_angle_beta   90.02133212
_cell_angle_gamma   90.01106318
_symmetry_Int_Tables_number   1
_chemical_formula_structural   HfZrTaTiMo
_chemical_formula_sum   'Hf40 Zr40 Ta40 Ti40 Mo40'
_cell_volume   3874.27803053
_cell_formula_units_Z   40
loop_
 _symmetry_equiv_pos_site_id
 _symmetry_equiv_pos_as_xyz
  1  'x, y, z'
loop_
 _atom_site_type_symbol
 _atom_site_label
 _atom_site_symmetry_multiplicity
 _atom_site_fract_x
 _atom_site_fract_y
 _atom_site_fract_z
 _atom_site_occupancy
  Hf  Hf0  1  0.20810173  0.01262246  0.74661615  1
  Hf  Hf1  1  -0.00401694  0.41119386  0.49761545  1
  Hf  Hf2  1  0.69731867  0.49879473  0.63075482  1
  Hf  Hf3  1  0.79041327  0.82228028  0.25881416  1
  Hf  Hf4  1  0.10931014  0.51268444  0.35470947  1
  Hf  Hf5  1  0.50335460  0.69148741  0.89328190  1
  Hf  Hf6  1  0.89540091  0.70646452  0.36744251  1
  Hf  Hf7  1  0.58160561  0.20603207  0.25144185  1
  Hf  Hf8  1  0.80246411  0.80544373  0.74660549  1
  Hf  Hf9  1  0.40153078  0.59668484  0.76153036  1
  Hf  Hf10  1  0.89723209  0.10462489  0.87590781  1
  Hf  Hf11  1  0.89338233  0.31166081  0.13667355  1
  Hf  Hf12  1  0.90182598  0.89753742  0.61851979  1
  Hf  Hf13  1  0.59089763  0.00946036  0.01056216  1
  Hf  Hf14  1  0.70888437  0.29129952  0.63223830  1
  Hf  Hf15  1  0.01231154  0.20672823  0.75223311  1
  Hf  Hf16  1  0.49911311  0.47673128  0.11762982  1
  Hf  Hf17  1  0.39494665  -0.00582881  0.01685127  1
  Hf  Hf18  1  0.60713056  0.00227752  0.25361968  1
  Hf  Hf19  1  0.50645025  0.27585674  0.39797710  1
  Hf  Hf20  1  0.38784684  0.40066125  0.50264039  1
  Hf  Hf21  1  0.19320276  0.38980976  0.77284137  1
  Hf  Hf22  1  0.58881005  0.60145908  0.50134952  1
  Hf  Hf23  1  0.88680912  0.30518479  0.86427396  1
  Hf  Hf24  1  0.69254706  0.71104901  0.12671360  1
  Hf  Hf25  1  0.10801491  0.51753129  0.12671189  1
  Hf  Hf26  1  0.00793300  0.01308946  0.50506017  1
  Hf  Hf27  1  0.01311622  0.80643759  -0.00765799  1
  Hf  Hf28  1  0.50734247  0.88266700  0.14041827  1
  Hf  Hf29  1  0.50618771  0.48295997  0.88141773  1
  Hf  Hf30  1  0.28501452  0.70140801  0.88043849  1
  Hf  Hf31  1  0.78372616  0.60340983  0.24919446  1
  Hf  Hf32  1  0.09350291  0.71537192  0.14253126  1
  Hf  Hf33  1  0.68755601  0.12003660  0.40036179  1
  Hf  Hf34  1  0.09838222  0.50237470  0.63327016  1
  Hf  Hf35  1  0.59460191  0.18270073  0.73366193  1
  Hf  Hf36  1  0.29482736  0.28405564  0.37499703  1
  Hf  Hf37  1  0.21433796  0.21534718  -0.00597918  1
  Hf  Hf38  1  0.79635290  0.40789561  0.00273393  1
  Hf  Hf39  1  0.37785621  0.17291118  0.50701300  1
  Zr  Zr40  1  0.22184163  0.40418433  0.24999373  1
  Zr  Zr41  1  0.00503795  0.00295643  0.25930785  1
  Zr  Zr42  1  0.89652482  0.52062318  0.86711424  1
  Zr  Zr43  1  0.59042672  0.79128518  0.76151810  1
  Zr  Zr44  1  0.80156864  0.01605741  0.73471806  1
  Zr  Zr45  1  0.89268820  0.10774644  0.12067803  1
  Zr  Zr46  1  0.11038214  0.52565493  0.88507439  1
  Zr  Zr47  1  0.90463768  0.49759264  0.34999114  1
  Zr  Zr48  1  0.29560072  0.49208342  0.63387707  1
  Zr  Zr49  1  0.00018635  0.19815840  0.24761264  1
  Zr  Zr50  1  0.00052032  0.60729609  0.50055589  1
  Zr  Zr51  1  0.38568009  -0.00600199  0.23986499  1
  Zr  Zr52  1  0.88975353  0.10290084  0.38802148  1
  Zr  Zr53  1  0.49877023  0.68024091  0.11520984  1
  Zr  Zr54  1  0.90247048  0.31142342  0.63846093  1
  Zr  Zr55  1  0.70068291  0.90921977  0.87408663  1
  Zr  Zr56  1  0.70017627  0.50392018  0.86456556  1
  Zr  Zr57  1  0.69469123  0.11425621  0.87487665  1
  Zr  Zr58  1  0.10426294  0.70941561  0.62146891  1
  Zr  Zr59  1  0.50372135  0.48353205  0.37864020  1
  Zr  Zr60  1  0.87734483  0.30341965  0.36304441  1
  Zr  Zr61  1  0.60347402  0.80645079  -0.00644706  1
  Zr  Zr62  1  0.22398927  0.60132543  0.49451135  1
  Zr  Zr63  1  0.81549804  0.79818647  -0.00856834  1
  Zr  Zr64  1  0.40640100  0.77567051  0.48668137  1
  Zr  Zr65  1  0.08983948  0.30884101  0.36356307  1
  Zr  Zr66  1  0.11276595  0.30902989  0.12564137  1
  Zr  Zr67  1  0.49507891  0.29047121  0.61652234  1
  Zr  Zr68  1  0.59798055  -0.01402710  0.73502008  1
  Zr  Zr69  1  0.20272635  -0.00429381  -0.00182311  1
  Zr  Zr70  1  0.39792923  0.38073078  0.75716684  1
  Zr  Zr71  1  0.90951043  0.90215107  0.13059157  1
  Zr  Zr72  1  0.11445540  0.90845429  0.62038336  1
  Zr  Zr73  1  0.29180697  0.68705573  0.12597656  1
  Zr  Zr74  1  0.37902433  0.57630127  -0.00810015  1
  Zr  Zr75  1  0.80054624  0.00322318  0.00048391  1
  Zr  Zr76  1  0.10072618  0.10640324  0.87725140  1
  Zr  Zr77  1  0.00691917  0.40417219  -0.00501207  1
  Zr  Zr78  1  0.79962507  0.60425825  0.50196051  1
  Zr  Zr79  1  0.11022813  0.71319093  0.36915195  1
  Ta  Ta80  1  0.32767830  0.27962740  0.12848661  1
  Ta  Ta81  1  0.68386400  0.71168972  0.37583556  1
  Ta  Ta82  1  0.89963657  0.70383724  0.14032307  1
  Ta  Ta83  1  0.19815678  0.61262122  0.74986183  1
  Ta  Ta84  1  0.31931856  0.70718947  0.63184109  1
  Ta  Ta85  1  0.11206477  0.11206139  0.38411101  1
  Ta  Ta86  1  0.10322176  0.10227506  0.11684829  1
  Ta  Ta87  1  0.89868415  0.50866948  0.63836506  1
  Ta  Ta88  1  0.22142563  0.01135018  0.50489974  1
  Ta  Ta89  1  0.00099745  0.80647942  0.49289693  1
  Ta  Ta90  1  0.68981484  0.11443682  0.12446927  1
  Ta  Ta91  1  0.31536736  0.09443425  0.87374700  1
  Ta  Ta92  1  0.48624432  0.06792572  0.61189702  1
  Ta  Ta93  1  0.41802632  0.37248078  0.25346328  1
  Ta  Ta94  1  0.38833305  0.57150144  0.25091539  1
  Ta  Ta95  1  0.58732734  0.20977682  -0.00004298  1
  Ta  Ta96  1  0.00450552  -0.00021317  -0.00178540  1
  Ta  Ta97  1  0.11562860  0.91658227  0.38577740  1
  Ta  Ta98  1  0.49633460  0.86368608  0.61838057  1
  Ta  Ta99  1  0.79907660  0.60473826  0.01059932  1
  Ta  Ta100  1  0.22236997  0.81097789  0.74683942  1
  Ta  Ta101  1  0.39091661  0.17177414  0.73871362  1
  Ta  Ta102  1  0.79971512  0.40082863  0.50047488  1
  Ta  Ta103  1  0.40068754  0.77803965  0.25529321  1
  Ta  Ta104  1  0.68864767  0.71648165  0.61901973  1
  Ta  Ta105  1  0.39759460  0.36377925  -0.01341151  1
  Ta  Ta106  1  0.79823941  0.61830596  0.73670990  1
  Ta  Ta107  1  0.90378684  0.50985138  0.13627364  1
  Ta  Ta108  1  -0.00916627  0.61926924  0.00326392  1
  Ta  Ta109  1  0.69140415  0.30349839  0.85710358  1
  Ta  Ta110  1  0.27967832  0.28050905  0.62795088  1
  Ta  Ta111  1  0.21168335  0.82065205  0.25438223  1
  Ta  Ta112  1  0.58978833  0.59735313  0.25216605  1
  Ta  Ta113  1  0.51363217  0.88262564  0.36597246  1
  Ta  Ta114  1  0.39800067  -0.03222819  0.74846799  1
  Ta  Ta115  1  0.91904738  0.90582056  0.86226813  1
  Ta  Ta116  1  0.70455141  0.91227609  0.39161143  1
  Ta  Ta117  1  0.10121503  0.31091339  0.62433715  1
  Ta  Ta118  1  0.20261741  0.80260497  0.00312949  1
  Ta  Ta119  1  0.11294220  0.12345459  0.62041430  1
  Ti  Ti120  1  0.49672773  0.27053340  0.86496163  1
  Ti  Ti121  1  -0.00264098  0.20573067  -0.00025443  1
  Ti  Ti122  1  0.00147461  0.41289332  0.76313972  1
  Ti  Ti123  1  0.31002077  0.89613219  0.37618454  1
  Ti  Ti124  1  0.11431015  0.89829458  0.86461118  1
  Ti  Ti125  1  0.00923899  0.80185553  0.75066849  1
  Ti  Ti126  1  0.60964079  0.39055783  0.50467209  1
  Ti  Ti127  1  0.70240805  0.09434562  0.60124497  1
  Ti  Ti128  1  0.39349059  0.80489973  0.00293103  1
  Ti  Ti129  1  0.70965455  0.69169221  0.87915441  1
  Ti  Ti130  1  -0.00301916  0.21621965  0.50087327  1
  Ti  Ti131  1  0.78702786  0.21335040  0.00141860  1
  Ti  Ti132  1  0.70292519  0.49492290  0.37506379  1
  Ti  Ti133  1  0.69355735  0.50356634  0.12395394  1
  Ti  Ti134  1  0.79800510  0.01769950  0.25408265  1
  Ti  Ti135  1  0.79621884  0.80393463  0.50319054  1
  Ti  Ti136  1  0.00212477  0.81502806  0.26556617  1
  Ti  Ti137  1  0.19429700  0.39639455  0.49339978  1
  Ti  Ti138  1  0.60462204  0.39138444  -0.00485350  1
  Ti  Ti139  1  0.89964100  0.90831661  0.38991003  1
  Ti  Ti140  1  0.77446414  0.20946259  0.25111845  1
  Ti  Ti141  1  0.00376147  0.00511961  0.73768949  1
  Ti  Ti142  1  0.49863715  0.08086867  0.87127726  1
  Ti  Ti143  1  0.68963137  0.30689372  0.12469862  1
  Ti  Ti144  1  0.70619757  0.91198635  0.12695122  1
  Ti  Ti145  1  0.59396467  -0.01911222  0.50588432  1
  Ti  Ti146  1  0.59376087  0.39729639  0.74448385  1
  Ti  Ti147  1  0.59806032  0.60153059  0.74435119  1
  Ti  Ti148  1  0.29877628  0.47712765  0.11429460  1
  Ti  Ti149  1  -0.00351054  0.61985271  0.74881869  1
  Ti  Ti150  1  0.61319834  0.39875863  0.25415310  1
  Ti  Ti151  1  0.49426898  0.50172152  0.62404632  1
  Ti  Ti152  1  0.89823387  0.11662260  0.61647297  1
  Ti  Ti153  1  0.48969842  0.07792381  0.38805306  1
  Ti  Ti154  1  0.48063905  0.12054858  0.12855532  1
  Ti  Ti155  1  0.49339522  0.68298065  0.36647320  1
  Ti  Ti156  1  0.11250531  0.91061622  0.13131824  1
  Ti  Ti157  1  0.21087940  0.18420588  0.24035567  1
  Ti  Ti158  1  0.29416520  0.08574392  0.36844237  1
  Ti  Ti159  1  0.21265547  0.80778801  0.49852646  1
  Mo  Mo160  1  0.90081649  0.70799891  0.86975272  1
  Mo  Mo161  1  0.00094826  0.40793958  0.23679611  1
  Mo  Mo162  1  0.30683591  0.89955042  0.87730061  1
  Mo  Mo163  1  0.60109636  0.79293964  0.25682620  1
  Mo  Mo164  1  0.28942429  0.09950101  0.12598334  1
  Mo  Mo165  1  0.40176158  -0.02220230  0.48932760  1
  Mo  Mo166  1  0.09131729  0.30586867  0.88638197  1
  Mo  Mo167  1  0.69005637  0.31206334  0.38423314  1
  Mo  Mo168  1  0.79567462  0.40980852  0.74918406  1
  Mo  Mo169  1  0.89932612  0.70470769  0.62234901  1
  Mo  Mo170  1  0.39991578  0.58964049  0.49969786  1
  Mo  Mo171  1  0.80121950  -0.00043147  0.51045007  1
  Mo  Mo172  1  0.30041175  0.49449682  0.87519144  1
  Mo  Mo173  1  0.39788003  0.19034907  0.26104998  1
  Mo  Mo174  1  0.50883901  0.29851426  0.12292511  1
  Mo  Mo175  1  0.30394894  0.69321433  0.36174212  1
  Mo  Mo176  1  0.18200293  0.61335306  0.00279957  1
  Mo  Mo177  1  0.19247266  0.00468890  0.25207840  1
  Mo  Mo178  1  0.30372548  0.28250771  0.86798332  1
  Mo  Mo179  1  0.61383078  0.58534983  0.00091172  1
  Mo  Mo180  1  0.31672311  0.89727873  0.61630433  1
  Mo  Mo181  1  0.59184563  0.18857476  0.51934784  1
  Mo  Mo182  1  0.69500439  0.90010627  0.60867849  1
  Mo  Mo183  1  0.20476644  0.20391469  0.75856354  1
  Mo  Mo184  1  0.40222050  0.78870921  0.75625556  1
  Mo  Mo185  1  0.78431157  0.40471783  0.23909016  1
  Mo  Mo186  1  0.50278198  0.68137813  0.62935400  1
  Mo  Mo187  1  -0.00104841  0.61444617  0.24588224  1
  Mo  Mo188  1  0.29777972  0.08797924  0.62814048  1
  Mo  Mo189  1  0.40947896  0.18191540  -0.00652630  1
  Mo  Mo190  1  0.09357104  0.71764661  0.86360309  1
  Mo  Mo191  1  0.80321484  0.21086261  0.50630292  1
  Mo  Mo192  1  0.79981985  0.19664026  0.74674127  1
  Mo  Mo193  1  0.48325977  0.90300891  0.88181918  1
  Mo  Mo194  1  0.21341872  0.61120310  0.25286458  1
  Mo  Mo195  1  0.18751742  0.20369930  0.49833522  1
  Mo  Mo196  1  0.60331161  0.79346452  0.49301906  1
  Mo  Mo197  1  0.29762508  0.88692855  0.13103407  1
  Mo  Mo198  1  0.22019462  0.40978598  -0.01068563  1
  Mo  Mo199  1  0.30541333  0.49029861  0.37450549  1
