# generated using pymatgen
data_HfZrTaTiMo
_symmetry_space_group_name_H-M   'P 1'
_cell_length_a   15.20895824
_cell_length_b   15.22349510
_cell_length_c   16.86442651
_cell_angle_alpha   89.92182163
_cell_angle_beta   89.96058119
_cell_angle_gamma   89.99732714
_symmetry_Int_Tables_number   1
_chemical_formula_structural   HfZrTaTiMo
_chemical_formula_sum   'Hf40 Zr40 Ta40 Ti40 Mo40'
_cell_volume   3904.67515310
_cell_formula_units_Z   40
loop_
 _symmetry_equiv_pos_site_id
 _symmetry_equiv_pos_as_xyz
  1  'x, y, z'
loop_
 _atom_site_type_symbol
 _atom_site_label
 _atom_site_symmetry_multiplicity
 _atom_site_fract_x
 _atom_site_fract_y
 _atom_site_fract_z
 _atom_site_occupancy
  Hf  Hf0  1  0.09906104  0.69214325  0.12272563  1
  Hf  Hf1  1  0.09403424  0.51451805  0.62154152  1
  Hf  Hf2  1  0.19816806  0.60013860  0.25949595  1
  Hf  Hf3  1  0.81864310  0.60919992  0.76925565  1
  Hf  Hf4  1  0.80882239  0.61583500  -0.01237448  1
  Hf  Hf5  1  0.50203310  0.87925341  0.36076549  1
  Hf  Hf6  1  -0.00324625  0.80821200  0.49486784  1
  Hf  Hf7  1  0.69382800  0.29718119  0.61705763  1
  Hf  Hf8  1  0.90756554  0.49911881  0.38458677  1
  Hf  Hf9  1  -0.00678697  0.40663246  0.74337119  1
  Hf  Hf10  1  0.29081252  0.10849503  0.12067079  1
  Hf  Hf11  1  0.29770397  0.70691711  0.63263189  1
  Hf  Hf12  1  -0.00705602  0.20601708  0.73762709  1
  Hf  Hf13  1  0.59672617  0.38875619  0.75309637  1
  Hf  Hf14  1  0.39324161  0.60975008  -0.01392468  1
  Hf  Hf15  1  -0.01566581  0.80087364  0.74932667  1
  Hf  Hf16  1  0.28706857  0.30396483  0.39066949  1
  Hf  Hf17  1  0.39588899  -0.00484599  0.23507455  1
  Hf  Hf18  1  0.59509212  0.38818621  0.48708164  1
  Hf  Hf19  1  -0.00003067  0.39723576  -0.01091366  1
  Hf  Hf20  1  0.49314493  0.51399180  0.12581738  1
  Hf  Hf21  1  0.09084142  0.91640630  0.11572467  1
  Hf  Hf22  1  0.59282545  0.59587330  0.50320161  1
  Hf  Hf23  1  0.29685160  0.89617336  0.11762301  1
  Hf  Hf24  1  0.49142257  0.30558136  0.13037474  1
  Hf  Hf25  1  0.89323668  0.89513147  0.88377579  1
  Hf  Hf26  1  0.39141796  0.18307872  0.50245651  1
  Hf  Hf27  1  0.80120086  -0.02212719  0.73441933  1
  Hf  Hf28  1  0.09981865  0.90505428  0.87584695  1
  Hf  Hf29  1  0.09500414  0.10356062  0.86654173  1
  Hf  Hf30  1  0.60374108  0.79637522  0.00410818  1
  Hf  Hf31  1  -0.01099809  0.79074154  0.00125284  1
  Hf  Hf32  1  0.80739938  -0.01927872  0.50507121  1
  Hf  Hf33  1  0.32601587  0.70793223  0.36559499  1
  Hf  Hf34  1  0.48911020  0.49800055  0.86835447  1
  Hf  Hf35  1  0.21777827  0.20559275  0.74165637  1
  Hf  Hf36  1  0.39753469  0.61041954  0.50790210  1
  Hf  Hf37  1  0.41275711  -0.00431836  0.00244261  1
  Hf  Hf38  1  0.90530884  0.70476699  0.61595928  1
  Hf  Hf39  1  0.61405598  0.80929728  0.75581877  1
  Zr  Zr40  1  0.69730108  0.50116247  0.37496978  1
  Zr  Zr41  1  0.08842173  0.30282823  0.39744045  1
  Zr  Zr42  1  0.31633576  0.69730506  0.13703339  1
  Zr  Zr43  1  0.49744181  0.49923645  0.63859258  1
  Zr  Zr44  1  0.81103549  0.00716028  0.02491258  1
  Zr  Zr45  1  0.20909274  0.78781424  -0.00879661  1
  Zr  Zr46  1  0.21066518  0.80633833  0.49486331  1
  Zr  Zr47  1  0.59422088  0.40138699  0.25677241  1
  Zr  Zr48  1  0.69772959  0.91501670  0.89192017  1
  Zr  Zr49  1  0.50345442  0.08668709  0.36590863  1
  Zr  Zr50  1  0.79343075  0.39545984  0.74889561  1
  Zr  Zr51  1  0.79424124  0.19416017  0.49677075  1
  Zr  Zr52  1  0.49432386  0.09772008  0.61976890  1
  Zr  Zr53  1  0.60743097  0.00410053  0.74807942  1
  Zr  Zr54  1  0.80185472  0.40491422  0.24618146  1
  Zr  Zr55  1  0.19597513  0.81164922  0.25754021  1
  Zr  Zr56  1  0.08877451  0.68572739  0.86613483  1
  Zr  Zr57  1  0.11097795  0.89681127  0.63001105  1
  Zr  Zr58  1  0.60819867  0.59962390  0.75904586  1
  Zr  Zr59  1  0.70457575  0.49013992  0.88730891  1
  Zr  Zr60  1  0.78903683  0.18687666  0.74399657  1
  Zr  Zr61  1  0.17349825  0.40319416  0.25589171  1
  Zr  Zr62  1  0.70590279  0.89434977  0.36701273  1
  Zr  Zr63  1  0.90337408  0.29922343  0.13109427  1
  Zr  Zr64  1  0.30327882  0.10710018  0.88180085  1
  Zr  Zr65  1  0.38549125  0.40022296  0.25950787  1
  Zr  Zr66  1  0.09937383  0.09559262  0.38670649  1
  Zr  Zr67  1  0.89220491  0.29564672  0.87917385  1
  Zr  Zr68  1  0.69512207  0.50894889  0.11609030  1
  Zr  Zr69  1  -0.00340195  0.59301333  0.25751166  1
  Zr  Zr70  1  0.10764673  0.10363396  0.61994234  1
  Zr  Zr71  1  0.87953273  0.50368026  0.61426590  1
  Zr  Zr72  1  0.40239165  0.40449466  0.50105167  1
  Zr  Zr73  1  0.70656717  0.69361192  0.62806717  1
  Zr  Zr74  1  0.29285829  0.50124405  0.12547735  1
  Zr  Zr75  1  0.40638038  0.01097264  0.76232540  1
  Zr  Zr76  1  0.18834567  0.20376524  0.24679403  1
  Zr  Zr77  1  0.30410046  0.10613368  0.36344483  1
  Zr  Zr78  1  0.90023714  0.10244592  0.36300629  1
  Zr  Zr79  1  0.40394094  0.20959494  -0.00101043  1
  Ta  Ta80  1  0.89930992  0.30010203  0.36386473  1
  Ta  Ta81  1  0.60634419  0.19327303  0.24526059  1
  Ta  Ta82  1  0.19378034  0.58643575  -0.00944920  1
  Ta  Ta83  1  0.60456327  -0.01115153  0.22843448  1
  Ta  Ta84  1  0.39030481  0.40793080  -0.00657297  1
  Ta  Ta85  1  0.28680150  0.50063920  0.85541534  1
  Ta  Ta86  1  0.78846485  0.61194948  0.25233235  1
  Ta  Ta87  1  0.29105440  0.50782691  0.38393650  1
  Ta  Ta88  1  0.68698183  0.28025569  0.88777546  1
  Ta  Ta89  1  0.91268643  0.90369143  0.36087958  1
  Ta  Ta90  1  0.09855194  0.49325015  0.86111315  1
  Ta  Ta91  1  0.19867230  0.39771279  -0.00748094  1
  Ta  Ta92  1  0.50109108  0.10535562  0.13227076  1
  Ta  Ta93  1  0.60947328  0.79273137  0.50165560  1
  Ta  Ta94  1  0.31033742  0.89304506  0.87949562  1
  Ta  Ta95  1  0.09556803  0.69875501  0.38246965  1
  Ta  Ta96  1  0.60522301  0.00303290  0.02702576  1
  Ta  Ta97  1  0.80302471  0.79815295  0.24532161  1
  Ta  Ta98  1  -0.00271137  0.18276302  -0.00010435  1
  Ta  Ta99  1  0.92451385  0.10029816  0.14615759  1
  Ta  Ta100  1  0.90374946  0.50725821  0.11949267  1
  Ta  Ta101  1  0.28876838  0.49740811  0.63987013  1
  Ta  Ta102  1  -0.00486410  0.00185142  0.74305978  1
  Ta  Ta103  1  0.58821354  0.39224972  -0.00136676  1
  Ta  Ta104  1  0.59288314  0.19637298  0.75292027  1
  Ta  Ta105  1  0.09093381  0.49017813  0.11775114  1
  Ta  Ta106  1  0.49918108  0.71095886  0.63637452  1
  Ta  Ta107  1  0.89327430  0.09097372  0.87312839  1
  Ta  Ta108  1  0.49622871  0.71729036  0.86892279  1
  Ta  Ta109  1  0.10872063  0.31158332  0.61327588  1
  Ta  Ta110  1  0.28904558  0.30726680  0.11958126  1
  Ta  Ta111  1  0.69707136  0.29564061  0.12359303  1
  Ta  Ta112  1  0.80101812  0.00029701  0.23743986  1
  Ta  Ta113  1  0.22434026  0.00903790  0.50567244  1
  Ta  Ta114  1  0.79534239  0.61143621  0.48916813  1
  Ta  Ta115  1  0.21095798  0.79825859  0.76050692  1
  Ta  Ta116  1  0.52873413  0.10185467  0.88746928  1
  Ta  Ta117  1  0.89362405  0.69951729  0.12953848  1
  Ta  Ta118  1  0.59754788  -0.01192168  0.49800506  1
  Ta  Ta119  1  0.30434565  0.91124039  0.37423045  1
  Ti  Ti120  1  -0.01103408  0.39866295  0.51379328  1
  Ti  Ti121  1  0.69094622  0.08916736  0.61293243  1
  Ti  Ti122  1  0.00441539  0.80142409  0.25558949  1
  Ti  Ti123  1  0.19909472  0.60612042  0.50114417  1
  Ti  Ti124  1  0.49489308  0.29224959  0.62654660  1
  Ti  Ti125  1  0.10532808  0.30002367  0.86710205  1
  Ti  Ti126  1  0.69875768  0.09121672  0.36596162  1
  Ti  Ti127  1  0.59718998  0.19107789  0.48771893  1
  Ti  Ti128  1  0.30019364  0.29890592  0.61618448  1
  Ti  Ti129  1  0.40600405  0.81281688  0.75422842  1
  Ti  Ti130  1  0.10128840  0.70140312  0.63150252  1
  Ti  Ti131  1  0.89236944  0.70710409  0.37652759  1
  Ti  Ti132  1  0.51412175  0.70492709  0.14195563  1
  Ti  Ti133  1  0.49022537  0.28178278  0.36226506  1
  Ti  Ti134  1  0.80011321  0.19499140  0.00787868  1
  Ti  Ti135  1  0.20787067  -0.00373918  0.75065993  1
  Ti  Ti136  1  0.70313868  0.28490630  0.36612195  1
  Ti  Ti137  1  0.29680845  0.30887441  0.87200178  1
  Ti  Ti138  1  0.00603671  -0.00238038  0.50417875  1
  Ti  Ti139  1  0.60744234  0.19335499  0.01395170  1
  Ti  Ti140  1  0.38846737  0.38252314  0.74660943  1
  Ti  Ti141  1  0.41198178  0.80030701  0.00037456  1
  Ti  Ti142  1  0.18408568  0.00162018  0.24913899  1
  Ti  Ti143  1  0.79668195  0.39204729  0.49666750  1
  Ti  Ti144  1  0.39138611  0.61342930  0.75506135  1
  Ti  Ti145  1  0.31680018  0.91174901  0.62803097  1
  Ti  Ti146  1  0.41378476  0.80895270  0.50371702  1
  Ti  Ti147  1  0.59639428  0.60558052  -0.01372926  1
  Ti  Ti148  1  0.89757798  0.09542896  0.62129649  1
  Ti  Ti149  1  0.70376730  0.88249405  0.12836979  1
  Ti  Ti150  1  0.09938778  0.49966377  0.40008026  1
  Ti  Ti151  1  0.90579536  0.89687267  0.13576220  1
  Ti  Ti152  1  0.09236900  0.29220888  0.12176398  1
  Ti  Ti153  1  0.19275152  0.00921529  -0.00414561  1
  Ti  Ti154  1  0.49289360  0.29512310  0.87509180  1
  Ti  Ti155  1  0.51070479  0.89803301  0.62206679  1
  Ti  Ti156  1  0.79578335  0.39560013  0.00398883  1
  Ti  Ti157  1  -0.01117469  0.20306102  0.51171185  1
  Ti  Ti158  1  0.18996216  0.20823764  -0.00190563  1
  Ti  Ti159  1  0.48729130  0.51764957  0.36639105  1
  Mo  Mo160  1  0.70008969  0.70221541  0.37661556  1
  Mo  Mo161  1  0.30263322  0.09577424  0.63075610  1
  Mo  Mo162  1  0.00156511  0.00637458  -0.00355098  1
  Mo  Mo163  1  0.49928029  0.90490572  0.88384966  1
  Mo  Mo164  1  0.50142176  0.89185948  0.13135362  1
  Mo  Mo165  1  0.00139777  0.60895798  0.49071263  1
  Mo  Mo166  1  0.70202731  0.69382253  0.12380970  1
  Mo  Mo167  1  0.90569402  0.90216152  0.62136641  1
  Mo  Mo168  1  0.10410266  0.90390352  0.37952478  1
  Mo  Mo169  1  0.69692500  0.89250564  0.61171563  1
  Mo  Mo170  1  0.79472231  0.19766099  0.25101407  1
  Mo  Mo171  1  0.59886380  0.60493379  0.25434146  1
  Mo  Mo172  1  0.20227196  0.41306053  0.50960118  1
  Mo  Mo173  1  0.91692325  0.50595229  0.88081236  1
  Mo  Mo174  1  0.30360208  0.70025041  0.86372739  1
  Mo  Mo175  1  0.51721349  0.69647882  0.36881832  1
  Mo  Mo176  1  0.09992933  0.10608142  0.11966011  1
  Mo  Mo177  1  0.40144312  0.20746686  0.24193902  1
  Mo  Mo178  1  0.19893089  0.39555476  0.74402503  1
  Mo  Mo179  1  0.41206745  0.21089979  0.75585207  1
  Mo  Mo180  1  0.79578338  0.79986968  0.75324244  1
  Mo  Mo181  1  0.80055589  0.79662543  0.49036814  1
  Mo  Mo182  1  0.00081303  0.60051475  0.74722307  1
  Mo  Mo183  1  0.70966388  0.10476068  0.88478702  1
  Mo  Mo184  1  0.40477133  0.60043005  0.25608651  1
  Mo  Mo185  1  0.70192679  0.71100070  0.87766982  1
  Mo  Mo186  1  0.70822672  0.10577156  0.13565533  1
  Mo  Mo187  1  0.40418172  -0.01853539  0.49891178  1
  Mo  Mo188  1  0.00800593  -0.00751486  0.25339325  1
  Mo  Mo189  1  0.20052491  0.20225976  0.51323930  1
  Mo  Mo190  1  -0.00030385  0.40085336  0.25025772  1
  Mo  Mo191  1  0.69541469  0.49114407  0.60670170  1
  Mo  Mo192  1  0.61504452  0.78791781  0.24146761  1
  Mo  Mo193  1  0.89737987  0.70729715  0.87872355  1
  Mo  Mo194  1  0.40915965  0.80388248  0.24361681  1
  Mo  Mo195  1  0.00381659  0.20761520  0.25216744  1
  Mo  Mo196  1  0.19796198  0.60192904  0.74491344  1
  Mo  Mo197  1  0.79915984  0.80277324  0.02066625  1
  Mo  Mo198  1  0.00360987  0.59117045  0.00244776  1
  Mo  Mo199  1  0.90241575  0.29310079  0.61741398  1
