# generated using pymatgen
data_HfZrTaTiMo
_symmetry_space_group_name_H-M   'P 1'
_cell_length_a   15.21553276
_cell_length_b   15.21137795
_cell_length_c   16.84962893
_cell_angle_alpha   89.97641206
_cell_angle_beta   89.96300107
_cell_angle_gamma   90.01441311
_symmetry_Int_Tables_number   1
_chemical_formula_structural   HfZrTaTiMo
_chemical_formula_sum   'Hf40 Zr40 Ta40 Ti40 Mo40'
_cell_volume   3899.83220025
_cell_formula_units_Z   40
loop_
 _symmetry_equiv_pos_site_id
 _symmetry_equiv_pos_as_xyz
  1  'x, y, z'
loop_
 _atom_site_type_symbol
 _atom_site_label
 _atom_site_symmetry_multiplicity
 _atom_site_fract_x
 _atom_site_fract_y
 _atom_site_fract_z
 _atom_site_occupancy
  Hf  Hf0  1  0.20471738  0.40658999  0.74790229  1
  Hf  Hf1  1  0.59881507  0.59430714  0.74234291  1
  Hf  Hf2  1  0.50755474  0.49928233  0.61455991  1
  Hf  Hf3  1  0.29000007  0.08640847  0.62777585  1
  Hf  Hf4  1  0.30377771  0.30458211  0.87010097  1
  Hf  Hf5  1  0.79232729  0.18106930  0.24506383  1
  Hf  Hf6  1  0.79049375  0.79441621  0.49388755  1
  Hf  Hf7  1  0.39767265  0.62774917  0.73903403  1
  Hf  Hf8  1  0.62645860  0.80744557  -0.00149230  1
  Hf  Hf9  1  0.89864637  0.29504367  0.86963536  1
  Hf  Hf10  1  0.40019373  0.39881522  0.48764695  1
  Hf  Hf11  1  0.10445845  0.11563762  0.36204880  1
  Hf  Hf12  1  0.91516151  0.90914340  0.63612357  1
  Hf  Hf13  1  0.08143348  0.91146164  0.12663220  1
  Hf  Hf14  1  0.50564038  0.49697049  0.87772870  1
  Hf  Hf15  1  0.51320335  0.27903703  0.60840744  1
  Hf  Hf16  1  -0.00305475  0.81750643  0.49315935  1
  Hf  Hf17  1  0.30496144  0.51604557  0.87736984  1
  Hf  Hf18  1  0.30020246  0.90217948  0.36644394  1
  Hf  Hf19  1  0.21805482  0.80012384  0.77174246  1
  Hf  Hf20  1  0.60892317  0.61069561  0.50275581  1
  Hf  Hf21  1  0.11088490  0.50678436  0.62773974  1
  Hf  Hf22  1  0.00583334  0.59571990  0.49705699  1
  Hf  Hf23  1  0.80358151  0.60220754  0.73456298  1
  Hf  Hf24  1  0.09324542  0.91938969  0.35764265  1
  Hf  Hf25  1  0.89803471  0.30530638  0.11533663  1
  Hf  Hf26  1  0.09465172  0.29794253  0.86492758  1
  Hf  Hf27  1  0.19000619  0.41030871  0.48452073  1
  Hf  Hf28  1  -0.01189962  0.79282471  -0.00348054  1
  Hf  Hf29  1  0.72127359  0.50779978  0.37772069  1
  Hf  Hf30  1  0.51408003  0.49099693  0.13262858  1
  Hf  Hf31  1  0.30153680  0.29512405  0.61077851  1
  Hf  Hf32  1  0.18922649  0.18853926  0.74075038  1
  Hf  Hf33  1  0.29784171  0.88266285  0.62718581  1
  Hf  Hf34  1  0.29726531  0.48760323  0.14351536  1
  Hf  Hf35  1  0.40791985  0.38462105  0.26849895  1
  Hf  Hf36  1  0.50297521  0.10397243  0.12857404  1
  Hf  Hf37  1  0.79719663  0.41577012  -0.00979263  1
  Hf  Hf38  1  0.20100130  0.20378104  0.00899785  1
  Hf  Hf39  1  0.40623866  0.59923169  0.25507255  1
  Zr  Zr40  1  0.08405198  0.30166094  0.63229222  1
  Zr  Zr41  1  0.09104481  0.71784286  0.36773756  1
  Zr  Zr42  1  0.78691680  0.19007593  0.50901769  1
  Zr  Zr43  1  0.70669977  0.90033793  0.64252027  1
  Zr  Zr44  1  0.69716743  0.29152074  0.37780349  1
  Zr  Zr45  1  0.49305424  0.70119790  0.89052912  1
  Zr  Zr46  1  0.81514100  0.38909996  0.50785595  1
  Zr  Zr47  1  0.40138524  0.60122931  0.48953091  1
  Zr  Zr48  1  0.39339208  0.60062896  0.01976165  1
  Zr  Zr49  1  0.11401492  0.72039647  0.62240702  1
  Zr  Zr50  1  0.40817498  0.00828457  0.50144841  1
  Zr  Zr51  1  0.39865199  0.79356580  0.49604711  1
  Zr  Zr52  1  0.50436068  0.91528202  0.11606066  1
  Zr  Zr53  1  0.28665868  0.27937508  0.37905934  1
  Zr  Zr54  1  0.79034628  0.19471456  -0.00492481  1
  Zr  Zr55  1  0.21225830  0.61452371  0.47727441  1
  Zr  Zr56  1  -0.01427506  0.60191916  0.25746891  1
  Zr  Zr57  1  0.50827350  0.70974652  0.36658673  1
  Zr  Zr58  1  0.51943818  0.69745976  0.11965798  1
  Zr  Zr59  1  0.86816457  0.88819052  0.12449245  1
  Zr  Zr60  1  0.71681012  0.70704687  0.86007499  1
  Zr  Zr61  1  0.68965795  0.29731019  0.12498077  1
  Zr  Zr62  1  0.00717631  0.61496609  0.74857751  1
  Zr  Zr63  1  0.20024818  -0.00503580  0.01000009  1
  Zr  Zr64  1  0.71641928  0.50842753  0.13060018  1
  Zr  Zr65  1  0.50483232  0.29741971  0.86924650  1
  Zr  Zr66  1  0.09782916  0.50367794  0.13502142  1
  Zr  Zr67  1  0.90422066  0.08608570  0.10816735  1
  Zr  Zr68  1  0.08318893  0.09082601  0.88431556  1
  Zr  Zr69  1  0.39113710  0.80494041  0.23048801  1
  Zr  Zr70  1  0.61250026  0.81276227  0.24509359  1
  Zr  Zr71  1  0.91844178  0.48371937  0.63215828  1
  Zr  Zr72  1  0.40722973  0.40604565  0.73617239  1
  Zr  Zr73  1  0.40019341  0.19872897  0.00512608  1
  Zr  Zr74  1  0.50607204  0.89984449  0.62999427  1
  Zr  Zr75  1  0.29649740  0.09869030  0.86986129  1
  Zr  Zr76  1  0.80697470  -0.00572171  0.50024449  1
  Zr  Zr77  1  0.20253677  0.40595847  -0.00151616  1
  Zr  Zr78  1  0.10326656  0.30955913  0.14064220  1
  Zr  Zr79  1  0.67979131  0.10259099  0.63986441  1
  Ta  Ta80  1  0.09016427  0.70114838  0.12782352  1
  Ta  Ta81  1  0.20457581  0.60914294  0.26156785  1
  Ta  Ta82  1  0.59754283  0.19592062  -0.00380426  1
  Ta  Ta83  1  0.79874616  0.40207065  0.74955784  1
  Ta  Ta84  1  0.38668919  0.18138657  0.24798719  1
  Ta  Ta85  1  0.39068235  -0.01926084  0.76148374  1
  Ta  Ta86  1  0.60919244  0.39859498  0.25959748  1
  Ta  Ta87  1  0.00098615  0.59517192  -0.00412014  1
  Ta  Ta88  1  0.59005195  0.20143924  0.25338473  1
  Ta  Ta89  1  0.62139024  0.59500648  -0.00112551  1
  Ta  Ta90  1  0.81377971  0.62422225  -0.00481955  1
  Ta  Ta91  1  -0.00034208  0.40437562  -0.00961553  1
  Ta  Ta92  1  0.49731271  0.10091812  0.36903801  1
  Ta  Ta93  1  0.79444288  0.77338004  0.25919439  1
  Ta  Ta94  1  0.38488178  0.80658644  0.01210432  1
  Ta  Ta95  1  -0.01151138  0.20576749  0.50006673  1
  Ta  Ta96  1  0.40211495  0.39650359  0.00914101  1
  Ta  Ta97  1  0.10741977  0.91880925  0.62819099  1
  Ta  Ta98  1  0.81717478  0.39154827  0.25584343  1
  Ta  Ta99  1  0.19434069  0.80588889  0.23342655  1
  Ta  Ta100  1  0.69270558  0.10340495  0.86134135  1
  Ta  Ta101  1  0.69982708  0.07596287  0.12054356  1
  Ta  Ta102  1  0.10507167  0.69781610  0.88299946  1
  Ta  Ta103  1  -0.01428474  0.20866575  0.24814594  1
  Ta  Ta104  1  0.90161709  0.50838816  0.86772765  1
  Ta  Ta105  1  0.80428722  0.59613435  0.52043486  1
  Ta  Ta106  1  0.51872812  0.49328712  0.37565842  1
  Ta  Ta107  1  0.89954193  0.09967316  0.37150065  1
  Ta  Ta108  1  0.50074562  0.09568746  0.86294109  1
  Ta  Ta109  1  0.62458559  0.60777598  0.25581246  1
  Ta  Ta110  1  0.21954682  0.01237657  0.23377441  1
  Ta  Ta111  1  0.07728485  0.31321220  0.36592468  1
  Ta  Ta112  1  0.19838502  0.79652013  0.00681868  1
  Ta  Ta113  1  0.78612574  0.20781209  0.74850928  1
  Ta  Ta114  1  0.61494982  0.39063798  0.73606021  1
  Ta  Ta115  1  0.58584976  0.79879232  0.75734780  1
  Ta  Ta116  1  0.92055459  0.47697300  0.38266339  1
  Ta  Ta117  1  0.81539268  0.01352696  0.75377305  1
  Ta  Ta118  1  0.69345590  0.70889444  0.63322081  1
  Ta  Ta119  1  0.09846438  0.50295981  0.87062541  1
  Ti  Ti120  1  0.29889832  0.29188242  0.14113413  1
  Ti  Ti121  1  0.18437173  -0.01079572  0.76395633  1
  Ti  Ti122  1  0.01227472  0.81342260  0.76374517  1
  Ti  Ti123  1  0.50240808  0.28301856  0.39137339  1
  Ti  Ti124  1  0.60656021  0.00612542  -0.01329033  1
  Ti  Ti125  1  0.49190322  0.09224551  0.64479074  1
  Ti  Ti126  1  -0.01824003  0.00957994  0.24779754  1
  Ti  Ti127  1  0.88637541  0.90115952  0.36171421  1
  Ti  Ti128  1  0.20707402  0.60933927  0.75294031  1
  Ti  Ti129  1  0.30100179  0.51116619  0.61933235  1
  Ti  Ti130  1  0.69631062  0.08713139  0.37372633  1
  Ti  Ti131  1  0.88339748  0.68255936  0.38380466  1
  Ti  Ti132  1  0.39652264  0.00191866  -0.00501550  1
  Ti  Ti133  1  0.60991931  0.00474630  0.25258776  1
  Ti  Ti134  1  0.61487949  0.39464253  0.50336173  1
  Ti  Ti135  1  0.60574431  0.00116724  0.49532156  1
  Ti  Ti136  1  0.19286313  0.00134527  0.49740063  1
  Ti  Ti137  1  0.89753437  0.89483243  0.86949277  1
  Ti  Ti138  1  0.70432830  0.90814907  0.85573861  1
  Ti  Ti139  1  0.59965686  0.80866178  0.49651833  1
  Ti  Ti140  1  0.00455294  0.01627104  0.49892750  1
  Ti  Ti141  1  0.49579770  0.90014636  0.88140663  1
  Ti  Ti142  1  0.89658160  0.28769210  0.64050662  1
  Ti  Ti143  1  0.19681218  0.60704882  0.00541988  1
  Ti  Ti144  1  0.70089501  0.50132532  0.87104847  1
  Ti  Ti145  1  -0.01370097  0.80199089  0.24519303  1
  Ti  Ti146  1  0.10022023  0.10985650  0.13476606  1
  Ti  Ti147  1  0.30030103  0.09405465  0.37899282  1
  Ti  Ti148  1  0.49612819  0.30036292  0.13086759  1
  Ti  Ti149  1  0.89063431  0.08891152  0.88711025  1
  Ti  Ti150  1  0.69304698  0.30337234  0.87340333  1
  Ti  Ti151  1  0.39728254  0.19861880  0.74504244  1
  Ti  Ti152  1  0.18264527  0.19188508  0.50801256  1
  Ti  Ti153  1  0.19903095  0.81067555  0.48959164  1
  Ti  Ti154  1  0.50612144  0.91195988  0.36906793  1
  Ti  Ti155  1  0.90234576  0.71410145  0.62465470  1
  Ti  Ti156  1  0.00352774  0.20076063  0.00314067  1
  Ti  Ti157  1  -0.01714567  0.17097252  0.74593617  1
  Ti  Ti158  1  0.90528896  0.50415429  0.12235881  1
  Ti  Ti159  1  0.59866399  0.39660799  0.00056310  1
  Mo  Mo160  1  0.50631349  0.71259489  0.62291832  1
  Mo  Mo161  1  0.29547994  0.90365665  0.12181492  1
  Mo  Mo162  1  0.28126748  0.69600824  0.12865250  1
  Mo  Mo163  1  0.10197265  0.50183423  0.36457940  1
  Mo  Mo164  1  0.70536155  0.49845235  0.62038264  1
  Mo  Mo165  1  0.59293594  -0.00368593  0.76530969  1
  Mo  Mo166  1  0.29522162  0.71230507  0.36001098  1
  Mo  Mo167  1  0.72359490  0.70619801  0.12135942  1
  Mo  Mo168  1  -0.00892524  0.40165951  0.24691844  1
  Mo  Mo169  1  0.89837610  0.28554150  0.37307746  1
  Mo  Mo170  1  0.70137407  0.30216712  0.62582074  1
  Mo  Mo171  1  0.30708517  0.49673928  0.35982516  1
  Mo  Mo172  1  0.78503969  -0.01471425  -0.01947025  1
  Mo  Mo173  1  0.90182519  0.10162955  0.62688806  1
  Mo  Mo174  1  0.80660990  0.58781895  0.25530957  1
  Mo  Mo175  1  0.09586302  0.89450002  0.88661758  1
  Mo  Mo176  1  0.40877707  0.00197061  0.25474961  1
  Mo  Mo177  1  0.79085549  -0.01414555  0.25872479  1
  Mo  Mo178  1  0.40457960  0.80336710  0.75973950  1
  Mo  Mo179  1  0.39368587  0.18668333  0.50140583  1
  Mo  Mo180  1  0.19581122  0.19990975  0.24658765  1
  Mo  Mo181  1  0.30543834  0.89783742  0.88781902  1
  Mo  Mo182  1  0.00725985  0.38922042  0.50179775  1
  Mo  Mo183  1  0.80278794  0.80804837  -0.01292470  1
  Mo  Mo184  1  0.80938685  0.80436440  0.74511559  1
  Mo  Mo185  1  0.91076890  0.70283577  0.86498317  1
  Mo  Mo186  1  0.29639509  0.69934309  0.62329154  1
  Mo  Mo187  1  0.69543705  0.90302296  0.12182731  1
  Mo  Mo188  1  0.29756954  0.70052737  0.89009515  1
  Mo  Mo189  1  0.30386546  0.09966364  0.12324250  1
  Mo  Mo190  1  0.59189252  0.20396009  0.75361590  1
  Mo  Mo191  1  0.89661835  0.69079458  0.12630680  1
  Mo  Mo192  1  0.70504368  0.69950286  0.38285928  1
  Mo  Mo193  1  -0.00286153  0.39949434  0.76464187  1
  Mo  Mo194  1  0.69544008  0.90092353  0.37675340  1
  Mo  Mo195  1  0.00291205  -0.00374874  0.76120531  1
  Mo  Mo196  1  0.08614732  0.09144920  0.62211789  1
  Mo  Mo197  1  0.20097860  0.40540043  0.27218761  1
  Mo  Mo198  1  -0.01225462  -0.01065410  -0.00730132  1
  Mo  Mo199  1  0.58830602  0.17734334  0.49511044  1
