# generated using pymatgen
data_HfZrTaTiMo
_symmetry_space_group_name_H-M   'P 1'
_cell_length_a   15.21092835
_cell_length_b   15.21442527
_cell_length_c   16.87032295
_cell_angle_alpha   89.99797031
_cell_angle_beta   90.07374896
_cell_angle_gamma   89.98239514
_symmetry_Int_Tables_number   1
_chemical_formula_structural   HfZrTaTiMo
_chemical_formula_sum   'Hf40 Zr40 Ta40 Ti40 Mo40'
_cell_volume   3904.22005496
_cell_formula_units_Z   40
loop_
 _symmetry_equiv_pos_site_id
 _symmetry_equiv_pos_as_xyz
  1  'x, y, z'
loop_
 _atom_site_type_symbol
 _atom_site_label
 _atom_site_symmetry_multiplicity
 _atom_site_fract_x
 _atom_site_fract_y
 _atom_site_fract_z
 _atom_site_occupancy
  Hf  Hf0  1  0.09211682  0.28598727  0.12012016  1
  Hf  Hf1  1  -0.01340418  0.61032981  0.48755461  1
  Hf  Hf2  1  0.40216672  0.80896295  0.25937249  1
  Hf  Hf3  1  0.89326029  0.09699954  0.62641993  1
  Hf  Hf4  1  0.70310459  0.88313265  0.12955696  1
  Hf  Hf5  1  0.31008922  0.10339416  0.62034509  1
  Hf  Hf6  1  0.02121865  0.01218306  -0.00863648  1
  Hf  Hf7  1  0.49359179  0.70569358  0.63309887  1
  Hf  Hf8  1  0.69341870  0.08975802  0.13675064  1
  Hf  Hf9  1  0.00356210  0.80388492  0.00868630  1
  Hf  Hf10  1  0.91076184  0.50331481  0.63034094  1
  Hf  Hf11  1  0.00130623  -0.00178749  0.74827419  1
  Hf  Hf12  1  0.90827645  0.91105333  0.13056880  1
  Hf  Hf13  1  0.37757843  0.60746663  0.50305526  1
  Hf  Hf14  1  0.50209204  0.91618443  0.13540482  1
  Hf  Hf15  1  0.79403623  0.60070475  0.50670969  1
  Hf  Hf16  1  0.02030083  0.00771766  0.26679865  1
  Hf  Hf17  1  0.31503504  0.68921413  0.13581449  1
  Hf  Hf18  1  0.28952302  0.70172478  0.85533257  1
  Hf  Hf19  1  0.28289129  0.47776585  0.38202882  1
  Hf  Hf20  1  0.80210741  -0.00615886  0.26214324  1
  Hf  Hf21  1  0.09739627  0.68009815  0.62948916  1
  Hf  Hf22  1  0.31097067  0.89128914  0.61788931  1
  Hf  Hf23  1  0.92699480  0.11156617  0.12972628  1
  Hf  Hf24  1  0.80498500  0.81149640  0.74542692  1
  Hf  Hf25  1  0.50787918  0.11315045  0.38248726  1
  Hf  Hf26  1  0.19375116  0.18236737  -0.00266242  1
  Hf  Hf27  1  0.80944899  0.79942420  0.50119904  1
  Hf  Hf28  1  0.20340667  0.18536911  0.25315518  1
  Hf  Hf29  1  0.79417290  0.38731058  0.75092037  1
  Hf  Hf30  1  0.10208968  0.89244215  0.60635792  1
  Hf  Hf31  1  0.30835241  0.06980833  0.13086815  1
  Hf  Hf32  1  0.80603649  0.20529172  0.24947449  1
  Hf  Hf33  1  0.11533803  0.88583699  0.87030375  1
  Hf  Hf34  1  0.22620042  -0.01666544  -0.00878380  1
  Hf  Hf35  1  0.19036960  0.58083183  0.23051475  1
  Hf  Hf36  1  0.09130782  0.69815076  0.36299257  1
  Hf  Hf37  1  0.70970610  0.91468024  0.61160520  1
  Hf  Hf38  1  0.18045725  0.39434638  0.74646764  1
  Hf  Hf39  1  0.89764026  0.11687553  0.86230292  1
  Zr  Zr40  1  0.39498385  0.80595091  -0.00157241  1
  Zr  Zr41  1  0.19863752  0.78191596  0.01570944  1
  Zr  Zr42  1  0.90501741  0.31393110  0.37687664  1
  Zr  Zr43  1  0.67512210  0.50853985  0.11135235  1
  Zr  Zr44  1  0.90582303  0.69821724  0.88320483  1
  Zr  Zr45  1  0.31310753  0.10779557  0.85422055  1
  Zr  Zr46  1  0.68930257  0.30427022  0.37296723  1
  Zr  Zr47  1  0.80317207  0.00509212  0.00148782  1
  Zr  Zr48  1  0.28917678  0.48881456  0.86780650  1
  Zr  Zr49  1  0.59266405  0.80843699  -0.01207133  1
  Zr  Zr50  1  0.22224581  -0.01657249  0.27335433  1
  Zr  Zr51  1  0.28186356  0.49638317  0.63234689  1
  Zr  Zr52  1  0.90769284  0.88572568  0.37443045  1
  Zr  Zr53  1  0.80155144  0.41772123  0.25105389  1
  Zr  Zr54  1  0.38862001  0.39171741  0.25344783  1
  Zr  Zr55  1  0.69115307  0.71369262  0.38223079  1
  Zr  Zr56  1  0.39756979  0.19790994  -0.00395718  1
  Zr  Zr57  1  0.40791979  0.59956867  -0.01762634  1
  Zr  Zr58  1  0.90629150  0.29716483  0.62591965  1
  Zr  Zr59  1  0.80585265  0.21605361  0.00787338  1
  Zr  Zr60  1  0.20173812  0.57310220  0.02070949  1
  Zr  Zr61  1  0.68589122  0.10882223  0.87496368  1
  Zr  Zr62  1  0.59456521  0.19639950  0.01017042  1
  Zr  Zr63  1  0.00665043  0.79201028  0.75181107  1
  Zr  Zr64  1  0.29311966  0.69715218  0.65274691  1
  Zr  Zr65  1  0.52249241  0.69648341  0.13320993  1
  Zr  Zr66  1  0.00804713  0.20949391  0.49340634  1
  Zr  Zr67  1  0.60099737  0.01880233  0.73249350  1
  Zr  Zr68  1  0.79665069  0.39323637  0.50582859  1
  Zr  Zr69  1  0.29071307  0.69023360  0.36312598  1
  Zr  Zr70  1  -0.01652278  0.58852762  0.23694300  1
  Zr  Zr71  1  0.88033865  0.71027931  0.12553503  1
  Zr  Zr72  1  0.80418990  0.59743120  0.75197610  1
  Zr  Zr73  1  0.29945424  0.29334265  0.12175257  1
  Zr  Zr74  1  0.68964263  0.50970286  0.38402101  1
  Zr  Zr75  1  0.69327550  0.70390118  0.85930760  1
  Zr  Zr76  1  0.68644341  0.49428900  0.62735607  1
  Zr  Zr77  1  0.43712120  0.00339963  -0.01927441  1
  Zr  Zr78  1  0.20149570  -0.00002706  0.73791402  1
  Zr  Zr79  1  0.58573123  0.42238697  0.24982272  1
  Ta  Ta80  1  -0.00434255  0.39330654  -0.00363772  1
  Ta  Ta81  1  0.70036704  0.10287512  0.36878743  1
  Ta  Ta82  1  0.68985004  0.49354645  0.87698374  1
  Ta  Ta83  1  0.49333030  0.31015358  0.38681324  1
  Ta  Ta84  1  0.20511667  0.77371346  0.50050258  1
  Ta  Ta85  1  0.11597089  0.10703549  0.39145033  1
  Ta  Ta86  1  0.38786948  0.38132085  0.51375421  1
  Ta  Ta87  1  0.80025660  0.00500927  0.75064538  1
  Ta  Ta88  1  0.88977301  0.49065158  0.89275946  1
  Ta  Ta89  1  0.90808813  0.90367716  0.61172328  1
  Ta  Ta90  1  0.01959824  0.41673163  0.49627798  1
  Ta  Ta91  1  0.01071812  0.20729366  0.26733107  1
  Ta  Ta92  1  0.58670480  0.61119990  0.51204913  1
  Ta  Ta93  1  0.49991408  0.29406121  0.86965808  1
  Ta  Ta94  1  0.78829916  0.60290959  -0.00487817  1
  Ta  Ta95  1  0.39077199  0.39733705  -0.00935596  1
  Ta  Ta96  1  0.32032039  0.89370711  0.85047447  1
  Ta  Ta97  1  0.88338898  0.49527776  0.10503897  1
  Ta  Ta98  1  0.59344935  0.21031029  0.24663413  1
  Ta  Ta99  1  0.60500346  0.21962338  0.51103271  1
  Ta  Ta100  1  0.00295989  0.59859896  0.01665673  1
  Ta  Ta101  1  0.90437747  0.31263016  0.12982817  1
  Ta  Ta102  1  0.50122822  0.30769500  0.12336258  1
  Ta  Ta103  1  -0.00596449  0.00669546  0.48785691  1
  Ta  Ta104  1  0.48799829  0.49680267  0.62007964  1
  Ta  Ta105  1  0.40932648  0.00152819  0.49148731  1
  Ta  Ta106  1  0.79825183  0.18367886  0.49275661  1
  Ta  Ta107  1  0.76937638  0.61260200  0.23971204  1
  Ta  Ta108  1  0.70144484  0.30329566  0.87518601  1
  Ta  Ta109  1  0.49675045  0.70936871  0.38513928  1
  Ta  Ta110  1  0.11663933  0.91540225  0.12835166  1
  Ta  Ta111  1  0.41014605  0.58730428  0.26020275  1
  Ta  Ta112  1  0.11119918  0.89023692  0.39484591  1
  Ta  Ta113  1  0.89993783  0.90703291  0.87820605  1
  Ta  Ta114  1  0.39554356  0.38520326  0.74789749  1
  Ta  Ta115  1  0.18650862  0.39083096  0.24255933  1
  Ta  Ta116  1  0.69905196  0.91096505  0.87150761  1
  Ta  Ta117  1  0.69272951  0.70783028  0.62947622  1
  Ta  Ta118  1  0.17556137  0.57525777  0.49574843  1
  Ta  Ta119  1  0.48914711  0.50463012  0.39772767  1
  Ti  Ti120  1  0.69941607  0.31120403  0.12585097  1
  Ti  Ti121  1  0.50551946  0.90107487  0.60559779  1
  Ti  Ti122  1  0.11705841  0.31362484  0.37783588  1
  Ti  Ti123  1  0.68873768  0.90780539  0.38580157  1
  Ti  Ti124  1  0.20635351  0.20896767  0.73990272  1
  Ti  Ti125  1  0.31193913  0.88654602  0.39954718  1
  Ti  Ti126  1  0.59376241  0.59233678  0.75025643  1
  Ti  Ti127  1  0.09203886  0.49513576  0.88973909  1
  Ti  Ti128  1  0.49172080  0.71387215  0.85150200  1
  Ti  Ti129  1  0.59721331  0.81845140  0.74421008  1
  Ti  Ti130  1  -0.00728868  0.39813730  0.76751502  1
  Ti  Ti131  1  0.00887088  0.21228494  0.74879301  1
  Ti  Ti132  1  0.19716623  0.79854696  0.23804921  1
  Ti  Ti133  1  0.40096521  0.19522161  0.25632931  1
  Ti  Ti134  1  0.79417670  0.80141171  -0.00955184  1
  Ti  Ti135  1  0.41346086  0.00020387  0.27967797  1
  Ti  Ti136  1  0.00574408  0.58446396  0.76270081  1
  Ti  Ti137  1  0.30219233  0.27801294  0.38186038  1
  Ti  Ti138  1  0.50843824  0.11318928  0.61052058  1
  Ti  Ti139  1  0.00297533  0.40476477  0.25108131  1
  Ti  Ti140  1  0.00744702  0.80145849  0.23864731  1
  Ti  Ti141  1  0.61298463  0.01670474  0.50166236  1
  Ti  Ti142  1  0.88700182  0.69424224  0.35585146  1
  Ti  Ti143  1  0.40725059  0.58234742  0.75969340  1
  Ti  Ti144  1  0.47619603  0.50142062  0.11776256  1
  Ti  Ti145  1  -0.00179176  0.20389665  -0.01249120  1
  Ti  Ti146  1  0.10258682  0.68397511  0.87858898  1
  Ti  Ti147  1  0.59261626  0.60496591  -0.02055210  1
  Ti  Ti148  1  0.50105780  0.10442846  0.14155400  1
  Ti  Ti149  1  0.60708227  0.80754392  0.25938466  1
  Ti  Ti150  1  0.10704013  0.10332328  0.85970025  1
  Ti  Ti151  1  0.58660155  0.40107799  -0.00823287  1
  Ti  Ti152  1  0.10747012  0.29978244  0.88147403  1
  Ti  Ti153  1  0.21243593  0.21494963  0.51140569  1
  Ti  Ti154  1  0.42260553  0.20166085  0.74043367  1
  Ti  Ti155  1  0.41747890  -0.00125828  0.74220186  1
  Ti  Ti156  1  0.58760548  0.39503723  0.75041579  1
  Ti  Ti157  1  0.90238025  0.70702330  0.62660105  1
  Ti  Ti158  1  0.20580973  0.00473508  0.49806334  1
  Ti  Ti159  1  0.09873177  0.10853488  0.61707894  1
  Mo  Mo160  1  0.69552502  0.70116844  0.11435018  1
  Mo  Mo161  1  0.60966361  -0.00086907  0.00093442  1
  Mo  Mo162  1  0.10566054  0.09370529  0.12891477  1
  Mo  Mo163  1  0.50829664  0.10923922  0.86018735  1
  Mo  Mo164  1  0.19795424  0.80297887  0.74713625  1
  Mo  Mo165  1  0.60806587  0.21949998  0.73781328  1
  Mo  Mo166  1  0.80378089  0.00556588  0.48355917  1
  Mo  Mo167  1  0.59693195  0.00276938  0.26339896  1
  Mo  Mo168  1  0.30374944  0.48545968  0.12261533  1
  Mo  Mo169  1  0.50099938  0.30786489  0.62556746  1
  Mo  Mo170  1  0.51330122  0.90588730  0.85816621  1
  Mo  Mo171  1  0.30958721  0.89438758  0.13187146  1
  Mo  Mo172  1  0.90610124  0.10312442  0.37199863  1
  Mo  Mo173  1  0.00685148  0.79732732  0.50015972  1
  Mo  Mo174  1  0.58569125  0.40757584  0.50556636  1
  Mo  Mo175  1  0.40517412  0.19916685  0.50492511  1
  Mo  Mo176  1  0.51206051  0.90043788  0.39155046  1
  Mo  Mo177  1  0.19468818  0.38741907  0.50844463  1
  Mo  Mo178  1  0.09384430  0.70291510  0.13651270  1
  Mo  Mo179  1  0.29824534  0.29558886  0.86849557  1
  Mo  Mo180  1  0.79691985  0.79897495  0.25530460  1
  Mo  Mo181  1  0.58403251  0.61241828  0.26027298  1
  Mo  Mo182  1  0.09975938  0.29847275  0.62787008  1
  Mo  Mo183  1  0.41154695  0.80948400  0.74475873  1
  Mo  Mo184  1  0.59863233  0.80602302  0.50996480  1
  Mo  Mo185  1  0.30525746  0.10064675  0.39303307  1
  Mo  Mo186  1  0.17868829  0.59299709  0.76243051  1
  Mo  Mo187  1  0.50355306  0.49041663  0.86874447  1
  Mo  Mo188  1  0.19561526  0.38141708  -0.00627295  1
  Mo  Mo189  1  0.09222247  0.49373508  0.36732126  1
  Mo  Mo190  1  0.30257516  0.29330242  0.63431677  1
  Mo  Mo191  1  0.08517710  0.49387668  0.62898133  1
  Mo  Mo192  1  0.79514658  0.19793264  0.74915236  1
  Mo  Mo193  1  0.89559784  0.50920740  0.37041775  1
  Mo  Mo194  1  0.40179193  0.79565256  0.49922725  1
  Mo  Mo195  1  0.78749965  0.39852633  -0.00208848  1
  Mo  Mo196  1  0.08321927  0.47740097  0.11758493  1
  Mo  Mo197  1  0.70641222  0.11055631  0.61858248  1
  Mo  Mo198  1  0.90526308  0.30433737  0.87038153  1
  Mo  Mo199  1  0.69786391  0.29247751  0.62640341  1
