# generated using pymatgen
data_HfZrTaTiMo
_symmetry_space_group_name_H-M   'P 1'
_cell_length_a   15.19908100
_cell_length_b   15.19424921
_cell_length_c   16.80143535
_cell_angle_alpha   89.96559057
_cell_angle_beta   90.03602901
_cell_angle_gamma   89.89679151
_symmetry_Int_Tables_number   1
_chemical_formula_structural   HfZrTaTiMo
_chemical_formula_sum   'Hf40 Zr40 Ta40 Ti40 Mo40'
_cell_volume   3880.09260464
_cell_formula_units_Z   40
loop_
 _symmetry_equiv_pos_site_id
 _symmetry_equiv_pos_as_xyz
  1  'x, y, z'
loop_
 _atom_site_type_symbol
 _atom_site_label
 _atom_site_symmetry_multiplicity
 _atom_site_fract_x
 _atom_site_fract_y
 _atom_site_fract_z
 _atom_site_occupancy
  Hf  Hf0  1  0.01885871  0.79553864  0.76653796  1
  Hf  Hf1  1  0.00042396  0.60491031  0.00504125  1
  Hf  Hf2  1  0.39555364  0.19581974  0.49575416  1
  Hf  Hf3  1  0.00619307  0.20664204  0.50236435  1
  Hf  Hf4  1  0.19199023  0.59705717  0.76124303  1
  Hf  Hf5  1  0.60433814  0.60133574  0.00434411  1
  Hf  Hf6  1  0.68861522  0.09116050  0.88942464  1
  Hf  Hf7  1  0.29281405  0.10187451  0.37548388  1
  Hf  Hf8  1  0.11201888  0.29330836  0.37147410  1
  Hf  Hf9  1  0.20504343  0.80126930  -0.01809395  1
  Hf  Hf10  1  0.49086609  0.29320517  0.63173749  1
  Hf  Hf11  1  0.39385015  0.19486609  0.77388810  1
  Hf  Hf12  1  0.91376737  0.69730719  0.63258305  1
  Hf  Hf13  1  -0.00555211  0.80965832  -0.02227148  1
  Hf  Hf14  1  0.48114018  0.48112918  0.36747773  1
  Hf  Hf15  1  0.51079207  0.68617569  0.36709045  1
  Hf  Hf16  1  0.89656787  0.29498937  0.35919090  1
  Hf  Hf17  1  0.40094286  0.79795551  -0.01141085  1
  Hf  Hf18  1  0.20080207  0.40549782  0.49826086  1
  Hf  Hf19  1  0.90748077  0.09418060  0.12481090  1
  Hf  Hf20  1  0.28544505  0.29666685  0.11115719  1
  Hf  Hf21  1  0.59223532  0.40761600  0.23026601  1
  Hf  Hf22  1  0.70292442  0.30151421  0.62030649  1
  Hf  Hf23  1  0.48108132  0.29897303  0.12911903  1
  Hf  Hf24  1  0.70836959  0.89034668  0.13116944  1
  Hf  Hf25  1  -0.00330772  -0.00602492  0.74826275  1
  Hf  Hf26  1  0.90144638  0.50543102  0.61668202  1
  Hf  Hf27  1  0.68764949  0.51014893  0.60946789  1
  Hf  Hf28  1  0.39742262  0.19225473  -0.01439873  1
  Hf  Hf29  1  0.80168566  0.21000280  0.00282979  1
  Hf  Hf30  1  0.19191048  0.80946576  0.25327555  1
  Hf  Hf31  1  0.10745980  0.70225813  0.62435372  1
  Hf  Hf32  1  0.49421631  0.89264790  0.63628211  1
  Hf  Hf33  1  0.80415647  0.39771865  0.48672603  1
  Hf  Hf34  1  0.39718896  0.79438683  0.49506238  1
  Hf  Hf35  1  0.10416480  0.10681310  0.63395467  1
  Hf  Hf36  1  0.81505295  0.80813082  0.76361207  1
  Hf  Hf37  1  0.38936638  0.40236119  0.76628173  1
  Hf  Hf38  1  0.68074943  0.51240424  0.37928201  1
  Hf  Hf39  1  0.30532612  0.09336320  0.63539089  1
  Zr  Zr40  1  0.89007300  0.29825208  0.14514974  1
  Zr  Zr41  1  0.81032424  -0.01733157  -0.00650480  1
  Zr  Zr42  1  0.58804885  0.00260691  0.24743949  1
  Zr  Zr43  1  0.39031243  0.38982265  0.50499601  1
  Zr  Zr44  1  0.08390070  0.30625235  0.87949036  1
  Zr  Zr45  1  0.59359396  0.19388582  0.49065213  1
  Zr  Zr46  1  0.09909412  0.52656680  0.37660537  1
  Zr  Zr47  1  0.10616806  0.11408109  0.86221796  1
  Zr  Zr48  1  0.59086175  0.39790175  0.75073250  1
  Zr  Zr49  1  0.50906118  0.68997744  0.64099384  1
  Zr  Zr50  1  0.69042634  0.30191386  0.37088204  1
  Zr  Zr51  1  0.78892456  0.41153403  0.01094061  1
  Zr  Zr52  1  0.27230693  0.29689335  0.88719139  1
  Zr  Zr53  1  0.80207050  0.79846911  0.49759670  1
  Zr  Zr54  1  0.59615263  0.21239913  0.00186617  1
  Zr  Zr55  1  0.31015345  0.50355991  0.11060181  1
  Zr  Zr56  1  0.60419219  0.79070354  0.49950585  1
  Zr  Zr57  1  0.79755213  0.00985780  0.75440004  1
  Zr  Zr58  1  0.00686872  0.40867268  0.25378134  1
  Zr  Zr59  1  -0.00209005  0.41113525  0.74702437  1
  Zr  Zr60  1  0.10474259  0.71576773  0.11839748  1
  Zr  Zr61  1  0.30024824  0.07585474  0.10929647  1
  Zr  Zr62  1  0.30733385  0.69954430  0.63401789  1
  Zr  Zr63  1  0.90446609  0.11424324  0.87545149  1
  Zr  Zr64  1  0.38909338  0.78886223  0.24763255  1
  Zr  Zr65  1  0.39885398  0.58770263  0.50182660  1
  Zr  Zr66  1  0.91878726  0.09342063  0.38391359  1
  Zr  Zr67  1  0.80619855  0.60562845  0.48110862  1
  Zr  Zr68  1  0.90368930  0.89924205  0.38416115  1
  Zr  Zr69  1  0.69749386  0.10066618  0.62553944  1
  Zr  Zr70  1  0.71040273  0.70118468  0.63979804  1
  Zr  Zr71  1  0.79388933  0.42063226  0.75639579  1
  Zr  Zr72  1  0.49495351  0.90113045  0.36668763  1
  Zr  Zr73  1  0.48688259  0.90113486  0.12499838  1
  Zr  Zr74  1  0.80154848  0.60538393  -0.00252518  1
  Zr  Zr75  1  0.89209005  0.71239633  0.13375494  1
  Zr  Zr76  1  0.50173154  0.08768725  0.63239037  1
  Zr  Zr77  1  0.60708151  0.19615204  0.24052766  1
  Zr  Zr78  1  0.80809703  0.00377344  0.24993137  1
  Zr  Zr79  1  0.59905019  0.19256550  0.76790278  1
  Ta  Ta80  1  0.29186485  0.68704400  0.37476616  1
  Ta  Ta81  1  0.09239991  0.50373949  0.88746516  1
  Ta  Ta82  1  0.70427061  0.09235758  0.37761481  1
  Ta  Ta83  1  0.20492180  0.00517475  0.24885867  1
  Ta  Ta84  1  0.70175182  0.09791962  0.11450627  1
  Ta  Ta85  1  0.02019274  -0.00176447  0.24587001  1
  Ta  Ta86  1  0.40558273  0.39974972  -0.01275076  1
  Ta  Ta87  1  0.00420600  0.20647249  0.01141732  1
  Ta  Ta88  1  0.90477835  0.90142663  0.61665540  1
  Ta  Ta89  1  0.49279022  0.69404404  0.12477853  1
  Ta  Ta90  1  0.60576074  0.80040462  -0.00029657  1
  Ta  Ta91  1  0.01663087  0.00854316  -0.00229228  1
  Ta  Ta92  1  0.91607205  0.89616444  0.12622306  1
  Ta  Ta93  1  0.21460172  0.80091610  0.76687534  1
  Ta  Ta94  1  0.69791308  0.88979034  0.36183454  1
  Ta  Ta95  1  0.89919011  0.10303385  0.61795601  1
  Ta  Ta96  1  0.69287613  0.31543256  0.87956919  1
  Ta  Ta97  1  0.39802845  -0.00464642  0.49799312  1
  Ta  Ta98  1  0.91734235  0.69233676  0.36621168  1
  Ta  Ta99  1  0.29244312  0.90180165  0.37906867  1
  Ta  Ta100  1  0.20181234  0.19834838  0.24093218  1
  Ta  Ta101  1  0.50814810  0.50071657  0.88295739  1
  Ta  Ta102  1  0.61155245  0.59035479  0.76342945  1
  Ta  Ta103  1  0.29018560  0.08068419  0.88276347  1
  Ta  Ta104  1  0.21085369  0.41100429  0.24822187  1
  Ta  Ta105  1  0.10050416  0.92203124  0.38722313  1
  Ta  Ta106  1  0.80207874  0.19636074  0.49706215  1
  Ta  Ta107  1  0.00189893  0.81126354  0.25753194  1
  Ta  Ta108  1  0.69462668  0.90287103  0.63576042  1
  Ta  Ta109  1  0.59671400  0.59894280  0.23364887  1
  Ta  Ta110  1  0.10634237  0.50148950  0.12014118  1
  Ta  Ta111  1  0.01346713  0.18730412  0.24753894  1
  Ta  Ta112  1  0.51135582  0.71011440  0.86380320  1
  Ta  Ta113  1  0.20828288  0.60929699  0.24186846  1
  Ta  Ta114  1  0.79215334  -0.00132816  0.50334576  1
  Ta  Ta115  1  0.79813655  0.60138145  0.26026342  1
  Ta  Ta116  1  -0.00972717  0.40523239  0.01239732  1
  Ta  Ta117  1  0.68746704  0.89214305  0.87142899  1
  Ta  Ta118  1  0.28644099  0.29475988  0.63875082  1
  Ta  Ta119  1  0.89953931  0.50875103  0.14140095  1
  Ti  Ti120  1  0.39558308  0.58082085  0.24304071  1
  Ti  Ti121  1  -0.00824736  0.20972083  0.73982763  1
  Ti  Ti122  1  0.01175062  0.61292063  0.24326980  1
  Ti  Ti123  1  0.29219099  0.49996433  0.88756300  1
  Ti  Ti124  1  0.59665175  -0.00770125  0.49183535  1
  Ti  Ti125  1  0.09787604  0.31073405  0.62452091  1
  Ti  Ti126  1  0.80046304  0.21466701  0.75367345  1
  Ti  Ti127  1  0.89888358  0.30158701  0.61953096  1
  Ti  Ti128  1  0.40792966  -0.01227017  0.77079693  1
  Ti  Ti129  1  0.20689648  -0.00675370  0.74788981  1
  Ti  Ti130  1  0.29289329  0.49762045  0.63394887  1
  Ti  Ti131  1  0.91182705  0.67518976  0.86043205  1
  Ti  Ti132  1  0.39900117  0.17323309  0.24638680  1
  Ti  Ti133  1  0.09875153  0.30315806  0.12461700  1
  Ti  Ti134  1  0.29754495  0.89519940  0.62661129  1
  Ti  Ti135  1  0.70469860  0.69537726  0.86540557  1
  Ti  Ti136  1  0.19230317  0.39964528  0.74960394  1
  Ti  Ti137  1  0.58328702  0.40007959  0.50163662  1
  Ti  Ti138  1  0.40418743  0.60524672  -0.01024569  1
  Ti  Ti139  1  0.11166816  0.91652237  0.11453821  1
  Ti  Ti140  1  0.20118591  0.80465736  0.49424473  1
  Ti  Ti141  1  0.78603048  0.40629138  0.24834866  1
  Ti  Ti142  1  0.20716003  0.60805820  -0.00558409  1
  Ti  Ti143  1  0.89487705  0.31299217  0.87876576  1
  Ti  Ti144  1  0.19763609  0.00428550  0.50727915  1
  Ti  Ti145  1  0.01108076  0.79375268  0.49476788  1
  Ti  Ti146  1  0.20355652  0.20410703  0.50524683  1
  Ti  Ti147  1  0.10434003  0.89820656  0.62314569  1
  Ti  Ti148  1  0.49145728  0.50064483  0.63098286  1
  Ti  Ti149  1  0.69939279  0.70227307  0.13481998  1
  Ti  Ti150  1  0.80208370  0.79378486  -0.01634305  1
  Ti  Ti151  1  0.59844990  0.40770581  0.01727340  1
  Ti  Ti152  1  0.49943501  0.09027820  0.10829761  1
  Ti  Ti153  1  0.19822739  0.60852804  0.49927763  1
  Ti  Ti154  1  0.49057596  0.28450685  0.35734540  1
  Ti  Ti155  1  0.30834177  0.30915699  0.35785061  1
  Ti  Ti156  1  0.09627768  0.50822162  0.61582736  1
  Ti  Ti157  1  -0.00195598  0.41232935  0.48645905  1
  Ti  Ti158  1  0.40012618  0.59835770  0.76561470  1
  Ti  Ti159  1  0.11270486  0.91707745  0.87535453  1
  Mo  Mo160  1  0.69717953  0.50443439  0.87951569  1
  Mo  Mo161  1  0.70537678  0.51047209  0.13393309  1
  Mo  Mo162  1  0.18638226  0.41042985  0.00458918  1
  Mo  Mo163  1  0.31053065  0.68810567  0.86824637  1
  Mo  Mo164  1  0.30614026  0.89829526  0.86633064  1
  Mo  Mo165  1  0.49570315  0.50458553  0.11088038  1
  Mo  Mo166  1  0.10505747  0.72092255  0.37878795  1
  Mo  Mo167  1  0.00372553  0.59148600  0.75228426  1
  Mo  Mo168  1  0.50917329  0.90570154  0.87907704  1
  Mo  Mo169  1  0.29050897  0.88387387  0.12186952  1
  Mo  Mo170  1  0.19606818  0.20529746  0.74417733  1
  Mo  Mo171  1  0.90276837  0.90290812  0.87463085  1
  Mo  Mo172  1  0.00637403  -0.00345773  0.52018290  1
  Mo  Mo173  1  0.80651488  0.59834835  0.75625097  1
  Mo  Mo174  1  0.30331197  0.70282717  0.12094084  1
  Mo  Mo175  1  0.59763520  -0.00750561  0.75512870  1
  Mo  Mo176  1  0.39215924  0.38901618  0.24273217  1
  Mo  Mo177  1  0.79990419  0.19309641  0.24750032  1
  Mo  Mo178  1  0.49583737  0.09535624  0.37666590  1
  Mo  Mo179  1  0.60105406  -0.00795573  0.01093220  1
  Mo  Mo180  1  0.10867288  0.09997547  0.38081738  1
  Mo  Mo181  1  0.40087132  0.79829630  0.76290360  1
  Mo  Mo182  1  0.49725733  0.08777553  0.88682904  1
  Mo  Mo183  1  0.10548102  0.69392419  0.87744802  1
  Mo  Mo184  1  0.60334142  0.78964366  0.24302417  1
  Mo  Mo185  1  0.10562268  0.10581765  0.12198873  1
  Mo  Mo186  1  0.20070919  -0.00699500  -0.00579094  1
  Mo  Mo187  1  0.69970652  0.70661568  0.35805122  1
  Mo  Mo188  1  0.38494345  -0.00084974  0.25245420  1
  Mo  Mo189  1  0.60491990  0.80164126  0.75578504  1
  Mo  Mo190  1  0.29346550  0.50032006  0.36580014  1
  Mo  Mo191  1  0.49896130  0.30615526  0.88198600  1
  Mo  Mo192  1  0.59259265  0.59363144  0.49953648  1
  Mo  Mo193  1  0.40480783  -0.01119670  -0.01477432  1
  Mo  Mo194  1  0.18487888  0.19173048  0.00874212  1
  Mo  Mo195  1  0.90018495  0.50083704  0.35635443  1
  Mo  Mo196  1  0.69761528  0.29901076  0.13023665  1
  Mo  Mo197  1  0.00630272  0.60368458  0.49624058  1
  Mo  Mo198  1  0.90564643  0.49402320  0.88266252  1
  Mo  Mo199  1  0.80435884  0.79739363  0.25761287  1
