# generated using pymatgen
data_HfZrTaTiMo
_symmetry_space_group_name_H-M   'P 1'
_cell_length_a   15.22495211
_cell_length_b   15.20606060
_cell_length_c   16.84511206
_cell_angle_alpha   89.99708798
_cell_angle_beta   89.93272197
_cell_angle_gamma   90.09851649
_symmetry_Int_Tables_number   1
_chemical_formula_structural   HfZrTaTiMo
_chemical_formula_sum   'Hf40 Zr40 Ta40 Ti40 Mo40'
_cell_volume   3899.82944898
_cell_formula_units_Z   40
loop_
 _symmetry_equiv_pos_site_id
 _symmetry_equiv_pos_as_xyz
  1  'x, y, z'
loop_
 _atom_site_type_symbol
 _atom_site_label
 _atom_site_symmetry_multiplicity
 _atom_site_fract_x
 _atom_site_fract_y
 _atom_site_fract_z
 _atom_site_occupancy
  Hf  Hf0  1  0.90408104  0.70599359  0.36325904  1
  Hf  Hf1  1  0.29530301  0.91347865  0.36982706  1
  Hf  Hf2  1  0.40433277  0.00074157  0.50689368  1
  Hf  Hf3  1  0.00292781  0.19588800  0.74923026  1
  Hf  Hf4  1  0.29602227  0.28602450  0.62372921  1
  Hf  Hf5  1  0.19520166  0.38943557  0.49220458  1
  Hf  Hf6  1  0.50052394  0.69643760  0.12314929  1
  Hf  Hf7  1  0.39350476  0.58412271  0.24917031  1
  Hf  Hf8  1  0.89394772  0.49613339  0.88108120  1
  Hf  Hf9  1  0.01193575  0.00021718  0.50347345  1
  Hf  Hf10  1  0.80223866  0.82215544  0.26134311  1
  Hf  Hf11  1  0.39800981  0.39885956  0.75563479  1
  Hf  Hf12  1  0.29605261  0.90003493  0.89899926  1
  Hf  Hf13  1  0.60118774  0.41657089  0.26363877  1
  Hf  Hf14  1  0.01541164  0.19788532  0.49300187  1
  Hf  Hf15  1  0.50495345  0.69595081  0.87950863  1
  Hf  Hf16  1  0.29291412  0.27625310  0.37962098  1
  Hf  Hf17  1  0.39717983  0.80199392  0.24436421  1
  Hf  Hf18  1  0.78338900  0.61178624  0.75223758  1
  Hf  Hf19  1  0.88717456  0.49677973  0.13387306  1
  Hf  Hf20  1  0.39697268  0.80956772  0.75956533  1
  Hf  Hf21  1  0.80217634  0.82118615  -0.00197931  1
  Hf  Hf22  1  0.01247225  0.39937798  0.25423154  1
  Hf  Hf23  1  0.70652408  0.90172460  0.61671760  1
  Hf  Hf24  1  0.28037675  0.88504424  0.10819654  1
  Hf  Hf25  1  0.00130885  0.40377409  0.49068237  1
  Hf  Hf26  1  0.89288945  0.08880085  0.14927239  1
  Hf  Hf27  1  0.30630482  0.70850201  0.61818496  1
  Hf  Hf28  1  0.90094904  0.71139905  0.13795249  1
  Hf  Hf29  1  -0.01610391  0.59775383  0.50475304  1
  Hf  Hf30  1  0.89393854  0.29605822  0.12872664  1
  Hf  Hf31  1  0.88275088  0.28770690  0.87858571  1
  Hf  Hf32  1  0.51108517  0.30733671  0.12437769  1
  Hf  Hf33  1  0.19727532  0.59337479  0.75502999  1
  Hf  Hf34  1  0.62404179  0.00857750  0.74587161  1
  Hf  Hf35  1  0.76525887  0.60507362  0.25441735  1
  Hf  Hf36  1  0.50040958  0.89343241  0.63490693  1
  Hf  Hf37  1  0.89417495  0.50457426  0.36382190  1
  Hf  Hf38  1  0.11043965  0.29194424  0.11152770  1
  Hf  Hf39  1  0.10569231  0.69154022  0.61637196  1
  Zr  Zr40  1  -0.01414899  0.59446826  0.73625917  1
  Zr  Zr41  1  0.20267876  0.78605213  0.76746777  1
  Zr  Zr42  1  0.89873470  0.30496124  0.61531045  1
  Zr  Zr43  1  0.69194387  0.71632709  0.11905832  1
  Zr  Zr44  1  -0.01865803  0.18623718  -0.00005076  1
  Zr  Zr45  1  0.59888537  0.60650258  0.49452849  1
  Zr  Zr46  1  0.48680191  0.30479085  0.37899018  1
  Zr  Zr47  1  0.41545518  0.21579111  -0.01041190  1
  Zr  Zr48  1  0.21748387  -0.00622060  0.75566113  1
  Zr  Zr49  1  0.81089940  0.01901283  0.00287337  1
  Zr  Zr50  1  0.01168332  0.19454099  0.26368382  1
  Zr  Zr51  1  0.13296684  0.89310077  0.61506926  1
  Zr  Zr52  1  0.19690350  0.39222252  0.75320730  1
  Zr  Zr53  1  0.49660025  0.30510396  0.62321002  1
  Zr  Zr54  1  0.39836147  0.79859374  0.49262771  1
  Zr  Zr55  1  0.79638867  0.20238717  0.26998278  1
  Zr  Zr56  1  0.00177106  0.79628187  0.49730852  1
  Zr  Zr57  1  0.12510950  0.08791443  0.37285041  1
  Zr  Zr58  1  0.10829846  0.70852136  0.13939118  1
  Zr  Zr59  1  -0.00470639  0.39657868  0.74938175  1
  Zr  Zr60  1  0.49728132  0.51591839  0.62469818  1
  Zr  Zr61  1  0.20596127  0.60096469  0.00174875  1
  Zr  Zr62  1  0.42012950  -0.01284517  0.01005323  1
  Zr  Zr63  1  0.29321059  0.10654931  0.09607431  1
  Zr  Zr64  1  0.51017716  0.10945070  0.63921138  1
  Zr  Zr65  1  0.78998569  0.18893145  0.73667542  1
  Zr  Zr66  1  0.09634786  0.08354107  0.88742643  1
  Zr  Zr67  1  0.39554232  0.00445172  0.22701706  1
  Zr  Zr68  1  0.00761711  0.00270305  0.73122647  1
  Zr  Zr69  1  0.90901340  0.71355413  0.87861991  1
  Zr  Zr70  1  -0.00131470  0.79489816  0.73654883  1
  Zr  Zr71  1  0.19531303  0.59824085  0.48060788  1
  Zr  Zr72  1  0.69253787  0.29576674  0.61695897  1
  Zr  Zr73  1  0.48571876  0.09373676  0.36682253  1
  Zr  Zr74  1  0.21332492  0.39443004  0.24776099  1
  Zr  Zr75  1  0.09562729  0.08274844  0.11923766  1
  Zr  Zr76  1  0.79340528  0.60702853  0.00024448  1
  Zr  Zr77  1  0.60149218  0.20538156  0.25976893  1
  Zr  Zr78  1  0.51315867  0.09680161  0.87639070  1
  Zr  Zr79  1  0.00499975  0.60489562  0.01224630  1
  Ta  Ta80  1  0.60141600  -0.00032385  0.50111085  1
  Ta  Ta81  1  0.89917492  0.92013204  0.86177921  1
  Ta  Ta82  1  0.69077613  0.50835793  0.87551549  1
  Ta  Ta83  1  0.60242627  0.40521489  0.48971133  1
  Ta  Ta84  1  0.59401990  0.59526220  -0.00226401  1
  Ta  Ta85  1  0.49834552  0.69894894  0.36449034  1
  Ta  Ta86  1  0.39263821  0.19877102  0.77045815  1
  Ta  Ta87  1  0.69631896  0.90054421  0.38119901  1
  Ta  Ta88  1  0.79544662  0.41148283  0.49232983  1
  Ta  Ta89  1  0.20146266  0.19676336  0.76730297  1
  Ta  Ta90  1  0.51757821  0.10329593  0.12029020  1
  Ta  Ta91  1  0.21165310  0.18835883  0.24208512  1
  Ta  Ta92  1  0.49398222  0.50504382  0.37810628  1
  Ta  Ta93  1  0.68695380  0.70378504  0.62459195  1
  Ta  Ta94  1  0.09878119  0.30038200  0.88989383  1
  Ta  Ta95  1  0.72055574  0.11171334  0.87752867  1
  Ta  Ta96  1  0.39473768  0.20801700  0.23456599  1
  Ta  Ta97  1  0.60466366  0.79614918  0.25855619  1
  Ta  Ta98  1  0.09649611  0.48966735  0.62061079  1
  Ta  Ta99  1  0.60840660  0.78933492  0.75856675  1
  Ta  Ta100  1  0.78507175  0.39436590  0.00038128  1
  Ta  Ta101  1  0.69885234  0.09499959  0.38404218  1
  Ta  Ta102  1  0.79297094  0.40597442  0.74788652  1
  Ta  Ta103  1  0.08816501  0.87788018  0.88748672  1
  Ta  Ta104  1  0.68076738  0.49797792  0.11978134  1
  Ta  Ta105  1  0.89568821  0.89711872  0.61995048  1
  Ta  Ta106  1  0.89977389  0.29986855  0.38077498  1
  Ta  Ta107  1  0.79647959  0.80997427  0.74986415  1
  Ta  Ta108  1  0.09496377  0.49935291  0.88118400  1
  Ta  Ta109  1  0.19459471  0.58871251  0.25632147  1
  Ta  Ta110  1  0.59728270  0.80056985  0.49257978  1
  Ta  Ta111  1  0.61978450  0.00283869  0.00323513  1
  Ta  Ta112  1  0.30052089  0.50122450  0.87608195  1
  Ta  Ta113  1  0.49033205  0.49494383  0.12230412  1
  Ta  Ta114  1  0.60369749  0.41186604  0.75515634  1
  Ta  Ta115  1  0.30028798  0.09985338  0.89187310  1
  Ta  Ta116  1  0.39818495  0.60767206  0.75280751  1
  Ta  Ta117  1  0.59856003  0.19742813  0.49070899  1
  Ta  Ta118  1  -0.00205828  0.40268573  0.00681295  1
  Ta  Ta119  1  0.81194362  -0.00401585  0.48406928  1
  Ti  Ti120  1  0.50295290  0.90020206  0.36852101  1
  Ti  Ti121  1  0.70169964  0.50274806  0.62496038  1
  Ti  Ti122  1  0.60067707  0.80882405  -0.00929984  1
  Ti  Ti123  1  0.79198406  0.60545582  0.49908731  1
  Ti  Ti124  1  0.00714404  0.59543131  0.24656535  1
  Ti  Ti125  1  0.79874242  0.79406443  0.49227497  1
  Ti  Ti126  1  0.29922248  0.68962150  0.13087904  1
  Ti  Ti127  1  0.59671046  0.22307166  0.77050378  1
  Ti  Ti128  1  0.39631211  0.60105514  0.49188763  1
  Ti  Ti129  1  0.60926620  -0.00203702  0.25038668  1
  Ti  Ti130  1  0.62113584  0.21023380  -0.00733212  1
  Ti  Ti131  1  0.30607245  0.09212319  0.63975665  1
  Ti  Ti132  1  0.30985725  0.31265766  0.11623432  1
  Ti  Ti133  1  0.19228211  -0.01247663  0.24052303  1
  Ti  Ti134  1  0.80210982  0.19747820  0.48833549  1
  Ti  Ti135  1  0.10227060  0.88060759  0.36840395  1
  Ti  Ti136  1  0.29191426  0.50158679  0.62160119  1
  Ti  Ti137  1  0.52267062  0.89648598  0.12620063  1
  Ti  Ti138  1  0.90922097  0.90264761  0.13839926  1
  Ti  Ti139  1  0.39346477  0.18931732  0.50368040  1
  Ti  Ti140  1  0.39739841  0.40604957  0.50551856  1
  Ti  Ti141  1  0.39236994  0.77991470  -0.00205718  1
  Ti  Ti142  1  0.78977328  0.39735020  0.26283664  1
  Ti  Ti143  1  0.21585585  0.00908607  0.50823438  1
  Ti  Ti144  1  0.59308028  0.39939186  -0.01331361  1
  Ti  Ti145  1  0.49791543  0.50269812  0.87082542  1
  Ti  Ti146  1  0.39856325  0.59108046  0.00212411  1
  Ti  Ti147  1  0.70371429  0.90816263  0.87103088  1
  Ti  Ti148  1  0.28926362  0.70748716  0.36606733  1
  Ti  Ti149  1  0.70195178  0.30689670  0.12703255  1
  Ti  Ti150  1  0.70024941  0.11137773  0.13086357  1
  Ti  Ti151  1  0.20384797  0.40441458  0.00139657  1
  Ti  Ti152  1  0.09021093  0.89056098  0.12374375  1
  Ti  Ti153  1  0.30580678  0.48711553  0.37583130  1
  Ti  Ti154  1  -0.00732444  -0.02136676  0.00110827  1
  Ti  Ti155  1  0.71070252  0.91987961  0.13493822  1
  Ti  Ti156  1  0.89355863  0.09637629  0.61506571  1
  Ti  Ti157  1  0.10489995  0.29003701  0.62507329  1
  Ti  Ti158  1  0.39905426  0.40720765  -0.01097752  1
  Ti  Ti159  1  0.50853018  0.90462128  0.87103554  1
  Mo  Mo160  1  0.20548786  0.18602799  0.51010708  1
  Mo  Mo161  1  0.20095318  0.20734960  -0.01559151  1
  Mo  Mo162  1  0.30651607  0.09691228  0.36740985  1
  Mo  Mo163  1  0.88205761  0.50229847  0.62063745  1
  Mo  Mo164  1  0.89923504  0.09638040  0.86689126  1
  Mo  Mo165  1  0.20599152  0.79672194  0.25190811  1
  Mo  Mo166  1  0.40078043  0.39367177  0.24659840  1
  Mo  Mo167  1  0.71156814  0.09514848  0.59333693  1
  Mo  Mo168  1  0.50313919  0.70386595  0.63318128  1
  Mo  Mo169  1  0.30152298  0.49485457  0.11878190  1
  Mo  Mo170  1  0.10060523  0.69481818  0.36002356  1
  Mo  Mo171  1  0.09997673  0.50221644  0.37176168  1
  Mo  Mo172  1  0.58804947  0.60516428  0.25179558  1
  Mo  Mo173  1  0.90476719  0.09528593  0.37825808  1
  Mo  Mo174  1  0.10276182  0.29575599  0.37206857  1
  Mo  Mo175  1  0.00724989  0.80609434  0.25711599  1
  Mo  Mo176  1  0.29459818  0.30399013  0.88179468  1
  Mo  Mo177  1  0.69660871  0.50429471  0.38129284  1
  Mo  Mo178  1  0.09829692  0.68928373  0.87858172  1
  Mo  Mo179  1  0.79384919  0.00477172  0.26986600  1
  Mo  Mo180  1  0.18575341  -0.00923043  -0.00225067  1
  Mo  Mo181  1  0.40678185  0.00674219  0.76357354  1
  Mo  Mo182  1  0.69466556  0.70762569  0.38003729  1
  Mo  Mo183  1  0.80556464  -0.00206058  0.74114420  1
  Mo  Mo184  1  0.59637297  0.60093217  0.75281670  1
  Mo  Mo185  1  -0.00793695  0.80440359  0.00492110  1
  Mo  Mo186  1  0.18693141  0.78580451  -0.00880881  1
  Mo  Mo187  1  0.30947429  0.69005418  0.88032469  1
  Mo  Mo188  1  0.69585411  0.71362033  0.88274551  1
  Mo  Mo189  1  0.70165556  0.30335887  0.39165165  1
  Mo  Mo190  1  0.12126711  0.11300183  0.62730777  1
  Mo  Mo191  1  0.87340985  0.70844152  0.61832383  1
  Mo  Mo192  1  -0.00443550  -0.01780091  0.26319848  1
  Mo  Mo193  1  0.20535416  0.80546373  0.48783625  1
  Mo  Mo194  1  0.69918499  0.31337149  0.87214250  1
  Mo  Mo195  1  0.50319457  0.31252545  0.87321702  1
  Mo  Mo196  1  0.09987093  0.49076673  0.12287374  1
  Mo  Mo197  1  0.78951573  0.20555064  0.00891169  1
  Mo  Mo198  1  0.31023966  0.90418675  0.62555527  1
  Mo  Mo199  1  0.90822535  0.90489525  0.37978853  1
