# generated using pymatgen
data_HfZrTaTiMo
_symmetry_space_group_name_H-M   'P 1'
_cell_length_a   15.20613177
_cell_length_b   15.21669577
_cell_length_c   16.83896527
_cell_angle_alpha   90.01177932
_cell_angle_beta   90.01016451
_cell_angle_gamma   90.01159134
_symmetry_Int_Tables_number   1
_chemical_formula_structural   HfZrTaTiMo
_chemical_formula_sum   'Hf40 Zr40 Ta40 Ti40 Mo40'
_cell_volume   3896.31879707
_cell_formula_units_Z   40
loop_
 _symmetry_equiv_pos_site_id
 _symmetry_equiv_pos_as_xyz
  1  'x, y, z'
loop_
 _atom_site_type_symbol
 _atom_site_label
 _atom_site_symmetry_multiplicity
 _atom_site_fract_x
 _atom_site_fract_y
 _atom_site_fract_z
 _atom_site_occupancy
  Hf  Hf0  1  0.10558405  0.11186883  0.11832404  1
  Hf  Hf1  1  0.58921538  0.77948368  0.00327152  1
  Hf  Hf2  1  0.29852676  0.90412946  0.13345563  1
  Hf  Hf3  1  0.91090797  0.30315876  0.88691185  1
  Hf  Hf4  1  0.69267025  0.90852749  0.86410031  1
  Hf  Hf5  1  0.11208073  0.31784774  0.11254189  1
  Hf  Hf6  1  0.79654029  -0.01147847  0.26759780  1
  Hf  Hf7  1  0.00501868  0.40501905  0.73874707  1
  Hf  Hf8  1  0.11304337  0.31940681  0.88824195  1
  Hf  Hf9  1  0.09414619  0.51653364  0.88115095  1
  Hf  Hf10  1  0.80975953  0.02089686  0.75375340  1
  Hf  Hf11  1  0.69370396  0.89887715  0.12319330  1
  Hf  Hf12  1  0.89513181  0.50550979  0.61459330  1
  Hf  Hf13  1  0.88720624  0.51844037  0.37803796  1
  Hf  Hf14  1  0.39441141  0.38474136  -0.00561208  1
  Hf  Hf15  1  0.39818833  0.78934941  0.50483789  1
  Hf  Hf16  1  0.31744200  0.09410004  0.86751986  1
  Hf  Hf17  1  0.90853398  0.71877883  0.63309561  1
  Hf  Hf18  1  0.10770511  0.52114393  0.62633564  1
  Hf  Hf19  1  0.60741634  0.40574403  0.00269844  1
  Hf  Hf20  1  0.28480006  0.48411776  0.87930233  1
  Hf  Hf21  1  0.91098880  0.30760418  0.11041740  1
  Hf  Hf22  1  0.79545568  0.60025462  0.73882439  1
  Hf  Hf23  1  0.70703689  0.12061391  0.61576083  1
  Hf  Hf24  1  0.39319640  0.79920828  -0.00239478  1
  Hf  Hf25  1  0.28991033  0.88557841  0.86360354  1
  Hf  Hf26  1  0.28213164  0.88778823  0.62977887  1
  Hf  Hf27  1  0.89436321  0.50076698  0.87095493  1
  Hf  Hf28  1  0.69641744  0.49569987  0.14195349  1
  Hf  Hf29  1  -0.00630711  0.80500046  -0.00138769  1
  Hf  Hf30  1  0.49664867  0.89748324  0.86688391  1
  Hf  Hf31  1  0.90395100  0.31637328  0.39164863  1
  Hf  Hf32  1  0.90106855  0.70287085  0.86602855  1
  Hf  Hf33  1  0.20014587  0.79519182  0.25802542  1
  Hf  Hf34  1  0.69574131  0.88566952  0.38820769  1
  Hf  Hf35  1  0.40722140  0.77549698  0.74492114  1
  Hf  Hf36  1  0.49784339  0.49853854  0.36259106  1
  Hf  Hf37  1  0.18832418  0.79094392  0.48698328  1
  Hf  Hf38  1  0.28589658  0.48982266  0.13026362  1
  Hf  Hf39  1  0.10845695  0.10869148  0.37699011  1
  Zr  Zr40  1  0.60263576  0.39470345  0.49381411  1
  Zr  Zr41  1  -0.00623835  0.20203223  0.73737181  1
  Zr  Zr42  1  0.11126199  0.31630555  0.37753017  1
  Zr  Zr43  1  0.48861648  0.48684415  0.62495045  1
  Zr  Zr44  1  0.00604256  0.21981295  0.24939163  1
  Zr  Zr45  1  0.71462680  0.68304536  0.37730847  1
  Zr  Zr46  1  0.19168853  0.78820405  0.00868623  1
  Zr  Zr47  1  0.09711894  0.11213016  0.87535566  1
  Zr  Zr48  1  0.00438853  -0.00610658  0.49327751  1
  Zr  Zr49  1  0.60367114  0.79803334  0.24789639  1
  Zr  Zr50  1  0.29757917  0.09681174  0.63300940  1
  Zr  Zr51  1  0.40377686  0.37952668  0.76442209  1
  Zr  Zr52  1  0.79541351  0.00385760  -0.00979781  1
  Zr  Zr53  1  0.49111745  0.90103752  0.12621219  1
  Zr  Zr54  1  0.29318454  0.48048661  0.63065993  1
  Zr  Zr55  1  0.00019617  0.62131637  0.49245181  1
  Zr  Zr56  1  0.51250158  0.88596670  0.62532819  1
  Zr  Zr57  1  0.68168315  0.69307589  0.86552522  1
  Zr  Zr58  1  0.51176433  0.29821121  0.13335154  1
  Zr  Zr59  1  0.81258425  0.19414072  0.24593062  1
  Zr  Zr60  1  0.59804735  0.59908482  0.50756080  1
  Zr  Zr61  1  0.89359562  0.90278308  0.13164949  1
  Zr  Zr62  1  0.70200712  0.10133870  0.12926952  1
  Zr  Zr63  1  0.20235784  -0.00445371  -0.00753019  1
  Zr  Zr64  1  0.52162912  0.28024286  0.88066649  1
  Zr  Zr65  1  0.17573437  -0.01045266  0.75330609  1
  Zr  Zr66  1  0.48937663  0.50750735  0.14068243  1
  Zr  Zr67  1  0.49081045  0.89838686  0.38137707  1
  Zr  Zr68  1  -0.00738400  0.01522579  0.25456956  1
  Zr  Zr69  1  0.30871570  0.68600487  0.13458595  1
  Zr  Zr70  1  0.09551093  0.90196151  0.13991195  1
  Zr  Zr71  1  0.58252415  0.61187130  0.72943030  1
  Zr  Zr72  1  0.31713791  0.28831781  0.62386183  1
  Zr  Zr73  1  0.49893419  0.10041096  0.13476630  1
  Zr  Zr74  1  0.28611553  0.67662289  0.62050503  1
  Zr  Zr75  1  0.31126682  0.28694496  0.12852789  1
  Zr  Zr76  1  0.50937037  0.50684123  0.87160890  1
  Zr  Zr77  1  0.79710746  0.79682135  -0.00783454  1
  Zr  Zr78  1  0.71404683  0.90925860  0.62610358  1
  Zr  Zr79  1  0.69465784  0.10456864  0.38200749  1
  Ta  Ta80  1  0.89768814  0.10599409  0.60857856  1
  Ta  Ta81  1  0.42768889  0.18141547  0.75176084  1
  Ta  Ta82  1  0.80100517  0.40910735  0.00504545  1
  Ta  Ta83  1  0.69519722  0.71561115  0.61922399  1
  Ta  Ta84  1  0.59623407  0.00078932  0.50445063  1
  Ta  Ta85  1  0.09938498  0.90222234  0.36201805  1
  Ta  Ta86  1  0.41062615  0.60173726  -0.00372083  1
  Ta  Ta87  1  0.39548000  0.18594303  0.27010321  1
  Ta  Ta88  1  0.38832457  0.58536615  0.48702043  1
  Ta  Ta89  1  0.49592959  0.09530264  0.38596039  1
  Ta  Ta90  1  0.18835043  0.59438776  0.25952530  1
  Ta  Ta91  1  0.89531617  0.69607523  0.13657846  1
  Ta  Ta92  1  0.50334639  0.69866512  0.38338503  1
  Ta  Ta93  1  0.01014126  0.20867968  0.51092602  1
  Ta  Ta94  1  0.81667686  0.79644671  0.49900845  1
  Ta  Ta95  1  0.59396086  0.02010345  0.74375133  1
  Ta  Ta96  1  0.50078936  0.10387200  0.61349293  1
  Ta  Ta97  1  0.29208490  0.68135824  0.87865155  1
  Ta  Ta98  1  0.89735959  0.11124847  0.88253561  1
  Ta  Ta99  1  0.88307584  0.30247178  0.60705350  1
  Ta  Ta100  1  0.71663913  0.30526512  0.87565460  1
  Ta  Ta101  1  0.20694434  0.19530148  0.50058300  1
  Ta  Ta102  1  0.78953623  0.59593088  0.00227640  1
  Ta  Ta103  1  0.22272082  0.20849485  -0.00762859  1
  Ta  Ta104  1  0.39694487  0.38797995  0.48261424  1
  Ta  Ta105  1  0.09714470  0.09431725  0.62303579  1
  Ta  Ta106  1  0.58527539  0.01359522  -0.00777353  1
  Ta  Ta107  1  0.81279922  0.39781106  0.24842751  1
  Ta  Ta108  1  0.18390265  0.77770303  0.75019663  1
  Ta  Ta109  1  -0.00360225  0.00259974  -0.00480974  1
  Ta  Ta110  1  0.70813137  0.30550643  0.36882855  1
  Ta  Ta111  1  0.38929744  0.38367794  0.26468928  1
  Ta  Ta112  1  0.70106762  0.69014099  0.12962858  1
  Ta  Ta113  1  0.40345029  -0.00845937  0.73888524  1
  Ta  Ta114  1  0.08790611  0.50649480  0.12744364  1
  Ta  Ta115  1  0.19965686  -0.00614922  0.49854136  1
  Ta  Ta116  1  0.30724877  0.09569177  0.12276681  1
  Ta  Ta117  1  0.28447733  0.48544933  0.36635699  1
  Ta  Ta118  1  0.80409611  -0.00223703  0.49314537  1
  Ta  Ta119  1  0.90052634  0.11329841  0.39353303  1
  Ti  Ti120  1  0.59263964  0.60612692  0.25256227  1
  Ti  Ti121  1  0.69939643  0.49162736  0.36146250  1
  Ti  Ti122  1  0.91369225  0.91366221  0.62880240  1
  Ti  Ti123  1  0.79620490  0.38647249  0.74326341  1
  Ti  Ti124  1  0.70254387  0.30055285  0.13339552  1
  Ti  Ti125  1  0.30517183  0.69049139  0.36940177  1
  Ti  Ti126  1  0.10159778  0.70532198  0.88180548  1
  Ti  Ti127  1  0.09152957  0.69153215  0.13341768  1
  Ti  Ti128  1  0.40104072  0.19560816  0.48821278  1
  Ti  Ti129  1  0.69378925  0.11992654  0.87386536  1
  Ti  Ti130  1  0.59236998  0.00133176  0.25982352  1
  Ti  Ti131  1  0.80064789  0.80989176  0.75345769  1
  Ti  Ti132  1  0.08315380  0.50062971  0.36167245  1
  Ti  Ti133  1  0.89943935  0.50742956  0.13202593  1
  Ti  Ti134  1  0.39124016  -0.00078783  0.50663058  1
  Ti  Ti135  1  -0.00973574  0.79466117  0.26348028  1
  Ti  Ti136  1  0.20494389  0.39871521  0.49977340  1
  Ti  Ti137  1  0.21354641  0.20710935  0.25623040  1
  Ti  Ti138  1  0.20995188  0.21765912  0.75552478  1
  Ti  Ti139  1  0.51530106  0.29553070  0.62583403  1
  Ti  Ti140  1  0.60003290  0.20628032  0.49682753  1
  Ti  Ti141  1  0.00476042  0.82713079  0.75836988  1
  Ti  Ti142  1  0.42181925  0.17543936  -0.00649165  1
  Ti  Ti143  1  0.00093504  0.80695777  0.48425488  1
  Ti  Ti144  1  0.29718850  0.90219968  0.37521033  1
  Ti  Ti145  1  0.11401456  0.30419442  0.62370440  1
  Ti  Ti146  1  0.19244831  0.59419987  0.47767550  1
  Ti  Ti147  1  0.50601566  0.29447173  0.36960379  1
  Ti  Ti148  1  0.70102085  0.48809599  0.62332530  1
  Ti  Ti149  1  0.59899549  0.20003540  0.25978777  1
  Ti  Ti150  1  0.70046064  0.49416860  0.86634966  1
  Ti  Ti151  1  0.01552139  0.62268749  0.74619465  1
  Ti  Ti152  1  0.38562405  0.59014147  0.75611226  1
  Ti  Ti153  1  0.79649732  0.20457452  0.00592176  1
  Ti  Ti154  1  0.39513205  -0.00117077  0.26109823  1
  Ti  Ti155  1  -0.00819754  0.60484475  0.00594229  1
  Ti  Ti156  1  0.20793920  0.01377658  0.25666474  1
  Ti  Ti157  1  0.01028110  0.40924836  0.50974499  1
  Ti  Ti158  1  0.62027079  0.21510655  0.74268544  1
  Ti  Ti159  1  0.40745756  0.78513250  0.25317356  1
  Mo  Mo160  1  0.60447539  0.38959600  0.25901055  1
  Mo  Mo161  1  0.79875484  0.20886783  0.49263000  1
  Mo  Mo162  1  0.60540153  0.79778467  0.49805671  1
  Mo  Mo163  1  0.49306350  0.69152188  0.60793207  1
  Mo  Mo164  1  0.80399004  0.21045122  0.75248693  1
  Mo  Mo165  1  0.30609844  0.28483200  0.87533291  1
  Mo  Mo166  1  0.30247521  0.29123981  0.38134991  1
  Mo  Mo167  1  0.80239696  0.79256795  0.24989814  1
  Mo  Mo168  1  0.39727668  -0.00001433  -0.00231015  1
  Mo  Mo169  1  0.39296562  0.59859279  0.26896880  1
  Mo  Mo170  1  0.89658085  0.71084798  0.36711033  1
  Mo  Mo171  1  0.61753538  0.19986341  0.00118247  1
  Mo  Mo172  1  -0.00291197  0.41284536  0.24821650  1
  Mo  Mo173  1  0.61451998  0.39769676  0.74618820  1
  Mo  Mo174  1  0.89811042  0.89948882  0.37375286  1
  Mo  Mo175  1  0.19521012  0.59799968  0.75703516  1
  Mo  Mo176  1  0.79836127  0.60760805  0.51808064  1
  Mo  Mo177  1  0.60557532  0.80475359  0.74634543  1
  Mo  Mo178  1  0.19368732  0.60270780  0.00842717  1
  Mo  Mo179  1  0.09760519  0.71617531  0.62384499  1
  Mo  Mo180  1  -0.00650328  0.00785915  0.74512144  1
  Mo  Mo181  1  0.79659881  0.59874753  0.24413473  1
  Mo  Mo182  1  0.00588991  0.19930803  -0.00064750  1
  Mo  Mo183  1  0.09784368  0.69778203  0.36321018  1
  Mo  Mo184  1  0.08961132  0.89102998  0.62026988  1
  Mo  Mo185  1  0.70136062  0.30801819  0.62086071  1
  Mo  Mo186  1  0.19219583  0.39099566  0.74771424  1
  Mo  Mo187  1  0.91083696  0.10811195  0.09932404  1
  Mo  Mo188  1  0.51547221  0.08875785  0.86793894  1
  Mo  Mo189  1  -0.00429002  0.60385788  0.24969483  1
  Mo  Mo190  1  0.19213042  0.39586298  0.25236292  1
  Mo  Mo191  1  0.20232072  0.40834379  0.00447642  1
  Mo  Mo192  1  0.48462611  0.69654163  0.87368084  1
  Mo  Mo193  1  0.30127366  0.08880159  0.38280472  1
  Mo  Mo194  1  0.79468461  0.41264042  0.49464798  1
  Mo  Mo195  1  -0.00785339  0.42006963  0.00325911  1
  Mo  Mo196  1  0.50172599  0.68864117  0.12978278  1
  Mo  Mo197  1  0.08648197  0.89497004  0.87838454  1
  Mo  Mo198  1  0.60431767  0.59514778  0.00426386  1
  Mo  Mo199  1  0.90489856  0.91035169  0.86677959  1
