# generated using pymatgen
data_HfZrTaTiMo
_symmetry_space_group_name_H-M   'P 1'
_cell_length_a   15.22509131
_cell_length_b   15.19949376
_cell_length_c   16.84372228
_cell_angle_alpha   89.97149485
_cell_angle_beta   89.96081703
_cell_angle_gamma   90.02705113
_symmetry_Int_Tables_number   1
_chemical_formula_structural   HfZrTaTiMo
_chemical_formula_sum   'Hf40 Zr40 Ta40 Ti40 Mo40'
_cell_volume   3897.86593307
_cell_formula_units_Z   40
loop_
 _symmetry_equiv_pos_site_id
 _symmetry_equiv_pos_as_xyz
  1  'x, y, z'
loop_
 _atom_site_type_symbol
 _atom_site_label
 _atom_site_symmetry_multiplicity
 _atom_site_fract_x
 _atom_site_fract_y
 _atom_site_fract_z
 _atom_site_occupancy
  Hf  Hf0  1  0.50413528  0.50286515  0.87077652  1
  Hf  Hf1  1  0.29699066  0.09329921  0.62199981  1
  Hf  Hf2  1  0.40843803  0.59627906  0.25604053  1
  Hf  Hf3  1  0.51929554  0.49553263  0.62894250  1
  Hf  Hf4  1  0.69504791  0.91979759  0.87343323  1
  Hf  Hf5  1  0.28628731  0.08712828  0.12388253  1
  Hf  Hf6  1  0.79819668  -0.00002657  0.51530735  1
  Hf  Hf7  1  0.49835629  0.90054601  0.86658330  1
  Hf  Hf8  1  0.60140467  0.41735791  0.48477213  1
  Hf  Hf9  1  -0.00041020  -0.00472340  0.50665108  1
  Hf  Hf10  1  0.70552297  0.31740294  0.14000024  1
  Hf  Hf11  1  0.39186081  0.40747799  0.01800044  1
  Hf  Hf12  1  0.79045933  0.20566025  0.48865743  1
  Hf  Hf13  1  0.42046920  0.58625448  0.49308949  1
  Hf  Hf14  1  0.18644497  0.19365021  -0.00133310  1
  Hf  Hf15  1  0.39610065  0.80195256  0.74375827  1
  Hf  Hf16  1  0.40155127  0.80792532  0.26935797  1
  Hf  Hf17  1  0.18416278  0.20487023  0.74455932  1
  Hf  Hf18  1  0.29697650  0.88590367  0.12121703  1
  Hf  Hf19  1  0.40638242  0.39959273  0.23436563  1
  Hf  Hf20  1  0.89391869  0.88873294  0.37811638  1
  Hf  Hf21  1  0.20274035  -0.01243416  0.75350605  1
  Hf  Hf22  1  0.79932816  0.01491368  0.00637701  1
  Hf  Hf23  1  0.18021119  0.39371550  0.49033025  1
  Hf  Hf24  1  0.00852329  0.80443611  -0.01854046  1
  Hf  Hf25  1  0.81936346  0.61191239  0.74881297  1
  Hf  Hf26  1  0.81478671  0.40534322  0.47726435  1
  Hf  Hf27  1  0.40603072  0.39320013  0.73924982  1
  Hf  Hf28  1  0.09759845  0.29525209  0.13420885  1
  Hf  Hf29  1  0.90831097  0.50764506  0.13212832  1
  Hf  Hf30  1  0.39220962  0.20600001  0.01634501  1
  Hf  Hf31  1  0.09467266  0.68657738  0.11886466  1
  Hf  Hf32  1  0.89401975  0.90213190  0.86089940  1
  Hf  Hf33  1  0.10170592  0.88493512  0.62802405  1
  Hf  Hf34  1  0.20766434  -0.00901208  0.26100390  1
  Hf  Hf35  1  0.00973772  0.41380796  0.26678033  1
  Hf  Hf36  1  0.28685772  0.30517201  0.87552022  1
  Hf  Hf37  1  0.29864647  0.50347175  0.86817321  1
  Hf  Hf38  1  0.81032929  0.61450308  0.25214124  1
  Hf  Hf39  1  0.29166008  0.69064397  0.13183843  1
  Zr  Zr40  1  0.70546142  0.32590276  0.61504252  1
  Zr  Zr41  1  0.69827871  0.90925139  0.38388047  1
  Zr  Zr42  1  0.49676730  0.29913117  0.88130011  1
  Zr  Zr43  1  0.20734031  0.38601860  0.26187348  1
  Zr  Zr44  1  0.79748575  0.21524872  0.00330904  1
  Zr  Zr45  1  0.90557481  0.11644809  0.63319210  1
  Zr  Zr46  1  0.59390369  0.21255833  0.26063515  1
  Zr  Zr47  1  0.60375572  0.18551833  0.00756162  1
  Zr  Zr48  1  0.30042092  0.09545623  0.87230569  1
  Zr  Zr49  1  0.40376929  -0.00214766  -0.00159211  1
  Zr  Zr50  1  0.50901738  0.09386242  0.87099656  1
  Zr  Zr51  1  -0.00154014  0.77496093  0.76553589  1
  Zr  Zr52  1  0.19237818  0.19089805  0.50173240  1
  Zr  Zr53  1  0.31150996  0.48097557  0.38402015  1
  Zr  Zr54  1  0.39784079  0.19753512  0.73475730  1
  Zr  Zr55  1  0.59497415  0.79863850  -0.00906541  1
  Zr  Zr56  1  -0.00520483  0.20298978  -0.00170179  1
  Zr  Zr57  1  0.38309809  0.19819087  0.24419240  1
  Zr  Zr58  1  0.60616204  0.79908937  0.25636979  1
  Zr  Zr59  1  0.49928989  0.70603696  0.12513404  1
  Zr  Zr60  1  0.28449032  0.68522718  0.38406725  1
  Zr  Zr61  1  0.19086211  0.78943632  0.26234001  1
  Zr  Zr62  1  0.28959463  0.70063910  0.61783242  1
  Zr  Zr63  1  0.69581760  0.90286890  0.11940337  1
  Zr  Zr64  1  0.89642240  0.09367483  0.36368734  1
  Zr  Zr65  1  0.89897428  0.48535171  0.62637329  1
  Zr  Zr66  1  0.48624464  0.10336460  0.38072599  1
  Zr  Zr67  1  0.39685594  0.80070702  0.49426245  1
  Zr  Zr68  1  0.80389697  0.79597156  -0.00321033  1
  Zr  Zr69  1  0.59487133  0.21017823  0.73726390  1
  Zr  Zr70  1  -0.00719617  0.59453870  -0.02107742  1
  Zr  Zr71  1  0.89637198  0.10600953  0.86027492  1
  Zr  Zr72  1  0.09569409  0.49075543  0.63016338  1
  Zr  Zr73  1  0.40131321  0.60457206  0.00124247  1
  Zr  Zr74  1  -0.00676729  0.78487949  0.25723830  1
  Zr  Zr75  1  0.61727628  0.39769280  -0.00765262  1
  Zr  Zr76  1  0.51402156  0.70140109  0.61922708  1
  Zr  Zr77  1  0.49552960  0.91047205  0.12808101  1
  Zr  Zr78  1  0.29775602  0.50218926  0.61807999  1
  Zr  Zr79  1  0.91146249  0.10904987  0.14335747  1
  Ta  Ta80  1  0.50269456  0.90587313  0.61114212  1
  Ta  Ta81  1  0.80064179  0.22663631  0.74586227  1
  Ta  Ta82  1  0.81557213  0.41152165  0.00284460  1
  Ta  Ta83  1  0.60027644  0.41488286  0.26625717  1
  Ta  Ta84  1  0.72043976  0.49855541  0.86927345  1
  Ta  Ta85  1  0.89934701  0.30851761  0.14813740  1
  Ta  Ta86  1  0.78841912  0.00310901  0.73338432  1
  Ta  Ta87  1  0.10114210  0.89996021  0.12031497  1
  Ta  Ta88  1  0.50649293  0.30355177  0.12504525  1
  Ta  Ta89  1  -0.00767676  0.21339607  0.48924387  1
  Ta  Ta90  1  0.61323589  0.60097577  -0.01246317  1
  Ta  Ta91  1  0.19578212  0.58932531  -0.00889121  1
  Ta  Ta92  1  0.50374476  0.90440840  0.39275107  1
  Ta  Ta93  1  0.20213622  0.78664113  -0.01637435  1
  Ta  Ta94  1  0.70089394  0.68450804  0.11975594  1
  Ta  Ta95  1  0.40291250  0.60268374  0.74733757  1
  Ta  Ta96  1  0.48361179  0.31616733  0.38531156  1
  Ta  Ta97  1  0.09670667  0.09424398  0.37836458  1
  Ta  Ta98  1  0.61233685  0.80635767  0.74117666  1
  Ta  Ta99  1  0.89859502  0.88882044  0.63964810  1
  Ta  Ta100  1  0.09791529  0.48020836  0.86263814  1
  Ta  Ta101  1  0.70583569  0.52711552  0.38073874  1
  Ta  Ta102  1  0.19798786  -0.01189353  0.49651220  1
  Ta  Ta103  1  0.09560751  0.09416797  0.62686893  1
  Ta  Ta104  1  0.61836526  0.40184948  0.75686211  1
  Ta  Ta105  1  0.79469668  0.41176164  0.26939613  1
  Ta  Ta106  1  0.69763339  0.10469295  0.14391321  1
  Ta  Ta107  1  0.18647340  0.18647127  0.25738215  1
  Ta  Ta108  1  -0.01194084  0.78467130  0.50324021  1
  Ta  Ta109  1  0.61041136  0.60122358  0.25351637  1
  Ta  Ta110  1  0.79276704  0.79339349  0.52390966  1
  Ta  Ta111  1  0.59708177  0.00439857  0.72897505  1
  Ta  Ta112  1  0.79654618  -0.00511521  0.24495182  1
  Ta  Ta113  1  0.79995555  0.80362227  0.24115438  1
  Ta  Ta114  1  0.89735740  0.31550368  0.87269341  1
  Ta  Ta115  1  0.69637946  0.11410740  0.62407722  1
  Ta  Ta116  1  0.53155898  0.50472827  0.12279503  1
  Ta  Ta117  1  0.91007456  0.90322644  0.12508254  1
  Ta  Ta118  1  0.61336196  0.60340037  0.75419482  1
  Ta  Ta119  1  0.09393912  0.68588490  0.62524438  1
  Ti  Ti120  1  0.19710771  0.39428045  0.74278478  1
  Ti  Ti121  1  0.27474669  0.49638032  0.12930277  1
  Ti  Ti122  1  0.89917615  0.29209952  0.35294712  1
  Ti  Ti123  1  0.09446523  0.89215851  0.38234381  1
  Ti  Ti124  1  0.91349134  0.52579268  0.37393018  1
  Ti  Ti125  1  0.79991212  0.59731318  -0.00871756  1
  Ti  Ti126  1  0.60126970  0.01471851  0.50907660  1
  Ti  Ti127  1  0.09398915  0.09777588  0.86635798  1
  Ti  Ti128  1  0.69685499  0.10729422  0.36617048  1
  Ti  Ti129  1  0.39676531  0.01065839  0.50328604  1
  Ti  Ti130  1  0.40582530  -0.00214511  0.73581248  1
  Ti  Ti131  1  0.17434360  0.58473885  0.25892633  1
  Ti  Ti132  1  0.59077648  0.00020144  0.25858292  1
  Ti  Ti133  1  0.18996079  0.39646971  0.00391689  1
  Ti  Ti134  1  0.52640111  0.69695176  0.38871169  1
  Ti  Ti135  1  0.18837110  -0.01422703  -0.01161707  1
  Ti  Ti136  1  0.00476175  0.59059427  0.49963441  1
  Ti  Ti137  1  0.70928193  0.71010571  0.86585694  1
  Ti  Ti138  1  0.89986771  0.70644824  0.11729346  1
  Ti  Ti139  1  0.39415429  0.79268390  -0.01051017  1
  Ti  Ti140  1  0.00619572  0.00383132  -0.00137271  1
  Ti  Ti141  1  0.19639715  0.79052134  0.76835315  1
  Ti  Ti142  1  0.30106492  0.27540410  0.38802340  1
  Ti  Ti143  1  0.00507153  -0.00245911  0.74828964  1
  Ti  Ti144  1  0.50130445  0.70019885  0.86424089  1
  Ti  Ti145  1  0.71473031  0.71403630  0.38495523  1
  Ti  Ti146  1  0.18383931  0.78967146  0.49393548  1
  Ti  Ti147  1  0.30326883  0.90960331  0.38505020  1
  Ti  Ti148  1  0.29790747  0.30271242  0.61259604  1
  Ti  Ti149  1  0.29846706  0.89137323  0.87671669  1
  Ti  Ti150  1  0.07327244  0.29359658  0.62116349  1
  Ti  Ti151  1  0.80634240  0.60730627  0.51470758  1
  Ti  Ti152  1  0.00320576  0.39840841  -0.00027562  1
  Ti  Ti153  1  0.58920187  0.21131048  0.49921886  1
  Ti  Ti154  1  0.19576820  0.60499017  0.75787626  1
  Ti  Ti155  1  0.01168703  -0.00472072  0.24950826  1
  Ti  Ti156  1  0.50165477  0.09669780  0.13555498  1
  Ti  Ti157  1  0.70132294  0.11283395  0.86115753  1
  Ti  Ti158  1  -0.00851130  0.38159420  0.75180285  1
  Ti  Ti159  1  0.29811809  0.89622379  0.61776099  1
  Mo  Mo160  1  0.40068742  0.38981727  0.50820698  1
  Mo  Mo161  1  0.79440926  0.80471252  0.73944242  1
  Mo  Mo162  1  0.29296100  0.09100164  0.38283679  1
  Mo  Mo163  1  0.19299174  0.59945543  0.50013984  1
  Mo  Mo164  1  0.71079188  0.50726366  0.12582125  1
  Mo  Mo165  1  0.50756076  0.50817310  0.37221700  1
  Mo  Mo166  1  0.08282541  0.68648005  0.38787144  1
  Mo  Mo167  1  0.90523229  0.49412789  0.86903881  1
  Mo  Mo168  1  0.88677808  0.69673401  0.38886076  1
  Mo  Mo169  1  0.09480299  0.30133255  0.87339663  1
  Mo  Mo170  1  0.10209354  0.49696605  0.12010726  1
  Mo  Mo171  1  0.79549256  0.20438061  0.25640416  1
  Mo  Mo172  1  0.00567347  0.19856555  0.25589067  1
  Mo  Mo173  1  0.70809600  0.29889783  0.87284270  1
  Mo  Mo174  1  0.60569654  0.01134580  0.00271741  1
  Mo  Mo175  1  0.62297584  0.61439872  0.50062092  1
  Mo  Mo176  1  0.00339339  0.60568978  0.25222490  1
  Mo  Mo177  1  0.70166935  0.51550401  0.62705194  1
  Mo  Mo178  1  0.69587250  0.30681633  0.37125064  1
  Mo  Mo179  1  0.69358502  0.90487306  0.62083473  1
  Mo  Mo180  1  0.89288929  0.69693011  0.87753681  1
  Mo  Mo181  1  0.50091719  0.10098017  0.60924673  1
  Mo  Mo182  1  0.09201232  0.28888866  0.37018276  1
  Mo  Mo183  1  0.10452378  0.90517707  0.87472007  1
  Mo  Mo184  1  0.40244125  -0.00553060  0.25933172  1
  Mo  Mo185  1  0.10472972  0.50759475  0.38483220  1
  Mo  Mo186  1  0.90348022  0.30300884  0.61826679  1
  Mo  Mo187  1  0.11308824  0.68655755  0.87561126  1
  Mo  Mo188  1  0.60676761  0.80920034  0.50447005  1
  Mo  Mo189  1  -0.00025387  0.20046476  0.75344154  1
  Mo  Mo190  1  0.70708846  0.69900524  0.63252301  1
  Mo  Mo191  1  0.29262045  0.29985019  0.12153079  1
  Mo  Mo192  1  0.09930407  0.08094487  0.12739649  1
  Mo  Mo193  1  0.49906196  0.30349065  0.60813128  1
  Mo  Mo194  1  0.40019089  0.20236324  0.50808490  1
  Mo  Mo195  1  0.01059824  0.58750222  0.76158432  1
  Mo  Mo196  1  0.79966706  0.40640937  0.75023824  1
  Mo  Mo197  1  0.30950928  0.69728324  0.86795355  1
  Mo  Mo198  1  0.91388038  0.69506839  0.62178554  1
  Mo  Mo199  1  -0.00701351  0.39605539  0.47746741  1
