# generated using pymatgen
data_HfZrTaTiMo
_symmetry_space_group_name_H-M   'P 1'
_cell_length_a   15.20326717
_cell_length_b   15.21550397
_cell_length_c   16.85034268
_cell_angle_alpha   89.89546959
_cell_angle_beta   90.01324912
_cell_angle_gamma   90.03301630
_symmetry_Int_Tables_number   1
_chemical_formula_structural   HfZrTaTiMo
_chemical_formula_sum   'Hf40 Zr40 Ta40 Ti40 Mo40'
_cell_volume   3897.90455186
_cell_formula_units_Z   40
loop_
 _symmetry_equiv_pos_site_id
 _symmetry_equiv_pos_as_xyz
  1  'x, y, z'
loop_
 _atom_site_type_symbol
 _atom_site_label
 _atom_site_symmetry_multiplicity
 _atom_site_fract_x
 _atom_site_fract_y
 _atom_site_fract_z
 _atom_site_occupancy
  Hf  Hf0  1  0.79003608  0.39766954  0.49741318  1
  Hf  Hf1  1  0.20256436  0.19467996  0.51733567  1
  Hf  Hf2  1  0.20482016  0.40276428  0.24371191  1
  Hf  Hf3  1  0.10254791  0.68670718  0.88394795  1
  Hf  Hf4  1  0.30600619  0.90077740  0.62150300  1
  Hf  Hf5  1  0.21152708  0.21731878  0.74022840  1
  Hf  Hf6  1  0.50295986  0.50545543  0.35646837  1
  Hf  Hf7  1  0.49941938  0.11067437  0.62790623  1
  Hf  Hf8  1  0.30887956  0.68505799  0.89104568  1
  Hf  Hf9  1  -0.00304465  0.00077036  0.00016649  1
  Hf  Hf10  1  0.88922340  0.30025392  0.37520275  1
  Hf  Hf11  1  0.79112204  0.78854486  0.49057219  1
  Hf  Hf12  1  0.79900722  0.59533777  0.48880456  1
  Hf  Hf13  1  0.58571081  0.00429662  0.24114899  1
  Hf  Hf14  1  0.41790086  0.79384442  0.75393745  1
  Hf  Hf15  1  0.31063579  0.90091946  0.86557231  1
  Hf  Hf16  1  0.71041956  0.90372082  0.87558680  1
  Hf  Hf17  1  -0.00620847  0.79530330  0.74988735  1
  Hf  Hf18  1  0.58500520  0.21043442  0.24706701  1
  Hf  Hf19  1  0.69075822  0.29339262  0.63486043  1
  Hf  Hf20  1  0.58143889  0.79236847  0.25253389  1
  Hf  Hf21  1  0.19537067  0.01063135  0.74339292  1
  Hf  Hf22  1  0.01404181  0.59935154  0.74945657  1
  Hf  Hf23  1  0.38240043  0.58528774  0.75058488  1
  Hf  Hf24  1  0.47812961  0.88956432  0.12335205  1
  Hf  Hf25  1  0.51353607  0.91202169  0.62086519  1
  Hf  Hf26  1  0.29817756  0.71989322  0.11521141  1
  Hf  Hf27  1  0.69198769  0.50347011  0.63435724  1
  Hf  Hf28  1  0.01779366  0.60121980  0.47728174  1
  Hf  Hf29  1  0.80065575  0.00943657  0.23719988  1
  Hf  Hf30  1  0.11833969  0.89742437  0.11943585  1
  Hf  Hf31  1  0.59619726  0.79662896  0.49046965  1
  Hf  Hf32  1  0.79791040  -0.00583413  0.01160496  1
  Hf  Hf33  1  0.61045328  0.58950715  0.00814336  1
  Hf  Hf34  1  0.59281185  0.39649873  0.48819633  1
  Hf  Hf35  1  0.49599507  0.30894462  0.63006604  1
  Hf  Hf36  1  0.40552008  0.21427880  0.48969316  1
  Hf  Hf37  1  0.37556941  -0.00393494  0.24683663  1
  Hf  Hf38  1  0.00745998  0.19836024  0.73696419  1
  Hf  Hf39  1  0.50863190  0.69590437  0.62003303  1
  Zr  Zr40  1  0.70506215  0.69199439  0.13851796  1
  Zr  Zr41  1  0.08775749  0.50990383  0.13331692  1
  Zr  Zr42  1  0.29492142  0.89260861  0.39497998  1
  Zr  Zr43  1  0.48467858  0.50171516  0.89188121  1
  Zr  Zr44  1  0.80685723  0.20255261  -0.01266452  1
  Zr  Zr45  1  0.50839214  0.48279031  0.12900343  1
  Zr  Zr46  1  0.29413516  0.09599354  0.38452091  1
  Zr  Zr47  1  0.01889591  0.00061570  0.24854848  1
  Zr  Zr48  1  -0.01541492  -0.00050301  0.73961759  1
  Zr  Zr49  1  0.00529229  0.21289002  0.23407879  1
  Zr  Zr50  1  0.59674462  0.19246390  0.76238524  1
  Zr  Zr51  1  0.90845598  0.50467079  0.62453053  1
  Zr  Zr52  1  0.90169801  0.90897848  0.38501507  1
  Zr  Zr53  1  0.90850808  0.10785170  0.36994222  1
  Zr  Zr54  1  0.80206704  0.19338839  0.76127530  1
  Zr  Zr55  1  0.21557929  0.19022430  0.25014641  1
  Zr  Zr56  1  0.29392829  0.68700095  0.61778373  1
  Zr  Zr57  1  0.88687062  0.89505469  0.60882641  1
  Zr  Zr58  1  0.69958995  0.70641975  0.87636213  1
  Zr  Zr59  1  0.80873068  0.79441084  0.01079930  1
  Zr  Zr60  1  0.00785693  0.40421593  0.49452854  1
  Zr  Zr61  1  0.69020164  0.90944063  0.37339565  1
  Zr  Zr62  1  -0.00376930  0.01888585  0.51605536  1
  Zr  Zr63  1  0.89507332  0.30683621  0.63038501  1
  Zr  Zr64  1  0.01335877  0.39960181  0.75470216  1
  Zr  Zr65  1  0.20603706  0.01330010  -0.01698672  1
  Zr  Zr66  1  0.10430069  0.89084619  0.61116253  1
  Zr  Zr67  1  0.69986361  0.50444340  0.87106729  1
  Zr  Zr68  1  0.09434926  0.12282641  0.87657142  1
  Zr  Zr69  1  0.90124620  0.11141116  0.12203640  1
  Zr  Zr70  1  0.59427918  0.00598788  0.00953046  1
  Zr  Zr71  1  0.69270459  0.31385604  0.10956349  1
  Zr  Zr72  1  0.02644086  0.78738953  0.25420735  1
  Zr  Zr73  1  0.20050847  0.78410033  0.75530849  1
  Zr  Zr74  1  0.59013104  0.61170390  0.75476396  1
  Zr  Zr75  1  0.10432614  0.29398560  0.37464163  1
  Zr  Zr76  1  0.80019178  0.18308349  0.51335271  1
  Zr  Zr77  1  0.70234117  0.10951083  0.36873674  1
  Zr  Zr78  1  0.39056909  0.60249398  0.23699038  1
  Zr  Zr79  1  0.80781730  0.79967046  0.25789505  1
  Ta  Ta80  1  0.49033161  0.49594229  0.62337660  1
  Ta  Ta81  1  0.20955970  0.40406678  0.48837135  1
  Ta  Ta82  1  0.90416488  0.69726599  0.61322906  1
  Ta  Ta83  1  0.49641804  0.69447385  0.11135080  1
  Ta  Ta84  1  0.60148874  0.80389709  0.00853832  1
  Ta  Ta85  1  0.10434476  0.89633450  0.39793201  1
  Ta  Ta86  1  0.89018438  0.49684640  0.13205909  1
  Ta  Ta87  1  0.01692322  0.22307642  0.01086913  1
  Ta  Ta88  1  0.58904571  0.40137553  0.76206486  1
  Ta  Ta89  1  0.38764854  0.19033546  -0.00105812  1
  Ta  Ta90  1  0.80462237  0.40736034  -0.00940816  1
  Ta  Ta91  1  0.79947167  0.40223164  0.76516429  1
  Ta  Ta92  1  0.08763092  0.89933373  0.87389563  1
  Ta  Ta93  1  0.81274746  0.59514572  0.00572719  1
  Ta  Ta94  1  0.29477725  0.50744053  0.36845931  1
  Ta  Ta95  1  0.60167126  0.59634790  0.49558489  1
  Ta  Ta96  1  0.70509847  0.49253622  0.35940024  1
  Ta  Ta97  1  0.39651742  -0.00380128  -0.00095098  1
  Ta  Ta98  1  0.18888911  0.61799063  0.24843644  1
  Ta  Ta99  1  0.69049739  0.11084852  0.12362897  1
  Ta  Ta100  1  0.80759226  0.61056271  0.74497436  1
  Ta  Ta101  1  0.39284545  0.38868677  0.75904001  1
  Ta  Ta102  1  0.00209802  0.79758294  0.00017207  1
  Ta  Ta103  1  0.89896806  0.70258388  0.87551643  1
  Ta  Ta104  1  0.00404546  0.20434765  0.51894337  1
  Ta  Ta105  1  0.77510665  -0.00381608  0.73180768  1
  Ta  Ta106  1  0.69623184  0.89844239  0.13355072  1
  Ta  Ta107  1  0.38974994  0.39022597  0.01475668  1
  Ta  Ta108  1  0.40230514  0.37293549  0.24963641  1
  Ta  Ta109  1  0.48704797  0.29665460  0.88470428  1
  Ta  Ta110  1  0.49098048  0.09359172  0.87449416  1
  Ta  Ta111  1  0.20893270  0.41850103  0.75235004  1
  Ta  Ta112  1  0.09877540  0.69330177  0.61023980  1
  Ta  Ta113  1  0.20103461  0.80559265  -0.01147774  1
  Ta  Ta114  1  0.90599771  0.50656884  0.87499236  1
  Ta  Ta115  1  0.90848187  0.88965316  0.13110273  1
  Ta  Ta116  1  0.40267649  0.59371639  0.49167861  1
  Ta  Ta117  1  0.19999705  0.59209939  0.01693973  1
  Ta  Ta118  1  0.81317685  0.59610691  0.25881791  1
  Ta  Ta119  1  0.12050439  0.10786402  0.11555303  1
  Ti  Ti120  1  -0.00749139  0.40280787  0.24552341  1
  Ti  Ti121  1  0.11933056  0.50924994  0.61946241  1
  Ti  Ti122  1  0.10522719  0.49023110  0.88764995  1
  Ti  Ti123  1  0.30271459  0.28139690  0.12389375  1
  Ti  Ti124  1  0.30305288  0.49222037  0.61432018  1
  Ti  Ti125  1  0.39879629  0.79117586  0.50178797  1
  Ti  Ti126  1  0.79382813  0.22463636  0.23741396  1
  Ti  Ti127  1  0.19044539  0.38788410  0.01783536  1
  Ti  Ti128  1  0.90668334  0.49642067  0.36403726  1
  Ti  Ti129  1  -0.00381382  0.60053604  0.00159876  1
  Ti  Ti130  1  0.80083171  0.79886864  0.73907722  1
  Ti  Ti131  1  0.30617196  0.11245414  0.86488046  1
  Ti  Ti132  1  0.61666447  0.81244325  0.74036208  1
  Ti  Ti133  1  0.30883914  0.30911988  0.62288618  1
  Ti  Ti134  1  0.92063843  0.68881259  0.13493478  1
  Ti  Ti135  1  0.69120342  0.30425704  0.88303050  1
  Ti  Ti136  1  0.49801022  0.70272789  0.90083111  1
  Ti  Ti137  1  0.89121172  0.07564913  0.87191921  1
  Ti  Ti138  1  0.60143767  0.19690429  0.49144696  1
  Ti  Ti139  1  0.10593981  0.08905938  0.38456775  1
  Ti  Ti140  1  0.69065709  0.09530653  0.88030821  1
  Ti  Ti141  1  0.39897160  0.40362536  0.48315870  1
  Ti  Ti142  1  -0.00405498  0.40588253  0.00629871  1
  Ti  Ti143  1  0.48322245  0.70034690  0.37274080  1
  Ti  Ti144  1  0.60804269  0.39134325  0.25775975  1
  Ti  Ti145  1  0.22211919  0.81095402  0.25536886  1
  Ti  Ti146  1  0.48806243  0.90425641  0.37851936  1
  Ti  Ti147  1  0.39875857  0.01169116  0.50682878  1
  Ti  Ti148  1  0.11073833  0.31887144  0.62079768  1
  Ti  Ti149  1  0.91380555  0.70352364  0.37351606  1
  Ti  Ti150  1  0.68630564  0.68384668  0.36029687  1
  Ti  Ti151  1  0.91745561  0.30318614  0.87696438  1
  Ti  Ti152  1  0.70699709  0.49840801  0.14103465  1
  Ti  Ti153  1  0.29127799  0.49108478  0.89392212  1
  Ti  Ti154  1  0.48065231  0.11211204  0.12595323  1
  Ti  Ti155  1  0.40513771  0.01116837  0.74693040  1
  Ti  Ti156  1  0.58623698  0.20350606  -0.00182378  1
  Ti  Ti157  1  0.49639077  0.09933523  0.37334013  1
  Ti  Ti158  1  0.51062087  0.89857868  0.87647580  1
  Ti  Ti159  1  0.28786162  0.30283791  0.88442245  1
  Mo  Mo160  1  0.09876862  0.70426914  0.11210278  1
  Mo  Mo161  1  0.40438957  0.80415727  -0.01130893  1
  Mo  Mo162  1  0.39577103  0.79883048  0.25518987  1
  Mo  Mo163  1  0.70920934  0.69832030  0.62416266  1
  Mo  Mo164  1  0.30510612  0.69646802  0.37646475  1
  Mo  Mo165  1  -0.00120619  0.79226571  0.49198186  1
  Mo  Mo166  1  0.77768564  -0.00259925  0.51737200  1
  Mo  Mo167  1  0.88869605  0.10238833  0.63269770  1
  Mo  Mo168  1  0.60133781  0.59662514  0.24836580  1
  Mo  Mo169  1  0.30436025  0.30799235  0.37630263  1
  Mo  Mo170  1  0.40181160  0.19517186  0.25386995  1
  Mo  Mo171  1  0.10705131  0.31649822  0.88075219  1
  Mo  Mo172  1  0.89731176  0.89377234  0.86805191  1
  Mo  Mo173  1  0.29487688  0.90609032  0.11546208  1
  Mo  Mo174  1  0.10355658  0.50123292  0.35461500  1
  Mo  Mo175  1  0.20855710  0.58680662  0.49039420  1
  Mo  Mo176  1  0.20083024  0.78643096  0.50076898  1
  Mo  Mo177  1  0.20338834  0.00110431  0.51880794  1
  Mo  Mo178  1  0.29838350  0.49519267  0.12127251  1
  Mo  Mo179  1  0.00357996  0.59963554  0.26476963  1
  Mo  Mo180  1  0.30985610  0.10317553  0.62837217  1
  Mo  Mo181  1  0.39646159  0.20559912  0.76020111  1
  Mo  Mo182  1  0.59418769  -0.00769378  0.75907419  1
  Mo  Mo183  1  0.90011799  0.31726009  0.11589268  1
  Mo  Mo184  1  0.69807649  0.29998366  0.37277508  1
  Mo  Mo185  1  0.69101345  0.89056498  0.61594135  1
  Mo  Mo186  1  0.59861435  0.39176301  -0.01117038  1
  Mo  Mo187  1  0.29998992  0.08905415  0.12091979  1
  Mo  Mo188  1  0.20805967  0.21284250  0.00079270  1
  Mo  Mo189  1  0.80194457  0.39707941  0.25055308  1
  Mo  Mo190  1  0.10204555  0.30509783  0.12812696  1
  Mo  Mo191  1  0.19681481  0.58871059  0.75395420  1
  Mo  Mo192  1  0.68212444  0.08240718  0.62018378  1
  Mo  Mo193  1  0.58982151  0.01024053  0.49103996  1
  Mo  Mo194  1  0.50071137  0.29854968  0.37340412  1
  Mo  Mo195  1  0.12509661  0.70613080  0.38109767  1
  Mo  Mo196  1  0.18970022  -0.00705430  0.25357748  1
  Mo  Mo197  1  0.10367060  0.10838026  0.63139896  1
  Mo  Mo198  1  0.49396254  0.29085831  0.11258101  1
  Mo  Mo199  1  0.39441312  0.59186508  0.01963186  1
