# generated using pymatgen
data_HfZrTaTiMo
_symmetry_space_group_name_H-M   'P 1'
_cell_length_a   15.21341128
_cell_length_b   15.21722228
_cell_length_c   16.80833380
_cell_angle_alpha   89.97749960
_cell_angle_beta   90.00269535
_cell_angle_gamma   90.09116218
_symmetry_Int_Tables_number   1
_chemical_formula_structural   HfZrTaTiMo
_chemical_formula_sum   'Hf40 Zr40 Ta40 Ti40 Mo40'
_cell_volume   3891.22256009
_cell_formula_units_Z   40
loop_
 _symmetry_equiv_pos_site_id
 _symmetry_equiv_pos_as_xyz
  1  'x, y, z'
loop_
 _atom_site_type_symbol
 _atom_site_label
 _atom_site_symmetry_multiplicity
 _atom_site_fract_x
 _atom_site_fract_y
 _atom_site_fract_z
 _atom_site_occupancy
  Hf  Hf0  1  0.51270181  0.89692659  0.36893754  1
  Hf  Hf1  1  0.47955732  0.30654483  0.11045075  1
  Hf  Hf2  1  0.71385888  0.49129927  0.86656439  1
  Hf  Hf3  1  0.87520178  0.29887200  0.89063775  1
  Hf  Hf4  1  0.39200498  0.20559096  0.24962363  1
  Hf  Hf5  1  0.10267882  0.70600730  0.86839024  1
  Hf  Hf6  1  0.28923878  0.09307452  0.62961797  1
  Hf  Hf7  1  0.31877756  0.48182211  0.12523758  1
  Hf  Hf8  1  0.79383560  0.40055155  0.24628048  1
  Hf  Hf9  1  0.18223702  0.59345918  0.50210924  1
  Hf  Hf10  1  0.49342333  0.10049289  0.61851361  1
  Hf  Hf11  1  -0.01136500  0.81019867  0.25122366  1
  Hf  Hf12  1  0.18906389  0.40193463  0.76362265  1
  Hf  Hf13  1  0.79946273  0.60560292  0.24213251  1
  Hf  Hf14  1  0.91316333  0.49713845  0.87222844  1
  Hf  Hf15  1  0.00749330  0.80905649  0.74459893  1
  Hf  Hf16  1  0.49990047  0.69442002  0.13453547  1
  Hf  Hf17  1  0.10533822  0.69090673  0.36035434  1
  Hf  Hf18  1  0.00619134  0.80444272  0.48784421  1
  Hf  Hf19  1  -0.00099843  0.19317126  0.26059505  1
  Hf  Hf20  1  -0.02812190  0.19230168  0.75606705  1
  Hf  Hf21  1  0.20003101  0.79298855  0.01003698  1
  Hf  Hf22  1  0.80650737  -0.00059742  0.48472666  1
  Hf  Hf23  1  0.59740969  0.60201782  0.50790784  1
  Hf  Hf24  1  -0.00692332  0.39381358  0.23531961  1
  Hf  Hf25  1  0.39532294  0.61266720  0.49635917  1
  Hf  Hf26  1  0.00761779  0.01406314  0.46688843  1
  Hf  Hf27  1  0.89585570  0.30003154  0.38733442  1
  Hf  Hf28  1  0.29393471  0.09941003  0.12087679  1
  Hf  Hf29  1  0.81145801  0.81018959  0.74037137  1
  Hf  Hf30  1  0.59827045  0.80517242  -0.00082355  1
  Hf  Hf31  1  0.09181726  0.48794319  0.36422581  1
  Hf  Hf32  1  0.58990534  0.39683708  0.75826195  1
  Hf  Hf33  1  0.70912612  0.70304841  0.87052567  1
  Hf  Hf34  1  0.61310190  0.00056446  0.24873158  1
  Hf  Hf35  1  0.89867973  0.50643985  0.37727001  1
  Hf  Hf36  1  0.59497135  0.38811435  0.25253742  1
  Hf  Hf37  1  0.59691590  0.21193608  0.50141755  1
  Hf  Hf38  1  0.82017714  0.00302406  0.26852946  1
  Hf  Hf39  1  0.59969098  0.00381574  0.74636780  1
  Zr  Zr40  1  0.30298745  0.29198186  0.62990853  1
  Zr  Zr41  1  0.29627595  0.08141202  0.87781732  1
  Zr  Zr42  1  0.89397864  0.10926879  0.11488904  1
  Zr  Zr43  1  0.90786654  0.91637360  0.11657959  1
  Zr  Zr44  1  0.13003061  0.50235667  0.13745597  1
  Zr  Zr45  1  0.01221657  0.61330578  0.02121565  1
  Zr  Zr46  1  0.68672502  0.29388709  0.10483792  1
  Zr  Zr47  1  -0.00454595  0.60608783  0.22672090  1
  Zr  Zr48  1  0.70048836  0.49549182  0.63694953  1
  Zr  Zr49  1  0.29361839  0.49817599  0.37600327  1
  Zr  Zr50  1  0.21565095  0.79705615  0.48687923  1
  Zr  Zr51  1  0.19198847  0.38446225  0.50235356  1
  Zr  Zr52  1  0.59993028  0.80960428  0.74369316  1
  Zr  Zr53  1  0.08356278  0.09583043  0.62000875  1
  Zr  Zr54  1  0.68514130  0.70404933  0.36582331  1
  Zr  Zr55  1  0.10346440  0.28601727  0.11713729  1
  Zr  Zr56  1  0.30091002  0.88730913  0.87958481  1
  Zr  Zr57  1  0.40615618  0.59386667  -0.00999260  1
  Zr  Zr58  1  0.90966772  0.90759631  0.89667757  1
  Zr  Zr59  1  0.81311443  0.01610166  0.74810452  1
  Zr  Zr60  1  0.80273166  0.59721832  0.50559400  1
  Zr  Zr61  1  0.70680243  0.90772269  0.88472059  1
  Zr  Zr62  1  0.39962055  0.19789460  0.76164928  1
  Zr  Zr63  1  0.50782908  0.50322443  0.37308515  1
  Zr  Zr64  1  0.20594003  0.58554312  -0.01694568  1
  Zr  Zr65  1  0.09489002  0.29103096  0.63145592  1
  Zr  Zr66  1  0.60263985  0.59665268  -0.00938316  1
  Zr  Zr67  1  0.90561160  0.70306677  0.87732571  1
  Zr  Zr68  1  0.29553634  0.49755488  0.63114909  1
  Zr  Zr69  1  0.10495105  0.70183676  0.62650596  1
  Zr  Zr70  1  0.78600272  0.20527843  0.24665919  1
  Zr  Zr71  1  0.21305762  -0.00254646  0.49052314  1
  Zr  Zr72  1  0.69686670  0.71042901  0.13245441  1
  Zr  Zr73  1  0.39514453  0.60098192  0.25672293  1
  Zr  Zr74  1  0.71551304  0.10713283  0.61562649  1
  Zr  Zr75  1  0.81125565  0.59696440  0.01469598  1
  Zr  Zr76  1  0.00066987  0.41405053  0.01317090  1
  Zr  Zr77  1  0.30771540  0.70222616  0.63520773  1
  Zr  Zr78  1  0.69482461  0.11314735  0.38299503  1
  Zr  Zr79  1  0.08016467  0.30221179  0.87402490  1
  Ta  Ta80  1  0.40536912  0.39298136  0.49844342  1
  Ta  Ta81  1  0.18765604  0.18018480  -0.01421648  1
  Ta  Ta82  1  0.90432148  0.70138573  0.61705851  1
  Ta  Ta83  1  0.00626240  0.59250389  0.73897668  1
  Ta  Ta84  1  0.79982918  0.80405973  0.49820911  1
  Ta  Ta85  1  0.40014618  -0.01293922  0.74504628  1
  Ta  Ta86  1  0.48842092  0.09624571  0.38171669  1
  Ta  Ta87  1  0.40806920  0.00344212  0.24187927  1
  Ta  Ta88  1  0.40224374  0.79581301  0.01044938  1
  Ta  Ta89  1  0.40137107  0.80473995  0.24390599  1
  Ta  Ta90  1  0.78633121  0.39208927  0.50081731  1
  Ta  Ta91  1  0.60424884  0.19883852  0.75282694  1
  Ta  Ta92  1  0.30502840  0.89781748  0.12800943  1
  Ta  Ta93  1  0.39312967  0.40179015  0.76952798  1
  Ta  Ta94  1  0.70527528  0.70325165  0.63080953  1
  Ta  Ta95  1  0.59786094  0.60347305  0.75304651  1
  Ta  Ta96  1  0.10061541  0.08784446  0.13612712  1
  Ta  Ta97  1  0.28641521  0.28106516  0.38168191  1
  Ta  Ta98  1  -0.00743542  0.41447172  0.51549997  1
  Ta  Ta99  1  0.71058416  0.91005557  0.11908171  1
  Ta  Ta100  1  0.59573091  0.40237026  0.50395542  1
  Ta  Ta101  1  0.88909135  0.28367786  0.61171869  1
  Ta  Ta102  1  0.59360441  -0.00958398  0.50263774  1
  Ta  Ta103  1  0.60063082  0.00886245  0.00708970  1
  Ta  Ta104  1  0.49469178  0.90492067  0.88085229  1
  Ta  Ta105  1  0.68982472  0.29632927  0.88629772  1
  Ta  Ta106  1  0.28986950  0.68797897  0.12945730  1
  Ta  Ta107  1  0.69838194  0.29954150  0.63241814  1
  Ta  Ta108  1  0.60366961  0.80055692  0.51070473  1
  Ta  Ta109  1  0.49731738  0.70976585  0.86807148  1
  Ta  Ta110  1  0.81239070  0.59708988  0.73953923  1
  Ta  Ta111  1  0.49046020  0.49899058  0.63038543  1
  Ta  Ta112  1  0.41166495  0.82130470  0.51024986  1
  Ta  Ta113  1  0.70494676  0.11018371  0.88005921  1
  Ta  Ta114  1  0.91503982  0.91548228  0.61324259  1
  Ta  Ta115  1  0.00444412  -0.00164257  0.75369531  1
  Ta  Ta116  1  0.40849022  -0.00555204  0.01107211  1
  Ta  Ta117  1  0.20656025  0.37546205  0.25434871  1
  Ta  Ta118  1  0.00794846  0.80423536  0.01867279  1
  Ta  Ta119  1  0.11426447  0.90514008  0.14148564  1
  Ti  Ti120  1  0.89808760  0.70167468  0.37994506  1
  Ti  Ti121  1  0.50426086  0.69940863  0.63149421  1
  Ti  Ti122  1  0.50998546  0.89920327  0.13064809  1
  Ti  Ti123  1  0.89739889  0.09691126  0.89604089  1
  Ti  Ti124  1  0.30741284  0.70037389  0.86736623  1
  Ti  Ti125  1  0.11569420  0.91098495  0.35098747  1
  Ti  Ti126  1  0.58897122  0.19172848  -0.00278286  1
  Ti  Ti127  1  0.49635359  0.30536038  0.62879012  1
  Ti  Ti128  1  0.11230454  0.90321902  0.62016907  1
  Ti  Ti129  1  0.39171026  0.40001946  -0.03013417  1
  Ti  Ti130  1  0.88616229  0.30738628  0.10511303  1
  Ti  Ti131  1  0.50179699  0.10456332  0.12284311  1
  Ti  Ti132  1  0.79039947  0.81403669  0.26001156  1
  Ti  Ti133  1  0.70713999  0.90296654  0.61925483  1
  Ti  Ti134  1  0.50299979  0.09333985  0.87616791  1
  Ti  Ti135  1  0.29903994  0.09279854  0.36715030  1
  Ti  Ti136  1  0.50861392  0.49774068  0.13075584  1
  Ti  Ti137  1  0.58759000  0.40823270  -0.01037394  1
  Ti  Ti138  1  0.40580711  0.80478391  0.74170719  1
  Ti  Ti139  1  0.21241324  0.78871102  0.25037126  1
  Ti  Ti140  1  0.19398145  -0.00703824  0.75059887  1
  Ti  Ti141  1  0.31733535  0.90010925  0.36497791  1
  Ti  Ti142  1  0.18617459  0.18899358  0.77125938  1
  Ti  Ti143  1  0.40599571  0.59490767  0.76104295  1
  Ti  Ti144  1  0.28940714  0.29417615  0.10789986  1
  Ti  Ti145  1  0.39203912  0.19592703  -0.01187295  1
  Ti  Ti146  1  0.10568663  0.91200224  0.88625062  1
  Ti  Ti147  1  0.69476024  0.49603413  0.12325091  1
  Ti  Ti148  1  0.20780173  0.80846019  0.74758489  1
  Ti  Ti149  1  -0.00022115  0.19495877  -0.00258551  1
  Ti  Ti150  1  -0.01841421  0.40201283  0.73312459  1
  Ti  Ti151  1  0.69798043  0.49655526  0.37387684  1
  Ti  Ti152  1  0.49413067  0.70856535  0.36986189  1
  Ti  Ti153  1  0.38597050  0.19372702  0.49770844  1
  Ti  Ti154  1  0.20071059  0.59520974  0.75811903  1
  Ti  Ti155  1  0.49498048  0.29363411  0.38010636  1
  Ti  Ti156  1  0.39812159  0.39245873  0.25970338  1
  Ti  Ti157  1  0.20311622  0.39176095  -0.02380582  1
  Ti  Ti158  1  0.58806340  0.19611165  0.25051886  1
  Ti  Ti159  1  0.49817660  0.29369268  0.88013911  1
  Mo  Mo160  1  0.02483719  0.01167087  0.00310681  1
  Mo  Mo161  1  0.10817049  0.71499860  0.14169962  1
  Mo  Mo162  1  0.00874535  0.21177939  0.48582676  1
  Mo  Mo163  1  0.78583126  0.40478761  0.00569847  1
  Mo  Mo164  1  0.19610943  0.19017315  0.49701533  1
  Mo  Mo165  1  0.50235606  0.90172021  0.62264527  1
  Mo  Mo166  1  0.89242919  0.72009409  0.12443495  1
  Mo  Mo167  1  0.90638447  0.10737658  0.37290132  1
  Mo  Mo168  1  0.90347444  0.89075143  0.37711795  1
  Mo  Mo169  1  0.20075192  -0.00735887  0.00863093  1
  Mo  Mo170  1  0.20263124  0.19694153  0.24714766  1
  Mo  Mo171  1  0.01194327  0.00325984  0.26436311  1
  Mo  Mo172  1  0.30790052  0.71310949  0.37487869  1
  Mo  Mo173  1  0.68745458  0.31251775  0.37957140  1
  Mo  Mo174  1  0.29564777  0.29099097  0.88343296  1
  Mo  Mo175  1  0.80322627  0.20378875  0.49627589  1
  Mo  Mo176  1  0.70039351  0.89560132  0.38303037  1
  Mo  Mo177  1  0.59844623  0.80407352  0.24546450  1
  Mo  Mo178  1  0.12377935  0.11866570  0.36619099  1
  Mo  Mo179  1  0.60427139  0.58930370  0.24698899  1
  Mo  Mo180  1  0.50385768  0.50193145  0.86522356  1
  Mo  Mo181  1  0.30183516  0.90214701  0.63204839  1
  Mo  Mo182  1  0.40340120  0.00137832  0.49402507  1
  Mo  Mo183  1  -0.00434083  0.60356466  0.50112592  1
  Mo  Mo184  1  0.89882478  0.49498775  0.62577597  1
  Mo  Mo185  1  0.79138697  0.20688318  0.75452769  1
  Mo  Mo186  1  0.09054842  0.50662477  0.86735138  1
  Mo  Mo187  1  0.09757478  0.30033118  0.37796764  1
  Mo  Mo188  1  0.09316819  0.49963414  0.62949099  1
  Mo  Mo189  1  0.08743343  0.09000688  0.87322326  1
  Mo  Mo190  1  0.20568022  0.59196992  0.25379762  1
  Mo  Mo191  1  0.21757893  -0.00461785  0.25337113  1
  Mo  Mo192  1  0.88912029  0.49706541  0.12656686  1
  Mo  Mo193  1  0.90693224  0.10177998  0.61523495  1
  Mo  Mo194  1  0.29732779  0.50193459  0.86388058  1
  Mo  Mo195  1  0.80660772  0.80152152  0.00952296  1
  Mo  Mo196  1  0.78649289  0.19532224  0.00352681  1
  Mo  Mo197  1  0.68795680  0.09639229  0.12574870  1
  Mo  Mo198  1  0.80274351  0.38314850  0.74589655  1
  Mo  Mo199  1  0.79187182  0.00666738  0.00082049  1
