# generated using pymatgen
data_HfZrTaTiMo
_symmetry_space_group_name_H-M   'P 1'
_cell_length_a   15.18477853
_cell_length_b   15.17862617
_cell_length_c   16.80350936
_cell_angle_alpha   89.97296686
_cell_angle_beta   90.02662642
_cell_angle_gamma   89.99744486
_symmetry_Int_Tables_number   1
_chemical_formula_structural   HfZrTaTiMo
_chemical_formula_sum   'Hf40 Zr40 Ta40 Ti40 Mo40'
_cell_volume   3872.94049036
_cell_formula_units_Z   40
loop_
 _symmetry_equiv_pos_site_id
 _symmetry_equiv_pos_as_xyz
  1  'x, y, z'
loop_
 _atom_site_type_symbol
 _atom_site_label
 _atom_site_symmetry_multiplicity
 _atom_site_fract_x
 _atom_site_fract_y
 _atom_site_fract_z
 _atom_site_occupancy
  Hf  Hf0  1  0.50510570  0.30401107  0.12778797  1
  Hf  Hf1  1  0.50325253  0.51857885  0.14470535  1
  Hf  Hf2  1  0.57914653  0.41064562  0.75665475  1
  Hf  Hf3  1  0.39896055  0.41392968  0.01379255  1
  Hf  Hf4  1  0.80723755  -0.00143902  -0.00372918  1
  Hf  Hf5  1  0.68831755  0.70648842  0.62400706  1
  Hf  Hf6  1  0.87786175  0.30058365  0.13078855  1
  Hf  Hf7  1  0.27374108  0.10105248  0.88372432  1
  Hf  Hf8  1  0.08978521  0.30079264  0.13659340  1
  Hf  Hf9  1  0.19635967  0.40656029  0.74552639  1
  Hf  Hf10  1  0.79814658  0.79535125  0.75526787  1
  Hf  Hf11  1  0.10696703  0.29396766  0.60470441  1
  Hf  Hf12  1  0.81807873  0.00277703  0.24991123  1
  Hf  Hf13  1  0.70681796  0.10962381  0.13333136  1
  Hf  Hf14  1  0.48230090  0.09836045  0.88105930  1
  Hf  Hf15  1  0.90656511  0.49281545  0.12322423  1
  Hf  Hf16  1  0.49118746  0.90328585  0.35341574  1
  Hf  Hf17  1  0.00353066  0.79791649  0.52404408  1
  Hf  Hf18  1  0.68144507  0.51099069  0.63014176  1
  Hf  Hf19  1  0.19698307  0.41303534  0.48066863  1
  Hf  Hf20  1  0.81201772  -0.00284746  0.51270194  1
  Hf  Hf21  1  0.19508395  0.41321970  0.25631842  1
  Hf  Hf22  1  0.90512493  0.30347923  0.86083043  1
  Hf  Hf23  1  0.59535160  0.19376200  0.00300060  1
  Hf  Hf24  1  0.81222020  0.59636483  0.24282043  1
  Hf  Hf25  1  0.71233727  0.68222150  0.37866257  1
  Hf  Hf26  1  0.49238486  0.30522525  0.88949781  1
  Hf  Hf27  1  0.19654031  0.00061541  0.49911838  1
  Hf  Hf28  1  0.39620325  -0.00140593  0.74758313  1
  Hf  Hf29  1  0.39199810  0.59773912  0.76894787  1
  Hf  Hf30  1  0.03159928  0.00165689  -0.01031169  1
  Hf  Hf31  1  0.29688985  0.90268359  0.88888304  1
  Hf  Hf32  1  0.68102471  0.29834198  0.62199015  1
  Hf  Hf33  1  0.27892837  0.51102550  0.89261273  1
  Hf  Hf34  1  0.29452428  0.11003188  0.14322056  1
  Hf  Hf35  1  0.49466864  0.09468840  0.14962781  1
  Hf  Hf36  1  0.71338353  0.09646786  0.37645114  1
  Hf  Hf37  1  0.69806701  0.08411220  0.86732147  1
  Hf  Hf38  1  0.91154392  0.09879166  0.12360930  1
  Hf  Hf39  1  0.28797433  0.30410892  0.89224810  1
  Zr  Zr40  1  0.01395314  0.59133159  -0.01599542  1
  Zr  Zr41  1  0.81037792  0.79857477  0.23833862  1
  Zr  Zr42  1  0.59405385  0.79653554  0.48109398  1
  Zr  Zr43  1  0.59286360  0.61645177  0.77203299  1
  Zr  Zr44  1  0.21515674  0.79422892  0.75122959  1
  Zr  Zr45  1  0.61197375  0.21565388  0.26358431  1
  Zr  Zr46  1  0.31330641  0.89197211  0.62793904  1
  Zr  Zr47  1  0.80593347  -0.00689112  0.73865230  1
  Zr  Zr48  1  0.70357448  0.29806211  0.85884887  1
  Zr  Zr49  1  0.48603650  0.49389358  0.35004302  1
  Zr  Zr50  1  0.58901974  0.19485518  0.74948279  1
  Zr  Zr51  1  0.38771438  0.40132744  0.75107373  1
  Zr  Zr52  1  0.00917040  0.78495102  0.23861963  1
  Zr  Zr53  1  0.91790844  0.69541031  0.38685928  1
  Zr  Zr54  1  0.58418250  0.59866048  -0.01478735  1
  Zr  Zr55  1  0.59364927  -0.01128575  0.01196550  1
  Zr  Zr56  1  0.29547124  0.88244892  0.36417548  1
  Zr  Zr57  1  0.49984249  0.09978358  0.61957832  1
  Zr  Zr58  1  0.78024306  0.41420996  0.50713750  1
  Zr  Zr59  1  0.79733671  0.59021408  -0.00012869  1
  Zr  Zr60  1  0.90795707  0.30263453  0.60835098  1
  Zr  Zr61  1  0.58647358  0.58876473  0.48556968  1
  Zr  Zr62  1  0.29571810  0.11268036  0.61220322  1
  Zr  Zr63  1  0.91573885  0.90168616  0.87456948  1
  Zr  Zr64  1  0.88361278  0.50794361  0.38677135  1
  Zr  Zr65  1  0.19727532  0.21028080  0.26509388  1
  Zr  Zr66  1  0.38778190  0.20840824  0.74848783  1
  Zr  Zr67  1  0.00416738  0.20196972  -0.00133765  1
  Zr  Zr68  1  0.68696602  0.68807659  0.12518222  1
  Zr  Zr69  1  0.60477441  -0.00457717  0.48957561  1
  Zr  Zr70  1  0.40675405  -0.00636390  0.49495731  1
  Zr  Zr71  1  0.70274425  0.89462280  0.12484997  1
  Zr  Zr72  1  0.80677527  0.40597024  0.72892299  1
  Zr  Zr73  1  -0.01415248  0.39883869  0.26471794  1
  Zr  Zr74  1  0.70119931  0.47225159  0.13929581  1
  Zr  Zr75  1  0.79749669  0.20861939  -0.00964684  1
  Zr  Zr76  1  0.50262476  0.90039083  0.88009832  1
  Zr  Zr77  1  0.90558257  0.90130730  0.38173075  1
  Zr  Zr78  1  0.20427850  0.79791660  0.51513677  1
  Zr  Zr79  1  0.00766833  0.80238721  0.74522275  1
  Ta  Ta80  1  0.40183975  0.77725953  0.49586126  1
  Ta  Ta81  1  0.10708226  0.68221815  0.63596336  1
  Ta  Ta82  1  0.28745113  0.51000807  0.12708572  1
  Ta  Ta83  1  0.79567508  0.19474335  0.50518888  1
  Ta  Ta84  1  0.80940947  0.60317918  0.74426634  1
  Ta  Ta85  1  0.31939376  0.10158872  0.36568037  1
  Ta  Ta86  1  0.40057452  0.41902647  0.49340761  1
  Ta  Ta87  1  0.51198787  0.88260366  0.63052978  1
  Ta  Ta88  1  0.09485959  0.89542121  0.37754514  1
  Ta  Ta89  1  0.47659751  0.51068791  0.62188632  1
  Ta  Ta90  1  0.47443422  0.69327395  0.34850394  1
  Ta  Ta91  1  0.18568367  0.00403082  0.74326896  1
  Ta  Ta92  1  0.60145110  0.78871086  0.25716538  1
  Ta  Ta93  1  0.61701342  0.40032539  -0.00528903  1
  Ta  Ta94  1  0.30172372  0.31012950  0.60121958  1
  Ta  Ta95  1  0.31122458  0.67345943  0.62884832  1
  Ta  Ta96  1  0.01254282  -0.01084462  0.24605908  1
  Ta  Ta97  1  0.90027776  0.49393005  0.86920385  1
  Ta  Ta98  1  0.80723309  0.19292723  0.73374154  1
  Ta  Ta99  1  0.80811843  0.79402157  -0.00676373  1
  Ta  Ta100  1  0.80253007  0.79631053  0.51362868  1
  Ta  Ta101  1  0.20885206  0.60305304  0.49722239  1
  Ta  Ta102  1  0.11788375  0.89305722  0.11815680  1
  Ta  Ta103  1  0.00619097  -0.00324475  0.52352155  1
  Ta  Ta104  1  0.90990890  0.10433774  0.86256776  1
  Ta  Ta105  1  0.18025613  0.40558472  0.01375009  1
  Ta  Ta106  1  0.20356494  0.19997376  0.47625574  1
  Ta  Ta107  1  0.59342530  0.20206856  0.48577015  1
  Ta  Ta108  1  0.00823188  0.19369792  0.73863640  1
  Ta  Ta109  1  0.11524468  0.70874619  0.37745526  1
  Ta  Ta110  1  0.38625079  0.20051013  0.01458820  1
  Ta  Ta111  1  0.31291801  0.30982361  0.37945416  1
  Ta  Ta112  1  0.10090553  0.29475325  0.87262895  1
  Ta  Ta113  1  0.19454988  0.20426876  0.74394326  1
  Ta  Ta114  1  0.70725121  0.49861145  0.86765831  1
  Ta  Ta115  1  -0.00808031  0.18659503  0.26773423  1
  Ta  Ta116  1  0.69702322  0.09958902  0.62160321  1
  Ta  Ta117  1  0.00964808  0.58778753  0.75681769  1
  Ta  Ta118  1  0.88880694  0.29528131  0.39084053  1
  Ta  Ta119  1  0.09012843  0.52461918  0.36970547  1
  Ti  Ti120  1  0.30628518  0.70895903  0.89246086  1
  Ti  Ti121  1  0.60065316  -0.01008440  0.74656299  1
  Ti  Ti122  1  0.49927293  0.30168918  0.37586739  1
  Ti  Ti123  1  0.68503513  0.47920820  0.35617716  1
  Ti  Ti124  1  0.19097302  0.62586000  0.24202158  1
  Ti  Ti125  1  0.39605528  0.61385683  0.01209350  1
  Ti  Ti126  1  0.10273032  0.09338725  0.13692305  1
  Ti  Ti127  1  0.92015747  0.69595001  0.10949250  1
  Ti  Ti128  1  0.41173230  0.80231456  0.01531350  1
  Ti  Ti129  1  -0.00119575  0.18160598  0.49156583  1
  Ti  Ti130  1  0.29239690  0.71847592  0.12431850  1
  Ti  Ti131  1  0.19915370  -0.00351987  0.25760976  1
  Ti  Ti132  1  0.11981322  0.69379405  0.86765586  1
  Ti  Ti133  1  0.92034505  0.89583409  0.10899896  1
  Ti  Ti134  1  0.49758883  0.89132925  0.14399388  1
  Ti  Ti135  1  0.09503274  0.08760228  0.37405089  1
  Ti  Ti136  1  0.61029818  -0.00409039  0.25601258  1
  Ti  Ti137  1  0.09308241  0.51580134  0.13632124  1
  Ti  Ti138  1  0.19612802  0.61573001  0.01184792  1
  Ti  Ti139  1  0.19012512  0.19838795  0.01297750  1
  Ti  Ti140  1  0.38561490  0.38917948  0.23474019  1
  Ti  Ti141  1  0.08858983  0.30155367  0.38213433  1
  Ti  Ti142  1  0.70982285  0.88861358  0.37107476  1
  Ti  Ti143  1  -0.00709193  0.39523534  -0.00414525  1
  Ti  Ti144  1  0.80713719  0.20810575  0.26493476  1
  Ti  Ti145  1  0.60681884  0.80395145  0.77170060  1
  Ti  Ti146  1  0.41542981  0.79142234  0.75666871  1
  Ti  Ti147  1  0.00696438  0.39813850  0.74083037  1
  Ti  Ti148  1  0.60948326  0.79154019  -0.01257202  1
  Ti  Ti149  1  0.90497052  0.69280165  0.87437306  1
  Ti  Ti150  1  0.29844905  0.52411681  0.35908487  1
  Ti  Ti151  1  0.48993229  0.30728420  0.60748626  1
  Ti  Ti152  1  0.49754080  0.69623240  0.62593425  1
  Ti  Ti153  1  0.30150452  0.90734152  0.13022914  1
  Ti  Ti154  1  -0.00150689  0.41559126  0.49344192  1
  Ti  Ti155  1  0.39310490  0.00580936  0.01577364  1
  Ti  Ti156  1  0.02440208  0.79485304  -0.01242965  1
  Ti  Ti157  1  0.10478427  0.50016954  0.61898733  1
  Ti  Ti158  1  0.00460884  0.00534523  0.72953513  1
  Ti  Ti159  1  0.69485389  0.89906151  0.62350822  1
  Mo  Mo160  1  0.91672187  0.51403985  0.62032975  1
  Mo  Mo161  1  0.39276686  0.79667948  0.23234435  1
  Mo  Mo162  1  0.80320791  0.40023869  -0.01181375  1
  Mo  Mo163  1  0.59066451  0.39225589  0.25203347  1
  Mo  Mo164  1  0.09538087  0.48317853  0.87635850  1
  Mo  Mo165  1  0.58310332  0.39692832  0.50050516  1
  Mo  Mo166  1  0.90223791  0.69176653  0.63180767  1
  Mo  Mo167  1  0.49140347  0.49910637  0.88922743  1
  Mo  Mo168  1  0.69961455  0.30272445  0.39112754  1
  Mo  Mo169  1  0.10243124  0.10775003  0.61611520  1
  Mo  Mo170  1  0.37902985  0.60109409  0.23107068  1
  Mo  Mo171  1  0.19410865  0.81086384  0.24526304  1
  Mo  Mo172  1  0.01723148  0.59860200  0.50831488  1
  Mo  Mo173  1  0.80923540  0.61026478  0.52785154  1
  Mo  Mo174  1  0.60063148  0.60326875  0.26044081  1
  Mo  Mo175  1  0.70653622  0.89264478  0.88261101  1
  Mo  Mo176  1  0.19765865  0.59641901  0.75396010  1
  Mo  Mo177  1  0.50067830  0.10402483  0.35905249  1
  Mo  Mo178  1  0.79052797  0.38328340  0.26518235  1
  Mo  Mo179  1  0.39661118  -0.00008090  0.24781648  1
  Mo  Mo180  1  0.10502906  0.70172673  0.11424858  1
  Mo  Mo181  1  0.20887731  0.01008355  0.01293517  1
  Mo  Mo182  1  0.90210376  0.10575223  0.62421904  1
  Mo  Mo183  1  0.39319836  0.60353037  0.49258124  1
  Mo  Mo184  1  0.00455177  0.59977206  0.24580897  1
  Mo  Mo185  1  0.20570356  0.80604019  -0.00230978  1
  Mo  Mo186  1  0.40115914  0.21142692  0.25751270  1
  Mo  Mo187  1  0.71209062  0.69851443  0.87802125  1
  Mo  Mo188  1  0.40337703  0.21027491  0.48630693  1
  Mo  Mo189  1  0.29304394  0.69639601  0.36572674  1
  Mo  Mo190  1  0.29171048  0.49889062  0.61938588  1
  Mo  Mo191  1  0.90997511  0.09824809  0.38129319  1
  Mo  Mo192  1  0.69873549  0.29590552  0.12159898  1
  Mo  Mo193  1  0.48606608  0.71021307  0.88476974  1
  Mo  Mo194  1  0.49385042  0.71120004  0.13353817  1
  Mo  Mo195  1  0.29012823  0.30864310  0.11804556  1
  Mo  Mo196  1  0.11619174  0.90571308  0.87151980  1
  Mo  Mo197  1  0.89721242  0.89433578  0.62955127  1
  Mo  Mo198  1  0.09671932  0.10354309  0.86413597  1
  Mo  Mo199  1  0.10649209  0.90036777  0.63239451  1
