# generated using pymatgen
data_HfZrTaTiMo
_symmetry_space_group_name_H-M   'P 1'
_cell_length_a   15.21302080
_cell_length_b   15.21611076
_cell_length_c   16.84201057
_cell_angle_alpha   90.04224965
_cell_angle_beta   89.99389369
_cell_angle_gamma   89.93489389
_symmetry_Int_Tables_number   1
_chemical_formula_structural   HfZrTaTiMo
_chemical_formula_sum   'Hf40 Zr40 Ta40 Ti40 Mo40'
_cell_volume   3898.63569394
_cell_formula_units_Z   40
loop_
 _symmetry_equiv_pos_site_id
 _symmetry_equiv_pos_as_xyz
  1  'x, y, z'
loop_
 _atom_site_type_symbol
 _atom_site_label
 _atom_site_symmetry_multiplicity
 _atom_site_fract_x
 _atom_site_fract_y
 _atom_site_fract_z
 _atom_site_occupancy
  Hf  Hf0  1  0.49955653  0.48777902  0.11637512  1
  Hf  Hf1  1  0.90324095  0.69215935  0.62613587  1
  Hf  Hf2  1  0.79151291  0.80550247  0.50406230  1
  Hf  Hf3  1  0.79793649  0.61480726  0.25612858  1
  Hf  Hf4  1  0.39314423  0.60097725  0.23800563  1
  Hf  Hf5  1  0.80023215  0.01087853  0.49413747  1
  Hf  Hf6  1  0.81291048  0.78330572  -0.01940772  1
  Hf  Hf7  1  0.48792637  0.52680166  0.64158618  1
  Hf  Hf8  1  0.00086096  0.21147128  0.76037743  1
  Hf  Hf9  1  0.49625631  0.69884011  0.36222997  1
  Hf  Hf10  1  0.09070116  0.49613614  0.61194411  1
  Hf  Hf11  1  0.10572754  0.09429156  0.36495284  1
  Hf  Hf12  1  0.30830687  0.89686595  0.63153276  1
  Hf  Hf13  1  0.58998549  0.40960546  0.50472244  1
  Hf  Hf14  1  0.49029574  0.29228353  0.12642646  1
  Hf  Hf15  1  0.90465201  0.70053699  0.38302760  1
  Hf  Hf16  1  0.20967959  0.80886696  0.49737386  1
  Hf  Hf17  1  0.79647434  0.80697485  0.75641657  1
  Hf  Hf18  1  0.69703039  0.09314206  0.12612261  1
  Hf  Hf19  1  0.80187271  -0.01439250  -0.00977550  1
  Hf  Hf20  1  0.21104371  0.19755863  0.24340946  1
  Hf  Hf21  1  0.90990248  0.08975465  0.11425649  1
  Hf  Hf22  1  0.91590520  0.10592448  0.88704710  1
  Hf  Hf23  1  0.10969552  0.89201976  0.13093602  1
  Hf  Hf24  1  0.41133116  0.78531878  0.50161844  1
  Hf  Hf25  1  0.59813153  0.80342705  0.75524551  1
  Hf  Hf26  1  0.40954343  0.80697199  0.00127228  1
  Hf  Hf27  1  0.19787619  0.00534081  0.75276302  1
  Hf  Hf28  1  -0.01751316  0.38879627  0.23185995  1
  Hf  Hf29  1  0.58923771  0.20090238  0.25192873  1
  Hf  Hf30  1  0.30934277  0.11427715  0.86771773  1
  Hf  Hf31  1  0.00197459  0.00399129  0.49378306  1
  Hf  Hf32  1  0.30408783  0.91136074  0.88056401  1
  Hf  Hf33  1  0.58573297  0.61399562  0.49924191  1
  Hf  Hf34  1  0.50734217  0.68036870  0.88132786  1
  Hf  Hf35  1  0.49312367  0.29294870  0.38410010  1
  Hf  Hf36  1  0.79925887  0.39780816  -0.02018519  1
  Hf  Hf37  1  0.10239950  0.10640685  0.62657191  1
  Hf  Hf38  1  0.51311490  0.69807244  0.11944363  1
  Hf  Hf39  1  0.00517496  0.80893959  -0.01139523  1
  Zr  Zr40  1  0.89304827  0.91339738  0.63414161  1
  Zr  Zr41  1  0.90679455  0.89239451  0.13207318  1
  Zr  Zr42  1  0.39060258  0.81700771  0.23943649  1
  Zr  Zr43  1  0.00714657  0.80185937  0.49807567  1
  Zr  Zr44  1  0.20336769  0.79763519  0.75824749  1
  Zr  Zr45  1  0.60252552  -0.00349790  0.25204266  1
  Zr  Zr46  1  0.60133928  0.19668194  0.73745931  1
  Zr  Zr47  1  0.59150896  0.19064088  -0.00919991  1
  Zr  Zr48  1  0.21214797  0.00238492  0.49604103  1
  Zr  Zr49  1  0.61587595  0.79330506  0.24992050  1
  Zr  Zr50  1  0.29132254  0.49025506  0.62260233  1
  Zr  Zr51  1  0.77850323  0.38878576  0.49147980  1
  Zr  Zr52  1  0.69344491  0.30883785  0.11607266  1
  Zr  Zr53  1  0.80174975  0.39375548  0.76637646  1
  Zr  Zr54  1  0.70701685  0.11503469  0.37657083  1
  Zr  Zr55  1  0.88504846  0.50343701  0.11675483  1
  Zr  Zr56  1  0.48970275  0.31207922  0.63622989  1
  Zr  Zr57  1  0.10690578  0.69657207  0.62953438  1
  Zr  Zr58  1  0.81062674  0.21084958  0.24161146  1
  Zr  Zr59  1  0.08294193  0.29175405  0.36605862  1
  Zr  Zr60  1  0.28464563  0.30117927  0.63239784  1
  Zr  Zr61  1  0.68756100  0.50410745  0.10429255  1
  Zr  Zr62  1  0.20284379  0.57909859  0.75764372  1
  Zr  Zr63  1  0.39462093  0.21056918  -0.00559422  1
  Zr  Zr64  1  0.09818044  0.69271588  0.87513826  1
  Zr  Zr65  1  0.40587770  0.79513998  0.76016566  1
  Zr  Zr66  1  0.89076407  0.49167498  0.62416790  1
  Zr  Zr67  1  0.39989041  0.19492796  0.51191873  1
  Zr  Zr68  1  0.70776790  0.88750540  0.12359576  1
  Zr  Zr69  1  0.77521507  0.40811927  0.26693663  1
  Zr  Zr70  1  0.29358264  0.50536094  0.11535121  1
  Zr  Zr71  1  0.62019850  0.20231556  0.52092310  1
  Zr  Zr72  1  0.21167104  0.60825913  0.49448777  1
  Zr  Zr73  1  0.79933900  0.19807007  -0.00681373  1
  Zr  Zr74  1  0.09854212  0.49989174  0.38393902  1
  Zr  Zr75  1  0.69087338  0.69405115  0.62800610  1
  Zr  Zr76  1  0.18685434  0.40795722  0.23756874  1
  Zr  Zr77  1  0.19199601  0.20779725  0.49624815  1
  Zr  Zr78  1  -0.01489457  0.37111934  0.49773995  1
  Zr  Zr79  1  0.89982458  0.50009753  0.38127129  1
  Ta  Ta80  1  0.21971127  -0.01247243  0.25459623  1
  Ta  Ta81  1  -0.01570478  0.60820332  -0.00500669  1
  Ta  Ta82  1  0.60527888  0.58771574  0.25311009  1
  Ta  Ta83  1  0.29911420  0.50657056  0.36983625  1
  Ta  Ta84  1  0.80431247  0.19833967  0.75879324  1
  Ta  Ta85  1  0.11720198  0.08556447  0.11654982  1
  Ta  Ta86  1  0.00660949  0.78592691  0.25420861  1
  Ta  Ta87  1  0.69949091  0.08099033  0.86180139  1
  Ta  Ta88  1  0.09795406  0.48927281  0.89785301  1
  Ta  Ta89  1  0.41876747  0.00062751  0.74624712  1
  Ta  Ta90  1  0.29229388  0.30937393  0.37552364  1
  Ta  Ta91  1  0.79217949  0.59620597  0.76348172  1
  Ta  Ta92  1  0.30234706  0.69233226  0.88973600  1
  Ta  Ta93  1  0.41045128  -0.01013752  0.50458724  1
  Ta  Ta94  1  0.90463933  0.70093844  0.12782625  1
  Ta  Ta95  1  0.48558390  0.29691189  0.85700258  1
  Ta  Ta96  1  0.30015851  0.91436636  0.11280477  1
  Ta  Ta97  1  0.67788407  0.50705473  0.88679457  1
  Ta  Ta98  1  0.90177886  0.11521732  0.62940439  1
  Ta  Ta99  1  0.00347402  0.80594222  0.75413837  1
  Ta  Ta100  1  0.40790584  0.01687452  0.25119847  1
  Ta  Ta101  1  0.90755758  0.90859723  0.86383001  1
  Ta  Ta102  1  0.71551463  0.69271205  0.11377138  1
  Ta  Ta103  1  0.39370100  0.39242886  0.25433432  1
  Ta  Ta104  1  0.09884196  0.90356107  0.62979442  1
  Ta  Ta105  1  0.37729078  0.40748345  0.76816623  1
  Ta  Ta106  1  0.20092058  0.80750789  -0.00802296  1
  Ta  Ta107  1  0.19566267  0.21335671  0.76279613  1
  Ta  Ta108  1  0.09127584  0.29410109  0.89779956  1
  Ta  Ta109  1  0.08643128  0.30372316  0.62910152  1
  Ta  Ta110  1  0.50079663  0.90190954  0.37874081  1
  Ta  Ta111  1  0.00992588  0.19750078  0.22067603  1
  Ta  Ta112  1  0.48911617  0.49984934  0.37232170  1
  Ta  Ta113  1  0.80897322  -0.00363203  0.25816178  1
  Ta  Ta114  1  0.41340789  0.01292497  -0.00029874  1
  Ta  Ta115  1  0.09111251  0.50472550  0.10225586  1
  Ta  Ta116  1  0.31577903  0.10293134  0.12636215  1
  Ta  Ta117  1  0.50509420  0.09295195  0.38978290  1
  Ta  Ta118  1  0.59409992  0.41057481  0.76109430  1
  Ta  Ta119  1  0.32335960  0.68430212  0.63150524  1
  Ti  Ti120  1  0.38561203  0.41061776  0.49577288  1
  Ti  Ti121  1  0.09946485  0.69595413  0.11741416  1
  Ti  Ti122  1  0.69891596  0.70371218  0.38153914  1
  Ti  Ti123  1  0.39945267  0.39852101  -0.01558155  1
  Ti  Ti124  1  0.00539754  0.59275883  0.24185447  1
  Ti  Ti125  1  0.10712732  0.09044267  0.89454354  1
  Ti  Ti126  1  0.60248804  -0.00333740  -0.00151584  1
  Ti  Ti127  1  -0.00614343  0.59560718  0.75790642  1
  Ti  Ti128  1  0.31013845  0.10341215  0.63969761  1
  Ti  Ti129  1  0.69193567  0.49368780  0.63671367  1
  Ti  Ti130  1  0.19228416  0.61338468  0.24482524  1
  Ti  Ti131  1  0.50512624  0.09923465  0.86068347  1
  Ti  Ti132  1  0.79096485  0.59242584  0.49773441  1
  Ti  Ti133  1  0.81992509  0.20922308  0.50170077  1
  Ti  Ti134  1  0.69993971  0.69385616  0.87651772  1
  Ti  Ti135  1  0.90548676  0.89979445  0.36487680  1
  Ti  Ti136  1  0.51505302  0.91159456  0.87829513  1
  Ti  Ti137  1  0.20194906  0.39286850  0.00534947  1
  Ti  Ti138  1  0.29327084  0.50207847  0.88939720  1
  Ti  Ti139  1  0.11314928  0.88886506  0.36044234  1
  Ti  Ti140  1  0.51169560  0.07871631  0.62299895  1
  Ti  Ti141  1  0.70181077  0.90011811  0.37726586  1
  Ti  Ti142  1  0.39839359  0.59891911  0.00428621  1
  Ti  Ti143  1  0.00064659  0.00641416  0.75247104  1
  Ti  Ti144  1  0.91311561  0.11304541  0.36486702  1
  Ti  Ti145  1  0.58987189  0.40024417  0.26265698  1
  Ti  Ti146  1  0.68234908  0.90814747  0.62118319  1
  Ti  Ti147  1  0.29852226  0.30317093  0.12709888  1
  Ti  Ti148  1  0.90400671  0.50593053  0.88091644  1
  Ti  Ti149  1  0.29546008  0.71261859  0.36247906  1
  Ti  Ti150  1  0.10086415  0.69489348  0.37259835  1
  Ti  Ti151  1  0.68682979  0.29253985  0.87275106  1
  Ti  Ti152  1  0.00893971  -0.00193188  0.25079331  1
  Ti  Ti153  1  0.00493828  0.40286263  0.76149997  1
  Ti  Ti154  1  0.71345323  0.09023620  0.63732791  1
  Ti  Ti155  1  0.50258591  0.91395202  0.12105406  1
  Ti  Ti156  1  0.28703874  0.71214806  0.11369740  1
  Ti  Ti157  1  0.61109210  0.80217055  -0.00689048  1
  Ti  Ti158  1  0.20229450  0.19753178  0.00631140  1
  Ti  Ti159  1  0.31537049  0.10168958  0.37368494  1
  Mo  Mo160  1  -0.00722431  0.60202395  0.50106771  1
  Mo  Mo161  1  0.69757235  0.89632614  0.87919794  1
  Mo  Mo162  1  0.19889156  0.39712785  0.49146194  1
  Mo  Mo163  1  0.39658970  0.20129831  0.25759207  1
  Mo  Mo164  1  0.60533883  -0.00682772  0.74852238  1
  Mo  Mo165  1  0.89028191  0.28389264  0.36510455  1
  Mo  Mo166  1  0.39972124  0.59527663  0.49145297  1
  Mo  Mo167  1  0.60422271  0.59600882  0.75559764  1
  Mo  Mo168  1  0.58269987  0.39207874  -0.02331663  1
  Mo  Mo169  1  0.59632761  0.60726873  0.00190482  1
  Mo  Mo170  1  0.68078062  0.51344061  0.37893978  1
  Mo  Mo171  1  0.80486700  0.00732276  0.75553964  1
  Mo  Mo172  1  0.48766450  0.49552238  0.87867131  1
  Mo  Mo173  1  0.01135763  0.19891213  0.01783449  1
  Mo  Mo174  1  0.90276822  0.69600286  0.85601599  1
  Mo  Mo175  1  0.68770247  0.30320850  0.37641973  1
  Mo  Mo176  1  -0.00743754  0.18829960  0.50126066  1
  Mo  Mo177  1  0.09825861  0.91117411  0.87268218  1
  Mo  Mo178  1  0.30920270  0.90548654  0.37384063  1
  Mo  Mo179  1  0.19975438  0.79144067  0.24682577  1
  Mo  Mo180  1  0.49953858  0.70760727  0.63160179  1
  Mo  Mo181  1  0.39467678  0.59700188  0.76541341  1
  Mo  Mo182  1  0.19607706  0.60558055  0.00038451  1
  Mo  Mo183  1  0.01534902  -0.00510017  -0.00329112  1
  Mo  Mo184  1  0.90997789  0.30540208  0.88553235  1
  Mo  Mo185  1  0.80939352  0.80389578  0.26184173  1
  Mo  Mo186  1  0.50425393  0.89716148  0.62187362  1
  Mo  Mo187  1  0.21308173  0.00416247  -0.00018625  1
  Mo  Mo188  1  0.17623810  0.39300195  0.76400316  1
  Mo  Mo189  1  0.28368457  0.31004146  0.87441066  1
  Mo  Mo190  1  -0.00344213  0.39899985  0.00679171  1
  Mo  Mo191  1  0.60025039  0.81296945  0.49352533  1
  Mo  Mo192  1  0.89352927  0.29517521  0.63446379  1
  Mo  Mo193  1  0.49989555  0.09385437  0.12268641  1
  Mo  Mo194  1  0.90552109  0.29778847  0.10586674  1
  Mo  Mo195  1  0.10646480  0.29717268  0.11059374  1
  Mo  Mo196  1  0.60570939  -0.00648368  0.49815507  1
  Mo  Mo197  1  0.79967434  0.60233600  -0.01696695  1
  Mo  Mo198  1  0.39581683  0.19563192  0.74418629  1
  Mo  Mo199  1  0.71187504  0.30292367  0.63782504  1
