# generated using pymatgen
data_HfZrTaTiMo
_symmetry_space_group_name_H-M   'P 1'
_cell_length_a   15.20909814
_cell_length_b   15.21712520
_cell_length_c   16.83976706
_cell_angle_alpha   90.00138253
_cell_angle_beta   89.92075335
_cell_angle_gamma   89.91238840
_symmetry_Int_Tables_number   1
_chemical_formula_structural   HfZrTaTiMo
_chemical_formula_sum   'Hf40 Zr40 Ta40 Ti40 Mo40'
_cell_volume   3897.36636225
_cell_formula_units_Z   40
loop_
 _symmetry_equiv_pos_site_id
 _symmetry_equiv_pos_as_xyz
  1  'x, y, z'
loop_
 _atom_site_type_symbol
 _atom_site_label
 _atom_site_symmetry_multiplicity
 _atom_site_fract_x
 _atom_site_fract_y
 _atom_site_fract_z
 _atom_site_occupancy
  Hf  Hf0  1  0.90632926  0.52631785  0.87586877  1
  Hf  Hf1  1  0.28923556  0.89871749  0.61292513  1
  Hf  Hf2  1  0.41445690  0.59695286  0.51578339  1
  Hf  Hf3  1  0.79543095  -0.00506689  0.75146204  1
  Hf  Hf4  1  -0.01560986  0.02057259  -0.00003841  1
  Hf  Hf5  1  0.70446441  0.69164961  0.12746026  1
  Hf  Hf6  1  0.60467778  0.59386081  0.75803469  1
  Hf  Hf7  1  0.89345427  0.71274610  0.36964303  1
  Hf  Hf8  1  0.41245963  0.20365252  0.49807511  1
  Hf  Hf9  1  0.49501525  0.10666600  0.62935044  1
  Hf  Hf10  1  0.11606520  0.50047239  0.62073378  1
  Hf  Hf11  1  0.79635431  0.60886820  0.50379619  1
  Hf  Hf12  1  0.59850925  0.80138414  0.25059876  1
  Hf  Hf13  1  0.28372637  0.90537449  0.37450161  1
  Hf  Hf14  1  0.81546817  0.19363557  0.00538782  1
  Hf  Hf15  1  0.71172247  0.50029105  0.12184322  1
  Hf  Hf16  1  0.39092646  0.39644807  0.51503764  1
  Hf  Hf17  1  0.80615635  -0.02415242  0.26164546  1
  Hf  Hf18  1  0.19434887  0.79512794  0.76573172  1
  Hf  Hf19  1  0.59950372  0.78684516  0.49979421  1
  Hf  Hf20  1  0.92133590  0.29111980  0.86933455  1
  Hf  Hf21  1  0.10836080  0.71150672  0.61314812  1
  Hf  Hf22  1  0.31085178  0.69768474  0.88266278  1
  Hf  Hf23  1  0.50803563  0.50081053  0.11314224  1
  Hf  Hf24  1  0.31109231  0.08398581  0.90083737  1
  Hf  Hf25  1  0.58917404  0.00409580  0.76147687  1
  Hf  Hf26  1  0.89320002  0.50491487  0.37408502  1
  Hf  Hf27  1  0.69212534  0.88918370  0.11191490  1
  Hf  Hf28  1  0.69972312  0.49002700  0.61648292  1
  Hf  Hf29  1  0.80146266  0.40360147  0.75523958  1
  Hf  Hf30  1  0.70103531  0.29539606  0.12880165  1
  Hf  Hf31  1  -0.00845479  0.81205128  0.74682615  1
  Hf  Hf32  1  0.39704242  0.80595728  0.74833149  1
  Hf  Hf33  1  -0.01077172  0.82651588  0.25624871  1
  Hf  Hf34  1  0.90668558  0.49449555  0.61817659  1
  Hf  Hf35  1  0.80740000  0.00836147  0.48896058  1
  Hf  Hf36  1  0.12408291  0.10533665  0.60582565  1
  Hf  Hf37  1  0.80912238  0.39805272  -0.00402314  1
  Hf  Hf38  1  0.91683047  0.10359244  0.36127316  1
  Hf  Hf39  1  0.00528360  0.60809807  0.73984330  1
  Zr  Zr40  1  0.29904190  0.69848099  0.36935110  1
  Zr  Zr41  1  0.68929151  0.49488168  0.38636413  1
  Zr  Zr42  1  0.89378939  0.89223863  0.88392340  1
  Zr  Zr43  1  0.22145238  -0.00195292  0.75607798  1
  Zr  Zr44  1  0.49887462  0.29665778  0.36090768  1
  Zr  Zr45  1  0.09009397  0.30081483  0.62125571  1
  Zr  Zr46  1  0.00841648  0.40978645  -0.00393917  1
  Zr  Zr47  1  0.39562673  0.79351979  0.50589501  1
  Zr  Zr48  1  0.00298481  0.02972887  0.74684876  1
  Zr  Zr49  1  0.09218798  0.90874359  0.60841190  1
  Zr  Zr50  1  0.49852913  0.49134396  0.37338253  1
  Zr  Zr51  1  0.68645513  0.88963857  0.88915924  1
  Zr  Zr52  1  0.79709869  0.22363905  0.50796759  1
  Zr  Zr53  1  0.29926158  0.28324936  0.63209428  1
  Zr  Zr54  1  0.19152262  0.19741245  0.76481420  1
  Zr  Zr55  1  0.69523309  0.10059628  0.62041505  1
  Zr  Zr56  1  0.71664068  0.69061013  0.87226173  1
  Zr  Zr57  1  0.39406583  0.80208157  0.23556420  1
  Zr  Zr58  1  -0.01264029  0.39348270  0.49042970  1
  Zr  Zr59  1  0.18425494  0.80163781  0.24029802  1
  Zr  Zr60  1  0.09945725  0.92096556  0.88719323  1
  Zr  Zr61  1  0.50139553  0.68896999  0.36849807  1
  Zr  Zr62  1  0.29213323  0.68653207  0.10990045  1
  Zr  Zr63  1  0.29081995  0.91232915  0.10555752  1
  Zr  Zr64  1  0.70521077  0.08581480  0.13483594  1
  Zr  Zr65  1  0.91629356  0.10127469  0.14878484  1
  Zr  Zr66  1  0.30670484  0.49180958  0.36936060  1
  Zr  Zr67  1  0.89805139  0.69668452  0.13971732  1
  Zr  Zr68  1  0.09956477  0.51338763  0.12372494  1
  Zr  Zr69  1  0.19139138  0.79737704  -0.00853372  1
  Zr  Zr70  1  0.60173946  0.18177099  -0.00396858  1
  Zr  Zr71  1  0.59789202  0.00126302  0.48560701  1
  Zr  Zr72  1  0.80814049  0.19995700  0.73642401  1
  Zr  Zr73  1  0.39910157  0.00428014  0.49395081  1
  Zr  Zr74  1  0.20334551  0.39960103  0.24104632  1
  Zr  Zr75  1  0.50341861  0.48872688  0.63652605  1
  Zr  Zr76  1  0.21507578  0.59627539  0.50146237  1
  Zr  Zr77  1  0.11595791  0.10271115  0.38410143  1
  Zr  Zr78  1  0.47269925  0.90928422  0.88084599  1
  Zr  Zr79  1  0.60062477  0.38895447  -0.00957969  1
  Ta  Ta80  1  0.69840330  0.70053775  0.62949911  1
  Ta  Ta81  1  0.10191814  0.50395526  0.37593620  1
  Ta  Ta82  1  0.20070484  0.59558149  0.76406620  1
  Ta  Ta83  1  0.60121187  0.38657969  0.76528297  1
  Ta  Ta84  1  0.30725473  0.48841649  0.87612495  1
  Ta  Ta85  1  0.01149111  0.40156723  0.75701049  1
  Ta  Ta86  1  0.88960093  0.89854999  0.11268869  1
  Ta  Ta87  1  0.49608059  0.49754226  0.87922489  1
  Ta  Ta88  1  0.20446860  0.40168904  0.76083327  1
  Ta  Ta89  1  0.79897401  0.40407866  0.25124275  1
  Ta  Ta90  1  0.90105851  0.71275294  0.61471274  1
  Ta  Ta91  1  0.39423908  0.19955166  0.22819100  1
  Ta  Ta92  1  0.48644739  0.29023366  0.87855384  1
  Ta  Ta93  1  0.39595652  0.39066793  0.01271019  1
  Ta  Ta94  1  0.29826407  0.29084898  0.36925380  1
  Ta  Ta95  1  0.39722943  0.59047564  0.23068256  1
  Ta  Ta96  1  0.39946079  0.39290828  0.22220278  1
  Ta  Ta97  1  0.89150459  0.91190702  0.61641345  1
  Ta  Ta98  1  0.39881270  0.00551107  0.23625029  1
  Ta  Ta99  1  0.10035323  0.29734923  0.37377764  1
  Ta  Ta100  1  0.59964217  0.36639010  0.50843631  1
  Ta  Ta101  1  0.19822812  0.60235603  0.24967440  1
  Ta  Ta102  1  0.07332205  0.69556307  0.88472445  1
  Ta  Ta103  1  0.69828080  0.29634721  0.36571892  1
  Ta  Ta104  1  0.59464720  -0.00590079  0.25738055  1
  Ta  Ta105  1  0.08275783  0.91247434  0.11297812  1
  Ta  Ta106  1  0.40216639  0.38527161  0.75475154  1
  Ta  Ta107  1  0.00437662  0.60839608  0.49460687  1
  Ta  Ta108  1  0.40420301  0.19720983  0.02404849  1
  Ta  Ta109  1  0.20669629  0.39828625  0.00006101  1
  Ta  Ta110  1  0.00983311  0.60742117  0.26190263  1
  Ta  Ta111  1  0.70309187  0.69247799  0.36310810  1
  Ta  Ta112  1  0.90649901  0.30791172  0.13822137  1
  Ta  Ta113  1  0.50778567  0.70237194  0.88171390  1
  Ta  Ta114  1  0.00117360  0.40371694  0.25549027  1
  Ta  Ta115  1  0.09532338  0.29576667  0.12407285  1
  Ta  Ta116  1  0.50680108  0.70189144  0.11389209  1
  Ta  Ta117  1  0.19284894  0.00496417  0.24199648  1
  Ta  Ta118  1  0.60020080  0.80035862  0.74748800  1
  Ta  Ta119  1  0.11226145  0.10679615  0.11382182  1
  Ti  Ti120  1  0.80959206  0.77484906  -0.00204734  1
  Ti  Ti121  1  0.59907339  0.20018073  0.76379394  1
  Ti  Ti122  1  0.80832571  0.60716004  0.73640572  1
  Ti  Ti123  1  0.59349594  0.19450076  0.23997419  1
  Ti  Ti124  1  0.59872772  0.39631436  0.24269421  1
  Ti  Ti125  1  0.20278463  0.19982190  0.24218712  1
  Ti  Ti126  1  0.78301299  0.00551204  -0.00835636  1
  Ti  Ti127  1  0.39852378  0.59214175  0.75331093  1
  Ti  Ti128  1  0.57991687  -0.00378154  0.00160783  1
  Ti  Ti129  1  -0.01065267  0.81045366  0.49216559  1
  Ti  Ti130  1  -0.00725615  0.19596196  0.50369132  1
  Ti  Ti131  1  0.60766908  0.60392845  -0.00800497  1
  Ti  Ti132  1  0.70278720  0.49601596  0.88108050  1
  Ti  Ti133  1  0.70833428  0.28448142  0.87648005  1
  Ti  Ti134  1  0.08786859  0.91220710  0.38748192  1
  Ti  Ti135  1  0.69673840  0.10896678  0.36785399  1
  Ti  Ti136  1  0.79511769  0.80602540  0.50169853  1
  Ti  Ti137  1  0.08613327  0.70674647  0.11619786  1
  Ti  Ti138  1  0.79963185  0.20424324  0.25143812  1
  Ti  Ti139  1  0.29954921  0.28920515  0.88528390  1
  Ti  Ti140  1  0.50131312  0.90154754  0.62838367  1
  Ti  Ti141  1  0.41253074  0.80650754  0.00854752  1
  Ti  Ti142  1  0.69421080  0.89678466  0.62221439  1
  Ti  Ti143  1  0.79713582  0.79924348  0.74146901  1
  Ti  Ti144  1  0.30633004  0.10442256  0.36603740  1
  Ti  Ti145  1  0.49954045  0.10304990  0.36090731  1
  Ti  Ti146  1  0.59983550  0.59204316  0.24406128  1
  Ti  Ti147  1  0.39846060  0.18014547  0.75892255  1
  Ti  Ti148  1  0.89333391  0.10330623  0.87180211  1
  Ti  Ti149  1  0.18871744  0.58813726  -0.01582235  1
  Ti  Ti150  1  0.40077699  0.59185482  -0.00018871  1
  Ti  Ti151  1  0.29992877  0.68894924  0.63697177  1
  Ti  Ti152  1  0.10317411  0.70997435  0.38318654  1
  Ti  Ti153  1  0.09246150  0.13278928  0.89842865  1
  Ti  Ti154  1  0.70115126  0.88781789  0.37682089  1
  Ti  Ti155  1  0.89866113  0.29898681  0.36251192  1
  Ti  Ti156  1  0.19964573  0.38993468  0.49409433  1
  Ti  Ti157  1  0.48891136  0.89733816  0.36981851  1
  Ti  Ti158  1  0.90361487  0.50842074  0.13252443  1
  Ti  Ti159  1  0.50636988  0.69817234  0.63532181  1
  Mo  Mo160  1  0.20229831  0.21304631  -0.00126786  1
  Mo  Mo161  1  0.79853366  0.59288774  0.25647931  1
  Mo  Mo162  1  -0.00399123  0.00843291  0.50352613  1
  Mo  Mo163  1  0.29460881  0.10411906  0.12276328  1
  Mo  Mo164  1  0.59588025  0.79150903  0.00065067  1
  Mo  Mo165  1  0.60124295  0.19224254  0.48798477  1
  Mo  Mo166  1  0.80538357  0.59012030  0.00143483  1
  Mo  Mo167  1  0.68405117  0.30096637  0.63640894  1
  Mo  Mo168  1  0.40876641  0.00780405  0.02463934  1
  Mo  Mo169  1  0.19035741  0.79802189  0.49133001  1
  Mo  Mo170  1  0.00439099  0.20634260  0.74417937  1
  Mo  Mo171  1  0.29092248  0.29651475  0.11786806  1
  Mo  Mo172  1  0.29897873  0.89358380  0.89445910  1
  Mo  Mo173  1  0.50667114  0.09382102  0.13734757  1
  Mo  Mo174  1  0.51038626  0.29057956  0.64168840  1
  Mo  Mo175  1  0.89778281  0.70709649  0.86625218  1
  Mo  Mo176  1  0.79380780  0.39582789  0.49665733  1
  Mo  Mo177  1  -0.00756167  0.61470593  0.00451891  1
  Mo  Mo178  1  0.10614170  0.50538417  0.87456560  1
  Mo  Mo179  1  -0.00825639  0.80521874  0.00637500  1
  Mo  Mo180  1  0.39687285  0.00035056  0.74459444  1
  Mo  Mo181  1  0.50512416  0.29688574  0.12860083  1
  Mo  Mo182  1  0.70317477  0.09786456  0.87415228  1
  Mo  Mo183  1  0.21641528  0.20936437  0.48857797  1
  Mo  Mo184  1  0.20686017  0.00293921  0.48906825  1
  Mo  Mo185  1  0.91366749  0.10241509  0.61683705  1
  Mo  Mo186  1  0.60168335  0.60363061  0.50985089  1
  Mo  Mo187  1  0.11083802  0.31087972  0.87757959  1
  Mo  Mo188  1  0.01401677  0.00022391  0.24646479  1
  Mo  Mo189  1  0.89760621  0.30589533  0.63529394  1
  Mo  Mo190  1  0.01587185  0.21247078  0.25152590  1
  Mo  Mo191  1  0.30563188  0.09602155  0.62366059  1
  Mo  Mo192  1  0.30300379  0.49824676  0.65230188  1
  Mo  Mo193  1  0.19319677  0.01062904  0.00104238  1
  Mo  Mo194  1  0.79098029  0.80114836  0.25178370  1
  Mo  Mo195  1  0.50211399  0.89979655  0.12639952  1
  Mo  Mo196  1  0.89935353  0.90485461  0.38911146  1
  Mo  Mo197  1  0.29994839  0.50262414  0.11457033  1
  Mo  Mo198  1  0.49798910  0.10777349  0.87898249  1
  Mo  Mo199  1  -0.00130777  0.21291257  0.00888333  1
