# generated using pymatgen
data_HfZrTaTiMo
_symmetry_space_group_name_H-M   'P 1'
_cell_length_a   15.20158849
_cell_length_b   15.20168030
_cell_length_c   16.87535576
_cell_angle_alpha   90.00076773
_cell_angle_beta   89.99388842
_cell_angle_gamma   89.87655837
_symmetry_Int_Tables_number   1
_chemical_formula_structural   HfZrTaTiMo
_chemical_formula_sum   'Hf40 Zr40 Ta40 Ti40 Mo40'
_cell_volume   3899.71162940
_cell_formula_units_Z   40
loop_
 _symmetry_equiv_pos_site_id
 _symmetry_equiv_pos_as_xyz
  1  'x, y, z'
loop_
 _atom_site_type_symbol
 _atom_site_label
 _atom_site_symmetry_multiplicity
 _atom_site_fract_x
 _atom_site_fract_y
 _atom_site_fract_z
 _atom_site_occupancy
  Hf  Hf0  1  0.39352910  0.39327581  0.00161667  1
  Hf  Hf1  1  0.70242646  0.71463091  0.87850379  1
  Hf  Hf2  1  0.00237106  0.60327832  0.24051055  1
  Hf  Hf3  1  0.49810894  0.28500653  0.87852492  1
  Hf  Hf4  1  -0.01200570  0.59667587  0.48460970  1
  Hf  Hf5  1  0.10261134  0.09524041  0.37705500  1
  Hf  Hf6  1  0.90466264  0.49897718  0.35300171  1
  Hf  Hf7  1  0.60235326  0.00837730  0.26108851  1
  Hf  Hf8  1  0.02835181  0.59528865  0.02107899  1
  Hf  Hf9  1  0.30163972  0.72263434  0.61526931  1
  Hf  Hf10  1  0.89308949  0.89290010  0.86511161  1
  Hf  Hf11  1  0.79471727  0.18269703  -0.00416746  1
  Hf  Hf12  1  0.30703502  0.51904834  0.88298359  1
  Hf  Hf13  1  0.88717671  0.67929503  0.61782663  1
  Hf  Hf14  1  0.20143149  0.20315727  0.24482120  1
  Hf  Hf15  1  0.68812861  0.50547500  0.12473599  1
  Hf  Hf16  1  0.72260577  0.51279423  0.62844452  1
  Hf  Hf17  1  -0.01258324  0.40798709  0.75058192  1
  Hf  Hf18  1  0.49846861  0.68434285  0.88419952  1
  Hf  Hf19  1  0.39998319  0.79627203  0.01145888  1
  Hf  Hf20  1  0.08995562  0.10803578  0.11270183  1
  Hf  Hf21  1  0.90122997  0.10415883  0.62163237  1
  Hf  Hf22  1  0.80796630  0.42504986  0.49724430  1
  Hf  Hf23  1  0.71274223  0.90195517  0.13351972  1
  Hf  Hf24  1  0.09449462  0.89738244  0.11499409  1
  Hf  Hf25  1  0.09731573  0.29329486  0.62453723  1
  Hf  Hf26  1  -0.00212091  -0.00469678  0.24792229  1
  Hf  Hf27  1  0.59929687  0.20988202  0.25427064  1
  Hf  Hf28  1  0.19297107  0.81093846  0.75416705  1
  Hf  Hf29  1  0.49722827  0.28602490  0.60833096  1
  Hf  Hf30  1  0.20336189  0.00360604  -0.00433873  1
  Hf  Hf31  1  -0.01037367  0.19365627  0.24774904  1
  Hf  Hf32  1  0.79022756  0.21469884  0.74791571  1
  Hf  Hf33  1  0.19145441  0.41826917  0.00419525  1
  Hf  Hf34  1  0.60892437  -0.02763429  0.49831813  1
  Hf  Hf35  1  0.49957210  0.10582359  0.12525798  1
  Hf  Hf36  1  0.61796569  0.39647764  0.75772177  1
  Hf  Hf37  1  0.60342756  0.78501256  0.24775098  1
  Hf  Hf38  1  0.92764646  0.49729865  0.89795835  1
  Hf  Hf39  1  0.00176833  -0.01683168  0.50641675  1
  Zr  Zr40  1  0.19521775  0.20749723  0.76011349  1
  Zr  Zr41  1  0.21039314  0.41428861  0.49159672  1
  Zr  Zr42  1  0.09338911  0.51222708  0.62471315  1
  Zr  Zr43  1  0.19980432  -0.02056764  0.50882151  1
  Zr  Zr44  1  0.69402499  0.70638122  0.39015374  1
  Zr  Zr45  1  0.19517767  0.41008978  0.76431256  1
  Zr  Zr46  1  0.20109138  0.61253698  0.48753039  1
  Zr  Zr47  1  0.60410269  0.61521778  0.74453600  1
  Zr  Zr48  1  0.79111177  0.61760226  0.24375177  1
  Zr  Zr49  1  0.31113117  0.30225861  0.37460675  1
  Zr  Zr50  1  0.19694175  0.61367419  0.74908730  1
  Zr  Zr51  1  0.20640902  0.00816176  0.75328671  1
  Zr  Zr52  1  0.48521527  0.89349326  0.36010504  1
  Zr  Zr53  1  0.51212558  0.89234352  0.87209909  1
  Zr  Zr54  1  0.79632459  0.38366549  0.23847391  1
  Zr  Zr55  1  0.90308138  0.29319176  0.88569478  1
  Zr  Zr56  1  0.89304613  0.28971064  0.37624264  1
  Zr  Zr57  1  0.79097437  0.00235760  0.74161810  1
  Zr  Zr58  1  0.40469332  0.39804259  0.76103783  1
  Zr  Zr59  1  0.30168505  0.31148872  0.62054859  1
  Zr  Zr60  1  0.00836521  0.39968883  0.49607931  1
  Zr  Zr61  1  0.90579693  0.27951617  0.10953737  1
  Zr  Zr62  1  0.80119597  0.60654500  -0.00199711  1
  Zr  Zr63  1  0.50563395  0.49126259  0.62540796  1
  Zr  Zr64  1  0.10065356  0.30397405  0.36973001  1
  Zr  Zr65  1  0.49666973  0.90471008  0.13522028  1
  Zr  Zr66  1  0.30358032  0.10962937  0.61829264  1
  Zr  Zr67  1  0.70259178  0.10601207  0.39420006  1
  Zr  Zr68  1  0.30811288  0.90714004  0.88154181  1
  Zr  Zr69  1  0.89146360  0.08436663  0.39079927  1
  Zr  Zr70  1  0.82586718  0.59456724  0.77113845  1
  Zr  Zr71  1  0.69367448  0.50621807  0.36649544  1
  Zr  Zr72  1  0.59245284  0.18688531  0.74092732  1
  Zr  Zr73  1  0.59004314  0.41589356  -0.00797840  1
  Zr  Zr74  1  0.89993824  0.71874671  0.12369038  1
  Zr  Zr75  1  0.90207946  0.88392513  0.63206710  1
  Zr  Zr76  1  0.09984927  0.70639168  0.35959561  1
  Zr  Zr77  1  0.08959583  0.10710509  0.88390453  1
  Zr  Zr78  1  0.69014297  0.30546794  0.39448721  1
  Zr  Zr79  1  0.39581241  -0.02858311  0.50485063  1
  Ta  Ta80  1  0.49556316  0.30053236  0.12178113  1
  Ta  Ta81  1  0.40950708  -0.00279281  0.73991402  1
  Ta  Ta82  1  0.49861900  0.49322569  0.37091847  1
  Ta  Ta83  1  0.59525189  0.59182133  0.50357358  1
  Ta  Ta84  1  0.68954422  0.29393443  0.11381261  1
  Ta  Ta85  1  0.41650139  0.59039239  0.02049487  1
  Ta  Ta86  1  0.30446349  0.08797992  0.37488466  1
  Ta  Ta87  1  -0.00621650  0.77697536  0.75935613  1
  Ta  Ta88  1  0.72380328  0.90027547  0.36823347  1
  Ta  Ta89  1  0.68577650  0.09753330  0.87322922  1
  Ta  Ta90  1  0.11610679  0.70807727  0.13665259  1
  Ta  Ta91  1  0.01335070  0.39247928  0.22791292  1
  Ta  Ta92  1  0.30766950  0.51388049  0.62485304  1
  Ta  Ta93  1  0.09340757  0.89044152  0.88551466  1
  Ta  Ta94  1  0.69722691  0.30774439  0.60677179  1
  Ta  Ta95  1  0.40147276  0.79269414  0.75381130  1
  Ta  Ta96  1  0.49271333  0.08857906  0.87728476  1
  Ta  Ta97  1  0.49850788  0.87120862  0.62936269  1
  Ta  Ta98  1  0.60381779  0.79975094  0.01037762  1
  Ta  Ta99  1  0.50193421  0.08578270  0.60691107  1
  Ta  Ta100  1  0.89110837  0.31132496  0.62463273  1
  Ta  Ta101  1  0.49429725  0.10449516  0.39205831  1
  Ta  Ta102  1  0.19901266  0.19597867  0.49564624  1
  Ta  Ta103  1  0.29331771  0.89967970  0.12354638  1
  Ta  Ta104  1  0.79801862  0.39923117  0.00724910  1
  Ta  Ta105  1  0.40331744  0.60602919  0.49576163  1
  Ta  Ta106  1  0.30985779  0.50074297  0.14186717  1
  Ta  Ta107  1  0.20561476  -0.00255258  0.24429048  1
  Ta  Ta108  1  0.60553623  -0.00030812  0.00153474  1
  Ta  Ta109  1  0.39966170  0.60464220  0.74760284  1
  Ta  Ta110  1  0.69975607  0.10213516  0.60419619  1
  Ta  Ta111  1  0.01004243  -0.01195432  0.74827303  1
  Ta  Ta112  1  0.48817728  0.68347316  0.36423101  1
  Ta  Ta113  1  0.30082355  0.69683457  0.12992287  1
  Ta  Ta114  1  0.80053021  0.81369046  -0.00231519  1
  Ta  Ta115  1  0.30498097  0.09991973  0.12661908  1
  Ta  Ta116  1  0.08932496  0.71638133  0.61825374  1
  Ta  Ta117  1  0.09962815  0.68752662  0.88566865  1
  Ta  Ta118  1  0.20909096  0.20958052  0.00306601  1
  Ta  Ta119  1  0.90247548  0.49507395  0.12250726  1
  Ti  Ti120  1  0.69674940  0.90707858  0.87048320  1
  Ti  Ti121  1  0.69945188  0.50412046  0.87980855  1
  Ti  Ti122  1  0.79836527  0.81450865  0.50265518  1
  Ti  Ti123  1  0.40649854  0.41189307  0.49471510  1
  Ti  Ti124  1  0.81104824  -0.00217847  0.24782952  1
  Ti  Ti125  1  0.68018750  0.72149564  0.60957858  1
  Ti  Ti126  1  0.70240833  0.30074055  0.88550436  1
  Ti  Ti127  1  0.40488376  0.19416014  0.25622745  1
  Ti  Ti128  1  0.59279966  0.19440629  -0.00055573  1
  Ti  Ti129  1  0.29918562  0.30048456  0.12892651  1
  Ti  Ti130  1  0.60025786  -0.00951601  0.73393554  1
  Ti  Ti131  1  0.79441485  -0.00317054  -0.00323231  1
  Ti  Ti132  1  0.39571731  0.18864514  0.75173584  1
  Ti  Ti133  1  0.56104967  0.78481973  0.49375154  1
  Ti  Ti134  1  0.69374751  0.70167550  0.11759980  1
  Ti  Ti135  1  0.29584929  0.70818248  0.88865392  1
  Ti  Ti136  1  -0.01999793  0.00128277  -0.00160948  1
  Ti  Ti137  1  0.11544327  0.49907005  0.34895393  1
  Ti  Ti138  1  0.69947976  0.09910999  0.12476205  1
  Ti  Ti139  1  0.38884169  0.79931691  0.24016989  1
  Ti  Ti140  1  0.09811993  0.09536560  0.62618308  1
  Ti  Ti141  1  0.79336985  0.18700173  0.24272866  1
  Ti  Ti142  1  -0.01131696  0.80972277  0.24999746  1
  Ti  Ti143  1  0.10869545  0.89427592  0.36736083  1
  Ti  Ti144  1  -0.00370175  0.19584626  0.74883327  1
  Ti  Ti145  1  0.88882453  0.71564528  0.37329324  1
  Ti  Ti146  1  0.78166578  0.79462422  0.74092010  1
  Ti  Ti147  1  0.59349928  0.40075582  0.24334395  1
  Ti  Ti148  1  0.00104613  0.19814023  0.50219052  1
  Ti  Ti149  1  0.50246133  0.29782372  0.39184334  1
  Ti  Ti150  1  0.29724219  0.29140232  0.88125198  1
  Ti  Ti151  1  0.89411056  0.09439446  0.86574525  1
  Ti  Ti152  1  0.40629688  0.39264654  0.24858516  1
  Ti  Ti153  1  -0.00285229  0.79878395  -0.00257990  1
  Ti  Ti154  1  0.40345399  0.00935275  0.00209175  1
  Ti  Ti155  1  0.12526283  0.50321054  0.14597959  1
  Ti  Ti156  1  0.00600967  0.79683808  0.49251244  1
  Ti  Ti157  1  0.08854454  0.31324084  0.89377780  1
  Ti  Ti158  1  0.31135846  0.51763997  0.35171248  1
  Ti  Ti159  1  0.30034428  0.71920546  0.36783034  1
  Mo  Mo160  1  0.39396316  0.19400771  0.49156575  1
  Mo  Mo161  1  0.21084136  0.40097398  0.24652243  1
  Mo  Mo162  1  0.50128617  0.50229379  0.87085911  1
  Mo  Mo163  1  0.90105752  0.49725340  0.62632970  1
  Mo  Mo164  1  0.19281000  0.80674336  0.49717315  1
  Mo  Mo165  1  0.00270815  0.19184587  -0.00390623  1
  Mo  Mo166  1  0.80218694  -0.00960359  0.51012576  1
  Mo  Mo167  1  0.00781068  0.60284411  0.75566508  1
  Mo  Mo168  1  0.19924778  0.80832978  0.24264985  1
  Mo  Mo169  1  0.79489888  0.39781711  0.75813281  1
  Mo  Mo170  1  0.80727294  0.20802481  0.51438349  1
  Mo  Mo171  1  0.30573096  0.89986831  0.63821893  1
  Mo  Mo172  1  0.39251214  0.01098412  0.24957090  1
  Mo  Mo173  1  0.59534355  0.19399613  0.50622490  1
  Mo  Mo174  1  0.59948702  0.80361668  0.74848042  1
  Mo  Mo175  1  0.50550342  0.69306553  0.12524939  1
  Mo  Mo176  1  0.49830375  0.49067188  0.13662022  1
  Mo  Mo177  1  0.19400434  0.79290244  0.00007364  1
  Mo  Mo178  1  0.10738179  0.50316393  0.88258145  1
  Mo  Mo179  1  0.21371016  0.60754236  0.25610434  1
  Mo  Mo180  1  0.28959569  0.89737918  0.36016815  1
  Mo  Mo181  1  0.88673432  0.08368126  0.12221569  1
  Mo  Mo182  1  0.90808629  0.88965946  0.37892386  1
  Mo  Mo183  1  0.09856027  0.89135826  0.63312481  1
  Mo  Mo184  1  0.21906881  0.61153886  0.01083720  1
  Mo  Mo185  1  0.80401898  0.81055259  0.25244759  1
  Mo  Mo186  1  0.00751098  0.39879093  0.02647952  1
  Mo  Mo187  1  0.31307648  0.11073692  0.88058028  1
  Mo  Mo188  1  0.39638827  0.19709924  0.00368973  1
  Mo  Mo189  1  0.49239479  0.69025416  0.62130938  1
  Mo  Mo190  1  0.69197975  0.89507510  0.62122439  1
  Mo  Mo191  1  0.79644145  0.61548052  0.49291333  1
  Mo  Mo192  1  0.10884826  0.30103173  0.11976625  1
  Mo  Mo193  1  0.59879351  0.60818115  0.00054188  1
  Mo  Mo194  1  0.41277961  0.60468538  0.24022043  1
  Mo  Mo195  1  0.90220369  0.91021030  0.11646504  1
  Mo  Mo196  1  0.59312057  0.59445639  0.25052109  1
  Mo  Mo197  1  0.38499607  0.79205300  0.48926620  1
  Mo  Mo198  1  0.59623834  0.40743038  0.50070076  1
  Mo  Mo199  1  0.91207730  0.70664072  0.89038054  1
