# generated using pymatgen
data_HfZrTaTiMo
_symmetry_space_group_name_H-M   'P 1'
_cell_length_a   15.20786350
_cell_length_b   15.21228435
_cell_length_c   16.84153103
_cell_angle_alpha   90.04048830
_cell_angle_beta   90.02228320
_cell_angle_gamma   89.97868536
_symmetry_Int_Tables_number   1
_chemical_formula_structural   HfZrTaTiMo
_chemical_formula_sum   'Hf40 Zr40 Ta40 Ti40 Mo40'
_cell_volume   3896.22509392
_cell_formula_units_Z   40
loop_
 _symmetry_equiv_pos_site_id
 _symmetry_equiv_pos_as_xyz
  1  'x, y, z'
loop_
 _atom_site_type_symbol
 _atom_site_label
 _atom_site_symmetry_multiplicity
 _atom_site_fract_x
 _atom_site_fract_y
 _atom_site_fract_z
 _atom_site_occupancy
  Hf  Hf0  1  0.00630051  0.03627956  0.49323109  1
  Hf  Hf1  1  0.00474136  0.42236009  0.00225179  1
  Hf  Hf2  1  0.09770215  0.31089251  0.14023635  1
  Hf  Hf3  1  0.50715389  0.48017356  0.88555182  1
  Hf  Hf4  1  0.40055731  0.18510596  0.00432787  1
  Hf  Hf5  1  0.69305340  0.10087488  0.62297595  1
  Hf  Hf6  1  0.70003743  0.10947471  0.88648654  1
  Hf  Hf7  1  0.50020704  0.68907837  0.11865607  1
  Hf  Hf8  1  0.62276342  0.58846957  -0.00165767  1
  Hf  Hf9  1  0.90538139  0.10591047  0.89528564  1
  Hf  Hf10  1  0.78488851  0.41577884  0.76676147  1
  Hf  Hf11  1  0.19609331  0.59474998  0.75483971  1
  Hf  Hf12  1  0.21151936  0.40942789  0.01482117  1
  Hf  Hf13  1  0.18758955  0.80421269  0.00545173  1
  Hf  Hf14  1  0.10763644  0.10842015  0.89109782  1
  Hf  Hf15  1  -0.00341483  0.00048732  0.74845598  1
  Hf  Hf16  1  0.10413191  0.91377732  0.37953667  1
  Hf  Hf17  1  0.80340437  0.79840422  -0.00161749  1
  Hf  Hf18  1  0.49293048  0.09188733  0.86489766  1
  Hf  Hf19  1  0.40185001  -0.00288511  0.25111653  1
  Hf  Hf20  1  0.10265532  0.50194330  0.61674063  1
  Hf  Hf21  1  0.59341843  -0.00051220  0.00092589  1
  Hf  Hf22  1  0.59689802  0.21177141  0.75391175  1
  Hf  Hf23  1  0.50036746  0.88832124  0.12631260  1
  Hf  Hf24  1  0.39130119  0.19617744  0.49055946  1
  Hf  Hf25  1  0.39339756  -0.01346295  0.00721268  1
  Hf  Hf26  1  0.68736513  0.11172493  0.11296391  1
  Hf  Hf27  1  0.90765903  0.69963800  0.13621295  1
  Hf  Hf28  1  0.08875497  0.10551975  0.12734487  1
  Hf  Hf29  1  0.49953980  0.88496357  0.87025376  1
  Hf  Hf30  1  0.01027490  0.79612436  0.50971689  1
  Hf  Hf31  1  0.91050937  0.71269960  0.86548865  1
  Hf  Hf32  1  0.79939347  0.80362555  0.25031859  1
  Hf  Hf33  1  0.69477634  0.29994881  0.37957404  1
  Hf  Hf34  1  0.20682500  0.39055488  0.75131663  1
  Hf  Hf35  1  0.91688622  0.89986466  0.12699941  1
  Hf  Hf36  1  0.40902371  0.38732249  0.24648492  1
  Hf  Hf37  1  0.90359830  0.90449389  0.37914149  1
  Hf  Hf38  1  0.38915401  0.59112376  0.48234079  1
  Hf  Hf39  1  0.79266646  0.00878021  0.75475869  1
  Zr  Zr40  1  0.70123397  0.90579859  0.37500079  1
  Zr  Zr41  1  0.28643645  0.68439201  0.61999245  1
  Zr  Zr42  1  0.71080541  0.29741396  0.61939169  1
  Zr  Zr43  1  0.58675678  0.60283068  0.51129525  1
  Zr  Zr44  1  0.60670515  0.80284767  0.51277389  1
  Zr  Zr45  1  0.41194391  0.78743304  0.50189375  1
  Zr  Zr46  1  0.20696230  0.00061972  0.01144504  1
  Zr  Zr47  1  0.90355666  0.11927073  0.63071498  1
  Zr  Zr48  1  0.80993205  0.78738808  0.50548483  1
  Zr  Zr49  1  0.79264511  0.20165399  0.24054162  1
  Zr  Zr50  1  0.70676208  0.89843196  0.12090265  1
  Zr  Zr51  1  0.30256704  0.70239026  0.87086237  1
  Zr  Zr52  1  -0.01906393  0.59637253  0.48261421  1
  Zr  Zr53  1  0.39797276  0.58974791  0.26174055  1
  Zr  Zr54  1  0.88971488  0.50195592  0.62750182  1
  Zr  Zr55  1  0.19970154  0.01392026  0.75221091  1
  Zr  Zr56  1  0.41588998  0.38932050  0.74402333  1
  Zr  Zr57  1  0.71782440  0.50204660  0.38476135  1
  Zr  Zr58  1  0.81346061  0.81021653  0.74673350  1
  Zr  Zr59  1  0.39218474  -0.00904675  0.74465785  1
  Zr  Zr60  1  0.10527318  0.30380760  0.88791503  1
  Zr  Zr61  1  0.59848848  0.58197069  0.74790159  1
  Zr  Zr62  1  0.09220534  0.88972572  0.86639924  1
  Zr  Zr63  1  0.29789455  0.29559847  0.61080528  1
  Zr  Zr64  1  0.69941007  0.69748468  0.37686174  1
  Zr  Zr65  1  0.00105086  0.40249755  0.75981981  1
  Zr  Zr66  1  0.51392328  0.48210824  0.12185529  1
  Zr  Zr67  1  0.00414101  0.39162366  0.48761714  1
  Zr  Zr68  1  0.49082435  0.10993619  0.62533769  1
  Zr  Zr69  1  0.49852654  0.68688472  0.88003108  1
  Zr  Zr70  1  0.20279699  0.79759327  0.50031054  1
  Zr  Zr71  1  0.90372295  0.30539788  0.35205000  1
  Zr  Zr72  1  0.78924972  0.42079691  -0.00089708  1
  Zr  Zr73  1  0.19849964  -0.00192386  0.24320659  1
  Zr  Zr74  1  0.89675298  0.30285956  0.88815658  1
  Zr  Zr75  1  0.60297882  0.00444553  0.24900232  1
  Zr  Zr76  1  0.39833568  0.78720125  0.26156006  1
  Zr  Zr77  1  0.19245342  0.60035823  -0.00801411  1
  Zr  Zr78  1  0.90690792  0.50523627  0.14273198  1
  Zr  Zr79  1  0.51097717  0.90733529  0.63059004  1
  Ta  Ta80  1  0.18615272  0.59452164  0.47358951  1
  Ta  Ta81  1  0.58741686  0.20691298  0.25088369  1
  Ta  Ta82  1  0.29547973  0.29662025  0.37066541  1
  Ta  Ta83  1  0.69234310  0.49266525  0.61973815  1
  Ta  Ta84  1  0.40110303  0.78555111  0.73552138  1
  Ta  Ta85  1  0.51294063  0.49035060  0.37001619  1
  Ta  Ta86  1  0.81492735  0.19902726  0.49067822  1
  Ta  Ta87  1  0.39609109  0.19270931  0.25663165  1
  Ta  Ta88  1  0.30383250  0.90072992  0.38114075  1
  Ta  Ta89  1  0.27670322  0.09863907  0.61151545  1
  Ta  Ta90  1  0.20011182  0.39913370  0.48241027  1
  Ta  Ta91  1  0.90587338  0.91164400  0.61524276  1
  Ta  Ta92  1  0.29978075  0.89660914  0.87160391  1
  Ta  Ta93  1  0.20796954  0.20874964  0.01743929  1
  Ta  Ta94  1  0.70857723  0.68940216  0.63716106  1
  Ta  Ta95  1  0.00554865  -0.01382753  0.00397641  1
  Ta  Ta96  1  0.09705144  0.71459621  0.13850319  1
  Ta  Ta97  1  0.09789983  0.28708189  0.62308350  1
  Ta  Ta98  1  0.60295983  0.79111009  -0.00433849  1
  Ta  Ta99  1  0.50320515  0.89708879  0.37885216  1
  Ta  Ta100  1  0.50164013  0.10033753  0.38036268  1
  Ta  Ta101  1  0.10330209  0.29342322  0.34634537  1
  Ta  Ta102  1  0.37240779  0.19338852  0.75335124  1
  Ta  Ta103  1  0.80714224  0.01226712  0.24848990  1
  Ta  Ta104  1  0.60417460  0.79782592  0.74477930  1
  Ta  Ta105  1  0.61047899  0.58838747  0.24805383  1
  Ta  Ta106  1  0.28884236  0.68329327  0.12936731  1
  Ta  Ta107  1  0.68366370  0.31869377  0.12298200  1
  Ta  Ta108  1  0.19689173  0.79191519  0.26384562  1
  Ta  Ta109  1  0.30590117  0.48890133  0.87544446  1
  Ta  Ta110  1  0.17273738  0.19642646  0.48476055  1
  Ta  Ta111  1  0.59506129  0.39832506  0.50173684  1
  Ta  Ta112  1  0.59931601  0.00883589  0.49549906  1
  Ta  Ta113  1  0.39889750  0.58658107  0.74098933  1
  Ta  Ta114  1  -0.00180211  0.59936311  0.75473716  1
  Ta  Ta115  1  0.50102735  0.29504883  0.38152538  1
  Ta  Ta116  1  0.89178907  0.09898649  0.10467190  1
  Ta  Ta117  1  0.39600042  -0.00337565  0.49541776  1
  Ta  Ta118  1  0.79996121  0.00543951  0.50202105  1
  Ta  Ta119  1  0.11196602  0.52377886  0.14533205  1
  Ti  Ti120  1  0.50698210  0.30246322  0.61361858  1
  Ti  Ti121  1  0.10929290  0.92631578  0.61322899  1
  Ti  Ti122  1  0.39137224  0.78890169  0.00483295  1
  Ti  Ti123  1  0.21563749  0.40725867  0.24534757  1
  Ti  Ti124  1  0.70798837  0.90429714  0.62829310  1
  Ti  Ti125  1  0.90463771  0.69441615  0.35789076  1
  Ti  Ti126  1  0.28186690  0.09737626  0.37363736  1
  Ti  Ti127  1  0.29171245  0.87904519  0.13388363  1
  Ti  Ti128  1  -0.00741632  0.01194715  0.25464849  1
  Ti  Ti129  1  0.89617082  0.90932868  0.88815908  1
  Ti  Ti130  1  0.81454963  0.60463389  -0.00866962  1
  Ti  Ti131  1  0.49402386  0.28980112  0.88428777  1
  Ti  Ti132  1  0.30071873  0.49063332  0.61488199  1
  Ti  Ti133  1  0.40118399  0.40204455  0.49108926  1
  Ti  Ti134  1  0.38948281  0.58294035  0.00694050  1
  Ti  Ti135  1  0.02048547  0.79839416  0.71945444  1
  Ti  Ti136  1  0.08990263  0.49257957  0.35244679  1
  Ti  Ti137  1  0.30040641  0.28825800  0.88035837  1
  Ti  Ti138  1  0.59419105  0.78736492  0.25396892  1
  Ti  Ti139  1  0.10032172  0.70368058  0.86645726  1
  Ti  Ti140  1  0.69774219  0.90095942  0.87607672  1
  Ti  Ti141  1  0.89988206  0.29897920  0.12610979  1
  Ti  Ti142  1  0.30393274  0.10889406  0.13591342  1
  Ti  Ti143  1  0.20554626  0.80517866  0.73515889  1
  Ti  Ti144  1  0.70144812  0.10574920  0.37963496  1
  Ti  Ti145  1  0.30069781  0.90367920  0.61490718  1
  Ti  Ti146  1  0.81092524  0.40387294  0.49745650  1
  Ti  Ti147  1  0.78674415  0.41253656  0.24311354  1
  Ti  Ti148  1  0.90311958  0.69423842  0.63169520  1
  Ti  Ti149  1  0.00940179  0.20161687  0.75602590  1
  Ti  Ti150  1  0.90469825  0.30551909  0.62754634  1
  Ti  Ti151  1  0.70417890  0.69128085  0.12890345  1
  Ti  Ti152  1  0.39663105  0.38594161  0.01284405  1
  Ti  Ti153  1  0.50024000  0.27769481  0.12100641  1
  Ti  Ti154  1  0.20622656  0.60446336  0.27215506  1
  Ti  Ti155  1  0.00463584  0.61629917  -0.00492152  1
  Ti  Ti156  1  0.67957988  0.31683296  0.88579948  1
  Ti  Ti157  1  0.80678446  0.21159840  0.75998737  1
  Ti  Ti158  1  0.79031400  0.21580074  0.00679962  1
  Ti  Ti159  1  0.70533050  0.69756196  0.86378675  1
  Mo  Mo160  1  0.09059957  0.11538136  0.35454565  1
  Mo  Mo161  1  0.20532316  0.00896731  0.49261550  1
  Mo  Mo162  1  0.49572526  0.09896118  0.13187373  1
  Mo  Mo163  1  0.29659714  0.69893905  0.38051103  1
  Mo  Mo164  1  0.09459735  0.70530503  0.36916411  1
  Mo  Mo165  1  0.70621244  0.50740762  0.13124429  1
  Mo  Mo166  1  0.80025332  0.60617493  0.75400544  1
  Mo  Mo167  1  0.79622170  0.59672437  0.51061585  1
  Mo  Mo168  1  0.00299501  0.79298678  -0.00060355  1
  Mo  Mo169  1  -0.01039972  0.19321790  0.23411827  1
  Mo  Mo170  1  0.89009383  0.10208429  0.37078998  1
  Mo  Mo171  1  0.29521293  0.48525157  0.37404904  1
  Mo  Mo172  1  0.09303215  0.68527621  0.62492125  1
  Mo  Mo173  1  0.09890723  0.11321590  0.62570121  1
  Mo  Mo174  1  0.70045435  0.50816651  0.87568210  1
  Mo  Mo175  1  0.19764692  0.20420341  0.75168050  1
  Mo  Mo176  1  0.79987488  0.60518961  0.25012149  1
  Mo  Mo177  1  0.49891102  0.69098575  0.63772674  1
  Mo  Mo178  1  0.30226421  0.50321994  0.12919933  1
  Mo  Mo179  1  0.80103148  -0.00037981  -0.00389008  1
  Mo  Mo180  1  0.59309168  0.38992007  0.00234809  1
  Mo  Mo181  1  0.59504434  0.20691101  -0.00409929  1
  Mo  Mo182  1  0.29792754  0.10304499  0.88175762  1
  Mo  Mo183  1  0.89996374  0.50322559  0.35215742  1
  Mo  Mo184  1  0.01316411  0.61099815  0.26138832  1
  Mo  Mo185  1  0.10213618  0.50934250  0.87665081  1
  Mo  Mo186  1  0.60178103  0.20003649  0.49544310  1
  Mo  Mo187  1  0.60308519  0.39324489  0.25609277  1
  Mo  Mo188  1  0.49030081  0.48976559  0.61725198  1
  Mo  Mo189  1  0.00795052  0.81320032  0.25963658  1
  Mo  Mo190  1  0.30445217  0.29694439  0.13195055  1
  Mo  Mo191  1  -0.00248147  0.20717653  0.01827788  1
  Mo  Mo192  1  0.60776165  -0.00539125  0.75757696  1
  Mo  Mo193  1  0.09893755  0.89715233  0.13749740  1
  Mo  Mo194  1  0.00317277  0.40445907  0.24296387  1
  Mo  Mo195  1  0.90598447  0.51850905  0.87722071  1
  Mo  Mo196  1  0.20714377  0.20246914  0.24672964  1
  Mo  Mo197  1  0.50859122  0.69383616  0.36823652  1
  Mo  Mo198  1  -0.00492602  0.21729606  0.49295752  1
  Mo  Mo199  1  0.59703080  0.38959868  0.74603824  1
