# generated using pymatgen
data_HfZrTaTiMo
_symmetry_space_group_name_H-M   'P 1'
_cell_length_a   15.20728965
_cell_length_b   15.21193525
_cell_length_c   16.86872525
_cell_angle_alpha   89.96333877
_cell_angle_beta   89.99549233
_cell_angle_gamma   89.98118600
_symmetry_Int_Tables_number   1
_chemical_formula_structural   HfZrTaTiMo
_chemical_formula_sum   'Hf40 Zr40 Ta40 Ti40 Mo40'
_cell_volume   3902.28008125
_cell_formula_units_Z   40
loop_
 _symmetry_equiv_pos_site_id
 _symmetry_equiv_pos_as_xyz
  1  'x, y, z'
loop_
 _atom_site_type_symbol
 _atom_site_label
 _atom_site_symmetry_multiplicity
 _atom_site_fract_x
 _atom_site_fract_y
 _atom_site_fract_z
 _atom_site_occupancy
  Hf  Hf0  1  0.30029312  0.88356239  0.86224023  1
  Hf  Hf1  1  0.10079011  0.49764583  0.87551417  1
  Hf  Hf2  1  0.52130115  0.30385866  0.37400029  1
  Hf  Hf3  1  0.21089749  0.59952354  0.50677671  1
  Hf  Hf4  1  0.88452775  0.91264271  0.88340775  1
  Hf  Hf5  1  0.50676186  0.09898681  0.63881960  1
  Hf  Hf6  1  0.70347124  0.89838378  0.62112044  1
  Hf  Hf7  1  0.87966992  0.31654163  0.37546400  1
  Hf  Hf8  1  0.39954681  0.20360701  -0.00234741  1
  Hf  Hf9  1  0.40508035  0.19811370  0.48882799  1
  Hf  Hf10  1  0.09317251  0.90682682  0.88196406  1
  Hf  Hf11  1  0.69362749  0.10019578  0.36873759  1
  Hf  Hf12  1  0.30116691  0.50303765  0.87163857  1
  Hf  Hf13  1  0.29043066  0.88607686  0.63931108  1
  Hf  Hf14  1  0.91153025  0.09156462  0.13702810  1
  Hf  Hf15  1  0.88613210  0.30253695  0.12483439  1
  Hf  Hf16  1  0.08668017  0.91545104  0.11442785  1
  Hf  Hf17  1  0.30508210  0.49191745  0.14300268  1
  Hf  Hf18  1  0.20200202  0.78102662  0.00687875  1
  Hf  Hf19  1  0.21513850  0.59151760  0.72698343  1
  Hf  Hf20  1  0.29503506  0.30127811  0.86728566  1
  Hf  Hf21  1  0.89302642  0.09274632  0.36540993  1
  Hf  Hf22  1  0.80734050  0.58718571  0.49210780  1
  Hf  Hf23  1  0.59722805  0.40915764  0.75167590  1
  Hf  Hf24  1  0.10197478  0.31389531  0.12638553  1
  Hf  Hf25  1  0.71201915  0.50351376  0.63053784  1
  Hf  Hf26  1  0.20373507  0.40624967  0.00236464  1
  Hf  Hf27  1  0.61203793  -0.00989068  0.75960836  1
  Hf  Hf28  1  0.78615097  0.20584553  0.50583684  1
  Hf  Hf29  1  0.50342483  0.91014396  0.38416672  1
  Hf  Hf30  1  -0.01026308  0.60103097  0.75022167  1
  Hf  Hf31  1  0.30894852  0.10240149  0.13210522  1
  Hf  Hf32  1  0.40691870  0.78588854  0.00328688  1
  Hf  Hf33  1  0.60029879  0.19670492  0.00858599  1
  Hf  Hf34  1  0.77552552  0.79539756  -0.00369212  1
  Hf  Hf35  1  0.60664185  0.57227762  0.26562036  1
  Hf  Hf36  1  -0.00845666  0.80108934  -0.00106746  1
  Hf  Hf37  1  0.49614058  0.89926325  0.62058810  1
  Hf  Hf38  1  0.51189957  0.10971783  0.86497343  1
  Hf  Hf39  1  0.18371386  0.79218047  0.24053225  1
  Zr  Zr40  1  0.30457694  0.10026927  0.62768922  1
  Zr  Zr41  1  0.20796489  0.21609839  0.26929865  1
  Zr  Zr42  1  0.00334602  0.61784150  0.24707011  1
  Zr  Zr43  1  0.10104107  0.10064193  0.61359507  1
  Zr  Zr44  1  0.60630417  0.79898099  0.26539184  1
  Zr  Zr45  1  -0.01409429  0.81856927  0.24300085  1
  Zr  Zr46  1  0.61657380  0.21284509  0.23634811  1
  Zr  Zr47  1  0.48558168  0.68558100  0.37310380  1
  Zr  Zr48  1  0.81182873  0.20049510  -0.01144003  1
  Zr  Zr49  1  0.09405190  0.30745040  0.60696475  1
  Zr  Zr50  1  0.09869155  0.08937332  0.37640215  1
  Zr  Zr51  1  0.69527322  0.28862019  0.86618519  1
  Zr  Zr52  1  0.00212296  0.60307812  -0.00573377  1
  Zr  Zr53  1  0.81201980  0.40357453  0.76462385  1
  Zr  Zr54  1  0.41126752  -0.00361785  -0.01305562  1
  Zr  Zr55  1  0.60679400  0.40426117  -0.00579647  1
  Zr  Zr56  1  0.38379273  0.79651754  0.49576603  1
  Zr  Zr57  1  0.18750943  0.00160333  0.74923316  1
  Zr  Zr58  1  0.60134565  0.59606466  0.49618237  1
  Zr  Zr59  1  0.70179462  0.68219591  0.13579810  1
  Zr  Zr60  1  0.49888725  0.29629331  0.63538716  1
  Zr  Zr61  1  0.09646115  0.71746131  0.62864651  1
  Zr  Zr62  1  0.71443848  0.09384542  0.12726066  1
  Zr  Zr63  1  -0.00913899  0.41811116  0.25440806  1
  Zr  Zr64  1  0.39297693  0.40957279  0.48938809  1
  Zr  Zr65  1  0.28881917  0.30309576  0.62166461  1
  Zr  Zr66  1  0.20986755  0.00255623  -0.00187001  1
  Zr  Zr67  1  0.50134671  0.89851115  0.12566765  1
  Zr  Zr68  1  0.61309645  0.39055138  0.51357942  1
  Zr  Zr69  1  -0.00128838  0.19829279  0.74830251  1
  Zr  Zr70  1  0.59826780  0.61472586  -0.00266905  1
  Zr  Zr71  1  -0.00018879  0.21211271  0.26125706  1
  Zr  Zr72  1  0.10810419  0.11065537  0.13231354  1
  Zr  Zr73  1  -0.00902379  0.20253639  0.49155510  1
  Zr  Zr74  1  0.00081255  0.40063678  0.75077018  1
  Zr  Zr75  1  0.11722579  0.70222292  0.85940021  1
  Zr  Zr76  1  0.38620819  0.79531076  0.25610758  1
  Zr  Zr77  1  0.80114212  0.79329722  0.50283471  1
  Zr  Zr78  1  0.10726602  0.52153021  0.12565659  1
  Zr  Zr79  1  0.39610833  -0.00138394  0.25595152  1
  Ta  Ta80  1  0.59794476  0.61036266  0.74771320  1
  Ta  Ta81  1  0.89338906  0.09514207  0.62125145  1
  Ta  Ta82  1  0.20392058  -0.00654898  0.50071736  1
  Ta  Ta83  1  0.20523146  0.20996160  0.47782233  1
  Ta  Ta84  1  0.79881457  0.00128183  0.50085042  1
  Ta  Ta85  1  0.39056985  0.41501492  0.74261507  1
  Ta  Ta86  1  0.91169598  0.89510748  0.62292289  1
  Ta  Ta87  1  0.29517424  0.10486538  0.86334580  1
  Ta  Ta88  1  0.29057834  0.68142681  0.13198208  1
  Ta  Ta89  1  0.20385829  0.20529555  0.00156945  1
  Ta  Ta90  1  0.39368032  0.59408492  0.00547603  1
  Ta  Ta91  1  0.79700858  0.79884263  0.74684734  1
  Ta  Ta92  1  0.69637963  0.89494536  0.12810591  1
  Ta  Ta93  1  0.09981742  0.29539306  0.88021044  1
  Ta  Ta94  1  0.30358059  0.30207006  0.13571386  1
  Ta  Ta95  1  0.60377501  0.79725124  0.49505233  1
  Ta  Ta96  1  0.49310510  0.68799170  0.14025341  1
  Ta  Ta97  1  0.09662094  0.10655799  0.88068972  1
  Ta  Ta98  1  0.40476988  -0.00774753  0.76073174  1
  Ta  Ta99  1  0.49422032  0.30626426  0.13081919  1
  Ta  Ta100  1  0.41118957  0.20098519  0.26212101  1
  Ta  Ta101  1  0.88199570  0.90530257  0.11324279  1
  Ta  Ta102  1  0.77551122  0.39713575  0.24323234  1
  Ta  Ta103  1  0.89413798  0.69909867  0.11935675  1
  Ta  Ta104  1  0.40844008  0.40342148  0.26525011  1
  Ta  Ta105  1  0.40523459  0.40137833  0.00136711  1
  Ta  Ta106  1  0.60147782  -0.00029395  0.25423998  1
  Ta  Ta107  1  0.91113744  0.70286524  0.37944821  1
  Ta  Ta108  1  0.49411113  0.51459341  0.86903157  1
  Ta  Ta109  1  0.81190974  -0.00284052  0.74407256  1
  Ta  Ta110  1  0.87701347  0.50563935  0.11258093  1
  Ta  Ta111  1  0.50665595  0.49810024  0.12865543  1
  Ta  Ta112  1  -0.00846733  0.81024718  0.75450301  1
  Ta  Ta113  1  0.61782100  -0.01769946  -0.01272635  1
  Ta  Ta114  1  0.32401672  0.69173666  0.85695972  1
  Ta  Ta115  1  0.10747807  0.70473852  0.38379139  1
  Ta  Ta116  1  0.59934038  0.18904517  0.50322406  1
  Ta  Ta117  1  0.49168579  0.31049953  0.86439825  1
  Ta  Ta118  1  0.30539666  0.09224660  0.37718287  1
  Ta  Ta119  1  0.08789471  0.89420796  0.38106686  1
  Ti  Ti120  1  0.71003124  0.69879702  0.37367328  1
  Ti  Ti121  1  0.81023638  0.58717447  0.26407812  1
  Ti  Ti122  1  0.51026027  0.87444663  0.87132782  1
  Ti  Ti123  1  0.19177667  -0.00754648  0.25376177  1
  Ti  Ti124  1  0.80806366  0.19076959  0.75733987  1
  Ti  Ti125  1  0.28127757  0.89317843  0.37659757  1
  Ti  Ti126  1  -0.01619866  0.39616607  -0.00883105  1
  Ti  Ti127  1  0.00486223  0.19955754  -0.00146765  1
  Ti  Ti128  1  0.18941617  0.80359964  0.50464443  1
  Ti  Ti129  1  0.89393480  0.89753473  0.38213036  1
  Ti  Ti130  1  0.70558817  0.51537266  0.87432387  1
  Ti  Ti131  1  0.39867024  0.00242791  0.49784865  1
  Ti  Ti132  1  0.50110030  0.70231947  0.62080802  1
  Ti  Ti133  1  0.68611547  0.71194791  0.86974317  1
  Ti  Ti134  1  0.49339595  0.50537045  0.62747612  1
  Ti  Ti135  1  0.70129343  0.28877659  0.64525549  1
  Ti  Ti136  1  0.29699765  0.89696140  0.12617971  1
  Ti  Ti137  1  0.79517354  0.60962873  0.75208767  1
  Ti  Ti138  1  0.39728457  0.60156844  0.50926902  1
  Ti  Ti139  1  -0.00509651  0.00210870  0.74706704  1
  Ti  Ti140  1  0.79825174  -0.02018999  0.25674237  1
  Ti  Ti141  1  0.60494927  0.00298062  0.49869458  1
  Ti  Ti142  1  -0.00118513  -0.01361839  0.50460787  1
  Ti  Ti143  1  0.90833176  0.49804147  0.61943846  1
  Ti  Ti144  1  0.79979917  0.79181317  0.25251763  1
  Ti  Ti145  1  0.89120777  0.30476682  0.62042950  1
  Ti  Ti146  1  0.50548689  0.09555601  0.12568625  1
  Ti  Ti147  1  0.70823345  0.46826165  0.38344716  1
  Ti  Ti148  1  0.89117528  0.69747817  0.62603931  1
  Ti  Ti149  1  0.39452407  0.20249386  0.75264426  1
  Ti  Ti150  1  0.30376978  0.51564745  0.36260256  1
  Ti  Ti151  1  0.70133667  0.10089184  0.63357393  1
  Ti  Ti152  1  0.10451297  0.49335611  0.61210150  1
  Ti  Ti153  1  0.59958339  0.79296876  0.73995852  1
  Ti  Ti154  1  -0.00620277  0.41590529  0.48739975  1
  Ti  Ti155  1  0.19423228  0.39200604  0.74439969  1
  Ti  Ti156  1  0.00245051  0.60764521  0.49989367  1
  Ti  Ti157  1  0.88912998  0.69884012  0.87375570  1
  Ti  Ti158  1  0.72051159  0.08293090  0.87489290  1
  Ti  Ti159  1  0.10160521  0.50778284  0.37570028  1
  Mo  Mo160  1  -0.00229531  0.79822967  0.49792795  1
  Mo  Mo161  1  0.49991325  0.69926426  0.86956314  1
  Mo  Mo162  1  0.91080467  0.29715082  0.88126542  1
  Mo  Mo163  1  0.20240023  0.60339121  0.26224969  1
  Mo  Mo164  1  0.21688784  0.60237557  -0.00300628  1
  Mo  Mo165  1  0.59227573  0.80194589  0.00555845  1
  Mo  Mo166  1  -0.00305517  -0.00773527  0.25580696  1
  Mo  Mo167  1  0.79813055  -0.00095623  0.00235187  1
  Mo  Mo168  1  -0.00814674  0.01561799  -0.00371728  1
  Mo  Mo169  1  0.90983811  0.09901367  0.87319711  1
  Mo  Mo170  1  0.70150027  0.31486084  0.11226867  1
  Mo  Mo171  1  0.41268295  0.79402627  0.74489022  1
  Mo  Mo172  1  0.80421334  0.40974773  -0.01819101  1
  Mo  Mo173  1  0.60903733  0.19701748  0.75333061  1
  Mo  Mo174  1  0.69752421  0.89288985  0.86436858  1
  Mo  Mo175  1  0.70406403  0.29433392  0.37705767  1
  Mo  Mo176  1  0.69692828  0.69894430  0.62923859  1
  Mo  Mo177  1  0.09730025  0.70627814  0.12060754  1
  Mo  Mo178  1  0.19926126  0.79654198  0.75093458  1
  Mo  Mo179  1  0.09234018  0.90414683  0.62327941  1
  Mo  Mo180  1  0.79888761  0.60017596  -0.01079783  1
  Mo  Mo181  1  0.70551385  0.89896521  0.38246660  1
  Mo  Mo182  1  0.19320351  0.40724053  0.47628442  1
  Mo  Mo183  1  0.09730818  0.31634720  0.38669204  1
  Mo  Mo184  1  0.59715394  0.39879726  0.24576950  1
  Mo  Mo185  1  0.50133049  0.09948644  0.37640680  1
  Mo  Mo186  1  0.49848858  0.49670099  0.38144426  1
  Mo  Mo187  1  0.29995889  0.49364510  0.61853422  1
  Mo  Mo188  1  0.80133920  0.20296783  0.24810034  1
  Mo  Mo189  1  0.28497832  0.69914922  0.37345630  1
  Mo  Mo190  1  0.89930307  0.50987294  0.37610148  1
  Mo  Mo191  1  0.31320508  0.69880711  0.63317282  1
  Mo  Mo192  1  0.40265844  0.59558169  0.24833251  1
  Mo  Mo193  1  0.70300463  0.49242053  0.12087734  1
  Mo  Mo194  1  0.80823953  0.39730893  0.51388231  1
  Mo  Mo195  1  0.41272574  0.59778360  0.73473959  1
  Mo  Mo196  1  0.89372593  0.50801755  0.88289843  1
  Mo  Mo197  1  0.30657363  0.30689102  0.37019011  1
  Mo  Mo198  1  0.20076729  0.40729331  0.27150214  1
  Mo  Mo199  1  0.19620823  0.20229965  0.75603366  1
