# generated using pymatgen
data_HfZrTaTiMo
_symmetry_space_group_name_H-M   'P 1'
_cell_length_a   15.19138352
_cell_length_b   15.20103123
_cell_length_c   16.82329199
_cell_angle_alpha   90.02427132
_cell_angle_beta   90.03937645
_cell_angle_gamma   89.99879843
_symmetry_Int_Tables_number   1
_chemical_formula_structural   HfZrTaTiMo
_chemical_formula_sum   'Hf40 Zr40 Ta40 Ti40 Mo40'
_cell_volume   3884.91230897
_cell_formula_units_Z   40
loop_
 _symmetry_equiv_pos_site_id
 _symmetry_equiv_pos_as_xyz
  1  'x, y, z'
loop_
 _atom_site_type_symbol
 _atom_site_label
 _atom_site_symmetry_multiplicity
 _atom_site_fract_x
 _atom_site_fract_y
 _atom_site_fract_z
 _atom_site_occupancy
  Hf  Hf0  1  0.88891042  0.30390652  0.86717110  1
  Hf  Hf1  1  0.89390914  0.51206827  0.37874028  1
  Hf  Hf2  1  -0.00004855  0.80233856  0.75724745  1
  Hf  Hf3  1  0.51148078  0.88886523  0.38270363  1
  Hf  Hf4  1  0.89626233  0.50127954  0.12248111  1
  Hf  Hf5  1  0.80150943  -0.02150488  0.26043184  1
  Hf  Hf6  1  0.20464272  0.60750262  0.01885163  1
  Hf  Hf7  1  0.01152220  0.60277951  0.25136808  1
  Hf  Hf8  1  0.31761857  0.69153441  0.87474617  1
  Hf  Hf9  1  0.19770824  0.42338571  0.23660372  1
  Hf  Hf10  1  0.20812670  0.80840320  0.01243781  1
  Hf  Hf11  1  0.50921895  0.70835801  0.88727580  1
  Hf  Hf12  1  0.39622377  -0.00922551  0.74119597  1
  Hf  Hf13  1  0.89281142  0.10741250  0.12241300  1
  Hf  Hf14  1  -0.01935314  0.80264647  0.24526186  1
  Hf  Hf15  1  0.60973272  0.20796493  -0.00509122  1
  Hf  Hf16  1  0.11581852  0.70263071  0.87365931  1
  Hf  Hf17  1  0.68095526  0.09291298  0.62732840  1
  Hf  Hf18  1  0.79180858  0.18843831  0.26641427  1
  Hf  Hf19  1  0.20565097  0.61285816  0.50468822  1
  Hf  Hf20  1  0.18597841  -0.00956490  0.50229307  1
  Hf  Hf21  1  0.30139444  0.29858017  0.39636824  1
  Hf  Hf22  1  0.90306468  0.10456860  0.63126872  1
  Hf  Hf23  1  0.90357441  0.90487590  0.87625523  1
  Hf  Hf24  1  0.90409370  0.30582720  0.38542813  1
  Hf  Hf25  1  0.59935779  0.40132334  -0.00373813  1
  Hf  Hf26  1  -0.00174591  0.00505654  0.24532808  1
  Hf  Hf27  1  0.40976913  0.79135951  0.50262153  1
  Hf  Hf28  1  0.80389848  -0.00683962  0.49898442  1
  Hf  Hf29  1  0.31705598  0.68523614  0.63431049  1
  Hf  Hf30  1  0.20719039  0.20626500  0.00701656  1
  Hf  Hf31  1  0.80799545  0.60150418  0.75274033  1
  Hf  Hf32  1  0.60421166  0.00084055  0.26083282  1
  Hf  Hf33  1  0.00563072  0.00785124  -0.00284493  1
  Hf  Hf34  1  0.48818155  0.50320074  0.86861113  1
  Hf  Hf35  1  -0.00169668  0.40438377  -0.00839316  1
  Hf  Hf36  1  0.68128712  0.29766776  0.61605701  1
  Hf  Hf37  1  0.79880847  -0.00124591  0.75240886  1
  Hf  Hf38  1  0.41745630  0.58830133  0.49051066  1
  Hf  Hf39  1  0.69242877  0.89775837  0.88438636  1
  Zr  Zr40  1  0.20822547  0.21383187  0.24849628  1
  Zr  Zr41  1  0.28375564  0.48734843  0.88417399  1
  Zr  Zr42  1  0.70276325  0.69871686  0.87884219  1
  Zr  Zr43  1  0.58749735  0.00110104  0.75636225  1
  Zr  Zr44  1  0.19949265  0.58199486  0.74642455  1
  Zr  Zr45  1  0.90421441  0.69468703  0.11447738  1
  Zr  Zr46  1  0.79313975  0.39537507  0.24861803  1
  Zr  Zr47  1  0.11376758  0.29688487  0.87222080  1
  Zr  Zr48  1  0.10541015  0.10657319  0.13580162  1
  Zr  Zr49  1  0.68793112  0.69922598  0.38193059  1
  Zr  Zr50  1  0.10602617  0.70013862  0.37661842  1
  Zr  Zr51  1  0.08385475  0.50030933  0.60780381  1
  Zr  Zr52  1  0.29800643  0.09809923  0.62659935  1
  Zr  Zr53  1  0.69925076  0.48129855  0.86321047  1
  Zr  Zr54  1  0.10057778  0.90227378  0.35921528  1
  Zr  Zr55  1  0.00214559  0.39806077  0.74428961  1
  Zr  Zr56  1  0.28964777  0.49908997  0.37978809  1
  Zr  Zr57  1  0.38854306  0.59840840  0.23568074  1
  Zr  Zr58  1  0.10258786  0.30920176  0.38463623  1
  Zr  Zr59  1  0.10301394  0.71302984  0.62653139  1
  Zr  Zr60  1  0.58977267  0.01299273  -0.00675452  1
  Zr  Zr61  1  0.20699044  0.00899905  0.00876156  1
  Zr  Zr62  1  0.28247862  0.10150500  0.85857347  1
  Zr  Zr63  1  0.79533945  0.19582405  0.49753049  1
  Zr  Zr64  1  0.88839482  0.90196762  0.10610882  1
  Zr  Zr65  1  0.79512864  0.41252158  0.51530080  1
  Zr  Zr66  1  0.39367024  0.39182762  0.74871594  1
  Zr  Zr67  1  0.69462469  0.10316192  0.12664959  1
  Zr  Zr68  1  0.52426555  0.29834481  0.13772324  1
  Zr  Zr69  1  0.21089850  0.81523758  0.75158527  1
  Zr  Zr70  1  0.68672737  0.31165546  0.38290297  1
  Zr  Zr71  1  0.39958122  0.38869002  0.25098541  1
  Zr  Zr72  1  0.00114095  0.40067315  0.24569269  1
  Zr  Zr73  1  0.30082398  0.89793506  0.37147691  1
  Zr  Zr74  1  0.68953909  0.49804240  0.13387303  1
  Zr  Zr75  1  0.50500983  0.90232278  0.12289475  1
  Zr  Zr76  1  0.41895332  0.79966827  0.74443617  1
  Zr  Zr77  1  0.00569277  0.81782101  0.50211145  1
  Zr  Zr78  1  0.70306543  0.70301593  0.11109672  1
  Zr  Zr79  1  0.58168837  0.17470499  0.48303367  1
  Ta  Ta80  1  0.30218959  0.09982535  0.37892759  1
  Ta  Ta81  1  0.40759203  0.19325654  0.00070679  1
  Ta  Ta82  1  0.49598189  0.49899880  0.63411832  1
  Ta  Ta83  1  -0.00565587  0.20596997  0.25441363  1
  Ta  Ta84  1  0.79230437  0.38772306  0.00512396  1
  Ta  Ta85  1  0.59508549  0.60359573  0.74904640  1
  Ta  Ta86  1  0.49014738  0.10646130  0.13699753  1
  Ta  Ta87  1  0.40521358  0.59168812  0.01773324  1
  Ta  Ta88  1  0.41154714  0.79542188  0.24709972  1
  Ta  Ta89  1  0.80267705  0.80128221  0.74559359  1
  Ta  Ta90  1  0.70676711  0.70080251  0.62811176  1
  Ta  Ta91  1  0.89161034  0.71411449  0.38009367  1
  Ta  Ta92  1  0.61096238  0.79427032  0.24674420  1
  Ta  Ta93  1  0.19102767  0.19184460  0.50694603  1
  Ta  Ta94  1  0.60940538  0.80472698  0.74307081  1
  Ta  Ta95  1  0.30700313  0.70266215  0.36735540  1
  Ta  Ta96  1  0.30254010  0.48645519  0.61327525  1
  Ta  Ta97  1  0.00200087  0.19882143  0.50864847  1
  Ta  Ta98  1  0.00261738  0.60120476  -0.02227984  1
  Ta  Ta99  1  0.58016631  0.41656511  0.49974840  1
  Ta  Ta100  1  0.91070357  0.90284391  0.63253234  1
  Ta  Ta101  1  0.01899294  0.01206316  0.75392881  1
  Ta  Ta102  1  0.29235400  0.29749544  0.61142680  1
  Ta  Ta103  1  0.29716176  0.89090272  0.61112363  1
  Ta  Ta104  1  0.40191954  0.38940356  0.00549022  1
  Ta  Ta105  1  0.51706434  0.69752905  0.62444944  1
  Ta  Ta106  1  0.10382983  0.10515316  0.37046897  1
  Ta  Ta107  1  -0.00214724  0.59514178  0.76985975  1
  Ta  Ta108  1  0.91102541  0.09078858  0.38119362  1
  Ta  Ta109  1  0.01199602  0.79913632  -0.00646229  1
  Ta  Ta110  1  0.31007609  0.89809445  0.88192801  1
  Ta  Ta111  1  0.11391394  0.91664137  0.87573171  1
  Ta  Ta112  1  0.48637938  0.29082051  0.61087386  1
  Ta  Ta113  1  0.80814550  0.58256433  -0.01715380  1
  Ta  Ta114  1  0.08903212  0.49982141  0.39776746  1
  Ta  Ta115  1  0.30209695  0.90718064  0.14455718  1
  Ta  Ta116  1  0.78942018  0.21120542  0.74161635  1
  Ta  Ta117  1  -0.00154116  0.20274447  -0.00432453  1
  Ta  Ta118  1  0.80157284  0.60706342  0.51005152  1
  Ta  Ta119  1  0.80143712  0.40158797  0.72759950  1
  Ti  Ti120  1  0.20307345  0.78284726  0.23294261  1
  Ti  Ti121  1  0.31303255  0.29206708  0.87659288  1
  Ti  Ti122  1  0.10160426  0.89824637  0.13311938  1
  Ti  Ti123  1  0.31583141  0.29529082  0.12540500  1
  Ti  Ti124  1  0.79293943  0.61942438  0.25223609  1
  Ti  Ti125  1  0.90616567  0.11220343  0.86251168  1
  Ti  Ti126  1  0.80112153  0.20575969  -0.00693808  1
  Ti  Ti127  1  0.59238336  0.19686219  0.27073085  1
  Ti  Ti128  1  0.48777906  0.10442565  0.87232446  1
  Ti  Ti129  1  0.39300534  0.00405406  0.00603600  1
  Ti  Ti130  1  0.50124650  0.49600836  0.13404678  1
  Ti  Ti131  1  0.79716550  0.01745835  -0.01539071  1
  Ti  Ti132  1  0.50872027  0.50368570  0.35930394  1
  Ti  Ti133  1  0.09156678  0.30306546  0.12137478  1
  Ti  Ti134  1  0.90948500  0.69439126  0.62461483  1
  Ti  Ti135  1  0.48911128  0.29921759  0.38232713  1
  Ti  Ti136  1  0.60163313  0.59551104  -0.00153304  1
  Ti  Ti137  1  0.80859236  0.79202764  -0.01232284  1
  Ti  Ti138  1  0.69594102  0.89581617  0.62029723  1
  Ti  Ti139  1  0.50631900  0.29465555  0.87056808  1
  Ti  Ti140  1  0.70931564  0.88839787  0.38654416  1
  Ti  Ti141  1  0.19751445  0.38661178  0.73737742  1
  Ti  Ti142  1  0.20340751  0.40178401  0.01623358  1
  Ti  Ti143  1  0.51095121  0.69694776  0.12099302  1
  Ti  Ti144  1  0.09324572  0.51269585  0.11680933  1
  Ti  Ti145  1  0.69312585  0.50788820  0.36905189  1
  Ti  Ti146  1  0.40275962  0.00393601  0.25832260  1
  Ti  Ti147  1  0.40191487  0.79697768  0.01527513  1
  Ti  Ti148  1  0.68834932  0.50802061  0.63108444  1
  Ti  Ti149  1  0.60365837  0.60343266  0.50447755  1
  Ti  Ti150  1  0.16627091  0.18900045  0.73085598  1
  Ti  Ti151  1  0.41433976  0.00713771  0.50451111  1
  Ti  Ti152  1  0.30832864  0.10156531  0.14108405  1
  Ti  Ti153  1  0.80354826  0.79868276  0.51405471  1
  Ti  Ti154  1  0.89658980  0.29636444  0.12335575  1
  Ti  Ti155  1  0.59748016  0.38536784  0.74475521  1
  Ti  Ti156  1  0.40755597  0.19840660  0.74350404  1
  Ti  Ti157  1  0.70055251  0.89841100  0.11028290  1
  Ti  Ti158  1  0.69798040  0.11926332  0.86119326  1
  Ti  Ti159  1  0.49373851  0.89925929  0.88876187  1
  Mo  Mo160  1  0.10384346  0.49748084  0.87916704  1
  Mo  Mo161  1  0.60881609  0.79535486  0.51144864  1
  Mo  Mo162  1  0.40334987  0.39842194  0.50214979  1
  Mo  Mo163  1  -0.01267662  0.60932047  0.49480822  1
  Mo  Mo164  1  0.89770388  0.30418566  0.62293439  1
  Mo  Mo165  1  0.30627150  0.49128758  0.11302404  1
  Mo  Mo166  1  0.40759569  0.59294742  0.74852921  1
  Mo  Mo167  1  -0.01046390  0.39788920  0.51144092  1
  Mo  Mo168  1  0.59844782  0.80071532  0.00549286  1
  Mo  Mo169  1  0.39173572  0.19208626  0.50190965  1
  Mo  Mo170  1  0.09199227  0.09088464  0.62033827  1
  Mo  Mo171  1  0.71388565  0.29249288  0.12885104  1
  Mo  Mo172  1  0.40423347  0.19362938  0.25917906  1
  Mo  Mo173  1  0.89734404  0.89471662  0.38073220  1
  Mo  Mo174  1  0.69737083  0.08446138  0.37599446  1
  Mo  Mo175  1  0.20675650  0.00000532  0.24963698  1
  Mo  Mo176  1  0.89862023  0.49510625  0.87317043  1
  Mo  Mo177  1  0.20042593  -0.00326846  0.74505403  1
  Mo  Mo178  1  0.19369131  0.39860426  0.50921911  1
  Mo  Mo179  1  -0.01044170  0.20239769  0.74366931  1
  Mo  Mo180  1  0.10050980  0.90989762  0.63108842  1
  Mo  Mo181  1  0.89266975  0.51417894  0.62586626  1
  Mo  Mo182  1  0.50949734  0.90456779  0.61160589  1
  Mo  Mo183  1  0.60029479  -0.01604009  0.49770128  1
  Mo  Mo184  1  0.09669653  0.29249957  0.61881162  1
  Mo  Mo185  1  0.19689812  0.60803362  0.23196164  1
  Mo  Mo186  1  0.69833822  0.29610496  0.86280218  1
  Mo  Mo187  1  0.79065221  0.79866350  0.25035831  1
  Mo  Mo188  1  0.59718855  0.40102634  0.26302457  1
  Mo  Mo189  1  0.31368128  0.71007451  0.12517272  1
  Mo  Mo190  1  0.58524527  0.20414597  0.75038534  1
  Mo  Mo191  1  0.49861050  0.69451804  0.36632970  1
  Mo  Mo192  1  0.48705703  0.09126754  0.36915172  1
  Mo  Mo193  1  0.90439347  0.70462457  0.87920198  1
  Mo  Mo194  1  0.49620551  0.10004271  0.62606853  1
  Mo  Mo195  1  0.21293157  0.79870498  0.50102780  1
  Mo  Mo196  1  0.09745421  0.70638053  0.11957522  1
  Mo  Mo197  1  0.09268271  0.10747209  0.87455129  1
  Mo  Mo198  1  -0.00201308  0.00894515  0.49772413  1
  Mo  Mo199  1  0.59446205  0.60506521  0.24913983  1
