# generated using pymatgen
data_HfZrTaTiMo
_symmetry_space_group_name_H-M   'P 1'
_cell_length_a   15.21080093
_cell_length_b   15.19140140
_cell_length_c   16.83904686
_cell_angle_alpha   90.06893123
_cell_angle_beta   90.01434036
_cell_angle_gamma   89.85966850
_symmetry_Int_Tables_number   1
_chemical_formula_structural   HfZrTaTiMo
_chemical_formula_sum   'Hf40 Zr40 Ta40 Ti40 Mo40'
_cell_volume   3891.04091093
_cell_formula_units_Z   40
loop_
 _symmetry_equiv_pos_site_id
 _symmetry_equiv_pos_as_xyz
  1  'x, y, z'
loop_
 _atom_site_type_symbol
 _atom_site_label
 _atom_site_symmetry_multiplicity
 _atom_site_fract_x
 _atom_site_fract_y
 _atom_site_fract_z
 _atom_site_occupancy
  Hf  Hf0  1  0.18200243  0.81053641  0.24802223  1
  Hf  Hf1  1  0.59254563  0.40587013  0.25328558  1
  Hf  Hf2  1  0.10333979  0.08613189  0.12609987  1
  Hf  Hf3  1  0.71557791  0.69783126  0.62429872  1
  Hf  Hf4  1  0.80373789  0.58456087  0.76412477  1
  Hf  Hf5  1  -0.01667170  0.60774505  0.50905302  1
  Hf  Hf6  1  0.20233789  0.00065674  0.75703942  1
  Hf  Hf7  1  0.38466167  0.59782909  0.75223792  1
  Hf  Hf8  1  -0.00820894  0.20144860  0.00614041  1
  Hf  Hf9  1  0.90387036  0.30844090  0.63197585  1
  Hf  Hf10  1  0.78740119  0.19328864  0.49777153  1
  Hf  Hf11  1  0.70727650  0.49070550  0.62992377  1
  Hf  Hf12  1  0.21231536  0.78572487  0.76224372  1
  Hf  Hf13  1  0.30095706  0.10988675  0.87352472  1
  Hf  Hf14  1  0.19349819  0.41327876  0.24782956  1
  Hf  Hf15  1  0.69173933  0.28327831  0.13038680  1
  Hf  Hf16  1  0.40807148  0.59853706  0.26708470  1
  Hf  Hf17  1  0.58439527  0.38645070  -0.00958643  1
  Hf  Hf18  1  0.57670122  0.79531895  0.02385399  1
  Hf  Hf19  1  0.80471740  0.79659543  0.25250259  1
  Hf  Hf20  1  0.59653182  0.02806834  0.49999573  1
  Hf  Hf21  1  0.09781134  0.50892473  0.38899607  1
  Hf  Hf22  1  0.59324266  0.39914407  0.75438673  1
  Hf  Hf23  1  0.39800849  0.21318350  0.74086519  1
  Hf  Hf24  1  0.21003531  0.20414664  0.25941093  1
  Hf  Hf25  1  0.70054141  0.09373706  0.87205053  1
  Hf  Hf26  1  0.41496874  0.21277262  -0.00798154  1
  Hf  Hf27  1  0.49941476  0.90237746  0.37937561  1
  Hf  Hf28  1  0.49133008  0.30107025  0.13090266  1
  Hf  Hf29  1  0.80536815  0.78889699  0.77062646  1
  Hf  Hf30  1  0.10090267  0.70680429  0.62511772  1
  Hf  Hf31  1  0.80058136  0.59924164  0.23411599  1
  Hf  Hf32  1  0.69890826  0.68613981  0.90637170  1
  Hf  Hf33  1  0.69964951  0.29412133  0.87379890  1
  Hf  Hf34  1  0.59497200  0.59543427  0.76368192  1
  Hf  Hf35  1  0.71132693  0.49170794  0.36661616  1
  Hf  Hf36  1  0.71345140  0.89504531  0.12077411  1
  Hf  Hf37  1  0.60221942  0.59445724  0.49104832  1
  Hf  Hf38  1  0.90807619  0.49537048  0.88974297  1
  Hf  Hf39  1  0.40964567  0.60386992  0.48562355  1
  Zr  Zr40  1  -0.00301997  0.39892133  0.22597493  1
  Zr  Zr41  1  0.29052879  0.92027899  0.36462464  1
  Zr  Zr42  1  0.50238145  0.69492482  0.62295557  1
  Zr  Zr43  1  0.90623569  0.49633096  0.36699313  1
  Zr  Zr44  1  0.29400992  0.49192608  0.39306122  1
  Zr  Zr45  1  0.00336848  0.41328347  0.74823149  1
  Zr  Zr46  1  0.40580765  0.80600101  0.74333880  1
  Zr  Zr47  1  0.40878231  -0.00838071  0.00070196  1
  Zr  Zr48  1  0.80874201  0.38845618  0.01274967  1
  Zr  Zr49  1  0.29978840  0.50062890  0.12647592  1
  Zr  Zr50  1  0.10085033  0.49460683  0.60881528  1
  Zr  Zr51  1  0.59796367  0.19710311  0.73240593  1
  Zr  Zr52  1  0.68393395  0.51605371  0.11066519  1
  Zr  Zr53  1  0.40904583  0.80641677  0.23972807  1
  Zr  Zr54  1  0.39253737  0.39156936  0.26430576  1
  Zr  Zr55  1  -0.00708282  0.00506350  0.49295320  1
  Zr  Zr56  1  0.88941744  0.70706840  0.10246251  1
  Zr  Zr57  1  0.10044456  0.89783616  0.87698814  1
  Zr  Zr58  1  0.60357993  0.78961730  0.24103139  1
  Zr  Zr59  1  0.10243206  0.31047246  0.38699855  1
  Zr  Zr60  1  -0.00489723  0.20245473  0.49316383  1
  Zr  Zr61  1  0.00187220  0.19657949  0.25041886  1
  Zr  Zr62  1  -0.00350204  0.80027646  0.76223945  1
  Zr  Zr63  1  0.70245626  0.90072757  0.60582793  1
  Zr  Zr64  1  0.61408021  0.39434536  0.49903669  1
  Zr  Zr65  1  0.10449331  0.31615304  0.87655352  1
  Zr  Zr66  1  0.10200551  0.90515574  0.63170307  1
  Zr  Zr67  1  0.40270861  0.00201844  0.74880783  1
  Zr  Zr68  1  0.30612817  0.11276944  0.12163561  1
  Zr  Zr69  1  0.19771648  0.00013400  -0.01352998  1
  Zr  Zr70  1  0.70858212  0.90769479  0.38354744  1
  Zr  Zr71  1  0.50830106  0.28601553  0.38945491  1
  Zr  Zr72  1  0.39381568  0.61188490  -0.00292474  1
  Zr  Zr73  1  0.01628932  0.60214153  0.23246237  1
  Zr  Zr74  1  0.60942286  0.80622864  0.75261033  1
  Zr  Zr75  1  0.28494089  0.91031714  0.13045933  1
  Zr  Zr76  1  0.60453082  0.01232021  0.01084749  1
  Zr  Zr77  1  0.48519937  0.71621216  0.87949061  1
  Zr  Zr78  1  0.89753585  0.89280704  0.62142315  1
  Zr  Zr79  1  0.79503199  -0.01271398  0.75760015  1
  Ta  Ta80  1  0.90196665  0.29363777  0.86673190  1
  Ta  Ta81  1  0.88357355  0.09689983  0.36324098  1
  Ta  Ta82  1  0.30820007  0.50114381  0.60956114  1
  Ta  Ta83  1  0.30802672  0.28789502  0.40650033  1
  Ta  Ta84  1  0.81023045  0.19690772  0.74892169  1
  Ta  Ta85  1  0.49792342  0.90474109  0.60793726  1
  Ta  Ta86  1  0.29908453  0.30243721  0.60519453  1
  Ta  Ta87  1  0.38974178  0.00978491  0.50378771  1
  Ta  Ta88  1  0.28569747  0.49770296  0.87540588  1
  Ta  Ta89  1  0.89735446  0.09983636  0.62904857  1
  Ta  Ta90  1  0.70328598  0.09661434  0.14358327  1
  Ta  Ta91  1  0.70878235  0.29022216  0.35809724  1
  Ta  Ta92  1  0.29662499  0.70099062  0.61585570  1
  Ta  Ta93  1  0.10011489  0.70790463  0.37595792  1
  Ta  Ta94  1  0.29533999  0.69586544  0.13685413  1
  Ta  Ta95  1  0.90381407  0.69791190  0.89871504  1
  Ta  Ta96  1  0.19436801  -0.00353878  0.50140037  1
  Ta  Ta97  1  0.68654838  0.10478745  0.35539516  1
  Ta  Ta98  1  0.09760700  0.68215054  0.88439930  1
  Ta  Ta99  1  0.89364476  0.09626666  0.13357754  1
  Ta  Ta100  1  0.80467921  0.39223898  0.22730693  1
  Ta  Ta101  1  0.50907696  0.11271313  0.87164681  1
  Ta  Ta102  1  0.01047130  0.80161962  0.49397749  1
  Ta  Ta103  1  0.79910442  0.59385447  0.49906993  1
  Ta  Ta104  1  0.59361092  -0.00246375  0.74069678  1
  Ta  Ta105  1  0.21396820  0.40230633  0.73819483  1
  Ta  Ta106  1  0.10437137  0.71047724  0.11283930  1
  Ta  Ta107  1  0.00882580  -0.01355079  0.25510238  1
  Ta  Ta108  1  0.09371726  0.10735251  0.63306364  1
  Ta  Ta109  1  0.19973604  0.20893144  -0.00584338  1
  Ta  Ta110  1  -0.00532214  0.79994457  0.24597467  1
  Ta  Ta111  1  0.29692190  0.89617231  0.61641602  1
  Ta  Ta112  1  0.39191231  0.80266408  0.49418847  1
  Ta  Ta113  1  -0.00695089  0.01291973  0.75693901  1
  Ta  Ta114  1  0.81674285  0.78560831  0.49091758  1
  Ta  Ta115  1  0.89250920  0.30208449  0.36846993  1
  Ta  Ta116  1  0.29211692  0.10118893  0.62381452  1
  Ta  Ta117  1  0.11229532  0.29631228  0.11851236  1
  Ta  Ta118  1  0.81212007  0.00112434  0.00057071  1
  Ta  Ta119  1  0.19684604  0.21096564  0.74338957  1
  Ti  Ti120  1  0.49926361  0.30464808  0.60791028  1
  Ti  Ti121  1  0.51124428  0.91160710  0.87719603  1
  Ti  Ti122  1  0.70078607  0.89309062  0.89397602  1
  Ti  Ti123  1  0.48545183  0.09818240  0.37071318  1
  Ti  Ti124  1  0.90027634  0.10274102  0.87345166  1
  Ti  Ti125  1  0.59755048  0.79179139  0.49414952  1
  Ti  Ti126  1  0.20044814  0.18408905  0.50095504  1
  Ti  Ti127  1  0.48669084  0.49083103  0.88142240  1
  Ti  Ti128  1  0.71010493  0.29682353  0.63169151  1
  Ti  Ti129  1  0.90465358  0.69427483  0.36959278  1
  Ti  Ti130  1  0.91493765  0.90543998  0.12002128  1
  Ti  Ti131  1  0.40129350  0.19611551  0.25736036  1
  Ti  Ti132  1  0.00930662  0.39961212  0.01728911  1
  Ti  Ti133  1  0.79390183  0.18930928  0.00366509  1
  Ti  Ti134  1  0.31986205  0.87785794  0.88788597  1
  Ti  Ti135  1  0.20196336  0.61806105  0.49882614  1
  Ti  Ti136  1  0.09228018  0.11778955  0.86600645  1
  Ti  Ti137  1  0.18962085  0.59035757  0.75039710  1
  Ti  Ti138  1  0.70363019  0.69879568  0.37735647  1
  Ti  Ti139  1  0.59739507  0.60480468  0.25852169  1
  Ti  Ti140  1  0.58697550  -0.00552119  0.24423176  1
  Ti  Ti141  1  0.19538432  0.59722607  -0.00020046  1
  Ti  Ti142  1  0.40093411  0.40583696  0.73888883  1
  Ti  Ti143  1  -0.00601447  0.60698913  0.74644297  1
  Ti  Ti144  1  0.10283404  0.29743529  0.61681501  1
  Ti  Ti145  1  0.80716909  -0.00653558  0.24886194  1
  Ti  Ti146  1  0.00275623  0.80932708  -0.00530616  1
  Ti  Ti147  1  0.29508672  0.70972815  0.36985620  1
  Ti  Ti148  1  0.10996781  0.08744531  0.37012066  1
  Ti  Ti149  1  0.50569991  0.10617148  0.13481920  1
  Ti  Ti150  1  0.30850742  0.31259775  0.87531937  1
  Ti  Ti151  1  0.30073091  0.30552414  0.11699421  1
  Ti  Ti152  1  0.20003311  0.40712655  0.00310909  1
  Ti  Ti153  1  0.20992330  0.79018218  -0.00184900  1
  Ti  Ti154  1  0.70467411  0.09680971  0.62698175  1
  Ti  Ti155  1  0.49014135  0.50213275  0.11555604  1
  Ti  Ti156  1  0.90641723  0.89634735  0.37665555  1
  Ti  Ti157  1  -0.00276492  0.00418191  -0.00720587  1
  Ti  Ti158  1  0.81755635  0.39964123  0.49995803  1
  Ti  Ti159  1  0.00752056  0.58800508  0.01303364  1
  Mo  Mo160  1  0.60913200  0.20141818  0.51112049  1
  Mo  Mo161  1  0.50856737  0.49978067  0.37225821  1
  Mo  Mo162  1  0.80436773  0.59198986  0.00256655  1
  Mo  Mo163  1  0.49015010  0.30074729  0.86554873  1
  Mo  Mo164  1  0.20305158  0.80167887  0.49457655  1
  Mo  Mo165  1  0.49440085  0.10001465  0.62392292  1
  Mo  Mo166  1  0.89117341  0.50652223  0.62841273  1
  Mo  Mo167  1  0.40123390  0.01793661  0.24990056  1
  Mo  Mo168  1  0.38859820  0.40438374  -0.00575429  1
  Mo  Mo169  1  0.50325723  0.67578583  0.12769195  1
  Mo  Mo170  1  0.69440743  0.69689502  0.11256189  1
  Mo  Mo171  1  0.10473483  0.50618307  0.87741004  1
  Mo  Mo172  1  0.38696055  0.80050039  0.02351493  1
  Mo  Mo173  1  0.89766932  0.90616987  0.88580091  1
  Mo  Mo174  1  0.79754355  0.39224979  0.75935645  1
  Mo  Mo175  1  0.20235823  0.61418289  0.25473402  1
  Mo  Mo176  1  0.49416798  0.49388617  0.62613572  1
  Mo  Mo177  1  0.90181255  0.28655598  0.12091214  1
  Mo  Mo178  1  0.40968006  0.18838416  0.51327414  1
  Mo  Mo179  1  0.58957522  0.19166950  0.25183284  1
  Mo  Mo180  1  0.50720957  0.70799133  0.38093387  1
  Mo  Mo181  1  0.60470184  0.19388677  0.00044854  1
  Mo  Mo182  1  0.80096079  0.00294622  0.48824574  1
  Mo  Mo183  1  0.19133993  0.01222160  0.25156899  1
  Mo  Mo184  1  -0.00883035  0.40013538  0.50299853  1
  Mo  Mo185  1  0.09306001  0.89876508  0.37725944  1
  Mo  Mo186  1  0.08759871  0.89505927  0.11360621  1
  Mo  Mo187  1  0.58910457  0.58645320  -0.01249797  1
  Mo  Mo188  1  0.29978040  0.10842691  0.38298860  1
  Mo  Mo189  1  0.40988307  0.40311842  0.50678486  1
  Mo  Mo190  1  0.80153245  0.19589690  0.24883667  1
  Mo  Mo191  1  0.19967725  0.39567110  0.50968749  1
  Mo  Mo192  1  0.49614668  0.91295862  0.13770817  1
  Mo  Mo193  1  0.28621368  0.69323757  0.87838236  1
  Mo  Mo194  1  0.89847950  0.69706533  0.62653422  1
  Mo  Mo195  1  0.00448209  0.20020326  0.74887453  1
  Mo  Mo196  1  0.10940471  0.50808223  0.11892091  1
  Mo  Mo197  1  0.80305022  0.80976947  -0.00655617  1
  Mo  Mo198  1  0.90030743  0.49824349  0.11177415  1
  Mo  Mo199  1  0.69646809  0.49310326  0.88521762  1
