# generated using pymatgen
data_HfZrTaTiMo
_symmetry_space_group_name_H-M   'P 1'
_cell_length_a   15.21281173
_cell_length_b   15.22276556
_cell_length_c   16.85420091
_cell_angle_alpha   90.02303190
_cell_angle_beta   89.90641922
_cell_angle_gamma   89.93127571
_symmetry_Int_Tables_number   1
_chemical_formula_structural   HfZrTaTiMo
_chemical_formula_sum   'Hf40 Zr40 Ta40 Ti40 Mo40'
_cell_volume   3903.10549059
_cell_formula_units_Z   40
loop_
 _symmetry_equiv_pos_site_id
 _symmetry_equiv_pos_as_xyz
  1  'x, y, z'
loop_
 _atom_site_type_symbol
 _atom_site_label
 _atom_site_symmetry_multiplicity
 _atom_site_fract_x
 _atom_site_fract_y
 _atom_site_fract_z
 _atom_site_occupancy
  Hf  Hf0  1  -0.00965811  0.60296318  0.49529225  1
  Hf  Hf1  1  0.50857483  0.08915260  0.38714399  1
  Hf  Hf2  1  0.60062890  -0.00162987  0.74572559  1
  Hf  Hf3  1  0.68959346  0.71011724  0.36480295  1
  Hf  Hf4  1  0.00788827  0.59762927  0.25914633  1
  Hf  Hf5  1  0.29514369  0.50467500  0.87599682  1
  Hf  Hf6  1  0.50251811  0.90539519  0.87481061  1
  Hf  Hf7  1  0.29999224  0.70587327  0.86037243  1
  Hf  Hf8  1  0.41618569  0.01120841  0.01130133  1
  Hf  Hf9  1  0.00260255  0.79841657  0.00390788  1
  Hf  Hf10  1  0.60710812  0.59420630  0.75478740  1
  Hf  Hf11  1  0.28938247  0.08957260  0.37422636  1
  Hf  Hf12  1  0.49281397  0.29129668  0.12688718  1
  Hf  Hf13  1  0.89856053  0.49515333  0.14001190  1
  Hf  Hf14  1  0.09372697  0.72202583  0.37308439  1
  Hf  Hf15  1  0.01930730  0.19785199  0.73123427  1
  Hf  Hf16  1  0.71034642  0.08519981  0.61250520  1
  Hf  Hf17  1  0.90750095  0.88989652  0.36988292  1
  Hf  Hf18  1  0.49413705  0.88607079  0.62932426  1
  Hf  Hf19  1  0.90464056  0.89548373  0.12786456  1
  Hf  Hf20  1  0.59519309  0.61212813  0.00273302  1
  Hf  Hf21  1  0.51192280  0.88891071  0.37623488  1
  Hf  Hf22  1  0.20550292  0.78525440  0.00842276  1
  Hf  Hf23  1  0.41433262  0.78539506  0.24377518  1
  Hf  Hf24  1  0.19727262  0.40651667  0.25945605  1
  Hf  Hf25  1  0.10249570  0.91393348  0.13668443  1
  Hf  Hf26  1  0.89957882  0.49491640  0.37078429  1
  Hf  Hf27  1  0.90555810  0.08728236  0.12167831  1
  Hf  Hf28  1  0.40307588  0.39780277  0.48841640  1
  Hf  Hf29  1  0.87885698  0.50061165  0.61901380  1
  Hf  Hf30  1  0.60169867  0.39891395  0.75742400  1
  Hf  Hf31  1  0.59827901  0.19376924  0.74482870  1
  Hf  Hf32  1  0.19484216  0.82846460  0.51001942  1
  Hf  Hf33  1  0.10418448  0.49313131  0.60648401  1
  Hf  Hf34  1  0.70267216  0.70709141  0.87417970  1
  Hf  Hf35  1  0.72100287  0.50052138  0.88427635  1
  Hf  Hf36  1  -0.01244318  0.80706082  0.51118859  1
  Hf  Hf37  1  0.28977519  0.29787063  0.87262849  1
  Hf  Hf38  1  0.01077188  0.19974006  0.00500216  1
  Hf  Hf39  1  0.20309817  0.20015048  0.00756355  1
  Zr  Zr40  1  0.29720885  0.31341181  0.12752716  1
  Zr  Zr41  1  0.69856467  0.30617189  0.12366998  1
  Zr  Zr42  1  0.69608082  0.09556596  0.11461079  1
  Zr  Zr43  1  0.79113666  0.18774753  0.26238604  1
  Zr  Zr44  1  0.39482861  0.19618654  0.49408125  1
  Zr  Zr45  1  0.77945989  0.41194776  0.49343495  1
  Zr  Zr46  1  0.69553224  0.51558148  0.35756628  1
  Zr  Zr47  1  0.91853441  0.08887280  0.39111316  1
  Zr  Zr48  1  0.68004525  0.30302979  0.37107001  1
  Zr  Zr49  1  0.80764569  0.20830976  0.73700997  1
  Zr  Zr50  1  0.91183270  0.10639953  0.86977147  1
  Zr  Zr51  1  0.70170529  0.29658970  0.87735017  1
  Zr  Zr52  1  0.48803750  0.50683067  0.12624998  1
  Zr  Zr53  1  -0.01171212  0.40072346  0.00416717  1
  Zr  Zr54  1  0.89627253  0.68813737  0.86703813  1
  Zr  Zr55  1  0.28690365  0.30140732  0.61939043  1
  Zr  Zr56  1  0.81036052  0.21146962  0.50464330  1
  Zr  Zr57  1  0.40646973  0.59703544  0.49470909  1
  Zr  Zr58  1  0.10449215  0.90380837  0.87162579  1
  Zr  Zr59  1  0.58379841  0.18716986  -0.00732569  1
  Zr  Zr60  1  0.39256085  0.18616803  0.74463618  1
  Zr  Zr61  1  0.10406908  0.70323495  0.85779423  1
  Zr  Zr62  1  0.80787248  0.20617893  -0.00481239  1
  Zr  Zr63  1  0.30879618  0.89827677  0.12807209  1
  Zr  Zr64  1  0.18987212  0.39422001  0.74412267  1
  Zr  Zr65  1  0.20810367  0.01866894  0.74207025  1
  Zr  Zr66  1  0.40011866  0.79404882  0.49576692  1
  Zr  Zr67  1  0.89483105  0.89841487  0.87777703  1
  Zr  Zr68  1  0.31136522  0.70951136  0.64174306  1
  Zr  Zr69  1  -0.01791111  0.39417186  0.73766138  1
  Zr  Zr70  1  0.00897539  0.60385181  0.00735473  1
  Zr  Zr71  1  0.70695587  0.89976116  0.10978393  1
  Zr  Zr72  1  0.30630380  0.90160136  0.87652700  1
  Zr  Zr73  1  0.30276540  0.89987879  0.36430640  1
  Zr  Zr74  1  0.09576624  0.70407359  0.63115499  1
  Zr  Zr75  1  0.21138976  0.61325459  0.48991930  1
  Zr  Zr76  1  0.70523042  0.90399200  0.37663692  1
  Zr  Zr77  1  0.89886995  0.29592686  0.14030493  1
  Zr  Zr78  1  0.59941476  0.21338357  0.50873234  1
  Zr  Zr79  1  0.09205966  0.50016492  0.87305243  1
  Ta  Ta80  1  0.11080201  0.50271186  0.12925877  1
  Ta  Ta81  1  0.60819032  0.59629073  0.50485852  1
  Ta  Ta82  1  0.39979037  0.19873163  0.26232023  1
  Ta  Ta83  1  0.49145409  0.08454828  0.61172898  1
  Ta  Ta84  1  0.39702484  0.39820502  0.26605948  1
  Ta  Ta85  1  0.39485595  0.20079086  -0.00196950  1
  Ta  Ta86  1  0.58909590  0.40121206  0.24366718  1
  Ta  Ta87  1  0.80347758  -0.00015855  0.25359542  1
  Ta  Ta88  1  0.38868869  0.60734955  -0.00314160  1
  Ta  Ta89  1  0.08889071  0.28970221  0.37919289  1
  Ta  Ta90  1  0.60715499  0.00169497  0.24912266  1
  Ta  Ta91  1  0.19682801  0.19876567  0.25082120  1
  Ta  Ta92  1  0.49467643  0.70375574  0.86938434  1
  Ta  Ta93  1  0.80363071  0.59627792  0.01789620  1
  Ta  Ta94  1  0.20210460  0.79906902  0.24922611  1
  Ta  Ta95  1  0.49694174  0.50037320  0.88236222  1
  Ta  Ta96  1  0.50975248  0.49579218  0.36973879  1
  Ta  Ta97  1  0.70070735  0.89837291  0.88921404  1
  Ta  Ta98  1  0.10148835  0.92753264  0.36257247  1
  Ta  Ta99  1  0.91665157  0.08675840  0.61171900  1
  Ta  Ta100  1  -0.00933280  0.38179708  0.50244145  1
  Ta  Ta101  1  0.30370330  0.10465652  0.13622650  1
  Ta  Ta102  1  -0.00703164  0.59336397  0.74038239  1
  Ta  Ta103  1  0.51184230  0.68945257  0.63191653  1
  Ta  Ta104  1  0.70273246  0.08419273  0.88032162  1
  Ta  Ta105  1  0.89931407  0.70086461  0.13701433  1
  Ta  Ta106  1  0.59504659  0.40238064  -0.00235060  1
  Ta  Ta107  1  0.40141488  0.40231327  0.75104020  1
  Ta  Ta108  1  0.80153688  -0.00668841  0.74801478  1
  Ta  Ta109  1  0.10340203  0.70072333  0.14019784  1
  Ta  Ta110  1  0.48973086  0.29917169  0.87497063  1
  Ta  Ta111  1  0.50443414  0.49197299  0.62503284  1
  Ta  Ta112  1  0.28664080  0.30065955  0.37833940  1
  Ta  Ta113  1  0.01044983  0.18314690  0.24846674  1
  Ta  Ta114  1  0.78412594  0.80323716  0.50942530  1
  Ta  Ta115  1  0.20975534  0.60403920  0.26658521  1
  Ta  Ta116  1  0.49575743  0.30222165  0.62869329  1
  Ta  Ta117  1  0.10508062  0.48992209  0.39058705  1
  Ta  Ta118  1  0.09291254  0.29400914  0.87383001  1
  Ta  Ta119  1  0.18309299  0.19532285  0.49755577  1
  Ti  Ti120  1  0.20597545  0.00841147  0.00417819  1
  Ti  Ti121  1  0.20094659  0.82196552  0.73255803  1
  Ti  Ti122  1  -0.00998801  0.80726572  0.74052030  1
  Ti  Ti123  1  0.79803634  0.78542355  0.00739167  1
  Ti  Ti124  1  0.31454046  0.09716423  0.87623845  1
  Ti  Ti125  1  0.70304864  0.70169331  0.63421616  1
  Ti  Ti126  1  0.01180614  0.00459736  -0.00410595  1
  Ti  Ti127  1  0.39670198  0.40131681  -0.00471959  1
  Ti  Ti128  1  0.50645168  0.69064303  0.37083404  1
  Ti  Ti129  1  0.19237510  0.40793069  0.00129586  1
  Ti  Ti130  1  0.39649946  0.59336828  0.26126470  1
  Ti  Ti131  1  0.41379981  0.00343738  0.24201017  1
  Ti  Ti132  1  0.79208652  0.39702192  0.25492741  1
  Ti  Ti133  1  0.40580181  0.59401426  0.75044371  1
  Ti  Ti134  1  0.88708482  0.90314544  0.62683980  1
  Ti  Ti135  1  0.88770540  0.70044184  0.36419998  1
  Ti  Ti136  1  0.60464917  0.80067168  0.75172526  1
  Ti  Ti137  1  0.60959803  -0.02954819  0.51327205  1
  Ti  Ti138  1  0.89253772  0.32494697  0.87362074  1
  Ti  Ti139  1  0.00527257  -0.00154644  0.74264868  1
  Ti  Ti140  1  0.70604126  0.08989176  0.39517972  1
  Ti  Ti141  1  0.58994383  0.19295357  0.25260185  1
  Ti  Ti142  1  0.29454297  0.50549557  0.12296552  1
  Ti  Ti143  1  0.41534840  0.79284795  0.00879169  1
  Ti  Ti144  1  0.30233492  0.68706382  0.12965256  1
  Ti  Ti145  1  0.90069737  0.29424256  0.36748001  1
  Ti  Ti146  1  0.30731396  0.49976746  0.62500365  1
  Ti  Ti147  1  0.11679168  0.10642559  0.87311369  1
  Ti  Ti148  1  0.79068332  0.60586204  0.23821984  1
  Ti  Ti149  1  0.79467826  0.61610025  0.49855684  1
  Ti  Ti150  1  0.51899903  0.89755313  0.12249872  1
  Ti  Ti151  1  0.68027880  0.70583071  0.13299893  1
  Ti  Ti152  1  0.00591081  0.39129599  0.25666598  1
  Ti  Ti153  1  0.79573002  0.80119065  0.24276005  1
  Ti  Ti154  1  0.10023433  0.30210661  0.13188681  1
  Ti  Ti155  1  0.69885142  0.32769160  0.62688715  1
  Ti  Ti156  1  0.19819657  0.59367701  0.73878317  1
  Ti  Ti157  1  0.69280251  0.50214848  0.12771421  1
  Ti  Ti158  1  0.88684282  0.70307265  0.63670999  1
  Ti  Ti159  1  0.29799059  0.09168705  0.60991834  1
  Mo  Mo160  1  0.79297108  0.41098061  0.74569939  1
  Mo  Mo161  1  0.39878686  -0.00851157  0.50165832  1
  Mo  Mo162  1  0.10692059  0.09854184  0.61842897  1
  Mo  Mo163  1  0.30246779  0.50135845  0.37297154  1
  Mo  Mo164  1  0.60251767  0.77968944  0.50752665  1
  Mo  Mo165  1  0.70074798  0.89000209  0.63165212  1
  Mo  Mo166  1  0.49523968  0.29743558  0.36491840  1
  Mo  Mo167  1  0.20127174  0.01164762  0.24135066  1
  Mo  Mo168  1  0.89104066  0.29740768  0.62206803  1
  Mo  Mo169  1  0.08777053  0.91334247  0.63252074  1
  Mo  Mo170  1  0.79376696  0.80637526  0.74335381  1
  Mo  Mo171  1  0.58885701  0.40720081  0.50398569  1
  Mo  Mo172  1  0.01894571  -0.01011826  0.50804110  1
  Mo  Mo173  1  0.19913531  0.39829999  0.48924403  1
  Mo  Mo174  1  0.49679772  0.09370132  0.13651313  1
  Mo  Mo175  1  0.10273658  0.10176967  0.37485458  1
  Mo  Mo176  1  0.00020895  0.79608806  0.24858489  1
  Mo  Mo177  1  0.60164257  -0.00385289  -0.00337113  1
  Mo  Mo178  1  0.58418476  0.60906897  0.23762632  1
  Mo  Mo179  1  0.81335093  -0.00413119  -0.01211991  1
  Mo  Mo180  1  0.80353697  0.60068025  0.74586728  1
  Mo  Mo181  1  0.40924754  0.79778161  0.75118689  1
  Mo  Mo182  1  0.81078054  -0.01315798  0.50692833  1
  Mo  Mo183  1  0.20136979  0.00403133  0.50589988  1
  Mo  Mo184  1  0.40496164  0.00197620  0.74514538  1
  Mo  Mo185  1  0.00192565  0.19892231  0.50941627  1
  Mo  Mo186  1  0.20587409  0.59825447  0.00828010  1
  Mo  Mo187  1  0.60315700  0.80636752  0.24303467  1
  Mo  Mo188  1  0.49250930  0.70431908  0.12148303  1
  Mo  Mo189  1  0.19759730  0.20137279  0.75038934  1
  Mo  Mo190  1  0.30133345  0.70495853  0.36663620  1
  Mo  Mo191  1  0.79479021  0.41162710  0.00986309  1
  Mo  Mo192  1  0.59549151  0.79869666  -0.00401217  1
  Mo  Mo193  1  0.89903858  0.50214319  0.87463316  1
  Mo  Mo194  1  0.30906355  0.91548118  0.62608041  1
  Mo  Mo195  1  0.09457533  0.29763692  0.60789386  1
  Mo  Mo196  1  0.10769628  0.10259311  0.12412989  1
  Mo  Mo197  1  0.50057616  0.10406279  0.87093940  1
  Mo  Mo198  1  -0.00140011  0.00171453  0.24944452  1
  Mo  Mo199  1  0.68928455  0.51523350  0.62538957  1
