# generated using pymatgen
data_HfZrTaTiMo
_symmetry_space_group_name_H-M   'P 1'
_cell_length_a   15.21780819
_cell_length_b   15.22114550
_cell_length_c   16.81087985
_cell_angle_alpha   90.05050496
_cell_angle_beta   90.01095315
_cell_angle_gamma   89.98826103
_symmetry_Int_Tables_number   1
_chemical_formula_structural   HfZrTaTiMo
_chemical_formula_sum   'Hf40 Zr40 Ta40 Ti40 Mo40'
_cell_volume   3893.94400285
_cell_formula_units_Z   40
loop_
 _symmetry_equiv_pos_site_id
 _symmetry_equiv_pos_as_xyz
  1  'x, y, z'
loop_
 _atom_site_type_symbol
 _atom_site_label
 _atom_site_symmetry_multiplicity
 _atom_site_fract_x
 _atom_site_fract_y
 _atom_site_fract_z
 _atom_site_occupancy
  Hf  Hf0  1  0.10360177  0.29656036  0.37085856  1
  Hf  Hf1  1  0.39371932  0.81516806  0.76802162  1
  Hf  Hf2  1  0.28178516  0.28798908  0.60843742  1
  Hf  Hf3  1  0.20455810  0.79214561  0.00737769  1
  Hf  Hf4  1  0.70450174  0.50623067  0.63075785  1
  Hf  Hf5  1  0.39174820  0.20674655  0.75391200  1
  Hf  Hf6  1  0.59206349  0.20666324  0.51923083  1
  Hf  Hf7  1  0.30696298  0.89602868  0.61821046  1
  Hf  Hf8  1  0.29134599  0.49464383  0.14077030  1
  Hf  Hf9  1  0.40704593  0.60180773  0.74097132  1
  Hf  Hf10  1  0.39748246  0.59254042  0.27016821  1
  Hf  Hf11  1  0.50917454  0.68970305  0.87231546  1
  Hf  Hf12  1  -0.00118145  0.38648191  0.76331050  1
  Hf  Hf13  1  0.89546277  0.28805063  0.10608994  1
  Hf  Hf14  1  0.80767517  0.40503706  0.23821524  1
  Hf  Hf15  1  0.18481141  0.59599602  0.49347506  1
  Hf  Hf16  1  0.91785377  0.11439386  0.63788439  1
  Hf  Hf17  1  -0.00401501  0.59556380  0.49960238  1
  Hf  Hf18  1  0.19629118  0.19230138  0.00733945  1
  Hf  Hf19  1  0.80195741  0.60694628  0.48947340  1
  Hf  Hf20  1  0.81167514  0.00280170  0.49437018  1
  Hf  Hf21  1  0.80636811  0.20215852  0.25153553  1
  Hf  Hf22  1  0.79401345  0.60776972  0.25743065  1
  Hf  Hf23  1  0.40274717  0.60397132  0.47995816  1
  Hf  Hf24  1  0.50481597  0.29121479  0.37500381  1
  Hf  Hf25  1  -0.00751931  0.59530664  0.02112311  1
  Hf  Hf26  1  0.09904057  0.90408769  0.35217895  1
  Hf  Hf27  1  0.19119016  0.79108356  0.75393551  1
  Hf  Hf28  1  0.19973649  -0.00539425  0.01842669  1
  Hf  Hf29  1  0.70605547  0.90469626  0.63383666  1
  Hf  Hf30  1  0.50015820  0.90393135  0.61787310  1
  Hf  Hf31  1  0.69060439  0.50943366  0.86572875  1
  Hf  Hf32  1  0.69783900  0.90579592  0.37122660  1
  Hf  Hf33  1  0.80132074  0.41788818  0.00032929  1
  Hf  Hf34  1  0.10727258  0.90702261  0.63427134  1
  Hf  Hf35  1  0.28788952  0.47117346  0.38114989  1
  Hf  Hf36  1  0.39793084  0.39665858  0.73621924  1
  Hf  Hf37  1  0.17539264  0.18557466  0.75776650  1
  Hf  Hf38  1  0.19308660  0.59453144  0.01147334  1
  Hf  Hf39  1  0.39149550  0.60177452  0.00618933  1
  Zr  Zr40  1  0.09041196  0.69875628  0.88021353  1
  Zr  Zr41  1  0.50074957  0.70838574  0.61306128  1
  Zr  Zr42  1  0.29030776  0.08192017  0.63928199  1
  Zr  Zr43  1  0.60335844  0.00875880  0.50675700  1
  Zr  Zr44  1  0.07867096  0.69800639  0.35162431  1
  Zr  Zr45  1  0.02002980  0.01126086  0.49652560  1
  Zr  Zr46  1  0.59950229  0.39904290  0.24166784  1
  Zr  Zr47  1  0.61422096  0.00315010  -0.01045949  1
  Zr  Zr48  1  0.90457363  0.51459228  0.86744116  1
  Zr  Zr49  1  0.50770519  0.48853527  0.37807452  1
  Zr  Zr50  1  0.49650029  0.48830041  0.87731909  1
  Zr  Zr51  1  0.39157208  0.00042924  0.25678777  1
  Zr  Zr52  1  0.69002755  0.29507129  0.11017983  1
  Zr  Zr53  1  0.91180744  0.10125070  0.36998034  1
  Zr  Zr54  1  0.70951944  0.10772541  0.64793900  1
  Zr  Zr55  1  0.49756503  0.71392382  0.12979624  1
  Zr  Zr56  1  0.60330270  0.60618758  0.00826792  1
  Zr  Zr57  1  -0.00035347  0.80229414  0.49458457  1
  Zr  Zr58  1  0.30072466  0.49104930  0.87566389  1
  Zr  Zr59  1  -0.00378250  0.80492763  0.01408372  1
  Zr  Zr60  1  0.20243520  0.58591150  0.73261161  1
  Zr  Zr61  1  0.90741214  0.91635419  0.64149867  1
  Zr  Zr62  1  0.79375147  0.61759341  0.75539938  1
  Zr  Zr63  1  0.10550706  0.49823013  0.87173183  1
  Zr  Zr64  1  0.12315078  0.09623239  0.35025129  1
  Zr  Zr65  1  0.30386578  0.26982647  0.38529720  1
  Zr  Zr66  1  0.60323450  0.80014359  0.75785992  1
  Zr  Zr67  1  0.51116272  0.08539755  0.12291668  1
  Zr  Zr68  1  0.80209377  0.20715591  0.50123717  1
  Zr  Zr69  1  0.29362251  0.70616904  0.60920297  1
  Zr  Zr70  1  0.90013119  0.50130196  0.63722775  1
  Zr  Zr71  1  0.60385101  0.39069728  0.73946347  1
  Zr  Zr72  1  0.40433120  0.79454228  0.27453758  1
  Zr  Zr73  1  0.70440130  0.30718179  0.37566888  1
  Zr  Zr74  1  0.29218541  0.08246440  0.87196303  1
  Zr  Zr75  1  0.32114420  0.88740844  0.12470592  1
  Zr  Zr76  1  0.80139414  0.62746839  0.00283922  1
  Zr  Zr77  1  0.90461210  0.71493545  0.63157376  1
  Zr  Zr78  1  0.49659109  0.49746430  0.13011135  1
  Zr  Zr79  1  0.30147489  0.48894500  0.60041515  1
  Ta  Ta80  1  0.89485646  0.71030623  0.14253234  1
  Ta  Ta81  1  0.10247823  0.69462091  0.14930354  1
  Ta  Ta82  1  0.68884656  0.10598237  0.37140884  1
  Ta  Ta83  1  0.21767587  0.18897977  0.22110378  1
  Ta  Ta84  1  0.79942339  0.80402548  0.49419952  1
  Ta  Ta85  1  0.49570809  0.10519277  0.37296709  1
  Ta  Ta86  1  0.40852930  0.79973629  -0.01555583  1
  Ta  Ta87  1  0.69864614  0.70938473  0.61826472  1
  Ta  Ta88  1  0.39188328  0.37755009  0.24543959  1
  Ta  Ta89  1  0.09628441  0.47023106  0.61823019  1
  Ta  Ta90  1  0.09324209  0.48934528  0.36155221  1
  Ta  Ta91  1  0.50350469  0.09557271  0.86237287  1
  Ta  Ta92  1  0.00724510  0.20308963  0.23618889  1
  Ta  Ta93  1  0.19821102  0.37906060  0.74601609  1
  Ta  Ta94  1  0.80699106  0.81559122  0.76098511  1
  Ta  Ta95  1  0.19484943  0.16641769  0.50274558  1
  Ta  Ta96  1  0.90409703  0.49485549  0.37242654  1
  Ta  Ta97  1  0.38677158  0.01362548  0.48853562  1
  Ta  Ta98  1  0.00455830  0.39854546  0.00106475  1
  Ta  Ta99  1  0.49132888  0.28818606  0.11052954  1
  Ta  Ta100  1  0.89826692  0.88616773  0.35069756  1
  Ta  Ta101  1  0.71640110  0.10121919  0.11998886  1
  Ta  Ta102  1  0.50465612  0.90669639  0.38669858  1
  Ta  Ta103  1  0.69982396  0.11458176  0.86177872  1
  Ta  Ta104  1  0.50012423  0.29009836  0.88963363  1
  Ta  Ta105  1  0.91795447  0.91766658  0.86724290  1
  Ta  Ta106  1  0.78931146  0.00663503  0.25094581  1
  Ta  Ta107  1  0.70325973  0.51552474  0.12807198  1
  Ta  Ta108  1  0.41002111  -0.01262099  -0.01095103  1
  Ta  Ta109  1  0.87937799  0.90728060  0.13405944  1
  Ta  Ta110  1  0.09771883  0.29655165  0.11651367  1
  Ta  Ta111  1  0.60400003  0.81162656  -0.00608689  1
  Ta  Ta112  1  -0.01126165  0.19718426  0.77829544  1
  Ta  Ta113  1  0.19961823  0.39567914  0.01067542  1
  Ta  Ta114  1  0.60698505  0.60621589  0.49193469  1
  Ta  Ta115  1  -0.01046224  0.18797766  -0.01282894  1
  Ta  Ta116  1  0.49137946  0.09608436  0.64304232  1
  Ta  Ta117  1  0.89961103  0.30938941  0.63134415  1
  Ta  Ta118  1  0.61237296  0.39987088  0.51525338  1
  Ta  Ta119  1  -0.00087636  0.00167341  0.01468199  1
  Ti  Ti120  1  0.71043667  0.91854412  0.86381087  1
  Ti  Ti121  1  0.29549421  0.69260905  0.87533466  1
  Ti  Ti122  1  0.69884770  0.71308641  0.37422974  1
  Ti  Ti123  1  0.09759172  0.89578145  0.14020622  1
  Ti  Ti124  1  0.29829451  0.30058810  0.88125110  1
  Ti  Ti125  1  0.70578600  0.71462051  0.87820694  1
  Ti  Ti126  1  0.68613727  0.91080245  0.13267847  1
  Ti  Ti127  1  0.40166504  0.19465917  0.23636312  1
  Ti  Ti128  1  0.20781439  0.80611287  0.25073124  1
  Ti  Ti129  1  0.81351894  0.01622714  -0.00679003  1
  Ti  Ti130  1  0.29589315  0.69109721  0.14261830  1
  Ti  Ti131  1  0.00968528  0.21711651  0.50521273  1
  Ti  Ti132  1  -0.01348138  0.58873091  0.24280952  1
  Ti  Ti133  1  0.69638119  0.30544297  0.88674478  1
  Ti  Ti134  1  0.60084264  0.19056787  0.24418646  1
  Ti  Ti135  1  0.10259218  0.29578237  0.88979886  1
  Ti  Ti136  1  0.59402274  0.40248425  0.00432258  1
  Ti  Ti137  1  0.09658582  0.49541158  0.14014069  1
  Ti  Ti138  1  0.19662089  0.38157937  0.24200121  1
  Ti  Ti139  1  0.69970091  0.72288940  0.13020626  1
  Ti  Ti140  1  0.59800185  0.61172735  0.25765522  1
  Ti  Ti141  1  0.91049517  0.30666763  0.37515827  1
  Ti  Ti142  1  0.39536832  0.80536056  0.47615529  1
  Ti  Ti143  1  0.59673672  0.81319268  0.25327055  1
  Ti  Ti144  1  0.59402174  0.20842716  0.74516646  1
  Ti  Ti145  1  0.50611557  0.50493915  0.61466040  1
  Ti  Ti146  1  0.39772156  0.18692748  -0.00071227  1
  Ti  Ti147  1  0.90490826  0.72036821  0.87117209  1
  Ti  Ti148  1  0.79810182  0.82397494  -0.00424046  1
  Ti  Ti149  1  0.10985345  0.90718137  0.87489809  1
  Ti  Ti150  1  0.80980567  0.40267064  0.50126053  1
  Ti  Ti151  1  0.70280694  0.49821649  0.37693826  1
  Ti  Ti152  1  -0.00653506  0.00696066  0.22908086  1
  Ti  Ti153  1  0.80154059  0.22877993  0.76308004  1
  Ti  Ti154  1  0.01685279  0.61552291  0.73466379  1
  Ti  Ti155  1  -0.00425759  0.39290221  0.23825951  1
  Ti  Ti156  1  0.28128637  0.69864602  0.37227974  1
  Ti  Ti157  1  0.39181225  0.39127128  0.00820127  1
  Ti  Ti158  1  0.19253298  0.80611642  0.48813909  1
  Ti  Ti159  1  0.41703251  0.37799725  0.50914809  1
  Mo  Mo160  1  0.71287788  0.30703582  0.62781079  1
  Mo  Mo161  1  0.40697631  -0.00418804  0.76056782  1
  Mo  Mo162  1  0.09547113  0.09917871  0.13035529  1
  Mo  Mo163  1  0.09767162  0.10371647  0.62982053  1
  Mo  Mo164  1  0.89106862  0.70126591  0.36181265  1
  Mo  Mo165  1  0.59846850  0.00547376  0.25443726  1
  Mo  Mo166  1  0.00228438  0.80525061  0.75916734  1
  Mo  Mo167  1  0.60837377  0.80064150  0.49613107  1
  Mo  Mo168  1  0.19538184  0.59056361  0.25903645  1
  Mo  Mo169  1  0.89615792  0.09808648  0.12504336  1
  Mo  Mo170  1  0.08676562  0.08321502  0.88666064  1
  Mo  Mo171  1  0.59724884  0.60368164  0.73813436  1
  Mo  Mo172  1  0.89288958  0.30242869  0.89461713  1
  Mo  Mo173  1  0.79128140  0.19670622  -0.01344998  1
  Mo  Mo174  1  0.30234317  0.09684542  0.36798513  1
  Mo  Mo175  1  0.90151936  0.50106590  0.12781719  1
  Mo  Mo176  1  0.51496972  0.70858049  0.38199788  1
  Mo  Mo177  1  0.20264485  -0.00269021  0.22462464  1
  Mo  Mo178  1  0.30509094  0.29756706  0.11751677  1
  Mo  Mo179  1  0.20155800  -0.01329986  0.49452095  1
  Mo  Mo180  1  0.80953399  0.01561978  0.76118492  1
  Mo  Mo181  1  0.80218389  0.39761262  0.76547676  1
  Mo  Mo182  1  0.20796991  -0.01541198  0.76049944  1
  Mo  Mo183  1  0.78542070  0.80533931  0.24512868  1
  Mo  Mo184  1  0.02273256  0.01314047  0.75985821  1
  Mo  Mo185  1  0.10035274  0.69710459  0.61822550  1
  Mo  Mo186  1  0.89052894  0.09842241  0.87289966  1
  Mo  Mo187  1  0.40291725  0.18654277  0.50990785  1
  Mo  Mo188  1  0.31384061  0.09756168  0.10961426  1
  Mo  Mo189  1  0.17415084  0.38040253  0.49683087  1
  Mo  Mo190  1  -0.00646970  0.80501247  0.23455676  1
  Mo  Mo191  1  0.51302655  0.89102782  0.12209936  1
  Mo  Mo192  1  0.28891534  0.90386914  0.37825980  1
  Mo  Mo193  1  0.49584073  0.29671267  0.62452045  1
  Mo  Mo194  1  0.60122238  0.00552068  0.75589149  1
  Mo  Mo195  1  0.08342589  0.28198524  0.63014408  1
  Mo  Mo196  1  0.29735262  0.88884101  0.88739240  1
  Mo  Mo197  1  -0.00409298  0.39781444  0.49720775  1
  Mo  Mo198  1  0.59381279  0.19845173  -0.00981696  1
  Mo  Mo199  1  0.50752197  0.90404907  0.87415866  1
