# generated using pymatgen
data_HfZrTaTiMo
_symmetry_space_group_name_H-M   'P 1'
_cell_length_a   15.20815418
_cell_length_b   15.20652836
_cell_length_c   16.84971264
_cell_angle_alpha   89.99309688
_cell_angle_beta   90.05231099
_cell_angle_gamma   90.02438501
_symmetry_Int_Tables_number   1
_chemical_formula_structural   HfZrTaTiMo
_chemical_formula_sum   'Hf40 Zr40 Ta40 Ti40 Mo40'
_cell_volume   3896.71692947
_cell_formula_units_Z   40
loop_
 _symmetry_equiv_pos_site_id
 _symmetry_equiv_pos_as_xyz
  1  'x, y, z'
loop_
 _atom_site_type_symbol
 _atom_site_label
 _atom_site_symmetry_multiplicity
 _atom_site_fract_x
 _atom_site_fract_y
 _atom_site_fract_z
 _atom_site_occupancy
  Hf  Hf0  1  0.49301440  0.88853097  0.61899491  1
  Hf  Hf1  1  0.70518347  0.10167337  0.63794513  1
  Hf  Hf2  1  0.29755862  0.50774226  0.13411760  1
  Hf  Hf3  1  0.09647440  0.30705226  0.12779390  1
  Hf  Hf4  1  0.31059391  0.70016068  0.37477591  1
  Hf  Hf5  1  0.58540391  -0.00476981  0.25485981  1
  Hf  Hf6  1  0.89310477  0.71853881  0.35850638  1
  Hf  Hf7  1  0.00244829  0.19555609  0.75697490  1
  Hf  Hf8  1  0.30164618  0.49895742  0.36524956  1
  Hf  Hf9  1  0.77496501  0.41152206  0.00008972  1
  Hf  Hf10  1  0.89648242  0.30254346  0.13365453  1
  Hf  Hf11  1  0.69644151  0.29563931  0.38101810  1
  Hf  Hf12  1  0.69877693  0.10287837  0.85387894  1
  Hf  Hf13  1  0.80076631  0.40797715  0.26280238  1
  Hf  Hf14  1  0.90082254  0.10742830  0.11048340  1
  Hf  Hf15  1  -0.00601298  0.42191442  -0.00025479  1
  Hf  Hf16  1  -0.00357834  0.02298310  0.25648513  1
  Hf  Hf17  1  0.48011164  0.30006072  0.63975195  1
  Hf  Hf18  1  0.40258490  0.80122989  0.76313507  1
  Hf  Hf19  1  0.70118727  0.87923875  0.37918673  1
  Hf  Hf20  1  0.50217858  0.49199120  0.11387305  1
  Hf  Hf21  1  0.30814751  0.29686269  0.12952990  1
  Hf  Hf22  1  0.89267430  0.30229821  0.64085235  1
  Hf  Hf23  1  0.90301656  0.71223985  0.87730404  1
  Hf  Hf24  1  0.20567428  0.79215906  0.00205955  1
  Hf  Hf25  1  0.40765962  0.40275518  0.50102503  1
  Hf  Hf26  1  0.89853309  0.31579551  0.86024726  1
  Hf  Hf27  1  0.19888369  0.01459157  0.50087220  1
  Hf  Hf28  1  0.49980524  0.09601220  0.64151136  1
  Hf  Hf29  1  0.09318841  0.12037942  0.38256163  1
  Hf  Hf30  1  0.92149845  0.28506857  0.37107392  1
  Hf  Hf31  1  0.19813497  0.40415993  -0.00781295  1
  Hf  Hf32  1  0.90773924  0.90819589  0.12071906  1
  Hf  Hf33  1  0.10064228  0.90060761  0.61765507  1
  Hf  Hf34  1  0.29390050  0.89465942  0.37509789  1
  Hf  Hf35  1  0.29472878  0.29164080  0.36490899  1
  Hf  Hf36  1  0.00764315  0.41040033  0.26485644  1
  Hf  Hf37  1  0.40264645  0.00682099  0.49737964  1
  Hf  Hf38  1  0.01300340  0.21601949  0.51482687  1
  Hf  Hf39  1  0.00209453  -0.00575139  0.74343072  1
  Zr  Zr40  1  0.60421391  0.20221908  -0.01090013  1
  Zr  Zr41  1  0.42251936  0.18255289  0.25122129  1
  Zr  Zr42  1  0.20267151  0.60755123  0.75127304  1
  Zr  Zr43  1  0.81832429  0.40338790  0.48658199  1
  Zr  Zr44  1  0.69575410  0.10501475  0.12954691  1
  Zr  Zr45  1  0.90226414  0.51036858  0.13944891  1
  Zr  Zr46  1  0.70018950  0.89662483  0.61866235  1
  Zr  Zr47  1  0.31648955  0.49156877  0.63929575  1
  Zr  Zr48  1  0.50221697  0.08072312  0.10381334  1
  Zr  Zr49  1  0.40453758  0.78359789  0.23322500  1
  Zr  Zr50  1  0.59067699  0.59674097  0.75010642  1
  Zr  Zr51  1  0.30331300  0.70890006  0.62613620  1
  Zr  Zr52  1  0.30361701  0.08715092  0.10971664  1
  Zr  Zr53  1  0.89851442  0.08788783  0.88084123  1
  Zr  Zr54  1  0.90298808  0.50721889  0.61620290  1
  Zr  Zr55  1  0.18042179  0.59946438  0.00052985  1
  Zr  Zr56  1  0.80600300  0.18921079  0.50487666  1
  Zr  Zr57  1  0.00876446  0.21584381  -0.01745595  1
  Zr  Zr58  1  0.60594389  0.79440355  0.75538926  1
  Zr  Zr59  1  0.09588044  0.07988374  0.10254815  1
  Zr  Zr60  1  0.10971260  0.30677033  0.64040073  1
  Zr  Zr61  1  0.50259115  0.28895981  0.37983269  1
  Zr  Zr62  1  0.59753984  0.39648287  0.24489473  1
  Zr  Zr63  1  0.70131198  0.69232374  0.88897835  1
  Zr  Zr64  1  0.49862830  0.28744431  0.86270772  1
  Zr  Zr65  1  -0.00685650  0.60595880  0.74418434  1
  Zr  Zr66  1  0.81557551  0.60655805  0.01443305  1
  Zr  Zr67  1  0.50531575  0.49445876  0.88958245  1
  Zr  Zr68  1  0.79727373  0.21218879  -0.00867069  1
  Zr  Zr69  1  0.09578993  0.88907610  0.87388847  1
  Zr  Zr70  1  0.18994942  0.18604575  0.24168239  1
  Zr  Zr71  1  0.70024161  0.49348341  0.61172727  1
  Zr  Zr72  1  0.21157799  0.20507781  -0.00923493  1
  Zr  Zr73  1  0.68891023  0.09610948  0.37950941  1
  Zr  Zr74  1  0.59179430  0.58705943  0.50535000  1
  Zr  Zr75  1  0.20012670  0.59474477  0.49858103  1
  Zr  Zr76  1  0.69147802  0.51132189  0.37713269  1
  Zr  Zr77  1  0.79470119  -0.01375217  0.25051021  1
  Zr  Zr78  1  0.39233863  -0.01499241  0.24734217  1
  Zr  Zr79  1  0.10033726  0.50018163  0.62232842  1
  Ta  Ta80  1  0.88885219  0.51410012  0.87167097  1
  Ta  Ta81  1  0.79057886  0.41621047  0.75092086  1
  Ta  Ta82  1  0.38411970  0.60138330  -0.00065127  1
  Ta  Ta83  1  0.81029318  -0.01033290  0.74284991  1
  Ta  Ta84  1  0.39795029  0.38729067  -0.00089603  1
  Ta  Ta85  1  -0.00679981  0.80140623  0.73784737  1
  Ta  Ta86  1  0.20125334  0.38194441  0.49739062  1
  Ta  Ta87  1  0.70681771  0.89945853  0.87811097  1
  Ta  Ta88  1  0.51061119  0.69422070  0.36866386  1
  Ta  Ta89  1  0.10683191  0.08962706  0.88156669  1
  Ta  Ta90  1  0.49780584  0.88545403  0.38424124  1
  Ta  Ta91  1  0.00421933  0.78956140  0.01130046  1
  Ta  Ta92  1  0.20116996  0.80361227  0.50005260  1
  Ta  Ta93  1  0.30748763  0.30296849  0.86648083  1
  Ta  Ta94  1  0.59346344  0.78403821  0.50063959  1
  Ta  Ta95  1  0.49304799  0.50196050  0.36650717  1
  Ta  Ta96  1  0.30009161  0.70260495  0.87422966  1
  Ta  Ta97  1  0.91182218  0.70830902  0.14520248  1
  Ta  Ta98  1  0.68830441  0.29583889  0.63238216  1
  Ta  Ta99  1  0.79876237  0.80945573  0.01391999  1
  Ta  Ta100  1  0.49990023  0.69522690  0.10408834  1
  Ta  Ta101  1  0.20457973  0.19279827  0.76588972  1
  Ta  Ta102  1  0.80882709  0.19089292  0.25901633  1
  Ta  Ta103  1  0.09305127  0.70592428  0.61384396  1
  Ta  Ta104  1  0.09247035  0.90606809  0.38657341  1
  Ta  Ta105  1  0.40547578  0.60550208  0.49968826  1
  Ta  Ta106  1  0.78671002  0.61631511  0.24945730  1
  Ta  Ta107  1  0.89549673  0.70754347  0.61421313  1
  Ta  Ta108  1  0.70356166  0.69767910  0.61998914  1
  Ta  Ta109  1  0.29929463  0.90858509  0.62550374  1
  Ta  Ta110  1  0.08772397  0.49480405  0.86378333  1
  Ta  Ta111  1  0.69470689  0.70902572  0.12040590  1
  Ta  Ta112  1  0.49748173  0.70049607  0.89825795  1
  Ta  Ta113  1  0.31289001  0.09592967  0.87928361  1
  Ta  Ta114  1  0.10804884  0.10368906  0.62960373  1
  Ta  Ta115  1  0.59357811  0.40386838  0.74399235  1
  Ta  Ta116  1  0.10209287  0.71329592  0.37114003  1
  Ta  Ta117  1  0.50548661  0.28667659  0.11725560  1
  Ta  Ta118  1  0.30047650  0.11017201  0.63703070  1
  Ta  Ta119  1  0.79250543  0.61042774  0.74715675  1
  Ti  Ti120  1  0.50228555  0.08969371  0.87108327  1
  Ti  Ti121  1  0.78649168  -0.00058068  0.00152033  1
  Ti  Ti122  1  0.19690304  0.80775098  0.74929486  1
  Ti  Ti123  1  0.20266732  0.61390673  0.25146378  1
  Ti  Ti124  1  0.80685943  -0.00371168  0.50557886  1
  Ti  Ti125  1  0.79926516  0.61466966  0.48285041  1
  Ti  Ti126  1  0.49324623  0.68766914  0.62852579  1
  Ti  Ti127  1  0.59920089  -0.00326149  0.49891086  1
  Ti  Ti128  1  0.80140499  0.80090388  0.50100546  1
  Ti  Ti129  1  0.09258300  0.51910020  0.13856245  1
  Ti  Ti130  1  0.09467821  0.69613798  0.87094260  1
  Ti  Ti131  1  -0.00522756  0.80579312  0.49788981  1
  Ti  Ti132  1  0.59097725  0.60530123  0.23827770  1
  Ti  Ti133  1  0.60828231  0.79924087  0.24138613  1
  Ti  Ti134  1  0.89931235  0.89891649  0.88536206  1
  Ti  Ti135  1  0.20728008  -0.01786388  -0.00978978  1
  Ti  Ti136  1  0.19869783  0.40269498  0.25044447  1
  Ti  Ti137  1  0.28610306  0.88596698  0.12972204  1
  Ti  Ti138  1  0.59629144  -0.01528132  0.75668085  1
  Ti  Ti139  1  0.30136537  0.09878262  0.37194683  1
  Ti  Ti140  1  0.10760103  0.71167861  0.14262033  1
  Ti  Ti141  1  0.39618647  -0.00572677  0.76097735  1
  Ti  Ti142  1  0.40419240  0.39849429  0.24596649  1
  Ti  Ti143  1  0.69770954  0.30417729  0.13306723  1
  Ti  Ti144  1  0.69498225  0.30932436  0.85492962  1
  Ti  Ti145  1  0.30371548  0.50302683  0.86842081  1
  Ti  Ti146  1  0.39851979  0.80313101  0.00359847  1
  Ti  Ti147  1  0.40781608  -0.01870324  -0.01307787  1
  Ti  Ti148  1  0.58312881  0.19444445  0.50882607  1
  Ti  Ti149  1  0.18680637  -0.01604955  0.24977320  1
  Ti  Ti150  1  0.80613867  0.80282943  0.74389429  1
  Ti  Ti151  1  -0.00700118  0.60425966  0.48363164  1
  Ti  Ti152  1  0.61511702  0.58297330  0.00698809  1
  Ti  Ti153  1  0.20759160  -0.00226958  0.75628139  1
  Ti  Ti154  1  -0.01269666  0.01182909  0.51074722  1
  Ti  Ti155  1  0.20161942  0.39684973  0.76142129  1
  Ti  Ti156  1  0.01167329  0.82084478  0.25059060  1
  Ti  Ti157  1  0.10275815  0.50787875  0.37593730  1
  Ti  Ti158  1  0.90265040  0.91272767  0.37790984  1
  Ti  Ti159  1  0.38163204  0.20148780  0.50432704  1
  Mo  Mo160  1  0.69675053  0.50983525  0.13654371  1
  Mo  Mo161  1  0.00004518  -0.01191078  -0.00881334  1
  Mo  Mo162  1  0.19641825  0.80521488  0.25490096  1
  Mo  Mo163  1  0.40203189  0.19611838  -0.00555068  1
  Mo  Mo164  1  0.39686218  0.40751218  0.76059876  1
  Mo  Mo165  1  0.30079349  0.89898991  0.87475851  1
  Mo  Mo166  1  0.69031123  0.70551050  0.36960896  1
  Mo  Mo167  1  -0.00171360  0.20230955  0.24402137  1
  Mo  Mo168  1  0.29957442  0.69620710  0.12554616  1
  Mo  Mo169  1  0.00508394  0.61040259  0.00152834  1
  Mo  Mo170  1  0.59965959  0.19735192  0.74970938  1
  Mo  Mo171  1  0.40977703  0.59298894  0.24459632  1
  Mo  Mo172  1  0.21070937  0.20007895  0.50505630  1
  Mo  Mo173  1  0.60079434  0.39247216  0.00653837  1
  Mo  Mo174  1  0.29461350  0.29376238  0.63782392  1
  Mo  Mo175  1  0.59651962  0.38514721  0.50849038  1
  Mo  Mo176  1  0.79789616  0.20401786  0.74703361  1
  Mo  Mo177  1  0.68895323  0.90165512  0.11584195  1
  Mo  Mo178  1  0.40229987  0.79621607  0.49944063  1
  Mo  Mo179  1  0.10602026  0.30550923  0.86399248  1
  Mo  Mo180  1  0.01651105  0.41410899  0.48036201  1
  Mo  Mo181  1  0.50386806  0.89945204  0.87932940  1
  Mo  Mo182  1  0.89915455  0.09514100  0.38275820  1
  Mo  Mo183  1  0.61014997  0.19434195  0.24512386  1
  Mo  Mo184  1  0.90646599  0.09487536  0.62996812  1
  Mo  Mo185  1  0.79615502  0.80363821  0.23310533  1
  Mo  Mo186  1  0.49611737  0.49974040  0.63101830  1
  Mo  Mo187  1  0.90725548  0.51928346  0.37014267  1
  Mo  Mo188  1  -0.00491622  0.40861266  0.75665373  1
  Mo  Mo189  1  0.89910608  0.89687173  0.61715910  1
  Mo  Mo190  1  0.49596911  0.09190951  0.38652135  1
  Mo  Mo191  1  0.39238037  0.18853714  0.75663410  1
  Mo  Mo192  1  0.51321791  0.88368546  0.11345973  1
  Mo  Mo193  1  0.40383402  0.60582119  0.77082560  1
  Mo  Mo194  1  0.00822557  0.61492182  0.26295205  1
  Mo  Mo195  1  0.11238768  0.31220181  0.37428411  1
  Mo  Mo196  1  0.59966231  0.80336905  -0.00272836  1
  Mo  Mo197  1  0.70202396  0.49679304  0.86989327  1
  Mo  Mo198  1  0.10136278  0.89505106  0.12338623  1
  Mo  Mo199  1  0.60440824  -0.01039447  -0.01724907  1
