# generated using pymatgen
data_HfZrTaTiMo
_symmetry_space_group_name_H-M   'P 1'
_cell_length_a   15.21406180
_cell_length_b   15.20302904
_cell_length_c   16.82220795
_cell_angle_alpha   89.99634794
_cell_angle_beta   90.03006597
_cell_angle_gamma   89.95916365
_symmetry_Int_Tables_number   1
_chemical_formula_structural   HfZrTaTiMo
_chemical_formula_sum   'Hf40 Zr40 Ta40 Ti40 Mo40'
_cell_volume   3890.97219483
_cell_formula_units_Z   40
loop_
 _symmetry_equiv_pos_site_id
 _symmetry_equiv_pos_as_xyz
  1  'x, y, z'
loop_
 _atom_site_type_symbol
 _atom_site_label
 _atom_site_symmetry_multiplicity
 _atom_site_fract_x
 _atom_site_fract_y
 _atom_site_fract_z
 _atom_site_occupancy
  Hf  Hf0  1  0.10184188  0.49452144  0.61686265  1
  Hf  Hf1  1  0.80693780  0.40561635  0.76169323  1
  Hf  Hf2  1  0.90705819  0.29706243  0.13151882  1
  Hf  Hf3  1  0.60568437  0.00570246  0.25912825  1
  Hf  Hf4  1  0.00950460  0.37703512  0.49510543  1
  Hf  Hf5  1  0.21078396  0.38223740  0.24872746  1
  Hf  Hf6  1  0.78226069  0.59160389  0.49531899  1
  Hf  Hf7  1  0.01633121  0.20185656  0.00491801  1
  Hf  Hf8  1  0.50640899  0.52213116  0.62937084  1
  Hf  Hf9  1  0.59808702  0.80355639  0.01703718  1
  Hf  Hf10  1  0.18484245  0.79620078  0.24451892  1
  Hf  Hf11  1  0.39114894  0.20714937  0.26146523  1
  Hf  Hf12  1  0.90460906  0.50053411  0.11599651  1
  Hf  Hf13  1  0.49281917  0.89757419  0.87320860  1
  Hf  Hf14  1  0.90170686  0.09711083  0.63518452  1
  Hf  Hf15  1  0.08737759  0.10832749  0.39007321  1
  Hf  Hf16  1  0.41259272  0.39977062  0.23917259  1
  Hf  Hf17  1  0.79435024  0.80669540  0.01029370  1
  Hf  Hf18  1  0.41181636  0.79499371  0.49520021  1
  Hf  Hf19  1  0.08893710  0.70609596  0.62095708  1
  Hf  Hf20  1  0.90328248  0.09144299  0.12967815  1
  Hf  Hf21  1  0.69250817  0.68995307  0.88151129  1
  Hf  Hf22  1  0.90026564  0.69487926  0.88637968  1
  Hf  Hf23  1  0.79983089  0.39824518  0.24836375  1
  Hf  Hf24  1  0.00061270  0.80244809  0.01075789  1
  Hf  Hf25  1  0.10411460  0.51027245  0.11448599  1
  Hf  Hf26  1  0.70189497  0.49951021  0.11990018  1
  Hf  Hf27  1  0.90699562  0.09767713  0.85604969  1
  Hf  Hf28  1  0.31038907  0.30297091  0.86859044  1
  Hf  Hf29  1  0.50129319  0.68789322  0.35015862  1
  Hf  Hf30  1  0.80258988  0.61138419  0.24955092  1
  Hf  Hf31  1  0.49799896  0.10807572  0.13059847  1
  Hf  Hf32  1  0.78349851  0.79104444  0.50459254  1
  Hf  Hf33  1  0.89936286  0.09193341  0.37433700  1
  Hf  Hf34  1  0.39920675  0.20799874  0.73845887  1
  Hf  Hf35  1  0.20026136  0.77864211  0.01680502  1
  Hf  Hf36  1  0.29835878  0.70978835  0.37331266  1
  Hf  Hf37  1  0.89194401  0.48771936  0.61321171  1
  Hf  Hf38  1  0.49447085  0.10027362  0.61893555  1
  Hf  Hf39  1  0.89207872  0.89243208  0.38271875  1
  Zr  Zr40  1  0.11099565  0.09900749  0.85627829  1
  Zr  Zr41  1  0.80527668  0.19348417  -0.00507429  1
  Zr  Zr42  1  0.59965098  0.20935397  0.50266705  1
  Zr  Zr43  1  0.49869039  0.11736717  0.86627716  1
  Zr  Zr44  1  0.40345431  0.20875749  0.00042697  1
  Zr  Zr45  1  0.60582776  0.00905997  0.76156394  1
  Zr  Zr46  1  0.29346247  0.89503324  0.86410126  1
  Zr  Zr47  1  0.01939344  0.40435742  0.25634203  1
  Zr  Zr48  1  0.10366631  0.68857808  0.87013192  1
  Zr  Zr49  1  -0.01896633  0.79732445  0.23821027  1
  Zr  Zr50  1  0.39214204  0.00250559  0.27135148  1
  Zr  Zr51  1  0.60672030  0.21731881  -0.00505834  1
  Zr  Zr52  1  0.19761194  0.59124157  0.74452486  1
  Zr  Zr53  1  0.60745195  0.00575606  -0.00835986  1
  Zr  Zr54  1  0.70232671  0.10426664  0.62788701  1
  Zr  Zr55  1  0.89443622  0.49181091  0.38160557  1
  Zr  Zr56  1  0.30390865  0.89864409  0.62854196  1
  Zr  Zr57  1  0.00016247  0.00087273  -0.00242689  1
  Zr  Zr58  1  0.20560404  0.38757678  0.00244885  1
  Zr  Zr59  1  0.38667746  0.60920511  0.01291963  1
  Zr  Zr60  1  0.09515440  0.89339577  0.86486514  1
  Zr  Zr61  1  0.31285741  0.49335236  0.37703146  1
  Zr  Zr62  1  0.09293165  0.89142715  0.38271264  1
  Zr  Zr63  1  0.81151213  0.21546921  0.50189809  1
  Zr  Zr64  1  0.29362277  0.90939372  0.13305768  1
  Zr  Zr65  1  0.62039307  0.41784397  0.51139700  1
  Zr  Zr66  1  0.91609168  0.28240571  0.36185641  1
  Zr  Zr67  1  0.80320886  0.79036282  0.75043922  1
  Zr  Zr68  1  0.58904476  0.60070652  0.01651466  1
  Zr  Zr69  1  0.50392951  0.50064267  0.37969640  1
  Zr  Zr70  1  0.49772737  0.51061970  0.86917380  1
  Zr  Zr71  1  0.39311093  -0.00424001  0.48307361  1
  Zr  Zr72  1  0.39998329  0.80040057  0.01724312  1
  Zr  Zr73  1  0.39201669  0.00563375  0.00102248  1
  Zr  Zr74  1  0.59495546  -0.01352090  0.48873302  1
  Zr  Zr75  1  0.19076315  0.59125278  0.26447377  1
  Zr  Zr76  1  0.91191401  0.29953304  0.86762445  1
  Zr  Zr77  1  0.20563249  0.18131093  0.00178938  1
  Zr  Zr78  1  0.59718862  0.80012985  0.75576530  1
  Zr  Zr79  1  0.69496288  0.89534555  0.62294041  1
  Ta  Ta80  1  0.00303366  0.39584820  -0.00215337  1
  Ta  Ta81  1  0.10402113  0.10955019  0.61983577  1
  Ta  Ta82  1  0.21542279  0.39684371  0.49870924  1
  Ta  Ta83  1  0.29613979  0.50325580  0.87836151  1
  Ta  Ta84  1  0.59714116  0.21067777  0.25814600  1
  Ta  Ta85  1  0.20014398  0.39498609  0.75028641  1
  Ta  Ta86  1  0.60672090  0.41386442  0.74158558  1
  Ta  Ta87  1  0.79250306  0.19296845  0.24982042  1
  Ta  Ta88  1  0.89288960  0.68786492  0.62017075  1
  Ta  Ta89  1  0.39400322  0.41517827  0.73521404  1
  Ta  Ta90  1  0.19649049  0.80202559  0.50288357  1
  Ta  Ta91  1  0.42061613  0.40414467  0.01151944  1
  Ta  Ta92  1  0.70129568  0.10035313  0.12868008  1
  Ta  Ta93  1  0.79968040  -0.00483513  -0.01684715  1
  Ta  Ta94  1  0.00105555  0.60209186  0.48738524  1
  Ta  Ta95  1  0.90589055  0.88710290  0.61699609  1
  Ta  Ta96  1  0.70146609  0.30874657  0.37228785  1
  Ta  Ta97  1  0.60163411  0.39944866  0.24686956  1
  Ta  Ta98  1  0.19595417  -0.00091160  0.50348217  1
  Ta  Ta99  1  0.00338326  0.60631450  0.26190142  1
  Ta  Ta100  1  0.80041733  -0.00755547  0.24885498  1
  Ta  Ta101  1  0.50405501  0.87831782  0.35764521  1
  Ta  Ta102  1  0.29034209  0.30510622  0.62659847  1
  Ta  Ta103  1  0.48778494  0.70327829  0.87106784  1
  Ta  Ta104  1  0.70365354  0.10417389  0.37727510  1
  Ta  Ta105  1  0.80462562  -0.01474106  0.76130879  1
  Ta  Ta106  1  0.69008771  0.51126040  0.36200638  1
  Ta  Ta107  1  0.89742000  0.68743847  0.11123923  1
  Ta  Ta108  1  0.19562795  0.60043577  0.49096758  1
  Ta  Ta109  1  0.30215880  0.50110378  0.12657753  1
  Ta  Ta110  1  0.80021617  -0.00025147  0.50043962  1
  Ta  Ta111  1  0.29974546  0.69391393  0.61899816  1
  Ta  Ta112  1  0.28213500  0.11856060  0.38926881  1
  Ta  Ta113  1  0.19181768  0.00871411  0.26578561  1
  Ta  Ta114  1  0.50919766  0.32102256  0.86145564  1
  Ta  Ta115  1  0.79428531  0.39399250  -0.00593560  1
  Ta  Ta116  1  0.69051174  0.71014932  0.36037740  1
  Ta  Ta117  1  0.50570821  0.90401490  0.14258936  1
  Ta  Ta118  1  0.00068281  -0.00089081  0.24974986  1
  Ta  Ta119  1  0.71759932  0.31448610  0.63401325  1
  Ti  Ti120  1  0.01848697  0.20897961  0.74189052  1
  Ti  Ti121  1  0.28758498  0.10087792  0.13728254  1
  Ti  Ti122  1  0.09272209  0.91249338  0.12962623  1
  Ti  Ti123  1  0.00879369  0.40849599  0.75409507  1
  Ti  Ti124  1  0.90063167  0.50501055  0.89025684  1
  Ti  Ti125  1  -0.00619140  0.79583561  0.74744411  1
  Ti  Ti126  1  0.09869733  0.49675339  0.88430456  1
  Ti  Ti127  1  0.91187880  0.29609547  0.63509026  1
  Ti  Ti128  1  0.00563363  -0.01670543  0.73583794  1
  Ti  Ti129  1  0.70232600  0.29678417  0.86350816  1
  Ti  Ti130  1  0.59301930  0.62633016  0.49776931  1
  Ti  Ti131  1  0.39817800  0.00042867  0.74607465  1
  Ti  Ti132  1  0.69642756  0.29702501  0.12609731  1
  Ti  Ti133  1  0.30417105  0.29284862  0.12295582  1
  Ti  Ti134  1  0.29958987  0.70005034  0.86965920  1
  Ti  Ti135  1  0.50201229  0.31119289  0.62430381  1
  Ti  Ti136  1  0.69469262  0.49381196  0.88718574  1
  Ti  Ti137  1  0.11112751  0.29951817  0.86737035  1
  Ti  Ti138  1  0.78997817  0.59231549  0.75080358  1
  Ti  Ti139  1  0.49630781  0.71385434  0.63415530  1
  Ti  Ti140  1  0.19364296  -0.00962628  0.00004707  1
  Ti  Ti141  1  0.00036551  -0.00809533  0.51359246  1
  Ti  Ti142  1  0.20014513  0.00637309  0.73131275  1
  Ti  Ti143  1  -0.01608529  0.59462266  0.74950623  1
  Ti  Ti144  1  0.39422218  0.61058615  0.74669570  1
  Ti  Ti145  1  0.89610867  0.70366896  0.38073160  1
  Ti  Ti146  1  0.68609989  0.68253935  0.63384776  1
  Ti  Ti147  1  0.60850198  0.21414086  0.74338185  1
  Ti  Ti148  1  0.12626923  0.28899181  0.37713145  1
  Ti  Ti149  1  0.49735689  0.31132501  0.38830397  1
  Ti  Ti150  1  0.19900120  0.79950097  0.73662488  1
  Ti  Ti151  1  0.29712745  0.10758752  0.61417800  1
  Ti  Ti152  1  0.69796013  0.89382577  0.37298510  1
  Ti  Ti153  1  0.49931496  0.11290219  0.38311328  1
  Ti  Ti154  1  0.39201266  0.79351575  0.23805729  1
  Ti  Ti155  1  0.39349984  0.59480561  0.50743018  1
  Ti  Ti156  1  0.78624309  0.80818063  0.22770525  1
  Ti  Ti157  1  0.49749365  0.90031699  0.63045895  1
  Ti  Ti158  1  0.38754442  0.21991823  0.50088974  1
  Ti  Ti159  1  0.29958743  0.09790298  0.86193576  1
  Mo  Mo160  1  0.70608555  0.50973087  0.63260581  1
  Mo  Mo161  1  0.08848471  0.69044864  0.12584918  1
  Mo  Mo162  1  0.89660573  0.90342469  0.12743240  1
  Mo  Mo163  1  0.28577557  0.68883568  0.13990377  1
  Mo  Mo164  1  0.70113872  0.91691226  0.12625319  1
  Mo  Mo165  1  0.79929623  0.59452956  -0.00214355  1
  Mo  Mo166  1  0.50213383  0.49482988  0.12723262  1
  Mo  Mo167  1  0.08996653  0.69881948  0.38532640  1
  Mo  Mo168  1  0.10490830  0.29340461  0.12817802  1
  Mo  Mo169  1  0.70072279  0.70176548  0.13116763  1
  Mo  Mo170  1  0.00285914  0.59507153  -0.00490595  1
  Mo  Mo171  1  0.10517893  0.49082358  0.38910984  1
  Mo  Mo172  1  0.31102350  0.30071437  0.38397042  1
  Mo  Mo173  1  0.59379993  0.79304278  0.49426815  1
  Mo  Mo174  1  0.39376484  0.60044013  0.23368650  1
  Mo  Mo175  1  0.40740251  0.40134650  0.52191955  1
  Mo  Mo176  1  0.19451007  0.20775461  0.50882194  1
  Mo  Mo177  1  0.01750598  0.19197963  0.24004577  1
  Mo  Mo178  1  0.20626707  0.19952895  0.74279305  1
  Mo  Mo179  1  0.19914066  0.19475093  0.25007531  1
  Mo  Mo180  1  0.49626627  0.69928300  0.14740111  1
  Mo  Mo181  1  0.79900533  0.39577240  0.49461377  1
  Mo  Mo182  1  0.90166446  0.89462851  0.86903473  1
  Mo  Mo183  1  0.80073334  0.20059787  0.74849370  1
  Mo  Mo184  1  0.70624609  0.90091311  0.87793339  1
  Mo  Mo185  1  0.00320829  0.19107008  0.51361405  1
  Mo  Mo186  1  0.71070465  0.10913146  0.85879848  1
  Mo  Mo187  1  0.10770052  0.09473954  0.13443566  1
  Mo  Mo188  1  0.60391518  0.39523451  -0.00392179  1
  Mo  Mo189  1  0.30206068  0.50430021  0.61803304  1
  Mo  Mo190  1  0.60434002  0.80219864  0.23436480  1
  Mo  Mo191  1  0.60035158  0.60284187  0.75643826  1
  Mo  Mo192  1  0.60095874  0.59726866  0.23245046  1
  Mo  Mo193  1  0.20135564  0.59209882  -0.00643829  1
  Mo  Mo194  1  -0.00841645  0.79342246  0.50528597  1
  Mo  Mo195  1  0.09850606  0.30466206  0.63433928  1
  Mo  Mo196  1  0.09839197  0.90193176  0.62480177  1
  Mo  Mo197  1  0.39194070  0.79371735  0.74593143  1
  Mo  Mo198  1  0.50932229  0.30022323  0.12944152  1
  Mo  Mo199  1  0.29358431  0.90143518  0.37448470  1
