# generated using pymatgen
data_HfZrTaTiMo
_symmetry_space_group_name_H-M   'P 1'
_cell_length_a   15.21250513
_cell_length_b   15.22122779
_cell_length_c   16.85238488
_cell_angle_alpha   90.00713217
_cell_angle_beta   89.98070282
_cell_angle_gamma   90.01049231
_symmetry_Int_Tables_number   1
_chemical_formula_structural   HfZrTaTiMo
_chemical_formula_sum   'Hf40 Zr40 Ta40 Ti40 Mo40'
_cell_volume   3902.22006003
_cell_formula_units_Z   40
loop_
 _symmetry_equiv_pos_site_id
 _symmetry_equiv_pos_as_xyz
  1  'x, y, z'
loop_
 _atom_site_type_symbol
 _atom_site_label
 _atom_site_symmetry_multiplicity
 _atom_site_fract_x
 _atom_site_fract_y
 _atom_site_fract_z
 _atom_site_occupancy
  Hf  Hf0  1  0.68690767  0.89409458  0.62935834  1
  Hf  Hf1  1  0.60925081  0.40264113  0.49977608  1
  Hf  Hf2  1  0.41252186  0.38510227  0.49355662  1
  Hf  Hf3  1  0.32422431  0.49321001  0.12418792  1
  Hf  Hf4  1  0.58956234  0.01287598  0.49556113  1
  Hf  Hf5  1  0.79737030  0.19684601  0.24520450  1
  Hf  Hf6  1  0.40212256  0.18159010  0.49784196  1
  Hf  Hf7  1  0.11095422  0.71135468  0.39972353  1
  Hf  Hf8  1  0.89153252  0.70622220  0.12211368  1
  Hf  Hf9  1  0.90098387  0.90634530  0.11320472  1
  Hf  Hf10  1  -0.00451040  0.39344114  0.50293246  1
  Hf  Hf11  1  0.80799301  0.20565749  0.49916632  1
  Hf  Hf12  1  0.50730779  0.50332275  0.86335737  1
  Hf  Hf13  1  0.00195118  0.59321546  0.51170005  1
  Hf  Hf14  1  0.29998108  0.68831908  0.39428645  1
  Hf  Hf15  1  0.09722880  0.90635103  0.86167791  1
  Hf  Hf16  1  0.58531791  0.01156596  0.74357844  1
  Hf  Hf17  1  0.19210288  0.02174128  0.49769387  1
  Hf  Hf18  1  0.29380474  0.68171032  0.87666863  1
  Hf  Hf19  1  0.59534674  0.80230133  -0.00198780  1
  Hf  Hf20  1  0.41149751  0.58511533  0.25826279  1
  Hf  Hf21  1  0.09075799  0.09895047  0.13048771  1
  Hf  Hf22  1  0.07598062  0.91260812  0.38207672  1
  Hf  Hf23  1  0.70016253  0.69826327  0.87064591  1
  Hf  Hf24  1  0.00211055  0.20342783  -0.00512416  1
  Hf  Hf25  1  0.61012064  0.59920055  0.51021012  1
  Hf  Hf26  1  -0.00455858  0.81807643  0.52140268  1
  Hf  Hf27  1  0.79739752  -0.00201429  0.25194256  1
  Hf  Hf28  1  0.19944883  0.19699619  -0.00537187  1
  Hf  Hf29  1  0.28415914  0.88697987  0.37492119  1
  Hf  Hf30  1  0.90526413  0.67832084  0.87717377  1
  Hf  Hf31  1  -0.01235332  0.80278219  0.73546852  1
  Hf  Hf32  1  0.08315928  0.51254203  0.87282236  1
  Hf  Hf33  1  0.39630128  0.78545407  0.00251683  1
  Hf  Hf34  1  0.69675104  0.89430862  0.12716886  1
  Hf  Hf35  1  0.29029088  0.89617634  0.12804968  1
  Hf  Hf36  1  0.61522610  0.39400834  0.01143651  1
  Hf  Hf37  1  0.00070327  0.41630302  0.73660901  1
  Hf  Hf38  1  0.00046653  0.62016402  0.24571638  1
  Hf  Hf39  1  0.28764805  0.28498770  0.61331418  1
  Zr  Zr40  1  0.71036729  0.10342184  0.38360380  1
  Zr  Zr41  1  0.21299334  0.21318767  0.76039911  1
  Zr  Zr42  1  0.21127506  0.60807112  0.24157730  1
  Zr  Zr43  1  0.29908665  0.09908076  0.12988487  1
  Zr  Zr44  1  0.01790917  0.40298047  0.01702981  1
  Zr  Zr45  1  0.81040791  0.79923996  0.26238848  1
  Zr  Zr46  1  0.89147393  0.90853616  0.87246456  1
  Zr  Zr47  1  0.19085104  0.80033649  0.00345605  1
  Zr  Zr48  1  0.39890451  0.80394067  0.74345245  1
  Zr  Zr49  1  0.50200007  0.09645374  0.88564460  1
  Zr  Zr50  1  0.19121052  0.77839121  0.73925784  1
  Zr  Zr51  1  0.60242564  0.01370886  0.25511188  1
  Zr  Zr52  1  0.90258796  0.32183369  0.87982098  1
  Zr  Zr53  1  0.28517416  0.48275189  0.88121987  1
  Zr  Zr54  1  0.40374825  0.20522516  0.00645292  1
  Zr  Zr55  1  0.49751930  0.69421292  0.13254590  1
  Zr  Zr56  1  0.50111649  0.69724588  0.86309547  1
  Zr  Zr57  1  0.19180121  -0.00578635  0.25548608  1
  Zr  Zr58  1  0.37749138  0.59311674  0.73639058  1
  Zr  Zr59  1  0.29794467  0.28535646  0.37230332  1
  Zr  Zr60  1  0.51748264  0.29865613  0.87318173  1
  Zr  Zr61  1  0.82625940  0.58835240  0.73807650  1
  Zr  Zr62  1  0.60097388  0.80856411  0.48533113  1
  Zr  Zr63  1  0.50489632  0.48612475  0.63857797  1
  Zr  Zr64  1  0.10309232  0.49609336  0.36234096  1
  Zr  Zr65  1  0.71844533  0.49618468  0.88340150  1
  Zr  Zr66  1  0.78764673  0.39028951  0.74352260  1
  Zr  Zr67  1  0.19533767  0.59656377  0.02080438  1
  Zr  Zr68  1  0.29500498  0.90079710  0.87223591  1
  Zr  Zr69  1  0.50443033  0.71079259  0.62590977  1
  Zr  Zr70  1  0.27741451  0.68789741  0.59391228  1
  Zr  Zr71  1  0.49892648  0.69370876  0.37615231  1
  Zr  Zr72  1  0.48520556  0.90633206  0.35748948  1
  Zr  Zr73  1  0.90346410  0.70671293  0.38915737  1
  Zr  Zr74  1  0.88686108  0.49655665  0.37084223  1
  Zr  Zr75  1  0.02216576  0.20172328  0.50063108  1
  Zr  Zr76  1  0.89199752  0.11143371  0.87554702  1
  Zr  Zr77  1  0.38408044  0.37874751  0.75459155  1
  Zr  Zr78  1  0.79324244  0.80235966  -0.01051524  1
  Zr  Zr79  1  0.48962178  0.90328592  0.14164539  1
  Ta  Ta80  1  0.89988172  0.29264228  0.62915068  1
  Ta  Ta81  1  0.88927940  0.70421035  0.61615184  1
  Ta  Ta82  1  0.70369380  0.31698855  0.36898631  1
  Ta  Ta83  1  -0.00036740  0.21114079  0.74938795  1
  Ta  Ta84  1  0.29480622  0.90270039  0.62258879  1
  Ta  Ta85  1  0.00134248  0.79476682  -0.00610994  1
  Ta  Ta86  1  0.50432928  0.28358390  0.63126552  1
  Ta  Ta87  1  0.61853449  0.19302895  0.01933411  1
  Ta  Ta88  1  0.30866188  0.48811121  0.37930965  1
  Ta  Ta89  1  -0.00845762  0.01143213  0.73347692  1
  Ta  Ta90  1  0.08691168  0.89678776  0.12466578  1
  Ta  Ta91  1  0.61880313  0.20648813  0.74777155  1
  Ta  Ta92  1  -0.01456993  0.00050324  0.24986141  1
  Ta  Ta93  1  0.48594784  0.91789220  0.62311224  1
  Ta  Ta94  1  -0.01042855  0.59595514  0.01850710  1
  Ta  Ta95  1  0.78833921  0.79640332  0.74511888  1
  Ta  Ta96  1  0.29674560  0.09031581  0.87342795  1
  Ta  Ta97  1  0.39117899  -0.00500446  0.49410898  1
  Ta  Ta98  1  0.89376580  0.10185143  0.11583050  1
  Ta  Ta99  1  0.41413702  0.18002957  0.74980367  1
  Ta  Ta100  1  0.19004532  0.38304502  0.49259974  1
  Ta  Ta101  1  0.49500933  0.31209296  0.13296867  1
  Ta  Ta102  1  0.49826132  0.90255759  0.87368484  1
  Ta  Ta103  1  0.62384678  0.60223419  0.73462449  1
  Ta  Ta104  1  0.41023063  0.40490484  -0.00408906  1
  Ta  Ta105  1  0.11492597  0.31476627  0.87022497  1
  Ta  Ta106  1  0.79367823  0.01004818  0.73775462  1
  Ta  Ta107  1  0.61279035  0.79211045  0.26418610  1
  Ta  Ta108  1  0.09962868  0.09859427  0.86114189  1
  Ta  Ta109  1  0.90723884  0.29331062  0.13028201  1
  Ta  Ta110  1  0.59672672  0.21333214  0.49193555  1
  Ta  Ta111  1  0.79580724  0.39862646  0.23398494  1
  Ta  Ta112  1  0.69882954  0.10362197  0.87470632  1
  Ta  Ta113  1  0.10523014  0.91320007  0.63082383  1
  Ta  Ta114  1  0.90293196  0.29423162  0.36298852  1
  Ta  Ta115  1  0.78696081  0.59191733  0.24171365  1
  Ta  Ta116  1  0.11041521  0.11632649  0.63949482  1
  Ta  Ta117  1  0.78251751  0.01909763  0.00319465  1
  Ta  Ta118  1  0.40165515  0.20534293  0.24409873  1
  Ta  Ta119  1  0.59424980  -0.00003128  0.00620517  1
  Ti  Ti120  1  0.81476550  0.40974745  0.02654955  1
  Ti  Ti121  1  0.69552280  0.30297275  0.62302254  1
  Ti  Ti122  1  -0.00683516  0.39782460  0.24221835  1
  Ti  Ti123  1  0.11656657  0.49718853  0.61945882  1
  Ti  Ti124  1  0.22441770  0.39270389  0.24417717  1
  Ti  Ti125  1  0.30217464  0.09311914  0.35974370  1
  Ti  Ti126  1  0.50195558  0.10129233  0.13160633  1
  Ti  Ti127  1  0.52063228  0.48984579  0.37071704  1
  Ti  Ti128  1  0.51738275  0.50461586  0.12622432  1
  Ti  Ti129  1  0.79608660  0.59226703  0.51261390  1
  Ti  Ti130  1  0.69174445  0.69061537  0.12594301  1
  Ti  Ti131  1  0.31099769  0.08673622  0.63446643  1
  Ti  Ti132  1  0.09806135  0.69898497  0.87291191  1
  Ti  Ti133  1  0.70679245  0.68347057  0.37607970  1
  Ti  Ti134  1  0.79767402  -0.00335044  0.51775328  1
  Ti  Ti135  1  0.61122793  0.41575327  0.24435310  1
  Ti  Ti136  1  0.49407443  0.11426690  0.36275915  1
  Ti  Ti137  1  0.79085758  0.79905827  0.50429153  1
  Ti  Ti138  1  0.69668984  0.11338739  0.61898497  1
  Ti  Ti139  1  0.21304072  0.38406272  0.01542654  1
  Ti  Ti140  1  0.29599223  0.48468228  0.61140682  1
  Ti  Ti141  1  -0.01545880  0.01479476  0.52810597  1
  Ti  Ti142  1  0.41066340  0.58134300  0.50118075  1
  Ti  Ti143  1  0.68995410  0.91060736  0.86456965  1
  Ti  Ti144  1  0.59835617  0.59790015  -0.00104267  1
  Ti  Ti145  1  0.11098671  0.29253588  0.14525678  1
  Ti  Ti146  1  0.39115723  -0.00495885  0.00252242  1
  Ti  Ti147  1  0.91454413  0.09949167  0.37870465  1
  Ti  Ti148  1  0.37804004  0.78657737  0.24763133  1
  Ti  Ti149  1  0.09896024  0.29944285  0.35340646  1
  Ti  Ti150  1  0.80070693  0.40336937  0.50749189  1
  Ti  Ti151  1  0.39847739  0.80649125  0.50311717  1
  Ti  Ti152  1  0.88515852  0.91146806  0.38916953  1
  Ti  Ti153  1  0.10266524  0.49637530  0.14141853  1
  Ti  Ti154  1  0.00962565  0.00090821  -0.00593598  1
  Ti  Ti155  1  0.71358967  0.28698879  0.88254001  1
  Ti  Ti156  1  0.02298512  0.61459335  0.72058879  1
  Ti  Ti157  1  0.10309553  0.11840575  0.35696457  1
  Ti  Ti158  1  0.17463262  0.79031889  0.24140102  1
  Ti  Ti159  1  0.60255363  0.21812918  0.24259647  1
  Mo  Mo160  1  0.69899038  0.30439196  0.13351490  1
  Mo  Mo161  1  0.51085390  0.29949241  0.36143595  1
  Mo  Mo162  1  0.90701524  0.49956432  0.14172511  1
  Mo  Mo163  1  0.70826671  0.49905069  0.37533668  1
  Mo  Mo164  1  0.41161321  0.58782232  0.00038882  1
  Mo  Mo165  1  0.10020980  0.70252294  0.60434671  1
  Mo  Mo166  1  0.88641021  0.90681554  0.62809664  1
  Mo  Mo167  1  0.60120557  0.80745735  0.75267376  1
  Mo  Mo168  1  0.41735898  0.39515344  0.26032599  1
  Mo  Mo169  1  0.19907058  0.20233008  0.24578688  1
  Mo  Mo170  1  0.39654762  0.00429108  0.25451330  1
  Mo  Mo171  1  0.30535483  0.29399452  0.88137985  1
  Mo  Mo172  1  0.39312289  0.00168561  0.75055282  1
  Mo  Mo173  1  0.90238710  0.49609108  0.61455408  1
  Mo  Mo174  1  0.18978728  0.58405046  0.74165327  1
  Mo  Mo175  1  -0.00582240  0.19762557  0.25165955  1
  Mo  Mo176  1  0.20133127  0.83041488  0.50594330  1
  Mo  Mo177  1  0.50308126  0.10402311  0.62074377  1
  Mo  Mo178  1  0.90301114  0.49746573  0.88737952  1
  Mo  Mo179  1  0.89480891  0.10813449  0.62821413  1
  Mo  Mo180  1  0.30022284  0.69956097  0.12984027  1
  Mo  Mo181  1  0.70532493  0.49556893  0.62525247  1
  Mo  Mo182  1  0.19548602  0.40891716  0.74322320  1
  Mo  Mo183  1  0.79965497  0.19482813  0.74426265  1
  Mo  Mo184  1  0.19763643  0.00295520  0.74300708  1
  Mo  Mo185  1  0.18834906  0.00561475  -0.00482407  1
  Mo  Mo186  1  0.08942422  0.70775899  0.12401845  1
  Mo  Mo187  1  0.00065989  0.81531777  0.25473749  1
  Mo  Mo188  1  0.70425120  0.70169946  0.62533648  1
  Mo  Mo189  1  0.20061370  0.19553818  0.49539035  1
  Mo  Mo190  1  0.60135083  0.39666682  0.74655978  1
  Mo  Mo191  1  0.60990489  0.60062249  0.25435979  1
  Mo  Mo192  1  0.69658196  0.09981020  0.12741844  1
  Mo  Mo193  1  0.70246440  0.50799569  0.11755184  1
  Mo  Mo194  1  0.79542174  0.59463345  0.01424758  1
  Mo  Mo195  1  0.20018025  0.56691881  0.48966566  1
  Mo  Mo196  1  0.70525553  0.89544981  0.38455725  1
  Mo  Mo197  1  0.79818437  0.21310185  0.01189309  1
  Mo  Mo198  1  0.30415104  0.30368098  0.13090183  1
  Mo  Mo199  1  0.10092120  0.30475768  0.62995172  1
