# generated using pymatgen
data_HfZrTaTiMo
_symmetry_space_group_name_H-M   'P 1'
_cell_length_a   15.21333972
_cell_length_b   15.22028146
_cell_length_c   16.84829274
_cell_angle_alpha   90.00936887
_cell_angle_beta   89.99673705
_cell_angle_gamma   90.02841951
_symmetry_Int_Tables_number   1
_chemical_formula_structural   HfZrTaTiMo
_chemical_formula_sum   'Hf40 Zr40 Ta40 Ti40 Mo40'
_cell_volume   3901.24375774
_cell_formula_units_Z   40
loop_
 _symmetry_equiv_pos_site_id
 _symmetry_equiv_pos_as_xyz
  1  'x, y, z'
loop_
 _atom_site_type_symbol
 _atom_site_label
 _atom_site_symmetry_multiplicity
 _atom_site_fract_x
 _atom_site_fract_y
 _atom_site_fract_z
 _atom_site_occupancy
  Hf  Hf0  1  0.29045201  0.29065581  0.87387562  1
  Hf  Hf1  1  0.39694558  -0.01292691  -0.00459764  1
  Hf  Hf2  1  0.20693836  0.01372297  -0.00417206  1
  Hf  Hf3  1  0.60542937  0.59934225  0.00764386  1
  Hf  Hf4  1  0.31023666  0.09157428  0.61952155  1
  Hf  Hf5  1  0.80637193  0.18527913  0.76432560  1
  Hf  Hf6  1  0.60560126  0.20065726  -0.01351476  1
  Hf  Hf7  1  0.21447691  0.60412353  0.49500567  1
  Hf  Hf8  1  0.70759414  0.49570614  0.38083224  1
  Hf  Hf9  1  0.60309916  0.01253663  0.48537099  1
  Hf  Hf10  1  0.39839668  0.19637281  0.75544784  1
  Hf  Hf11  1  0.50379890  0.29637050  0.62073781  1
  Hf  Hf12  1  0.19563014  0.20635087  0.51320359  1
  Hf  Hf13  1  0.10946721  0.10230478  0.37809701  1
  Hf  Hf14  1  0.91342932  0.50370726  0.12459180  1
  Hf  Hf15  1  -0.01205741  0.60703804  0.75272952  1
  Hf  Hf16  1  0.37796964  0.78506549  0.49532770  1
  Hf  Hf17  1  0.79781666  0.77972326  0.51874376  1
  Hf  Hf18  1  0.48587247  0.90546673  0.38539165  1
  Hf  Hf19  1  0.70485170  0.09524458  0.62686657  1
  Hf  Hf20  1  0.80670817  0.59312598  -0.00142000  1
  Hf  Hf21  1  -0.00080972  0.02582191  0.75068652  1
  Hf  Hf22  1  0.00915968  0.62337746  0.26219196  1
  Hf  Hf23  1  0.09232325  0.91192030  0.87375611  1
  Hf  Hf24  1  0.30286280  0.69753059  0.85256766  1
  Hf  Hf25  1  0.81212327  -0.01802189  0.49600600  1
  Hf  Hf26  1  0.79176650  -0.00185693  0.24617353  1
  Hf  Hf27  1  0.51497883  0.71299710  0.13786883  1
  Hf  Hf28  1  0.27160549  0.90425308  0.38520462  1
  Hf  Hf29  1  0.79617393  0.77620101  0.73295245  1
  Hf  Hf30  1  0.20260744  0.20206659  0.24879436  1
  Hf  Hf31  1  -0.00587627  0.21749238  0.49973018  1
  Hf  Hf32  1  0.01035506  0.61684408  0.50472077  1
  Hf  Hf33  1  0.30438001  0.49403999  0.86401176  1
  Hf  Hf34  1  -0.00377322  0.21424692  0.25280669  1
  Hf  Hf35  1  0.38395251  0.80268758  0.26387383  1
  Hf  Hf36  1  0.00023419  0.41242715  0.75505770  1
  Hf  Hf37  1  0.40150698  0.18257399  -0.01339342  1
  Hf  Hf38  1  0.91609310  0.49782013  0.38405944  1
  Hf  Hf39  1  0.60467630  0.39157312  0.25478433  1
  Zr  Zr40  1  0.51176959  0.31706873  0.87127594  1
  Zr  Zr41  1  0.48928793  0.68771508  0.61725039  1
  Zr  Zr42  1  0.72357363  0.49263149  0.61627821  1
  Zr  Zr43  1  0.09759766  0.10989586  0.11125469  1
  Zr  Zr44  1  0.90618303  0.88953755  0.10702458  1
  Zr  Zr45  1  0.51054413  0.89839530  0.87189759  1
  Zr  Zr46  1  0.51548403  0.69753122  0.86822176  1
  Zr  Zr47  1  0.09573419  0.29795528  0.87936731  1
  Zr  Zr48  1  0.50491941  0.49525686  0.13836210  1
  Zr  Zr49  1  0.21596986  0.80169239  -0.00695642  1
  Zr  Zr50  1  0.29839444  0.89781887  0.86057293  1
  Zr  Zr51  1  0.89764240  0.30444521  0.63886625  1
  Zr  Zr52  1  0.50498076  0.69330742  0.37338777  1
  Zr  Zr53  1  0.81319051  0.78938532  0.23996250  1
  Zr  Zr54  1  0.88953262  0.90123755  0.88074685  1
  Zr  Zr55  1  0.40929029  0.20091293  0.25794027  1
  Zr  Zr56  1  0.90401696  0.09202919  0.37625878  1
  Zr  Zr57  1  0.08719300  0.70193028  0.11337580  1
  Zr  Zr58  1  0.39957865  0.61476262  -0.00352683  1
  Zr  Zr59  1  0.42099370  0.40603209  -0.00366455  1
  Zr  Zr60  1  0.29351147  0.30399389  0.38679958  1
  Zr  Zr61  1  0.89301277  0.11103536  0.11446082  1
  Zr  Zr62  1  0.70156129  0.28689934  0.61983265  1
  Zr  Zr63  1  -0.00032695  -0.00973281  0.24115472  1
  Zr  Zr64  1  0.60838520  0.59735524  0.50256986  1
  Zr  Zr65  1  0.06393162  0.90000995  0.38664681  1
  Zr  Zr66  1  0.59141772  -0.00176632  0.00750581  1
  Zr  Zr67  1  0.28381783  0.69529673  0.64044739  1
  Zr  Zr68  1  0.21126317  0.60769163  0.26712037  1
  Zr  Zr69  1  0.30089199  0.71410902  0.12596627  1
  Zr  Zr70  1  0.10685969  0.50320798  0.12204551  1
  Zr  Zr71  1  0.58576103  0.00638370  0.25911985  1
  Zr  Zr72  1  0.60452721  0.80265877  0.72989108  1
  Zr  Zr73  1  0.30062155  0.30060372  0.11499132  1
  Zr  Zr74  1  0.48578214  0.91813462  0.60823366  1
  Zr  Zr75  1  0.78549972  -0.00589847  0.00709585  1
  Zr  Zr76  1  0.30094334  0.50443498  0.12284487  1
  Zr  Zr77  1  0.68352048  0.48966789  0.87825798  1
  Zr  Zr78  1  0.80978318  0.59270937  0.24830764  1
  Zr  Zr79  1  0.39913417  0.80914791  0.73451775  1
  Ta  Ta80  1  0.60808572  0.40086023  0.74083421  1
  Ta  Ta81  1  0.60420450  0.80280452  0.50285122  1
  Ta  Ta82  1  0.70059938  0.88771255  0.37155423  1
  Ta  Ta83  1  -0.01142338  0.81165481  0.73956378  1
  Ta  Ta84  1  0.79345363  0.39285286  -0.00481859  1
  Ta  Ta85  1  0.39878667  0.40657913  0.50631519  1
  Ta  Ta86  1  0.82139154  0.38394169  0.49050693  1
  Ta  Ta87  1  0.91656058  0.10384902  0.89536187  1
  Ta  Ta88  1  0.20328614  0.00726845  0.74602485  1
  Ta  Ta89  1  -0.01561786  0.81877646  0.53077454  1
  Ta  Ta90  1  0.09823500  0.71153911  0.85887348  1
  Ta  Ta91  1  0.17501341  0.80529201  0.25475810  1
  Ta  Ta92  1  0.47811310  0.90298769  0.13344438  1
  Ta  Ta93  1  0.19173455  0.60025879  -0.02186816  1
  Ta  Ta94  1  0.67490686  0.87881071  0.13589385  1
  Ta  Ta95  1  0.60979453  0.59792862  0.73940474  1
  Ta  Ta96  1  0.18479295  0.19605131  0.73464027  1
  Ta  Ta97  1  -0.00694694  0.41291792  -0.01439395  1
  Ta  Ta98  1  0.71273181  0.70036840  0.37737397  1
  Ta  Ta99  1  0.90043911  0.30836755  0.11658442  1
  Ta  Ta100  1  0.38657914  0.00579912  0.25544534  1
  Ta  Ta101  1  0.70938231  0.48586344  0.12791713  1
  Ta  Ta102  1  0.79383705  0.20299515  -0.01101202  1
  Ta  Ta103  1  0.31062790  0.09444725  0.12649138  1
  Ta  Ta104  1  0.19690833  0.39508500  0.73578990  1
  Ta  Ta105  1  0.30555911  0.50245263  0.63018677  1
  Ta  Ta106  1  0.30312465  0.30172285  0.62365338  1
  Ta  Ta107  1  0.50117269  0.30576740  0.38634954  1
  Ta  Ta108  1  0.88676994  0.70513454  0.87600042  1
  Ta  Ta109  1  0.51536396  0.28103407  0.12384256  1
  Ta  Ta110  1  0.70954884  0.29370250  0.37933558  1
  Ta  Ta111  1  0.40335495  0.40152877  0.74157129  1
  Ta  Ta112  1  0.70995654  0.29243535  0.13104981  1
  Ta  Ta113  1  0.09336576  0.30836462  0.11119619  1
  Ta  Ta114  1  0.68168320  0.10875000  0.13087160  1
  Ta  Ta115  1  0.10707374  0.90045743  0.11280061  1
  Ta  Ta116  1  0.19848993  0.39851694  0.25297765  1
  Ta  Ta117  1  0.89396015  0.30393022  0.87070824  1
  Ta  Ta118  1  0.90416904  0.09913645  0.61989220  1
  Ta  Ta119  1  0.51028281  0.10620057  0.62479895  1
  Ti  Ti120  1  0.91514540  0.50276228  0.61082276  1
  Ti  Ti121  1  0.39721926  0.39693125  0.25435831  1
  Ti  Ti122  1  0.61535464  0.60467035  0.24970248  1
  Ti  Ti123  1  0.60147643  0.00333733  0.74925832  1
  Ti  Ti124  1  0.20051090  -0.00240723  0.24187612  1
  Ti  Ti125  1  0.69773787  0.90343965  0.62019161  1
  Ti  Ti126  1  0.77810717  0.78132404  0.01266104  1
  Ti  Ti127  1  0.79686239  0.19929555  0.25720841  1
  Ti  Ti128  1  0.11079022  0.49931559  0.38045365  1
  Ti  Ti129  1  0.18515418  0.58598839  0.75286796  1
  Ti  Ti130  1  0.40348035  0.59727628  0.25760445  1
  Ti  Ti131  1  0.00691357  0.40508816  0.25082933  1
  Ti  Ti132  1  0.79798383  -0.01514126  0.75133725  1
  Ti  Ti133  1  0.09384331  0.70573678  0.64113211  1
  Ti  Ti134  1  0.50184210  0.49644362  0.62432954  1
  Ti  Ti135  1  0.50062728  0.49522652  0.37575569  1
  Ti  Ti136  1  0.30549093  0.09548226  0.38870603  1
  Ti  Ti137  1  0.18538733  0.00210665  0.51271680  1
  Ti  Ti138  1  0.09315555  0.31538628  0.37962342  1
  Ti  Ti139  1  0.60096961  0.19399783  0.76355483  1
  Ti  Ti140  1  0.10823886  0.11460726  0.88511497  1
  Ti  Ti141  1  0.69997940  0.86893557  0.87737021  1
  Ti  Ti142  1  0.40795823  0.00993111  0.75690674  1
  Ti  Ti143  1  0.79956757  0.58131916  0.75757254  1
  Ti  Ti144  1  0.60354650  0.39412577  0.49822397  1
  Ti  Ti145  1  0.09083292  0.91521112  0.63287684  1
  Ti  Ti146  1  0.19754254  0.40636084  -0.00708583  1
  Ti  Ti147  1  0.81459924  0.38715015  0.25747598  1
  Ti  Ti148  1  0.40884374  0.19364766  0.49817101  1
  Ti  Ti149  1  -0.00089299  0.79513045  -0.01185446  1
  Ti  Ti150  1  0.79736165  0.18839821  0.48929812  1
  Ti  Ti151  1  0.70103515  0.08118675  0.87295256  1
  Ti  Ti152  1  0.28335181  0.89697335  0.62176764  1
  Ti  Ti153  1  0.91276177  0.72150480  0.38482254  1
  Ti  Ti154  1  0.17456159  0.79585840  0.50546315  1
  Ti  Ti155  1  0.31119030  0.49826566  0.37914557  1
  Ti  Ti156  1  0.60351678  0.19912111  0.48530588  1
  Ti  Ti157  1  0.60374630  0.19628820  0.26709432  1
  Ti  Ti158  1  0.00169036  0.60159957  -0.02428136  1
  Ti  Ti159  1  0.18801140  0.40659567  0.51942163  1
  Mo  Mo160  1  0.29186235  0.90632796  0.13421308  1
  Mo  Mo161  1  0.69599103  0.68540079  0.61871756  1
  Mo  Mo162  1  0.10199512  0.71320005  0.38809908  1
  Mo  Mo163  1  0.29571125  0.70277437  0.37433160  1
  Mo  Mo164  1  0.49143768  0.10961310  0.38348942  1
  Mo  Mo165  1  0.89609671  0.49954684  0.87573128  1
  Mo  Mo166  1  0.90766002  0.69558871  0.10580247  1
  Mo  Mo167  1  0.50619872  0.09612370  0.86304939  1
  Mo  Mo168  1  0.40648560  0.59008166  0.74617196  1
  Mo  Mo169  1  0.38608432  0.00340614  0.49933180  1
  Mo  Mo170  1  0.70510335  0.29565211  0.86741808  1
  Mo  Mo171  1  0.41591624  0.80194536  0.00357715  1
  Mo  Mo172  1  0.00015878  0.00882308  0.51571581  1
  Mo  Mo173  1  0.09803790  0.30811764  0.63010226  1
  Mo  Mo174  1  0.00546002  -0.00004620  -0.00381619  1
  Mo  Mo175  1  -0.00653893  0.21352512  -0.00035053  1
  Mo  Mo176  1  0.49615296  0.51012254  0.85199951  1
  Mo  Mo177  1  0.49603742  0.10107280  0.12750181  1
  Mo  Mo178  1  0.18076905  0.80834650  0.74347149  1
  Mo  Mo179  1  0.81341617  0.59429437  0.49150723  1
  Mo  Mo180  1  0.79517643  0.39708556  0.76072855  1
  Mo  Mo181  1  0.10394323  0.50516950  0.87335702  1
  Mo  Mo182  1  0.70660540  0.69778712  0.87437189  1
  Mo  Mo183  1  0.90008638  0.68807561  0.62921478  1
  Mo  Mo184  1  0.01307432  0.40632108  0.50528871  1
  Mo  Mo185  1  0.29223137  0.09861599  0.86181022  1
  Mo  Mo186  1  0.70289994  0.10036096  0.37094209  1
  Mo  Mo187  1  0.59751613  0.79925270  0.00592440  1
  Mo  Mo188  1  0.00145413  0.20242157  0.75197871  1
  Mo  Mo189  1  0.70249933  0.68922124  0.13015622  1
  Mo  Mo190  1  0.20489745  0.20738669  0.00552335  1
  Mo  Mo191  1  0.00070648  0.80053838  0.24561055  1
  Mo  Mo192  1  0.61351212  0.38936806  0.02060848  1
  Mo  Mo193  1  0.88661358  0.88826332  0.37809694  1
  Mo  Mo194  1  0.40072734  0.58467551  0.49378378  1
  Mo  Mo195  1  0.90222409  0.30384646  0.36990395  1
  Mo  Mo196  1  0.10703061  0.50964200  0.62564971  1
  Mo  Mo197  1  0.60268398  0.80069259  0.26262023  1
  Mo  Mo198  1  0.89005468  0.90961596  0.64039357  1
  Mo  Mo199  1  0.09803607  0.10420612  0.62210726  1
