# generated using pymatgen
data_HfZrTaTiMo
_symmetry_space_group_name_H-M   'P 1'
_cell_length_a   15.18741411
_cell_length_b   15.19034404
_cell_length_c   16.82572232
_cell_angle_alpha   89.96787942
_cell_angle_beta   90.03381743
_cell_angle_gamma   90.02635420
_symmetry_Int_Tables_number   1
_chemical_formula_structural   HfZrTaTiMo
_chemical_formula_sum   'Hf40 Zr40 Ta40 Ti40 Mo40'
_cell_volume   3881.72685742
_cell_formula_units_Z   40
loop_
 _symmetry_equiv_pos_site_id
 _symmetry_equiv_pos_as_xyz
  1  'x, y, z'
loop_
 _atom_site_type_symbol
 _atom_site_label
 _atom_site_symmetry_multiplicity
 _atom_site_fract_x
 _atom_site_fract_y
 _atom_site_fract_z
 _atom_site_occupancy
  Hf  Hf0  1  0.78783539  -0.00681566  0.74551800  1
  Hf  Hf1  1  0.88214177  0.08800880  0.87818477  1
  Hf  Hf2  1  0.30405466  0.90209449  0.11745276  1
  Hf  Hf3  1  0.18434429  0.19144805  0.49707459  1
  Hf  Hf4  1  0.39354246  0.58626257  0.23325100  1
  Hf  Hf5  1  -0.01520431  0.39728491  0.25833376  1
  Hf  Hf6  1  0.70236290  0.90534425  0.61034989  1
  Hf  Hf7  1  0.50346753  0.90960740  0.39728209  1
  Hf  Hf8  1  -0.01157016  0.39108395  0.49607997  1
  Hf  Hf9  1  0.09717338  0.89141175  0.12718307  1
  Hf  Hf10  1  0.00795730  0.00461839  0.49747170  1
  Hf  Hf11  1  0.57861143  0.41233576  0.47883695  1
  Hf  Hf12  1  0.39750290  0.78340720  0.49757930  1
  Hf  Hf13  1  0.00604520  0.01073714  0.24731073  1
  Hf  Hf14  1  0.11113360  0.90306401  0.36936077  1
  Hf  Hf15  1  0.30869004  0.11560824  0.12893021  1
  Hf  Hf16  1  0.58946150  0.21880304  0.74688247  1
  Hf  Hf17  1  0.70299788  0.90308660  0.38036283  1
  Hf  Hf18  1  0.79813606  0.21346672  0.49321279  1
  Hf  Hf19  1  -0.01184908  -0.02354109  -0.00959588  1
  Hf  Hf20  1  0.19906832  0.39058448  0.50655562  1
  Hf  Hf21  1  0.51200726  0.67452236  0.36697233  1
  Hf  Hf22  1  0.72023559  0.70918699  0.12750892  1
  Hf  Hf23  1  0.40338444  0.59031255  0.75857814  1
  Hf  Hf24  1  0.47964273  0.12529658  0.86823108  1
  Hf  Hf25  1  0.50591310  0.90728323  0.61231023  1
  Hf  Hf26  1  0.10473987  0.09086799  0.10488671  1
  Hf  Hf27  1  0.40685916  0.80442371  0.25370481  1
  Hf  Hf28  1  0.08507935  0.68898358  0.12983819  1
  Hf  Hf29  1  0.69876603  0.10230536  0.37731922  1
  Hf  Hf30  1  0.20670800  0.38392239  0.75959329  1
  Hf  Hf31  1  0.08811482  0.50682715  0.38272279  1
  Hf  Hf32  1  0.49796795  0.48131976  0.10175918  1
  Hf  Hf33  1  0.29152381  0.69709653  0.11643543  1
  Hf  Hf34  1  0.20498259  -0.00211984  0.74717996  1
  Hf  Hf35  1  0.30730668  0.50212316  0.38162017  1
  Hf  Hf36  1  -0.00816464  0.38978043  0.76179925  1
  Hf  Hf37  1  0.60698818  0.60711383  0.76433101  1
  Hf  Hf38  1  0.80172026  0.21160779  0.25201113  1
  Hf  Hf39  1  0.68625872  0.10262810  0.87327027  1
  Zr  Zr40  1  0.30727499  0.89601182  0.62412668  1
  Zr  Zr41  1  0.78449730  0.41041805  0.47802548  1
  Zr  Zr42  1  0.00008223  0.20373593  -0.02097911  1
  Zr  Zr43  1  0.60818456  0.58378923  0.23003331  1
  Zr  Zr44  1  0.50563889  0.70141596  0.88267788  1
  Zr  Zr45  1  0.49102005  0.28563976  0.12302609  1
  Zr  Zr46  1  0.09795442  0.49722361  0.62741528  1
  Zr  Zr47  1  0.29562592  0.29528915  0.37084613  1
  Zr  Zr48  1  0.21883950  0.20162619  -0.01929482  1
  Zr  Zr49  1  0.49778490  0.10657807  0.61460341  1
  Zr  Zr50  1  0.18424042  0.79989839  -0.01337378  1
  Zr  Zr51  1  0.50990821  0.69588655  0.63500110  1
  Zr  Zr52  1  0.60012968  -0.00173711  0.24672249  1
  Zr  Zr53  1  0.89764709  0.68389992  0.61386336  1
  Zr  Zr54  1  0.08760048  0.29747364  0.12085082  1
  Zr  Zr55  1  0.40271191  0.80494250  0.76096494  1
  Zr  Zr56  1  0.51153475  0.91732978  0.87028720  1
  Zr  Zr57  1  0.01071651  0.58590092  -0.00993479  1
  Zr  Zr58  1  0.40507131  0.00679396  0.25384059  1
  Zr  Zr59  1  0.90923799  0.89501224  0.62256979  1
  Zr  Zr60  1  0.69075128  0.31561651  0.12943466  1
  Zr  Zr61  1  0.40603980  0.00709901  0.00220436  1
  Zr  Zr62  1  0.70350754  0.50687597  0.89323735  1
  Zr  Zr63  1  0.18141669  0.18644535  0.25648285  1
  Zr  Zr64  1  0.29624969  0.32000853  0.12339397  1
  Zr  Zr65  1  0.61216701  0.77398321  0.49683813  1
  Zr  Zr66  1  0.88994738  0.29817797  0.63574460  1
  Zr  Zr67  1  0.09758185  0.09788531  0.63785282  1
  Zr  Zr68  1  0.81035541  0.80122615  0.48823143  1
  Zr  Zr69  1  -0.00455889  -0.02294520  0.76627604  1
  Zr  Zr70  1  0.79659654  0.21030259  0.00384137  1
  Zr  Zr71  1  0.01633016  0.79189610  0.49170961  1
  Zr  Zr72  1  -0.00310026  0.59732607  0.75586398  1
  Zr  Zr73  1  0.20433181  0.60584162  0.50702518  1
  Zr  Zr74  1  0.30924110  0.49726634  0.88272247  1
  Zr  Zr75  1  0.19535011  0.40740373  0.25154985  1
  Zr  Zr76  1  0.49749283  0.71144392  0.11978612  1
  Zr  Zr77  1  0.91182012  0.68163183  0.37194093  1
  Zr  Zr78  1  0.60008011  0.81752313  0.00704793  1
  Zr  Zr79  1  0.69886017  0.51813061  0.62079113  1
  Ta  Ta80  1  0.29018369  0.91385475  0.87996694  1
  Ta  Ta81  1  0.68311734  0.31340970  0.62346781  1
  Ta  Ta82  1  0.90412306  0.91094434  0.36889677  1
  Ta  Ta83  1  0.89727090  0.09798401  0.11930584  1
  Ta  Ta84  1  -0.00142554  0.79602835  0.25561491  1
  Ta  Ta85  1  0.11168071  0.69627084  0.36613587  1
  Ta  Ta86  1  0.70978544  0.91292100  0.12583349  1
  Ta  Ta87  1  0.59186246  0.20502917  -0.00357305  1
  Ta  Ta88  1  0.78759333  0.41525702  0.26697583  1
  Ta  Ta89  1  0.41235962  0.38610847  0.76105957  1
  Ta  Ta90  1  0.72041799  0.71848502  0.88736199  1
  Ta  Ta91  1  0.41557644  0.58444426  0.50716041  1
  Ta  Ta92  1  0.29798930  0.08869788  0.38340100  1
  Ta  Ta93  1  0.89621228  0.10227987  0.63631507  1
  Ta  Ta94  1  0.70158807  0.30887547  0.88011317  1
  Ta  Ta95  1  0.81977488  0.61801292  0.00499628  1
  Ta  Ta96  1  0.00336609  0.19321203  0.77265457  1
  Ta  Ta97  1  0.50168525  0.48938781  0.62998528  1
  Ta  Ta98  1  0.70110669  0.11427095  0.61968543  1
  Ta  Ta99  1  0.60800923  0.60524089  0.00627659  1
  Ta  Ta100  1  0.10646342  0.88884738  0.62750251  1
  Ta  Ta101  1  0.59793731  0.41145930  0.75817096  1
  Ta  Ta102  1  0.20540628  0.79668427  0.25095292  1
  Ta  Ta103  1  0.79793520  0.60505701  0.75559581  1
  Ta  Ta104  1  0.10363111  0.70277305  0.63590230  1
  Ta  Ta105  1  0.91340553  0.11255762  0.36890357  1
  Ta  Ta106  1  0.81189464  0.01711690  0.49956415  1
  Ta  Ta107  1  0.58216707  0.20453199  0.26481627  1
  Ta  Ta108  1  -0.01040158  0.19485535  0.50432186  1
  Ta  Ta109  1  0.39232132  0.20929490  0.49925462  1
  Ta  Ta110  1  0.19236103  0.39992769  -0.01440983  1
  Ta  Ta111  1  0.19786720  0.59862443  0.24671374  1
  Ta  Ta112  1  0.90800181  0.50664368  0.12605228  1
  Ta  Ta113  1  0.62780293  0.80915140  0.75175817  1
  Ta  Ta114  1  0.19697879  0.79612473  0.76349557  1
  Ta  Ta115  1  0.20514393  -0.00740976  0.50413019  1
  Ta  Ta116  1  0.29881070  0.69167816  0.63374248  1
  Ta  Ta117  1  -0.02386832  0.78097466  -0.00457839  1
  Ta  Ta118  1  0.41035357  0.39348232  0.25321995  1
  Ta  Ta119  1  0.11428046  0.08161136  0.87919697  1
  Ti  Ti120  1  0.60605640  0.80265130  0.24691435  1
  Ti  Ti121  1  0.69915253  0.11053401  0.13055222  1
  Ti  Ti122  1  0.48900000  0.30730669  0.61830225  1
  Ti  Ti123  1  0.09396379  0.70030927  0.86591128  1
  Ti  Ti124  1  0.40004401  0.01317541  0.74740550  1
  Ti  Ti125  1  0.71540282  0.91103572  0.88809964  1
  Ti  Ti126  1  0.20864883  -0.00642101  0.25039255  1
  Ti  Ti127  1  0.59744900  0.00660696  0.74247602  1
  Ti  Ti128  1  0.20513145  0.79569587  0.49983858  1
  Ti  Ti129  1  0.30093927  0.10385533  0.62019952  1
  Ti  Ti130  1  0.29717017  0.29227972  0.63000669  1
  Ti  Ti131  1  0.89485726  0.49455390  0.62148778  1
  Ti  Ti132  1  0.80631357  0.00446756  0.24797182  1
  Ti  Ti133  1  0.30937273  0.49012292  0.62949892  1
  Ti  Ti134  1  0.59503328  0.39869783  0.27142584  1
  Ti  Ti135  1  0.78829712  0.40474449  0.75070067  1
  Ti  Ti136  1  0.30253116  0.69629313  0.36958898  1
  Ti  Ti137  1  0.09521569  0.28827866  0.63641307  1
  Ti  Ti138  1  0.50530574  0.09826395  0.12712215  1
  Ti  Ti139  1  0.89091247  0.49456395  0.87787342  1
  Ti  Ti140  1  0.59871624  0.21388399  0.49188281  1
  Ti  Ti141  1  0.89369619  0.30971503  0.12478781  1
  Ti  Ti142  1  0.80276721  0.80362167  0.25872337  1
  Ti  Ti143  1  0.49213115  0.10503547  0.39176745  1
  Ti  Ti144  1  0.39255627  0.80030049  -0.01289584  1
  Ti  Ti145  1  0.30455546  0.89626317  0.38085618  1
  Ti  Ti146  1  0.89567749  0.88998863  0.13105960  1
  Ti  Ti147  1  0.10291798  0.49405241  0.86942881  1
  Ti  Ti148  1  0.20319866  0.59965923  -0.00884601  1
  Ti  Ti149  1  -0.00807276  0.39218921  -0.01469106  1
  Ti  Ti150  1  0.71746397  0.49892792  0.10770752  1
  Ti  Ti151  1  0.60802397  0.01225713  0.01057855  1
  Ti  Ti152  1  0.39983822  0.60052213  -0.00353036  1
  Ti  Ti153  1  0.11041162  0.49257152  0.12001883  1
  Ti  Ti154  1  0.20652834  0.60081696  0.75598567  1
  Ti  Ti155  1  0.81148034  0.59700600  0.25148406  1
  Ti  Ti156  1  0.78313680  0.60598963  0.48161112  1
  Ti  Ti157  1  0.79454519  0.20690402  0.75423733  1
  Ti  Ti158  1  0.81465227  0.79455270  0.74896749  1
  Ti  Ti159  1  0.07489441  0.27995876  0.37100906  1
  Mo  Mo160  1  -0.01043063  0.19741594  0.23883133  1
  Mo  Mo161  1  0.60883253  0.39681339  -0.00006210  1
  Mo  Mo162  1  0.31661335  0.28631897  0.87087024  1
  Mo  Mo163  1  0.40562990  0.20149679  0.00065067  1
  Mo  Mo164  1  0.19807512  -0.00297882  -0.00189220  1
  Mo  Mo165  1  0.61237478  0.01856523  0.50166963  1
  Mo  Mo166  1  0.48843640  0.29506226  0.37775570  1
  Mo  Mo167  1  0.81653429  0.40920956  0.00396682  1
  Mo  Mo168  1  0.69002240  0.30133966  0.36626203  1
  Mo  Mo169  1  0.90164587  0.70053823  0.13884316  1
  Mo  Mo170  1  0.89435226  0.50184086  0.37666579  1
  Mo  Mo171  1  0.68714019  0.52361763  0.36808775  1
  Mo  Mo172  1  0.09331543  0.89056303  0.87505235  1
  Mo  Mo173  1  0.39818894  0.38647441  -0.01600628  1
  Mo  Mo174  1  0.38720465  0.20789874  0.73692882  1
  Mo  Mo175  1  0.10294258  0.09648512  0.37613332  1
  Mo  Mo176  1  0.10202137  0.29800997  0.87220791  1
  Mo  Mo177  1  0.00403062  0.79089224  0.75031645  1
  Mo  Mo178  1  0.00757067  0.58940787  0.24467742  1
  Mo  Mo179  1  0.29577839  0.50088079  0.10362465  1
  Mo  Mo180  1  0.50734129  0.31351760  0.88128457  1
  Mo  Mo181  1  -0.00248225  0.59245532  0.50848329  1
  Mo  Mo182  1  0.80725661  0.81398270  0.00665426  1
  Mo  Mo183  1  0.60186770  0.59667946  0.50050429  1
  Mo  Mo184  1  0.29649279  0.70164474  0.87763775  1
  Mo  Mo185  1  0.50837857  0.90582376  0.12478733  1
  Mo  Mo186  1  0.89596195  0.69099679  0.87137593  1
  Mo  Mo187  1  0.39423725  0.00472039  0.49776023  1
  Mo  Mo188  1  0.50835902  0.49640109  0.89691387  1
  Mo  Mo189  1  0.88773491  0.30243252  0.86469966  1
  Mo  Mo190  1  0.89586084  0.30003304  0.37129274  1
  Mo  Mo191  1  0.88267565  0.87774861  0.87624653  1
  Mo  Mo192  1  0.79469670  0.00480613  0.01382647  1
  Mo  Mo193  1  0.38875642  0.39873704  0.51104737  1
  Mo  Mo194  1  0.39914496  0.19795534  0.26378586  1
  Mo  Mo195  1  0.30264582  0.09454655  0.86635449  1
  Mo  Mo196  1  0.48743381  0.49851433  0.36796341  1
  Mo  Mo197  1  0.70679301  0.70592265  0.63329517  1
  Mo  Mo198  1  0.19933659  0.19669595  0.76005880  1
  Mo  Mo199  1  0.70444486  0.69895128  0.35224471  1
