# generated using pymatgen
data_HfZrTaTiMo
_symmetry_space_group_name_H-M   'P 1'
_cell_length_a   15.20679949
_cell_length_b   15.21306883
_cell_length_c   16.86085827
_cell_angle_alpha   90.03232321
_cell_angle_beta   89.96356271
_cell_angle_gamma   90.11869793
_symmetry_Int_Tables_number   1
_chemical_formula_structural   HfZrTaTiMo
_chemical_formula_sum   'Hf40 Zr40 Ta40 Ti40 Mo40'
_cell_volume   3900.61636846
_cell_formula_units_Z   40
loop_
 _symmetry_equiv_pos_site_id
 _symmetry_equiv_pos_as_xyz
  1  'x, y, z'
loop_
 _atom_site_type_symbol
 _atom_site_label
 _atom_site_symmetry_multiplicity
 _atom_site_fract_x
 _atom_site_fract_y
 _atom_site_fract_z
 _atom_site_occupancy
  Hf  Hf0  1  0.70911803  0.09880275  0.13414624  1
  Hf  Hf1  1  -0.01912414  0.40298117  0.48764481  1
  Hf  Hf2  1  0.47047613  0.29100115  0.63656472  1
  Hf  Hf3  1  0.69980605  0.29532075  0.63221753  1
  Hf  Hf4  1  0.49495982  0.49615230  0.38109587  1
  Hf  Hf5  1  0.80092581  0.60386297  0.75082110  1
  Hf  Hf6  1  0.70982678  0.70835530  0.11079022  1
  Hf  Hf7  1  0.60390574  0.60576126  0.74103024  1
  Hf  Hf8  1  0.80477405  0.60010018  0.50605892  1
  Hf  Hf9  1  0.49052882  0.71398568  0.61948726  1
  Hf  Hf10  1  0.70822167  0.09412980  0.87696082  1
  Hf  Hf11  1  0.30790977  0.09612952  0.37511604  1
  Hf  Hf12  1  0.89952620  0.28987174  0.12538075  1
  Hf  Hf13  1  0.39492667  0.59119868  0.75046471  1
  Hf  Hf14  1  0.10718531  0.09678601  0.38363557  1
  Hf  Hf15  1  0.00847769  0.59383485  -0.01380498  1
  Hf  Hf16  1  0.20020868  0.19797867  0.74826746  1
  Hf  Hf17  1  0.59059405  0.19016808  0.76304378  1
  Hf  Hf18  1  0.58696360  0.18973844  0.49952744  1
  Hf  Hf19  1  0.12059608  0.70571336  0.87444804  1
  Hf  Hf20  1  0.09586310  0.70039893  0.62958462  1
  Hf  Hf21  1  0.18737680  -0.01261275  0.74556417  1
  Hf  Hf22  1  0.49855752  0.49568119  0.62225748  1
  Hf  Hf23  1  0.31480977  0.90122998  0.62527658  1
  Hf  Hf24  1  0.62143934  0.80164050  0.25786388  1
  Hf  Hf25  1  -0.01229051  0.00739900  0.00398192  1
  Hf  Hf26  1  0.59295583  -0.00341208  -0.00752690  1
  Hf  Hf27  1  0.39883067  0.39817278  -0.00212876  1
  Hf  Hf28  1  0.89102205  0.50569284  0.36337339  1
  Hf  Hf29  1  0.69264117  0.08529105  0.36954495  1
  Hf  Hf30  1  0.69907453  0.30842946  0.87106886  1
  Hf  Hf31  1  0.40425729  0.80710762  0.75853517  1
  Hf  Hf32  1  0.42347263  0.00140306  0.49505253  1
  Hf  Hf33  1  0.01167881  0.80772965  -0.00603371  1
  Hf  Hf34  1  0.90585473  0.91924505  0.86358665  1
  Hf  Hf35  1  0.29518339  0.48182634  0.62866363  1
  Hf  Hf36  1  0.61046365  0.81259201  0.73935602  1
  Hf  Hf37  1  0.20669464  0.60433950  0.24779669  1
  Hf  Hf38  1  0.00397792  0.39593371  0.25846715  1
  Hf  Hf39  1  0.20874368  0.80560573  0.24449005  1
  Zr  Zr40  1  0.59889218  0.40035874  0.23890184  1
  Zr  Zr41  1  0.39428276  -0.02298094  -0.00561868  1
  Zr  Zr42  1  -0.00028793  0.20502328  0.48442502  1
  Zr  Zr43  1  -0.00504209  0.79839385  0.49203078  1
  Zr  Zr44  1  0.49745377  0.08218140  0.13384694  1
  Zr  Zr45  1  0.29519433  0.29792061  0.36712735  1
  Zr  Zr46  1  0.90492217  0.90537011  0.62521054  1
  Zr  Zr47  1  0.90686906  0.30809374  0.63224754  1
  Zr  Zr48  1  0.39040196  0.18497085  -0.00324379  1
  Zr  Zr49  1  0.70533766  0.50713601  0.12029721  1
  Zr  Zr50  1  0.18265185  0.39336072  0.49966244  1
  Zr  Zr51  1  0.79839810  0.20498965  0.49144856  1
  Zr  Zr52  1  0.19519299  0.00255668  0.01663092  1
  Zr  Zr53  1  0.50887177  0.69902344  0.87941426  1
  Zr  Zr54  1  0.80446961  0.19885868  0.00050881  1
  Zr  Zr55  1  0.38974262  0.19782722  0.23325233  1
  Zr  Zr56  1  0.19529112  0.60548491  0.50405388  1
  Zr  Zr57  1  0.59608904  0.81159818  0.49756872  1
  Zr  Zr58  1  0.60400968  0.39627761  0.50616714  1
  Zr  Zr59  1  0.60216163  0.40879867  0.00392784  1
  Zr  Zr60  1  0.90902066  0.49634055  0.12393251  1
  Zr  Zr61  1  0.39776438  0.60385790  0.50022193  1
  Zr  Zr62  1  0.22458263  0.79443789  0.01907088  1
  Zr  Zr63  1  0.70693432  0.70654952  0.88560797  1
  Zr  Zr64  1  0.70255828  0.49872504  0.37604046  1
  Zr  Zr65  1  0.59173297  0.40427138  0.75395116  1
  Zr  Zr66  1  0.89716755  0.89488571  0.13325749  1
  Zr  Zr67  1  0.08882411  0.11343969  0.13003706  1
  Zr  Zr68  1  0.60811041  0.20839505  0.24469014  1
  Zr  Zr69  1  0.39630132  0.60565395  -0.00159762  1
  Zr  Zr70  1  0.29651356  0.50134460  0.37309977  1
  Zr  Zr71  1  0.01917542  0.81400601  0.75477382  1
  Zr  Zr72  1  0.51134914  0.91050710  0.35894768  1
  Zr  Zr73  1  0.27905921  0.30033923  0.11314508  1
  Zr  Zr74  1  0.49909471  0.69055045  0.12145662  1
  Zr  Zr75  1  0.09649586  0.09728316  0.61138788  1
  Zr  Zr76  1  0.40111835  0.01011288  0.76961803  1
  Zr  Zr77  1  0.59216412  0.20361291  -0.00327109  1
  Zr  Zr78  1  0.51179641  0.08203014  0.63095795  1
  Zr  Zr79  1  0.58983616  0.60473348  0.25715483  1
  Ta  Ta80  1  0.80155482  0.19718180  0.75016892  1
  Ta  Ta81  1  0.08475292  0.49620811  0.63391357  1
  Ta  Ta82  1  0.39795838  0.41005521  0.23602824  1
  Ta  Ta83  1  0.10366808  0.69936756  0.37463367  1
  Ta  Ta84  1  0.79348446  0.00364824  0.74412191  1
  Ta  Ta85  1  0.90017623  0.29613703  0.86745189  1
  Ta  Ta86  1  0.79687412  -0.00480264  0.00250393  1
  Ta  Ta87  1  0.69512512  0.90253663  0.12367783  1
  Ta  Ta88  1  0.11098019  0.89888207  0.38087621  1
  Ta  Ta89  1  0.10031592  0.69420739  0.12344571  1
  Ta  Ta90  1  0.08975602  0.30967876  0.11723338  1
  Ta  Ta91  1  0.89385672  0.10019041  0.62263858  1
  Ta  Ta92  1  0.79685248  -0.02290884  0.26393352  1
  Ta  Ta93  1  0.18518525  0.20522502  0.25076927  1
  Ta  Ta94  1  -0.00056105  0.19366148  0.75537041  1
  Ta  Ta95  1  0.00101556  0.79829672  0.25831594  1
  Ta  Ta96  1  0.19491843  0.59753834  0.74637019  1
  Ta  Ta97  1  0.28419745  0.50350986  0.88101310  1
  Ta  Ta98  1  0.29781669  0.51009321  0.12140294  1
  Ta  Ta99  1  0.00459656  0.20429290  -0.01459489  1
  Ta  Ta100  1  0.00643789  0.39726119  -0.02217984  1
  Ta  Ta101  1  -0.00206504  0.59794549  0.49764422  1
  Ta  Ta102  1  0.38451296  0.80472099  0.47942923  1
  Ta  Ta103  1  0.10943728  0.89618746  0.60586209  1
  Ta  Ta104  1  -0.00252643  0.59555866  0.76456880  1
  Ta  Ta105  1  0.20121527  0.39703328  0.75723365  1
  Ta  Ta106  1  0.80526258  0.40936354  0.75834980  1
  Ta  Ta107  1  -0.00560819  0.20217962  0.26982561  1
  Ta  Ta108  1  0.90884291  0.69849891  0.12252564  1
  Ta  Ta109  1  0.49611089  0.88425304  0.13756444  1
  Ta  Ta110  1  0.90397275  0.70734069  0.87115563  1
  Ta  Ta111  1  0.00288344  0.60776490  0.24896480  1
  Ta  Ta112  1  0.49344286  0.29697648  0.37247987  1
  Ta  Ta113  1  0.20233527  0.00506467  0.24150676  1
  Ta  Ta114  1  0.00675072  0.40222749  0.76846187  1
  Ta  Ta115  1  0.08684810  0.08807764  0.87170438  1
  Ta  Ta116  1  0.90278809  0.69674747  0.63140003  1
  Ta  Ta117  1  0.21612270  -0.00955246  0.49936629  1
  Ta  Ta118  1  0.27731864  0.09716521  0.88038828  1
  Ta  Ta119  1  0.39149134  0.37819248  0.50086462  1
  Ti  Ti120  1  0.81285998  0.80849213  -0.00424633  1
  Ti  Ti121  1  0.29074312  0.70904152  0.62848629  1
  Ti  Ti122  1  0.09663262  0.50331228  0.37186873  1
  Ti  Ti123  1  0.39140347  0.20953583  0.77647537  1
  Ti  Ti124  1  0.59212853  0.80551600  0.00077132  1
  Ti  Ti125  1  0.79476883  0.38536746  0.24355133  1
  Ti  Ti126  1  0.38809702  -0.01372104  0.24691541  1
  Ti  Ti127  1  0.69814042  0.51077383  0.88170042  1
  Ti  Ti128  1  0.50060024  0.30323278  0.12221901  1
  Ti  Ti129  1  0.31232269  0.11244304  0.62050172  1
  Ti  Ti130  1  0.70292589  0.89536127  0.87711183  1
  Ti  Ti131  1  0.19576471  0.39962509  0.24727365  1
  Ti  Ti132  1  0.81261256  -0.00065194  0.48727979  1
  Ti  Ti133  1  0.89708802  0.70490910  0.36924153  1
  Ti  Ti134  1  0.70675168  0.70688658  0.61939322  1
  Ti  Ti135  1  0.28168318  0.88915255  0.87292874  1
  Ti  Ti136  1  0.10444207  0.49776641  0.12031158  1
  Ti  Ti137  1  0.40051897  0.77770965  0.26730566  1
  Ti  Ti138  1  0.09491084  0.89880881  0.13503364  1
  Ti  Ti139  1  0.28283135  0.30234958  0.89049709  1
  Ti  Ti140  1  0.60200079  0.60830621  0.50158332  1
  Ti  Ti141  1  0.69946619  0.30468402  0.37902976  1
  Ti  Ti142  1  0.10280628  0.30420556  0.63087318  1
  Ti  Ti143  1  0.50109771  0.10482074  0.35847872  1
  Ti  Ti144  1  0.79906284  0.80587869  0.49925369  1
  Ti  Ti145  1  0.70590385  0.70256145  0.38170564  1
  Ti  Ti146  1  -0.00047928  -0.00138485  0.26553466  1
  Ti  Ti147  1  0.80998122  0.40257484  -0.00747310  1
  Ti  Ti148  1  0.70834369  0.49867594  0.62308085  1
  Ti  Ti149  1  0.30512333  0.69835500  0.87245708  1
  Ti  Ti150  1  0.49667708  0.49631602  0.87362301  1
  Ti  Ti151  1  0.89881286  0.09275188  0.14191932  1
  Ti  Ti152  1  0.90083282  0.50112378  0.62930865  1
  Ti  Ti153  1  0.80753773  0.19577854  0.26476910  1
  Ti  Ti154  1  0.80967837  0.59969022  -0.00742460  1
  Ti  Ti155  1  0.69449533  0.92527475  0.61474427  1
  Ti  Ti156  1  0.80437253  0.80381380  0.74593634  1
  Ti  Ti157  1  0.80011665  0.61569874  0.24558748  1
  Ti  Ti158  1  0.59782710  -0.00537018  0.76416666  1
  Ti  Ti159  1  0.21685010  0.20573262  0.50641455  1
  Mo  Mo160  1  0.10156002  0.30345527  0.37052254  1
  Mo  Mo161  1  0.29707728  0.90458954  0.36913168  1
  Mo  Mo162  1  0.48957942  0.49505824  0.12400313  1
  Mo  Mo163  1  0.38580884  0.39492419  0.77249965  1
  Mo  Mo164  1  0.29220772  0.29156970  0.63110086  1
  Mo  Mo165  1  0.48708228  0.30496363  0.87105133  1
  Mo  Mo166  1  0.20287566  0.80026118  0.49629836  1
  Mo  Mo167  1  0.71209363  0.30139986  0.12359631  1
  Mo  Mo168  1  0.89169997  0.50015775  0.87645094  1
  Mo  Mo169  1  0.40769363  0.80395428  -0.00437225  1
  Mo  Mo170  1  0.18532621  0.20094654  -0.00690637  1
  Mo  Mo171  1  0.31357900  0.89825298  0.13748538  1
  Mo  Mo172  1  0.11210913  0.91045741  0.88042498  1
  Mo  Mo173  1  0.10596782  0.29252786  0.87330991  1
  Mo  Mo174  1  0.71163331  0.09841444  0.62699627  1
  Mo  Mo175  1  0.30736280  0.70140439  0.13230717  1
  Mo  Mo176  1  0.49367171  0.09939279  0.87539398  1
  Mo  Mo177  1  0.19854154  0.59782756  0.00882936  1
  Mo  Mo178  1  0.89968886  0.09077810  0.36635737  1
  Mo  Mo179  1  0.50323628  0.90078827  0.62287442  1
  Mo  Mo180  1  0.10471435  0.50124322  0.86817392  1
  Mo  Mo181  1  0.18808025  0.41049968  -0.00291575  1
  Mo  Mo182  1  0.51080518  0.89456822  0.87551959  1
  Mo  Mo183  1  0.50075950  0.69674444  0.38221703  1
  Mo  Mo184  1  0.88548178  0.30417962  0.36606592  1
  Mo  Mo185  1  0.00159705  -0.00180562  0.48799087  1
  Mo  Mo186  1  0.21203715  0.79388932  0.74794102  1
  Mo  Mo187  1  0.60776373  0.59792237  -0.00301352  1
  Mo  Mo188  1  0.71669530  0.89181285  0.38328851  1
  Mo  Mo189  1  0.81060074  0.78709811  0.25132575  1
  Mo  Mo190  1  0.60174856  -0.00594835  0.24206872  1
  Mo  Mo191  1  0.39936946  0.19758314  0.49694609  1
  Mo  Mo192  1  0.28836695  0.09666446  0.13013086  1
  Mo  Mo193  1  -0.00118405  0.01020243  0.74067058  1
  Mo  Mo194  1  0.90635755  0.89680740  0.37410487  1
  Mo  Mo195  1  0.79763461  0.40314251  0.50510493  1
  Mo  Mo196  1  0.89666904  0.10395554  0.86862361  1
  Mo  Mo197  1  0.29667814  0.70579523  0.37376855  1
  Mo  Mo198  1  0.39738850  0.59745276  0.25024408  1
  Mo  Mo199  1  0.61889371  0.00377769  0.49779728  1
