# generated using pymatgen
data_HfZrTaTiMo
_symmetry_space_group_name_H-M   'P 1'
_cell_length_a   15.21046512
_cell_length_b   15.17864639
_cell_length_c   16.81185806
_cell_angle_alpha   89.90111371
_cell_angle_beta   89.99688528
_cell_angle_gamma   90.05313891
_symmetry_Int_Tables_number   1
_chemical_formula_structural   HfZrTaTiMo
_chemical_formula_sum   'Hf40 Zr40 Ta40 Ti40 Mo40'
_cell_volume   3881.41802534
_cell_formula_units_Z   40
loop_
 _symmetry_equiv_pos_site_id
 _symmetry_equiv_pos_as_xyz
  1  'x, y, z'
loop_
 _atom_site_type_symbol
 _atom_site_label
 _atom_site_symmetry_multiplicity
 _atom_site_fract_x
 _atom_site_fract_y
 _atom_site_fract_z
 _atom_site_occupancy
  Hf  Hf0  1  0.09923460  0.09774146  0.86598008  1
  Hf  Hf1  1  0.69810811  0.70431474  0.62682846  1
  Hf  Hf2  1  0.30878139  0.28914845  0.88703627  1
  Hf  Hf3  1  0.70414894  0.11318990  0.60927829  1
  Hf  Hf4  1  0.88997690  0.50902418  0.36048748  1
  Hf  Hf5  1  0.68411035  0.70599177  0.37141235  1
  Hf  Hf6  1  0.19982238  0.77538545  0.00551899  1
  Hf  Hf7  1  0.10009666  0.29630471  0.61139032  1
  Hf  Hf8  1  -0.01749295  0.39735632  0.48453343  1
  Hf  Hf9  1  0.29842913  0.69493365  0.86009150  1
  Hf  Hf10  1  0.61010175  0.19488397  -0.00448287  1
  Hf  Hf11  1  0.01466540  0.61885740  0.24250962  1
  Hf  Hf12  1  0.80657481  0.20277287  -0.00008980  1
  Hf  Hf13  1  0.30536385  0.90049990  0.87330397  1
  Hf  Hf14  1  0.59829974  0.81451457  0.75313542  1
  Hf  Hf15  1  0.59873947  0.59901552  0.50369678  1
  Hf  Hf16  1  0.31453299  0.69704470  0.35829152  1
  Hf  Hf17  1  -0.00502070  0.61097763  0.00856520  1
  Hf  Hf18  1  0.70296436  0.28727045  0.14071992  1
  Hf  Hf19  1  0.20116023  0.60302266  0.50506142  1
  Hf  Hf20  1  0.50324228  0.91372505  0.88824535  1
  Hf  Hf21  1  0.60525311  0.19996588  0.75368064  1
  Hf  Hf22  1  0.39894646  0.00413636  0.23313580  1
  Hf  Hf23  1  0.79380030  0.00844073  0.74120315  1
  Hf  Hf24  1  -0.01196065  0.39535248  0.00968571  1
  Hf  Hf25  1  -0.00090934  0.81108794  -0.00180418  1
  Hf  Hf26  1  -0.01982262  0.01082999  0.24907274  1
  Hf  Hf27  1  0.08815904  0.49867519  0.61841812  1
  Hf  Hf28  1  0.61208951  0.40018967  -0.00284880  1
  Hf  Hf29  1  0.30431489  0.49882820  0.37185354  1
  Hf  Hf30  1  0.50298018  0.88117115  0.36037782  1
  Hf  Hf31  1  0.88583124  0.50009365  0.13908290  1
  Hf  Hf32  1  0.89116059  0.71434388  0.13188819  1
  Hf  Hf33  1  0.29055283  0.49476464  0.89696505  1
  Hf  Hf34  1  0.09986374  0.89910871  0.85830239  1
  Hf  Hf35  1  0.10126722  0.08184306  0.38482897  1
  Hf  Hf36  1  0.09202139  0.50207457  0.88568847  1
  Hf  Hf37  1  0.69091140  0.49286172  0.36875633  1
  Hf  Hf38  1  0.28023559  0.89309527  0.13068587  1
  Hf  Hf39  1  0.40656724  0.78722819  0.22311217  1
  Zr  Zr40  1  0.10520904  0.50935283  0.37117943  1
  Zr  Zr41  1  0.40389573  0.40099207  0.25117868  1
  Zr  Zr42  1  0.20986908  0.40413009  0.74781457  1
  Zr  Zr43  1  0.50918846  0.09445170  0.37150848  1
  Zr  Zr44  1  0.29381426  0.29463400  0.11973538  1
  Zr  Zr45  1  0.40041197  0.61545006  0.50588786  1
  Zr  Zr46  1  0.57769171  0.81057547  0.50781171  1
  Zr  Zr47  1  0.00106893  0.39315110  0.74775673  1
  Zr  Zr48  1  0.79865063  0.80252601  0.75348192  1
  Zr  Zr49  1  0.40540776  -0.02513969  0.49567395  1
  Zr  Zr50  1  0.00883754  0.20448036  0.26269112  1
  Zr  Zr51  1  0.40042651  0.57876348  0.75239201  1
  Zr  Zr52  1  0.79079172  0.81866562  0.49751666  1
  Zr  Zr53  1  0.30501028  0.48878755  0.61889483  1
  Zr  Zr54  1  0.41059289  0.18933210  0.01037493  1
  Zr  Zr55  1  0.28175796  0.89330661  0.35503965  1
  Zr  Zr56  1  0.90288601  0.71840550  0.36893368  1
  Zr  Zr57  1  0.30020138  0.49444679  0.11687220  1
  Zr  Zr58  1  0.20583237  0.19985920  0.74736121  1
  Zr  Zr59  1  0.48046141  0.70994146  0.64394892  1
  Zr  Zr60  1  0.88810736  0.91772042  0.11668532  1
  Zr  Zr61  1  0.70798629  0.09074748  0.38025209  1
  Zr  Zr62  1  -0.00048853  0.61274775  0.49585605  1
  Zr  Zr63  1  0.21978433  0.79420050  0.51421520  1
  Zr  Zr64  1  0.09942326  0.10080193  0.62073983  1
  Zr  Zr65  1  0.10353072  0.90005059  0.64404130  1
  Zr  Zr66  1  0.11070877  0.49931015  0.12122264  1
  Zr  Zr67  1  0.40942450  0.20258898  0.24853689  1
  Zr  Zr68  1  0.49635680  0.29011218  0.62372649  1
  Zr  Zr69  1  0.09555585  0.69807047  0.85595927  1
  Zr  Zr70  1  0.00188076  0.39813104  0.25431063  1
  Zr  Zr71  1  0.69915625  0.31874548  0.62214905  1
  Zr  Zr72  1  0.50078656  0.50381887  0.88473012  1
  Zr  Zr73  1  0.10435858  0.29957724  0.88401263  1
  Zr  Zr74  1  0.20149222  -0.01117634  0.50659233  1
  Zr  Zr75  1  -0.03442169  0.58897892  0.75129537  1
  Zr  Zr76  1  0.59987165  0.41156395  0.75995677  1
  Zr  Zr77  1  0.89941097  0.70242742  0.62051577  1
  Zr  Zr78  1  0.18621488  -0.00778264  0.00360652  1
  Zr  Zr79  1  0.39677130  0.00846620  0.02031651  1
  Ta  Ta80  1  0.79883544  0.59663134  0.49404383  1
  Ta  Ta81  1  0.19704444  0.38103067  0.26241137  1
  Ta  Ta82  1  0.69878992  0.70237618  0.12397473  1
  Ta  Ta83  1  0.79612737  0.00799912  -0.00911211  1
  Ta  Ta84  1  0.90028925  0.30451256  0.87227430  1
  Ta  Ta85  1  0.30502188  0.28665241  0.61358778  1
  Ta  Ta86  1  0.60173630  0.79646215  0.00116712  1
  Ta  Ta87  1  0.49865438  0.70695273  0.87995711  1
  Ta  Ta88  1  0.50774279  0.08974650  0.61155594  1
  Ta  Ta89  1  0.41204227  0.39153470  0.48989977  1
  Ta  Ta90  1  0.89584766  0.90959663  0.87636267  1
  Ta  Ta91  1  0.00777671  0.82175543  0.24561768  1
  Ta  Ta92  1  0.69137377  0.49590651  0.13562348  1
  Ta  Ta93  1  0.01412191  0.81630068  0.50126221  1
  Ta  Ta94  1  0.59140223  0.00888645  0.74873480  1
  Ta  Ta95  1  0.51157063  0.30721159  0.12388703  1
  Ta  Ta96  1  0.20387607  0.18642158  0.25538420  1
  Ta  Ta97  1  0.61828109  -0.01523186  0.24452273  1
  Ta  Ta98  1  0.20130314  0.18322755  0.00429313  1
  Ta  Ta99  1  0.39987768  0.19227977  0.48934477  1
  Ta  Ta100  1  0.11532306  0.71931218  0.36835440  1
  Ta  Ta101  1  0.10432534  0.69824323  0.64562998  1
  Ta  Ta102  1  0.40632738  0.17497938  0.75794025  1
  Ta  Ta103  1  0.39723130  0.61431369  0.01161484  1
  Ta  Ta104  1  0.80956758  0.41755185  0.75213535  1
  Ta  Ta105  1  0.51495598  0.90039389  0.11984330  1
  Ta  Ta106  1  0.71586995  0.30147637  0.86585340  1
  Ta  Ta107  1  0.49997308  0.50912223  0.37492639  1
  Ta  Ta108  1  0.00159947  0.19498675  0.00334973  1
  Ta  Ta109  1  0.79057709  0.59752133  0.00700992  1
  Ta  Ta110  1  0.80428788  0.22505084  0.48420448  1
  Ta  Ta111  1  0.31678626  0.09344530  0.62170245  1
  Ta  Ta112  1  0.89612458  0.10907825  0.86754192  1
  Ta  Ta113  1  0.89174614  0.30607181  0.62018207  1
  Ta  Ta114  1  -0.01269515  0.00551647  0.74678601  1
  Ta  Ta115  1  0.70046133  0.09854002  0.87001953  1
  Ta  Ta116  1  0.79022130  0.82616337  0.25680993  1
  Ta  Ta117  1  0.51253960  0.48913560  0.62053813  1
  Ta  Ta118  1  0.89981727  0.28772794  0.13467135  1
  Ta  Ta119  1  0.20283079  0.38900153  0.48827493  1
  Ti  Ti120  1  0.30399034  0.28969596  0.37689910  1
  Ti  Ti121  1  0.90078285  0.11165013  0.61228069  1
  Ti  Ti122  1  -0.00865650  0.01172227  -0.00216502  1
  Ti  Ti123  1  0.40323303  0.37929772  0.75168382  1
  Ti  Ti124  1  0.10371068  0.29311506  0.12201338  1
  Ti  Ti125  1  0.60741297  0.00666193  0.00671333  1
  Ti  Ti126  1  0.50611372  0.29264999  0.87709367  1
  Ti  Ti127  1  0.30297680  0.09003960  0.37021108  1
  Ti  Ti128  1  0.58830985  0.59770345  0.23816172  1
  Ti  Ti129  1  0.59148103  0.39157019  0.25366766  1
  Ti  Ti130  1  0.00153779  0.20267143  0.48924081  1
  Ti  Ti131  1  0.71448311  0.50757157  0.87684491  1
  Ti  Ti132  1  0.79521949  0.38251510  0.25995965  1
  Ti  Ti133  1  0.79934485  0.40153027  0.00470650  1
  Ti  Ti134  1  0.59778104  0.60128089  0.00792015  1
  Ti  Ti135  1  0.89678876  0.91343143  0.61652366  1
  Ti  Ti136  1  0.41180725  0.39854172  0.00570948  1
  Ti  Ti137  1  0.69417442  0.69731084  0.87956449  1
  Ti  Ti138  1  0.60647868  0.60371565  0.75253528  1
  Ti  Ti139  1  0.79584626  0.79840339  -0.00802202  1
  Ti  Ti140  1  0.40171094  0.79818918  0.01376836  1
  Ti  Ti141  1  0.59665512  0.21591722  0.48748217  1
  Ti  Ti142  1  -0.01346922  0.19920005  0.74329909  1
  Ti  Ti143  1  0.22144445  0.00632513  0.74829915  1
  Ti  Ti144  1  0.17421644  -0.01269997  0.24310746  1
  Ti  Ti145  1  0.89854285  0.10256785  0.38983106  1
  Ti  Ti146  1  0.70039543  0.90334719  0.88157092  1
  Ti  Ti147  1  -0.01373384  0.80568059  0.74950221  1
  Ti  Ti148  1  0.32515413  0.88329071  0.64606196  1
  Ti  Ti149  1  0.72747110  0.09301890  0.14116484  1
  Ti  Ti150  1  0.40894373  0.59558068  0.22961953  1
  Ti  Ti151  1  0.60148314  0.78941304  0.23683287  1
  Ti  Ti152  1  0.09312537  0.09787217  0.12677581  1
  Ti  Ti153  1  0.20756708  0.19478429  0.49120755  1
  Ti  Ti154  1  0.70248093  0.89919426  0.11672352  1
  Ti  Ti155  1  0.53413949  0.10745561  0.14084255  1
  Ti  Ti156  1  0.71140154  0.50648690  0.62336566  1
  Ti  Ti157  1  0.88620554  0.69298778  0.87750983  1
  Ti  Ti158  1  0.78528926  0.61324878  0.24822706  1
  Ti  Ti159  1  0.89699146  0.91833340  0.38551806  1
  Mo  Mo160  1  0.27753287  0.09832381  0.13697849  1
  Mo  Mo161  1  0.10916544  0.29268676  0.38703978  1
  Mo  Mo162  1  0.29396118  0.68759892  0.13245606  1
  Mo  Mo163  1  0.50552139  0.10022343  0.87897780  1
  Mo  Mo164  1  0.08664380  0.89469239  0.37562265  1
  Mo  Mo165  1  0.60990768  0.19928238  0.25410714  1
  Mo  Mo166  1  0.49702857  0.91005640  0.63271571  1
  Mo  Mo167  1  0.18908828  0.78711234  0.23782050  1
  Mo  Mo168  1  0.60921230  -0.00516209  0.50392143  1
  Mo  Mo169  1  0.59836592  0.40307629  0.49445503  1
  Mo  Mo170  1  0.89681857  0.29827978  0.37188026  1
  Mo  Mo171  1  0.50127492  0.68893883  0.36246814  1
  Mo  Mo172  1  0.88682017  0.49816883  0.88905565  1
  Mo  Mo173  1  0.50803793  0.69713815  0.11198330  1
  Mo  Mo174  1  0.30184098  0.09457159  0.87414583  1
  Mo  Mo175  1  0.68795096  0.91924521  0.62433504  1
  Mo  Mo176  1  0.20449044  0.80223534  0.74581295  1
  Mo  Mo177  1  0.69330635  0.29601830  0.36445034  1
  Mo  Mo178  1  0.20978226  0.59603397  0.24871777  1
  Mo  Mo179  1  0.39274981  0.79573114  0.49964005  1
  Mo  Mo180  1  0.40645374  0.80342461  0.76615851  1
  Mo  Mo181  1  0.79093410  0.40984042  0.49166092  1
  Mo  Mo182  1  0.50808300  0.49681202  0.11611472  1
  Mo  Mo183  1  0.88184811  0.49387113  0.61403742  1
  Mo  Mo184  1  0.50539574  0.30501910  0.37945809  1
  Mo  Mo185  1  0.90023591  0.11175611  0.12226303  1
  Mo  Mo186  1  0.81216280  0.19530255  0.26537008  1
  Mo  Mo187  1  0.69839339  0.90081613  0.37392721  1
  Mo  Mo188  1  0.19084911  0.59106391  0.74328325  1
  Mo  Mo189  1  0.80625469  0.01131077  0.51116684  1
  Mo  Mo190  1  0.40913081  -0.00021816  0.75017208  1
  Mo  Mo191  1  0.10087475  0.70787603  0.12933038  1
  Mo  Mo192  1  0.80968804  0.20886591  0.74715190  1
  Mo  Mo193  1  0.29049401  0.69688958  0.65214203  1
  Mo  Mo194  1  0.19491389  0.38418347  0.00161000  1
  Mo  Mo195  1  -0.00899856  0.00003658  0.50584878  1
  Mo  Mo196  1  0.08637763  0.90292560  0.11987925  1
  Mo  Mo197  1  0.78301553  0.60068782  0.75558176  1
  Mo  Mo198  1  0.80297596  0.00195324  0.25586808  1
  Mo  Mo199  1  0.19798274  0.59889488  -0.00041442  1
