# generated using pymatgen
data_HfZrTaTiMo
_symmetry_space_group_name_H-M   'P 1'
_cell_length_a   15.20755452
_cell_length_b   15.20289731
_cell_length_c   16.83160698
_cell_angle_alpha   90.04450159
_cell_angle_beta   90.00336660
_cell_angle_gamma   90.00856432
_symmetry_Int_Tables_number   1
_chemical_formula_structural   HfZrTaTiMo
_chemical_formula_sum   'Hf40 Zr40 Ta40 Ti40 Mo40'
_cell_volume   3891.44762314
_cell_formula_units_Z   40
loop_
 _symmetry_equiv_pos_site_id
 _symmetry_equiv_pos_as_xyz
  1  'x, y, z'
loop_
 _atom_site_type_symbol
 _atom_site_label
 _atom_site_symmetry_multiplicity
 _atom_site_fract_x
 _atom_site_fract_y
 _atom_site_fract_z
 _atom_site_occupancy
  Hf  Hf0  1  0.00786384  0.81159012  -0.00868696  1
  Hf  Hf1  1  0.88243898  0.88306614  0.63627063  1
  Hf  Hf2  1  0.39291764  0.77804577  0.25137697  1
  Hf  Hf3  1  0.90456659  0.09253832  0.12611602  1
  Hf  Hf4  1  0.11848427  0.48900094  0.87022902  1
  Hf  Hf5  1  0.60191267  0.21276500  0.00491674  1
  Hf  Hf6  1  0.91252716  0.30362591  0.37441686  1
  Hf  Hf7  1  0.38328383  -0.00819515  0.49654739  1
  Hf  Hf8  1  0.59157900  0.00981457  0.23502046  1
  Hf  Hf9  1  0.27691998  0.90282267  0.35464720  1
  Hf  Hf10  1  0.50767112  0.69537431  0.62971348  1
  Hf  Hf11  1  0.59833762  0.79843259  0.23350935  1
  Hf  Hf12  1  0.83531001  0.60571289  0.49880531  1
  Hf  Hf13  1  0.28199911  0.68458310  0.36927071  1
  Hf  Hf14  1  0.40698589  0.58527907  -0.01430003  1
  Hf  Hf15  1  0.48278194  0.89272627  0.62653419  1
  Hf  Hf16  1  0.18576626  0.80221326  0.50068434  1
  Hf  Hf17  1  0.80256851  0.79221336  0.24389223  1
  Hf  Hf18  1  0.02693781  0.62015189  0.24347389  1
  Hf  Hf19  1  0.49227345  0.30618247  0.88332000  1
  Hf  Hf20  1  0.47821873  0.89602919  0.89351261  1
  Hf  Hf21  1  0.71417722  0.71728914  0.61894785  1
  Hf  Hf22  1  0.79469341  0.59890511  -0.00933953  1
  Hf  Hf23  1  0.30491097  0.50070681  0.64168430  1
  Hf  Hf24  1  0.70307845  0.51912570  0.62275359  1
  Hf  Hf25  1  0.40219395  0.39473203  0.51466864  1
  Hf  Hf26  1  0.71243347  0.31364731  0.87188708  1
  Hf  Hf27  1  0.60248567  0.61047743  0.25807161  1
  Hf  Hf28  1  0.80259971  0.80303121  -0.00495769  1
  Hf  Hf29  1  0.41003143  0.59779286  0.49127275  1
  Hf  Hf30  1  -0.00450124  0.00448198  -0.01052123  1
  Hf  Hf31  1  0.21182095  0.61181785  0.76244630  1
  Hf  Hf32  1  0.00326643  0.41105880  0.51090120  1
  Hf  Hf33  1  -0.00274445  -0.00588656  0.50480258  1
  Hf  Hf34  1  0.71846533  0.49657611  0.37571989  1
  Hf  Hf35  1  0.69066383  0.10725506  0.37881214  1
  Hf  Hf36  1  0.29239554  0.09110979  0.62943325  1
  Hf  Hf37  1  0.80257821  -0.00280342  0.49673710  1
  Hf  Hf38  1  0.09190980  0.89535668  0.64519996  1
  Hf  Hf39  1  0.10284053  0.10404614  0.85455810  1
  Zr  Zr40  1  0.29035623  0.11083704  0.37934997  1
  Zr  Zr41  1  0.19678118  0.59211911  0.50970032  1
  Zr  Zr42  1  0.69523572  0.90073660  0.36761892  1
  Zr  Zr43  1  0.81245884  0.40356196  0.73341781  1
  Zr  Zr44  1  0.68524166  0.89765920  0.87182294  1
  Zr  Zr45  1  0.50828204  0.48855708  0.37104915  1
  Zr  Zr46  1  0.70236159  0.31637599  0.13496979  1
  Zr  Zr47  1  0.46887851  0.11278360  0.10202046  1
  Zr  Zr48  1  0.80842189  0.19364687  0.25975862  1
  Zr  Zr49  1  0.80896487  0.39585003  0.51663637  1
  Zr  Zr50  1  0.71259394  0.51043313  0.13560550  1
  Zr  Zr51  1  0.39691892  0.19150257  0.75235450  1
  Zr  Zr52  1  0.47213293  0.89810561  0.11708108  1
  Zr  Zr53  1  0.22546573  0.39948177  -0.00381621  1
  Zr  Zr54  1  0.30281653  0.70766495  0.62228951  1
  Zr  Zr55  1  0.32414144  0.29150128  0.11864118  1
  Zr  Zr56  1  0.59716700  0.20443493  0.74973173  1
  Zr  Zr57  1  0.11039218  0.50837280  0.37294202  1
  Zr  Zr58  1  0.08101040  0.88965203  0.35788740  1
  Zr  Zr59  1  0.78502896  0.00771624  0.75217382  1
  Zr  Zr60  1  -0.01942598  0.78249357  0.76719855  1
  Zr  Zr61  1  0.58320247  0.00434138  0.49638016  1
  Zr  Zr62  1  0.00012396  0.20220386  -0.00948491  1
  Zr  Zr63  1  0.27564323  0.89281537  0.13418874  1
  Zr  Zr64  1  0.20384848  0.38693687  0.50566719  1
  Zr  Zr65  1  0.82518285  0.59807073  0.25918764  1
  Zr  Zr66  1  0.69702186  0.30620232  0.37403359  1
  Zr  Zr67  1  0.48679942  0.90208688  0.36068581  1
  Zr  Zr68  1  0.49675891  0.29139078  0.38299798  1
  Zr  Zr69  1  0.67961340  0.90335557  0.62795491  1
  Zr  Zr70  1  0.90481438  0.30053456  0.13146744  1
  Zr  Zr71  1  0.60005032  0.78616701  0.01809895  1
  Zr  Zr72  1  0.21935193  0.40573755  0.24764539  1
  Zr  Zr73  1  0.01126808  0.40324982  0.24304104  1
  Zr  Zr74  1  0.59923212  -0.00034692  0.01048632  1
  Zr  Zr75  1  0.80978586  0.61478356  0.75928123  1
  Zr  Zr76  1  0.57695313  0.21165620  0.23354763  1
  Zr  Zr77  1  0.01401046  0.39341205  -0.00219562  1
  Zr  Zr78  1  0.12083379  0.51678579  0.11276176  1
  Zr  Zr79  1  0.69727194  0.10869029  0.61884861  1
  Ta  Ta80  1  0.38437318  0.79528400  0.75941533  1
  Ta  Ta81  1  0.90539231  0.10025909  0.63444436  1
  Ta  Ta82  1  0.51032801  0.48573984  0.13252004  1
  Ta  Ta83  1  0.80108224  0.00655240  -0.00657034  1
  Ta  Ta84  1  0.08349523  0.68947210  0.63679112  1
  Ta  Ta85  1  0.49999838  0.70341437  0.87581631  1
  Ta  Ta86  1  0.48999802  0.09695166  0.89075469  1
  Ta  Ta87  1  0.39681271  0.19873506  0.51794039  1
  Ta  Ta88  1  0.48673561  0.10599988  0.37377245  1
  Ta  Ta89  1  0.20396869  0.19872221  0.24455387  1
  Ta  Ta90  1  0.00154275  0.39547885  0.75576258  1
  Ta  Ta91  1  0.60628022  0.41744872  -0.00493504  1
  Ta  Ta92  1  0.09206626  0.09653234  0.37729730  1
  Ta  Ta93  1  0.19439436  0.19743117  -0.00416726  1
  Ta  Ta94  1  0.40828416  0.39712676  0.74792272  1
  Ta  Ta95  1  0.18518354  -0.00919566  -0.00514105  1
  Ta  Ta96  1  0.90642359  0.69723436  0.11184039  1
  Ta  Ta97  1  0.00575911  0.60596144  -0.01587642  1
  Ta  Ta98  1  0.18610692  -0.00084830  0.50509689  1
  Ta  Ta99  1  -0.00750844  0.20878685  0.75079469  1
  Ta  Ta100  1  0.09598493  0.09898525  0.64109316  1
  Ta  Ta101  1  0.48541584  0.67742223  0.12298769  1
  Ta  Ta102  1  0.71468653  0.90950971  0.12700846  1
  Ta  Ta103  1  0.09833001  0.90433782  0.85643717  1
  Ta  Ta104  1  0.27731960  0.09300392  0.11596342  1
  Ta  Ta105  1  0.89054657  0.10893136  0.86256261  1
  Ta  Ta106  1  0.52185422  0.50541713  0.86123666  1
  Ta  Ta107  1  0.10124948  0.49728335  0.64555065  1
  Ta  Ta108  1  0.70915131  0.10473450  0.12189703  1
  Ta  Ta109  1  -0.01479952  0.78679457  0.50776904  1
  Ta  Ta110  1  0.89737289  0.48941648  0.88084684  1
  Ta  Ta111  1  0.90438533  0.89885130  0.12859754  1
  Ta  Ta112  1  0.69440282  0.10794670  0.87956900  1
  Ta  Ta113  1  0.39625246  -0.01078039  0.75917723  1
  Ta  Ta114  1  0.91185041  0.50551220  0.11348636  1
  Ta  Ta115  1  0.01674903  0.18801615  0.25048473  1
  Ta  Ta116  1  0.29338255  0.69082748  0.11908638  1
  Ta  Ta117  1  0.50794451  0.50108621  0.63516248  1
  Ta  Ta118  1  0.58881553  0.79245983  0.48797256  1
  Ta  Ta119  1  0.32529579  0.50434581  0.12357559  1
  Ti  Ti120  1  0.20917144  -0.00684638  0.75404619  1
  Ti  Ti121  1  0.80389540  0.00200478  0.25667588  1
  Ti  Ti122  1  0.89225823  0.90711668  0.86338280  1
  Ti  Ti123  1  0.80201943  0.21245625  0.74393762  1
  Ti  Ti124  1  0.49489788  0.09608372  0.62768619  1
  Ti  Ti125  1  0.10717882  0.72093036  0.11352165  1
  Ti  Ti126  1  0.38204037  0.02165775  0.24609689  1
  Ti  Ti127  1  0.59914516  0.40480336  0.51264941  1
  Ti  Ti128  1  0.60317933  0.59915121  0.00361028  1
  Ti  Ti129  1  0.11082045  0.28977995  0.37758773  1
  Ti  Ti130  1  0.39645915  0.58171698  0.25928876  1
  Ti  Ti131  1  0.80447930  0.20241107  -0.00449685  1
  Ti  Ti132  1  0.58055615  0.00652532  0.75946243  1
  Ti  Ti133  1  0.10094709  0.29358179  0.63801276  1
  Ti  Ti134  1  0.30527479  0.30022854  0.37452209  1
  Ti  Ti135  1  0.60773485  0.40719060  0.74529736  1
  Ti  Ti136  1  0.59082421  0.79731250  0.75528173  1
  Ti  Ti137  1  0.08887007  0.91658758  0.14367930  1
  Ti  Ti138  1  0.69551631  0.30414394  0.62436192  1
  Ti  Ti139  1  0.39552012  0.79436691  0.48268716  1
  Ti  Ti140  1  0.92487695  0.70439116  0.37368908  1
  Ti  Ti141  1  0.29913845  0.08901816  0.88189426  1
  Ti  Ti142  1  0.00211941  0.19778606  0.50729548  1
  Ti  Ti143  1  0.81302136  0.19817646  0.50213020  1
  Ti  Ti144  1  0.68940371  0.69202232  0.86860035  1
  Ti  Ti145  1  0.28645495  0.29978859  0.86290961  1
  Ti  Ti146  1  0.58987470  0.20941595  0.51173617  1
  Ti  Ti147  1  0.29396821  0.29424754  0.63913517  1
  Ti  Ti148  1  0.21338942  0.61147479  -0.01875114  1
  Ti  Ti149  1  0.29011313  0.89549013  0.62926082  1
  Ti  Ti150  1  0.71309145  0.70797912  0.38676385  1
  Ti  Ti151  1  0.11419229  0.71310724  0.87643514  1
  Ti  Ti152  1  0.00003420  0.59207717  0.77171530  1
  Ti  Ti153  1  0.41723769  0.38341319  0.24889098  1
  Ti  Ti154  1  0.28372445  0.88342336  0.88263415  1
  Ti  Ti155  1  0.41154359  0.60166124  0.76231607  1
  Ti  Ti156  1  0.19408382  0.19398043  0.50923611  1
  Ti  Ti157  1  0.80608805  0.39821899  -0.00094333  1
  Ti  Ti158  1  0.89453864  0.89561563  0.37030134  1
  Ti  Ti159  1  0.60520929  0.60327944  0.48970116  1
  Mo  Mo160  1  0.01390568  0.60313833  0.50408827  1
  Mo  Mo161  1  -0.01738878  0.00645313  0.25678411  1
  Mo  Mo162  1  0.90673069  0.09908832  0.38239647  1
  Mo  Mo163  1  0.21689122  0.60511607  0.23948508  1
  Mo  Mo164  1  0.92410183  0.51448248  0.63668209  1
  Mo  Mo165  1  0.19818768  0.80115419  0.75056259  1
  Mo  Mo166  1  0.37256981  -0.00471198  -0.00743861  1
  Mo  Mo167  1  0.91059612  0.28953043  0.62083174  1
  Mo  Mo168  1  0.41468664  0.40371529  -0.00757572  1
  Mo  Mo169  1  0.90236899  0.69774798  0.89112360  1
  Mo  Mo170  1  -0.00909273  0.00267021  0.75203012  1
  Mo  Mo171  1  0.30930379  0.48350229  0.37056637  1
  Mo  Mo172  1  0.70322831  0.70212250  0.12202036  1
  Mo  Mo173  1  0.09872509  0.70757859  0.37654544  1
  Mo  Mo174  1  0.18191740  0.78493731  0.24297138  1
  Mo  Mo175  1  0.50179300  0.69930566  0.37576369  1
  Mo  Mo176  1  0.91399351  0.49886964  0.37108335  1
  Mo  Mo177  1  0.70043462  0.50102522  0.87190174  1
  Mo  Mo178  1  0.19919862  0.19729363  0.74752090  1
  Mo  Mo179  1  0.32047706  0.49074508  0.85849633  1
  Mo  Mo180  1  0.11796156  0.27757523  0.12527972  1
  Mo  Mo181  1  0.20532512  0.39380272  0.74687251  1
  Mo  Mo182  1  0.10490870  0.29730946  0.86158900  1
  Mo  Mo183  1  0.50358330  0.30353857  0.62675739  1
  Mo  Mo184  1  -0.01133738  0.79785481  0.23680329  1
  Mo  Mo185  1  0.89897451  0.29990897  0.87385323  1
  Mo  Mo186  1  0.60581576  0.40553020  0.25051335  1
  Mo  Mo187  1  0.19404343  0.80127522  -0.00040094  1
  Mo  Mo188  1  0.80154321  0.80261586  0.48872667  1
  Mo  Mo189  1  0.78443276  0.80122841  0.76675140  1
  Mo  Mo190  1  0.09924024  0.09933313  0.12259347  1
  Mo  Mo191  1  0.38100512  0.20271652  -0.02041841  1
  Mo  Mo192  1  0.60298464  0.60615929  0.74941071  1
  Mo  Mo193  1  0.90349608  0.69646034  0.62960385  1
  Mo  Mo194  1  0.81904379  0.40570854  0.25499797  1
  Mo  Mo195  1  0.18040936  0.01481394  0.24803681  1
  Mo  Mo196  1  0.39187753  0.19780014  0.24845516  1
  Mo  Mo197  1  0.30881937  0.70370029  0.88131857  1
  Mo  Mo198  1  0.38465098  0.78528125  0.00114026  1
  Mo  Mo199  1  0.49915919  0.31241145  0.10616139  1
