# generated using pymatgen
data_HfZrTaTiMo
_symmetry_space_group_name_H-M   'P 1'
_cell_length_a   15.20814137
_cell_length_b   15.21485031
_cell_length_c   16.87557952
_cell_angle_alpha   89.92702639
_cell_angle_beta   89.98342968
_cell_angle_gamma   89.96938878
_symmetry_Int_Tables_number   1
_chemical_formula_structural   HfZrTaTiMo
_chemical_formula_sum   'Hf40 Zr40 Ta40 Ti40 Mo40'
_cell_volume   3904.82961429
_cell_formula_units_Z   40
loop_
 _symmetry_equiv_pos_site_id
 _symmetry_equiv_pos_as_xyz
  1  'x, y, z'
loop_
 _atom_site_type_symbol
 _atom_site_label
 _atom_site_symmetry_multiplicity
 _atom_site_fract_x
 _atom_site_fract_y
 _atom_site_fract_z
 _atom_site_occupancy
  Hf  Hf0  1  0.50363448  0.90007544  0.86524656  1
  Hf  Hf1  1  0.00962908  0.02207507  0.48961998  1
  Hf  Hf2  1  0.28590885  0.50430674  0.89229031  1
  Hf  Hf3  1  0.69108979  0.11083271  0.85162991  1
  Hf  Hf4  1  0.50289854  0.91005029  0.37787681  1
  Hf  Hf5  1  0.39436154  0.59285220  0.26012669  1
  Hf  Hf6  1  0.60454794  0.01186270  -0.00603810  1
  Hf  Hf7  1  0.71207592  0.68426762  0.12819409  1
  Hf  Hf8  1  0.91496426  0.29471215  0.36171979  1
  Hf  Hf9  1  0.42088656  0.40484478  0.00209001  1
  Hf  Hf10  1  0.79975345  0.17147677  0.26338418  1
  Hf  Hf11  1  0.80937257  0.39544012  0.49286504  1
  Hf  Hf12  1  0.39644739  0.23256615  0.74863700  1
  Hf  Hf13  1  0.39228202  0.02294311  0.00153907  1
  Hf  Hf14  1  0.90732916  0.47774096  0.62589510  1
  Hf  Hf15  1  0.29471314  0.11126657  0.63905432  1
  Hf  Hf16  1  0.39920105  0.79928075  0.74381018  1
  Hf  Hf17  1  0.68375176  0.70767688  0.64150280  1
  Hf  Hf18  1  0.50556651  0.92458410  0.13019314  1
  Hf  Hf19  1  0.49267445  0.68997188  0.12699321  1
  Hf  Hf20  1  0.58470134  0.18576072  0.26219695  1
  Hf  Hf21  1  0.19901121  -0.00929139  0.74516326  1
  Hf  Hf22  1  0.78909759  0.19068726  -0.00096402  1
  Hf  Hf23  1  0.89744844  0.70233690  0.37431700  1
  Hf  Hf24  1  0.69479246  0.10804150  0.63519874  1
  Hf  Hf25  1  0.79921769  0.80483998  0.51415606  1
  Hf  Hf26  1  0.72041525  0.30216083  0.62459526  1
  Hf  Hf27  1  0.59938709  0.57103478  0.24721721  1
  Hf  Hf28  1  0.58992286  0.58188281  -0.00201878  1
  Hf  Hf29  1  0.49987270  0.70418276  0.37070129  1
  Hf  Hf30  1  0.91084486  0.69322550  0.62621329  1
  Hf  Hf31  1  0.21109125  0.39035944  0.22459530  1
  Hf  Hf32  1  0.10765878  0.31321316  0.36115369  1
  Hf  Hf33  1  0.47304760  0.49842323  0.63300478  1
  Hf  Hf34  1  0.79932483  0.59740460  0.50730932  1
  Hf  Hf35  1  0.28747516  0.70778509  0.12801364  1
  Hf  Hf36  1  0.59812063  0.19700316  0.49104268  1
  Hf  Hf37  1  0.08835955  0.89041768  0.14496031  1
  Hf  Hf38  1  0.69442512  0.49737618  0.63412767  1
  Hf  Hf39  1  0.70205078  0.28471570  0.13678177  1
  Zr  Zr40  1  0.09723479  0.90784384  0.36761097  1
  Zr  Zr41  1  0.80159767  0.59194501  0.76069846  1
  Zr  Zr42  1  0.69226008  0.70208184  0.86799924  1
  Zr  Zr43  1  0.88049678  0.91089866  0.11773552  1
  Zr  Zr44  1  0.30437802  0.91797529  0.38469166  1
  Zr  Zr45  1  0.08999090  0.70449345  0.36148757  1
  Zr  Zr46  1  0.30654761  0.68455218  0.62184024  1
  Zr  Zr47  1  0.49493044  0.10253735  0.84990749  1
  Zr  Zr48  1  0.70358188  0.90753725  0.37631977  1
  Zr  Zr49  1  0.69169334  0.30745824  0.36413023  1
  Zr  Zr50  1  0.00461968  -0.00497761  -0.00275707  1
  Zr  Zr51  1  0.80845240  0.19052853  0.48229839  1
  Zr  Zr52  1  0.19198622  0.58776268  0.25591104  1
  Zr  Zr53  1  0.89515635  0.09017045  0.87413042  1
  Zr  Zr54  1  0.91355290  0.30161631  0.89295001  1
  Zr  Zr55  1  0.60446087  0.80678133  0.23884743  1
  Zr  Zr56  1  0.38696907  0.81565098  0.24617002  1
  Zr  Zr57  1  0.70129090  0.69628230  0.36845970  1
  Zr  Zr58  1  0.59428132  0.59935128  0.50370553  1
  Zr  Zr59  1  0.80309113  0.42062003  0.24350869  1
  Zr  Zr60  1  0.39498407  0.58581958  0.48280040  1
  Zr  Zr61  1  0.00269904  0.59004042  0.76241335  1
  Zr  Zr62  1  0.18641732  0.18373577  0.48860338  1
  Zr  Zr63  1  0.90454800  0.71109344  0.10888678  1
  Zr  Zr64  1  0.81192151  0.81648616  0.73528202  1
  Zr  Zr65  1  0.39688185  0.81566065  0.00193712  1
  Zr  Zr66  1  0.60888245  0.80072356  0.00909521  1
  Zr  Zr67  1  0.72371890  0.90671101  0.87542779  1
  Zr  Zr68  1  0.90276319  0.72062146  0.88877436  1
  Zr  Zr69  1  0.92246984  0.49899307  0.37464510  1
  Zr  Zr70  1  0.20315568  0.80443048  0.50474796  1
  Zr  Zr71  1  0.18937176  0.80945857  -0.00076063  1
  Zr  Zr72  1  0.19485760  0.59373150  0.48344898  1
  Zr  Zr73  1  0.10833700  0.69110706  0.87834720  1
  Zr  Zr74  1  0.29472585  0.10791944  0.86004721  1
  Zr  Zr75  1  0.20604599  0.19167525  0.01358087  1
  Zr  Zr76  1  0.59928661  0.39002196  0.75650731  1
  Zr  Zr77  1  0.10896409  0.49065792  0.62687188  1
  Zr  Zr78  1  0.90660171  0.12024242  0.62500265  1
  Zr  Zr79  1  0.50579038  0.30096308  0.61884719  1
  Ta  Ta80  1  0.20786625  0.38961722  0.75817495  1
  Ta  Ta81  1  -0.00324946  -0.00624096  0.74869101  1
  Ta  Ta82  1  0.20099587  0.39480752  0.49489214  1
  Ta  Ta83  1  0.49318713  0.69914329  0.87605015  1
  Ta  Ta84  1  0.40053638  0.02596675  0.24780530  1
  Ta  Ta85  1  0.09611152  0.69737803  0.13004712  1
  Ta  Ta86  1  0.39107231  0.59669325  0.76309764  1
  Ta  Ta87  1  0.51399517  0.31034378  0.12640486  1
  Ta  Ta88  1  0.69582444  0.07531806  0.13198833  1
  Ta  Ta89  1  0.89372646  0.10337579  0.12126682  1
  Ta  Ta90  1  0.59718449  -0.00083660  0.51366919  1
  Ta  Ta91  1  0.30775991  0.50707109  0.11401101  1
  Ta  Ta92  1  0.39498085  0.00142781  0.52162109  1
  Ta  Ta93  1  0.00808953  0.59264797  0.00478288  1
  Ta  Ta94  1  0.09936522  0.10163142  0.86874236  1
  Ta  Ta95  1  -0.01503473  0.59618644  0.23414868  1
  Ta  Ta96  1  0.20760831  0.19454239  0.24006525  1
  Ta  Ta97  1  0.41259752  0.40074710  0.24130675  1
  Ta  Ta98  1  0.39252361  0.20012788  0.50536206  1
  Ta  Ta99  1  0.39288730  0.60941523  -0.00597173  1
  Ta  Ta100  1  0.49682446  0.09752291  0.64011029  1
  Ta  Ta101  1  0.79501770  0.59364222  -0.00883757  1
  Ta  Ta102  1  0.20509613  0.59181849  0.75036370  1
  Ta  Ta103  1  0.19858135  0.79493687  0.74382647  1
  Ta  Ta104  1  0.00850466  0.20531150  0.75627496  1
  Ta  Ta105  1  0.09505458  0.90222952  0.62110111  1
  Ta  Ta106  1  0.47916305  0.10059310  0.38632070  1
  Ta  Ta107  1  0.29433469  0.31727744  0.62042719  1
  Ta  Ta108  1  0.69645111  0.48649189  0.87915582  1
  Ta  Ta109  1  0.30105615  0.46886824  0.36930536  1
  Ta  Ta110  1  0.90020944  0.29918974  0.12254530  1
  Ta  Ta111  1  0.80971887  0.80366927  0.24793083  1
  Ta  Ta112  1  0.20515250  0.00816376  0.25312182  1
  Ta  Ta113  1  0.80231155  -0.00158013  0.51030419  1
  Ta  Ta114  1  0.10167389  0.69713820  0.62811188  1
  Ta  Ta115  1  0.30683663  0.30613840  0.89062473  1
  Ta  Ta116  1  0.59526147  0.80278462  0.50916250  1
  Ta  Ta117  1  0.10012292  0.08994132  0.13520192  1
  Ta  Ta118  1  0.00394144  0.20144019  0.23538576  1
  Ta  Ta119  1  0.09874672  0.10356560  0.63363374  1
  Ti  Ti120  1  0.59060825  0.40701985  0.49591716  1
  Ti  Ti121  1  0.90318773  0.49506791  0.89072256  1
  Ti  Ti122  1  0.60717110  -0.01993188  0.73626605  1
  Ti  Ti123  1  0.51319270  0.29804911  0.87707649  1
  Ti  Ti124  1  0.49326077  0.49649845  0.86757920  1
  Ti  Ti125  1  0.19791443  0.00111511  -0.00319469  1
  Ti  Ti126  1  0.00957497  0.38837071  0.76027444  1
  Ti  Ti127  1  0.28921554  0.91918913  0.12977294  1
  Ti  Ti128  1  0.39182708  0.20773323  0.24995737  1
  Ti  Ti129  1  0.48771292  0.31219688  0.37957292  1
  Ti  Ti130  1  0.00658586  0.80662605  0.74453738  1
  Ti  Ti131  1  -0.02000947  0.00945011  0.25620236  1
  Ti  Ti132  1  0.58314181  0.60354064  0.75432577  1
  Ti  Ti133  1  0.11438313  0.29455404  0.88543389  1
  Ti  Ti134  1  0.00649120  0.59078492  0.50039342  1
  Ti  Ti135  1  0.88837550  0.50598694  0.11313284  1
  Ti  Ti136  1  0.40691977  0.79796529  0.51139276  1
  Ti  Ti137  1  0.00709554  0.39711144  0.01897122  1
  Ti  Ti138  1  0.89956254  0.90205048  0.37503556  1
  Ti  Ti139  1  0.81338260  0.39695091  0.76418875  1
  Ti  Ti140  1  0.09332626  0.29415762  0.62228543  1
  Ti  Ti141  1  0.69986121  0.50023579  0.37543951  1
  Ti  Ti142  1  0.79265822  0.39532523  0.00068611  1
  Ti  Ti143  1  0.49499692  0.12135399  0.12106199  1
  Ti  Ti144  1  0.19570271  0.40055706  0.01950214  1
  Ti  Ti145  1  0.59496060  0.20805190  -0.00183747  1
  Ti  Ti146  1  0.32085955  0.29011816  0.11105785  1
  Ti  Ti147  1  0.29781248  0.70859256  0.87585089  1
  Ti  Ti148  1  0.29544757  0.71357367  0.36942296  1
  Ti  Ti149  1  0.00884922  0.19797407  0.01332889  1
  Ti  Ti150  1  0.81079574  0.00071398  0.73037150  1
  Ti  Ti151  1  0.50333294  0.88981739  0.63018846  1
  Ti  Ti152  1  -0.00129049  0.80322004  0.50556522  1
  Ti  Ti153  1  0.30566504  0.28489834  0.37533308  1
  Ti  Ti154  1  0.68441178  0.47943678  0.11568923  1
  Ti  Ti155  1  0.09874711  0.48631381  0.88719206  1
  Ti  Ti156  1  0.09557245  0.89621295  0.87015560  1
  Ti  Ti157  1  0.29952065  0.90595304  0.86944831  1
  Ti  Ti158  1  0.80891986  0.21542619  0.75649024  1
  Ti  Ti159  1  0.01251967  0.40767182  0.22488789  1
  Mo  Mo160  1  0.01251809  0.38803595  0.49907732  1
  Mo  Mo161  1  0.59677545  0.39079942  0.25243606  1
  Mo  Mo162  1  0.69914544  0.89523154  0.12644304  1
  Mo  Mo163  1  0.00578481  0.21562898  0.49501713  1
  Mo  Mo164  1  0.29818078  0.10395468  0.37767332  1
  Mo  Mo165  1  0.59474213  0.79782542  0.75072099  1
  Mo  Mo166  1  0.91256465  0.30322898  0.63389310  1
  Mo  Mo167  1  0.79378642  -0.00688227  0.25558893  1
  Mo  Mo168  1  0.50351639  0.48571587  0.37569258  1
  Mo  Mo169  1  0.19945324  0.80734385  0.24816345  1
  Mo  Mo170  1  0.39384572  0.39009915  0.49430878  1
  Mo  Mo171  1  0.29341826  0.49142583  0.62819985  1
  Mo  Mo172  1  0.60364556  0.20280984  0.74424338  1
  Mo  Mo173  1  0.79193318  0.00381659  -0.00176186  1
  Mo  Mo174  1  0.91338977  0.90340042  0.87390275  1
  Mo  Mo175  1  0.59661810  0.01049345  0.25508995  1
  Mo  Mo176  1  0.00600027  0.80262472  -0.00226298  1
  Mo  Mo177  1  0.68509136  0.08445596  0.38334143  1
  Mo  Mo178  1  0.20496586  -0.00203836  0.52183886  1
  Mo  Mo179  1  0.79635182  0.80278290  -0.00245782  1
  Mo  Mo180  1  0.70716474  0.29927037  0.87514848  1
  Mo  Mo181  1  0.61106246  0.38820322  -0.00707994  1
  Mo  Mo182  1  0.41328125  0.20819205  -0.00457622  1
  Mo  Mo183  1  0.30022241  0.89952210  0.62288546  1
  Mo  Mo184  1  0.49609081  0.49787405  0.12161018  1
  Mo  Mo185  1  0.10150370  0.49187024  0.36700086  1
  Mo  Mo186  1  0.09902734  0.29445692  0.12278404  1
  Mo  Mo187  1  -0.00926345  0.80070750  0.25214403  1
  Mo  Mo188  1  0.80320237  0.59873881  0.24467863  1
  Mo  Mo189  1  0.30610523  0.09959269  0.12718900  1
  Mo  Mo190  1  0.90291445  0.08843538  0.37542507  1
  Mo  Mo191  1  0.91308764  0.90939053  0.61469145  1
  Mo  Mo192  1  0.39991946  -0.00695154  0.73317223  1
  Mo  Mo193  1  0.09250463  0.11280944  0.34696911  1
  Mo  Mo194  1  0.69717235  0.90738250  0.62103912  1
  Mo  Mo195  1  0.09821695  0.50381186  0.11667537  1
  Mo  Mo196  1  0.49792447  0.69625960  0.62835657  1
  Mo  Mo197  1  0.18852999  0.21227119  0.75207058  1
  Mo  Mo198  1  0.19814519  0.59768102  0.00941816  1
  Mo  Mo199  1  0.39076105  0.40969975  0.76679772  1
