# generated using pymatgen
data_HfZrTaTiMo
_symmetry_space_group_name_H-M   'P 1'
_cell_length_a   15.18930882
_cell_length_b   15.18919946
_cell_length_c   16.82309480
_cell_angle_alpha   90.04636383
_cell_angle_beta   89.97771527
_cell_angle_gamma   90.00527569
_symmetry_Int_Tables_number   1
_chemical_formula_structural   HfZrTaTiMo
_chemical_formula_sum   'Hf40 Zr40 Ta40 Ti40 Mo40'
_cell_volume   3881.31251439
_cell_formula_units_Z   40
loop_
 _symmetry_equiv_pos_site_id
 _symmetry_equiv_pos_as_xyz
  1  'x, y, z'
loop_
 _atom_site_type_symbol
 _atom_site_label
 _atom_site_symmetry_multiplicity
 _atom_site_fract_x
 _atom_site_fract_y
 _atom_site_fract_z
 _atom_site_occupancy
  Hf  Hf0  1  0.80767659  -0.01311755  0.01128794  1
  Hf  Hf1  1  0.71764250  0.30671186  0.36815001  1
  Hf  Hf2  1  0.79640296  0.59824098  0.01894387  1
  Hf  Hf3  1  0.00375254  0.81904523  0.49832219  1
  Hf  Hf4  1  0.08940070  0.08859696  0.64351379  1
  Hf  Hf5  1  0.10567258  0.50930462  0.61913552  1
  Hf  Hf6  1  0.60338180  0.01404886  0.49775812  1
  Hf  Hf7  1  0.59915106  0.21151076  0.50994279  1
  Hf  Hf8  1  0.68561684  0.70544682  0.87106079  1
  Hf  Hf9  1  0.78105183  0.79371842  0.01821416  1
  Hf  Hf10  1  0.60815857  0.79633050  0.73581031  1
  Hf  Hf11  1  0.30033456  0.09100666  0.64621460  1
  Hf  Hf12  1  0.39301362  0.79331746  0.74672955  1
  Hf  Hf13  1  -0.00841502  0.59590278  -0.00676382  1
  Hf  Hf14  1  0.41653894  0.39765680  0.50126875  1
  Hf  Hf15  1  0.49989901  0.09267107  0.12112210  1
  Hf  Hf16  1  0.18910818  -0.00287069  0.00834938  1
  Hf  Hf17  1  0.58897590  0.61438345  0.25939043  1
  Hf  Hf18  1  0.09410219  0.71008064  0.62115191  1
  Hf  Hf19  1  0.31907196  0.29924482  0.63661403  1
  Hf  Hf20  1  0.60587014  0.40040965  0.24886560  1
  Hf  Hf21  1  0.18886425  0.21475100  0.75823282  1
  Hf  Hf22  1  0.30989961  0.29107832  0.36823964  1
  Hf  Hf23  1  0.60953935  0.18966068  0.24714056  1
  Hf  Hf24  1  0.17602495  -0.00702962  0.49841411  1
  Hf  Hf25  1  0.61828629  0.41897997  0.49710267  1
  Hf  Hf26  1  0.30210993  0.10371789  0.12932434  1
  Hf  Hf27  1  0.21665098  0.40629393  0.49338384  1
  Hf  Hf28  1  0.70210073  0.30301464  0.87602094  1
  Hf  Hf29  1  0.87767591  0.69829519  0.87592838  1
  Hf  Hf30  1  0.40149705  0.58987589  0.75171712  1
  Hf  Hf31  1  0.21009013  0.19303493  0.50466542  1
  Hf  Hf32  1  0.21680965  0.20631771  -0.00366849  1
  Hf  Hf33  1  0.09783979  0.71072293  0.88449122  1
  Hf  Hf34  1  0.49358189  0.90510007  0.61863541  1
  Hf  Hf35  1  0.10677727  0.50490680  0.11927498  1
  Hf  Hf36  1  0.91681372  0.29510646  0.36818591  1
  Hf  Hf37  1  0.49230582  0.50527979  0.12915351  1
  Hf  Hf38  1  0.20085232  0.77990957  0.24942415  1
  Hf  Hf39  1  0.21137137  0.41112350  0.25713009  1
  Zr  Zr40  1  0.20453332  -0.00540118  0.23844079  1
  Zr  Zr41  1  -0.01683201  0.79683487  0.75621392  1
  Zr  Zr42  1  0.81713997  0.41541417  0.75241871  1
  Zr  Zr43  1  0.80928428  0.18844308  0.00338960  1
  Zr  Zr44  1  0.60014500  0.61249433  0.00969516  1
  Zr  Zr45  1  0.81051946  0.19800483  0.23339156  1
  Zr  Zr46  1  0.79750474  0.18430684  0.49915594  1
  Zr  Zr47  1  0.50615863  0.29953407  0.37052860  1
  Zr  Zr48  1  0.50565843  0.90505010  0.86120625  1
  Zr  Zr49  1  0.09974430  0.70361140  0.11101567  1
  Zr  Zr50  1  0.49552940  0.09590046  0.37510395  1
  Zr  Zr51  1  0.29403946  0.08870881  0.36709296  1
  Zr  Zr52  1  0.80176485  0.78418882  0.50107737  1
  Zr  Zr53  1  0.88835536  0.49578079  0.36340394  1
  Zr  Zr54  1  0.40306570  0.80584779  -0.00639717  1
  Zr  Zr55  1  0.07181504  0.90306392  0.12971770  1
  Zr  Zr56  1  0.59375877  0.20898885  0.75534177  1
  Zr  Zr57  1  0.00523742  0.18265034  0.49917050  1
  Zr  Zr58  1  0.40133983  0.60364069  -0.00650494  1
  Zr  Zr59  1  0.10882068  0.30659527  0.62272511  1
  Zr  Zr60  1  0.90805666  0.49156300  0.13862913  1
  Zr  Zr61  1  0.28414593  0.89183948  0.62155930  1
  Zr  Zr62  1  0.09579640  0.09896982  0.87607385  1
  Zr  Zr63  1  0.81589177  0.39477413  0.51098872  1
  Zr  Zr64  1  0.09476828  0.91147731  0.35712991  1
  Zr  Zr65  1  0.31220879  0.10585066  0.86171071  1
  Zr  Zr66  1  0.10680001  0.50935340  0.37913911  1
  Zr  Zr67  1  0.80946555  0.39812719  0.00227447  1
  Zr  Zr68  1  -0.00557568  0.58568959  0.76081634  1
  Zr  Zr69  1  0.70314674  0.90056334  0.61866839  1
  Zr  Zr70  1  0.90273217  0.08722561  0.35963992  1
  Zr  Zr71  1  0.11718341  0.31018500  0.11729236  1
  Zr  Zr72  1  0.58244061  0.61844145  0.48593784  1
  Zr  Zr73  1  0.28629623  0.90628525  0.86567648  1
  Zr  Zr74  1  0.29278653  0.68895250  0.61303582  1
  Zr  Zr75  1  0.78271488  0.58851849  0.50433478  1
  Zr  Zr76  1  0.70776018  0.30174732  0.63619343  1
  Zr  Zr77  1  0.91793854  0.28963924  0.63943843  1
  Zr  Zr78  1  0.89527098  0.88373147  0.35548863  1
  Zr  Zr79  1  0.71211580  0.51189149  0.87010704  1
  Ta  Ta80  1  0.49625425  0.10505910  0.64017605  1
  Ta  Ta81  1  0.60079360  -0.01042074  -0.00406377  1
  Ta  Ta82  1  0.50969036  0.49396853  0.87679123  1
  Ta  Ta83  1  0.71063962  0.89567758  0.87094623  1
  Ta  Ta84  1  0.40086445  0.39667680  0.00131647  1
  Ta  Ta85  1  0.69861029  0.49913777  0.13736812  1
  Ta  Ta86  1  0.92618926  0.28745135  0.11915981  1
  Ta  Ta87  1  0.20894210  0.41715087  0.75639337  1
  Ta  Ta88  1  0.78188925  0.79441998  0.24193715  1
  Ta  Ta89  1  0.50149411  0.10012496  0.87254787  1
  Ta  Ta90  1  0.89351317  0.08865477  0.64183526  1
  Ta  Ta91  1  0.49962598  0.71844852  0.13183792  1
  Ta  Ta92  1  0.40633908  -0.02048274  0.25381633  1
  Ta  Ta93  1  0.60143178  0.19597333  -0.00402330  1
  Ta  Ta94  1  0.29693711  0.50090050  0.12095957  1
  Ta  Ta95  1  0.19962770  0.60595069  0.76102197  1
  Ta  Ta96  1  0.79164645  0.62257059  0.72281456  1
  Ta  Ta97  1  0.49671607  0.29997187  0.88718520  1
  Ta  Ta98  1  0.91091844  0.90241119  0.62635299  1
  Ta  Ta99  1  0.20763072  0.60044170  -0.01045510  1
  Ta  Ta100  1  0.69735748  0.08634045  0.87098727  1
  Ta  Ta101  1  0.79624036  0.60404854  0.24822763  1
  Ta  Ta102  1  0.31517370  0.30593769  0.12858150  1
  Ta  Ta103  1  0.11042649  0.29449439  0.37173752  1
  Ta  Ta104  1  0.69369516  0.09220366  0.11719762  1
  Ta  Ta105  1  0.78495847  -0.00451116  0.23609556  1
  Ta  Ta106  1  0.91772155  0.29125544  0.87744852  1
  Ta  Ta107  1  0.69570459  0.90707774  0.37792028  1
  Ta  Ta108  1  0.00951617  0.61375892  0.25532781  1
  Ta  Ta109  1  0.08619251  0.11572193  0.12884154  1
  Ta  Ta110  1  0.70049947  0.09440330  0.64159112  1
  Ta  Ta111  1  0.59798306  0.41075179  0.74571375  1
  Ta  Ta112  1  -0.01607896  0.61228103  0.49373918  1
  Ta  Ta113  1  0.67308594  0.89237782  0.12985029  1
  Ta  Ta114  1  0.09852127  0.70850825  0.38309899  1
  Ta  Ta115  1  0.30342858  0.87600872  0.38780812  1
  Ta  Ta116  1  0.30716806  0.31155654  0.87132748  1
  Ta  Ta117  1  0.81137587  -0.00471660  0.49951319  1
  Ta  Ta118  1  0.89802734  0.08799085  0.87012550  1
  Ta  Ta119  1  0.50520881  0.29622232  0.11623042  1
  Ti  Ti120  1  0.40649165  0.19350622  0.50769940  1
  Ti  Ti121  1  0.39663686  0.79313656  0.25557335  1
  Ti  Ti122  1  0.39653856  0.00668680  -0.00258324  1
  Ti  Ti123  1  0.49427632  0.50482463  0.36826168  1
  Ti  Ti124  1  -0.02090658  0.82308224  -0.00755529  1
  Ti  Ti125  1  0.10410092  0.30831010  0.89161331  1
  Ti  Ti126  1  0.80190797  -0.01560882  0.75328915  1
  Ti  Ti127  1  0.10764508  0.49400357  0.88632022  1
  Ti  Ti128  1  0.50048998  0.50086849  0.62149556  1
  Ti  Ti129  1  0.29720476  0.70197977  0.87204996  1
  Ti  Ti130  1  0.49572964  0.89163544  0.39307657  1
  Ti  Ti131  1  0.00702540  0.40314502  0.49578106  1
  Ti  Ti132  1  0.38868403  0.00123064  0.50173461  1
  Ti  Ti133  1  0.49513029  0.70186625  0.61511378  1
  Ti  Ti134  1  0.00385647  -0.01460157  0.76444127  1
  Ti  Ti135  1  0.90843719  0.50719361  0.62217889  1
  Ti  Ti136  1  0.90492661  0.71021813  0.13375663  1
  Ti  Ti137  1  0.37793911  0.60369767  0.26010136  1
  Ti  Ti138  1  0.41511984  0.39614170  0.75173593  1
  Ti  Ti139  1  0.40532882  0.40330707  0.24818734  1
  Ti  Ti140  1  0.30306767  0.69339914  0.12155132  1
  Ti  Ti141  1  0.59612988  -0.00331290  0.25848450  1
  Ti  Ti142  1  0.59680309  0.59854690  0.73647636  1
  Ti  Ti143  1  0.30251277  0.50020657  0.62755339  1
  Ti  Ti144  1  0.00781823  0.39595820  0.25208772  1
  Ti  Ti145  1  0.49123080  0.90196129  0.12369797  1
  Ti  Ti146  1  0.69955527  0.70775870  0.37225438  1
  Ti  Ti147  1  0.38252675  0.59571404  0.48522485  1
  Ti  Ti148  1  0.30492454  0.89045578  0.12351886  1
  Ti  Ti149  1  0.40515846  0.19650405  0.24509430  1
  Ti  Ti150  1  0.30699353  0.49862656  0.87638998  1
  Ti  Ti151  1  0.18114508  0.81032309  0.75503213  1
  Ti  Ti152  1  0.60444059  0.40447909  0.00575453  1
  Ti  Ti153  1  0.70508755  0.30066206  0.12064967  1
  Ti  Ti154  1  0.80552602  0.19335910  0.76161143  1
  Ti  Ti155  1  0.49835906  0.69691178  0.86842841  1
  Ti  Ti156  1  0.09853771  0.11032337  0.35178469  1
  Ti  Ti157  1  0.58490979  0.80996993  0.26401357  1
  Ti  Ti158  1  0.20171741  0.80328278  0.00032067  1
  Ti  Ti159  1  0.01763322  0.39232066  0.76171778  1
  Mo  Mo160  1  0.68430238  0.70128705  0.61631398  1
  Mo  Mo161  1  0.21425230  0.40964912  -0.00821110  1
  Mo  Mo162  1  0.69471336  0.50444672  0.35565133  1
  Mo  Mo163  1  0.80005619  0.80364711  0.74120549  1
  Mo  Mo164  1  0.69219573  0.50544057  0.63290639  1
  Mo  Mo165  1  0.40968268  0.20153246  0.00139855  1
  Mo  Mo166  1  0.91422137  0.48845680  0.88117872  1
  Mo  Mo167  1  0.88560939  0.89349400  0.13993231  1
  Mo  Mo168  1  0.59702613  0.80469528  0.49191662  1
  Mo  Mo169  1  0.90625127  0.08915804  0.12971673  1
  Mo  Mo170  1  0.70339478  0.09104447  0.37132410  1
  Mo  Mo171  1  0.19758520  0.79725706  0.49168971  1
  Mo  Mo172  1  0.90083345  0.69900110  0.62026949  1
  Mo  Mo173  1  0.19018494  0.59918434  0.49958992  1
  Mo  Mo174  1  0.19262180  -0.00779638  0.75590079  1
  Mo  Mo175  1  0.00607569  0.39635518  -0.00701275  1
  Mo  Mo176  1  0.80448825  0.39605505  0.23480106  1
  Mo  Mo177  1  0.40506250  0.00027092  0.74499065  1
  Mo  Mo178  1  0.20366103  0.60312049  0.24528794  1
  Mo  Mo179  1  0.09431150  0.90352350  0.63180616  1
  Mo  Mo180  1  -0.00871499  0.79051413  0.25069746  1
  Mo  Mo181  1  0.68749841  0.69999479  0.14101496  1
  Mo  Mo182  1  0.40754666  0.78791486  0.50007187  1
  Mo  Mo183  1  -0.00701019  0.19811028  0.75888570  1
  Mo  Mo184  1  0.89954326  0.69366231  0.36480041  1
  Mo  Mo185  1  0.89203878  0.90063463  0.87730717  1
  Mo  Mo186  1  0.50396882  0.30744528  0.62592614  1
  Mo  Mo187  1  0.47629944  0.71295603  0.37219652  1
  Mo  Mo188  1  0.60537426  0.00379319  0.74918392  1
  Mo  Mo189  1  0.59256859  0.80647643  0.00200169  1
  Mo  Mo190  1  0.31135272  0.49855806  0.37268199  1
  Mo  Mo191  1  0.40327593  0.20892638  0.75551541  1
  Mo  Mo192  1  0.28666177  0.68798391  0.38540476  1
  Mo  Mo193  1  -0.01137873  0.01052460  0.00270006  1
  Mo  Mo194  1  0.00506493  0.19502189  -0.00238550  1
  Mo  Mo195  1  -0.01222625  0.00694197  0.50195434  1
  Mo  Mo196  1  0.01478222  0.20703636  0.24834650  1
  Mo  Mo197  1  0.08828656  0.90042979  0.89025004  1
  Mo  Mo198  1  -0.01099021  0.00710830  0.24021928  1
  Mo  Mo199  1  0.20790314  0.20800830  0.24517125  1
