# generated using pymatgen
data_HfZrTaTiMo
_symmetry_space_group_name_H-M   'P 1'
_cell_length_a   15.21014421
_cell_length_b   15.20120648
_cell_length_c   16.82963421
_cell_angle_alpha   89.99360262
_cell_angle_beta   89.95440288
_cell_angle_gamma   89.87032188
_symmetry_Int_Tables_number   1
_chemical_formula_structural   HfZrTaTiMo
_chemical_formula_sum   'Hf40 Zr40 Ta40 Ti40 Mo40'
_cell_volume   3891.21129564
_cell_formula_units_Z   40
loop_
 _symmetry_equiv_pos_site_id
 _symmetry_equiv_pos_as_xyz
  1  'x, y, z'
loop_
 _atom_site_type_symbol
 _atom_site_label
 _atom_site_symmetry_multiplicity
 _atom_site_fract_x
 _atom_site_fract_y
 _atom_site_fract_z
 _atom_site_occupancy
  Hf  Hf0  1  0.51181307  0.88791659  0.35499487  1
  Hf  Hf1  1  0.30002379  0.30231696  0.87104574  1
  Hf  Hf2  1  0.70351197  0.50332783  0.13098539  1
  Hf  Hf3  1  0.68926630  0.29121731  0.36983429  1
  Hf  Hf4  1  0.78965651  0.39777697  0.49315082  1
  Hf  Hf5  1  0.50971336  0.70403229  0.62563945  1
  Hf  Hf6  1  0.30952960  0.09049910  0.12876987  1
  Hf  Hf7  1  0.58978382  -0.01988765  0.74138319  1
  Hf  Hf8  1  0.40092267  0.19500094  0.25570786  1
  Hf  Hf9  1  0.88321878  0.08779235  0.38237220  1
  Hf  Hf10  1  0.11394915  0.91000843  0.61131944  1
  Hf  Hf11  1  0.88727831  0.70762816  0.86210238  1
  Hf  Hf12  1  0.60102877  0.60062119  0.26561598  1
  Hf  Hf13  1  0.60664494  0.01544478  0.23051448  1
  Hf  Hf14  1  0.41467490  0.81700794  0.75154164  1
  Hf  Hf15  1  0.30090533  0.70624367  0.61879237  1
  Hf  Hf16  1  0.10540800  0.71018773  0.61097846  1
  Hf  Hf17  1  0.89989053  0.10295678  0.64457841  1
  Hf  Hf18  1  0.18208986  0.19738704  0.49149687  1
  Hf  Hf19  1  0.70414769  0.49792838  0.88464811  1
  Hf  Hf20  1  0.49832247  0.49679907  0.87968443  1
  Hf  Hf21  1  -0.02195309  0.80628904  -0.01361359  1
  Hf  Hf22  1  0.30240761  0.50369259  0.61803783  1
  Hf  Hf23  1  -0.01689478  0.21124460  0.00013314  1
  Hf  Hf24  1  0.70767203  0.92969232  0.37540441  1
  Hf  Hf25  1  0.50753677  0.71465466  0.87564887  1
  Hf  Hf26  1  0.51877235  0.09927141  0.37787290  1
  Hf  Hf27  1  0.90044866  0.71277437  0.13625225  1
  Hf  Hf28  1  0.29039374  0.89731188  0.11668536  1
  Hf  Hf29  1  -0.00437942  -0.02977954  0.26147108  1
  Hf  Hf30  1  0.20029125  -0.00711260  0.76254609  1
  Hf  Hf31  1  0.08195042  0.31306949  0.12849159  1
  Hf  Hf32  1  0.49828428  0.29001684  0.87849495  1
  Hf  Hf33  1  0.09873284  0.09236260  0.11852893  1
  Hf  Hf34  1  0.10573538  0.50165327  0.61631267  1
  Hf  Hf35  1  0.19161336  0.20061554  0.25598628  1
  Hf  Hf36  1  0.28770150  0.09248117  0.62989913  1
  Hf  Hf37  1  0.19062207  0.40973670  0.24652208  1
  Hf  Hf38  1  0.60591335  0.60491815  0.48079278  1
  Hf  Hf39  1  0.41009964  0.59439510  0.48940336  1
  Zr  Zr40  1  0.01148016  0.81214195  0.75873983  1
  Zr  Zr41  1  0.21088985  0.60666354  0.24709589  1
  Zr  Zr42  1  0.58723776  0.19003098  0.00958786  1
  Zr  Zr43  1  0.40736915  0.60067718  -0.00156350  1
  Zr  Zr44  1  0.72447583  0.89755047  0.12220104  1
  Zr  Zr45  1  0.28918975  0.29689141  0.62683577  1
  Zr  Zr46  1  0.81481345  0.60115736  0.00607411  1
  Zr  Zr47  1  0.91531408  0.49387343  0.14072470  1
  Zr  Zr48  1  0.20297193  0.40621432  0.00671780  1
  Zr  Zr49  1  0.10590918  0.69939617  0.39699009  1
  Zr  Zr50  1  0.87480991  0.30056222  0.64489926  1
  Zr  Zr51  1  0.19603374  0.19828039  -0.00065317  1
  Zr  Zr52  1  0.59338142  0.20761578  0.23226191  1
  Zr  Zr53  1  0.31649099  0.90093677  0.88569301  1
  Zr  Zr54  1  0.42377922  0.80179884  0.49429149  1
  Zr  Zr55  1  0.20370005  -0.00033551  0.27214109  1
  Zr  Zr56  1  0.00737601  0.60771804  0.74140805  1
  Zr  Zr57  1  0.40134691  0.39936779  0.74632719  1
  Zr  Zr58  1  0.18240865  0.80399047  0.25807131  1
  Zr  Zr59  1  -0.01351995  0.19018432  0.24555183  1
  Zr  Zr60  1  0.69983789  0.30648113  0.12108039  1
  Zr  Zr61  1  0.69592649  0.73027909  0.36362196  1
  Zr  Zr62  1  0.32324309  0.49716508  0.12553992  1
  Zr  Zr63  1  0.30612902  0.49092977  0.37953595  1
  Zr  Zr64  1  0.39148399  -0.00634639  0.48399477  1
  Zr  Zr65  1  0.59347620  0.19594148  0.74108877  1
  Zr  Zr66  1  0.89967979  0.49446901  0.86091587  1
  Zr  Zr67  1  0.48914927  0.90041264  0.13581545  1
  Zr  Zr68  1  0.38993650  0.19546581  0.49295319  1
  Zr  Zr69  1  -0.00435542  0.38846499  0.51234011  1
  Zr  Zr70  1  0.69773882  0.08811347  0.86674922  1
  Zr  Zr71  1  0.90868728  0.90163352  0.62575015  1
  Zr  Zr72  1  0.08725619  0.30969238  0.87325456  1
  Zr  Zr73  1  0.08897279  0.90062355  0.10714561  1
  Zr  Zr74  1  0.79668057  0.18041774  -0.00203262  1
  Zr  Zr75  1  0.80131180  0.60096174  0.48293449  1
  Zr  Zr76  1  0.91553206  0.48923670  0.36756005  1
  Zr  Zr77  1  0.09764061  0.69575794  0.10975575  1
  Zr  Zr78  1  0.60103913  0.60119808  0.74953714  1
  Zr  Zr79  1  0.61106543  0.39587687  0.74345246  1
  Ta  Ta80  1  0.39565859  0.60685042  0.75387893  1
  Ta  Ta81  1  -0.00586277  0.60182581  0.50705038  1
  Ta  Ta82  1  0.58009979  0.40801398  0.25098472  1
  Ta  Ta83  1  0.08525339  0.30932684  0.37206165  1
  Ta  Ta84  1  0.48890963  0.31133499  0.38427787  1
  Ta  Ta85  1  0.89344263  0.28568030  0.37207242  1
  Ta  Ta86  1  0.81367743  0.38535462  0.00270565  1
  Ta  Ta87  1  0.79075898  0.19748649  0.50597380  1
  Ta  Ta88  1  0.88991849  0.50667682  0.63102069  1
  Ta  Ta89  1  0.70376214  0.30183988  0.87955496  1
  Ta  Ta90  1  0.01584173  0.60136479  0.25575194  1
  Ta  Ta91  1  0.00015896  0.40159529  0.74074768  1
  Ta  Ta92  1  0.29221157  0.30099057  0.37286541  1
  Ta  Ta93  1  0.50105955  0.69307188  0.13870531  1
  Ta  Ta94  1  -0.00310916  0.41987496  -0.00077348  1
  Ta  Ta95  1  0.30575368  0.70651254  0.11868594  1
  Ta  Ta96  1  0.89676313  0.07769704  0.11983042  1
  Ta  Ta97  1  0.10296718  0.51109227  0.87361013  1
  Ta  Ta98  1  0.91233022  0.71392134  0.37248014  1
  Ta  Ta99  1  0.09202255  0.10079633  0.62920699  1
  Ta  Ta100  1  0.80586764  0.60174632  0.26460808  1
  Ta  Ta101  1  0.60141942  -0.00724684  0.51698383  1
  Ta  Ta102  1  0.70242557  0.87991792  0.88047356  1
  Ta  Ta103  1  0.29980847  0.29634258  0.13021571  1
  Ta  Ta104  1  0.29680652  0.50479410  0.87499893  1
  Ta  Ta105  1  0.70120053  0.49848612  0.61977273  1
  Ta  Ta106  1  0.31024487  0.70267210  0.37707482  1
  Ta  Ta107  1  0.50312341  0.49919428  0.61739761  1
  Ta  Ta108  1  0.70266889  0.70197170  0.14073222  1
  Ta  Ta109  1  0.60296835  0.79421160  0.01397295  1
  Ta  Ta110  1  0.60287483  0.19621238  0.51336069  1
  Ta  Ta111  1  0.79128172  0.18757433  0.23819079  1
  Ta  Ta112  1  0.60302267  -0.00683110  0.00549334  1
  Ta  Ta113  1  0.20615537  0.60637621  0.75449187  1
  Ta  Ta114  1  0.49484350  0.29981138  0.61477169  1
  Ta  Ta115  1  0.70915147  0.70436270  0.61526974  1
  Ta  Ta116  1  0.80157874  0.80828233  0.49861716  1
  Ta  Ta117  1  0.48560342  0.09279413  0.62735595  1
  Ta  Ta118  1  0.19172231  0.19939969  0.75525548  1
  Ta  Ta119  1  0.19304556  0.40965212  0.75085743  1
  Ti  Ti120  1  0.59398242  0.40450561  0.00604472  1
  Ti  Ti121  1  0.70331786  0.10048097  0.63712271  1
  Ti  Ti122  1  -0.01314822  0.19559289  0.50327776  1
  Ti  Ti123  1  0.82059828  0.81808279  0.25905650  1
  Ti  Ti124  1  0.80031911  0.38994066  0.25343156  1
  Ti  Ti125  1  0.10572582  0.69964973  0.88649943  1
  Ti  Ti126  1  0.79071474  0.60294643  0.74278493  1
  Ti  Ti127  1  0.48139447  0.31699021  0.11819438  1
  Ti  Ti128  1  0.41335321  0.00657786  -0.00149378  1
  Ti  Ti129  1  0.41244583  0.58343535  0.25824811  1
  Ti  Ti130  1  -0.01001138  0.00974500  -0.02282992  1
  Ti  Ti131  1  0.80509444  0.00635145  0.24548489  1
  Ti  Ti132  1  0.40867077  0.80151951  0.00318903  1
  Ti  Ti133  1  0.39388206  0.19945863  0.00530813  1
  Ti  Ti134  1  0.09082092  0.29014606  0.63559668  1
  Ti  Ti135  1  0.89765363  0.70433652  0.62562937  1
  Ti  Ti136  1  0.62138283  0.79802452  0.74464257  1
  Ti  Ti137  1  0.70014028  0.69603079  0.88037553  1
  Ti  Ti138  1  0.79739139  -0.01791206  0.75284337  1
  Ti  Ti139  1  0.08172069  0.09994509  0.38027480  1
  Ti  Ti140  1  0.10580656  0.50235916  0.39002299  1
  Ti  Ti141  1  0.19760801  0.00422581  0.47852172  1
  Ti  Ti142  1  0.20191991  0.39523720  0.49784280  1
  Ti  Ti143  1  0.30687242  0.10649815  0.86885692  1
  Ti  Ti144  1  0.39165927  0.79206067  0.25242313  1
  Ti  Ti145  1  0.81175303  -0.01983606  -0.01354149  1
  Ti  Ti146  1  0.10715964  0.89555729  0.88786271  1
  Ti  Ti147  1  0.79776445  0.00561075  0.51522275  1
  Ti  Ti148  1  0.00319358  0.00625577  0.76730151  1
  Ti  Ti149  1  0.88904716  0.29324311  0.85446652  1
  Ti  Ti150  1  0.09565378  0.10782880  0.87456237  1
  Ti  Ti151  1  0.29736236  0.70147192  0.88194660  1
  Ti  Ti152  1  0.59442361  0.40319473  0.49636767  1
  Ti  Ti153  1  0.31463632  0.90398990  0.62796616  1
  Ti  Ti154  1  0.21843170  0.81566873  0.48856626  1
  Ti  Ti155  1  0.20872724  0.79670975  0.75537594  1
  Ti  Ti156  1  0.19917050  0.59998780  0.00143457  1
  Ti  Ti157  1  0.48970468  0.08653231  0.86530886  1
  Ti  Ti158  1  0.20503374  0.00388555  -0.01294796  1
  Ti  Ti159  1  0.60390605  0.60453473  0.01061719  1
  Mo  Mo160  1  0.20831201  0.79230977  -0.00776929  1
  Mo  Mo161  1  0.79186331  0.40719350  0.74963334  1
  Mo  Mo162  1  0.40399843  0.38911501  -0.00377025  1
  Mo  Mo163  1  0.39690084  -0.00183961  0.26292246  1
  Mo  Mo164  1  0.70464959  0.48728037  0.36010883  1
  Mo  Mo165  1  0.51165215  0.50053601  0.12309119  1
  Mo  Mo166  1  0.89056411  0.90666422  0.86398443  1
  Mo  Mo167  1  0.08784790  0.89959147  0.40256530  1
  Mo  Mo168  1  0.29730540  0.10483180  0.37056826  1
  Mo  Mo169  1  0.50547271  0.49042308  0.38019242  1
  Mo  Mo170  1  0.90012221  0.10158700  0.85563454  1
  Mo  Mo171  1  0.39979917  0.39057169  0.25067529  1
  Mo  Mo172  1  -0.00629143  0.80240226  0.50630018  1
  Mo  Mo173  1  0.78740191  0.19790444  0.75973830  1
  Mo  Mo174  1  0.70774412  0.09249080  0.11361167  1
  Mo  Mo175  1  0.00461143  0.60000550  -0.00900698  1
  Mo  Mo176  1  0.78946866  0.79407316  -0.00110605  1
  Mo  Mo177  1  0.49335610  0.10163926  0.11784531  1
  Mo  Mo178  1  0.89724822  0.89807513  0.39295545  1
  Mo  Mo179  1  0.10063160  0.50772067  0.12281526  1
  Mo  Mo180  1  -0.00008300  0.39638309  0.25823634  1
  Mo  Mo181  1  0.79398265  0.79444295  0.74212219  1
  Mo  Mo182  1  0.50210027  0.90126293  0.62297400  1
  Mo  Mo183  1  0.20590579  0.60416376  0.49755097  1
  Mo  Mo184  1  0.40206497  0.39421085  0.50696153  1
  Mo  Mo185  1  0.70408217  0.89738213  0.62159531  1
  Mo  Mo186  1  0.90817498  0.90227766  0.12160017  1
  Mo  Mo187  1  0.60579222  0.80352521  0.23336594  1
  Mo  Mo188  1  0.70021585  0.10807699  0.38152509  1
  Mo  Mo189  1  0.30233601  0.89365999  0.37099502  1
  Mo  Mo190  1  0.89274286  0.29707648  0.12874049  1
  Mo  Mo191  1  0.61195266  0.80711378  0.50307803  1
  Mo  Mo192  1  0.49615096  0.70014996  0.35798177  1
  Mo  Mo193  1  0.68856820  0.30086751  0.61607869  1
  Mo  Mo194  1  0.39381115  0.19016733  0.74750135  1
  Mo  Mo195  1  0.00204199  0.19816639  0.75403703  1
  Mo  Mo196  1  0.51611306  0.90377321  0.88842379  1
  Mo  Mo197  1  0.00484183  0.01152661  0.50152690  1
  Mo  Mo198  1  0.00222417  0.79215709  0.25603741  1
  Mo  Mo199  1  0.39899129  0.00816125  0.75181908  1
