# generated using pymatgen
data_HfZrTaTiMo
_symmetry_space_group_name_H-M   'P 1'
_cell_length_a   15.20809913
_cell_length_b   15.21058453
_cell_length_c   16.85424641
_cell_angle_alpha   89.97745273
_cell_angle_beta   90.02698943
_cell_angle_gamma   90.15038271
_symmetry_Int_Tables_number   1
_chemical_formula_structural   HfZrTaTiMo
_chemical_formula_sum   'Hf40 Zr40 Ta40 Ti40 Mo40'
_cell_volume   3898.77883844
_cell_formula_units_Z   40
loop_
 _symmetry_equiv_pos_site_id
 _symmetry_equiv_pos_as_xyz
  1  'x, y, z'
loop_
 _atom_site_type_symbol
 _atom_site_label
 _atom_site_symmetry_multiplicity
 _atom_site_fract_x
 _atom_site_fract_y
 _atom_site_fract_z
 _atom_site_occupancy
  Hf  Hf0  1  0.81811255  0.19420738  0.50214857  1
  Hf  Hf1  1  0.89706118  0.89359819  0.11318991  1
  Hf  Hf2  1  0.69019154  0.09163432  0.61839059  1
  Hf  Hf3  1  0.89942409  0.09527557  0.88432941  1
  Hf  Hf4  1  0.90003543  0.68834313  0.87176974  1
  Hf  Hf5  1  0.21243251  0.01111651  0.74733096  1
  Hf  Hf6  1  0.59292466  -0.00537467  0.26223002  1
  Hf  Hf7  1  0.69492906  0.30378751  0.60956376  1
  Hf  Hf8  1  0.10427017  0.91063932  0.38287294  1
  Hf  Hf9  1  0.00826654  0.79651662  -0.00790992  1
  Hf  Hf10  1  0.88701779  0.69745964  0.37538317  1
  Hf  Hf11  1  0.49978839  0.48959207  0.61225094  1
  Hf  Hf12  1  0.21559168  0.22565629  0.52150326  1
  Hf  Hf13  1  0.29217421  0.70596192  0.36714348  1
  Hf  Hf14  1  -0.00311992  0.59095665  0.01475690  1
  Hf  Hf15  1  0.61249465  0.79323234  0.74453637  1
  Hf  Hf16  1  0.29319050  0.28689384  0.85333427  1
  Hf  Hf17  1  0.79375568  0.39980851  0.00184948  1
  Hf  Hf18  1  -0.00256872  0.79904886  0.50541577  1
  Hf  Hf19  1  0.41380255  0.00104135  -0.01361165  1
  Hf  Hf20  1  0.68415071  0.90042148  0.11061367  1
  Hf  Hf21  1  0.08697136  0.69985473  0.36623568  1
  Hf  Hf22  1  0.80878293  0.19221717  0.74608072  1
  Hf  Hf23  1  0.49356784  0.69710944  0.86977152  1
  Hf  Hf24  1  0.80311377  -0.00976357  0.50486044  1
  Hf  Hf25  1  0.79306732  0.61373354  0.24016361  1
  Hf  Hf26  1  0.69459641  0.29951386  0.37731549  1
  Hf  Hf27  1  0.00926924  0.39571786  0.50737928  1
  Hf  Hf28  1  0.19602603  0.59593932  0.24115876  1
  Hf  Hf29  1  0.51240274  0.90359621  0.86226732  1
  Hf  Hf30  1  0.19593962  0.40355986  -0.01417786  1
  Hf  Hf31  1  0.50024179  0.69205210  0.38231295  1
  Hf  Hf32  1  0.09308855  0.11059814  0.62762965  1
  Hf  Hf33  1  0.28407314  0.49445225  0.62211139  1
  Hf  Hf34  1  0.79734137  0.59235818  0.01518186  1
  Hf  Hf35  1  0.78815662  -0.00959358  0.75130767  1
  Hf  Hf36  1  0.31448582  0.91180641  0.12805293  1
  Hf  Hf37  1  0.78304178  0.39579131  0.75027112  1
  Hf  Hf38  1  0.20546722  0.01993266  -0.01472665  1
  Hf  Hf39  1  0.18994082  0.41746833  0.76143992  1
  Zr  Zr40  1  0.90288840  0.09239050  0.10639756  1
  Zr  Zr41  1  0.89303333  0.29736813  0.87940388  1
  Zr  Zr42  1  0.69897897  0.09575494  0.11565922  1
  Zr  Zr43  1  0.31040621  0.32442658  0.12589731  1
  Zr  Zr44  1  0.40616538  0.40912365  -0.01308698  1
  Zr  Zr45  1  0.30348551  0.52592413  0.86940522  1
  Zr  Zr46  1  0.20197682  0.60749637  0.00931329  1
  Zr  Zr47  1  0.09519921  0.11101186  0.39604546  1
  Zr  Zr48  1  0.90125876  0.89112166  0.63503451  1
  Zr  Zr49  1  0.80347370  0.19138407  0.25526394  1
  Zr  Zr50  1  0.90684792  0.29973482  0.11933819  1
  Zr  Zr51  1  0.40609968  -0.00108486  0.49139155  1
  Zr  Zr52  1  0.91805170  0.29448731  0.37354344  1
  Zr  Zr53  1  0.01283656  0.18547486  0.23997003  1
  Zr  Zr54  1  0.21223807  0.21232392  0.25509620  1
  Zr  Zr55  1  0.50181786  0.70295821  0.61468099  1
  Zr  Zr56  1  0.21326297  0.80959840  -0.00466736  1
  Zr  Zr57  1  0.58977388  0.19671115  -0.01874091  1
  Zr  Zr58  1  0.38822726  0.19974505  -0.01536731  1
  Zr  Zr59  1  0.69497037  0.50576955  0.37986844  1
  Zr  Zr60  1  0.29946942  0.10899332  0.38409743  1
  Zr  Zr61  1  0.48520923  0.47924353  0.39624764  1
  Zr  Zr62  1  0.70393408  0.88847070  0.89300995  1
  Zr  Zr63  1  0.11942938  0.31122203  0.37885811  1
  Zr  Zr64  1  0.37621053  0.60702333  0.50757754  1
  Zr  Zr65  1  0.09391594  0.71460599  0.13289083  1
  Zr  Zr66  1  0.69805881  0.29678224  0.14047789  1
  Zr  Zr67  1  0.08502334  0.29995758  0.86232991  1
  Zr  Zr68  1  0.29511166  0.11492110  0.12791358  1
  Zr  Zr69  1  0.61118730  0.19573640  0.75882397  1
  Zr  Zr70  1  0.69417440  0.50441593  0.60770070  1
  Zr  Zr71  1  0.71300985  0.89454744  0.37741309  1
  Zr  Zr72  1  0.19687712  0.81853660  0.24700249  1
  Zr  Zr73  1  0.19083409  0.61911797  0.74610717  1
  Zr  Zr74  1  0.50636670  0.29741849  0.12447999  1
  Zr  Zr75  1  0.20877035  0.80259741  0.50832374  1
  Zr  Zr76  1  0.49824796  0.08429848  0.13182623  1
  Zr  Zr77  1  0.71371904  0.70076263  0.60231947  1
  Zr  Zr78  1  0.50914558  0.50210348  0.86111212  1
  Zr  Zr79  1  0.68201878  0.49319904  0.13953794  1
  Ta  Ta80  1  0.41431891  0.79913935  0.00091628  1
  Ta  Ta81  1  0.01108674  -0.00372398  -0.01517029  1
  Ta  Ta82  1  0.90399861  0.89402405  0.87447550  1
  Ta  Ta83  1  0.42230952  0.21021906  0.26479457  1
  Ta  Ta84  1  0.49604161  0.29323127  0.63779552  1
  Ta  Ta85  1  0.59065021  0.59784052  0.00601050  1
  Ta  Ta86  1  0.09083690  0.50273824  0.37189286  1
  Ta  Ta87  1  0.50896009  0.90796697  0.63275533  1
  Ta  Ta88  1  0.48073462  0.50122272  0.13193834  1
  Ta  Ta89  1  0.69199439  0.70640802  0.12134168  1
  Ta  Ta90  1  0.00391164  -0.00873407  0.24673224  1
  Ta  Ta91  1  0.31735286  0.70570583  0.13624124  1
  Ta  Ta92  1  0.49964016  0.30113901  0.85013516  1
  Ta  Ta93  1  0.19347202  0.01242205  0.25088806  1
  Ta  Ta94  1  0.80706043  -0.01214885  0.24891460  1
  Ta  Ta95  1  0.80505138  0.78676689  0.75465105  1
  Ta  Ta96  1  0.59438665  0.81246600  0.49493708  1
  Ta  Ta97  1  0.50326994  0.70185400  0.13329099  1
  Ta  Ta98  1  -0.01308151  0.59247417  0.49859525  1
  Ta  Ta99  1  0.69755858  0.69927055  0.39106084  1
  Ta  Ta100  1  0.49119961  0.09440016  0.63889374  1
  Ta  Ta101  1  0.01023289  0.79359147  0.75523596  1
  Ta  Ta102  1  0.11296583  0.29053166  0.11545300  1
  Ta  Ta103  1  0.32186448  0.31890675  0.38362713  1
  Ta  Ta104  1  0.41219629  0.80961705  0.25941197  1
  Ta  Ta105  1  0.39473161  0.60961920  0.73245317  1
  Ta  Ta106  1  -0.00258899  0.00525102  0.75409954  1
  Ta  Ta107  1  0.81943001  0.41283586  0.25762137  1
  Ta  Ta108  1  0.60808088  0.79202746  0.25538383  1
  Ta  Ta109  1  0.89318796  0.49702727  0.62781438  1
  Ta  Ta110  1  0.90390737  0.08183423  0.37463939  1
  Ta  Ta111  1  0.70182924  0.50133354  0.87448801  1
  Ta  Ta112  1  0.31513728  0.90639239  0.63329431  1
  Ta  Ta113  1  -0.00394029  0.00690757  0.51302917  1
  Ta  Ta114  1  0.10477014  0.31308696  0.64066538  1
  Ta  Ta115  1  0.90783169  0.68629532  0.63173989  1
  Ta  Ta116  1  0.80338656  0.78609192  0.00077592  1
  Ta  Ta117  1  0.90312101  0.49778752  0.87110938  1
  Ta  Ta118  1  0.81344480  0.40716947  0.49199404  1
  Ta  Ta119  1  -0.01400460  0.58479634  0.23729184  1
  Ti  Ti120  1  -0.01168201  0.40955709  0.74722348  1
  Ti  Ti121  1  0.57441426  0.38673607  0.26102221  1
  Ti  Ti122  1  0.09709963  0.70444728  0.62627503  1
  Ti  Ti123  1  0.10391808  0.48422545  0.12667280  1
  Ti  Ti124  1  0.79778169  0.59734454  0.74986874  1
  Ti  Ti125  1  0.69785697  0.89352552  0.61799364  1
  Ti  Ti126  1  0.39849383  0.81271027  0.49479734  1
  Ti  Ti127  1  0.10850495  0.11322445  0.85905857  1
  Ti  Ti128  1  0.20862040  0.80303516  0.74881397  1
  Ti  Ti129  1  0.02148174  0.19278518  0.00033022  1
  Ti  Ti130  1  0.68700300  0.08077850  0.88446481  1
  Ti  Ti131  1  0.58784117  0.59718703  0.25444277  1
  Ti  Ti132  1  0.39310864  0.58779388  0.25457770  1
  Ti  Ti133  1  0.21259663  0.41001204  0.24920437  1
  Ti  Ti134  1  0.40874738  0.20118700  0.50918416  1
  Ti  Ti135  1  0.91221708  0.29110027  0.62721315  1
  Ti  Ti136  1  0.08362609  0.51134046  0.62769305  1
  Ti  Ti137  1  0.70256882  0.09913385  0.37664853  1
  Ti  Ti138  1  0.59089232  0.19316178  0.49735305  1
  Ti  Ti139  1  0.17862190  0.60235460  0.50247552  1
  Ti  Ti140  1  0.28341704  0.49802702  0.38944672  1
  Ti  Ti141  1  0.59957446  0.40086855  -0.00435872  1
  Ti  Ti142  1  0.78575056  0.20137917  -0.00952153  1
  Ti  Ti143  1  0.10650851  0.69373436  0.87473570  1
  Ti  Ti144  1  0.39721537  0.60932869  0.00711446  1
  Ti  Ti145  1  0.30926118  0.89818940  0.86547037  1
  Ti  Ti146  1  0.01227308  0.39680687  0.24406648  1
  Ti  Ti147  1  0.39403812  0.00058580  0.27223427  1
  Ti  Ti148  1  0.10353901  0.90201230  0.63290336  1
  Ti  Ti149  1  0.60499009  0.59414450  0.74320424  1
  Ti  Ti150  1  0.39929882  0.40432875  0.74412542  1
  Ti  Ti151  1  0.20787318  0.00361372  0.51681036  1
  Ti  Ti152  1  0.39628001  0.79748936  0.74483902  1
  Ti  Ti153  1  0.59282558  0.00162211  0.48904667  1
  Ti  Ti154  1  0.69415933  0.68923764  0.88131261  1
  Ti  Ti155  1  0.00012661  0.40080334  0.00051830  1
  Ti  Ti156  1  0.10445369  0.90312381  0.86405190  1
  Ti  Ti157  1  -0.02381338  0.79812538  0.24480620  1
  Ti  Ti158  1  0.90659279  0.89561169  0.37515758  1
  Ti  Ti159  1  0.10224788  0.92090589  0.11852693  1
  Mo  Mo160  1  0.30575457  0.71625376  0.87348603  1
  Mo  Mo161  1  0.30604068  0.30177111  0.64590979  1
  Mo  Mo162  1  0.90039342  0.09667063  0.63145722  1
  Mo  Mo163  1  0.30758756  0.09907163  0.61827333  1
  Mo  Mo164  1  -0.00214140  0.19964424  0.74791786  1
  Mo  Mo165  1  0.19963488  0.20447881  0.73295627  1
  Mo  Mo166  1  0.19930864  0.41566881  0.50568500  1
  Mo  Mo167  1  0.49349421  0.09756468  0.85208732  1
  Mo  Mo168  1  0.59403469  0.78421614  0.00101020  1
  Mo  Mo169  1  0.50995224  0.10473617  0.37612254  1
  Mo  Mo170  1  0.50239692  0.29049865  0.38827019  1
  Mo  Mo171  1  0.29424889  0.71290186  0.62395112  1
  Mo  Mo172  1  0.39458274  0.18843621  0.74762844  1
  Mo  Mo173  1  0.29961848  0.51164739  0.12475127  1
  Mo  Mo174  1  0.80661148  0.79810504  0.50225389  1
  Mo  Mo175  1  0.40387465  -0.00500298  0.75381717  1
  Mo  Mo176  1  0.89454069  0.70110118  0.12643313  1
  Mo  Mo177  1  0.29725871  0.09528098  0.86714319  1
  Mo  Mo178  1  -0.00730114  0.59983215  0.74810985  1
  Mo  Mo179  1  0.80943796  0.59422961  0.49698103  1
  Mo  Mo180  1  0.90301949  0.48979862  0.12978819  1
  Mo  Mo181  1  0.90806012  0.49842863  0.36896464  1
  Mo  Mo182  1  0.38745836  0.37900568  0.51931030  1
  Mo  Mo183  1  0.39559671  0.40535361  0.25714885  1
  Mo  Mo184  1  0.59757900  0.38332384  0.49905424  1
  Mo  Mo185  1  0.59470810  0.60155785  0.49203547  1
  Mo  Mo186  1  0.69217869  0.30876716  0.87791071  1
  Mo  Mo187  1  0.08003879  0.50919902  0.87672434  1
  Mo  Mo188  1  0.60742955  -0.00532903  0.74390994  1
  Mo  Mo189  1  0.60218757  0.19339508  0.26219554  1
  Mo  Mo190  1  0.49511150  0.88499427  0.12937435  1
  Mo  Mo191  1  0.10219968  0.09429994  0.11871066  1
  Mo  Mo192  1  0.79414705  0.80456340  0.24295396  1
  Mo  Mo193  1  0.29841363  0.90378489  0.37059946  1
  Mo  Mo194  1  0.50170161  0.89341577  0.37554009  1
  Mo  Mo195  1  0.59177187  -0.00478053  -0.00215482  1
  Mo  Mo196  1  0.80554341  -0.00634445  -0.00968047  1
  Mo  Mo197  1  0.19405231  0.20745461  -0.00662929  1
  Mo  Mo198  1  0.59569288  0.40290908  0.74642606  1
  Mo  Mo199  1  0.00191307  0.19989768  0.50832734  1
