# generated using pymatgen
data_HfZrTaTiMo
_symmetry_space_group_name_H-M   'P 1'
_cell_length_a   15.20186694
_cell_length_b   15.19734727
_cell_length_c   16.85608144
_cell_angle_alpha   89.94127894
_cell_angle_beta   90.07246247
_cell_angle_gamma   89.90009661
_symmetry_Int_Tables_number   1
_chemical_formula_structural   HfZrTaTiMo
_chemical_formula_sum   'Hf40 Zr40 Ta40 Ti40 Mo40'
_cell_volume   3894.21655388
_cell_formula_units_Z   40
loop_
 _symmetry_equiv_pos_site_id
 _symmetry_equiv_pos_as_xyz
  1  'x, y, z'
loop_
 _atom_site_type_symbol
 _atom_site_label
 _atom_site_symmetry_multiplicity
 _atom_site_fract_x
 _atom_site_fract_y
 _atom_site_fract_z
 _atom_site_occupancy
  Hf  Hf0  1  0.80924585  0.00295916  -0.01682287  1
  Hf  Hf1  1  0.40862512  0.19568943  0.24284330  1
  Hf  Hf2  1  0.89611874  0.50787614  0.12485503  1
  Hf  Hf3  1  0.49947857  0.49054527  0.37458378  1
  Hf  Hf4  1  0.09558261  0.91631834  0.11188735  1
  Hf  Hf5  1  0.58448432  0.19684816  0.73926940  1
  Hf  Hf6  1  0.40346655  0.80069399  -0.01305733  1
  Hf  Hf7  1  0.60301071  0.40507790  0.00145115  1
  Hf  Hf8  1  0.50687527  0.69922766  0.36958831  1
  Hf  Hf9  1  0.08696036  0.30795866  0.87547072  1
  Hf  Hf10  1  0.20171686  0.39873038  0.75994108  1
  Hf  Hf11  1  0.30121282  0.69745769  0.11497755  1
  Hf  Hf12  1  0.79491040  0.00481959  0.50263282  1
  Hf  Hf13  1  0.78313643  0.40268844  0.50044230  1
  Hf  Hf14  1  0.39682882  0.18777232  0.01562652  1
  Hf  Hf15  1  0.90584206  0.90670730  0.62971967  1
  Hf  Hf16  1  0.89178819  0.49484434  0.86640502  1
  Hf  Hf17  1  0.00546693  0.78019066  0.00106720  1
  Hf  Hf18  1  0.39592429  0.80970924  0.76841077  1
  Hf  Hf19  1  0.69245817  0.69973813  0.62757052  1
  Hf  Hf20  1  0.29519714  0.28175375  0.87932409  1
  Hf  Hf21  1  0.69994071  0.68480371  0.13139672  1
  Hf  Hf22  1  0.20996249  0.79594260  0.52259937  1
  Hf  Hf23  1  0.39919313  0.38620000  0.74458658  1
  Hf  Hf24  1  0.70722702  0.69802699  0.37193051  1
  Hf  Hf25  1  0.69821242  0.49706528  0.63469825  1
  Hf  Hf26  1  0.20071954  0.80491882  0.73651437  1
  Hf  Hf27  1  0.81083677  0.59641478  0.50410751  1
  Hf  Hf28  1  0.60026921  0.80151143  0.24136798  1
  Hf  Hf29  1  0.88932816  0.30557775  0.36456950  1
  Hf  Hf30  1  0.00736679  0.77962624  0.73626133  1
  Hf  Hf31  1  0.11312327  0.90186909  0.87597387  1
  Hf  Hf32  1  0.59911071  0.79047371  -0.00222663  1
  Hf  Hf33  1  0.59006979  0.40348236  0.75430065  1
  Hf  Hf34  1  0.09502163  0.50910973  0.38798424  1
  Hf  Hf35  1  0.01928075  0.61543194  0.24489523  1
  Hf  Hf36  1  -0.00867384  0.41179171  0.25144732  1
  Hf  Hf37  1  0.58862779  0.79200452  0.75903289  1
  Hf  Hf38  1  0.33314260  0.69453728  0.63105326  1
  Hf  Hf39  1  0.68018589  0.29106315  0.37575633  1
  Zr  Zr40  1  0.79182479  0.20320113  -0.00304897  1
  Zr  Zr41  1  0.79786994  0.20097740  0.50415389  1
  Zr  Zr42  1  0.00349866  0.19818427  0.23924461  1
  Zr  Zr43  1  0.40072338  0.40110832  0.01528806  1
  Zr  Zr44  1  0.41114931  0.80845377  0.49547859  1
  Zr  Zr45  1  -0.01871811  0.40233831  0.50284073  1
  Zr  Zr46  1  0.19372186  -0.00473090  0.24603933  1
  Zr  Zr47  1  0.10817276  0.48674503  0.62075893  1
  Zr  Zr48  1  0.20001549  0.60368886  0.73618772  1
  Zr  Zr49  1  0.90038678  0.08798461  0.12854372  1
  Zr  Zr50  1  0.28598919  0.68593612  0.88333075  1
  Zr  Zr51  1  0.31066651  0.10185251  0.37955804  1
  Zr  Zr52  1  0.01434619  0.81715759  0.25145408  1
  Zr  Zr53  1  0.08506998  0.29018006  0.63249491  1
  Zr  Zr54  1  0.19700296  0.40521399  0.00120044  1
  Zr  Zr55  1  0.79323710  -0.00543011  0.24775073  1
  Zr  Zr56  1  0.10792428  0.10254011  0.63312665  1
  Zr  Zr57  1  0.01202454  0.80495327  0.51089968  1
  Zr  Zr58  1  0.20796668  0.20760448  0.22985838  1
  Zr  Zr59  1  0.51399885  0.28584594  0.12066790  1
  Zr  Zr60  1  0.30654050  0.07481566  0.88583020  1
  Zr  Zr61  1  0.41968946  0.58793195  0.75919461  1
  Zr  Zr62  1  0.68960104  0.90472572  0.87423527  1
  Zr  Zr63  1  0.18923791  0.41652171  0.24001798  1
  Zr  Zr64  1  0.37940268  0.40504308  0.50541725  1
  Zr  Zr65  1  0.22166507  0.00496695  0.74337543  1
  Zr  Zr66  1  0.90299257  0.90617411  0.37743313  1
  Zr  Zr67  1  0.90133784  0.11410383  0.63290100  1
  Zr  Zr68  1  0.91918334  0.69480590  0.38294262  1
  Zr  Zr69  1  0.38702208  0.39949009  0.23896539  1
  Zr  Zr70  1  0.59008872  0.38638560  0.24989841  1
  Zr  Zr71  1  0.80580389  0.79031640  -0.00446658  1
  Zr  Zr72  1  0.68855953  0.91507740  0.63409030  1
  Zr  Zr73  1  0.39455550  0.80336603  0.24921615  1
  Zr  Zr74  1  0.09198502  0.52852830  0.87767806  1
  Zr  Zr75  1  0.10011711  0.09192892  0.37302166  1
  Zr  Zr76  1  0.80344728  0.01547465  0.76269102  1
  Zr  Zr77  1  0.80356011  0.79900260  0.75257595  1
  Zr  Zr78  1  -0.00747609  0.20157525  0.00056390  1
  Zr  Zr79  1  0.70050654  0.90870390  0.11513875  1
  Ta  Ta80  1  0.50016020  0.50849783  0.61614224  1
  Ta  Ta81  1  0.91348612  0.68368269  0.86850727  1
  Ta  Ta82  1  0.00492491  0.00686784  0.50288780  1
  Ta  Ta83  1  0.49791868  0.29427435  0.88386227  1
  Ta  Ta84  1  0.13518329  0.70593529  0.38268421  1
  Ta  Ta85  1  0.49670217  0.89809689  0.11935315  1
  Ta  Ta86  1  0.79025071  0.21678234  0.74963920  1
  Ta  Ta87  1  -0.00260465  0.20020535  0.49298970  1
  Ta  Ta88  1  0.70147069  0.49261851  0.14040290  1
  Ta  Ta89  1  0.29196364  0.51839923  0.37013433  1
  Ta  Ta90  1  0.79467086  0.40413943  0.00022143  1
  Ta  Ta91  1  0.28472799  0.89081449  0.37779573  1
  Ta  Ta92  1  0.40737705  0.60591176  0.49564081  1
  Ta  Ta93  1  0.19947397  -0.00660901  0.50610471  1
  Ta  Ta94  1  -0.01428791  0.40945219  0.00193942  1
  Ta  Ta95  1  0.19958965  0.80400793  0.00041540  1
  Ta  Ta96  1  0.29258431  0.30737307  0.37718836  1
  Ta  Ta97  1  0.80151689  0.59423358  -0.00199190  1
  Ta  Ta98  1  0.70806712  0.29945115  0.13040867  1
  Ta  Ta99  1  0.70406318  0.49518625  0.36261188  1
  Ta  Ta100  1  0.10038840  0.30158200  0.37781055  1
  Ta  Ta101  1  0.20136651  0.20566291  0.49715247  1
  Ta  Ta102  1  0.81272986  0.59300102  0.25765081  1
  Ta  Ta103  1  0.19385306  0.18973093  0.01823735  1
  Ta  Ta104  1  0.68866848  0.29805080  0.62240634  1
  Ta  Ta105  1  0.21793232  0.59159108  0.51328161  1
  Ta  Ta106  1  0.80946684  0.79164411  0.24390486  1
  Ta  Ta107  1  0.70900159  0.68295202  0.86847894  1
  Ta  Ta108  1  0.50146630  0.91191820  0.37201575  1
  Ta  Ta109  1  0.10763100  0.11097738  0.86833485  1
  Ta  Ta110  1  0.69286530  0.89557904  0.37715137  1
  Ta  Ta111  1  0.79913245  0.80190743  0.50685862  1
  Ta  Ta112  1  0.89759965  0.10296846  0.36837923  1
  Ta  Ta113  1  0.60483189  0.58888686  0.49556486  1
  Ta  Ta114  1  0.28551504  0.29447284  0.62449698  1
  Ta  Ta115  1  0.69412347  0.09249660  0.37255449  1
  Ta  Ta116  1  0.50174496  0.10497868  0.87654966  1
  Ta  Ta117  1  0.48666587  0.28557017  0.39206584  1
  Ta  Ta118  1  0.30226144  0.90965968  0.11240611  1
  Ta  Ta119  1  0.68963072  0.11265457  0.87261595  1
  Ti  Ti120  1  0.59579295  0.01261329  -0.00058513  1
  Ti  Ti121  1  0.59210924  0.00372495  0.24934484  1
  Ti  Ti122  1  0.60262588  0.79872752  0.50023358  1
  Ti  Ti123  1  0.59550965  0.18789499  0.51038635  1
  Ti  Ti124  1  0.59726069  -0.00493826  0.49912099  1
  Ti  Ti125  1  0.38813707  0.18751610  0.74751333  1
  Ti  Ti126  1  0.29226634  0.51116131  0.12085436  1
  Ti  Ti127  1  0.49987546  0.89192554  0.63016699  1
  Ti  Ti128  1  0.49915809  0.08307241  0.12540686  1
  Ti  Ti129  1  -0.02096352  0.40146960  0.74142901  1
  Ti  Ti130  1  0.41396515  0.59466084  0.00242801  1
  Ti  Ti131  1  0.00891954  -0.00212661  0.75695341  1
  Ti  Ti132  1  0.90121383  0.89220936  0.12164610  1
  Ti  Ti133  1  0.31199802  0.10785367  0.61414594  1
  Ti  Ti134  1  0.09307442  0.31343892  0.11636901  1
  Ti  Ti135  1  0.88588741  0.30083691  0.87292479  1
  Ti  Ti136  1  0.31158202  0.49497707  0.88583992  1
  Ti  Ti137  1  0.00648931  0.00933953  -0.01643634  1
  Ti  Ti138  1  0.48988201  0.29494889  0.60728629  1
  Ti  Ti139  1  0.89188900  0.30728393  0.12924636  1
  Ti  Ti140  1  0.51089997  0.67805987  0.87925266  1
  Ti  Ti141  1  0.00769096  0.60695062  0.52407212  1
  Ti  Ti142  1  0.39831161  0.60723964  0.24782499  1
  Ti  Ti143  1  0.31557868  0.91446526  0.62385786  1
  Ti  Ti144  1  -0.01079790  0.19979098  0.76242120  1
  Ti  Ti145  1  0.81486931  0.59847057  0.73727950  1
  Ti  Ti146  1  0.49222827  0.92174508  0.87759658  1
  Ti  Ti147  1  0.78845693  0.19922366  0.24812985  1
  Ti  Ti148  1  0.50893559  0.52204736  0.13672812  1
  Ti  Ti149  1  0.49970175  0.08524645  0.62298676  1
  Ti  Ti150  1  0.60710285  0.59346836  0.00068509  1
  Ti  Ti151  1  0.39648098  -0.00382159  0.24965603  1
  Ti  Ti152  1  0.69687435  0.50138977  0.86458163  1
  Ti  Ti153  1  0.20292724  0.79106142  0.24158958  1
  Ti  Ti154  1  0.40316578  0.00302815  0.49656259  1
  Ti  Ti155  1  0.68546809  0.11076634  0.12448429  1
  Ti  Ti156  1  0.50771627  0.10202961  0.37834966  1
  Ti  Ti157  1  0.91246564  0.89339051  0.86961862  1
  Ti  Ti158  1  0.09978179  0.52488061  0.10985757  1
  Ti  Ti159  1  0.69121089  0.30503294  0.87402271  1
  Mo  Mo160  1  0.68638347  0.10764948  0.62790847  1
  Mo  Mo161  1  0.50519100  0.49348248  0.88376535  1
  Mo  Mo162  1  0.11038961  0.69562459  0.61640715  1
  Mo  Mo163  1  0.09458073  0.70388079  0.87087289  1
  Mo  Mo164  1  0.39972900  0.19516322  0.50539681  1
  Mo  Mo165  1  0.09694456  0.10034997  0.11766891  1
  Mo  Mo166  1  0.59069673  0.39658175  0.50189022  1
  Mo  Mo167  1  0.79158700  0.39454375  0.75091897  1
  Mo  Mo168  1  0.18941938  0.61317509  0.00243141  1
  Mo  Mo169  1  -0.00378933  0.00081320  0.25045680  1
  Mo  Mo170  1  0.20696816  0.20513859  0.75437474  1
  Mo  Mo171  1  0.88644105  0.30624210  0.63317094  1
  Mo  Mo172  1  0.89747429  0.50620330  0.37306347  1
  Mo  Mo173  1  0.30262381  0.89589629  0.88350817  1
  Mo  Mo174  1  0.21013676  0.60966834  0.24935117  1
  Mo  Mo175  1  0.79756704  0.39609554  0.25032754  1
  Mo  Mo176  1  0.10912935  0.89649579  0.38249166  1
  Mo  Mo177  1  0.30716564  0.69876306  0.37727944  1
  Mo  Mo178  1  0.59999932  0.19909757  -0.00540738  1
  Mo  Mo179  1  0.30422935  0.08917657  0.12483636  1
  Mo  Mo180  1  0.41777163  0.00427514  0.74350942  1
  Mo  Mo181  1  0.29212389  0.30163077  0.11921338  1
  Mo  Mo182  1  0.19845650  0.00499058  0.00122980  1
  Mo  Mo183  1  0.89797842  0.49883565  0.63425694  1
  Mo  Mo184  1  0.60832652  0.59895653  0.75505664  1
  Mo  Mo185  1  -0.01199949  0.60118445  0.00446952  1
  Mo  Mo186  1  0.89662396  0.69866626  0.61712709  1
  Mo  Mo187  1  0.19330962  0.39443174  0.49215010  1
  Mo  Mo188  1  0.50021275  0.69372099  0.12090415  1
  Mo  Mo189  1  0.58922122  0.00428812  0.75334970  1
  Mo  Mo190  1  0.60221338  0.59562556  0.25358014  1
  Mo  Mo191  1  0.10399942  0.91071676  0.62944565  1
  Mo  Mo192  1  0.51429756  0.69844517  0.61964429  1
  Mo  Mo193  1  0.40922009  -0.00611742  0.00688970  1
  Mo  Mo194  1  0.60219966  0.18063965  0.25371176  1
  Mo  Mo195  1  0.30940412  0.49193520  0.62592735  1
  Mo  Mo196  1  0.89875385  0.70221342  0.13110018  1
  Mo  Mo197  1  0.10663732  0.70528122  0.12352350  1
  Mo  Mo198  1  0.90655416  0.10503320  0.86525387  1
  Mo  Mo199  1  -0.00399347  0.59434356  0.73127314  1
