# generated using pymatgen
data_HfZrTaTiMo
_symmetry_space_group_name_H-M   'P 1'
_cell_length_a   15.20775830
_cell_length_b   15.21085724
_cell_length_c   16.83095255
_cell_angle_alpha   90.01757778
_cell_angle_beta   89.98569835
_cell_angle_gamma   90.04868201
_symmetry_Int_Tables_number   1
_chemical_formula_structural   HfZrTaTiMo
_chemical_formula_sum   'Hf40 Zr40 Ta40 Ti40 Mo40'
_cell_volume   3893.38540744
_cell_formula_units_Z   40
loop_
 _symmetry_equiv_pos_site_id
 _symmetry_equiv_pos_as_xyz
  1  'x, y, z'
loop_
 _atom_site_type_symbol
 _atom_site_label
 _atom_site_symmetry_multiplicity
 _atom_site_fract_x
 _atom_site_fract_y
 _atom_site_fract_z
 _atom_site_occupancy
  Hf  Hf0  1  0.69666824  0.28265213  0.86930576  1
  Hf  Hf1  1  0.00151103  0.02335804  0.25255453  1
  Hf  Hf2  1  0.00862489  0.59709441  0.24681800  1
  Hf  Hf3  1  0.11223764  0.31301899  0.86788748  1
  Hf  Hf4  1  0.61582796  0.59034380  0.50854783  1
  Hf  Hf5  1  0.20774408  0.80641410  0.75078306  1
  Hf  Hf6  1  0.27246110  0.50639156  0.39368122  1
  Hf  Hf7  1  0.39445233  0.41337073  0.00604259  1
  Hf  Hf8  1  0.39940381  0.01183821  0.75361983  1
  Hf  Hf9  1  0.30322115  0.69892490  0.88821792  1
  Hf  Hf10  1  0.39796635  0.40250862  0.73063651  1
  Hf  Hf11  1  0.09824830  0.50954375  0.87820726  1
  Hf  Hf12  1  0.49468240  0.69797270  0.13452560  1
  Hf  Hf13  1  0.60388698  -0.02453882  0.01805927  1
  Hf  Hf14  1  0.09784662  0.90295064  0.61961460  1
  Hf  Hf15  1  0.90290509  0.29725060  0.11889870  1
  Hf  Hf16  1  0.09629506  0.30625421  0.37160945  1
  Hf  Hf17  1  0.70581933  0.28771416  0.37780805  1
  Hf  Hf18  1  0.52010672  0.89253925  0.86815068  1
  Hf  Hf19  1  0.40676141  0.80411103  0.74946966  1
  Hf  Hf20  1  0.59841079  0.17964472  0.73472134  1
  Hf  Hf21  1  0.80123835  0.40696983  -0.00706151  1
  Hf  Hf22  1  0.39158096  0.60199255  0.73446823  1
  Hf  Hf23  1  0.69429388  0.89154699  0.62885737  1
  Hf  Hf24  1  0.00116201  0.79627014  0.47407808  1
  Hf  Hf25  1  0.10430767  0.70548237  0.88736544  1
  Hf  Hf26  1  -0.00194800  0.81559507  0.00939714  1
  Hf  Hf27  1  0.59338230  0.17184186  0.51169277  1
  Hf  Hf28  1  0.80284024  0.58083343  0.24626913  1
  Hf  Hf29  1  0.09621667  0.90595862  0.87503201  1
  Hf  Hf30  1  0.61400944  0.18816593  0.01172365  1
  Hf  Hf31  1  0.40249916  0.41078594  0.26474798  1
  Hf  Hf32  1  0.58351061  0.59051725  0.00946214  1
  Hf  Hf33  1  0.09226982  0.50593777  0.61735841  1
  Hf  Hf34  1  0.78628056  0.60949225  -0.00057914  1
  Hf  Hf35  1  0.29199863  0.11677017  0.12107847  1
  Hf  Hf36  1  0.91051556  0.69797011  0.61551588  1
  Hf  Hf37  1  0.69064204  0.70742871  0.85939266  1
  Hf  Hf38  1  0.10323994  0.29848153  0.12953234  1
  Hf  Hf39  1  0.30134972  0.91596761  0.61412948  1
  Zr  Zr40  1  -0.00894444  0.59965133  0.01394010  1
  Zr  Zr41  1  0.88968668  0.09760568  0.88773963  1
  Zr  Zr42  1  0.29006906  0.49373853  0.87417639  1
  Zr  Zr43  1  0.89012962  0.90767854  0.36150100  1
  Zr  Zr44  1  0.79056177  0.39604943  0.74880120  1
  Zr  Zr45  1  0.51284917  0.71657645  0.61642326  1
  Zr  Zr46  1  0.51230374  0.30088333  0.37785850  1
  Zr  Zr47  1  0.59671617  0.58203025  0.73137539  1
  Zr  Zr48  1  0.29996138  0.70727365  0.60637873  1
  Zr  Zr49  1  0.49064808  0.30158946  0.13219117  1
  Zr  Zr50  1  0.38620244  0.61284616  0.27263141  1
  Zr  Zr51  1  0.41762894  0.81943343  0.48616920  1
  Zr  Zr52  1  0.59793184  0.18335469  0.24019577  1
  Zr  Zr53  1  0.48225789  0.08945707  0.11379234  1
  Zr  Zr54  1  0.90367066  0.30720070  0.62606744  1
  Zr  Zr55  1  0.11253023  0.09989852  0.62369213  1
  Zr  Zr56  1  0.10486448  0.70233181  0.61413393  1
  Zr  Zr57  1  0.00883153  0.40185684  0.00059629  1
  Zr  Zr58  1  0.90423894  0.29539926  0.87503493  1
  Zr  Zr59  1  0.18786202  0.19203596  0.25952107  1
  Zr  Zr60  1  0.19781285  0.41628054  0.24975053  1
  Zr  Zr61  1  0.68871410  0.08158085  0.37066613  1
  Zr  Zr62  1  0.41164630  0.80959418  0.00154978  1
  Zr  Zr63  1  0.49492028  0.50052335  0.86838089  1
  Zr  Zr64  1  -0.00765982  0.80026173  0.75255719  1
  Zr  Zr65  1  0.39621731  0.20750521  0.76022938  1
  Zr  Zr66  1  0.08959210  0.10641708  0.88550598  1
  Zr  Zr67  1  0.00542639  0.20383938  0.50527885  1
  Zr  Zr68  1  0.30879717  0.90378229  0.13421287  1
  Zr  Zr69  1  0.20909412  0.20266237  0.75407278  1
  Zr  Zr70  1  0.89494809  0.11460313  0.37824507  1
  Zr  Zr71  1  0.39884375  0.01455862  0.26563828  1
  Zr  Zr72  1  0.71907404  0.69700066  0.63264544  1
  Zr  Zr73  1  0.89047177  0.71079743  0.12920133  1
  Zr  Zr74  1  0.59824662  0.39147653  0.00619713  1
  Zr  Zr75  1  0.50768882  0.09464147  0.88565199  1
  Zr  Zr76  1  0.81669516  0.59330386  0.75995651  1
  Zr  Zr77  1  0.68466039  0.87912306  0.37079714  1
  Zr  Zr78  1  0.08240914  0.10198265  0.10793198  1
  Zr  Zr79  1  0.20247508  -0.01027712  0.00193954  1
  Ta  Ta80  1  0.89293848  0.31555442  0.37542850  1
  Ta  Ta81  1  0.60974122  0.40235418  0.24628214  1
  Ta  Ta82  1  0.20183905  0.80407698  0.47723960  1
  Ta  Ta83  1  0.21043329  0.78851070  0.26822467  1
  Ta  Ta84  1  0.89208547  0.90433283  0.87899527  1
  Ta  Ta85  1  -0.01030592  0.00531526  0.74620193  1
  Ta  Ta86  1  -0.00426829  0.41569996  0.75248791  1
  Ta  Ta87  1  0.40680627  0.60225422  0.49088530  1
  Ta  Ta88  1  0.41475160  0.01832615  0.48606645  1
  Ta  Ta89  1  0.59954857  0.39158600  0.51752520  1
  Ta  Ta90  1  0.90444022  0.90799927  0.14002782  1
  Ta  Ta91  1  -0.00188611  0.20134799  0.74251860  1
  Ta  Ta92  1  0.29489908  0.70696663  0.12425361  1
  Ta  Ta93  1  0.89974289  0.08928802  0.61959200  1
  Ta  Ta94  1  0.31400404  0.11097115  0.60978951  1
  Ta  Ta95  1  0.20614859  0.22082633  -0.00969920  1
  Ta  Ta96  1  0.69200969  0.49456886  0.87286099  1
  Ta  Ta97  1  0.59879907  0.59252899  0.25123193  1
  Ta  Ta98  1  0.41868699  0.81274272  0.26420084  1
  Ta  Ta99  1  0.38715565  0.21165996  0.26885907  1
  Ta  Ta100  1  0.59016580  -0.02653689  0.23199417  1
  Ta  Ta101  1  -0.00212113  -0.00125503  0.49322558  1
  Ta  Ta102  1  0.70262476  0.49362952  0.12830836  1
  Ta  Ta103  1  0.29116417  0.50247184  0.60297712  1
  Ta  Ta104  1  0.80085393  0.78672479  0.48757393  1
  Ta  Ta105  1  0.70446830  0.48119280  0.37712432  1
  Ta  Ta106  1  0.79750772  -0.01159076  0.01557754  1
  Ta  Ta107  1  0.79010144  -0.00407591  0.50498325  1
  Ta  Ta108  1  0.52280432  0.70880723  0.37872084  1
  Ta  Ta109  1  0.89433098  0.71156721  0.88457949  1
  Ta  Ta110  1  0.80137915  0.18093701  0.73674631  1
  Ta  Ta111  1  0.39966560  0.40171002  0.49641327  1
  Ta  Ta112  1  0.39514604  0.20957757  -0.01567679  1
  Ta  Ta113  1  0.89503077  0.89543302  0.61587685  1
  Ta  Ta114  1  0.00935506  0.79797680  0.26095178  1
  Ta  Ta115  1  0.71172503  0.29260651  0.13066287  1
  Ta  Ta116  1  0.79621719  0.19578720  0.51312801  1
  Ta  Ta117  1  0.10377956  0.89266593  0.14058805  1
  Ta  Ta118  1  0.29149986  0.30242039  0.60606676  1
  Ta  Ta119  1  -0.00403538  0.41186056  0.49365626  1
  Ti  Ti120  1  0.00427961  0.60352069  0.75656399  1
  Ti  Ti121  1  0.30200013  0.90567094  0.37480898  1
  Ti  Ti122  1  0.19869814  0.60291188  0.74532652  1
  Ti  Ti123  1  0.20746548  0.59745880  0.01132280  1
  Ti  Ti124  1  0.10336480  0.91044089  0.36733211  1
  Ti  Ti125  1  0.50224390  0.30698385  0.87061279  1
  Ti  Ti126  1  0.19766445  0.00012783  0.25434403  1
  Ti  Ti127  1  0.31105854  0.51595746  0.12907337  1
  Ti  Ti128  1  0.10144540  0.30920779  0.62775490  1
  Ti  Ti129  1  0.79843410  0.78461188  0.25879412  1
  Ti  Ti130  1  0.49976402  0.69414262  0.87422521  1
  Ti  Ti131  1  0.89774564  0.50853039  0.38172871  1
  Ti  Ti132  1  0.79569596  -0.00549892  0.74334687  1
  Ti  Ti133  1  0.48562104  0.28609184  0.61512883  1
  Ti  Ti134  1  0.69988032  0.29082650  0.62388986  1
  Ti  Ti135  1  0.11230136  0.67520223  0.37574149  1
  Ti  Ti136  1  0.70790765  0.87214945  0.13483945  1
  Ti  Ti137  1  -0.01625686  0.40513911  0.24791447  1
  Ti  Ti138  1  0.11106244  0.70591347  0.12791720  1
  Ti  Ti139  1  0.81006953  0.19856471  0.24600564  1
  Ti  Ti140  1  0.71013700  0.89635489  0.86853302  1
  Ti  Ti141  1  0.59233507  0.39033415  0.72872451  1
  Ti  Ti142  1  0.79329153  0.40322748  0.50676895  1
  Ti  Ti143  1  0.50781123  0.92022249  0.62978316  1
  Ti  Ti144  1  0.88886303  0.10793636  0.11073639  1
  Ti  Ti145  1  0.70257356  0.08325843  0.87629235  1
  Ti  Ti146  1  0.30543669  0.90777326  0.88160342  1
  Ti  Ti147  1  0.51259226  0.50299906  0.38478455  1
  Ti  Ti148  1  0.71204348  0.67741869  0.37731599  1
  Ti  Ti149  1  0.29840425  0.31070501  0.12674330  1
  Ti  Ti150  1  0.10815638  0.50267204  0.12263957  1
  Ti  Ti151  1  0.61954119  0.78377869  0.00903529  1
  Ti  Ti152  1  0.20246954  0.40819131  0.73822558  1
  Ti  Ti153  1  0.20090710  0.20571687  0.49070913  1
  Ti  Ti154  1  0.39831700  0.20455799  0.48195548  1
  Ti  Ti155  1  0.89335632  0.50798938  0.61414040  1
  Ti  Ti156  1  0.78899729  0.00303536  0.23462542  1
  Ti  Ti157  1  0.19812305  0.00552422  0.48947389  1
  Ti  Ti158  1  0.28954928  0.10633483  0.38154540  1
  Ti  Ti159  1  0.20434064  0.00777562  0.75756796  1
  Mo  Mo160  1  -0.00551274  0.60043725  0.48625438  1
  Mo  Mo161  1  0.39572530  0.60366824  0.00845628  1
  Mo  Mo162  1  0.89855621  0.49333978  0.12732131  1
  Mo  Mo163  1  0.70715218  0.48427981  0.62071776  1
  Mo  Mo164  1  0.80091091  0.39073073  0.25175272  1
  Mo  Mo165  1  0.69590429  0.69139510  0.13354273  1
  Mo  Mo166  1  0.61346367  0.79388873  0.49869001  1
  Mo  Mo167  1  0.29826638  0.30353080  0.38964437  1
  Mo  Mo168  1  0.79162372  0.19716026  0.00357971  1
  Mo  Mo169  1  0.49990485  0.10276157  0.36923972  1
  Mo  Mo170  1  0.81228201  0.80859573  0.75332819  1
  Mo  Mo171  1  0.10029540  0.09479556  0.38395172  1
  Mo  Mo172  1  0.70617040  0.08897448  0.13186163  1
  Mo  Mo173  1  0.49273032  0.49302191  0.60910924  1
  Mo  Mo174  1  0.60755847  -0.00232554  0.75193985  1
  Mo  Mo175  1  0.00052767  0.20279409  -0.00485523  1
  Mo  Mo176  1  0.20456894  0.40835669  0.01598214  1
  Mo  Mo177  1  0.59197100  -0.01782666  0.50004303  1
  Mo  Mo178  1  0.49920177  0.49993557  0.14121775  1
  Mo  Mo179  1  0.79074618  0.80842064  0.00215164  1
  Mo  Mo180  1  0.80923993  0.59048928  0.49315086  1
  Mo  Mo181  1  0.19286599  0.60612980  0.49947020  1
  Mo  Mo182  1  0.89895423  0.69843679  0.36491391  1
  Mo  Mo183  1  0.30628648  0.31033927  0.87773212  1
  Mo  Mo184  1  -0.01126875  -0.00612947  0.01221995  1
  Mo  Mo185  1  0.51002775  0.90875913  0.37315983  1
  Mo  Mo186  1  0.30568745  0.70730645  0.38619193  1
  Mo  Mo187  1  0.29761713  0.09763183  0.88723986  1
  Mo  Mo188  1  0.39962936  0.00649449  -0.00815108  1
  Mo  Mo189  1  0.08274479  0.49679239  0.37637898  1
  Mo  Mo190  1  0.18778816  0.39403129  0.50556672  1
  Mo  Mo191  1  0.49079331  0.09393961  0.62380385  1
  Mo  Mo192  1  0.50062855  0.88896033  0.12526530  1
  Mo  Mo193  1  0.60404862  0.78230325  0.24537302  1
  Mo  Mo194  1  -0.01228070  0.21345040  0.25453397  1
  Mo  Mo195  1  0.70397927  0.08640210  0.62306767  1
  Mo  Mo196  1  0.60159199  0.80031321  0.75308418  1
  Mo  Mo197  1  0.19716930  0.60812937  0.24192653  1
  Mo  Mo198  1  0.90143983  0.50854382  0.87256311  1
  Mo  Mo199  1  0.19954117  0.79524768  0.01000635  1
