# generated using pymatgen
data_HfZrTaTiMo
_symmetry_space_group_name_H-M   'P 1'
_cell_length_a   15.19720657
_cell_length_b   15.18259552
_cell_length_c   16.80738266
_cell_angle_alpha   90.00097382
_cell_angle_beta   89.94889720
_cell_angle_gamma   89.97613123
_symmetry_Int_Tables_number   1
_chemical_formula_structural   HfZrTaTiMo
_chemical_formula_sum   'Hf40 Zr40 Ta40 Ti40 Mo40'
_cell_volume   3878.01662186
_cell_formula_units_Z   40
loop_
 _symmetry_equiv_pos_site_id
 _symmetry_equiv_pos_as_xyz
  1  'x, y, z'
loop_
 _atom_site_type_symbol
 _atom_site_label
 _atom_site_symmetry_multiplicity
 _atom_site_fract_x
 _atom_site_fract_y
 _atom_site_fract_z
 _atom_site_occupancy
  Hf  Hf0  1  -0.02267099  0.79118317  0.73391252  1
  Hf  Hf1  1  0.28735894  0.48128747  0.36058920  1
  Hf  Hf2  1  0.19606692  0.80655904  0.01724830  1
  Hf  Hf3  1  0.89633182  0.89272711  0.88429181  1
  Hf  Hf4  1  0.41075963  0.60348058  0.00237244  1
  Hf  Hf5  1  0.20148248  0.60113666  0.01607588  1
  Hf  Hf6  1  0.51431492  0.70322707  0.14232596  1
  Hf  Hf7  1  0.09622258  0.50610391  0.88324276  1
  Hf  Hf8  1  0.10112290  0.89970312  0.62389390  1
  Hf  Hf9  1  0.09809675  0.10803323  0.63174388  1
  Hf  Hf10  1  0.30572702  0.12419644  0.36397457  1
  Hf  Hf11  1  0.42117094  0.00730651  0.25764800  1
  Hf  Hf12  1  0.50760456  0.29734694  0.88199155  1
  Hf  Hf13  1  0.71259355  0.91771904  0.60018243  1
  Hf  Hf14  1  0.30341046  0.70798642  0.87940215  1
  Hf  Hf15  1  0.59936614  0.79195262  -0.00099166  1
  Hf  Hf16  1  -0.00938115  0.39603983  0.75980415  1
  Hf  Hf17  1  0.61164063  0.20684592  0.01814800  1
  Hf  Hf18  1  0.30152160  0.89175243  0.62123301  1
  Hf  Hf19  1  0.79993594  0.00172792  0.00396919  1
  Hf  Hf20  1  0.10797756  0.49175284  0.63056392  1
  Hf  Hf21  1  0.69741243  0.30263060  0.36033375  1
  Hf  Hf22  1  0.30214194  0.11399160  0.87964424  1
  Hf  Hf23  1  0.41791031  0.19266592  0.74468824  1
  Hf  Hf24  1  0.40459816  0.39933622  0.76019757  1
  Hf  Hf25  1  0.50759852  0.09771598  0.88581069  1
  Hf  Hf26  1  0.59850388  -0.00405988  0.00917723  1
  Hf  Hf27  1  0.40512316  -0.00845040  0.74233272  1
  Hf  Hf28  1  0.90340360  0.69535635  0.88155047  1
  Hf  Hf29  1  0.41446726  0.18952821  0.50627881  1
  Hf  Hf30  1  0.59205433  0.18691701  0.23402479  1
  Hf  Hf31  1  0.39798889  -0.00416103  0.48736887  1
  Hf  Hf32  1  0.79896570  0.18953896  0.75703252  1
  Hf  Hf33  1  0.09884493  0.69346653  0.38124229  1
  Hf  Hf34  1  0.78778268  0.59609386  0.00898667  1
  Hf  Hf35  1  0.60939525  0.80720459  0.74174196  1
  Hf  Hf36  1  0.41279525  0.59497353  0.75289546  1
  Hf  Hf37  1  0.29891178  0.90396193  0.87765417  1
  Hf  Hf38  1  0.60446617  0.02483929  0.73853725  1
  Hf  Hf39  1  0.90951522  0.29470236  0.36230914  1
  Zr  Zr40  1  0.20143460  0.60527936  0.75691816  1
  Zr  Zr41  1  0.79864416  0.61567922  0.73690061  1
  Zr  Zr42  1  0.10305987  0.29338536  0.64376085  1
  Zr  Zr43  1  0.49998390  0.89304349  0.87105980  1
  Zr  Zr44  1  0.68242381  0.49885742  0.61962513  1
  Zr  Zr45  1  0.79144459  0.59314617  0.48735191  1
  Zr  Zr46  1  -0.00955780  0.00290520  0.74884495  1
  Zr  Zr47  1  0.79682465  0.60172143  0.26104501  1
  Zr  Zr48  1  0.01252783  0.39266993  0.49873554  1
  Zr  Zr49  1  0.39217105  0.39954438  0.00251660  1
  Zr  Zr50  1  0.69807659  0.11014445  0.38004218  1
  Zr  Zr51  1  0.10230328  0.28280598  0.87092235  1
  Zr  Zr52  1  0.69709135  0.71499642  0.60084794  1
  Zr  Zr53  1  0.52891178  0.30046543  0.62351505  1
  Zr  Zr54  1  0.89959387  0.50259484  0.61869264  1
  Zr  Zr55  1  0.59972029  0.41441940  0.00493309  1
  Zr  Zr56  1  0.69473270  0.88357589  0.13634763  1
  Zr  Zr57  1  0.19729926  0.01135555  0.49428392  1
  Zr  Zr58  1  0.90424070  0.49359192  0.37477801  1
  Zr  Zr59  1  0.10045297  0.10850099  0.36695864  1
  Zr  Zr60  1  0.38610110  0.38904021  0.49246828  1
  Zr  Zr61  1  0.00013128  0.38679721  0.00561811  1
  Zr  Zr62  1  0.20057456  0.21077096  0.01396037  1
  Zr  Zr63  1  0.90123593  0.09668394  0.36534000  1
  Zr  Zr64  1  0.40166397  0.79152226  0.48145131  1
  Zr  Zr65  1  0.88478389  0.49533032  0.87513738  1
  Zr  Zr66  1  0.29621296  0.29666089  0.63251605  1
  Zr  Zr67  1  0.79186403  0.39322487  0.00790259  1
  Zr  Zr68  1  0.89506831  0.28736405  0.62775580  1
  Zr  Zr69  1  0.19212003  0.59981575  0.23603340  1
  Zr  Zr70  1  0.49886944  0.69007476  0.61208241  1
  Zr  Zr71  1  0.79866897  0.79489954  0.26579550  1
  Zr  Zr72  1  0.70226924  0.91146364  0.39099641  1
  Zr  Zr73  1  0.30464775  0.50050296  0.62318536  1
  Zr  Zr74  1  0.19563253  0.79840149  0.24187199  1
  Zr  Zr75  1  0.90863582  0.88710399  0.11865402  1
  Zr  Zr76  1  0.69630625  0.13232689  0.60568670  1
  Zr  Zr77  1  0.20157954  0.00446130  0.24292125  1
  Zr  Zr78  1  0.09274896  0.69032826  0.61006042  1
  Zr  Zr79  1  0.09899828  0.88873443  0.87164290  1
  Ta  Ta80  1  0.40782529  0.20043160  0.02184539  1
  Ta  Ta81  1  0.01112852  -0.00426320  0.00622961  1
  Ta  Ta82  1  0.51240493  0.69155515  0.86789070  1
  Ta  Ta83  1  0.90849571  0.70219869  0.38994518  1
  Ta  Ta84  1  0.80037560  -0.00034433  0.24455774  1
  Ta  Ta85  1  0.20893016  0.39638951  0.77076960  1
  Ta  Ta86  1  0.29156258  0.89880656  0.36653346  1
  Ta  Ta87  1  0.58676608  0.40202534  0.25009698  1
  Ta  Ta88  1  0.70389251  0.70670241  0.86680705  1
  Ta  Ta89  1  0.49565349  0.50375786  0.13934005  1
  Ta  Ta90  1  0.49564982  0.49517366  0.38169382  1
  Ta  Ta91  1  0.20115502  0.58370292  0.49256740  1
  Ta  Ta92  1  0.31183840  0.89992326  0.13254552  1
  Ta  Ta93  1  0.40330589  0.21179998  0.23232174  1
  Ta  Ta94  1  0.09512413  0.10403594  0.12347558  1
  Ta  Ta95  1  0.60300746  0.60236645  0.27488868  1
  Ta  Ta96  1  0.29641110  0.69410519  0.61319918  1
  Ta  Ta97  1  0.40465520  0.80322183  0.00891937  1
  Ta  Ta98  1  -0.00215509  0.79433005  0.25564392  1
  Ta  Ta99  1  0.10026141  0.09282700  0.87918336  1
  Ta  Ta100  1  0.78441862  0.38111416  0.49615031  1
  Ta  Ta101  1  0.49079604  0.29082070  0.36847170  1
  Ta  Ta102  1  0.59919647  0.41048032  0.76014456  1
  Ta  Ta103  1  -0.00636821  -0.00205111  0.50451789  1
  Ta  Ta104  1  -0.00188645  0.59793576  0.24017087  1
  Ta  Ta105  1  0.29753099  0.09929569  0.62837743  1
  Ta  Ta106  1  0.09101582  0.89797020  0.37770278  1
  Ta  Ta107  1  0.40347393  0.59903033  0.26111579  1
  Ta  Ta108  1  0.20410987  0.00331056  0.01333546  1
  Ta  Ta109  1  -0.00495123  0.59796629  0.01573013  1
  Ta  Ta110  1  0.39815743  -0.00101162  0.01108089  1
  Ta  Ta111  1  0.90441916  0.09982005  0.12775646  1
  Ta  Ta112  1  0.59357485  0.80229701  0.27824789  1
  Ta  Ta113  1  0.79141281  0.79047677  0.00262649  1
  Ta  Ta114  1  0.90563070  0.29471733  0.13627027  1
  Ta  Ta115  1  0.20355546  0.00372159  0.75050934  1
  Ta  Ta116  1  0.51001648  0.89833315  0.61099668  1
  Ta  Ta117  1  0.79724824  -0.01264793  0.74998242  1
  Ta  Ta118  1  0.00184479  -0.00990337  0.24099112  1
  Ta  Ta119  1  0.00319508  0.19306135  0.49732489  1
  Ti  Ti120  1  0.07905374  0.71007677  0.12135494  1
  Ti  Ti121  1  0.19902528  0.40402977  0.00642889  1
  Ti  Ti122  1  0.00012527  0.59895110  0.74995768  1
  Ti  Ti123  1  0.80222118  0.19701472  0.23926772  1
  Ti  Ti124  1  0.30293390  0.49991316  0.88249447  1
  Ti  Ti125  1  0.49797038  0.50089584  0.60110188  1
  Ti  Ti126  1  0.11756903  0.30360030  0.36428563  1
  Ti  Ti127  1  0.68476962  0.51483732  0.86733904  1
  Ti  Ti128  1  0.09321330  0.49494930  0.36928800  1
  Ti  Ti129  1  0.88691086  0.69601796  0.12558224  1
  Ti  Ti130  1  0.58362132  0.02212107  0.49694160  1
  Ti  Ti131  1  0.20003463  0.80089538  0.49284069  1
  Ti  Ti132  1  -0.00669339  0.80241212  0.50559265  1
  Ti  Ti133  1  0.70436368  0.09167292  0.12974240  1
  Ti  Ti134  1  0.90685281  0.09827342  0.88461882  1
  Ti  Ti135  1  0.69080499  0.51337224  0.13999757  1
  Ti  Ti136  1  0.19956938  0.79640537  0.74572659  1
  Ti  Ti137  1  0.89186202  0.09043291  0.61838156  1
  Ti  Ti138  1  0.17918335  0.39458534  0.23137322  1
  Ti  Ti139  1  0.29963481  0.31011362  0.13681695  1
  Ti  Ti140  1  0.50054178  0.90052603  0.13683210  1
  Ti  Ti141  1  0.80005688  0.40505444  0.24750984  1
  Ti  Ti142  1  0.20419206  0.21997811  0.49650848  1
  Ti  Ti143  1  0.30639181  0.10138772  0.13055625  1
  Ti  Ti144  1  0.39923731  0.79143000  0.74150979  1
  Ti  Ti145  1  0.40118186  0.80070978  0.26578045  1
  Ti  Ti146  1  0.29676685  0.68951912  0.37456070  1
  Ti  Ti147  1  0.09655127  0.70121011  0.88480089  1
  Ti  Ti148  1  0.89564594  0.28533015  0.87804352  1
  Ti  Ti149  1  0.90316493  0.49386459  0.13315627  1
  Ti  Ti150  1  0.30256244  0.50020497  0.13546634  1
  Ti  Ti151  1  0.60123660  0.60350508  0.00339234  1
  Ti  Ti152  1  0.70098195  0.90328700  0.87304656  1
  Ti  Ti153  1  0.90428331  0.90320313  0.37832315  1
  Ti  Ti154  1  0.01652291  0.20705712  0.24065596  1
  Ti  Ti155  1  0.80802990  0.20175700  0.00720871  1
  Ti  Ti156  1  0.70447049  0.10834504  0.88207308  1
  Ti  Ti157  1  0.70151832  0.30924513  0.13933027  1
  Ti  Ti158  1  0.78317806  0.39065648  0.75580522  1
  Ti  Ti159  1  0.31695639  0.70230673  0.13247955  1
  Mo  Mo160  1  0.69219898  0.48975808  0.37003943  1
  Mo  Mo161  1  0.00393176  0.59828736  0.49687377  1
  Mo  Mo162  1  0.39799388  0.40317773  0.24780208  1
  Mo  Mo163  1  0.80988905  0.80688650  0.48650944  1
  Mo  Mo164  1  0.50409484  0.50808525  0.87785043  1
  Mo  Mo165  1  0.49949237  0.09200414  0.62045533  1
  Mo  Mo166  1  0.69523700  0.70240590  0.39418916  1
  Mo  Mo167  1  0.60954571  -0.00583724  0.24627422  1
  Mo  Mo168  1  0.38832684  0.59427867  0.48291600  1
  Mo  Mo169  1  0.79794132  0.81074269  0.74739175  1
  Mo  Mo170  1  0.09656760  0.30071385  0.12299968  1
  Mo  Mo171  1  -0.00508006  0.18779628  0.76058225  1
  Mo  Mo172  1  0.69391140  0.69206876  0.13300875  1
  Mo  Mo173  1  0.49913092  0.09322042  0.11734268  1
  Mo  Mo174  1  0.30359070  0.30246531  0.87988358  1
  Mo  Mo175  1  0.58782645  0.60144169  0.47650109  1
  Mo  Mo176  1  0.20193803  0.20671057  0.22928082  1
  Mo  Mo177  1  0.70773490  0.31434368  0.62926894  1
  Mo  Mo178  1  0.60078576  0.60166848  0.74698234  1
  Mo  Mo179  1  -0.01192497  0.18725574  0.00426528  1
  Mo  Mo180  1  0.20888694  0.18911114  0.75879068  1
  Mo  Mo181  1  0.00016012  0.40336690  0.24247901  1
  Mo  Mo182  1  0.50670740  0.11000337  0.37153051  1
  Mo  Mo183  1  0.89357350  0.70826248  0.59952785  1
  Mo  Mo184  1  0.29233468  0.29762622  0.35601469  1
  Mo  Mo185  1  0.61649820  0.21774713  0.76437959  1
  Mo  Mo186  1  0.10095042  0.90276894  0.12430134  1
  Mo  Mo187  1  0.81519183  0.20761335  0.49441197  1
  Mo  Mo188  1  -0.00415871  0.78895190  0.00294419  1
  Mo  Mo189  1  0.49380132  0.69717845  0.37200979  1
  Mo  Mo190  1  0.50096588  0.90831118  0.37486480  1
  Mo  Mo191  1  0.09462614  0.50209899  0.11853505  1
  Mo  Mo192  1  0.19225770  0.39281949  0.49295028  1
  Mo  Mo193  1  0.49991626  0.30796474  0.12647277  1
  Mo  Mo194  1  0.89613728  0.90091664  0.61744702  1
  Mo  Mo195  1  0.60617419  0.22233284  0.49039924  1
  Mo  Mo196  1  0.59735093  0.39967033  0.48596450  1
  Mo  Mo197  1  0.59361387  0.81109642  0.48277197  1
  Mo  Mo198  1  0.70693617  0.30028535  0.87735656  1
  Mo  Mo199  1  0.81374222  0.01325836  0.49771233  1
