# generated using pymatgen
data_HfZrTaTiMo
_symmetry_space_group_name_H-M   'P 1'
_cell_length_a   15.21045529
_cell_length_b   15.21194078
_cell_length_c   16.84940554
_cell_angle_alpha   89.94245635
_cell_angle_beta   90.00227690
_cell_angle_gamma   90.17921321
_symmetry_Int_Tables_number   1
_chemical_formula_structural   HfZrTaTiMo
_chemical_formula_sum   'Hf40 Zr40 Ta40 Ti40 Mo40'
_cell_volume   3898.60359932
_cell_formula_units_Z   40
loop_
 _symmetry_equiv_pos_site_id
 _symmetry_equiv_pos_as_xyz
  1  'x, y, z'
loop_
 _atom_site_type_symbol
 _atom_site_label
 _atom_site_symmetry_multiplicity
 _atom_site_fract_x
 _atom_site_fract_y
 _atom_site_fract_z
 _atom_site_occupancy
  Hf  Hf0  1  0.89856217  0.10190771  0.63765345  1
  Hf  Hf1  1  0.68463268  0.48767001  0.37273232  1
  Hf  Hf2  1  0.11244270  0.30637651  0.13270012  1
  Hf  Hf3  1  0.80885248  0.19392686  -0.00068870  1
  Hf  Hf4  1  0.49534151  0.30324366  0.37009959  1
  Hf  Hf5  1  0.39312661  0.58959246  0.23076079  1
  Hf  Hf6  1  0.60340459  0.20328583  0.24746557  1
  Hf  Hf7  1  0.69096083  0.48216582  0.87750099  1
  Hf  Hf8  1  0.59307474  0.37115078  0.51902674  1
  Hf  Hf9  1  0.61259580  0.80712404  0.23456383  1
  Hf  Hf10  1  0.48681918  0.49809572  0.62985431  1
  Hf  Hf11  1  0.79571491  0.59609419  0.50496797  1
  Hf  Hf12  1  0.00128901  -0.01632094  0.25069200  1
  Hf  Hf13  1  -0.00158972  0.39064983  -0.00180804  1
  Hf  Hf14  1  0.70102135  0.90061128  0.37439071  1
  Hf  Hf15  1  0.90683026  0.29022851  0.86672464  1
  Hf  Hf16  1  0.70697347  0.68947897  0.36555586  1
  Hf  Hf17  1  0.29962059  0.69572642  0.36157854  1
  Hf  Hf18  1  0.29251590  0.71406229  0.12331806  1
  Hf  Hf19  1  0.61266424  0.79217515  0.01098877  1
  Hf  Hf20  1  0.89830797  0.29509954  0.13076624  1
  Hf  Hf21  1  0.89976356  0.08945501  0.13340899  1
  Hf  Hf22  1  0.30780176  0.91316377  0.37952921  1
  Hf  Hf23  1  0.21581923  0.00429113  0.76314540  1
  Hf  Hf24  1  0.09677252  0.90388695  0.87363127  1
  Hf  Hf25  1  0.21636404  0.01497858  -0.02031319  1
  Hf  Hf26  1  0.22202002  0.60682144  0.50443168  1
  Hf  Hf27  1  0.20046376  0.02654619  0.25253614  1
  Hf  Hf28  1  0.00159294  0.40009310  0.75037376  1
  Hf  Hf29  1  0.11286499  0.31187491  0.37130028  1
  Hf  Hf30  1  0.00593279  0.58752948  0.51142024  1
  Hf  Hf31  1  -0.01375646  0.00457778  -0.00784817  1
  Hf  Hf32  1  0.68728553  0.68733450  0.63296132  1
  Hf  Hf33  1  0.79565558  0.58685287  0.00459448  1
  Hf  Hf34  1  0.51010277  0.29921601  0.12069248  1
  Hf  Hf35  1  0.58253761  -0.01035335  0.01333315  1
  Hf  Hf36  1  0.50595527  0.69614002  0.36098052  1
  Hf  Hf37  1  0.30006152  0.11328125  0.62795412  1
  Hf  Hf38  1  0.10107524  0.70136227  0.87385843  1
  Hf  Hf39  1  0.59541369  0.18413022  0.75456145  1
  Zr  Zr40  1  0.90459435  0.90890141  0.63342211  1
  Zr  Zr41  1  0.19685686  0.21763027  -0.02267776  1
  Zr  Zr42  1  0.10103878  0.29656111  0.62803761  1
  Zr  Zr43  1  0.00935461  0.80119045  0.51044609  1
  Zr  Zr44  1  0.59717488  0.19518238  -0.00446809  1
  Zr  Zr45  1  0.59884105  0.38285102  0.73731457  1
  Zr  Zr46  1  0.69679804  0.89355547  0.87342471  1
  Zr  Zr47  1  0.48876237  0.50016796  0.37031046  1
  Zr  Zr48  1  0.39619032  0.79380121  0.49797069  1
  Zr  Zr49  1  0.89504386  0.29346500  0.63275684  1
  Zr  Zr50  1  0.11875767  0.69860649  0.64199216  1
  Zr  Zr51  1  0.19692039  0.21291329  0.76396871  1
  Zr  Zr52  1  0.69895762  0.10209701  0.13002734  1
  Zr  Zr53  1  0.19698945  0.21257136  0.50243238  1
  Zr  Zr54  1  0.39183597  0.60182315  0.00167646  1
  Zr  Zr55  1  0.10109248  0.90490868  0.38312229  1
  Zr  Zr56  1  0.70102816  0.68618413  0.87458649  1
  Zr  Zr57  1  0.88880353  0.08939631  0.85485582  1
  Zr  Zr58  1  0.59307709  0.79158433  0.74716830  1
  Zr  Zr59  1  0.79466992  0.19622035  0.49667310  1
  Zr  Zr60  1  0.50589936  0.69631924  0.12340418  1
  Zr  Zr61  1  0.50046685  0.09511679  0.38607807  1
  Zr  Zr62  1  0.59767536  0.79054843  0.50338581  1
  Zr  Zr63  1  0.19691227  0.81657382  0.24522843  1
  Zr  Zr64  1  0.09351652  0.50988236  0.36828390  1
  Zr  Zr65  1  0.38190040  0.41145894  0.50689195  1
  Zr  Zr66  1  0.08730972  0.71000544  0.10962817  1
  Zr  Zr67  1  0.40304297  0.00799573  0.23658464  1
  Zr  Zr68  1  0.01648309  0.19262277  0.26193049  1
  Zr  Zr69  1  0.10256952  0.90418972  0.10547932  1
  Zr  Zr70  1  0.10601130  0.49622364  0.86901909  1
  Zr  Zr71  1  0.79747244  0.39967768  0.50937568  1
  Zr  Zr72  1  0.90074470  0.68984214  0.63552966  1
  Zr  Zr73  1  0.49792050  0.08666957  0.61400061  1
  Zr  Zr74  1  0.89974259  0.09233169  0.37225806  1
  Zr  Zr75  1  0.10247602  0.10942075  0.11171682  1
  Zr  Zr76  1  0.80086219  0.79941516  0.50624772  1
  Zr  Zr77  1  0.41092769  0.40810253  0.00554820  1
  Zr  Zr78  1  0.21297617  0.41405317  0.00238727  1
  Zr  Zr79  1  0.88991879  0.49890155  0.36752856  1
  Ta  Ta80  1  0.40502357  0.81698790  0.75410293  1
  Ta  Ta81  1  0.89857790  0.89137889  0.37884451  1
  Ta  Ta82  1  0.31671103  0.90796792  0.62678167  1
  Ta  Ta83  1  0.28718190  0.48788672  0.36323401  1
  Ta  Ta84  1  0.81438314  0.79387838  0.24632317  1
  Ta  Ta85  1  0.21430532  0.80512958  -0.01469902  1
  Ta  Ta86  1  0.00358965  0.80221705  0.75086544  1
  Ta  Ta87  1  0.30068261  0.11847151  0.38570328  1
  Ta  Ta88  1  0.49319936  0.70191027  0.88238409  1
  Ta  Ta89  1  0.69532017  0.09442696  0.37154777  1
  Ta  Ta90  1  0.47484254  0.69168754  0.63016834  1
  Ta  Ta91  1  0.80072858  0.79472987  0.74662012  1
  Ta  Ta92  1  0.38458664  0.38931324  0.23301331  1
  Ta  Ta93  1  0.89946522  0.88458899  0.11883085  1
  Ta  Ta94  1  0.90095945  0.69517038  0.86980553  1
  Ta  Ta95  1  0.50423809  0.90043400  0.37029077  1
  Ta  Ta96  1  0.40680935  0.21412550  0.50758069  1
  Ta  Ta97  1  0.11371950  0.90760274  0.63715999  1
  Ta  Ta98  1  0.19355196  0.41650601  0.51120907  1
  Ta  Ta99  1  0.89618965  0.88928013  0.86668871  1
  Ta  Ta100  1  0.10133006  0.70198107  0.37577892  1
  Ta  Ta101  1  0.69159269  0.90639063  0.62735519  1
  Ta  Ta102  1  0.00090762  0.39159329  0.50420178  1
  Ta  Ta103  1  0.57948625  -0.01360696  0.75037092  1
  Ta  Ta104  1  0.20148881  0.60548692  -0.00316309  1
  Ta  Ta105  1  0.69169455  0.09019831  0.87568035  1
  Ta  Ta106  1  0.09310381  0.50852080  0.12448172  1
  Ta  Ta107  1  0.90981349  0.69795153  0.37467633  1
  Ta  Ta108  1  0.90298645  0.30395486  0.37198940  1
  Ta  Ta109  1  0.09219558  0.09639947  0.63737930  1
  Ta  Ta110  1  0.50606977  0.30736708  0.87811128  1
  Ta  Ta111  1  -0.00545650  0.40665325  0.24378615  1
  Ta  Ta112  1  0.39952887  0.19998674  0.24679465  1
  Ta  Ta113  1  0.40520750  0.80949016  0.24395330  1
  Ta  Ta114  1  0.31048847  0.32860438  0.86025306  1
  Ta  Ta115  1  0.70846008  0.29052173  0.87322650  1
  Ta  Ta116  1  0.58147053  0.58606843  0.75770967  1
  Ta  Ta117  1  0.20350473  0.00505092  0.50863970  1
  Ta  Ta118  1  0.78871129  -0.01326915  0.00223489  1
  Ta  Ta119  1  0.00699560  0.01707683  0.50152093  1
  Ti  Ti120  1  0.71440148  0.69181552  0.12700029  1
  Ti  Ti121  1  -0.00458851  0.59546773  0.75106828  1
  Ti  Ti122  1  0.30529457  0.91599293  0.11298560  1
  Ti  Ti123  1  -0.00721634  0.60553372  0.24421414  1
  Ti  Ti124  1  -0.00402682  0.59825485  -0.00532990  1
  Ti  Ti125  1  0.69803681  0.10162542  0.62336098  1
  Ti  Ti126  1  0.58898284  0.57412578  0.00550372  1
  Ti  Ti127  1  -0.00108270  0.79262631  0.25273350  1
  Ti  Ti128  1  0.40461516  0.20515262  0.75613829  1
  Ti  Ti129  1  0.48483756  0.08231177  0.87608971  1
  Ti  Ti130  1  0.60141521  -0.00531593  0.50120757  1
  Ti  Ti131  1  0.30327800  0.12178292  0.11759810  1
  Ti  Ti132  1  0.70050632  0.49443039  0.63023496  1
  Ti  Ti133  1  0.79813115  0.58690500  0.75018019  1
  Ti  Ti134  1  0.41158180  0.82014430  0.00329905  1
  Ti  Ti135  1  0.78100823  -0.00381023  0.74676052  1
  Ti  Ti136  1  0.80003577  0.20048167  0.25742792  1
  Ti  Ti137  1  0.90293482  0.69409111  0.11888317  1
  Ti  Ti138  1  0.78068164  0.39412435  0.24325832  1
  Ti  Ti139  1  0.30015540  0.52715966  0.65077056  1
  Ti  Ti140  1  0.22201885  0.22326553  0.25603481  1
  Ti  Ti141  1  0.08121306  0.11408192  0.86779749  1
  Ti  Ti142  1  0.89095861  0.49548810  0.87787592  1
  Ti  Ti143  1  0.79844301  -0.00280834  0.50204834  1
  Ti  Ti144  1  0.79676549  0.39493657  0.74312235  1
  Ti  Ti145  1  0.81175497  0.79363048  0.00058500  1
  Ti  Ti146  1  0.39545070  0.19915546  -0.01028659  1
  Ti  Ti147  1  0.58441288  0.59103516  0.50437826  1
  Ti  Ti148  1  0.60672953  0.58047054  0.23283761  1
  Ti  Ti149  1  0.80262817  0.59252721  0.23986846  1
  Ti  Ti150  1  0.10816026  0.50062105  0.63955754  1
  Ti  Ti151  1  0.18890277  0.60193830  0.24028347  1
  Ti  Ti152  1  0.79220988  -0.01556774  0.24584675  1
  Ti  Ti153  1  0.59561749  -0.00138741  0.23718367  1
  Ti  Ti154  1  0.69821664  0.29339713  0.37540651  1
  Ti  Ti155  1  0.33091684  0.91366657  0.87885768  1
  Ti  Ti156  1  0.20462858  0.80528456  0.50801474  1
  Ti  Ti157  1  0.89302949  0.49263715  0.12298748  1
  Ti  Ti158  1  0.21907978  0.79969249  0.76220378  1
  Ti  Ti159  1  0.30718190  0.32421790  0.64603605  1
  Mo  Mo160  1  0.09977102  0.30526544  0.87080195  1
  Mo  Mo161  1  0.39864679  0.61952011  0.76538834  1
  Mo  Mo162  1  0.48337358  0.28468100  0.63143271  1
  Mo  Mo163  1  0.49612264  0.89746093  0.12963932  1
  Mo  Mo164  1  0.00033618  0.19756028  -0.00038242  1
  Mo  Mo165  1  0.59555931  0.39850022  0.24719496  1
  Mo  Mo166  1  0.71056159  0.30768223  0.12314735  1
  Mo  Mo167  1  0.20653461  0.41245783  0.74367781  1
  Mo  Mo168  1  0.30619526  0.51916709  0.86046081  1
  Mo  Mo169  1  0.40830673  0.41220272  0.75657571  1
  Mo  Mo170  1  0.50113476  0.89448089  0.88032054  1
  Mo  Mo171  1  0.50025429  0.89439088  0.61894221  1
  Mo  Mo172  1  0.19987153  0.41184952  0.23849773  1
  Mo  Mo173  1  0.79890019  0.39297018  0.00101938  1
  Mo  Mo174  1  0.39797344  0.60251067  0.49852278  1
  Mo  Mo175  1  0.39947318  0.01110154  0.01098080  1
  Mo  Mo176  1  0.90002904  0.49694518  0.63320536  1
  Mo  Mo177  1  0.69901329  0.48615078  0.12191824  1
  Mo  Mo178  1  0.69688145  0.28235820  0.63359037  1
  Mo  Mo179  1  0.78268659  0.19845919  0.75031752  1
  Mo  Mo180  1  0.49615619  0.49683585  0.87101951  1
  Mo  Mo181  1  0.71322275  0.89379617  0.12494313  1
  Mo  Mo182  1  0.50465855  0.49272682  0.13266901  1
  Mo  Mo183  1  0.11173051  0.10073175  0.38338331  1
  Mo  Mo184  1  0.20554665  0.60862787  0.75976755  1
  Mo  Mo185  1  0.30512845  0.29348392  0.11893684  1
  Mo  Mo186  1  0.61074624  0.39542702  -0.00420545  1
  Mo  Mo187  1  0.00484287  -0.00583119  0.75333576  1
  Mo  Mo188  1  0.48886840  0.10496752  0.12275863  1
  Mo  Mo189  1  0.30222961  0.71418003  0.63435001  1
  Mo  Mo190  1  0.60368410  0.19333408  0.49833632  1
  Mo  Mo191  1  0.40517483  0.00736723  0.75024153  1
  Mo  Mo192  1  0.31437473  0.11532129  0.86991339  1
  Mo  Mo193  1  0.30475967  0.71736577  0.88200913  1
  Mo  Mo194  1  0.28649251  0.50176377  0.12880313  1
  Mo  Mo195  1  -0.00843422  0.79610650  -0.01243281  1
  Mo  Mo196  1  0.00014687  0.20153935  0.48894623  1
  Mo  Mo197  1  -0.00029729  0.19535245  0.75058127  1
  Mo  Mo198  1  0.30593423  0.30944538  0.37671243  1
  Mo  Mo199  1  0.39395881  -0.00004209  0.49627691  1
