# generated using pymatgen
data_HfZrTaTiMo
_symmetry_space_group_name_H-M   'P 1'
_cell_length_a   15.21916744
_cell_length_b   15.21503499
_cell_length_c   16.86408941
_cell_angle_alpha   90.03002554
_cell_angle_beta   90.03520205
_cell_angle_gamma   90.01506097
_symmetry_Int_Tables_number   1
_chemical_formula_structural   HfZrTaTiMo
_chemical_formula_sum   'Hf40 Zr40 Ta40 Ti40 Mo40'
_cell_volume   3905.04992240
_cell_formula_units_Z   40
loop_
 _symmetry_equiv_pos_site_id
 _symmetry_equiv_pos_as_xyz
  1  'x, y, z'
loop_
 _atom_site_type_symbol
 _atom_site_label
 _atom_site_symmetry_multiplicity
 _atom_site_fract_x
 _atom_site_fract_y
 _atom_site_fract_z
 _atom_site_occupancy
  Hf  Hf0  1  0.31009105  0.67165573  0.61579567  1
  Hf  Hf1  1  0.00803676  0.00070932  0.50683459  1
  Hf  Hf2  1  0.09203854  0.70658186  0.37302311  1
  Hf  Hf3  1  0.30243371  0.29826971  0.88130163  1
  Hf  Hf4  1  0.11360027  0.51187094  0.62640384  1
  Hf  Hf5  1  0.59214882  0.60629679  0.00810735  1
  Hf  Hf6  1  0.68451852  0.09213815  0.60403182  1
  Hf  Hf7  1  0.79833646  0.60253803  0.48774947  1
  Hf  Hf8  1  0.90673577  0.09740835  0.87572119  1
  Hf  Hf9  1  0.80508953  0.79389089  0.25137123  1
  Hf  Hf10  1  0.29575290  0.89263040  0.87120054  1
  Hf  Hf11  1  -0.00005500  0.80377790  0.75036338  1
  Hf  Hf12  1  0.80879157  0.00475401  0.26104832  1
  Hf  Hf13  1  -0.00901858  0.38948877  0.24507565  1
  Hf  Hf14  1  0.09121011  0.50323267  0.11949996  1
  Hf  Hf15  1  0.67268009  0.50220353  0.86473929  1
  Hf  Hf16  1  0.59334099  0.60411298  0.48555573  1
  Hf  Hf17  1  0.70539834  0.10488482  0.88118129  1
  Hf  Hf18  1  0.48694276  0.68189006  0.87599464  1
  Hf  Hf19  1  0.30154036  0.50178161  0.13891027  1
  Hf  Hf20  1  0.79363548  0.38962373  -0.00941009  1
  Hf  Hf21  1  0.56699931  0.59976750  0.73217288  1
  Hf  Hf22  1  0.30270190  0.28816077  0.36947163  1
  Hf  Hf23  1  0.90120242  0.29788782  0.39193027  1
  Hf  Hf24  1  0.10117385  0.28920659  0.37412137  1
  Hf  Hf25  1  0.39568761  0.81393471  0.26454201  1
  Hf  Hf26  1  0.39475476  0.01637588  0.25014116  1
  Hf  Hf27  1  0.39177241  0.79008118  0.00564411  1
  Hf  Hf28  1  0.60498461  0.00088429  0.00754685  1
  Hf  Hf29  1  0.79147629  0.20495001  0.74718121  1
  Hf  Hf30  1  0.40354749  0.41331964  0.74533633  1
  Hf  Hf31  1  0.79989190  -0.00249600  0.48001100  1
  Hf  Hf32  1  0.39911681  0.20384502  0.23650068  1
  Hf  Hf33  1  0.39483728  0.00556109  0.01132990  1
  Hf  Hf34  1  0.59232314  0.19164670  0.73849362  1
  Hf  Hf35  1  0.20988729  0.19492674  0.51298207  1
  Hf  Hf36  1  0.48837082  0.29117637  0.59788739  1
  Hf  Hf37  1  0.01489226  0.60562565  0.76178828  1
  Hf  Hf38  1  -0.00620574  0.59732012  0.24922891  1
  Hf  Hf39  1  0.00145546  0.39891989  0.76080982  1
  Zr  Zr40  1  0.50187772  0.69598817  0.14618248  1
  Zr  Zr41  1  0.89253287  0.69649632  0.63106990  1
  Zr  Zr42  1  0.89697253  0.30754610  0.60813418  1
  Zr  Zr43  1  0.69585666  0.31386554  0.39530292  1
  Zr  Zr44  1  -0.00508136  0.79289522  0.51085002  1
  Zr  Zr45  1  0.51459461  0.90129698  0.60722939  1
  Zr  Zr46  1  0.79873529  0.40091607  0.76181492  1
  Zr  Zr47  1  0.60129964  0.39836471  0.00450007  1
  Zr  Zr48  1  0.31232036  0.89742401  0.61788139  1
  Zr  Zr49  1  0.90666583  0.90106661  0.88648689  1
  Zr  Zr50  1  0.60077274  0.20279023  0.26476014  1
  Zr  Zr51  1  0.69207584  0.71055979  0.62187177  1
  Zr  Zr52  1  0.29730557  0.10314365  0.87072825  1
  Zr  Zr53  1  0.70105699  0.49958280  0.61888268  1
  Zr  Zr54  1  0.20175001  0.59071032  0.48566235  1
  Zr  Zr55  1  0.28043091  0.91322285  0.12741552  1
  Zr  Zr56  1  0.81456243  0.20618078  0.25335387  1
  Zr  Zr57  1  0.19976800  0.77962708  0.73747269  1
  Zr  Zr58  1  0.30276321  0.52384639  0.87768903  1
  Zr  Zr59  1  0.50404015  0.90084285  0.13084311  1
  Zr  Zr60  1  0.59674277  0.38872697  0.72971665  1
  Zr  Zr61  1  0.40571554  0.40718902  0.00570310  1
  Zr  Zr62  1  0.91656827  0.69970806  0.11148648  1
  Zr  Zr63  1  0.29324864  0.70678617  0.14562401  1
  Zr  Zr64  1  0.50555294  0.89130480  0.88304937  1
  Zr  Zr65  1  0.00963951  0.20119641  0.74202996  1
  Zr  Zr66  1  0.41077703  0.20350398  0.01837795  1
  Zr  Zr67  1  0.69949736  0.89767683  0.13877212  1
  Zr  Zr68  1  0.69735106  0.11079168  0.13135788  1
  Zr  Zr69  1  0.60415630  0.57391475  0.26926686  1
  Zr  Zr70  1  0.79040725  0.80114757  0.00574262  1
  Zr  Zr71  1  0.89096897  0.10076743  0.62050838  1
  Zr  Zr72  1  0.50057864  0.10355724  0.87811433  1
  Zr  Zr73  1  0.90562250  0.50390899  0.62573746  1
  Zr  Zr74  1  0.19835176  0.00327348  0.73885667  1
  Zr  Zr75  1  0.60260625  0.80466452  0.74956591  1
  Zr  Zr76  1  0.19483981  0.62481558  0.00997780  1
  Zr  Zr77  1  0.28627202  0.91735169  0.38351282  1
  Zr  Zr78  1  0.19827394  0.40165148  0.75814666  1
  Zr  Zr79  1  0.79323079  0.59496000  -0.00515249  1
  Ta  Ta80  1  0.19104411  0.59988963  0.25549131  1
  Ta  Ta81  1  0.60335716  0.80455530  0.47012679  1
  Ta  Ta82  1  0.09969159  0.10130556  0.87764885  1
  Ta  Ta83  1  0.29073364  0.70350161  0.36613238  1
  Ta  Ta84  1  -0.00021109  -0.00095735  0.74218457  1
  Ta  Ta85  1  0.89086687  0.49209306  0.11759345  1
  Ta  Ta86  1  0.51070503  0.30590986  0.87151875  1
  Ta  Ta87  1  0.81261038  0.00602206  0.01479782  1
  Ta  Ta88  1  0.79521037  -0.00616231  0.74908692  1
  Ta  Ta89  1  0.69966734  0.29105382  0.59217460  1
  Ta  Ta90  1  0.88818743  0.89847853  0.62672290  1
  Ta  Ta91  1  0.19741928  0.79529084  0.50933064  1
  Ta  Ta92  1  0.91361555  0.89445740  0.37227205  1
  Ta  Ta93  1  0.09818517  0.48973956  0.36961122  1
  Ta  Ta94  1  0.40680272  0.78626846  0.74232693  1
  Ta  Ta95  1  0.89740857  0.49269663  0.37919475  1
  Ta  Ta96  1  0.40366099  0.79017134  0.48627924  1
  Ta  Ta97  1  0.41655650  0.00119129  0.74311104  1
  Ta  Ta98  1  0.48913941  0.69042689  0.36455452  1
  Ta  Ta99  1  0.17816646  0.81633610  0.25145850  1
  Ta  Ta100  1  0.12033642  0.09307080  0.37168721  1
  Ta  Ta101  1  0.90272127  0.29048442  0.88354473  1
  Ta  Ta102  1  0.79971227  0.80393764  0.76107009  1
  Ta  Ta103  1  0.89918247  0.69730057  0.37260070  1
  Ta  Ta104  1  0.19695005  0.39322632  0.24708499  1
  Ta  Ta105  1  0.60730891  -0.00140749  0.74894455  1
  Ta  Ta106  1  0.01363348  0.19365410  0.50771280  1
  Ta  Ta107  1  0.00670937  0.19296893  0.00622082  1
  Ta  Ta108  1  0.79216341  0.80297871  0.48149441  1
  Ta  Ta109  1  0.80142693  0.59245464  0.25350531  1
  Ta  Ta110  1  0.41725534  0.40066215  0.25216937  1
  Ta  Ta111  1  0.19651352  0.39822910  0.00281165  1
  Ta  Ta112  1  0.28867236  0.29961526  0.12688367  1
  Ta  Ta113  1  0.78818518  0.40378086  0.24953068  1
  Ta  Ta114  1  0.60241216  0.80224576  0.27588157  1
  Ta  Ta115  1  0.47409301  0.50991479  0.59592997  1
  Ta  Ta116  1  0.01391452  -0.00846830  0.24964655  1
  Ta  Ta117  1  0.39931420  0.20733881  0.74320660  1
  Ta  Ta118  1  0.08160465  0.89733284  0.10951079  1
  Ta  Ta119  1  0.30570858  0.49352795  0.36103546  1
  Ti  Ti120  1  0.11655472  0.09837327  0.12573930  1
  Ti  Ti121  1  -0.00436281  0.80273075  0.24345899  1
  Ti  Ti122  1  -0.00168858  0.39594040  -0.00094994  1
  Ti  Ti123  1  0.59598930  0.00213155  0.27308839  1
  Ti  Ti124  1  0.20237265  0.20303268  0.73787364  1
  Ti  Ti125  1  0.09740084  0.89580056  0.62448126  1
  Ti  Ti126  1  0.20063039  0.00410507  0.51555503  1
  Ti  Ti127  1  0.69685883  0.49092305  0.12945142  1
  Ti  Ti128  1  0.09779644  0.90581622  0.88570795  1
  Ti  Ti129  1  0.89928846  0.29736867  0.11883919  1
  Ti  Ti130  1  0.31780499  0.10819513  0.62873342  1
  Ti  Ti131  1  0.52225874  0.30125342  0.13263840  1
  Ti  Ti132  1  0.39729047  0.59873314  0.01087944  1
  Ti  Ti133  1  0.80018211  0.60909900  0.76635062  1
  Ti  Ti134  1  0.69166934  0.70877492  0.87687364  1
  Ti  Ti135  1  0.40041553  0.01326268  0.49575934  1
  Ti  Ti136  1  0.70690945  0.89982606  0.61755090  1
  Ti  Ti137  1  0.90882578  0.69982734  0.88765537  1
  Ti  Ti138  1  0.01441910  0.18821824  0.24490069  1
  Ti  Ti139  1  0.90485012  0.50181786  0.88428815  1
  Ti  Ti140  1  0.10077319  0.29322214  0.12107611  1
  Ti  Ti141  1  0.19154651  0.01227566  -0.00215614  1
  Ti  Ti142  1  0.69511061  0.69278786  0.13473315  1
  Ti  Ti143  1  0.10014001  0.29315580  0.88648309  1
  Ti  Ti144  1  0.50197878  0.50040694  0.13691497  1
  Ti  Ti145  1  0.59814068  -0.00030572  0.46988338  1
  Ti  Ti146  1  0.61130077  0.20939788  0.00402515  1
  Ti  Ti147  1  0.80443609  0.19947763  0.00699708  1
  Ti  Ti148  1  0.09891487  0.90161253  0.38328755  1
  Ti  Ti149  1  0.92128120  0.10235925  0.37770245  1
  Ti  Ti150  1  0.91930592  0.09074003  0.12550125  1
  Ti  Ti151  1  0.10695801  0.30521259  0.62193869  1
  Ti  Ti152  1  0.70336099  0.90410368  0.88300494  1
  Ti  Ti153  1  0.11201108  0.70884297  0.88203272  1
  Ti  Ti154  1  0.00357244  0.59735858  0.49578591  1
  Ti  Ti155  1  0.01267662  0.40483958  0.49928427  1
  Ti  Ti156  1  0.48566641  0.11307634  0.38258243  1
  Ti  Ti157  1  0.10001741  0.50557044  0.89004370  1
  Ti  Ti158  1  0.20729649  0.39466630  0.49815115  1
  Ti  Ti159  1  0.49535599  0.30995814  0.39416905  1
  Mo  Mo160  1  0.59537142  0.40534943  0.50781437  1
  Mo  Mo161  1  0.29642981  0.30487649  0.62860625  1
  Mo  Mo162  1  0.90380260  0.90819003  0.12535882  1
  Mo  Mo163  1  0.59964601  0.39159784  0.24925248  1
  Mo  Mo164  1  0.39349102  0.59812873  0.47430369  1
  Mo  Mo165  1  0.10067676  0.70680929  0.13487946  1
  Mo  Mo166  1  0.49439072  0.09027406  0.61795218  1
  Mo  Mo167  1  0.39536689  0.59432904  0.26484025  1
  Mo  Mo168  1  0.00065241  0.59327871  -0.01063293  1
  Mo  Mo169  1  0.19644398  0.19769021  0.24382475  1
  Mo  Mo170  1  0.39414553  0.19490033  0.49815456  1
  Mo  Mo171  1  0.70730763  0.49449982  0.37997613  1
  Mo  Mo172  1  0.01562325  0.79323866  -0.00471936  1
  Mo  Mo173  1  0.29971611  0.71161227  0.87314219  1
  Mo  Mo174  1  0.49821592  0.48301505  0.38944554  1
  Mo  Mo175  1  0.50383222  0.10270659  0.12639790  1
  Mo  Mo176  1  0.59319478  0.18794103  0.48545450  1
  Mo  Mo177  1  0.29873784  0.48203446  0.61835164  1
  Mo  Mo178  1  0.00515321  0.00672857  0.00404116  1
  Mo  Mo179  1  0.70309997  0.10606782  0.38159479  1
  Mo  Mo180  1  0.19470883  0.20684399  0.00057132  1
  Mo  Mo181  1  0.71266574  0.30676626  0.12883811  1
  Mo  Mo182  1  0.10566208  0.09555692  0.62875165  1
  Mo  Mo183  1  0.70502429  0.90452634  0.36143037  1
  Mo  Mo184  1  0.49498776  0.49503875  0.87279186  1
  Mo  Mo185  1  0.29668268  0.10442539  0.37796168  1
  Mo  Mo186  1  0.60419151  0.79234685  0.00071244  1
  Mo  Mo187  1  0.20325713  0.59764343  0.75629890  1
  Mo  Mo188  1  0.80538960  0.19107333  0.48888749  1
  Mo  Mo189  1  0.69689285  0.29044520  0.87342457  1
  Mo  Mo190  1  0.10144282  0.69731367  0.61965656  1
  Mo  Mo191  1  0.38869590  0.60403635  0.74230250  1
  Mo  Mo192  1  0.49343931  0.90618984  0.38140752  1
  Mo  Mo193  1  0.19052242  0.00520205  0.24776854  1
  Mo  Mo194  1  0.28999164  0.10943612  0.12050603  1
  Mo  Mo195  1  0.80760273  0.40652378  0.50184547  1
  Mo  Mo196  1  0.19508555  0.81502064  -0.00168366  1
  Mo  Mo197  1  0.49273910  0.70777223  0.60749587  1
  Mo  Mo198  1  0.70399656  0.69702676  0.36701683  1
  Mo  Mo199  1  0.38295821  0.40034153  0.49342787  1
