# generated using pymatgen
data_HfZrTaTiMo
_symmetry_space_group_name_H-M   'P 1'
_cell_length_a   15.22386727
_cell_length_b   15.19954025
_cell_length_c   16.84364591
_cell_angle_alpha   89.98817188
_cell_angle_beta   90.01142736
_cell_angle_gamma   89.97843021
_symmetry_Int_Tables_number   1
_chemical_formula_structural   HfZrTaTiMo
_chemical_formula_sum   'Hf40 Zr40 Ta40 Ti40 Mo40'
_cell_volume   3897.54820363
_cell_formula_units_Z   40
loop_
 _symmetry_equiv_pos_site_id
 _symmetry_equiv_pos_as_xyz
  1  'x, y, z'
loop_
 _atom_site_type_symbol
 _atom_site_label
 _atom_site_symmetry_multiplicity
 _atom_site_fract_x
 _atom_site_fract_y
 _atom_site_fract_z
 _atom_site_occupancy
  Hf  Hf0  1  0.20042486  0.19968163  0.24467723  1
  Hf  Hf1  1  0.69653041  0.30568327  0.36411225  1
  Hf  Hf2  1  0.20515186  0.37714665  0.51180505  1
  Hf  Hf3  1  0.30036987  0.30250882  0.88135062  1
  Hf  Hf4  1  0.61208966  0.79164114  -0.01920023  1
  Hf  Hf5  1  0.41599021  0.79662585  0.50461179  1
  Hf  Hf6  1  0.59886366  0.00010329  0.74497877  1
  Hf  Hf7  1  0.09387346  0.49998013  0.86545918  1
  Hf  Hf8  1  0.80440080  0.39287078  0.50569709  1
  Hf  Hf9  1  0.29970914  0.90770006  0.13106559  1
  Hf  Hf10  1  0.51902346  0.70734341  0.12086044  1
  Hf  Hf11  1  0.69166561  0.49226806  0.11898398  1
  Hf  Hf12  1  0.59562864  -0.00124763  0.23647314  1
  Hf  Hf13  1  0.69879337  0.27271654  0.11961601  1
  Hf  Hf14  1  0.60571283  0.59658731  0.24440573  1
  Hf  Hf15  1  0.30545785  0.30390859  0.36495791  1
  Hf  Hf16  1  0.39583084  0.21759134  0.51009921  1
  Hf  Hf17  1  0.91077900  0.50075301  0.11649977  1
  Hf  Hf18  1  0.40526541  0.00726408  -0.00045739  1
  Hf  Hf19  1  0.40511086  0.81190240  0.24751908  1
  Hf  Hf20  1  0.42053834  0.60962027  0.76646380  1
  Hf  Hf21  1  -0.00200850  0.80770569  0.73200429  1
  Hf  Hf22  1  0.68715582  0.68401428  0.63781740  1
  Hf  Hf23  1  0.19939007  0.59769769  0.74359032  1
  Hf  Hf24  1  0.70726670  0.49419144  0.64367900  1
  Hf  Hf25  1  0.60378174  0.40736962  0.50517203  1
  Hf  Hf26  1  -0.01125646  0.21643383  0.01025411  1
  Hf  Hf27  1  0.80096359  0.78594389  0.51445694  1
  Hf  Hf28  1  0.31586885  0.69724441  0.62576459  1
  Hf  Hf29  1  0.19479087  -0.00247981  0.25779603  1
  Hf  Hf30  1  0.19872044  -0.00066960  -0.00469378  1
  Hf  Hf31  1  0.80741679  0.38491942  -0.00044117  1
  Hf  Hf32  1  -0.01509823  0.20385651  0.24138402  1
  Hf  Hf33  1  0.69900676  0.08965358  0.88490286  1
  Hf  Hf34  1  0.50778101  0.11678940  0.11038805  1
  Hf  Hf35  1  0.79566195  -0.00582346  0.24456043  1
  Hf  Hf36  1  0.69782086  0.88148313  0.11624826  1
  Hf  Hf37  1  0.50830261  0.49938006  0.37013661  1
  Hf  Hf38  1  0.08571715  0.88490489  0.88193319  1
  Hf  Hf39  1  0.09774323  0.87832421  0.12355303  1
  Zr  Zr40  1  0.39969428  0.03033380  0.25782840  1
  Zr  Zr41  1  0.00569796  0.59684701  0.24711971  1
  Zr  Zr42  1  -0.01431066  0.00603725  0.24739112  1
  Zr  Zr43  1  0.39573495  0.60640816  0.23835960  1
  Zr  Zr44  1  -0.00408077  0.81518618  0.51544497  1
  Zr  Zr45  1  0.69119718  0.09546672  0.38021079  1
  Zr  Zr46  1  0.09105695  0.49188966  0.62242542  1
  Zr  Zr47  1  0.18135878  0.00011494  0.75307297  1
  Zr  Zr48  1  0.59659940  0.78839942  0.76674946  1
  Zr  Zr49  1  0.31504558  0.49712831  0.62923015  1
  Zr  Zr50  1  0.30166150  0.31148035  0.12109431  1
  Zr  Zr51  1  0.91891183  0.70015148  0.88519976  1
  Zr  Zr52  1  0.29192270  0.90408776  0.62113976  1
  Zr  Zr53  1  0.69430548  0.29124364  0.64588773  1
  Zr  Zr54  1  0.69695698  0.29249161  0.86526318  1
  Zr  Zr55  1  0.19814209  0.77647764  -0.00368282  1
  Zr  Zr56  1  -0.01056566  0.00413365  -0.00490568  1
  Zr  Zr57  1  0.40497706  0.00706848  0.74129063  1
  Zr  Zr58  1  0.90286915  0.49258265  0.37312291  1
  Zr  Zr59  1  0.69275250  0.89225110  0.62023234  1
  Zr  Zr60  1  0.21075263  0.59868709  0.50171724  1
  Zr  Zr61  1  0.40591436  0.80661101  0.00492973  1
  Zr  Zr62  1  0.30264821  0.89585818  0.86732624  1
  Zr  Zr63  1  0.70065159  0.88955249  0.38563743  1
  Zr  Zr64  1  0.50465230  0.90974087  0.37859051  1
  Zr  Zr65  1  0.19974292  0.37564983  0.73898133  1
  Zr  Zr66  1  -0.01262554  0.60013953  0.50948727  1
  Zr  Zr67  1  0.09796100  0.09715856  0.12045242  1
  Zr  Zr68  1  0.29867766  0.10995555  0.87100988  1
  Zr  Zr69  1  0.39691853  0.01467550  0.50270931  1
  Zr  Zr70  1  0.27861791  0.12200509  0.62926079  1
  Zr  Zr71  1  0.80136452  -0.00932993  0.74986507  1
  Zr  Zr72  1  -0.01201616  0.00861124  0.76049187  1
  Zr  Zr73  1  0.09062966  0.90128295  0.37592814  1
  Zr  Zr74  1  0.39338867  0.60763522  -0.00219213  1
  Zr  Zr75  1  0.30523235  0.50478774  0.37334308  1
  Zr  Zr76  1  0.80709863  0.39113061  0.23854827  1
  Zr  Zr77  1  0.09735831  0.29832879  0.37258414  1
  Zr  Zr78  1  0.59877479  0.20364025  0.50187386  1
  Zr  Zr79  1  -0.00105642  0.79511656  0.25099314  1
  Ta  Ta80  1  0.10313760  0.49742747  0.38363611  1
  Ta  Ta81  1  0.80258774  0.60659281  0.24109628  1
  Ta  Ta82  1  0.70155663  0.69210569  0.37764091  1
  Ta  Ta83  1  0.19907572  0.79796077  0.74337028  1
  Ta  Ta84  1  0.40535347  0.21783818  0.74310300  1
  Ta  Ta85  1  0.08448734  0.10078149  0.62066120  1
  Ta  Ta86  1  0.59132230  -0.00158710  0.51535739  1
  Ta  Ta87  1  0.81283082  0.19341112  0.75239118  1
  Ta  Ta88  1  0.60014405  0.59392828  -0.01991857  1
  Ta  Ta89  1  0.30433690  0.11340847  0.11654565  1
  Ta  Ta90  1  0.89836533  0.50284691  0.88078276  1
  Ta  Ta91  1  0.10522363  0.70605411  0.62299655  1
  Ta  Ta92  1  0.10414212  0.69843163  0.38405248  1
  Ta  Ta93  1  0.29461435  0.89856856  0.38118297  1
  Ta  Ta94  1  0.89309259  0.70117661  0.37716140  1
  Ta  Ta95  1  0.17791577  0.00868723  0.49513704  1
  Ta  Ta96  1  0.50659865  0.70182460  0.37327917  1
  Ta  Ta97  1  0.49760713  0.29920731  0.36762972  1
  Ta  Ta98  1  0.19553512  0.20941880  0.00493193  1
  Ta  Ta99  1  0.41137246  0.40902881  0.50633175  1
  Ta  Ta100  1  0.51283486  0.51704072  0.63123493  1
  Ta  Ta101  1  0.50412708  0.11571118  0.87815024  1
  Ta  Ta102  1  0.41425178  0.40710540  0.75590425  1
  Ta  Ta103  1  0.80110732  0.79109332  0.24650346  1
  Ta  Ta104  1  0.40164765  0.40758801  -0.00399762  1
  Ta  Ta105  1  0.00868033  0.40761691  0.00059690  1
  Ta  Ta106  1  0.89368901  0.89676396  0.10915636  1
  Ta  Ta107  1  0.70541456  0.50435706  0.37031472  1
  Ta  Ta108  1  0.09768883  0.30055038  0.87886705  1
  Ta  Ta109  1  0.90339922  0.70607279  0.10969096  1
  Ta  Ta110  1  -0.00885582  0.39686037  0.74447195  1
  Ta  Ta111  1  0.41261728  0.40109165  0.23860551  1
  Ta  Ta112  1  0.50488264  0.30828339  0.11418065  1
  Ta  Ta113  1  0.50798014  0.91115306  0.87539747  1
  Ta  Ta114  1  0.89664582  0.28549863  0.37719024  1
  Ta  Ta115  1  0.81061813  0.19207575  0.50099825  1
  Ta  Ta116  1  0.80811409  0.78883578  0.74372734  1
  Ta  Ta117  1  0.29767940  0.50120184  0.87172336  1
  Ta  Ta118  1  0.20093543  0.80293696  0.50189693  1
  Ta  Ta119  1  0.79202122  0.59066163  0.50448435  1
  Ti  Ti120  1  0.79398830  0.18490086  0.25233284  1
  Ti  Ti121  1  0.09597266  0.11489021  0.88095875  1
  Ti  Ti122  1  0.80703101  -0.00063291  0.50571945  1
  Ti  Ti123  1  0.87708555  0.89300014  0.89179701  1
  Ti  Ti124  1  0.60115788  0.39999693  -0.01264855  1
  Ti  Ti125  1  0.90604530  0.29321219  0.62852577  1
  Ti  Ti126  1  -0.01783537  0.60021692  0.73578182  1
  Ti  Ti127  1  0.41050602  0.80719063  0.74352446  1
  Ti  Ti128  1  0.50863076  0.11847404  0.63232609  1
  Ti  Ti129  1  0.09817841  0.31569965  0.12437326  1
  Ti  Ti130  1  0.19351692  0.60842483  0.25619501  1
  Ti  Ti131  1  0.70544876  0.10220447  0.62611708  1
  Ti  Ti132  1  0.30090207  0.70256969  0.86635886  1
  Ti  Ti133  1  0.72261343  0.69111033  0.86930018  1
  Ti  Ti134  1  0.10599402  0.69241789  0.86503745  1
  Ti  Ti135  1  0.90667387  0.30131711  0.86964698  1
  Ti  Ti136  1  0.50021327  0.29926713  0.87850974  1
  Ti  Ti137  1  0.58432985  0.19978603  0.25212328  1
  Ti  Ti138  1  0.60120449  -0.00658040  0.00345898  1
  Ti  Ti139  1  0.30425457  0.70685451  0.37556979  1
  Ti  Ti140  1  0.49811225  0.49761009  0.11549623  1
  Ti  Ti141  1  0.00983599  0.20591439  0.74867681  1
  Ti  Ti142  1  0.60846870  0.57975074  0.78209942  1
  Ti  Ti143  1  0.89212638  0.90265047  0.37959266  1
  Ti  Ti144  1  -0.00265100  0.38636879  0.50659153  1
  Ti  Ti145  1  0.60960904  0.79603336  0.24986348  1
  Ti  Ti146  1  0.59361191  0.61018162  0.49929669  1
  Ti  Ti147  1  0.02974975  0.60384934  0.00975831  1
  Ti  Ti148  1  0.28949550  0.10938693  0.38300288  1
  Ti  Ti149  1  0.19610554  0.41404499  -0.00071645  1
  Ti  Ti150  1  0.89260558  0.11024002  0.88508909  1
  Ti  Ti151  1  0.80670623  0.40612658  0.76012801  1
  Ti  Ti152  1  0.28080989  0.70420765  0.13292082  1
  Ti  Ti153  1  0.89899631  0.09931709  0.62333041  1
  Ti  Ti154  1  0.28891979  0.50943038  0.12110975  1
  Ti  Ti155  1  0.00718549  0.40019164  0.24618689  1
  Ti  Ti156  1  0.79442220  0.59937406  0.00214060  1
  Ti  Ti157  1  0.87188467  0.10702836  0.11116659  1
  Ti  Ti158  1  0.19715869  0.41529056  0.24701542  1
  Ti  Ti159  1  0.00586620  0.18889137  0.49348105  1
  Mo  Mo160  1  0.80147536  0.19477002  -0.00856337  1
  Mo  Mo161  1  0.59682265  0.20429498  -0.00593323  1
  Mo  Mo162  1  0.20693890  0.78950517  0.26412418  1
  Mo  Mo163  1  0.70997254  0.49529938  0.88081564  1
  Mo  Mo164  1  0.70017739  0.08875861  0.11216421  1
  Mo  Mo165  1  0.18917502  0.19888590  0.75659139  1
  Mo  Mo166  1  0.10552179  0.68798066  0.12841139  1
  Mo  Mo167  1  0.49849572  0.49059971  0.88625881  1
  Mo  Mo168  1  0.60070096  0.79106809  0.49889564  1
  Mo  Mo169  1  0.89488279  0.09858377  0.37938779  1
  Mo  Mo170  1  0.49819636  0.31846092  0.63378865  1
  Mo  Mo171  1  0.59124591  0.39930802  0.76036837  1
  Mo  Mo172  1  0.70338882  0.89397626  0.87564472  1
  Mo  Mo173  1  0.79076116  -0.00685847  0.00230300  1
  Mo  Mo174  1  0.80548130  0.59654717  0.76070548  1
  Mo  Mo175  1  -0.01753424  0.01409883  0.49602975  1
  Mo  Mo176  1  0.49352082  0.11503713  0.37873376  1
  Mo  Mo177  1  0.40064876  0.21103532  -0.00425158  1
  Mo  Mo178  1  0.59414512  0.39489296  0.24126175  1
  Mo  Mo179  1  0.11519163  0.49714608  0.12710852  1
  Mo  Mo180  1  0.59602535  0.19340366  0.74990080  1
  Mo  Mo181  1  0.49706023  0.70274789  0.88010150  1
  Mo  Mo182  1  0.50375226  0.90318583  0.12398117  1
  Mo  Mo183  1  0.09602199  0.10437337  0.37576428  1
  Mo  Mo184  1  0.89371511  0.48919183  0.63001057  1
  Mo  Mo185  1  0.09977522  0.90899750  0.61850719  1
  Mo  Mo186  1  0.71127768  0.68730843  0.11933228  1
  Mo  Mo187  1  0.41836071  0.59749350  0.49708999  1
  Mo  Mo188  1  0.19576655  0.19327156  0.49284041  1
  Mo  Mo189  1  0.09295955  0.27872217  0.62048087  1
  Mo  Mo190  1  0.89226292  0.68950652  0.63158851  1
  Mo  Mo191  1  0.30535977  0.30236370  0.62913651  1
  Mo  Mo192  1  0.80159579  0.79006933  -0.00287007  1
  Mo  Mo193  1  0.40283064  0.20830817  0.24612296  1
  Mo  Mo194  1  0.90299945  0.30102932  0.12694427  1
  Mo  Mo195  1  0.89590195  0.90701063  0.62365233  1
  Mo  Mo196  1  0.50694946  0.69955956  0.62785779  1
  Mo  Mo197  1  0.20296451  0.59102668  -0.01040167  1
  Mo  Mo198  1  -0.00022208  0.79381506  0.00222314  1
  Mo  Mo199  1  0.50087595  0.90080042  0.62368990  1
