# generated using pymatgen
data_HfZrTaTiMo
_symmetry_space_group_name_H-M   'P 1'
_cell_length_a   15.21057697
_cell_length_b   15.21836052
_cell_length_c   16.83281958
_cell_angle_alpha   90.00492268
_cell_angle_beta   90.00770828
_cell_angle_gamma   90.09831412
_symmetry_Int_Tables_number   1
_chemical_formula_structural   HfZrTaTiMo
_chemical_formula_sum   'Hf40 Zr40 Ta40 Ti40 Mo40'
_cell_volume   3896.45603201
_cell_formula_units_Z   40
loop_
 _symmetry_equiv_pos_site_id
 _symmetry_equiv_pos_as_xyz
  1  'x, y, z'
loop_
 _atom_site_type_symbol
 _atom_site_label
 _atom_site_symmetry_multiplicity
 _atom_site_fract_x
 _atom_site_fract_y
 _atom_site_fract_z
 _atom_site_occupancy
  Hf  Hf0  1  0.50098464  0.52183236  0.35331009  1
  Hf  Hf1  1  0.71005803  0.12072809  0.62395025  1
  Hf  Hf2  1  0.08130918  0.29258652  0.62041192  1
  Hf  Hf3  1  0.89664243  0.30477489  0.12354716  1
  Hf  Hf4  1  0.09625986  0.70068236  0.62190788  1
  Hf  Hf5  1  -0.02098157  0.80110325  -0.00323310  1
  Hf  Hf6  1  0.19165951  0.39767936  0.73363990  1
  Hf  Hf7  1  0.20236541  0.59515739  0.48969533  1
  Hf  Hf8  1  0.50082553  0.90310354  0.87983524  1
  Hf  Hf9  1  0.00203474  0.19554360  0.00574472  1
  Hf  Hf10  1  0.40635559  0.59380004  0.49742243  1
  Hf  Hf11  1  0.49254077  0.68834705  0.89321394  1
  Hf  Hf12  1  0.92794717  0.49081676  0.65009928  1
  Hf  Hf13  1  0.10528442  0.49117018  0.87602354  1
  Hf  Hf14  1  0.00323390  0.39987914  0.00516075  1
  Hf  Hf15  1  0.10564586  0.10762672  0.14088092  1
  Hf  Hf16  1  0.49001946  0.30126145  0.36873050  1
  Hf  Hf17  1  0.08394576  0.91182857  0.86866961  1
  Hf  Hf18  1  0.59976407  0.79797889  0.50251138  1
  Hf  Hf19  1  0.70322353  0.10898969  0.87748657  1
  Hf  Hf20  1  0.38585739  0.18646272  0.24547427  1
  Hf  Hf21  1  0.09151029  0.28852032  0.86218612  1
  Hf  Hf22  1  0.91034676  0.29952390  0.38626215  1
  Hf  Hf23  1  0.29147305  0.90800329  0.89023935  1
  Hf  Hf24  1  0.68607794  0.70343625  0.36274681  1
  Hf  Hf25  1  0.10009400  0.70371079  0.36421922  1
  Hf  Hf26  1  0.59161325  0.01571628  0.74992500  1
  Hf  Hf27  1  0.81260636  0.01490655  0.49733760  1
  Hf  Hf28  1  0.26887476  0.68826980  0.12694720  1
  Hf  Hf29  1  0.07196659  0.68839987  0.13492415  1
  Hf  Hf30  1  0.89790831  0.71123511  0.63372705  1
  Hf  Hf31  1  0.00349642  0.59731088  0.49871575  1
  Hf  Hf32  1  0.90148386  0.09461432  0.13386666  1
  Hf  Hf33  1  0.10183969  0.89901543  0.14268639  1
  Hf  Hf34  1  0.60533449  -0.00208908  0.50271062  1
  Hf  Hf35  1  0.61103508  0.19161368  0.26406331  1
  Hf  Hf36  1  0.39506517  0.79550894  0.01690945  1
  Hf  Hf37  1  0.80557750  0.21785650  0.75447209  1
  Hf  Hf38  1  0.70617560  0.10785978  0.11948044  1
  Hf  Hf39  1  0.90626238  0.49044111  0.86171017  1
  Zr  Zr40  1  0.19661707  0.39946614  0.50982189  1
  Zr  Zr41  1  0.91019632  0.91308256  0.63468617  1
  Zr  Zr42  1  0.38653419  -0.00105381  0.51346757  1
  Zr  Zr43  1  0.80409236  0.40563723  0.49799041  1
  Zr  Zr44  1  0.91297061  0.09122268  0.87859656  1
  Zr  Zr45  1  0.28616415  0.89660120  0.36882364  1
  Zr  Zr46  1  0.41118439  0.39391459  0.01863366  1
  Zr  Zr47  1  0.39085908  0.79622819  0.50140169  1
  Zr  Zr48  1  0.70549389  0.69154592  0.11253135  1
  Zr  Zr49  1  0.60344673  0.40544955  0.48535434  1
  Zr  Zr50  1  0.60549818  0.60373268  0.50474375  1
  Zr  Zr51  1  0.50812706  0.29291814  0.13825263  1
  Zr  Zr52  1  0.58435317  0.78870746  0.22770728  1
  Zr  Zr53  1  0.49413286  0.08962452  0.37849436  1
  Zr  Zr54  1  0.39237130  0.39549347  0.49785310  1
  Zr  Zr55  1  0.19058667  0.80336988  0.76271654  1
  Zr  Zr56  1  0.60271694  0.60395553  0.77118746  1
  Zr  Zr57  1  0.70178034  0.90458251  0.64115880  1
  Zr  Zr58  1  0.80302944  0.60708392  0.50573294  1
  Zr  Zr59  1  0.18228846  0.79626161  -0.00373903  1
  Zr  Zr60  1  0.71333490  0.50684081  0.36189565  1
  Zr  Zr61  1  0.81510506  0.40325751  0.24978697  1
  Zr  Zr62  1  0.39835097  0.19645531  0.00755172  1
  Zr  Zr63  1  0.08625777  0.90962931  0.35919963  1
  Zr  Zr64  1  0.79162348  0.81328141  0.24383557  1
  Zr  Zr65  1  0.29772019  0.30191597  0.87318336  1
  Zr  Zr66  1  0.29417646  0.09796387  0.87875611  1
  Zr  Zr67  1  0.39291618  0.79039458  0.76582392  1
  Zr  Zr68  1  0.50471250  0.29406252  0.61388236  1
  Zr  Zr69  1  0.40255632  0.19640086  0.74499874  1
  Zr  Zr70  1  0.29626937  0.70523016  0.62363863  1
  Zr  Zr71  1  0.71561678  0.50110645  0.64612535  1
  Zr  Zr72  1  0.20650477  0.60624574  0.76119822  1
  Zr  Zr73  1  0.31204827  0.49953103  0.88024493  1
  Zr  Zr74  1  0.50323093  0.69991981  0.64168037  1
  Zr  Zr75  1  0.50794570  0.49416866  0.63915734  1
  Zr  Zr76  1  0.49601003  0.88329260  0.36780229  1
  Zr  Zr77  1  0.38763604  0.80548348  0.21898558  1
  Zr  Zr78  1  0.31276101  0.69165891  0.35564689  1
  Zr  Zr79  1  0.38198323  -0.00271495  0.73489251  1
  Ta  Ta80  1  0.91792364  0.09724500  0.36753792  1
  Ta  Ta81  1  0.79729048  0.80815037  0.49756150  1
  Ta  Ta82  1  0.50364123  0.10495547  0.61120645  1
  Ta  Ta83  1  0.80445043  0.20119516  0.26398659  1
  Ta  Ta84  1  0.40962717  0.60060725  0.21931079  1
  Ta  Ta85  1  0.27886666  0.29354077  0.13241110  1
  Ta  Ta86  1  0.29035774  0.28659101  0.37243025  1
  Ta  Ta87  1  0.80857065  -0.00768598  -0.00352842  1
  Ta  Ta88  1  0.89550729  0.70748984  0.37884835  1
  Ta  Ta89  1  0.39031088  0.40294167  0.24005226  1
  Ta  Ta90  1  0.19087360  0.57768468  0.25686515  1
  Ta  Ta91  1  0.60957889  0.58273806  -0.00749411  1
  Ta  Ta92  1  0.88909116  0.28571080  0.61041225  1
  Ta  Ta93  1  0.21579597  0.00751134  0.24982842  1
  Ta  Ta94  1  0.10708960  0.10862772  0.37399872  1
  Ta  Ta95  1  0.60644615  -0.00774031  0.24476132  1
  Ta  Ta96  1  0.51340549  0.47060714  0.87956347  1
  Ta  Ta97  1  0.70060828  0.90591357  0.86765057  1
  Ta  Ta98  1  0.19165923  0.20420244  0.00340002  1
  Ta  Ta99  1  0.60591601  0.00483256  -0.00276071  1
  Ta  Ta100  1  0.00829904  0.21746540  0.25134584  1
  Ta  Ta101  1  0.11138287  0.49969758  0.11993202  1
  Ta  Ta102  1  0.69040997  0.31766994  0.87812133  1
  Ta  Ta103  1  0.81220084  0.60691829  -0.01681346  1
  Ta  Ta104  1  0.18382588  -0.00574863  0.51015691  1
  Ta  Ta105  1  0.49697907  0.89531718  0.63446874  1
  Ta  Ta106  1  0.30209807  0.50060694  0.63197584  1
  Ta  Ta107  1  0.40264570  -0.00420126  0.01867534  1
  Ta  Ta108  1  0.61621000  0.20162803  0.48143128  1
  Ta  Ta109  1  0.91066237  0.52322153  0.11934716  1
  Ta  Ta110  1  0.19900371  0.19019544  0.72719993  1
  Ta  Ta111  1  0.81083172  0.61441934  0.76589983  1
  Ta  Ta112  1  0.89120158  0.30024785  0.88297839  1
  Ta  Ta113  1  0.59906007  0.21257321  -0.00477599  1
  Ta  Ta114  1  0.70232048  0.71180820  0.64449243  1
  Ta  Ta115  1  0.60771422  0.39969817  0.25262777  1
  Ta  Ta116  1  0.39566083  0.58803499  0.02080242  1
  Ta  Ta117  1  0.40863232  -0.00488112  0.22807478  1
  Ta  Ta118  1  0.81921890  0.61323448  0.24503698  1
  Ta  Ta119  1  0.70039951  0.90748855  0.37407605  1
  Ti  Ti120  1  0.01004172  -0.00310623  0.00850429  1
  Ti  Ti121  1  0.60060163  0.80554531  0.00472344  1
  Ti  Ti122  1  0.70058985  0.71498919  0.87569291  1
  Ti  Ti123  1  0.79874721  0.00739438  0.25792692  1
  Ti  Ti124  1  0.70234006  0.91155336  0.11619738  1
  Ti  Ti125  1  0.18965846  0.00649408  0.72774258  1
  Ti  Ti126  1  0.00095237  0.81205644  0.49487032  1
  Ti  Ti127  1  0.39999763  0.59128933  0.75976613  1
  Ti  Ti128  1  0.71339956  0.49797009  0.12666516  1
  Ti  Ti129  1  0.01186447  0.61739284  0.76473490  1
  Ti  Ti130  1  0.89884371  0.90093615  0.12977671  1
  Ti  Ti131  1  0.01166699  0.41489693  0.24780131  1
  Ti  Ti132  1  0.10933459  0.09690624  0.87168559  1
  Ti  Ti133  1  0.10330723  0.29632317  0.38709967  1
  Ti  Ti134  1  0.79776708  0.20579840  -0.00196428  1
  Ti  Ti135  1  0.20782595  0.19365708  0.51647457  1
  Ti  Ti136  1  0.29736193  0.48489926  0.36284429  1
  Ti  Ti137  1  0.09585333  0.89457791  0.62818933  1
  Ti  Ti138  1  0.49752610  0.10338378  0.88331533  1
  Ti  Ti139  1  0.29505862  0.10032314  0.38496246  1
  Ti  Ti140  1  0.52257138  0.49809636  0.12901666  1
  Ti  Ti141  1  0.89106707  0.89275472  0.85648333  1
  Ti  Ti142  1  0.59611678  0.21456133  0.75652234  1
  Ti  Ti143  1  0.91738757  0.50929371  0.37006294  1
  Ti  Ti144  1  0.81089016  0.01552564  0.74884385  1
  Ti  Ti145  1  0.51242797  0.09560599  0.12234534  1
  Ti  Ti146  1  0.00694445  0.60626572  -0.01436569  1
  Ti  Ti147  1  0.70896524  0.49681837  0.86893423  1
  Ti  Ti148  1  0.00598257  0.40781110  0.50124314  1
  Ti  Ti149  1  0.40437041  0.39074149  0.74735241  1
  Ti  Ti150  1  0.20562092  0.40025147  0.00962145  1
  Ti  Ti151  1  0.19029655  0.38399152  0.25015604  1
  Ti  Ti152  1  0.79434980  0.41010577  0.00116032  1
  Ti  Ti153  1  0.89778485  0.90296748  0.37348396  1
  Ti  Ti154  1  0.29250076  0.09338707  0.11794043  1
  Ti  Ti155  1  0.69690129  0.30970153  0.62584120  1
  Ti  Ti156  1  0.79414947  0.80618765  -0.00518795  1
  Ti  Ti157  1  0.70039371  0.30411878  0.12386346  1
  Ti  Ti158  1  -0.00212563  0.17822181  0.74194452  1
  Ti  Ti159  1  -0.02096922  0.79117439  0.25010588  1
  Mo  Mo160  1  0.28347682  0.89502654  0.62234684  1
  Mo  Mo161  1  0.18757989  0.80800026  0.50380950  1
  Mo  Mo162  1  0.29424386  0.10284455  0.61523946  1
  Mo  Mo163  1  0.39745978  0.19856224  0.49635058  1
  Mo  Mo164  1  0.89436054  0.70407152  0.11710727  1
  Mo  Mo165  1  0.79369283  0.80405037  0.75839854  1
  Mo  Mo166  1  0.19073744  0.79553731  0.24414007  1
  Mo  Mo167  1  0.79894246  0.20298284  0.48604008  1
  Mo  Mo168  1  0.19888543  0.19998639  0.26063430  1
  Mo  Mo169  1  0.60059245  0.39078254  0.75321449  1
  Mo  Mo170  1  0.49362879  0.69828537  0.36318425  1
  Mo  Mo171  1  0.00322137  -0.00050223  0.49466471  1
  Mo  Mo172  1  0.10148472  0.50632079  0.63049238  1
  Mo  Mo173  1  -0.00425883  0.59418893  0.25641545  1
  Mo  Mo174  1  0.50201546  0.29403791  0.87665414  1
  Mo  Mo175  1  -0.01287389  0.36549978  0.75122550  1
  Mo  Mo176  1  0.70385313  0.30012449  0.36867233  1
  Mo  Mo177  1  0.30028972  0.29800734  0.62890220  1
  Mo  Mo178  1  0.09418281  0.69952429  0.88187520  1
  Mo  Mo179  1  0.79840408  0.39768078  0.75199751  1
  Mo  Mo180  1  0.29538468  0.68855520  0.90086547  1
  Mo  Mo181  1  0.29493008  0.49061736  0.13450992  1
  Mo  Mo182  1  0.90637585  0.11027660  0.62290794  1
  Mo  Mo183  1  -0.00481901  0.79562105  0.75586934  1
  Mo  Mo184  1  0.19576074  0.59109247  -0.00362786  1
  Mo  Mo185  1  0.60969157  0.59318533  0.23242307  1
  Mo  Mo186  1  0.00681870  0.00062301  0.74896330  1
  Mo  Mo187  1  0.00209583  0.18767244  0.49625129  1
  Mo  Mo188  1  0.09790451  0.30630918  0.12842464  1
  Mo  Mo189  1  -0.00737616  0.00486230  0.24917618  1
  Mo  Mo190  1  0.71011472  0.09364889  0.37249873  1
  Mo  Mo191  1  0.59727480  0.80833804  0.76070525  1
  Mo  Mo192  1  0.08571578  0.09055886  0.61636871  1
  Mo  Mo193  1  0.10193401  0.48632840  0.37120514  1
  Mo  Mo194  1  0.51206919  0.90580886  0.11075674  1
  Mo  Mo195  1  0.19293547  0.01120441  0.00521994  1
  Mo  Mo196  1  0.61439546  0.40185268  0.00899456  1
  Mo  Mo197  1  0.50548354  0.68743585  0.09920976  1
  Mo  Mo198  1  0.89647949  0.70409264  0.87350301  1
  Mo  Mo199  1  0.28985923  0.90837476  0.11962434  1
