# generated using pymatgen
data_HfZrTaTiMo
_symmetry_space_group_name_H-M   'P 1'
_cell_length_a   15.21494893
_cell_length_b   15.20759471
_cell_length_c   16.84710978
_cell_angle_alpha   90.02115060
_cell_angle_beta   90.04956531
_cell_angle_gamma   90.08459046
_symmetry_Int_Tables_number   1
_chemical_formula_structural   HfZrTaTiMo
_chemical_formula_sum   'Hf40 Zr40 Ta40 Ti40 Mo40'
_cell_volume   3898.12506889
_cell_formula_units_Z   40
loop_
 _symmetry_equiv_pos_site_id
 _symmetry_equiv_pos_as_xyz
  1  'x, y, z'
loop_
 _atom_site_type_symbol
 _atom_site_label
 _atom_site_symmetry_multiplicity
 _atom_site_fract_x
 _atom_site_fract_y
 _atom_site_fract_z
 _atom_site_occupancy
  Hf  Hf0  1  0.79727649  0.39938704  -0.00225106  1
  Hf  Hf1  1  0.20440582  0.39816634  0.02294519  1
  Hf  Hf2  1  0.10288386  0.31595877  0.87571821  1
  Hf  Hf3  1  0.80438231  0.00426823  -0.00791133  1
  Hf  Hf4  1  0.49861886  0.31247788  0.13892567  1
  Hf  Hf5  1  0.58427063  0.60211525  0.00055330  1
  Hf  Hf6  1  0.39872246  0.17981966  0.24911794  1
  Hf  Hf7  1  0.09821596  0.28217621  0.38025153  1
  Hf  Hf8  1  0.40448504  0.20993399  -0.00296009  1
  Hf  Hf9  1  0.70522917  0.11633156  0.38495348  1
  Hf  Hf10  1  0.30324383  0.68396582  0.88718703  1
  Hf  Hf11  1  0.89208871  0.71839598  0.87945664  1
  Hf  Hf12  1  0.09143127  0.09500937  0.11699473  1
  Hf  Hf13  1  -0.00274445  0.41293487  0.48760697  1
  Hf  Hf14  1  0.60670717  0.40211763  0.49028208  1
  Hf  Hf15  1  0.71940889  0.89385486  0.86391951  1
  Hf  Hf16  1  0.30145957  0.30568118  0.64002747  1
  Hf  Hf17  1  0.49265409  0.70549200  0.36715212  1
  Hf  Hf18  1  0.58779108  0.39232320  -0.00867948  1
  Hf  Hf19  1  0.19587053  0.59062034  0.01647511  1
  Hf  Hf20  1  0.68877760  0.49066782  0.12465409  1
  Hf  Hf21  1  0.88095096  0.29225615  0.38238424  1
  Hf  Hf22  1  -0.00830955  0.20126445  0.00407838  1
  Hf  Hf23  1  0.80241647  0.00304946  0.51468504  1
  Hf  Hf24  1  0.59520114  -0.00532402  0.50687484  1
  Hf  Hf25  1  0.00806498  0.79671761  0.51461931  1
  Hf  Hf26  1  0.49141705  0.08043598  0.37345202  1
  Hf  Hf27  1  -0.00576941  0.20831555  0.72718142  1
  Hf  Hf28  1  0.21330035  0.79913803  0.50776671  1
  Hf  Hf29  1  0.80974378  -0.02041547  0.72397276  1
  Hf  Hf30  1  0.09665769  0.09664809  0.86998128  1
  Hf  Hf31  1  0.70191436  0.89979559  0.37524090  1
  Hf  Hf32  1  0.69249887  0.28020283  0.12723033  1
  Hf  Hf33  1  0.80358158  0.20342147  0.73163991  1
  Hf  Hf34  1  0.18963512  0.77906430  0.75329658  1
  Hf  Hf35  1  0.70527711  0.69392047  0.37319776  1
  Hf  Hf36  1  0.51620249  0.10311435  0.12250716  1
  Hf  Hf37  1  0.89302250  0.30839357  0.13121012  1
  Hf  Hf38  1  0.80002252  0.60351945  0.23526398  1
  Hf  Hf39  1  0.27369257  0.09566707  0.37818145  1
  Zr  Zr40  1  0.29721509  0.50661811  0.35812293  1
  Zr  Zr41  1  0.39706363  0.19458401  0.50073798  1
  Zr  Zr42  1  0.41122383  -0.01589708  0.76151897  1
  Zr  Zr43  1  0.18522446  0.40018868  0.23826721  1
  Zr  Zr44  1  0.20895585  -0.00066064  0.23629568  1
  Zr  Zr45  1  0.50168294  0.50943796  0.62642902  1
  Zr  Zr46  1  0.00219860  0.41089385  0.00747619  1
  Zr  Zr47  1  0.40948968  0.00122575  -0.01334222  1
  Zr  Zr48  1  0.18878028  0.18982872  0.51786723  1
  Zr  Zr49  1  -0.00535473  0.19789347  0.24634038  1
  Zr  Zr50  1  0.59677513  0.41761341  0.75351100  1
  Zr  Zr51  1  0.39870762  -0.00807476  0.51939578  1
  Zr  Zr52  1  0.69808450  0.29612349  0.86052591  1
  Zr  Zr53  1  0.68334302  0.70182935  0.62580045  1
  Zr  Zr54  1  0.70525598  0.51660397  0.87292865  1
  Zr  Zr55  1  -0.00100328  -0.00225267  0.25593352  1
  Zr  Zr56  1  0.28904866  0.68029112  0.62953002  1
  Zr  Zr57  1  -0.00556134  0.61463299  0.24914820  1
  Zr  Zr58  1  0.00119221  0.60853311  0.74795917  1
  Zr  Zr59  1  0.90116217  0.09249732  0.86157831  1
  Zr  Zr60  1  0.50603483  0.88997425  0.11392756  1
  Zr  Zr61  1  0.20466168  0.20433733  0.00346676  1
  Zr  Zr62  1  0.19689090  0.61189904  0.23603677  1
  Zr  Zr63  1  0.39068562  0.60109550  0.49563519  1
  Zr  Zr64  1  0.49841137  0.29655572  0.64110876  1
  Zr  Zr65  1  0.20782482  0.40397073  0.49047894  1
  Zr  Zr66  1  0.81471311  0.41281455  0.74093504  1
  Zr  Zr67  1  0.10802751  0.51707123  0.61892873  1
  Zr  Zr68  1  0.11355639  0.91084004  0.38074303  1
  Zr  Zr69  1  0.60741838  0.79643737  0.24480192  1
  Zr  Zr70  1  0.40543252  0.39672667  0.49115213  1
  Zr  Zr71  1  0.91272169  0.51229054  0.87831181  1
  Zr  Zr72  1  0.19787408  -0.00339930  -0.00629601  1
  Zr  Zr73  1  -0.01456212  0.80878495  0.73016522  1
  Zr  Zr74  1  -0.01318338  0.41123282  0.26228201  1
  Zr  Zr75  1  0.32623068  0.89927084  0.36895596  1
  Zr  Zr76  1  0.30198752  0.88505972  0.87785467  1
  Zr  Zr77  1  0.01343331  0.01124792  0.51874908  1
  Zr  Zr78  1  0.19059079  0.20700415  0.74795915  1
  Zr  Zr79  1  0.60492206  0.00712260  0.24998077  1
  Ta  Ta80  1  0.49440232  0.68016993  0.13249288  1
  Ta  Ta81  1  0.01253610  0.40525134  0.74590819  1
  Ta  Ta82  1  0.30715711  0.70434216  0.11532095  1
  Ta  Ta83  1  0.30668935  0.09571534  0.64899406  1
  Ta  Ta84  1  0.51559726  0.88579207  0.63966254  1
  Ta  Ta85  1  0.68998317  0.71125331  0.88206247  1
  Ta  Ta86  1  0.30329911  0.89172198  0.11224926  1
  Ta  Ta87  1  0.71500003  0.91238684  0.12541766  1
  Ta  Ta88  1  0.90082854  0.70926987  0.38160363  1
  Ta  Ta89  1  0.49022221  0.29764097  0.86103417  1
  Ta  Ta90  1  0.39640805  0.59678041  0.75720379  1
  Ta  Ta91  1  0.81669778  0.80561503  0.24495777  1
  Ta  Ta92  1  0.87896150  0.09634514  0.12513781  1
  Ta  Ta93  1  0.50835986  0.28716348  0.36511820  1
  Ta  Ta94  1  0.08304131  0.89060834  0.87181105  1
  Ta  Ta95  1  0.19705999  -0.01223610  0.74730021  1
  Ta  Ta96  1  0.51215462  0.10019847  0.86174011  1
  Ta  Ta97  1  0.59892531  0.20122199  0.50692665  1
  Ta  Ta98  1  0.30529873  0.10719395  0.86198761  1
  Ta  Ta99  1  0.00709715  0.00138461  0.72518879  1
  Ta  Ta100  1  0.30554349  0.29830728  0.14082584  1
  Ta  Ta101  1  0.09917379  0.70626214  0.37408286  1
  Ta  Ta102  1  0.61341240  -0.00338866  -0.00869483  1
  Ta  Ta103  1  0.68676078  0.10172764  0.63350381  1
  Ta  Ta104  1  0.90363316  0.30098513  0.87184977  1
  Ta  Ta105  1  0.59793978  0.59790439  0.48916466  1
  Ta  Ta106  1  0.52207692  0.87563960  0.87689819  1
  Ta  Ta107  1  0.79387130  0.19719146  -0.00797999  1
  Ta  Ta108  1  0.69775503  0.30881744  0.62530021  1
  Ta  Ta109  1  0.90623642  0.90292200  0.12544205  1
  Ta  Ta110  1  0.39579851  0.40918756  0.00100991  1
  Ta  Ta111  1  0.60417524  0.18871197  -0.01248307  1
  Ta  Ta112  1  0.79585213  0.59722763  0.49804290  1
  Ta  Ta113  1  0.30342995  0.29520980  0.35572603  1
  Ta  Ta114  1  0.31485268  0.88167840  0.64534994  1
  Ta  Ta115  1  0.90206800  0.89768754  0.38611957  1
  Ta  Ta116  1  0.79715547  0.80064347  0.50770249  1
  Ta  Ta117  1  0.69887428  0.09443170  0.85213481  1
  Ta  Ta118  1  0.50230872  0.49969334  0.35859049  1
  Ta  Ta119  1  0.80366518  0.60787059  0.01485449  1
  Ti  Ti120  1  0.50217539  0.09877367  0.64727636  1
  Ti  Ti121  1  -0.00550157  -0.01206995  -0.00276536  1
  Ti  Ti122  1  0.41046696  0.80166695  0.50326079  1
  Ti  Ti123  1  0.78660033  0.19473841  0.25251835  1
  Ti  Ti124  1  0.78918060  0.40236208  0.26010131  1
  Ti  Ti125  1  0.70484211  0.51070888  0.62836196  1
  Ti  Ti126  1  0.48139899  0.50391894  0.87545206  1
  Ti  Ti127  1  0.39802735  0.80171683  0.24024265  1
  Ti  Ti128  1  0.80854174  0.00194264  0.25820837  1
  Ti  Ti129  1  0.00682605  0.80522919  0.25140683  1
  Ti  Ti130  1  0.18062498  0.60470378  0.48438266  1
  Ti  Ti131  1  0.19072410  0.19582489  0.23861437  1
  Ti  Ti132  1  0.29573861  0.70570907  0.36552401  1
  Ti  Ti133  1  0.09366644  0.31436477  0.61557391  1
  Ti  Ti134  1  0.30342489  0.30843871  0.86428476  1
  Ti  Ti135  1  0.91298440  0.10150384  0.38950624  1
  Ti  Ti136  1  0.09692563  0.88834414  0.11787178  1
  Ti  Ti137  1  0.89158792  0.68939033  0.61842287  1
  Ti  Ti138  1  0.80395834  0.80895705  0.00729808  1
  Ti  Ti139  1  0.07271115  0.51212772  0.12713520  1
  Ti  Ti140  1  0.18850846  0.79508430  -0.00007520  1
  Ti  Ti141  1  0.59302023  0.61995712  0.76171861  1
  Ti  Ti142  1  0.09187948  0.68657168  0.88917228  1
  Ti  Ti143  1  0.79353032  0.40624706  0.50000775  1
  Ti  Ti144  1  0.88627145  0.51430425  0.37769123  1
  Ti  Ti145  1  0.60007339  0.59183071  0.24880039  1
  Ti  Ti146  1  0.33088010  0.50327061  0.14163280  1
  Ti  Ti147  1  0.30873589  0.09323311  0.11893072  1
  Ti  Ti148  1  0.90281951  0.50333491  0.61678618  1
  Ti  Ti149  1  0.28391569  0.49097437  0.87246754  1
  Ti  Ti150  1  0.80006164  0.20811967  0.52079325  1
  Ti  Ti151  1  0.20008679  0.80286211  0.23971975  1
  Ti  Ti152  1  0.60784935  0.39194112  0.26481575  1
  Ti  Ti153  1  0.30122476  0.49261676  0.63981478  1
  Ti  Ti154  1  0.91718841  0.70907689  0.11315744  1
  Ti  Ti155  1  0.69832711  0.71086649  0.11750918  1
  Ti  Ti156  1  0.42065197  0.77808676  -0.00168932  1
  Ti  Ti157  1  0.48737124  0.70476649  0.63171417  1
  Ti  Ti158  1  0.20725098  -0.00630284  0.53020659  1
  Ti  Ti159  1  0.59613580  0.79968580  0.49603771  1
  Mo  Mo160  1  0.88622827  0.50865084  0.12355487  1
  Mo  Mo161  1  -0.00931941  0.60526713  0.49025186  1
  Mo  Mo162  1  0.39546473  0.58640963  0.00423570  1
  Mo  Mo163  1  0.40328549  0.60913554  0.25125572  1
  Mo  Mo164  1  0.09563781  0.10346779  0.37904213  1
  Mo  Mo165  1  0.10786714  0.50624658  0.87882687  1
  Mo  Mo166  1  0.89878870  0.10576289  0.61864083  1
  Mo  Mo167  1  0.79552065  0.78130214  0.73946082  1
  Mo  Mo168  1  0.79601029  0.61285556  0.74603611  1
  Mo  Mo169  1  0.19476549  0.40889875  0.74945091  1
  Mo  Mo170  1  0.50185186  0.49440710  0.14033958  1
  Mo  Mo171  1  0.39888606  0.19763735  0.75941925  1
  Mo  Mo172  1  -0.00113817  0.80709252  -0.00141984  1
  Mo  Mo173  1  0.10414711  0.71545323  0.11876539  1
  Mo  Mo174  1  0.40292784  0.39471378  0.26085713  1
  Mo  Mo175  1  0.90033557  0.31724061  0.60996972  1
  Mo  Mo176  1  0.11734247  0.89459185  0.62928046  1
  Mo  Mo177  1  0.70003439  0.29891465  0.38220641  1
  Mo  Mo178  1  0.60096574  0.20228678  0.74462868  1
  Mo  Mo179  1  -0.00249012  0.61172341  0.00756963  1
  Mo  Mo180  1  0.61339810  0.79907313  0.00786255  1
  Mo  Mo181  1  0.50302880  0.89178537  0.37492762  1
  Mo  Mo182  1  0.39866797  -0.01174764  0.23415507  1
  Mo  Mo183  1  0.59915634  0.79967322  0.75316910  1
  Mo  Mo184  1  0.90858530  0.90271841  0.86959312  1
  Mo  Mo185  1  0.39285724  0.40737680  0.76180924  1
  Mo  Mo186  1  0.49992796  0.69322750  0.87652663  1
  Mo  Mo187  1  0.19488569  0.58796868  0.76330676  1
  Mo  Mo188  1  0.40794248  0.78151063  0.75699144  1
  Mo  Mo189  1  0.60493753  0.20114868  0.25788408  1
  Mo  Mo190  1  0.08967252  0.51547350  0.37715296  1
  Mo  Mo191  1  0.09819331  0.69425814  0.61895010  1
  Mo  Mo192  1  0.10996135  0.10157890  0.63716832  1
  Mo  Mo193  1  0.70015006  0.50113204  0.37058355  1
  Mo  Mo194  1  -0.01090700  0.20686428  0.51623384  1
  Mo  Mo195  1  0.60739121  -0.00336555  0.74888264  1
  Mo  Mo196  1  0.70473188  0.09678281  0.12053698  1
  Mo  Mo197  1  0.89893059  0.89224627  0.60952424  1
  Mo  Mo198  1  0.69547255  0.89396291  0.62086803  1
  Mo  Mo199  1  0.09905905  0.30173523  0.13166970  1
