# generated using pymatgen
data_HfZrTaTiMo
_symmetry_space_group_name_H-M   'P 1'
_cell_length_a   15.20909878
_cell_length_b   15.20634373
_cell_length_c   16.81402280
_cell_angle_alpha   89.96540940
_cell_angle_beta   89.95612132
_cell_angle_gamma   90.03757777
_symmetry_Int_Tables_number   1
_chemical_formula_structural   HfZrTaTiMo
_chemical_formula_sum   'Hf40 Zr40 Ta40 Ti40 Mo40'
_cell_volume   3888.65680286
_cell_formula_units_Z   40
loop_
 _symmetry_equiv_pos_site_id
 _symmetry_equiv_pos_as_xyz
  1  'x, y, z'
loop_
 _atom_site_type_symbol
 _atom_site_label
 _atom_site_symmetry_multiplicity
 _atom_site_fract_x
 _atom_site_fract_y
 _atom_site_fract_z
 _atom_site_occupancy
  Hf  Hf0  1  0.49171480  0.09879732  0.85522787  1
  Hf  Hf1  1  0.30155721  0.68251088  0.87856506  1
  Hf  Hf2  1  0.81725511  0.58811490  0.74862658  1
  Hf  Hf3  1  0.10636278  0.89721642  0.13192439  1
  Hf  Hf4  1  0.19556255  0.01030662  0.49213870  1
  Hf  Hf5  1  0.10930570  0.11589798  0.63061980  1
  Hf  Hf6  1  0.59650783  -0.00486035  0.25398460  1
  Hf  Hf7  1  0.49372827  0.89802658  0.11944183  1
  Hf  Hf8  1  0.39378960  0.78432096  0.01256105  1
  Hf  Hf9  1  0.20321014  0.00087530  0.00380210  1
  Hf  Hf10  1  0.59178154  0.78584641  0.25275145  1
  Hf  Hf11  1  0.39936181  0.79118858  0.74156391  1
  Hf  Hf12  1  0.00149610  0.80236260  -0.00539261  1
  Hf  Hf13  1  0.30000894  0.09975064  0.36619225  1
  Hf  Hf14  1  0.69640404  0.89426498  0.12256000  1
  Hf  Hf15  1  0.20537555  -0.00666350  0.24633587  1
  Hf  Hf16  1  0.01203461  0.41203349  0.49227063  1
  Hf  Hf17  1  0.18803336  0.79249869  0.76440980  1
  Hf  Hf18  1  0.32133796  0.49705997  0.12318819  1
  Hf  Hf19  1  0.79745642  0.80425229  0.75613482  1
  Hf  Hf20  1  0.92353244  0.51007622  0.35652329  1
  Hf  Hf21  1  0.48538653  0.30163087  0.85918385  1
  Hf  Hf22  1  0.07535817  0.30220938  0.13222725  1
  Hf  Hf23  1  0.48129745  0.29689331  0.64026804  1
  Hf  Hf24  1  0.69530744  0.89746270  0.60789929  1
  Hf  Hf25  1  0.58155590  0.20418021  -0.00375259  1
  Hf  Hf26  1  0.60263321  0.78262348  0.00323407  1
  Hf  Hf27  1  0.08847711  0.90507224  0.62833163  1
  Hf  Hf28  1  0.39719214  -0.00095783  0.50381272  1
  Hf  Hf29  1  -0.01089009  0.42437841  0.75474570  1
  Hf  Hf30  1  0.41573305  0.59157117  0.26452982  1
  Hf  Hf31  1  0.81887223  0.60171098  0.49523204  1
  Hf  Hf32  1  0.80215728  0.20474078  0.50633231  1
  Hf  Hf33  1  0.80076630  0.21679878  0.00702073  1
  Hf  Hf34  1  0.89949967  0.10975289  0.36783660  1
  Hf  Hf35  1  0.51734832  0.48608041  0.60462791  1
  Hf  Hf36  1  0.80698651  0.00770897  0.01071020  1
  Hf  Hf37  1  0.79640744  0.00436828  0.24505609  1
  Hf  Hf38  1  0.59470766  0.20360638  0.25569267  1
  Hf  Hf39  1  0.58314015  0.20700489  0.49855251  1
  Zr  Zr40  1  0.28034273  0.29350621  0.36875040  1
  Zr  Zr41  1  0.70362701  0.69068330  0.61566240  1
  Zr  Zr42  1  0.59815103  0.78243469  0.75015838  1
  Zr  Zr43  1  0.89175792  0.32533049  0.87837084  1
  Zr  Zr44  1  0.91098552  0.11300764  0.86485382  1
  Zr  Zr45  1  0.90980956  0.10056511  0.63369271  1
  Zr  Zr46  1  0.91764693  0.70617635  0.62927640  1
  Zr  Zr47  1  0.30875518  0.90780753  0.86804521  1
  Zr  Zr48  1  0.01978482  0.62293920  0.76495894  1
  Zr  Zr49  1  0.80343033  0.40028974  0.48855900  1
  Zr  Zr50  1  0.10238805  0.50194275  0.89634859  1
  Zr  Zr51  1  0.19701900  0.41053006  0.23475385  1
  Zr  Zr52  1  0.50310376  0.69148698  0.59992970  1
  Zr  Zr53  1  0.30243850  0.47933404  0.60656451  1
  Zr  Zr54  1  0.00021328  0.79946243  0.48344912  1
  Zr  Zr55  1  0.50324608  0.89220174  0.88334538  1
  Zr  Zr56  1  0.90423449  0.31879984  0.62857570  1
  Zr  Zr57  1  0.90393174  0.89848154  0.13109528  1
  Zr  Zr58  1  0.69080986  0.51082387  0.12780795  1
  Zr  Zr59  1  0.68973710  0.30948620  0.12496826  1
  Zr  Zr60  1  0.29169829  0.89725464  0.62906334  1
  Zr  Zr61  1  0.88963881  0.91279249  0.88137426  1
  Zr  Zr62  1  0.21391977  0.58932100  0.74633591  1
  Zr  Zr63  1  0.49695905  0.10589060  0.12249036  1
  Zr  Zr64  1  0.00321301  0.00240945  0.48444179  1
  Zr  Zr65  1  0.30833355  0.70224159  0.38358505  1
  Zr  Zr66  1  0.78919524  0.21151996  0.74396289  1
  Zr  Zr67  1  0.58909006  0.40715526  0.26904244  1
  Zr  Zr68  1  0.50015378  0.09283816  0.64208074  1
  Zr  Zr69  1  0.70919698  0.68917073  0.87599043  1
  Zr  Zr70  1  0.89076946  0.89686459  0.36483059  1
  Zr  Zr71  1  0.70185669  0.09898185  0.87553045  1
  Zr  Zr72  1  0.09720319  0.50584081  0.62195210  1
  Zr  Zr73  1  0.69744875  0.09947920  0.38365865  1
  Zr  Zr74  1  0.48690258  0.88175623  0.38632708  1
  Zr  Zr75  1  0.41198069  0.58556007  0.74211547  1
  Zr  Zr76  1  0.01787303  0.21230469  0.49311671  1
  Zr  Zr77  1  0.61259775  -0.01823507  0.75546015  1
  Zr  Zr78  1  0.30089681  0.11354756  0.87295940  1
  Zr  Zr79  1  0.19629771  0.79680672  -0.00617095  1
  Ta  Ta80  1  0.38428083  0.79126662  0.23491078  1
  Ta  Ta81  1  0.70764277  0.49218878  0.61403563  1
  Ta  Ta82  1  0.50070868  0.89142705  0.60885081  1
  Ta  Ta83  1  -0.00200767  0.20597895  0.00333279  1
  Ta  Ta84  1  0.30711544  0.48430416  0.88614366  1
  Ta  Ta85  1  0.18695480  0.00231386  0.75891731  1
  Ta  Ta86  1  0.30138465  0.10474393  0.63975696  1
  Ta  Ta87  1  0.50125409  0.67991792  0.87465021  1
  Ta  Ta88  1  0.40606698  0.38204733  0.48355213  1
  Ta  Ta89  1  0.39579420  0.20021042  0.24733190  1
  Ta  Ta90  1  0.49220496  0.09590299  0.37640588  1
  Ta  Ta91  1  0.10257412  0.69581508  0.13370057  1
  Ta  Ta92  1  0.00777167  0.00718661  0.25422024  1
  Ta  Ta93  1  0.10182757  0.68740925  0.35881914  1
  Ta  Ta94  1  0.79850603  0.40603108  0.25482473  1
  Ta  Ta95  1  0.48519258  0.31430734  0.12650454  1
  Ta  Ta96  1  0.50626480  0.67259291  0.12779069  1
  Ta  Ta97  1  0.69187239  0.89606884  0.38861280  1
  Ta  Ta98  1  0.61188843  0.57189446  0.75347857  1
  Ta  Ta99  1  0.19116739  0.19730715  0.01581373  1
  Ta  Ta100  1  0.01159318  0.01586998  0.00716895  1
  Ta  Ta101  1  0.00081985  0.82294463  0.77035030  1
  Ta  Ta102  1  0.91236920  0.11864987  0.13547976  1
  Ta  Ta103  1  0.40049120  -0.00803493  0.24849301  1
  Ta  Ta104  1  0.01996196  0.22482158  0.75302283  1
  Ta  Ta105  1  0.21199701  0.60678283  0.24189291  1
  Ta  Ta106  1  0.41936871  0.58113745  -0.00121394  1
  Ta  Ta107  1  0.00719313  0.79735368  0.25526308  1
  Ta  Ta108  1  0.69889106  0.10330536  0.12312819  1
  Ta  Ta109  1  0.38112759  0.19600822  0.50505320  1
  Ta  Ta110  1  0.80012003  0.79089867  0.00622010  1
  Ta  Ta111  1  0.80939857  0.59563477  0.01123822  1
  Ta  Ta112  1  0.69568936  0.09939481  0.61991832  1
  Ta  Ta113  1  0.80010990  0.60470487  0.24582842  1
  Ta  Ta114  1  0.18719246  0.38978334  0.75667765  1
  Ta  Ta115  1  0.90405930  0.30417728  0.35755610  1
  Ta  Ta116  1  0.19175600  0.80173996  0.48997251  1
  Ta  Ta117  1  0.80169376  -0.00021398  0.50326714  1
  Ta  Ta118  1  0.89804420  0.90241599  0.62714378  1
  Ta  Ta119  1  0.58679148  0.40911387  -0.00720050  1
  Ti  Ti120  1  0.40117674  0.38804782  -0.00270342  1
  Ti  Ti121  1  0.71022459  0.48841431  0.88414467  1
  Ti  Ti122  1  0.70471743  0.50414103  0.37994101  1
  Ti  Ti123  1  0.29200143  0.89360387  0.37405865  1
  Ti  Ti124  1  0.00417245  0.59922490  0.00981141  1
  Ti  Ti125  1  0.40704452  0.58960508  0.48488887  1
  Ti  Ti126  1  0.80593364  0.79987717  0.49614180  1
  Ti  Ti127  1  0.80530948  -0.00147396  0.74388306  1
  Ti  Ti128  1  0.60607440  0.59942032  0.26830259  1
  Ti  Ti129  1  0.09485347  0.31543907  0.35434176  1
  Ti  Ti130  1  0.20546237  0.21325013  0.75419065  1
  Ti  Ti131  1  0.28538865  0.30024181  0.88970339  1
  Ti  Ti132  1  0.29118258  0.49441837  0.38045858  1
  Ti  Ti133  1  0.40145328  0.01153925  0.00338315  1
  Ti  Ti134  1  0.70058898  0.70271109  0.38348816  1
  Ti  Ti135  1  0.90654053  0.69409378  0.88381743  1
  Ti  Ti136  1  0.11171082  0.71002097  0.62011617  1
  Ti  Ti137  1  0.90989202  0.48760099  0.12848846  1
  Ti  Ti138  1  0.10089303  0.10897516  0.87347044  1
  Ti  Ti139  1  0.30005900  0.09767515  0.12771356  1
  Ti  Ti140  1  0.21146321  0.60078360  0.01504258  1
  Ti  Ti141  1  0.60553077  0.59145513  -0.00528373  1
  Ti  Ti142  1  0.37654900  0.39646060  0.75208141  1
  Ti  Ti143  1  0.19396191  0.59261713  0.49173505  1
  Ti  Ti144  1  0.79774618  0.20873692  0.24238237  1
  Ti  Ti145  1  0.29949933  0.69505207  0.60394261  1
  Ti  Ti146  1  0.09565253  0.30278997  0.89238399  1
  Ti  Ti147  1  0.78944193  0.79325911  0.24828588  1
  Ti  Ti148  1  0.90150060  0.69570048  0.13299687  1
  Ti  Ti149  1  0.01000314  0.60857584  0.49502003  1
  Ti  Ti150  1  0.70013916  0.29993611  0.37520871  1
  Ti  Ti151  1  0.67894972  0.30549646  0.62533790  1
  Ti  Ti152  1  0.19219256  0.39972240  0.01664773  1
  Ti  Ti153  1  0.10847605  0.12040441  0.35856873  1
  Ti  Ti154  1  0.78155027  0.40814762  0.74616852  1
  Ti  Ti155  1  0.68654656  0.30410450  0.87287487  1
  Ti  Ti156  1  0.89991660  0.69953885  0.35859859  1
  Ti  Ti157  1  0.40291448  0.39674302  0.26712381  1
  Ti  Ti158  1  0.60496444  -0.00237102  -0.00490107  1
  Ti  Ti159  1  0.30010297  0.29094186  0.12327809  1
  Mo  Mo160  1  0.19920879  0.39294601  0.48994683  1
  Mo  Mo161  1  0.50154068  0.49318394  0.87132195  1
  Mo  Mo162  1  0.30699241  0.90355056  0.12357677  1
  Mo  Mo163  1  0.60462865  0.39795239  0.75167593  1
  Mo  Mo164  1  0.60284861  0.39245226  0.48823618  1
  Mo  Mo165  1  0.88692182  0.30679873  0.13848565  1
  Mo  Mo166  1  0.09453269  0.91918803  0.87777427  1
  Mo  Mo167  1  0.38809470  0.79566731  0.50711515  1
  Mo  Mo168  1  0.09915944  0.70261678  0.88943675  1
  Mo  Mo169  1  0.00141943  0.01135010  0.75217429  1
  Mo  Mo170  1  0.50363648  0.49453386  0.39220919  1
  Mo  Mo171  1  -0.01448686  0.40269784  0.00562022  1
  Mo  Mo172  1  0.19921242  0.19616398  0.22801014  1
  Mo  Mo173  1  0.00692888  0.60001323  0.23258273  1
  Mo  Mo174  1  0.60458763  0.20412181  0.74896124  1
  Mo  Mo175  1  -0.00132425  0.20305474  0.25672937  1
  Mo  Mo176  1  0.38617854  0.20653478  0.74700689  1
  Mo  Mo177  1  0.50475177  0.49029692  0.12733052  1
  Mo  Mo178  1  0.60292466  0.79492076  0.49050723  1
  Mo  Mo179  1  0.70606748  0.69804396  0.12915857  1
  Mo  Mo180  1  -0.00357600  0.40855346  0.24617639  1
  Mo  Mo181  1  0.09974725  0.10220278  0.13092377  1
  Mo  Mo182  1  0.50907264  0.69349179  0.38631833  1
  Mo  Mo183  1  0.30591306  0.69296673  0.12513992  1
  Mo  Mo184  1  0.20294397  0.79449633  0.25195609  1
  Mo  Mo185  1  0.10206846  0.50637726  0.10925700  1
  Mo  Mo186  1  0.19721098  0.20363159  0.49811420  1
  Mo  Mo187  1  0.61227954  0.59098588  0.48344683  1
  Mo  Mo188  1  0.11560738  0.50653690  0.36991661  1
  Mo  Mo189  1  0.10965343  0.31060402  0.62891204  1
  Mo  Mo190  1  0.38699860  0.20460752  0.00666394  1
  Mo  Mo191  1  0.10614503  0.89617397  0.36114411  1
  Mo  Mo192  1  0.48742860  0.28506025  0.37477012  1
  Mo  Mo193  1  0.89576780  0.50991790  0.62164288  1
  Mo  Mo194  1  0.89454305  0.51212390  0.89105453  1
  Mo  Mo195  1  0.79082104  0.41146036  0.00453540  1
  Mo  Mo196  1  0.70410346  0.89680636  0.89529940  1
  Mo  Mo197  1  0.28193631  0.29322634  0.62015749  1
  Mo  Mo198  1  0.59883490  0.00229352  0.49879797  1
  Mo  Mo199  1  0.39537171  -0.00743268  0.73958295  1
