# generated using pymatgen
data_HfZrTaTiMo
_symmetry_space_group_name_H-M   'P 1'
_cell_length_a   15.21373997
_cell_length_b   15.21505746
_cell_length_c   16.83563503
_cell_angle_alpha   89.97396857
_cell_angle_beta   89.95498646
_cell_angle_gamma   90.08204214
_symmetry_Int_Tables_number   1
_chemical_formula_structural   HfZrTaTiMo
_chemical_formula_sum   'Hf40 Zr40 Ta40 Ti40 Mo40'
_cell_volume   3897.07230935
_cell_formula_units_Z   40
loop_
 _symmetry_equiv_pos_site_id
 _symmetry_equiv_pos_as_xyz
  1  'x, y, z'
loop_
 _atom_site_type_symbol
 _atom_site_label
 _atom_site_symmetry_multiplicity
 _atom_site_fract_x
 _atom_site_fract_y
 _atom_site_fract_z
 _atom_site_occupancy
  Hf  Hf0  1  0.67967818  0.08286652  0.37985170  1
  Hf  Hf1  1  0.00135496  0.39587748  0.25050940  1
  Hf  Hf2  1  0.51111704  0.70724456  0.14720504  1
  Hf  Hf3  1  0.89616523  0.50844061  0.62726974  1
  Hf  Hf4  1  0.41526085  0.79607049  0.74894614  1
  Hf  Hf5  1  0.20454254  0.20650888  0.23651376  1
  Hf  Hf6  1  0.58958717  0.39664787  0.49368169  1
  Hf  Hf7  1  0.10430393  0.68816202  0.12667628  1
  Hf  Hf8  1  0.49673445  0.28570210  0.62065663  1
  Hf  Hf9  1  0.69109159  0.51088913  0.61697078  1
  Hf  Hf10  1  0.31108863  0.12144390  0.37296616  1
  Hf  Hf11  1  0.10474609  0.10107859  0.38051876  1
  Hf  Hf12  1  0.50712386  0.89041834  0.62212924  1
  Hf  Hf13  1  0.20276466  0.80547128  0.49368015  1
  Hf  Hf14  1  0.10614287  0.29588789  0.64704677  1
  Hf  Hf15  1  0.59926053  0.39340297  0.26228511  1
  Hf  Hf16  1  0.20827059  0.00273553  0.76002706  1
  Hf  Hf17  1  0.51486924  0.91387178  0.35441394  1
  Hf  Hf18  1  0.19313931  0.19642954  -0.01024684  1
  Hf  Hf19  1  0.78556371  0.58996444  0.00191447  1
  Hf  Hf20  1  0.60041905  0.18913277  0.23968354  1
  Hf  Hf21  1  0.40990351  0.80087314  0.48143566  1
  Hf  Hf22  1  0.31269375  0.70485464  0.12317845  1
  Hf  Hf23  1  0.80150121  0.42139629  0.48601659  1
  Hf  Hf24  1  0.47784074  0.28489445  0.37753541  1
  Hf  Hf25  1  0.09381445  0.50041506  0.37820731  1
  Hf  Hf26  1  -0.00377184  -0.01295778  0.49706071  1
  Hf  Hf27  1  0.50040446  0.51432312  0.13496804  1
  Hf  Hf28  1  0.09488924  0.70051512  0.87845716  1
  Hf  Hf29  1  0.20410374  0.60083925  0.76001906  1
  Hf  Hf30  1  0.88182379  0.28822629  0.10924346  1
  Hf  Hf31  1  0.79632761  0.19819063  0.75203402  1
  Hf  Hf32  1  0.10060954  0.90501506  0.62606914  1
  Hf  Hf33  1  0.58697780  0.61468314  0.74528527  1
  Hf  Hf34  1  0.79856983  0.38834870  0.26587251  1
  Hf  Hf35  1  0.80280884  -0.00721033  -0.01199067  1
  Hf  Hf36  1  0.29487355  0.51012506  0.12132404  1
  Hf  Hf37  1  0.20234135  0.80655818  0.25397977  1
  Hf  Hf38  1  -0.00767877  0.79289262  0.01060494  1
  Hf  Hf39  1  0.79159929  0.58943963  0.26293690  1
  Zr  Zr40  1  0.38633800  0.00717084  0.22902646  1
  Zr  Zr41  1  0.31090837  0.11209321  0.63018361  1
  Zr  Zr42  1  0.68881033  0.69908134  0.87992047  1
  Zr  Zr43  1  0.79381914  0.60813272  0.75340439  1
  Zr  Zr44  1  0.69604823  0.11480040  0.59970183  1
  Zr  Zr45  1  -0.00089291  0.19792044  0.24992249  1
  Zr  Zr46  1  0.20883309  0.79725492  0.74484149  1
  Zr  Zr47  1  0.89641029  0.48827867  0.88189891  1
  Zr  Zr48  1  0.79954927  0.79246665  0.25545077  1
  Zr  Zr49  1  0.18548926  0.41539509  -0.00648174  1
  Zr  Zr50  1  0.88028308  0.09936918  0.39985031  1
  Zr  Zr51  1  0.79653513  -0.00420244  0.75695077  1
  Zr  Zr52  1  0.40970450  0.01581487  0.49683643  1
  Zr  Zr53  1  0.09900393  0.49624287  0.63502152  1
  Zr  Zr54  1  0.51135971  0.31348798  0.10886731  1
  Zr  Zr55  1  0.32286339  0.69204557  0.61124523  1
  Zr  Zr56  1  0.59101844  -0.00429247  0.00224793  1
  Zr  Zr57  1  0.50150300  0.29521971  0.89001636  1
  Zr  Zr58  1  -0.00282420  -0.00191964  0.76124729  1
  Zr  Zr59  1  0.70051279  0.27499473  0.39932778  1
  Zr  Zr60  1  0.70788508  0.30527101  0.88585000  1
  Zr  Zr61  1  0.59819481  0.40735201  0.75283552  1
  Zr  Zr62  1  0.09997259  0.68747772  0.61328383  1
  Zr  Zr63  1  -0.00548829  0.59982036  0.24720894  1
  Zr  Zr64  1  0.20595583  0.21079113  0.50791938  1
  Zr  Zr65  1  0.10578787  0.91795032  0.13470415  1
  Zr  Zr66  1  -0.01162868  -0.00590266  0.26637945  1
  Zr  Zr67  1  -0.01204567  0.79186739  0.73986391  1
  Zr  Zr68  1  0.00238743  0.38411661  0.50231464  1
  Zr  Zr69  1  0.20956441  0.20137850  0.76972748  1
  Zr  Zr70  1  0.40079276  0.20623815  0.22169642  1
  Zr  Zr71  1  0.00971728  -0.00067640  -0.01941902  1
  Zr  Zr72  1  0.40247680  0.59911021  0.75971681  1
  Zr  Zr73  1  0.20783407  0.40541429  0.50499524  1
  Zr  Zr74  1  0.90147396  0.09610900  0.61553789  1
  Zr  Zr75  1  0.39667954  0.39640743  0.75373874  1
  Zr  Zr76  1  0.71000808  0.10332910  0.11661823  1
  Zr  Zr77  1  0.89930390  0.49083192  0.11826711  1
  Zr  Zr78  1  0.90994547  0.08956422  0.11988112  1
  Zr  Zr79  1  0.20473156  0.81143578  0.00625316  1
  Ta  Ta80  1  0.79973689  0.19299859  0.25469255  1
  Ta  Ta81  1  -0.00740845  0.59926618  0.75217654  1
  Ta  Ta82  1  0.39596634  -0.00371876  0.01622722  1
  Ta  Ta83  1  0.69409824  0.48672023  0.13186152  1
  Ta  Ta84  1  0.29517402  0.30765595  0.10235047  1
  Ta  Ta85  1  0.29196433  0.91739503  0.37055843  1
  Ta  Ta86  1  0.60184859  -0.01375802  0.50224820  1
  Ta  Ta87  1  0.31556020  0.90045846  0.87645498  1
  Ta  Ta88  1  0.59911906  0.19381575  0.75191321  1
  Ta  Ta89  1  0.41216186  0.19269713  0.76292508  1
  Ta  Ta90  1  0.51133298  0.70126994  0.35693712  1
  Ta  Ta91  1  0.30655434  0.90364188  0.62176188  1
  Ta  Ta92  1  -0.00432033  0.79360398  0.24851340  1
  Ta  Ta93  1  0.30968943  0.70913782  0.88654244  1
  Ta  Ta94  1  0.60025864  0.60475347  0.48438228  1
  Ta  Ta95  1  0.30493772  0.30294187  0.89283226  1
  Ta  Ta96  1  0.48852074  0.51244316  0.60964629  1
  Ta  Ta97  1  0.20496673  0.60555573  -0.00935271  1
  Ta  Ta98  1  0.49383529  0.49666560  0.37066221  1
  Ta  Ta99  1  0.90637568  0.30273311  0.63827267  1
  Ta  Ta100  1  0.59798836  0.00458834  0.74950700  1
  Ta  Ta101  1  0.20279538  0.60205436  0.26225178  1
  Ta  Ta102  1  0.60751854  0.43203484  -0.00968511  1
  Ta  Ta103  1  0.39112696  0.60158679  0.26587134  1
  Ta  Ta104  1  0.69542201  0.89012618  0.12713025  1
  Ta  Ta105  1  0.79407209  0.79287577  0.00904283  1
  Ta  Ta106  1  -0.00255959  0.19327143  0.76784617  1
  Ta  Ta107  1  0.38621354  0.39967504  0.24590199  1
  Ta  Ta108  1  0.21007724  0.00436618  -0.00943112  1
  Ta  Ta109  1  0.69477167  0.89204701  0.87438638  1
  Ta  Ta110  1  0.91135137  0.29233937  0.38159551  1
  Ta  Ta111  1  0.08907963  0.30718166  0.11215049  1
  Ta  Ta112  1  0.78732058  -0.00663884  0.25444757  1
  Ta  Ta113  1  0.09532995  0.70275876  0.38003074  1
  Ta  Ta114  1  0.79990839  0.40231838  0.74788124  1
  Ta  Ta115  1  0.90033579  0.69614164  0.38390040  1
  Ta  Ta116  1  0.00925921  0.58550779  0.00699991  1
  Ta  Ta117  1  -0.01117484  0.79519566  0.50554537  1
  Ta  Ta118  1  0.08777838  0.30933800  0.87224740  1
  Ta  Ta119  1  0.89279926  0.89275165  0.12678601  1
  Ti  Ti120  1  0.89794585  0.29821547  0.88200483  1
  Ti  Ti121  1  0.80069896  0.80359019  0.49324032  1
  Ti  Ti122  1  0.20901160  0.60342264  0.48532998  1
  Ti  Ti123  1  0.61001841  0.79855872  0.48874750  1
  Ti  Ti124  1  0.40157388  0.59944945  0.47865872  1
  Ti  Ti125  1  0.40430305  0.41528811  -0.00371440  1
  Ti  Ti126  1  0.89820399  0.69325575  0.88350650  1
  Ti  Ti127  1  0.59705352  0.79255946  0.00377975  1
  Ti  Ti128  1  0.60939139  0.80678946  0.74662030  1
  Ti  Ti129  1  0.42046320  0.61009311  -0.00996474  1
  Ti  Ti130  1  0.20512811  0.00291524  0.50410526  1
  Ti  Ti131  1  0.10919968  0.89439972  0.87117277  1
  Ti  Ti132  1  0.11355994  0.29814424  0.37309616  1
  Ti  Ti133  1  0.19692499  0.40408190  0.23920026  1
  Ti  Ti134  1  0.69080378  0.09958855  0.87974463  1
  Ti  Ti135  1  0.32215576  0.09644408  0.88066691  1
  Ti  Ti136  1  -0.00387578  0.19502611  -0.01657821  1
  Ti  Ti137  1  0.29823399  0.48975569  0.37096482  1
  Ti  Ti138  1  0.41163641  0.80864511  0.00363552  1
  Ti  Ti139  1  0.09822915  0.10253192  0.62602481  1
  Ti  Ti140  1  -0.01624118  0.59538057  0.49700712  1
  Ti  Ti141  1  0.09648931  0.89751759  0.37369077  1
  Ti  Ti142  1  0.10439234  0.10545016  0.12200327  1
  Ti  Ti143  1  0.69787348  0.68858980  0.13032581  1
  Ti  Ti144  1  0.40347936  0.18668723  0.00939570  1
  Ti  Ti145  1  0.71168514  0.90394312  0.62201057  1
  Ti  Ti146  1  0.30607856  0.50458004  0.88311077  1
  Ti  Ti147  1  0.60687843  0.20028931  0.00509151  1
  Ti  Ti148  1  0.89496505  0.88177142  0.87643876  1
  Ti  Ti149  1  0.08991388  0.50106229  0.86687961  1
  Ti  Ti150  1  0.20554129  0.40235541  0.76446384  1
  Ti  Ti151  1  0.70545422  0.30682635  0.61729296  1
  Ti  Ti152  1  0.70031657  0.70865788  0.61354602  1
  Ti  Ti153  1  0.50238395  0.89834893  0.13905519  1
  Ti  Ti154  1  0.39321974  0.80296746  0.26096446  1
  Ti  Ti155  1  0.50361875  0.90368105  0.87406283  1
  Ti  Ti156  1  0.41129866  0.00154236  0.74947966  1
  Ti  Ti157  1  0.38970935  0.39554551  0.50213117  1
  Ti  Ti158  1  0.29937401  0.49706263  0.62697788  1
  Ti  Ti159  1  0.79947425  0.79890925  0.74234118  1
  Mo  Mo160  1  0.19542822  0.00760421  0.25334776  1
  Mo  Mo161  1  0.80155180  0.19027888  -0.01522663  1
  Mo  Mo162  1  0.10432088  0.09846871  0.87481700  1
  Mo  Mo163  1  0.50285002  0.09852124  0.11204538  1
  Mo  Mo164  1  0.01119597  0.19887878  0.50593192  1
  Mo  Mo165  1  -0.00581325  0.39619392  0.75567118  1
  Mo  Mo166  1  0.28702007  0.09955766  0.11128418  1
  Mo  Mo167  1  0.69587260  0.50148216  0.86838148  1
  Mo  Mo168  1  0.90221306  0.49932720  0.37798482  1
  Mo  Mo169  1  0.82855814  0.23120636  0.51616009  1
  Mo  Mo170  1  0.79453140  0.61533345  0.49266750  1
  Mo  Mo171  1  0.29228723  0.31416117  0.36530838  1
  Mo  Mo172  1  0.50610201  0.09327027  0.63308978  1
  Mo  Mo173  1  0.69949246  0.70314290  0.38082641  1
  Mo  Mo174  1  0.88930382  0.89108677  0.62253146  1
  Mo  Mo175  1  0.10469433  0.49689664  0.12783328  1
  Mo  Mo176  1  0.49873671  0.72359719  0.88191778  1
  Mo  Mo177  1  0.30550937  0.31206991  0.63905669  1
  Mo  Mo178  1  0.70257891  0.30703469  0.11526178  1
  Mo  Mo179  1  0.59647524  0.60973750  0.00829486  1
  Mo  Mo180  1  0.29899669  0.70259421  0.37523658  1
  Mo  Mo181  1  0.39460633  0.21195023  0.50461633  1
  Mo  Mo182  1  0.49756056  0.09891279  0.36793859  1
  Mo  Mo183  1  0.50145492  0.51448270  0.88287363  1
  Mo  Mo184  1  -0.00165760  0.39099196  -0.00066658  1
  Mo  Mo185  1  0.60256839  -0.00343634  0.23314660  1
  Mo  Mo186  1  0.70515675  0.89602208  0.37600047  1
  Mo  Mo187  1  0.79262827  0.39514201  0.00256053  1
  Mo  Mo188  1  0.30590983  0.89612599  0.12563017  1
  Mo  Mo189  1  0.89257980  0.70083479  0.11985419  1
  Mo  Mo190  1  0.90385719  0.88859479  0.37399114  1
  Mo  Mo191  1  0.56450825  0.17755361  0.49565792  1
  Mo  Mo192  1  0.51613505  0.69309457  0.60797395  1
  Mo  Mo193  1  0.50128882  0.09446018  0.87623559  1
  Mo  Mo194  1  0.88823181  0.70171107  0.61257849  1
  Mo  Mo195  1  0.89277856  0.10444642  0.87567909  1
  Mo  Mo196  1  0.60774934  0.80170263  0.24950382  1
  Mo  Mo197  1  0.60324697  0.59400186  0.26422229  1
  Mo  Mo198  1  0.79257216  -0.02505488  0.49837870  1
  Mo  Mo199  1  0.68888955  0.50138976  0.37709052  1
