# generated using pymatgen
data_HfZrTaTiMo
_symmetry_space_group_name_H-M   'P 1'
_cell_length_a   15.21052021
_cell_length_b   15.21190073
_cell_length_c   16.81510941
_cell_angle_alpha   90.02321174
_cell_angle_beta   90.07295766
_cell_angle_gamma   89.90612831
_symmetry_Int_Tables_number   1
_chemical_formula_structural   HfZrTaTiMo
_chemical_formula_sum   'Hf40 Zr40 Ta40 Ti40 Mo40'
_cell_volume   3890.68685070
_cell_formula_units_Z   40
loop_
 _symmetry_equiv_pos_site_id
 _symmetry_equiv_pos_as_xyz
  1  'x, y, z'
loop_
 _atom_site_type_symbol
 _atom_site_label
 _atom_site_symmetry_multiplicity
 _atom_site_fract_x
 _atom_site_fract_y
 _atom_site_fract_z
 _atom_site_occupancy
  Hf  Hf0  1  0.79307427  0.59785026  0.00032922  1
  Hf  Hf1  1  0.29433902  0.51322702  0.87187784  1
  Hf  Hf2  1  0.90892815  0.11866387  0.88882657  1
  Hf  Hf3  1  0.90683373  0.88196906  0.38382859  1
  Hf  Hf4  1  0.08739675  0.69962555  0.39718471  1
  Hf  Hf5  1  0.88082922  0.49547435  0.37431967  1
  Hf  Hf6  1  0.49770646  0.30189407  0.86709928  1
  Hf  Hf7  1  0.11412294  0.69691982  0.10449076  1
  Hf  Hf8  1  0.89953575  0.32021325  0.14702315  1
  Hf  Hf9  1  0.71906229  0.29848903  0.62170386  1
  Hf  Hf10  1  0.39849969  0.20408800  0.01132388  1
  Hf  Hf11  1  0.49264957  0.50418901  0.85115572  1
  Hf  Hf12  1  0.30669777  0.10587527  0.38522236  1
  Hf  Hf13  1  0.59525580  0.79086910  -0.00006553  1
  Hf  Hf14  1  0.69131864  0.09917979  0.60752118  1
  Hf  Hf15  1  0.09874490  0.49743114  0.38786570  1
  Hf  Hf16  1  0.11101353  0.09908861  0.87911058  1
  Hf  Hf17  1  0.69467268  0.90320206  0.12503467  1
  Hf  Hf18  1  0.00053684  0.78858801  0.24096707  1
  Hf  Hf19  1  0.47956080  0.70020282  0.86948107  1
  Hf  Hf20  1  0.19705694  0.60448469  0.25435759  1
  Hf  Hf21  1  0.09899684  0.68882868  0.88999704  1
  Hf  Hf22  1  0.10334595  0.29797990  0.13709689  1
  Hf  Hf23  1  0.57691569  0.58402915  0.00719646  1
  Hf  Hf24  1  0.68868309  0.69691043  0.86385464  1
  Hf  Hf25  1  0.40746837  0.21219048  0.50493069  1
  Hf  Hf26  1  0.61069951  0.21038608  0.48657697  1
  Hf  Hf27  1  0.49297295  0.90301881  0.12154238  1
  Hf  Hf28  1  0.00587107  0.00100288  0.00927426  1
  Hf  Hf29  1  0.11755310  0.09237539  0.36877811  1
  Hf  Hf30  1  0.01845248  -0.00978737  0.50990017  1
  Hf  Hf31  1  0.30605540  0.30890033  0.37079034  1
  Hf  Hf32  1  0.90024527  0.12150382  0.60648243  1
  Hf  Hf33  1  0.22389266  -0.00144169  -0.00242728  1
  Hf  Hf34  1  0.51155831  0.30193164  0.13858013  1
  Hf  Hf35  1  0.79347801  0.00206522  0.48498100  1
  Hf  Hf36  1  0.51296412  0.31659247  0.62709954  1
  Hf  Hf37  1  0.52268668  0.10316376  0.89522662  1
  Hf  Hf38  1  0.80325351  0.38834073  0.76229283  1
  Hf  Hf39  1  0.80117578  0.78650615  0.25342919  1
  Zr  Zr40  1  0.80161177  -0.00071786  0.74395451  1
  Zr  Zr41  1  0.32210233  0.89217949  0.62044673  1
  Zr  Zr42  1  0.69927455  0.31824008  0.35118839  1
  Zr  Zr43  1  -0.01112725  0.58909108  0.24723546  1
  Zr  Zr44  1  0.10674021  0.89502899  0.37599474  1
  Zr  Zr45  1  0.28319279  0.71005086  0.86367519  1
  Zr  Zr46  1  0.69855560  0.48317934  0.13029209  1
  Zr  Zr47  1  0.29105998  0.70358245  0.39340608  1
  Zr  Zr48  1  0.11800100  0.09127810  0.13415394  1
  Zr  Zr49  1  0.48149091  0.69047404  0.13318480  1
  Zr  Zr50  1  0.01125880  0.79923309  0.73376663  1
  Zr  Zr51  1  0.41895967  0.00469474  0.74268921  1
  Zr  Zr52  1  0.79714922  -0.01092640  0.25831551  1
  Zr  Zr53  1  0.29189070  0.29776820  0.62732675  1
  Zr  Zr54  1  0.59743565  0.80227650  0.26602594  1
  Zr  Zr55  1  0.60674878  0.00956260  0.74745202  1
  Zr  Zr56  1  0.59534233  0.58843964  0.25514400  1
  Zr  Zr57  1  0.90395440  0.09929098  0.37153544  1
  Zr  Zr58  1  0.60341971  0.37839601  -0.00052540  1
  Zr  Zr59  1  0.80223274  0.21063138  0.01310161  1
  Zr  Zr60  1  -0.02230364  0.38466486  0.49132326  1
  Zr  Zr61  1  0.80250813  0.80711258  0.00480284  1
  Zr  Zr62  1  0.30076369  0.90881415  0.38678812  1
  Zr  Zr63  1  0.29791366  0.29897385  0.86905975  1
  Zr  Zr64  1  0.90539352  0.90933316  0.87699546  1
  Zr  Zr65  1  0.09336983  0.49654295  0.11677559  1
  Zr  Zr66  1  0.00572316  0.00991975  0.73871513  1
  Zr  Zr67  1  0.68908873  0.49387346  0.86377347  1
  Zr  Zr68  1  0.68441986  0.69386910  0.62902258  1
  Zr  Zr69  1  0.01263492  0.20512061  0.48393173  1
  Zr  Zr70  1  0.90120875  0.70188012  0.87402834  1
  Zr  Zr71  1  0.80601783  0.19112349  0.75507053  1
  Zr  Zr72  1  0.36855471  0.79434733  0.00883825  1
  Zr  Zr73  1  0.00647114  0.58981723  0.74459643  1
  Zr  Zr74  1  0.09086678  0.49662593  0.60370648  1
  Zr  Zr75  1  0.18482355  0.40604917  0.74997774  1
  Zr  Zr76  1  0.21021875  -0.00524990  0.74423061  1
  Zr  Zr77  1  0.57930200  0.81585041  0.75202102  1
  Zr  Zr78  1  -0.00195667  0.38149322  -0.00522122  1
  Zr  Zr79  1  0.79638304  0.80318472  0.74407279  1
  Ta  Ta80  1  0.00552722  -0.00944132  0.24408597  1
  Ta  Ta81  1  0.11764492  0.11129540  0.61715537  1
  Ta  Ta82  1  0.69037646  0.89718546  0.60643014  1
  Ta  Ta83  1  0.19850605  0.20623371  0.00617197  1
  Ta  Ta84  1  0.18718720  0.80677911  0.52391804  1
  Ta  Ta85  1  0.60219787  0.20043509  0.74575327  1
  Ta  Ta86  1  0.50738691  0.09542893  0.12191484  1
  Ta  Ta87  1  0.90033976  0.68796186  0.61320225  1
  Ta  Ta88  1  0.30305483  0.31360415  0.13076873  1
  Ta  Ta89  1  0.20713746  0.41146739  0.25151689  1
  Ta  Ta90  1  0.69675399  0.69592789  0.12674769  1
  Ta  Ta91  1  0.30117906  0.49923940  0.60582574  1
  Ta  Ta92  1  0.39847559  0.00475192  0.25121801  1
  Ta  Ta93  1  0.78759510  0.58572145  0.50971526  1
  Ta  Ta94  1  0.90403801  0.10646696  0.13447342  1
  Ta  Ta95  1  0.40695447  0.60454414  0.50510745  1
  Ta  Ta96  1  0.38847219  0.59690939  0.26342580  1
  Ta  Ta97  1  0.49929259  0.49027246  0.38426781  1
  Ta  Ta98  1  0.80304345  0.40001129  -0.00873553  1
  Ta  Ta99  1  0.49992591  0.51382213  0.63331935  1
  Ta  Ta100  1  0.69002640  0.91601228  0.88826468  1
  Ta  Ta101  1  0.20300762  0.80191777  0.24859141  1
  Ta  Ta102  1  0.69431789  0.10397011  0.13941804  1
  Ta  Ta103  1  0.48816904  0.71948174  0.62194141  1
  Ta  Ta104  1  0.88448198  0.48406893  0.62325020  1
  Ta  Ta105  1  0.68479338  0.48927832  0.63800425  1
  Ta  Ta106  1  0.48862597  0.90732588  0.89433993  1
  Ta  Ta107  1  0.40332865  0.41674709  0.00604182  1
  Ta  Ta108  1  0.40423272  0.19784232  0.24313773  1
  Ta  Ta109  1  0.89400935  0.89614436  0.61038183  1
  Ta  Ta110  1  0.00569156  0.19715908  0.25551719  1
  Ta  Ta111  1  0.29444890  0.90761887  0.13621984  1
  Ta  Ta112  1  0.90474143  0.50133489  0.87700657  1
  Ta  Ta113  1  0.30173300  0.49999265  0.39629275  1
  Ta  Ta114  1  0.80209195  0.59362186  0.74245313  1
  Ta  Ta115  1  0.49957898  0.30330800  0.36300491  1
  Ta  Ta116  1  0.11221337  0.88782427  0.87701040  1
  Ta  Ta117  1  0.79064903  0.79012818  0.49909494  1
  Ta  Ta118  1  0.21055903  0.39942499  0.00113538  1
  Ta  Ta119  1  0.19956554  0.19502722  0.75062843  1
  Ti  Ti120  1  0.38690308  0.61816408  0.72819012  1
  Ti  Ti121  1  0.40041567  0.41492632  0.24648051  1
  Ti  Ti122  1  0.77940115  0.39371680  0.49446465  1
  Ti  Ti123  1  0.49550024  0.69378341  0.37697215  1
  Ti  Ti124  1  0.89750304  0.68736373  0.39505783  1
  Ti  Ti125  1  0.59326025  -0.00328102  0.26571548  1
  Ti  Ti126  1  -0.00553149  0.39346164  0.75621968  1
  Ti  Ti127  1  0.41932254  0.00603211  0.50655678  1
  Ti  Ti128  1  0.70490473  0.68686035  0.38036784  1
  Ti  Ti129  1  0.31746880  0.10152768  0.87393366  1
  Ti  Ti130  1  0.21750760  0.19534161  0.24460106  1
  Ti  Ti131  1  0.40724130  0.19454545  0.74003397  1
  Ti  Ti132  1  0.30544523  0.90010226  0.86604988  1
  Ti  Ti133  1  0.20380539  0.79259939  0.72651023  1
  Ti  Ti134  1  0.79690660  0.59846425  0.24331220  1
  Ti  Ti135  1  0.09981811  0.49813136  0.89014222  1
  Ti  Ti136  1  0.70309671  0.29106961  0.15261146  1
  Ti  Ti137  1  0.09466024  0.29076308  0.87764105  1
  Ti  Ti138  1  0.30237576  0.52016812  0.11984976  1
  Ti  Ti139  1  0.00396827  0.20894284  0.74702499  1
  Ti  Ti140  1  0.00044043  0.80232980  0.00398459  1
  Ti  Ti141  1  0.10554395  0.89433153  0.12576268  1
  Ti  Ti142  1  0.39548631  0.80129999  0.25939153  1
  Ti  Ti143  1  0.41313822  0.80584981  0.49146684  1
  Ti  Ti144  1  0.70213251  0.11192704  0.36139160  1
  Ti  Ti145  1  0.09229098  0.29512909  0.62485484  1
  Ti  Ti146  1  0.59682694  -0.00475482  0.47838038  1
  Ti  Ti147  1  0.59743664  0.59610178  0.49906455  1
  Ti  Ti148  1  0.90118492  0.90186274  0.12616699  1
  Ti  Ti149  1  0.10906989  0.29939969  0.35849098  1
  Ti  Ti150  1  0.90334880  0.68839312  0.11386653  1
  Ti  Ti151  1  0.39138782  0.40466302  0.73997617  1
  Ti  Ti152  1  0.19606391  0.60472828  0.72558866  1
  Ti  Ti153  1  0.69844395  0.27687850  0.87736602  1
  Ti  Ti154  1  0.30613656  0.10290883  0.61422145  1
  Ti  Ti155  1  0.89280372  0.29731977  0.35098170  1
  Ti  Ti156  1  0.19906137  0.38093048  0.49801916  1
  Ti  Ti157  1  0.50037555  0.10389539  0.37102388  1
  Ti  Ti158  1  0.79516776  0.01137451  0.00805982  1
  Ti  Ti159  1  0.59579502  0.80108877  0.48325855  1
  Mo  Mo160  1  0.00964984  0.19528651  0.01319674  1
  Mo  Mo161  1  0.10316775  0.90568451  0.62860437  1
  Mo  Mo162  1  0.69243241  0.51114949  0.37796810  1
  Mo  Mo163  1  0.21218054  0.59571343  0.00192432  1
  Mo  Mo164  1  0.61012255  0.19585632  0.01078038  1
  Mo  Mo165  1  0.59420430  0.18667305  0.25940804  1
  Mo  Mo166  1  0.80714713  0.21454972  0.48545663  1
  Mo  Mo167  1  0.69783003  0.89220369  0.38588322  1
  Mo  Mo168  1  0.40833983  0.40690490  0.50327610  1
  Mo  Mo169  1  -0.00886383  0.59301701  -0.00162082  1
  Mo  Mo170  1  0.40232011  0.00212880  0.00162320  1
  Mo  Mo171  1  0.19099026  0.81045368  0.00088472  1
  Mo  Mo172  1  0.70907233  0.09732725  0.88491620  1
  Mo  Mo173  1  0.49432150  0.90628410  0.37510926  1
  Mo  Mo174  1  0.48341662  0.49307637  0.13071003  1
  Mo  Mo175  1  0.20332152  0.20253160  0.49794148  1
  Mo  Mo176  1  0.59830951  0.39091484  0.75152873  1
  Mo  Mo177  1  0.59958602  0.41494012  0.49981045  1
  Mo  Mo178  1  0.39356506  0.80831965  0.74840933  1
  Mo  Mo179  1  -0.01678215  0.59317754  0.50366260  1
  Mo  Mo180  1  0.29752959  0.70654000  0.13900896  1
  Mo  Mo181  1  0.60754765  -0.00164154  0.00866266  1
  Mo  Mo182  1  0.90878397  0.30663533  0.62573031  1
  Mo  Mo183  1  0.80399255  0.19554343  0.24236084  1
  Mo  Mo184  1  0.90610281  0.30341224  0.87704267  1
  Mo  Mo185  1  0.59133941  0.60479744  0.74093782  1
  Mo  Mo186  1  0.21234794  0.00653058  0.51457945  1
  Mo  Mo187  1  0.50296953  0.10985877  0.61506707  1
  Mo  Mo188  1  0.80154699  0.41599061  0.24996218  1
  Mo  Mo189  1  0.00956420  0.39845941  0.26331676  1
  Mo  Mo190  1  0.58892484  0.40075750  0.25096537  1
  Mo  Mo191  1  -0.00792163  0.79570496  0.51604808  1
  Mo  Mo192  1  0.30239511  0.69480510  0.61109854  1
  Mo  Mo193  1  0.09739528  0.69651473  0.61236924  1
  Mo  Mo194  1  0.19950327  0.59781525  0.50712521  1
  Mo  Mo195  1  0.89505211  0.50520774  0.11846728  1
  Mo  Mo196  1  0.51556013  0.90584562  0.60660300  1
  Mo  Mo197  1  0.38832064  0.59488204  -0.00123283  1
  Mo  Mo198  1  0.20859420  -0.00373982  0.24774100  1
  Mo  Mo199  1  0.31385662  0.10358090  0.12847069  1
