# generated using pymatgen
data_HfZrTaTiMo
_symmetry_space_group_name_H-M   'P 1'
_cell_length_a   15.22181613
_cell_length_b   15.22403065
_cell_length_c   16.86747312
_cell_angle_alpha   89.99321179
_cell_angle_beta   89.91677762
_cell_angle_gamma   89.92940296
_symmetry_Int_Tables_number   1
_chemical_formula_structural   HfZrTaTiMo
_chemical_formula_sum   'Hf40 Zr40 Ta40 Ti40 Mo40'
_cell_volume   3908.81716961
_cell_formula_units_Z   40
loop_
 _symmetry_equiv_pos_site_id
 _symmetry_equiv_pos_as_xyz
  1  'x, y, z'
loop_
 _atom_site_type_symbol
 _atom_site_label
 _atom_site_symmetry_multiplicity
 _atom_site_fract_x
 _atom_site_fract_y
 _atom_site_fract_z
 _atom_site_occupancy
  Hf  Hf0  1  0.07533498  0.70634875  0.86797891  1
  Hf  Hf1  1  0.19284016  0.00219163  0.00730117  1
  Hf  Hf2  1  0.30384901  0.50454612  0.38928452  1
  Hf  Hf3  1  0.59064105  0.41022758  0.74046315  1
  Hf  Hf4  1  0.60104036  0.00673790  -0.01426097  1
  Hf  Hf5  1  0.60215801  0.60751101  0.73499219  1
  Hf  Hf6  1  0.50157184  0.29495295  0.36868044  1
  Hf  Hf7  1  0.82747343  0.79759145  0.74230364  1
  Hf  Hf8  1  0.80023453  0.00380242  0.25189146  1
  Hf  Hf9  1  -0.02932140  0.19708376  0.77135784  1
  Hf  Hf10  1  0.00291972  0.42898919  0.74672728  1
  Hf  Hf11  1  0.19994292  0.80324946  0.74087524  1
  Hf  Hf12  1  -0.00349090  -0.01322504  0.75476768  1
  Hf  Hf13  1  -0.00148318  0.78951883  0.24120201  1
  Hf  Hf14  1  0.31619902  0.90937880  0.13326235  1
  Hf  Hf15  1  0.60843182  0.01269227  0.50561239  1
  Hf  Hf16  1  0.40286812  0.60675061  0.24979111  1
  Hf  Hf17  1  0.19100155  0.18112561  0.49532511  1
  Hf  Hf18  1  0.90996635  0.89883408  0.37691773  1
  Hf  Hf19  1  0.19572920  0.39461593  0.25247199  1
  Hf  Hf20  1  0.79020575  0.79607125  0.25764228  1
  Hf  Hf21  1  0.71796278  0.10919057  0.11631964  1
  Hf  Hf22  1  0.50849472  0.08547087  0.13645247  1
  Hf  Hf23  1  0.89811116  0.52850480  0.87823942  1
  Hf  Hf24  1  0.19271712  0.18981970  0.76072666  1
  Hf  Hf25  1  0.71641761  0.69965015  0.87941507  1
  Hf  Hf26  1  0.08992041  0.09733948  0.63125803  1
  Hf  Hf27  1  0.59736848  0.20600184  -0.00545844  1
  Hf  Hf28  1  0.30037338  0.49285318  0.87288276  1
  Hf  Hf29  1  0.40279823  0.80208937  0.26325252  1
  Hf  Hf30  1  0.49839890  0.91320201  0.38457873  1
  Hf  Hf31  1  0.50252142  0.71907297  0.12054185  1
  Hf  Hf32  1  0.29399487  0.28564836  0.62371098  1
  Hf  Hf33  1  0.39800112  0.18305754  0.50061512  1
  Hf  Hf34  1  0.60479135  0.60863851  0.24957907  1
  Hf  Hf35  1  0.18197611  0.59064491  0.73318220  1
  Hf  Hf36  1  0.39973164  0.60847522  0.00147539  1
  Hf  Hf37  1  0.59235868  0.20320226  0.51243702  1
  Hf  Hf38  1  0.30470430  0.28576219  0.12398343  1
  Hf  Hf39  1  0.28564508  0.69546850  0.87251410  1
  Zr  Zr40  1  0.84511401  0.20499925  -0.03182681  1
  Zr  Zr41  1  0.40712549  0.40174745  0.24302027  1
  Zr  Zr42  1  0.59603842  0.40108181  -0.00327479  1
  Zr  Zr43  1  0.29719045  0.50117735  0.11631819  1
  Zr  Zr44  1  0.40529197  0.38532230  0.00390136  1
  Zr  Zr45  1  0.28750895  0.90882851  0.38170950  1
  Zr  Zr46  1  0.00798581  0.80499068  0.02004111  1
  Zr  Zr47  1  0.89282369  0.48428363  0.12657311  1
  Zr  Zr48  1  0.09409632  0.30371987  0.62914295  1
  Zr  Zr49  1  0.00585647  0.60315400  0.50004923  1
  Zr  Zr50  1  -0.01273691  0.61181911  0.02348391  1
  Zr  Zr51  1  0.89649478  0.30456286  0.62594371  1
  Zr  Zr52  1  0.30860744  0.49226133  0.61759419  1
  Zr  Zr53  1  0.60334352  0.39882608  0.51132268  1
  Zr  Zr54  1  0.69695502  0.50454449  0.12419417  1
  Zr  Zr55  1  0.70922737  0.91158225  0.62429916  1
  Zr  Zr56  1  -0.01017263  0.38106612  -0.00332914  1
  Zr  Zr57  1  0.40539571  -0.00899228  -0.00568972  1
  Zr  Zr58  1  0.09379219  0.28712023  0.12426117  1
  Zr  Zr59  1  0.70898728  0.09919883  0.86303922  1
  Zr  Zr60  1  0.91385252  0.90397393  0.60909797  1
  Zr  Zr61  1  0.79368832  0.20549739  0.25850602  1
  Zr  Zr62  1  0.09454105  0.29886023  0.87949739  1
  Zr  Zr63  1  0.78550934  0.19159351  0.49614410  1
  Zr  Zr64  1  0.29739846  0.29577239  0.37567061  1
  Zr  Zr65  1  0.60453885  0.80296207  0.74636568  1
  Zr  Zr66  1  0.20169105  0.60201867  0.24988282  1
  Zr  Zr67  1  0.69790995  0.68704495  0.38891217  1
  Zr  Zr68  1  0.18700149  0.80606232  0.50436470  1
  Zr  Zr69  1  0.59081905  0.81228961  -0.01203354  1
  Zr  Zr70  1  0.89405006  0.50476356  0.38032189  1
  Zr  Zr71  1  0.89027596  0.90405514  0.12478520  1
  Zr  Zr72  1  0.70613834  0.29180584  0.64238498  1
  Zr  Zr73  1  0.10504351  0.50810862  0.88910406  1
  Zr  Zr74  1  0.70201298  0.30909042  0.85781703  1
  Zr  Zr75  1  0.49866862  0.50344832  0.86765095  1
  Zr  Zr76  1  0.48622011  0.70843024  0.86646696  1
  Zr  Zr77  1  0.90363787  0.09860727  0.38387368  1
  Zr  Zr78  1  0.48398595  0.09106965  0.63646492  1
  Zr  Zr79  1  0.51234783  0.50503787  0.38020950  1
  Ta  Ta80  1  0.79649727  0.40464821  -0.00669633  1
  Ta  Ta81  1  0.20606863  0.19196150  -0.00132707  1
  Ta  Ta82  1  0.09816883  0.49476778  0.12407727  1
  Ta  Ta83  1  0.29753423  0.71164919  0.12224844  1
  Ta  Ta84  1  0.71186341  0.70052206  0.61306847  1
  Ta  Ta85  1  0.31440992  0.09121208  0.36589078  1
  Ta  Ta86  1  0.00148557  0.59426381  0.24252518  1
  Ta  Ta87  1  0.30496109  0.91746081  0.61659748  1
  Ta  Ta88  1  0.11174948  0.08119021  0.36027616  1
  Ta  Ta89  1  0.80808812  0.60214713  0.73823046  1
  Ta  Ta90  1  0.70906807  0.71190142  0.11468137  1
  Ta  Ta91  1  0.20152316  0.80090691  0.25361630  1
  Ta  Ta92  1  0.18958957  0.39776662  0.49644479  1
  Ta  Ta93  1  0.48333278  0.30587654  0.63998024  1
  Ta  Ta94  1  0.90048941  0.51073940  0.61495492  1
  Ta  Ta95  1  0.48764830  0.29289139  0.85854907  1
  Ta  Ta96  1  0.79463529  0.40133144  0.26061516  1
  Ta  Ta97  1  0.58924925  0.19282375  0.74894046  1
  Ta  Ta98  1  0.30098207  0.89009716  0.87613942  1
  Ta  Ta99  1  0.09001406  0.28925027  0.37348578  1
  Ta  Ta100  1  -0.00191700  0.18928007  0.25051507  1
  Ta  Ta101  1  0.10648302  0.90931698  0.14215799  1
  Ta  Ta102  1  0.68210622  0.90805267  0.12593537  1
  Ta  Ta103  1  0.91050401  0.88606616  0.88716765  1
  Ta  Ta104  1  0.30190943  0.69921046  0.39311450  1
  Ta  Ta105  1  0.80487956  0.60205198  0.24815506  1
  Ta  Ta106  1  0.02457943  -0.00085738  0.49320439  1
  Ta  Ta107  1  0.90163279  0.30387135  0.38125375  1
  Ta  Ta108  1  0.09805561  0.49316894  0.37307987  1
  Ta  Ta109  1  0.40529328  0.18588297  -0.00475086  1
  Ta  Ta110  1  0.59736636  0.59772919  0.51596980  1
  Ta  Ta111  1  0.10255653  0.69931752  0.37054425  1
  Ta  Ta112  1  0.30083067  0.70298170  0.61401823  1
  Ta  Ta113  1  0.72260823  0.90174218  0.86918252  1
  Ta  Ta114  1  0.49568944  0.89714468  0.62116475  1
  Ta  Ta115  1  0.60006096  0.81301533  0.25623576  1
  Ta  Ta116  1  0.80272454  0.79873253  0.49464978  1
  Ta  Ta117  1  -0.00642777  0.39127290  0.25288390  1
  Ta  Ta118  1  0.60466259  0.60435255  -0.00230452  1
  Ta  Ta119  1  0.40412941  0.19190255  0.24416178  1
  Ti  Ti120  1  0.81027371  -0.00284396  0.00062547  1
  Ti  Ti121  1  0.60070111  0.80166443  0.50482142  1
  Ti  Ti122  1  0.39518307  0.80102814  0.73721936  1
  Ti  Ti123  1  0.10702889  0.90428192  0.62628446  1
  Ti  Ti124  1  0.69363094  0.30164030  0.37348511  1
  Ti  Ti125  1  0.20509419  0.80246989  0.00689399  1
  Ti  Ti126  1  0.70137745  0.91225893  0.38376018  1
  Ti  Ti127  1  0.49608425  0.90538672  0.86123420  1
  Ti  Ti128  1  0.40654754  0.39621985  0.50232595  1
  Ti  Ti129  1  0.70909813  0.49934412  0.62485058  1
  Ti  Ti130  1  0.00375676  0.79833234  0.49128391  1
  Ti  Ti131  1  0.39201727  -0.00467886  0.75608981  1
  Ti  Ti132  1  0.60452754  0.39447186  0.24509111  1
  Ti  Ti133  1  0.19530463  0.59769588  0.50712081  1
  Ti  Ti134  1  0.18955576  0.61300581  0.01219800  1
  Ti  Ti135  1  0.08891925  0.09058373  0.88225085  1
  Ti  Ti136  1  0.90197300  0.69625832  0.37600356  1
  Ti  Ti137  1  0.40083393  0.80391940  0.50353606  1
  Ti  Ti138  1  0.00339446  0.39916878  0.49977261  1
  Ti  Ti139  1  0.49844917  0.70326425  0.39020075  1
  Ti  Ti140  1  0.08276719  0.70305118  0.62855856  1
  Ti  Ti141  1  0.30062357  0.09192842  0.87672712  1
  Ti  Ti142  1  0.87972068  0.09787654  0.62410371  1
  Ti  Ti143  1  -0.00337879  0.19831243  0.50035155  1
  Ti  Ti144  1  0.89238617  0.28108637  0.12618635  1
  Ti  Ti145  1  0.79478329  0.40494186  0.49265459  1
  Ti  Ti146  1  0.38717008  0.19216335  0.75611328  1
  Ti  Ti147  1  0.19968303  0.39432677  0.00307468  1
  Ti  Ti148  1  0.20272452  0.18804018  0.24902720  1
  Ti  Ti149  1  0.70655628  0.50547112  0.86980386  1
  Ti  Ti150  1  0.20548849  0.39539715  0.74952913  1
  Ti  Ti151  1  0.29847641  0.29464820  0.87735481  1
  Ti  Ti152  1  0.51471378  0.10115461  0.35990654  1
  Ti  Ti153  1  0.10469307  0.89936518  0.87829272  1
  Ti  Ti154  1  0.49287534  0.69892327  0.61746723  1
  Ti  Ti155  1  0.50395169  0.50178703  0.12318453  1
  Ti  Ti156  1  0.20348177  -0.00277338  0.75532612  1
  Ti  Ti157  1  0.70146696  0.30531233  0.12391420  1
  Ti  Ti158  1  0.39495015  0.59558051  0.73722486  1
  Ti  Ti159  1  0.60020372  -0.00126638  0.75220003  1
  Mo  Mo160  1  0.09772319  0.89732115  0.36024633  1
  Mo  Mo161  1  0.40168465  0.00056030  0.50154460  1
  Mo  Mo162  1  0.80628131  -0.00149046  0.49330759  1
  Mo  Mo163  1  0.91340776  0.10432125  0.12711137  1
  Mo  Mo164  1  0.50812033  0.89709354  0.13046055  1
  Mo  Mo165  1  0.89048790  0.69508795  0.13477946  1
  Mo  Mo166  1  -0.01320378  0.62197301  0.73564673  1
  Mo  Mo167  1  0.40837346  0.00233320  0.25287655  1
  Mo  Mo168  1  0.01085712  0.80078675  0.74785341  1
  Mo  Mo169  1  0.00217398  0.00101511  0.00361741  1
  Mo  Mo170  1  0.80186975  0.41889703  0.74383227  1
  Mo  Mo171  1  0.49784976  0.50424729  0.62297969  1
  Mo  Mo172  1  0.51242682  0.29100075  0.13323721  1
  Mo  Mo173  1  0.10057377  0.49908416  0.61633600  1
  Mo  Mo174  1  0.90073060  0.06626542  0.87670209  1
  Mo  Mo175  1  0.28742474  0.09189098  0.63639131  1
  Mo  Mo176  1  0.89171985  0.71256203  0.88000968  1
  Mo  Mo177  1  0.70216451  0.09645632  0.64480931  1
  Mo  Mo178  1  0.69863380  0.49247769  0.37150364  1
  Mo  Mo179  1  0.79602255  0.80584347  0.00401908  1
  Mo  Mo180  1  0.68828402  0.09898635  0.37160410  1
  Mo  Mo181  1  0.10977087  0.70187294  0.13446936  1
  Mo  Mo182  1  0.10717377  0.09404013  0.14071787  1
  Mo  Mo183  1  0.38875351  0.80220251  -0.00274644  1
  Mo  Mo184  1  0.80750128  -0.00017126  0.75194644  1
  Mo  Mo185  1  0.20127888  0.00519181  0.50207879  1
  Mo  Mo186  1  0.89909466  0.70507252  0.61031395  1
  Mo  Mo187  1  0.30232503  0.10377116  0.12500408  1
  Mo  Mo188  1  0.88612017  0.34242618  0.85200486  1
  Mo  Mo189  1  0.40248226  0.60922349  0.50428117  1
  Mo  Mo190  1  0.49240695  0.10031539  0.86145090  1
  Mo  Mo191  1  0.60244038  0.20875804  0.24215036  1
  Mo  Mo192  1  0.00482369  -0.00103947  0.25206970  1
  Mo  Mo193  1  0.61135809  0.00176541  0.25808425  1
  Mo  Mo194  1  0.79104432  0.60206963  0.00324335  1
  Mo  Mo195  1  0.79475558  0.59564654  0.50722792  1
  Mo  Mo196  1  0.02027274  0.16753731  0.00728696  1
  Mo  Mo197  1  0.21029217  0.00474128  0.24174619  1
  Mo  Mo198  1  0.79970676  0.19735139  0.75715738  1
  Mo  Mo199  1  0.38996221  0.39119732  0.75140385  1
