# generated using pymatgen
data_HfZrTaTiMo
_symmetry_space_group_name_H-M   'P 1'
_cell_length_a   15.20437695
_cell_length_b   15.21131318
_cell_length_c   16.84990856
_cell_angle_alpha   89.99880857
_cell_angle_beta   89.99542930
_cell_angle_gamma   90.11021970
_symmetry_Int_Tables_number   1
_chemical_formula_structural   HfZrTaTiMo
_chemical_formula_sum   'Hf40 Zr40 Ta40 Ti40 Mo40'
_cell_volume   3897.01502053
_cell_formula_units_Z   40
loop_
 _symmetry_equiv_pos_site_id
 _symmetry_equiv_pos_as_xyz
  1  'x, y, z'
loop_
 _atom_site_type_symbol
 _atom_site_label
 _atom_site_symmetry_multiplicity
 _atom_site_fract_x
 _atom_site_fract_y
 _atom_site_fract_z
 _atom_site_occupancy
  Hf  Hf0  1  0.71204916  0.91319437  0.85953968  1
  Hf  Hf1  1  0.30806928  0.10615158  0.12555303  1
  Hf  Hf2  1  0.79364440  0.37407825  0.24982837  1
  Hf  Hf3  1  0.48323984  0.50411018  0.36575697  1
  Hf  Hf4  1  0.39299699  0.39003877  0.01747390  1
  Hf  Hf5  1  0.49569356  0.70125083  0.37993598  1
  Hf  Hf6  1  0.10667348  0.10339316  0.13591521  1
  Hf  Hf7  1  0.49243788  0.50195333  0.88850531  1
  Hf  Hf8  1  0.80755787  0.59384093  -0.00881846  1
  Hf  Hf9  1  0.09201650  0.30532309  0.12471288  1
  Hf  Hf10  1  0.00137880  0.79762570  0.74020172  1
  Hf  Hf11  1  0.29541346  0.90783419  0.37568096  1
  Hf  Hf12  1  0.08194684  0.49198364  0.63892626  1
  Hf  Hf13  1  0.68163671  0.48306388  0.37503500  1
  Hf  Hf14  1  0.50707115  0.91028967  0.86772881  1
  Hf  Hf15  1  0.09478043  0.71274593  0.37713046  1
  Hf  Hf16  1  0.89427900  0.29502331  0.62793504  1
  Hf  Hf17  1  0.91669092  0.88608892  0.37269914  1
  Hf  Hf18  1  0.69910377  0.49394611  0.87655873  1
  Hf  Hf19  1  0.79288146  0.78443894  0.26836447  1
  Hf  Hf20  1  0.58681084  0.39790857  0.22272202  1
  Hf  Hf21  1  0.18796212  0.00445604  -0.00919892  1
  Hf  Hf22  1  0.59245958  0.61254612  0.24035152  1
  Hf  Hf23  1  0.19547548  0.60569451  0.00372014  1
  Hf  Hf24  1  0.79412281  0.60059493  0.75646566  1
  Hf  Hf25  1  0.49842950  0.71363396  0.61428691  1
  Hf  Hf26  1  0.81210098  -0.00701965  0.00422568  1
  Hf  Hf27  1  0.59566003  0.40064743  0.75597576  1
  Hf  Hf28  1  -0.01932353  0.60043233  0.49369037  1
  Hf  Hf29  1  0.68945618  0.49222946  0.62612465  1
  Hf  Hf30  1  0.00624588  0.18399042  0.50756133  1
  Hf  Hf31  1  0.49987264  0.71026419  0.89389417  1
  Hf  Hf32  1  0.89345179  0.69147333  0.12747989  1
  Hf  Hf33  1  -0.00396320  0.21743499  0.25723680  1
  Hf  Hf34  1  0.49054826  0.90841652  0.38185394  1
  Hf  Hf35  1  0.49706594  0.28267209  0.87214210  1
  Hf  Hf36  1  0.71116513  0.50090487  0.12337296  1
  Hf  Hf37  1  0.50098335  0.30465693  0.63310310  1
  Hf  Hf38  1  0.61434633  0.21968007  0.51220788  1
  Hf  Hf39  1  0.38776635  0.60325765  0.51378524  1
  Zr  Zr40  1  0.29830924  0.50100658  0.87850215  1
  Zr  Zr41  1  0.61058368  0.80950710  0.48931954  1
  Zr  Zr42  1  0.59862446  0.38372416  0.01096215  1
  Zr  Zr43  1  0.18328070  0.39970768  0.25352459  1
  Zr  Zr44  1  0.11258553  0.10503775  0.63677171  1
  Zr  Zr45  1  0.42101564  0.19665254  0.25076036  1
  Zr  Zr46  1  0.19689081  0.80679528  0.24267881  1
  Zr  Zr47  1  -0.00474987  0.82118423  0.00049226  1
  Zr  Zr48  1  0.60460955  0.60727524  0.00977751  1
  Zr  Zr49  1  0.91655311  0.08718724  0.37484716  1
  Zr  Zr50  1  0.21196024  0.00499444  0.75423071  1
  Zr  Zr51  1  0.40850289  0.59786814  0.74149175  1
  Zr  Zr52  1  0.30279356  0.70229098  0.37136930  1
  Zr  Zr53  1  0.59838079  0.00731354  0.26378063  1
  Zr  Zr54  1  0.70566083  0.69752643  0.62236232  1
  Zr  Zr55  1  0.11778034  0.09432192  0.36393776  1
  Zr  Zr56  1  0.29687694  0.89132684  0.87888700  1
  Zr  Zr57  1  -0.00551923  0.39141018  0.50182663  1
  Zr  Zr58  1  0.62650702  0.20868074  0.24582337  1
  Zr  Zr59  1  0.29440516  0.50245610  0.36883503  1
  Zr  Zr60  1  0.20297589  0.61318509  0.75453568  1
  Zr  Zr61  1  0.11155818  0.71577998  0.87388201  1
  Zr  Zr62  1  -0.00510875  0.60373915  0.25827217  1
  Zr  Zr63  1  -0.01800373  -0.00431739  0.73902307  1
  Zr  Zr64  1  0.39109858  0.39070686  0.22949628  1
  Zr  Zr65  1  -0.00914855  0.39860701  -0.01261744  1
  Zr  Zr66  1  0.20864849  0.20759767  -0.01234891  1
  Zr  Zr67  1  0.70410309  0.90954471  0.63036091  1
  Zr  Zr68  1  0.00150518  0.60019181  -0.00445837  1
  Zr  Zr69  1  0.09951855  0.69494706  0.62031711  1
  Zr  Zr70  1  0.79340934  -0.00527814  0.25782699  1
  Zr  Zr71  1  0.19854295  0.39745600  0.50060732  1
  Zr  Zr72  1  0.89681484  0.71224453  0.87152971  1
  Zr  Zr73  1  0.91214575  0.09268906  0.13012573  1
  Zr  Zr74  1  0.28972672  0.49337385  0.63073228  1
  Zr  Zr75  1  0.31196952  0.91013449  0.62323065  1
  Zr  Zr76  1  0.88954093  0.09371974  0.87161284  1
  Zr  Zr77  1  0.18977542  0.40173469  -0.00671886  1
  Zr  Zr78  1  0.39613626  0.79994358  0.74906708  1
  Zr  Zr79  1  0.40937286  -0.00182762  0.00181319  1
  Ta  Ta80  1  0.80081165  0.38839916  -0.00777216  1
  Ta  Ta81  1  0.21140163  0.19889684  0.49932588  1
  Ta  Ta82  1  0.40736650  0.40019845  0.50753070  1
  Ta  Ta83  1  0.50309484  0.72497182  0.11238478  1
  Ta  Ta84  1  0.32194317  0.10576844  0.87134137  1
  Ta  Ta85  1  0.30980180  0.29602421  0.38045372  1
  Ta  Ta86  1  0.40200267  0.01433293  0.50208600  1
  Ta  Ta87  1  0.61342607  -0.00173844  0.00049677  1
  Ta  Ta88  1  0.09067358  0.50727621  0.13272620  1
  Ta  Ta89  1  0.88656826  0.48259476  0.37776146  1
  Ta  Ta90  1  0.60288885  0.80979859  0.26125373  1
  Ta  Ta91  1  0.59592947  0.58963884  0.50036810  1
  Ta  Ta92  1  0.40970245  0.80142963  0.24006737  1
  Ta  Ta93  1  0.30383483  0.90105753  0.12253269  1
  Ta  Ta94  1  0.89004329  0.29188519  0.11896065  1
  Ta  Ta95  1  0.39361494  0.39152208  0.75279295  1
  Ta  Ta96  1  0.21686497  0.20929332  0.25199492  1
  Ta  Ta97  1  0.70616348  0.28174078  0.86493184  1
  Ta  Ta98  1  0.09434279  0.91268285  0.13066955  1
  Ta  Ta99  1  0.29020475  0.50603448  0.12690486  1
  Ta  Ta100  1  0.87706522  0.28202633  0.38871077  1
  Ta  Ta101  1  0.90395296  0.48402992  0.13452615  1
  Ta  Ta102  1  0.10504752  0.29815336  0.64263881  1
  Ta  Ta103  1  0.71710261  0.11758632  0.38767610  1
  Ta  Ta104  1  0.80445854  -0.00653877  0.49430311  1
  Ta  Ta105  1  0.09489459  0.29519066  0.85477909  1
  Ta  Ta106  1  0.79344860  0.58899913  0.26432392  1
  Ta  Ta107  1  0.77632764  0.38290619  0.50649807  1
  Ta  Ta108  1  0.20872017  0.80251418  0.50543706  1
  Ta  Ta109  1  0.51694474  0.09089346  0.12267304  1
  Ta  Ta110  1  0.08565559  0.49672313  0.85565792  1
  Ta  Ta111  1  0.08976180  0.50184102  0.37323694  1
  Ta  Ta112  1  0.89942579  0.89035686  0.14048320  1
  Ta  Ta113  1  0.60634486  0.01429992  0.49490370  1
  Ta  Ta114  1  0.80845002  0.77991552  0.48312506  1
  Ta  Ta115  1  0.20109436  0.00917025  0.50558471  1
  Ta  Ta116  1  0.00163019  0.19321989  -0.00941518  1
  Ta  Ta117  1  0.51078472  0.31270727  0.38128113  1
  Ta  Ta118  1  0.40295798  0.20407196  0.50321133  1
  Ta  Ta119  1  0.78560983  0.80233629  0.00241246  1
  Ti  Ti120  1  -0.00750893  0.19899486  0.74497235  1
  Ti  Ti121  1  0.08361530  0.91078855  0.87015954  1
  Ti  Ti122  1  0.79886808  0.19839980  -0.00630557  1
  Ti  Ti123  1  0.50705996  0.11575763  0.38524743  1
  Ti  Ti124  1  0.19013797  0.60032998  0.49899671  1
  Ti  Ti125  1  0.31127446  0.10029124  0.37100986  1
  Ti  Ti126  1  0.10270160  0.90895796  0.37803691  1
  Ti  Ti127  1  0.09734521  0.10391901  0.86236221  1
  Ti  Ti128  1  0.50599711  0.91172704  0.62583527  1
  Ti  Ti129  1  0.59443506  0.60623121  0.75382284  1
  Ti  Ti130  1  0.89948085  0.29766042  0.86343039  1
  Ti  Ti131  1  0.88295488  0.50111400  0.61850138  1
  Ti  Ti132  1  0.29588908  0.28748075  0.63013131  1
  Ti  Ti133  1  0.60033784  0.80138981  0.74580963  1
  Ti  Ti134  1  -0.01609010  0.59382560  0.75096060  1
  Ti  Ti135  1  0.00421057  0.80181829  0.50581537  1
  Ti  Ti136  1  0.20121973  0.60524090  0.24413940  1
  Ti  Ti137  1  0.20134345  0.80466776  0.73679424  1
  Ti  Ti138  1  0.20236411  0.39185909  0.75737653  1
  Ti  Ti139  1  0.31180479  0.70026933  0.89535883  1
  Ti  Ti140  1  0.68872521  0.89926137  0.12774747  1
  Ti  Ti141  1  0.40010255  -0.00387602  0.24404784  1
  Ti  Ti142  1  0.30752131  0.70043890  0.12045744  1
  Ti  Ti143  1  0.50148544  0.09643594  0.62395246  1
  Ti  Ti144  1  0.80958451  0.80944439  0.74614030  1
  Ti  Ti145  1  0.10138809  0.90326213  0.61814114  1
  Ti  Ti146  1  0.60750261  0.18775613  -0.00158389  1
  Ti  Ti147  1  0.20226173  0.80596320  0.01310017  1
  Ti  Ti148  1  0.60330511  0.18262700  0.74487448  1
  Ti  Ti149  1  0.39775038  0.18934438  0.74570939  1
  Ti  Ti150  1  0.71375210  0.10361805  0.12361965  1
  Ti  Ti151  1  0.89819038  0.89674475  0.60894188  1
  Ti  Ti152  1  0.79221279  0.17869583  0.73708345  1
  Ti  Ti153  1  0.69336392  0.71188844  0.87465293  1
  Ti  Ti154  1  0.41095500  0.19811415  0.00273821  1
  Ti  Ti155  1  0.70048515  0.71148915  0.12608858  1
  Ti  Ti156  1  0.80397662  0.39507460  0.75220236  1
  Ti  Ti157  1  0.89395564  0.69569919  0.62212042  1
  Ti  Ti158  1  0.09840563  0.29997977  0.37846180  1
  Ti  Ti159  1  0.09494858  0.70834263  0.12841654  1
  Mo  Mo160  1  0.29315654  0.29455990  0.12548952  1
  Mo  Mo161  1  0.39792491  0.80478324  0.00987509  1
  Mo  Mo162  1  0.70879120  0.28935765  0.10782480  1
  Mo  Mo163  1  0.39689350  0.60967787  0.22692023  1
  Mo  Mo164  1  0.60881418  0.81719264  -0.00006329  1
  Mo  Mo165  1  0.59751635  0.00931457  0.74311267  1
  Mo  Mo166  1  0.29261100  0.70678261  0.61586781  1
  Mo  Mo167  1  0.31190931  0.11031438  0.62194901  1
  Mo  Mo168  1  0.89334772  0.08701827  0.61793940  1
  Mo  Mo169  1  0.69574978  0.68575569  0.38033072  1
  Mo  Mo170  1  0.51341948  0.10103481  0.87581272  1
  Mo  Mo171  1  0.00622504  0.00758126  -0.00348129  1
  Mo  Mo172  1  -0.01289277  0.40085515  0.26180592  1
  Mo  Mo173  1  0.80263223  0.18978476  0.51478232  1
  Mo  Mo174  1  0.89871860  0.89691382  0.87260896  1
  Mo  Mo175  1  0.49741683  0.50432885  0.63036061  1
  Mo  Mo176  1  0.48809694  0.52064200  0.12061679  1
  Mo  Mo177  1  0.70394297  0.90355048  0.38500203  1
  Mo  Mo178  1  0.89925024  0.68644528  0.37718144  1
  Mo  Mo179  1  0.70274207  0.29852306  0.64755458  1
  Mo  Mo180  1  0.39734099  0.60160115  0.01708486  1
  Mo  Mo181  1  0.50637188  0.90474075  0.13176059  1
  Mo  Mo182  1  0.89576920  0.49157482  0.86530898  1
  Mo  Mo183  1  0.01195301  -0.01205782  0.24998370  1
  Mo  Mo184  1  0.30597856  0.29682281  0.86657162  1
  Mo  Mo185  1  0.39853008  0.81313283  0.50483724  1
  Mo  Mo186  1  0.80365969  0.19255952  0.25032041  1
  Mo  Mo187  1  0.21132742  0.20581427  0.76182490  1
  Mo  Mo188  1  0.41765966  0.01220609  0.74891878  1
  Mo  Mo189  1  0.70068544  0.10188416  0.61493015  1
  Mo  Mo190  1  0.00943844  -0.01317568  0.51058430  1
  Mo  Mo191  1  0.79609368  0.00309722  0.73908146  1
  Mo  Mo192  1  0.69778532  0.30129536  0.37950369  1
  Mo  Mo193  1  0.21426633  0.00375085  0.24549211  1
  Mo  Mo194  1  -0.00959632  0.39570906  0.74890909  1
  Mo  Mo195  1  0.69244848  0.10381292  0.87511833  1
  Mo  Mo196  1  0.79039523  0.58755731  0.48840950  1
  Mo  Mo197  1  0.58755340  0.40595946  0.50777416  1
  Mo  Mo198  1  0.49988803  0.27396551  0.11389944  1
  Mo  Mo199  1  -0.00131690  0.80140658  0.24383516  1
