# generated using pymatgen
data_HfZrTaTiMo
_symmetry_space_group_name_H-M   'P 1'
_cell_length_a   15.20381527
_cell_length_b   15.20914923
_cell_length_c   16.85887857
_cell_angle_alpha   90.02416546
_cell_angle_beta   90.03638139
_cell_angle_gamma   89.99563729
_symmetry_Int_Tables_number   1
_chemical_formula_structural   HfZrTaTiMo
_chemical_formula_sum   'Hf40 Zr40 Ta40 Ti40 Mo40'
_cell_volume   3898.39696491
_cell_formula_units_Z   40
loop_
 _symmetry_equiv_pos_site_id
 _symmetry_equiv_pos_as_xyz
  1  'x, y, z'
loop_
 _atom_site_type_symbol
 _atom_site_label
 _atom_site_symmetry_multiplicity
 _atom_site_fract_x
 _atom_site_fract_y
 _atom_site_fract_z
 _atom_site_occupancy
  Hf  Hf0  1  -0.00768951  0.40085274  0.25105572  1
  Hf  Hf1  1  0.21373552  0.00627008  0.74133948  1
  Hf  Hf2  1  0.79902785  0.39587435  0.75308690  1
  Hf  Hf3  1  0.79121040  0.60266039  -0.00474899  1
  Hf  Hf4  1  0.30656818  0.68011851  0.88980111  1
  Hf  Hf5  1  0.18651035  0.18392935  0.24984965  1
  Hf  Hf6  1  0.09481232  0.49684166  0.88224911  1
  Hf  Hf7  1  0.03104463  0.00460945  0.25302272  1
  Hf  Hf8  1  0.79498139  0.02388374  0.76420192  1
  Hf  Hf9  1  0.49843185  0.30707925  0.61896325  1
  Hf  Hf10  1  0.09677784  0.70358487  0.37651305  1
  Hf  Hf11  1  0.37216874  0.60037999  0.73971974  1
  Hf  Hf12  1  0.91525666  0.09445107  0.38183403  1
  Hf  Hf13  1  0.89355128  0.50060317  0.11865345  1
  Hf  Hf14  1  0.41046052  0.40732441  0.24924474  1
  Hf  Hf15  1  0.69491285  0.70210566  0.86117354  1
  Hf  Hf16  1  0.19950846  0.81331873  0.25112807  1
  Hf  Hf17  1  0.31672004  0.89213762  0.39047613  1
  Hf  Hf18  1  0.29949570  0.89136768  0.87505034  1
  Hf  Hf19  1  0.89313690  0.51369124  0.38756200  1
  Hf  Hf20  1  0.20500283  0.38620437  0.01852464  1
  Hf  Hf21  1  0.00275553  0.20655251  0.73848359  1
  Hf  Hf22  1  0.58438080  0.81322943  0.50954270  1
  Hf  Hf23  1  0.91117603  0.30731248  0.87403938  1
  Hf  Hf24  1  0.60629632  0.19777266  0.48852854  1
  Hf  Hf25  1  0.90243393  0.90884910  0.63655325  1
  Hf  Hf26  1  0.32296546  0.87917493  0.62006349  1
  Hf  Hf27  1  0.71159788  0.69356580  0.37115195  1
  Hf  Hf28  1  0.78351254  0.39806847  -0.01352654  1
  Hf  Hf29  1  0.30479682  0.68580183  0.36624571  1
  Hf  Hf30  1  -0.00859802  0.79789911  0.50670762  1
  Hf  Hf31  1  -0.00587644  0.60809090  0.25419729  1
  Hf  Hf32  1  0.80202067  -0.00320290  0.49468119  1
  Hf  Hf33  1  0.90578374  0.50239798  0.61606671  1
  Hf  Hf34  1  0.90861077  0.69556155  0.87233595  1
  Hf  Hf35  1  0.10415194  0.69194108  0.87974853  1
  Hf  Hf36  1  0.20984026  0.77182041  0.73978308  1
  Hf  Hf37  1  0.28578274  0.08949037  0.38682315  1
  Hf  Hf38  1  0.69349113  0.89170691  0.36293382  1
  Hf  Hf39  1  0.59746494  0.41397377  0.48850371  1
  Zr  Zr40  1  0.10838290  0.90126131  0.62098090  1
  Zr  Zr41  1  0.79169997  0.79149184  0.51581926  1
  Zr  Zr42  1  0.60586520  0.79328921  -0.00771577  1
  Zr  Zr43  1  0.89167621  0.30859630  0.38946325  1
  Zr  Zr44  1  0.49686832  0.11078177  0.10606272  1
  Zr  Zr45  1  0.58538796  -0.00261972  0.24801645  1
  Zr  Zr46  1  0.09996051  0.89670876  0.86163335  1
  Zr  Zr47  1  0.38976277  0.20225394  0.25034108  1
  Zr  Zr48  1  0.10739135  0.49221380  0.61902949  1
  Zr  Zr49  1  0.69011123  0.92140568  0.63703508  1
  Zr  Zr50  1  0.79878099  0.21488742  0.25558617  1
  Zr  Zr51  1  0.80379150  -0.00259253  -0.01215677  1
  Zr  Zr52  1  0.40819735  0.78673129  0.00390040  1
  Zr  Zr53  1  0.59018410  0.21105568  0.25664423  1
  Zr  Zr54  1  0.70033806  0.10378320  0.11675896  1
  Zr  Zr55  1  0.80190738  0.60425542  0.74024256  1
  Zr  Zr56  1  0.01963887  0.00730747  -0.00433451  1
  Zr  Zr57  1  0.29158920  0.08966160  0.12616675  1
  Zr  Zr58  1  0.48291689  0.51429216  0.61210048  1
  Zr  Zr59  1  0.50213660  0.32858860  0.87690567  1
  Zr  Zr60  1  0.91457964  0.10808660  0.11854902  1
  Zr  Zr61  1  0.39803766  0.19264121  0.73495176  1
  Zr  Zr62  1  0.81729845  -0.00566152  0.25262589  1
  Zr  Zr63  1  0.09592024  0.29338341  0.38026765  1
  Zr  Zr64  1  0.19486284  0.18149498  0.00603511  1
  Zr  Zr65  1  0.39787332  0.19446502  0.50583414  1
  Zr  Zr66  1  0.70207914  0.28965836  0.62670364  1
  Zr  Zr67  1  0.52615726  0.09013015  0.63169128  1
  Zr  Zr68  1  0.70171983  0.89354156  0.13380039  1
  Zr  Zr69  1  0.80287763  0.80159958  0.00035930  1
  Zr  Zr70  1  0.48762182  0.31012311  0.38340269  1
  Zr  Zr71  1  0.69184133  0.31192586  0.12548331  1
  Zr  Zr72  1  0.90463756  0.30904891  0.61626412  1
  Zr  Zr73  1  0.67269700  0.50002139  0.86586269  1
  Zr  Zr74  1  0.48397640  0.11770926  0.88234256  1
  Zr  Zr75  1  0.00000110  0.80049383  0.00661626  1
  Zr  Zr76  1  0.30046771  0.27738174  0.87192976  1
  Zr  Zr77  1  0.41263000  0.80733271  0.23791479  1
  Zr  Zr78  1  0.29653090  0.48544888  0.88375744  1
  Zr  Zr79  1  0.50301789  0.71301952  0.36715838  1
  Ta  Ta80  1  0.30249895  0.90022749  0.11537726  1
  Ta  Ta81  1  0.41390772  -0.01615824  0.75740345  1
  Ta  Ta82  1  0.60121049  0.00303214  0.78164550  1
  Ta  Ta83  1  0.59917306  -0.00353566  -0.02161910  1
  Ta  Ta84  1  0.19795342  0.59647957  0.01897102  1
  Ta  Ta85  1  0.08821914  0.28908973  0.12810478  1
  Ta  Ta86  1  0.60758218  0.21804948  -0.01430406  1
  Ta  Ta87  1  0.09685809  0.50005183  0.12798881  1
  Ta  Ta88  1  0.90116582  0.89679889  0.85691962  1
  Ta  Ta89  1  0.58702474  0.81094564  0.75862356  1
  Ta  Ta90  1  0.28957096  0.30316451  0.38086766  1
  Ta  Ta91  1  0.79126115  0.58223645  0.25116031  1
  Ta  Ta92  1  -0.00281818  0.78582551  0.73712514  1
  Ta  Ta93  1  0.38881293  0.00390415  -0.01272538  1
  Ta  Ta94  1  0.70149182  0.10133726  0.36707951  1
  Ta  Ta95  1  0.88877892  0.10547298  0.62243255  1
  Ta  Ta96  1  0.00042032  0.80718878  0.24874365  1
  Ta  Ta97  1  0.89749433  0.30307565  0.11621066  1
  Ta  Ta98  1  0.09881763  0.69967171  0.12880872  1
  Ta  Ta99  1  -0.00004998  0.19494888  0.50855650  1
  Ta  Ta100  1  0.29264392  0.31138688  0.61626466  1
  Ta  Ta101  1  0.59837187  0.61339763  0.50111562  1
  Ta  Ta102  1  0.49250531  0.08608299  0.37795616  1
  Ta  Ta103  1  0.91663389  0.10979880  0.87719548  1
  Ta  Ta104  1  0.19948002  0.79881392  0.00945390  1
  Ta  Ta105  1  0.68945044  0.50292456  0.62818127  1
  Ta  Ta106  1  0.20405217  0.39150845  0.24104979  1
  Ta  Ta107  1  0.61955114  0.41622795  0.27366121  1
  Ta  Ta108  1  0.39150829  0.40276448  0.74253365  1
  Ta  Ta109  1  0.69623044  0.68833123  0.13560644  1
  Ta  Ta110  1  0.10898812  0.91711567  0.39657029  1
  Ta  Ta111  1  0.49901164  0.90914391  0.11017928  1
  Ta  Ta112  1  0.62243367  0.20060199  0.76743161  1
  Ta  Ta113  1  0.20709354  0.78642768  0.50285403  1
  Ta  Ta114  1  0.10120615  0.68918996  0.61782797  1
  Ta  Ta115  1  0.69138826  0.50276122  0.12325402  1
  Ta  Ta116  1  0.10924597  0.49785791  0.37500141  1
  Ta  Ta117  1  0.50909351  0.50147835  0.12883070  1
  Ta  Ta118  1  0.10284502  0.30129814  0.87154374  1
  Ta  Ta119  1  0.11336454  0.10949018  0.86360204  1
  Ti  Ti120  1  0.59129198  0.59739047  0.25987563  1
  Ti  Ti121  1  0.81311935  0.78332449  0.24731252  1
  Ti  Ti122  1  0.40979891  0.78799693  0.75774106  1
  Ti  Ti123  1  0.30298159  0.08925202  0.61315587  1
  Ti  Ti124  1  0.00915115  0.59238417  0.74377769  1
  Ti  Ti125  1  0.00107749  0.39967230  0.00607439  1
  Ti  Ti126  1  0.40531115  0.40803183  0.00843725  1
  Ti  Ti127  1  0.78777619  0.40677185  0.50192480  1
  Ti  Ti128  1  0.57059499  0.60881951  0.74739841  1
  Ti  Ti129  1  0.30964271  0.49333305  0.37011593  1
  Ti  Ti130  1  0.20084090  0.20237281  0.73361159  1
  Ti  Ti131  1  0.79269414  0.60448989  0.51458454  1
  Ti  Ti132  1  0.30031473  0.69429342  0.13045231  1
  Ti  Ti133  1  0.30741008  0.49965351  0.13000399  1
  Ti  Ti134  1  0.19534083  0.19398256  0.50747886  1
  Ti  Ti135  1  0.19681434  0.40235098  0.74599993  1
  Ti  Ti136  1  0.90006795  0.69594199  0.12321031  1
  Ti  Ti137  1  0.09499895  0.09453054  0.61549866  1
  Ti  Ti138  1  0.50542888  0.69320628  0.13297663  1
  Ti  Ti139  1  0.80549749  0.20367019  -0.01151848  1
  Ti  Ti140  1  0.68002607  0.69969579  0.63722441  1
  Ti  Ti141  1  0.00251588  0.60356144  0.49730055  1
  Ti  Ti142  1  0.79616199  0.80245152  0.74228041  1
  Ti  Ti143  1  0.79421905  0.19509248  0.49434668  1
  Ti  Ti144  1  0.11399949  0.91219298  0.12341616  1
  Ti  Ti145  1  0.90711284  0.88440994  0.37471272  1
  Ti  Ti146  1  0.39033454  -0.00197921  0.25019387  1
  Ti  Ti147  1  0.57857947  0.59455724  -0.00434091  1
  Ti  Ti148  1  -0.00510035  0.20005272  0.25323722  1
  Ti  Ti149  1  0.20237356  0.59024753  0.24436549  1
  Ti  Ti150  1  0.58884572  0.40632115  0.74131504  1
  Ti  Ti151  1  0.49548213  0.30790007  0.11475856  1
  Ti  Ti152  1  0.21299506  0.59149901  0.49517719  1
  Ti  Ti153  1  0.60723644  0.00440992  0.49072365  1
  Ti  Ti154  1  0.90611377  0.50378789  0.87550438  1
  Ti  Ti155  1  0.19938121  0.39934182  0.49428118  1
  Ti  Ti156  1  0.09837396  0.30446764  0.61624097  1
  Ti  Ti157  1  0.42109565  -0.01621111  0.50717276  1
  Ti  Ti158  1  0.91111508  0.89854917  0.12983903  1
  Ti  Ti159  1  0.00399067  0.00762484  0.75075635  1
  Mo  Mo160  1  0.39382923  0.21550675  0.00785250  1
  Mo  Mo161  1  0.00693164  0.40761155  0.49059085  1
  Mo  Mo162  1  0.70573351  0.10364024  0.62685299  1
  Mo  Mo163  1  0.70242888  0.30314769  0.38131612  1
  Mo  Mo164  1  0.90181141  0.69714630  0.63171792  1
  Mo  Mo165  1  0.59118873  0.41036429  0.00133512  1
  Mo  Mo166  1  0.70566299  0.89798330  0.86469537  1
  Mo  Mo167  1  0.40422112  0.78671078  0.50107296  1
  Mo  Mo168  1  0.38323945  0.40828591  0.49326352  1
  Mo  Mo169  1  0.18829045  0.59245631  0.74939437  1
  Mo  Mo170  1  0.39710117  0.59715076  0.23599894  1
  Mo  Mo171  1  0.29369152  0.09274005  0.86880515  1
  Mo  Mo172  1  0.49082530  0.51995137  0.38240991  1
  Mo  Mo173  1  -0.00094673  0.00134264  0.50618974  1
  Mo  Mo174  1  0.50208610  0.90855332  0.37389825  1
  Mo  Mo175  1  0.20192772  -0.01217273  -0.00791672  1
  Mo  Mo176  1  0.29268727  0.48936287  0.61775257  1
  Mo  Mo177  1  0.79983996  0.40786708  0.24992462  1
  Mo  Mo178  1  0.69873741  0.50945179  0.38671577  1
  Mo  Mo179  1  0.49872569  0.68521385  0.87241322  1
  Mo  Mo180  1  0.09636632  0.09876730  0.12717965  1
  Mo  Mo181  1  0.90113612  0.70693054  0.37269273  1
  Mo  Mo182  1  0.10199779  0.09689514  0.39487297  1
  Mo  Mo183  1  0.48863969  0.71398669  0.62568439  1
  Mo  Mo184  1  0.39836369  0.59285322  0.02156897  1
  Mo  Mo185  1  0.20901440  -0.00283250  0.51738815  1
  Mo  Mo186  1  0.20915999  -0.01171948  0.25648503  1
  Mo  Mo187  1  0.39905895  0.60357375  0.49405454  1
  Mo  Mo188  1  0.29760129  0.68122311  0.60969228  1
  Mo  Mo189  1  0.80835694  0.20131342  0.75904009  1
  Mo  Mo190  1  0.60814988  0.79570714  0.23772313  1
  Mo  Mo191  1  0.00433048  0.59602213  0.01070313  1
  Mo  Mo192  1  0.00350465  0.21289232  -0.00540038  1
  Mo  Mo193  1  0.50283048  0.90056922  0.63730330  1
  Mo  Mo194  1  0.47922825  0.51603483  0.87163705  1
  Mo  Mo195  1  0.30299746  0.30322167  0.12666046  1
  Mo  Mo196  1  0.70133806  0.30297969  0.87012215  1
  Mo  Mo197  1  0.70487766  0.10857383  0.89242156  1
  Mo  Mo198  1  0.00900864  0.40491611  0.75394261  1
  Mo  Mo199  1  0.49692207  0.89543506  0.88225032  1
