# generated using pymatgen
data_HfZrTaTiMo
_symmetry_space_group_name_H-M   'P 1'
_cell_length_a   15.20015740
_cell_length_b   15.20333484
_cell_length_c   16.87179055
_cell_angle_alpha   89.97861968
_cell_angle_beta   89.99997706
_cell_angle_gamma   89.91121472
_symmetry_Int_Tables_number   1
_chemical_formula_structural   HfZrTaTiMo
_chemical_formula_sum   'Hf40 Zr40 Ta40 Ti40 Mo40'
_cell_volume   3898.94913394
_cell_formula_units_Z   40
loop_
 _symmetry_equiv_pos_site_id
 _symmetry_equiv_pos_as_xyz
  1  'x, y, z'
loop_
 _atom_site_type_symbol
 _atom_site_label
 _atom_site_symmetry_multiplicity
 _atom_site_fract_x
 _atom_site_fract_y
 _atom_site_fract_z
 _atom_site_occupancy
  Hf  Hf0  1  0.20319568  0.80491288  0.49986354  1
  Hf  Hf1  1  0.20626310  0.39866467  0.49973833  1
  Hf  Hf2  1  0.90557617  0.51030062  0.88216627  1
  Hf  Hf3  1  0.78371220  0.80578743  0.76768163  1
  Hf  Hf4  1  0.57600597  0.59448756  0.25309993  1
  Hf  Hf5  1  0.69127799  0.29801569  0.62996189  1
  Hf  Hf6  1  0.49498012  0.30859394  0.88585067  1
  Hf  Hf7  1  0.18631301  0.17997658  0.72686015  1
  Hf  Hf8  1  0.40782553  0.20120328  0.50358709  1
  Hf  Hf9  1  0.10345252  0.70523421  0.37725343  1
  Hf  Hf10  1  0.69450844  0.29626629  0.11368685  1
  Hf  Hf11  1  0.91442240  0.91295070  0.87017392  1
  Hf  Hf12  1  0.01226081  0.39399939  0.24656211  1
  Hf  Hf13  1  0.80179443  0.60984683  0.23945938  1
  Hf  Hf14  1  0.58327134  0.79885607  -0.01468557  1
  Hf  Hf15  1  0.59576254  0.60669413  0.51159916  1
  Hf  Hf16  1  0.01032613  0.59773983  0.24707593  1
  Hf  Hf17  1  0.68761539  0.49277872  0.36781788  1
  Hf  Hf18  1  0.60951783  -0.00357356  -0.00859500  1
  Hf  Hf19  1  0.80432521  0.00996617  0.75028841  1
  Hf  Hf20  1  -0.00223662  0.78778480  0.75431160  1
  Hf  Hf21  1  0.60277178  0.81465621  0.50948888  1
  Hf  Hf22  1  0.50290943  0.50223707  0.10504124  1
  Hf  Hf23  1  0.21016199  0.80168614  0.25281094  1
  Hf  Hf24  1  0.79194527  0.81533397  -0.01181264  1
  Hf  Hf25  1  0.89609666  0.71148320  0.38018311  1
  Hf  Hf26  1  0.79789659  0.60249978  0.51015286  1
  Hf  Hf27  1  0.31624136  0.88604753  0.86386038  1
  Hf  Hf28  1  0.01171127  0.18979601  0.25790797  1
  Hf  Hf29  1  0.30478165  0.30251979  0.13140809  1
  Hf  Hf30  1  -0.00137679  0.19193691  -0.00943415  1
  Hf  Hf31  1  0.81198541  0.60620887  0.75131409  1
  Hf  Hf32  1  0.70663178  0.09808597  0.36995427  1
  Hf  Hf33  1  0.59995215  0.19783748  0.75535611  1
  Hf  Hf34  1  0.89274228  0.29434886  0.37420868  1
  Hf  Hf35  1  -0.00428307  0.40240455  0.74785551  1
  Hf  Hf36  1  0.30280561  0.49685973  0.63298746  1
  Hf  Hf37  1  0.19639304  0.59297364  -0.00739181  1
  Hf  Hf38  1  0.29919542  0.09553579  0.37307304  1
  Hf  Hf39  1  0.39220434  0.19820795  0.74378669  1
  Zr  Zr40  1  0.70121074  0.30587786  0.88219128  1
  Zr  Zr41  1  0.42848086  0.40476459  0.25717162  1
  Zr  Zr42  1  0.60218543  0.61246507  0.74315632  1
  Zr  Zr43  1  0.90633684  0.08933150  0.38296980  1
  Zr  Zr44  1  0.10593839  0.28718186  0.87357622  1
  Zr  Zr45  1  0.88902723  0.88713175  0.61995290  1
  Zr  Zr46  1  0.90771433  0.29328016  0.12314702  1
  Zr  Zr47  1  0.68231795  0.71417764  0.12509612  1
  Zr  Zr48  1  0.49571194  0.49657672  0.63392730  1
  Zr  Zr49  1  0.30155474  0.51823427  0.13736805  1
  Zr  Zr50  1  0.90089007  0.50331167  0.36818608  1
  Zr  Zr51  1  0.50167825  0.10790877  0.13578541  1
  Zr  Zr52  1  0.09275405  0.50294779  0.62863840  1
  Zr  Zr53  1  0.30204625  0.09140746  0.13346416  1
  Zr  Zr54  1  0.20121059  -0.00975192  -0.00283364  1
  Zr  Zr55  1  0.49125357  0.09047542  0.87229690  1
  Zr  Zr56  1  0.00113542  0.39801511  0.50374261  1
  Zr  Zr57  1  0.60210930  -0.02083248  0.26206288  1
  Zr  Zr58  1  0.00527489  0.79964760  -0.00177260  1
  Zr  Zr59  1  0.69453016  0.50008841  0.11739089  1
  Zr  Zr60  1  0.27721492  0.09315969  0.86764402  1
  Zr  Zr61  1  0.70353765  0.09060688  0.13444906  1
  Zr  Zr62  1  0.30148604  0.48980718  0.86860465  1
  Zr  Zr63  1  0.39426730  0.62315000  -0.01343445  1
  Zr  Zr64  1  0.89671708  0.89844448  0.38883792  1
  Zr  Zr65  1  0.49344370  0.70949672  0.37951073  1
  Zr  Zr66  1  0.38992953  0.19050969  -0.00077150  1
  Zr  Zr67  1  0.00628730  0.60202102  0.49808638  1
  Zr  Zr68  1  0.69867764  0.70676966  0.37013127  1
  Zr  Zr69  1  0.50344410  0.89765819  0.12631571  1
  Zr  Zr70  1  0.20373797  0.19343368  0.51166797  1
  Zr  Zr71  1  0.10321520  0.10700125  0.12237602  1
  Zr  Zr72  1  0.79253706  0.39744678  0.50129135  1
  Zr  Zr73  1  0.11073688  0.69299766  0.12266571  1
  Zr  Zr74  1  0.79522230  0.39340925  0.24346170  1
  Zr  Zr75  1  0.79949010  0.61131482  -0.00458863  1
  Zr  Zr76  1  0.00926824  0.19955945  0.50755597  1
  Zr  Zr77  1  0.18942262  0.60077732  0.75455825  1
  Zr  Zr78  1  0.57978101  0.39588315  0.49150737  1
  Zr  Zr79  1  -0.00429006  0.80755098  0.24240072  1
  Ta  Ta80  1  0.89588499  0.30313035  0.62955190  1
  Ta  Ta81  1  0.39963240  -0.00432047  0.50609418  1
  Ta  Ta82  1  0.79665009  0.40530102  0.75273931  1
  Ta  Ta83  1  0.50586661  0.30556946  0.11395924  1
  Ta  Ta84  1  0.69606778  0.09476151  0.62278494  1
  Ta  Ta85  1  0.09778105  0.49318896  0.87658350  1
  Ta  Ta86  1  0.59025486  0.00673584  0.49210055  1
  Ta  Ta87  1  0.59495869  0.22258248  0.26198921  1
  Ta  Ta88  1  0.00967725  0.40278529  0.00043547  1
  Ta  Ta89  1  0.80568569  0.40044006  -0.00285384  1
  Ta  Ta90  1  0.30468748  0.69984875  0.62632566  1
  Ta  Ta91  1  0.78744115  0.82451406  0.23953816  1
  Ta  Ta92  1  0.60293313  0.19724652  0.49187401  1
  Ta  Ta93  1  0.50516703  0.09672531  0.62611090  1
  Ta  Ta94  1  0.10642350  0.90359895  0.12544074  1
  Ta  Ta95  1  0.70428070  0.49912144  0.63086528  1
  Ta  Ta96  1  0.60418729  -0.00732485  0.75352938  1
  Ta  Ta97  1  0.19074303  -0.00080694  0.25595177  1
  Ta  Ta98  1  0.20137758  0.79874617  0.75245148  1
  Ta  Ta99  1  0.39922154  0.61317727  0.75710689  1
  Ta  Ta100  1  0.01050597  -0.00499991  0.51163511  1
  Ta  Ta101  1  0.29334626  0.29571404  0.87621283  1
  Ta  Ta102  1  0.90043281  0.09053070  0.12837887  1
  Ta  Ta103  1  0.49669896  0.29955143  0.62882316  1
  Ta  Ta104  1  0.51583533  0.51135862  0.88175283  1
  Ta  Ta105  1  0.89679459  0.09968845  0.61903114  1
  Ta  Ta106  1  0.31357477  0.30152084  0.37075016  1
  Ta  Ta107  1  0.39742551  0.59327244  0.50181462  1
  Ta  Ta108  1  0.20638830  0.20429059  0.25872235  1
  Ta  Ta109  1  0.48145577  0.69990281  0.12731670  1
  Ta  Ta110  1  0.30669462  0.50588677  0.37053758  1
  Ta  Ta111  1  0.00002027  -0.00107646  -0.00205374  1
  Ta  Ta112  1  0.40735516  0.80308725  0.25426490  1
  Ta  Ta113  1  0.10325098  0.89426374  0.62733967  1
  Ta  Ta114  1  0.01414426  0.00400321  0.74227198  1
  Ta  Ta115  1  0.79563983  0.19619955  0.50551542  1
  Ta  Ta116  1  -0.00914597  0.19420329  0.74329873  1
  Ta  Ta117  1  0.91054023  0.50491861  0.11389074  1
  Ta  Ta118  1  0.09034900  0.69572146  0.88045770  1
  Ta  Ta119  1  0.80868820  0.01059062  -0.00985771  1
  Ti  Ti120  1  0.39210478  -0.00879919  0.25405561  1
  Ti  Ti121  1  0.91035150  0.69295391  0.61996727  1
  Ti  Ti122  1  0.70711456  0.72088891  0.62661343  1
  Ti  Ti123  1  0.40176607  -0.02143670  0.00033016  1
  Ti  Ti124  1  0.70185809  0.89475955  0.38104740  1
  Ti  Ti125  1  0.80171927  0.19332369  0.24959467  1
  Ti  Ti126  1  0.11150690  0.50006542  0.37319986  1
  Ti  Ti127  1  0.89321699  0.90712218  0.11899042  1
  Ti  Ti128  1  0.89993674  0.70539230  0.12015247  1
  Ti  Ti129  1  0.80291620  0.20467575  0.74910094  1
  Ti  Ti130  1  0.30018949  0.89874878  0.63036299  1
  Ti  Ti131  1  0.20245303  0.00271020  0.50817586  1
  Ti  Ti132  1  0.58841462  0.80683771  0.75030536  1
  Ti  Ti133  1  0.40272160  0.79898726  0.50932290  1
  Ti  Ti134  1  0.19902910  0.38483571  0.74347085  1
  Ti  Ti135  1  0.38947685  0.40445516  -0.00112641  1
  Ti  Ti136  1  0.68542776  0.68814196  0.87682891  1
  Ti  Ti137  1  -0.00155828  -0.00541559  0.24885790  1
  Ti  Ti138  1  0.50114794  0.90132919  0.62861038  1
  Ti  Ti139  1  0.11526512  0.29919400  0.11514410  1
  Ti  Ti140  1  0.20616962  0.60056355  0.50134001  1
  Ti  Ti141  1  0.39897523  -0.00610166  0.73972307  1
  Ti  Ti142  1  0.80396723  0.19412205  -0.00331773  1
  Ti  Ti143  1  0.31014819  0.89671745  0.38143308  1
  Ti  Ti144  1  0.47959516  0.72069907  0.86525831  1
  Ti  Ti145  1  0.60096419  0.19588447  -0.00526079  1
  Ti  Ti146  1  0.70928242  0.09992315  0.87339661  1
  Ti  Ti147  1  0.20426034  0.40306380  0.25643476  1
  Ti  Ti148  1  0.78460892  -0.00872666  0.51088937  1
  Ti  Ti149  1  0.40394955  0.39751429  0.75694052  1
  Ti  Ti150  1  0.60104231  0.40584118  0.75637565  1
  Ti  Ti151  1  0.49297789  0.10257449  0.36658996  1
  Ti  Ti152  1  0.30145907  0.69400929  0.37523116  1
  Ti  Ti153  1  0.11207841  0.29531652  0.37504908  1
  Ti  Ti154  1  0.21765171  0.79599889  -0.00317044  1
  Ti  Ti155  1  0.10767576  0.48940294  0.12084721  1
  Ti  Ti156  1  0.10089595  0.91253245  0.38176895  1
  Ti  Ti157  1  0.10283321  0.70426705  0.62140698  1
  Ti  Ti158  1  0.89971165  0.30084941  0.87365773  1
  Ti  Ti159  1  0.30498530  0.30178465  0.62472809  1
  Mo  Mo160  1  0.39172856  0.80699950  0.00156900  1
  Mo  Mo161  1  0.90054328  0.11143690  0.86859608  1
  Mo  Mo162  1  0.90214731  0.70365768  0.87897538  1
  Mo  Mo163  1  0.59546916  0.60793956  -0.01061638  1
  Mo  Mo164  1  0.50103483  0.29476165  0.37885679  1
  Mo  Mo165  1  0.59955448  0.40096869  -0.00651086  1
  Mo  Mo166  1  0.29907553  0.89356205  0.12976879  1
  Mo  Mo167  1  0.49010219  0.50500734  0.38314379  1
  Mo  Mo168  1  0.00951256  0.80260133  0.50715087  1
  Mo  Mo169  1  0.09771455  0.29874293  0.63554516  1
  Mo  Mo170  1  0.20160820  0.59562495  0.25888412  1
  Mo  Mo171  1  0.48744417  0.90835605  0.38286194  1
  Mo  Mo172  1  0.29143290  0.70074037  0.86472010  1
  Mo  Mo173  1  0.49247708  0.70767261  0.62412392  1
  Mo  Mo174  1  0.81182894  -0.00163550  0.24987915  1
  Mo  Mo175  1  0.09561661  0.08677463  0.62257155  1
  Mo  Mo176  1  0.31060894  0.08547319  0.62343294  1
  Mo  Mo177  1  0.70197793  0.28871634  0.37543824  1
  Mo  Mo178  1  0.59775032  0.79990891  0.25217994  1
  Mo  Mo179  1  0.50012615  0.90234573  0.86449463  1
  Mo  Mo180  1  0.19826984  0.20234856  -0.00380882  1
  Mo  Mo181  1  0.38994304  0.39900924  0.49691797  1
  Mo  Mo182  1  0.10766542  0.09052032  0.37485311  1
  Mo  Mo183  1  0.30131555  0.71467158  0.12937611  1
  Mo  Mo184  1  0.60344779  0.40043198  0.25055420  1
  Mo  Mo185  1  0.88955637  0.49880969  0.63140002  1
  Mo  Mo186  1  0.69908210  0.49994745  0.87514777  1
  Mo  Mo187  1  0.00391213  0.59524808  0.00753171  1
  Mo  Mo188  1  0.20276477  -0.01382574  0.74095274  1
  Mo  Mo189  1  0.69561316  0.90604526  0.86994942  1
  Mo  Mo190  1  0.11092552  0.90301073  0.86520636  1
  Mo  Mo191  1  0.79695324  0.79747816  0.50927206  1
  Mo  Mo192  1  0.38946501  0.61217492  0.25279713  1
  Mo  Mo193  1  0.70730486  0.90519457  0.11861691  1
  Mo  Mo194  1  0.20189897  0.39245363  0.00223102  1
  Mo  Mo195  1  -0.00086779  0.60380861  0.74993999  1
  Mo  Mo196  1  0.08517369  0.08056849  0.87060653  1
  Mo  Mo197  1  0.68804439  0.91095213  0.62881938  1
  Mo  Mo198  1  0.40312730  0.19985804  0.25529787  1
  Mo  Mo199  1  0.40301983  0.79860076  0.73196878  1
