# generated using pymatgen
data_HfZrTaTiMo
_symmetry_space_group_name_H-M   'P 1'
_cell_length_a   15.21322415
_cell_length_b   15.20968938
_cell_length_c   16.85121786
_cell_angle_alpha   89.97410697
_cell_angle_beta   89.88600682
_cell_angle_gamma   89.94119294
_symmetry_Int_Tables_number   1
_chemical_formula_structural   HfZrTaTiMo
_chemical_formula_sum   'Hf40 Zr40 Ta40 Ti40 Mo40'
_cell_volume   3899.16640377
_cell_formula_units_Z   40
loop_
 _symmetry_equiv_pos_site_id
 _symmetry_equiv_pos_as_xyz
  1  'x, y, z'
loop_
 _atom_site_type_symbol
 _atom_site_label
 _atom_site_symmetry_multiplicity
 _atom_site_fract_x
 _atom_site_fract_y
 _atom_site_fract_z
 _atom_site_occupancy
  Hf  Hf0  1  0.29384232  0.29966088  0.86584275  1
  Hf  Hf1  1  0.89358807  0.89515475  0.87729271  1
  Hf  Hf2  1  0.88428153  0.07319835  0.13498435  1
  Hf  Hf3  1  0.71025012  0.71055462  0.89390727  1
  Hf  Hf4  1  0.39485179  0.41888021  0.75404896  1
  Hf  Hf5  1  0.91095677  0.91301939  0.61430615  1
  Hf  Hf6  1  0.11031361  0.90020242  0.62647204  1
  Hf  Hf7  1  0.50435793  0.09966388  0.12372724  1
  Hf  Hf8  1  0.87828170  0.08433603  0.36090595  1
  Hf  Hf9  1  0.89924806  0.49659654  0.88344154  1
  Hf  Hf10  1  0.59647360  0.21267063  0.73335577  1
  Hf  Hf11  1  0.79830756  0.20863186  0.74402180  1
  Hf  Hf12  1  0.50630304  0.50416466  0.37627761  1
  Hf  Hf13  1  0.60950072  0.81243652  0.75028641  1
  Hf  Hf14  1  0.80518266  0.40450996  0.74889395  1
  Hf  Hf15  1  0.50417851  0.72256515  0.89353806  1
  Hf  Hf16  1  0.61806175  0.40758744  0.24284450  1
  Hf  Hf17  1  0.29665965  0.31102730  0.36084174  1
  Hf  Hf18  1  0.79098973  0.20031702  0.01669484  1
  Hf  Hf19  1  0.19310254  -0.00466055  -0.00240090  1
  Hf  Hf20  1  0.38973349  -0.00171271  -0.00173013  1
  Hf  Hf21  1  0.70858334  0.71889070  0.37754568  1
  Hf  Hf22  1  0.00161902  0.17127820  0.48751262  1
  Hf  Hf23  1  0.59791929  0.00433609  0.75008909  1
  Hf  Hf24  1  0.60700941  0.60653877  0.24198284  1
  Hf  Hf25  1  -0.00223703  0.38927223  0.01343905  1
  Hf  Hf26  1  0.39017248  0.80312788  0.01303637  1
  Hf  Hf27  1  0.37357997  0.21190436  0.50711837  1
  Hf  Hf28  1  0.10713825  0.49672427  0.14047037  1
  Hf  Hf29  1  0.40064491  0.79534738  0.50419320  1
  Hf  Hf30  1  -0.00520649  0.19502390  0.73908007  1
  Hf  Hf31  1  0.39350669  0.19943106  -0.00052936  1
  Hf  Hf32  1  0.79945706  0.60922781  0.24360862  1
  Hf  Hf33  1  0.49942534  0.10080232  0.39089762  1
  Hf  Hf34  1  0.90169264  0.29367630  0.36120595  1
  Hf  Hf35  1  0.20742422  0.39495933  0.49533942  1
  Hf  Hf36  1  0.69962555  0.11285958  0.87777970  1
  Hf  Hf37  1  0.62138253  0.81335737  0.24393212  1
  Hf  Hf38  1  0.59084214  0.61328772  0.75589236  1
  Hf  Hf39  1  0.79916582  0.00431524  0.74490152  1
  Zr  Zr40  1  0.61154385  0.41484290  0.50023298  1
  Zr  Zr41  1  0.39127241  0.80468445  0.24548916  1
  Zr  Zr42  1  0.80880236  0.60304052  0.48782068  1
  Zr  Zr43  1  0.10808219  0.29366761  0.14929251  1
  Zr  Zr44  1  0.19728892  0.19811542  0.00255287  1
  Zr  Zr45  1  0.48117571  0.10395719  0.86226238  1
  Zr  Zr46  1  0.81330166  0.40799773  0.48825901  1
  Zr  Zr47  1  0.10369257  0.68831061  0.86813161  1
  Zr  Zr48  1  0.29490505  0.10403886  0.14153091  1
  Zr  Zr49  1  0.19349675  0.18010238  0.74979504  1
  Zr  Zr50  1  0.39885940  0.60434504  0.25457005  1
  Zr  Zr51  1  0.60752507  0.41162205  0.74703151  1
  Zr  Zr52  1  0.49523502  0.51713212  0.89271882  1
  Zr  Zr53  1  0.89399152  0.29766759  0.14903213  1
  Zr  Zr54  1  0.91253890  0.30132954  0.60827467  1
  Zr  Zr55  1  0.90587246  0.09916200  0.88465917  1
  Zr  Zr56  1  0.50119282  0.52447668  0.61737044  1
  Zr  Zr57  1  0.50751214  0.30350620  0.88137551  1
  Zr  Zr58  1  0.50335902  0.90081803  0.37781154  1
  Zr  Zr59  1  0.19798787  0.79492605  -0.00061362  1
  Zr  Zr60  1  0.10742651  0.48943077  0.87766782  1
  Zr  Zr61  1  0.50089676  0.30129407  0.11735693  1
  Zr  Zr62  1  0.61332094  0.01224339  0.25123705  1
  Zr  Zr63  1  0.59784829  0.00042233  -0.01173510  1
  Zr  Zr64  1  0.38956876  0.60078265  0.48301782  1
  Zr  Zr65  1  0.90834413  0.68618082  0.62645654  1
  Zr  Zr66  1  0.80282474  0.80369917  0.74180400  1
  Zr  Zr67  1  0.27409798  0.08946065  0.62100614  1
  Zr  Zr68  1  0.50547254  0.70617565  0.11616160  1
  Zr  Zr69  1  0.30760723  0.89584515  0.86154638  1
  Zr  Zr70  1  0.00981493  0.77711702  0.50249826  1
  Zr  Zr71  1  0.38203240  0.41166882  0.00086665  1
  Zr  Zr72  1  0.38277050  -0.00349617  0.49783876  1
  Zr  Zr73  1  0.59762701  0.20719781  0.25523485  1
  Zr  Zr74  1  -0.00350066  -0.03553763  0.25215396  1
  Zr  Zr75  1  -0.00088276  0.79527522  0.00374615  1
  Zr  Zr76  1  0.49813616  0.30635132  0.38716093  1
  Zr  Zr77  1  0.79351335  0.59926240  0.75601310  1
  Zr  Zr78  1  0.08646497  0.29007478  0.87792732  1
  Zr  Zr79  1  0.29640101  0.49801734  0.61590560  1
  Ta  Ta80  1  0.18357335  0.60285568  0.48898021  1
  Ta  Ta81  1  0.79617218  0.40648260  0.01291659  1
  Ta  Ta82  1  0.11388852  0.68400568  0.63044339  1
  Ta  Ta83  1  0.70442939  0.10614075  0.61455788  1
  Ta  Ta84  1  0.00915720  0.59468304  0.01507307  1
  Ta  Ta85  1  0.20374618  0.61211705  0.25478803  1
  Ta  Ta86  1  0.10481106  0.28804049  0.36264304  1
  Ta  Ta87  1  0.17212368  0.01098187  0.48300510  1
  Ta  Ta88  1  0.90203014  0.49599644  0.14218193  1
  Ta  Ta89  1  0.09614092  0.89561304  0.86007730  1
  Ta  Ta90  1  0.70946766  0.51359263  0.62179985  1
  Ta  Ta91  1  0.48718488  0.31457545  0.61326596  1
  Ta  Ta92  1  0.00070990  0.18240096  0.01960217  1
  Ta  Ta93  1  0.09968106  0.08476456  0.87737914  1
  Ta  Ta94  1  0.19026571  0.38806446  0.73556780  1
  Ta  Ta95  1  0.50089389  0.50501215  0.11701339  1
  Ta  Ta96  1  0.70621674  0.31554090  0.88351551  1
  Ta  Ta97  1  0.81547897  0.60308776  0.01525724  1
  Ta  Ta98  1  0.08991117  0.49213637  0.61883705  1
  Ta  Ta99  1  0.50711980  0.70951505  0.37146450  1
  Ta  Ta100  1  0.60446269  0.20325002  0.50823342  1
  Ta  Ta101  1  0.31251886  0.67886894  0.87064811  1
  Ta  Ta102  1  0.21549961  0.59527620  0.00822485  1
  Ta  Ta103  1  0.71356834  0.91502169  0.10937428  1
  Ta  Ta104  1  0.40694024  0.40661109  0.24515005  1
  Ta  Ta105  1  0.49610626  0.10196313  0.61651068  1
  Ta  Ta106  1  0.40000712  0.20022620  0.25464190  1
  Ta  Ta107  1  0.41350640  0.79043499  0.74147951  1
  Ta  Ta108  1  0.68979185  0.70300848  0.61615574  1
  Ta  Ta109  1  0.49977485  0.90431959  0.62176401  1
  Ta  Ta110  1  0.27903813  0.90554485  0.13853139  1
  Ta  Ta111  1  0.90964777  0.69379811  0.87598490  1
  Ta  Ta112  1  0.10214826  0.07937840  0.14361680  1
  Ta  Ta113  1  0.89508158  0.29552612  0.88475911  1
  Ta  Ta114  1  0.89091883  0.88192993  0.38281310  1
  Ta  Ta115  1  0.20949216  0.58362282  0.74679534  1
  Ta  Ta116  1  0.70778186  0.29592131  0.37884185  1
  Ta  Ta117  1  0.00012408  0.18179164  0.25301364  1
  Ta  Ta118  1  0.20932949  0.78530436  0.74778251  1
  Ta  Ta119  1  0.70682585  0.92107433  0.39244698  1
  Ti  Ti120  1  0.90670445  0.49770662  0.61850402  1
  Ti  Ti121  1  0.90954225  0.69880313  0.36902294  1
  Ti  Ti122  1  0.80159172  0.80303159  0.50950421  1
  Ti  Ti123  1  0.18391888  0.80801794  0.24963242  1
  Ti  Ti124  1  0.01274316  0.40151133  0.48132608  1
  Ti  Ti125  1  0.30688884  0.69313558  0.62698279  1
  Ti  Ti126  1  0.09740093  0.69618234  0.36950590  1
  Ti  Ti127  1  0.00504684  0.60362716  0.24598116  1
  Ti  Ti128  1  0.11280249  0.27988648  0.60779692  1
  Ti  Ti129  1  0.10781229  0.49417289  0.35923626  1
  Ti  Ti130  1  -0.00098099  -0.01028062  0.01086515  1
  Ti  Ti131  1  0.59975122  0.80750381  0.50390097  1
  Ti  Ti132  1  0.09417295  0.88819831  0.38154646  1
  Ti  Ti133  1  0.90633876  0.49924102  0.35539464  1
  Ti  Ti134  1  0.60401106  0.61493282  0.49280042  1
  Ti  Ti135  1  0.71929478  0.71930729  0.11397263  1
  Ti  Ti136  1  0.20600336  0.79909063  0.50352989  1
  Ti  Ti137  1  0.29025038  0.70862034  0.37474278  1
  Ti  Ti138  1  0.00575704  0.00158380  0.74670981  1
  Ti  Ti139  1  0.70665865  0.30960009  0.61314219  1
  Ti  Ti140  1  0.30289537  0.50836898  0.13261132  1
  Ti  Ti141  1  0.80560117  0.01641883  0.50511960  1
  Ti  Ti142  1  0.39171717  0.20684792  0.73178502  1
  Ti  Ti143  1  0.10193220  0.70625797  0.13195214  1
  Ti  Ti144  1  0.19743809  0.39879090  0.00752668  1
  Ti  Ti145  1  0.77848558  0.18895181  0.24175750  1
  Ti  Ti146  1  0.28909756  0.90272477  0.37117881  1
  Ti  Ti147  1  0.61115731  0.39993636  0.01122273  1
  Ti  Ti148  1  0.29827095  0.30966483  0.14244045  1
  Ti  Ti149  1  0.00384367  0.58741705  0.74887067  1
  Ti  Ti150  1  0.39290958  0.00208808  0.74325996  1
  Ti  Ti151  1  0.39487206  0.00234108  0.25767605  1
  Ti  Ti152  1  0.89547015  0.87101724  0.12850891  1
  Ti  Ti153  1  0.50104234  0.90592911  0.12857112  1
  Ti  Ti154  1  0.69734010  0.91116526  0.60992414  1
  Ti  Ti155  1  0.30077109  0.89102795  0.63401519  1
  Ti  Ti156  1  0.00515560  0.79254141  0.74517716  1
  Ti  Ti157  1  0.28161343  0.10796549  0.36849450  1
  Ti  Ti158  1  0.61528742  0.59979003  0.01107252  1
  Ti  Ti159  1  -0.00089662  0.39386196  0.74694377  1
  Mo  Mo160  1  0.50302942  0.71065812  0.61855304  1
  Mo  Mo161  1  0.69922054  0.10751794  0.39230682  1
  Mo  Mo162  1  0.21166103  0.41341620  0.25558244  1
  Mo  Mo163  1  0.28652791  0.69971523  0.13205842  1
  Mo  Mo164  1  0.29662840  0.29981241  0.63291342  1
  Mo  Mo165  1  0.80879833  0.80952403  0.25176164  1
  Mo  Mo166  1  0.29393950  0.09703059  0.86148134  1
  Mo  Mo167  1  0.09390664  0.09054944  0.35555829  1
  Mo  Mo168  1  0.78692158  -0.01803245  0.25269722  1
  Mo  Mo169  1  0.70822656  0.50499567  0.36930289  1
  Mo  Mo170  1  0.60526337  0.81024432  0.01159903  1
  Mo  Mo171  1  0.39988316  0.40343605  0.49843236  1
  Mo  Mo172  1  0.28810106  0.49949571  0.87365556  1
  Mo  Mo173  1  0.69617079  0.90197133  0.89037806  1
  Mo  Mo174  1  0.70177695  0.50227272  0.89934490  1
  Mo  Mo175  1  0.89860975  0.09749827  0.62120260  1
  Mo  Mo176  1  0.19923518  -0.00751295  0.27016910  1
  Mo  Mo177  1  0.39474495  0.60468819  0.01016360  1
  Mo  Mo178  1  0.09826413  0.89846331  0.12803768  1
  Mo  Mo179  1  0.07867048  0.08528560  0.61800252  1
  Mo  Mo180  1  -0.00765383  -0.01600663  0.48479486  1
  Mo  Mo181  1  0.20278454  0.19623779  0.25182983  1
  Mo  Mo182  1  0.90993861  0.69105004  0.12838935  1
  Mo  Mo183  1  0.80868381  -0.00432978  -0.00130489  1
  Mo  Mo184  1  0.80562642  0.79863335  0.00012806  1
  Mo  Mo185  1  0.70396085  0.50632209  0.11538888  1
  Mo  Mo186  1  0.39587502  0.61076523  0.74863592  1
  Mo  Mo187  1  0.00338335  0.40014746  0.26322693  1
  Mo  Mo188  1  0.69982969  0.30178922  0.12491764  1
  Mo  Mo189  1  0.60022290  0.20949401  -0.00526791  1
  Mo  Mo190  1  0.18988451  0.19736765  0.49112398  1
  Mo  Mo191  1  0.79576720  0.40559770  0.25925200  1
  Mo  Mo192  1  0.29373570  0.50714354  0.37189713  1
  Mo  Mo193  1  0.79684470  0.20278991  0.49887565  1
  Mo  Mo194  1  0.00001279  0.78123081  0.25503569  1
  Mo  Mo195  1  0.69564677  0.10336683  0.11821273  1
  Mo  Mo196  1  0.49941930  0.89896678  0.86631039  1
  Mo  Mo197  1  0.00885059  0.57754349  0.48649707  1
  Mo  Mo198  1  0.19531907  -0.01558093  0.75322938  1
  Mo  Mo199  1  0.59937749  0.00260958  0.51177290  1
