# generated using pymatgen
data_HfZrTaTiMo
_symmetry_space_group_name_H-M   'P 1'
_cell_length_a   15.22579329
_cell_length_b   15.22249498
_cell_length_c   16.82721874
_cell_angle_alpha   90.01712061
_cell_angle_beta   90.02893872
_cell_angle_gamma   90.01631960
_symmetry_Int_Tables_number   1
_chemical_formula_structural   HfZrTaTiMo
_chemical_formula_sum   'Hf40 Zr40 Ta40 Ti40 Mo40'
_cell_volume   3900.12042072
_cell_formula_units_Z   40
loop_
 _symmetry_equiv_pos_site_id
 _symmetry_equiv_pos_as_xyz
  1  'x, y, z'
loop_
 _atom_site_type_symbol
 _atom_site_label
 _atom_site_symmetry_multiplicity
 _atom_site_fract_x
 _atom_site_fract_y
 _atom_site_fract_z
 _atom_site_occupancy
  Hf  Hf0  1  0.51576964  0.29752191  0.13626280  1
  Hf  Hf1  1  0.40460730  0.79626110  0.76721359  1
  Hf  Hf2  1  0.29749301  0.69016022  0.88879755  1
  Hf  Hf3  1  0.40053640  0.59399858  0.50598446  1
  Hf  Hf4  1  0.87018096  0.50462006  0.35963759  1
  Hf  Hf5  1  0.41374838  0.00797945  -0.00617589  1
  Hf  Hf6  1  0.79427295  0.41304991  0.51081380  1
  Hf  Hf7  1  0.90036438  0.87924836  0.37353686  1
  Hf  Hf8  1  0.69128992  0.48637920  0.13804496  1
  Hf  Hf9  1  0.79641598  0.79984275  0.51317520  1
  Hf  Hf10  1  0.69857282  0.51446716  0.86630772  1
  Hf  Hf11  1  0.91765208  0.69970910  0.62859549  1
  Hf  Hf12  1  -0.00015251  0.00395640  0.49719132  1
  Hf  Hf13  1  0.21329699  0.00441410  0.50447884  1
  Hf  Hf14  1  0.61425700  0.20489163  0.26693072  1
  Hf  Hf15  1  0.79986039  0.80203718  0.74447745  1
  Hf  Hf16  1  0.59407151  0.60719211  0.24449147  1
  Hf  Hf17  1  0.60052279  0.40118321  -0.00456601  1
  Hf  Hf18  1  0.10822882  0.90562521  0.36993923  1
  Hf  Hf19  1  0.30020318  0.48707885  0.87865005  1
  Hf  Hf20  1  0.81009586  0.20198385  0.48486494  1
  Hf  Hf21  1  -0.00250814  0.61187814  0.76283270  1
  Hf  Hf22  1  0.61217956  -0.00032461  -0.00791513  1
  Hf  Hf23  1  0.10312766  0.10599530  0.36605409  1
  Hf  Hf24  1  0.09771308  0.71070298  0.36967646  1
  Hf  Hf25  1  -0.00528803  0.60398076  0.01050525  1
  Hf  Hf26  1  0.79736449  0.39167147  -0.00218102  1
  Hf  Hf27  1  0.89858078  0.10694284  0.63435373  1
  Hf  Hf28  1  0.07666453  0.50565975  0.61721083  1
  Hf  Hf29  1  0.19448538  0.60403615  0.74130363  1
  Hf  Hf30  1  0.42422787  0.79381563  -0.00785576  1
  Hf  Hf31  1  0.20096149  0.79903043  0.22445563  1
  Hf  Hf32  1  0.59313612  0.40001348  0.73405241  1
  Hf  Hf33  1  0.20439467  0.60161031  0.23904453  1
  Hf  Hf34  1  0.39002425  0.19377061  0.49721516  1
  Hf  Hf35  1  0.79027508  0.59680637  0.00744963  1
  Hf  Hf36  1  -0.01725844  0.60360377  0.48292161  1
  Hf  Hf37  1  0.10302809  0.92082134  0.88800631  1
  Hf  Hf38  1  0.82326905  0.19608177  0.27356842  1
  Hf  Hf39  1  0.50164787  0.71400112  0.61713701  1
  Zr  Zr40  1  0.19567408  0.39594412  0.73980230  1
  Zr  Zr41  1  -0.00029420  0.81094937  0.22689028  1
  Zr  Zr42  1  0.69675749  0.11422681  0.12794880  1
  Zr  Zr43  1  -0.00034395  0.40327488  0.75779445  1
  Zr  Zr44  1  0.39543470  0.39121664  0.72915188  1
  Zr  Zr45  1  0.79426035  -0.00665603  0.25839352  1
  Zr  Zr46  1  0.49030651  0.09028343  0.36418337  1
  Zr  Zr47  1  0.19737597  0.59602311  0.02011925  1
  Zr  Zr48  1  0.89050243  0.70759235  0.88176613  1
  Zr  Zr49  1  0.71972137  0.69424297  0.37566891  1
  Zr  Zr50  1  0.50334092  0.69844301  0.38113040  1
  Zr  Zr51  1  -0.00764584  0.60949573  0.24557664  1
  Zr  Zr52  1  0.28850526  0.08434342  0.87069309  1
  Zr  Zr53  1  0.49669162  0.91294554  0.62777941  1
  Zr  Zr54  1  0.38916176  0.39949841  0.51147056  1
  Zr  Zr55  1  0.30406954  0.28435756  0.87461504  1
  Zr  Zr56  1  0.78756480  0.19732812  -0.01460720  1
  Zr  Zr57  1  0.18950299  0.38615887  0.50047501  1
  Zr  Zr58  1  0.20042777  0.59775573  0.49701541  1
  Zr  Zr59  1  0.78869703  0.00519404  0.48332861  1
  Zr  Zr60  1  0.29407192  0.09864696  0.36155370  1
  Zr  Zr61  1  0.20078321  0.80407801  0.75764874  1
  Zr  Zr62  1  0.40670781  0.58206857  0.00984629  1
  Zr  Zr63  1  0.39792447  0.59380227  0.73183378  1
  Zr  Zr64  1  0.30802329  0.89898206  0.36023112  1
  Zr  Zr65  1  0.31760483  0.08422542  0.64256780  1
  Zr  Zr66  1  0.30569648  0.29772350  0.12816969  1
  Zr  Zr67  1  0.58968015  0.40332764  0.51348844  1
  Zr  Zr68  1  0.50203999  0.50477800  0.86628872  1
  Zr  Zr69  1  0.90534885  0.30314185  0.62774094  1
  Zr  Zr70  1  0.81952488  -0.00130793  0.00140492  1
  Zr  Zr71  1  0.78078958  0.80619875  0.01400255  1
  Zr  Zr72  1  -0.00222581  0.39501015  -0.00195407  1
  Zr  Zr73  1  0.09613596  0.49025141  0.36091037  1
  Zr  Zr74  1  0.90612121  0.91045512  0.63156486  1
  Zr  Zr75  1  0.59472925  0.62152376  0.01599942  1
  Zr  Zr76  1  0.89668823  0.48635268  0.13880079  1
  Zr  Zr77  1  0.79591299  0.40235579  0.74324575  1
  Zr  Zr78  1  0.10318021  0.50494333  0.88253253  1
  Zr  Zr79  1  0.60135191  0.19011107  0.48794956  1
  Ta  Ta80  1  0.40995429  0.79600510  0.24013653  1
  Ta  Ta81  1  0.69586582  0.92459388  0.63545243  1
  Ta  Ta82  1  0.29283456  0.70887922  0.62068001  1
  Ta  Ta83  1  0.79604813  0.79237294  0.23669442  1
  Ta  Ta84  1  0.68100883  0.71318586  0.87116360  1
  Ta  Ta85  1  0.51400137  0.89905171  0.12543051  1
  Ta  Ta86  1  0.69707333  0.27854662  0.62759516  1
  Ta  Ta87  1  0.10131637  0.48648656  0.13556074  1
  Ta  Ta88  1  0.09814107  0.72032520  0.89947161  1
  Ta  Ta89  1  0.39291134  0.80608390  0.49754136  1
  Ta  Ta90  1  0.20188245  0.39066451  0.00734853  1
  Ta  Ta91  1  0.59936019  0.81160336  0.74939082  1
  Ta  Ta92  1  0.70468785  0.31452426  0.38166117  1
  Ta  Ta93  1  0.40011079  0.20725744  0.25399868  1
  Ta  Ta94  1  -0.00555718  0.19200662  -0.00137168  1
  Ta  Ta95  1  0.09194330  0.29750972  0.12828298  1
  Ta  Ta96  1  0.19620271  0.19508089  0.00571243  1
  Ta  Ta97  1  0.41018510  -0.00535930  0.49891570  1
  Ta  Ta98  1  0.09643682  0.10599009  0.12643491  1
  Ta  Ta99  1  -0.00403795  0.01088128  0.24744294  1
  Ta  Ta100  1  0.91399039  0.09441992  0.86158911  1
  Ta  Ta101  1  0.00883629  0.20504867  0.49180835  1
  Ta  Ta102  1  0.31309781  0.70325147  0.11645695  1
  Ta  Ta103  1  0.20002690  -0.00155433  0.22753051  1
  Ta  Ta104  1  0.78880113  0.18734390  0.75908397  1
  Ta  Ta105  1  0.28516105  0.27693015  0.62661204  1
  Ta  Ta106  1  0.60804046  0.59938520  0.51363247  1
  Ta  Ta107  1  0.89938522  0.29124730  0.86567824  1
  Ta  Ta108  1  0.31416272  0.90273740  0.11542143  1
  Ta  Ta109  1  0.57720759  0.20195458  -0.01579143  1
  Ta  Ta110  1  0.41006943  0.37686364  -0.00207204  1
  Ta  Ta111  1  0.79272794  0.60418575  0.73274290  1
  Ta  Ta112  1  0.59991078  -0.00635709  0.25444926  1
  Ta  Ta113  1  0.09848881  0.28478777  0.87761982  1
  Ta  Ta114  1  0.10910032  0.89840951  0.62582490  1
  Ta  Ta115  1  0.20262849  0.80185013  0.50187645  1
  Ta  Ta116  1  0.18245258  0.18357313  0.75099307  1
  Ta  Ta117  1  0.01242248  0.80881047  0.75529298  1
  Ta  Ta118  1  0.59393602  0.19301452  0.76212681  1
  Ta  Ta119  1  -0.00455022  0.82128930  0.01887394  1
  Ti  Ti120  1  0.20546724  0.39441505  0.24940951  1
  Ti  Ti121  1  0.31071297  0.49511605  0.36542758  1
  Ti  Ti122  1  0.49141786  0.48808025  0.13927523  1
  Ti  Ti123  1  0.79256817  0.60310744  0.52386718  1
  Ti  Ti124  1  0.50011453  0.89429454  0.36923827  1
  Ti  Ti125  1  0.68835931  0.30142146  0.86523905  1
  Ti  Ti126  1  0.89007860  0.70017701  0.12286737  1
  Ti  Ti127  1  0.60873673  0.80454626  0.24922250  1
  Ti  Ti128  1  0.00750887  0.79889562  0.50324483  1
  Ti  Ti129  1  0.78418057  0.38296754  0.24990950  1
  Ti  Ti130  1  0.60257782  0.61236044  0.73123600  1
  Ti  Ti131  1  0.19679542  0.00085613  0.01718110  1
  Ti  Ti132  1  0.30710908  0.10168304  0.12732460  1
  Ti  Ti133  1  -0.01185575  0.39827638  0.48802489  1
  Ti  Ti134  1  0.52679643  0.09453016  0.63029792  1
  Ti  Ti135  1  0.10011476  0.29479800  0.36663248  1
  Ti  Ti136  1  0.29486033  0.29732786  0.37049369  1
  Ti  Ti137  1  0.89327604  0.50154817  0.87593325  1
  Ti  Ti138  1  0.67506459  0.49884971  0.36877196  1
  Ti  Ti139  1  0.30465518  0.48792161  0.12970314  1
  Ti  Ti140  1  0.30250399  0.70264136  0.37039779  1
  Ti  Ti141  1  0.89224732  0.28730397  0.12672610  1
  Ti  Ti142  1  0.49560306  0.32012070  0.36819165  1
  Ti  Ti143  1  0.40589182  0.19333962  0.75316274  1
  Ti  Ti144  1  0.19579310  0.20152273  0.23941776  1
  Ti  Ti145  1  0.90460597  0.10029250  0.12822789  1
  Ti  Ti146  1  0.29889568  0.89359350  0.89104074  1
  Ti  Ti147  1  0.09284956  0.28776500  0.62486414  1
  Ti  Ti148  1  0.49597382  0.27990007  0.62365331  1
  Ti  Ti149  1  0.49507867  0.10002352  0.13365574  1
  Ti  Ti150  1  0.70922738  0.91081104  0.86331669  1
  Ti  Ti151  1  0.42752370  -0.00696302  0.77506301  1
  Ti  Ti152  1  0.02429862  0.01313363  0.74793389  1
  Ti  Ti153  1  0.10837849  0.10277162  0.62004470  1
  Ti  Ti154  1  0.60302396  -0.00471699  0.48630758  1
  Ti  Ti155  1  0.39838539  0.59864392  0.24816121  1
  Ti  Ti156  1  0.60463937  0.80909304  0.49906323  1
  Ti  Ti157  1  0.90971206  0.90309553  0.86890472  1
  Ti  Ti158  1  0.30497420  0.89721643  0.63228935  1
  Ti  Ti159  1  -0.01062678  0.37883568  0.25455498  1
  Mo  Mo160  1  0.61552346  0.00911092  0.76201762  1
  Mo  Mo161  1  0.09927375  0.70185320  0.10817086  1
  Mo  Mo162  1  0.89661541  0.91033913  0.13248772  1
  Mo  Mo163  1  0.68563682  0.89020956  0.37343694  1
  Mo  Mo164  1  0.69692046  0.71532290  0.62369300  1
  Mo  Mo165  1  0.52108030  0.89193504  0.87485367  1
  Mo  Mo166  1  0.49556902  0.29947952  0.86942020  1
  Mo  Mo167  1  0.28787756  0.49644640  0.61924086  1
  Mo  Mo168  1  0.79341562  0.60085987  0.24210667  1
  Mo  Mo169  1  0.00539745  0.20160079  0.24496882  1
  Mo  Mo170  1  0.39912216  0.19359911  0.00653271  1
  Mo  Mo171  1  0.60285387  0.81060386  -0.00016630  1
  Mo  Mo172  1  0.09990488  0.10389421  0.88234930  1
  Mo  Mo173  1  0.91531938  0.09503139  0.37768998  1
  Mo  Mo174  1  0.69604304  0.90477550  0.13181779  1
  Mo  Mo175  1  0.89860653  0.50574220  0.62336928  1
  Mo  Mo176  1  0.49757480  0.70645009  0.13563146  1
  Mo  Mo177  1  0.10233539  0.71129564  0.62022706  1
  Mo  Mo178  1  0.19725184  -0.00742712  0.74597612  1
  Mo  Mo179  1  0.10125246  0.91268954  0.11421215  1
  Mo  Mo180  1  0.00084366  0.20004697  0.75209535  1
  Mo  Mo181  1  0.49873989  0.50520486  0.62622015  1
  Mo  Mo182  1  0.49755433  0.10326909  0.87285085  1
  Mo  Mo183  1  0.70042685  0.10283646  0.62616978  1
  Mo  Mo184  1  0.69710458  0.70189508  0.13659533  1
  Mo  Mo185  1  0.69572396  0.50440802  0.63066025  1
  Mo  Mo186  1  0.90021305  0.70227897  0.37508595  1
  Mo  Mo187  1  0.80955933  0.00127535  0.75754263  1
  Mo  Mo188  1  0.49468997  0.50484537  0.37086458  1
  Mo  Mo189  1  0.20469033  0.80540373  0.01182513  1
  Mo  Mo190  1  0.59534589  0.39926340  0.26193457  1
  Mo  Mo191  1  0.00179897  0.01124754  0.00630683  1
  Mo  Mo192  1  0.39666568  0.40516661  0.25845291  1
  Mo  Mo193  1  0.40340181  -0.00305364  0.23046060  1
  Mo  Mo194  1  0.70538361  0.29475053  0.12704526  1
  Mo  Mo195  1  0.51068966  0.69481365  0.86511725  1
  Mo  Mo196  1  0.70405639  0.10216684  0.87489521  1
  Mo  Mo197  1  0.19617351  0.19858945  0.50303429  1
  Mo  Mo198  1  0.90948838  0.30993814  0.37904689  1
  Mo  Mo199  1  0.69897917  0.09837957  0.37068101  1
