# generated using pymatgen
data_HfZrTaTiMo
_symmetry_space_group_name_H-M   'P 1'
_cell_length_a   15.21296339
_cell_length_b   15.19387868
_cell_length_c   16.84748652
_cell_angle_alpha   89.99293361
_cell_angle_beta   90.00466415
_cell_angle_gamma   90.11437259
_symmetry_Int_Tables_number   1
_chemical_formula_structural   HfZrTaTiMo
_chemical_formula_sum   'Hf40 Zr40 Ta40 Ti40 Mo40'
_cell_volume   3894.18627642
_cell_formula_units_Z   40
loop_
 _symmetry_equiv_pos_site_id
 _symmetry_equiv_pos_as_xyz
  1  'x, y, z'
loop_
 _atom_site_type_symbol
 _atom_site_label
 _atom_site_symmetry_multiplicity
 _atom_site_fract_x
 _atom_site_fract_y
 _atom_site_fract_z
 _atom_site_occupancy
  Hf  Hf0  1  0.79425382  -0.00158475  0.78179159  1
  Hf  Hf1  1  0.40310694  0.39622094  0.00358615  1
  Hf  Hf2  1  0.58839446  -0.00034062  -0.01916507  1
  Hf  Hf3  1  0.91060407  0.48870655  0.86232621  1
  Hf  Hf4  1  0.89144329  0.48726395  0.37758386  1
  Hf  Hf5  1  0.80513804  0.17159272  0.50637490  1
  Hf  Hf6  1  0.61954518  0.41942352  0.26869935  1
  Hf  Hf7  1  0.90854419  0.27651725  0.12221731  1
  Hf  Hf8  1  0.39481608  0.60360402  0.25572425  1
  Hf  Hf9  1  0.70104160  0.68985945  0.13004970  1
  Hf  Hf10  1  0.30254072  0.30004990  0.13506086  1
  Hf  Hf11  1  0.19043310  0.60912236  0.48914914  1
  Hf  Hf12  1  0.31400692  0.50123136  0.88415947  1
  Hf  Hf13  1  0.39641033  -0.00447550  0.50307553  1
  Hf  Hf14  1  0.20577362  0.81177870  -0.00454024  1
  Hf  Hf15  1  0.29184993  0.47907312  0.59830887  1
  Hf  Hf16  1  0.51394383  0.10070681  0.62223069  1
  Hf  Hf17  1  0.29760926  0.29447022  0.37773518  1
  Hf  Hf18  1  0.79324310  0.79376599  0.77071135  1
  Hf  Hf19  1  0.80224323  0.19536623  0.76170841  1
  Hf  Hf20  1  0.19958496  0.02831201  0.73436342  1
  Hf  Hf21  1  0.28056855  0.29321430  0.87651884  1
  Hf  Hf22  1  0.10437388  0.92267109  0.87179740  1
  Hf  Hf23  1  0.09506553  0.30077828  0.37716173  1
  Hf  Hf24  1  0.90871494  0.50212621  0.63297999  1
  Hf  Hf25  1  0.50355402  0.69914992  0.37300805  1
  Hf  Hf26  1  0.19679866  0.60333146  -0.00349297  1
  Hf  Hf27  1  0.48905702  0.09296069  0.12777186  1
  Hf  Hf28  1  0.40959581  0.00474772  0.75523805  1
  Hf  Hf29  1  0.79012042  0.56589960  0.24572461  1
  Hf  Hf30  1  0.67619612  0.88827184  0.10802603  1
  Hf  Hf31  1  0.20244948  0.80714506  0.50981547  1
  Hf  Hf32  1  0.69015641  0.28819963  0.63299782  1
  Hf  Hf33  1  0.39031488  0.41243255  0.74728152  1
  Hf  Hf34  1  -0.00494580  -0.01383775  0.23424295  1
  Hf  Hf35  1  0.70870655  0.32180346  0.12742188  1
  Hf  Hf36  1  0.90013820  0.87893502  0.10152180  1
  Hf  Hf37  1  0.00513665  0.79744570  0.49918819  1
  Hf  Hf38  1  0.80184424  0.39785670  -0.01598081  1
  Hf  Hf39  1  0.18898001  0.19729040  0.01602653  1
  Zr  Zr40  1  0.38106387  0.20289280  0.73723303  1
  Zr  Zr41  1  0.89177631  0.91430134  0.64217904  1
  Zr  Zr42  1  0.59757000  0.60607187  0.73706576  1
  Zr  Zr43  1  0.18765799  0.61600103  0.25870030  1
  Zr  Zr44  1  0.69324524  0.51309964  0.86805144  1
  Zr  Zr45  1  -0.01749799  0.00247750  0.50362987  1
  Zr  Zr46  1  0.50423201  0.30151796  0.13638790  1
  Zr  Zr47  1  0.49501632  0.09688207  0.37615714  1
  Zr  Zr48  1  0.50201501  0.68012548  0.87259207  1
  Zr  Zr49  1  0.50762782  0.70816631  0.61648823  1
  Zr  Zr50  1  0.51597730  0.51097854  0.13424250  1
  Zr  Zr51  1  0.59646837  -0.00574214  0.24694745  1
  Zr  Zr52  1  0.00949778  0.02350449  0.01669905  1
  Zr  Zr53  1  0.91158133  0.28939923  0.62715255  1
  Zr  Zr54  1  0.19187772  -0.00067485  0.51748459  1
  Zr  Zr55  1  0.19587642  0.19708840  0.51747890  1
  Zr  Zr56  1  0.80755259  0.19592719  -0.01990938  1
  Zr  Zr57  1  0.48907487  0.50723132  0.60171147  1
  Zr  Zr58  1  0.29460191  0.50357668  0.12683336  1
  Zr  Zr59  1  0.30665088  0.89273202  0.64148371  1
  Zr  Zr60  1  0.72024891  0.91386593  0.37158501  1
  Zr  Zr61  1  0.61837854  0.80614647  0.49718262  1
  Zr  Zr62  1  0.19779710  0.00599804  0.22925383  1
  Zr  Zr63  1  0.79649561  0.00743109  0.21744798  1
  Zr  Zr64  1  0.21735434  0.59001785  0.74969115  1
  Zr  Zr65  1  0.80193106  0.61196065  0.50812690  1
  Zr  Zr66  1  0.80036921  0.39009551  0.50705252  1
  Zr  Zr67  1  0.38918578  -0.00200412  -0.00924794  1
  Zr  Zr68  1  0.09352080  0.09966307  0.37517023  1
  Zr  Zr69  1  0.81462108  0.80147560  0.24344783  1
  Zr  Zr70  1  0.49050947  0.30866117  0.61251799  1
  Zr  Zr71  1  0.90607928  0.89845621  0.89427626  1
  Zr  Zr72  1  0.19105855  0.79253281  0.75243920  1
  Zr  Zr73  1  0.59338906  0.20595120  -0.00981704  1
  Zr  Zr74  1  0.30978454  0.70753903  0.87860873  1
  Zr  Zr75  1  0.01657794  0.61112157  0.76716530  1
  Zr  Zr76  1  0.88352507  0.07648067  0.36940521  1
  Zr  Zr77  1  0.70507208  0.69288451  0.36023746  1
  Zr  Zr78  1  0.89474300  0.48135487  0.12162700  1
  Zr  Zr79  1  0.61021190  0.20163943  0.25831629  1
  Ta  Ta80  1  0.09746606  0.31137940  0.13413143  1
  Ta  Ta81  1  0.30124597  0.72363532  0.37683139  1
  Ta  Ta82  1  0.10707624  0.31688442  0.62017412  1
  Ta  Ta83  1  0.60574774  0.40053648  0.48943657  1
  Ta  Ta84  1  0.40176129  0.40217554  0.26694895  1
  Ta  Ta85  1  0.19757858  0.40765633  0.25897225  1
  Ta  Ta86  1  0.30556553  0.71132657  0.12394409  1
  Ta  Ta87  1  0.08703250  0.50885808  0.37014649  1
  Ta  Ta88  1  0.79873771  0.39942793  0.74759378  1
  Ta  Ta89  1  0.51165681  0.90517749  0.63156289  1
  Ta  Ta90  1  -0.00643279  0.39450027  0.25486119  1
  Ta  Ta91  1  0.90569471  0.71155311  0.63450730  1
  Ta  Ta92  1  0.60292689  -0.00219467  0.77071489  1
  Ta  Ta93  1  0.91739160  0.68961660  0.36373532  1
  Ta  Ta94  1  0.09890662  0.50394361  0.62059101  1
  Ta  Ta95  1  0.08367186  0.90140947  0.64418208  1
  Ta  Ta96  1  0.38906724  -0.01138965  0.25388874  1
  Ta  Ta97  1  0.70551948  0.08162224  0.63485752  1
  Ta  Ta98  1  0.40201680  0.80147857  0.50244476  1
  Ta  Ta99  1  0.50645377  0.72198989  0.14002319  1
  Ta  Ta100  1  0.59091750  0.39928485  0.75065600  1
  Ta  Ta101  1  0.49191052  0.89032598  0.37087764  1
  Ta  Ta102  1  0.69266909  0.30612303  0.86276894  1
  Ta  Ta103  1  0.10781289  0.89358223  0.36814714  1
  Ta  Ta104  1  0.80261464  0.60671848  0.74457801  1
  Ta  Ta105  1  0.39721610  0.19836999  0.50310011  1
  Ta  Ta106  1  0.08935840  0.50200245  0.13102806  1
  Ta  Ta107  1  0.01828634  0.78640149  0.24612345  1
  Ta  Ta108  1  0.19494103  0.20257074  0.24310169  1
  Ta  Ta109  1  0.10170440  0.69718859  0.11875235  1
  Ta  Ta110  1  0.79185607  0.00385919  -0.00285787  1
  Ta  Ta111  1  0.80831553  0.60397928  -0.00579680  1
  Ta  Ta112  1  0.50080012  0.30208603  0.37960129  1
  Ta  Ta113  1  0.60798811  0.19791333  0.49102680  1
  Ta  Ta114  1  0.48922206  0.30377829  0.87044249  1
  Ta  Ta115  1  0.30023658  0.90490341  0.86256428  1
  Ta  Ta116  1  0.59790602  0.40939057  -0.00917900  1
  Ta  Ta117  1  0.69751566  0.49701743  0.62857192  1
  Ta  Ta118  1  0.69697241  0.89337378  0.63299650  1
  Ta  Ta119  1  0.00476316  0.58745946  -0.01184766  1
  Ti  Ti120  1  -0.00225744  0.60384916  0.50157435  1
  Ti  Ti121  1  0.78260259  0.78852633  -0.01547009  1
  Ti  Ti122  1  0.30012741  0.50214700  0.38563713  1
  Ti  Ti123  1  0.61154526  0.60116864  0.50246359  1
  Ti  Ti124  1  0.59220632  0.18908016  0.76562224  1
  Ti  Ti125  1  0.00661712  0.40043886  0.49736256  1
  Ti  Ti126  1  0.60595896  0.80329194  0.75716553  1
  Ti  Ti127  1  0.41439737  0.80198064  0.00196104  1
  Ti  Ti128  1  0.61263816  0.00286361  0.49576990  1
  Ti  Ti129  1  0.09723274  0.70007247  0.62826938  1
  Ti  Ti130  1  0.31159880  0.68235942  0.61814353  1
  Ti  Ti131  1  0.29011739  0.09235910  0.37509072  1
  Ti  Ti132  1  0.06680454  0.11195857  0.63287220  1
  Ti  Ti133  1  0.00561137  0.38790048  -0.00755784  1
  Ti  Ti134  1  0.69686548  0.11566526  0.11198070  1
  Ti  Ti135  1  0.18938797  0.40256684  0.00138656  1
  Ti  Ti136  1  0.10357106  0.88811905  0.11851121  1
  Ti  Ti137  1  0.40688234  0.78540008  0.74521857  1
  Ti  Ti138  1  0.00467087  0.77581577  -0.01095141  1
  Ti  Ti139  1  0.11062916  0.12382528  0.86862464  1
  Ti  Ti140  1  -0.00548682  0.80352241  0.76935355  1
  Ti  Ti141  1  0.39488703  0.19297643  -0.00010279  1
  Ti  Ti142  1  0.50199883  0.50564563  0.38573052  1
  Ti  Ti143  1  0.31574872  0.89988687  0.12339660  1
  Ti  Ti144  1  0.29406521  0.09997908  0.87464800  1
  Ti  Ti145  1  0.39252718  0.19114478  0.25475307  1
  Ti  Ti146  1  0.20442567  0.00836793  0.01496932  1
  Ti  Ti147  1  0.92374274  0.10433481  0.87358040  1
  Ti  Ti148  1  0.41078782  0.60536176  0.01392410  1
  Ti  Ti149  1  0.80256595  0.19803201  0.25213233  1
  Ti  Ti150  1  0.49404172  0.88515661  0.86919786  1
  Ti  Ti151  1  -0.00327974  0.18744606  0.24794333  1
  Ti  Ti152  1  0.91443800  0.67918060  0.12781130  1
  Ti  Ti153  1  0.18735861  0.39319591  0.75258626  1
  Ti  Ti154  1  0.60443087  0.60970737  0.00070910  1
  Ti  Ti155  1  0.90612960  0.28028276  0.38220995  1
  Ti  Ti156  1  0.21294727  0.80984534  0.24604783  1
  Ti  Ti157  1  0.01140886  0.21747278  0.75900137  1
  Ti  Ti158  1  0.81576558  0.80867379  0.49689446  1
  Ti  Ti159  1  0.71345729  0.29643721  0.37872956  1
  Mo  Mo160  1  0.69792584  0.49773407  0.38869051  1
  Mo  Mo161  1  0.78581256  -0.01698152  0.50781696  1
  Mo  Mo162  1  0.69853497  0.69808403  0.87936041  1
  Mo  Mo163  1  0.31202755  0.10530627  0.62129526  1
  Mo  Mo164  1  0.49020790  0.89707739  0.12603522  1
  Mo  Mo165  1  0.58871835  0.79195419  -0.00500600  1
  Mo  Mo166  1  0.59647419  0.60312559  0.25087710  1
  Mo  Mo167  1  0.09758558  0.70895059  0.37328171  1
  Mo  Mo168  1  0.00544952  0.21290927  -0.01003128  1
  Mo  Mo169  1  0.59904441  0.80417708  0.25501876  1
  Mo  Mo170  1  0.39470295  0.80416955  0.25123567  1
  Mo  Mo171  1  0.39918443  0.39788029  0.47419102  1
  Mo  Mo172  1  0.19071331  0.21222899  0.73377302  1
  Mo  Mo173  1  0.90390384  0.30098491  0.86292935  1
  Mo  Mo174  1  0.29497854  0.30459300  0.61168350  1
  Mo  Mo175  1  0.29802465  0.90602716  0.37586559  1
  Mo  Mo176  1  0.69942382  0.50389876  0.10504465  1
  Mo  Mo177  1  0.89698085  0.69134036  0.88146360  1
  Mo  Mo178  1  0.39280507  0.60942518  0.48167810  1
  Mo  Mo179  1  0.11187491  0.48922368  0.88056352  1
  Mo  Mo180  1  0.69518674  0.10296696  0.87706616  1
  Mo  Mo181  1  0.09954780  0.70414230  0.88305545  1
  Mo  Mo182  1  0.71774168  0.70506553  0.62421932  1
  Mo  Mo183  1  0.00105537  0.01465441  0.75917673  1
  Mo  Mo184  1  -0.00613645  0.20518449  0.50421201  1
  Mo  Mo185  1  0.48641463  0.11141060  0.87139849  1
  Mo  Mo186  1  0.50039450  0.49123391  0.87636657  1
  Mo  Mo187  1  -0.00488717  0.59490684  0.24433505  1
  Mo  Mo188  1  0.08824854  0.11875774  0.13237612  1
  Mo  Mo189  1  0.30160286  0.10422261  0.13025561  1
  Mo  Mo190  1  0.89468413  0.09735545  0.64255357  1
  Mo  Mo191  1  0.91939251  0.87976366  0.37141387  1
  Mo  Mo192  1  0.89146327  0.09976483  0.11937606  1
  Mo  Mo193  1  0.09447464  0.30773829  0.87631471  1
  Mo  Mo194  1  0.18787470  0.40711977  0.48225585  1
  Mo  Mo195  1  0.39667603  0.59664671  0.73980932  1
  Mo  Mo196  1  0.80860514  0.37348396  0.26483208  1
  Mo  Mo197  1  0.68834200  0.89394571  0.89185838  1
  Mo  Mo198  1  0.69905916  0.10553983  0.37501077  1
  Mo  Mo199  1  0.01055627  0.40411852  0.74545793  1
