# generated using pymatgen
data_HfZrTaTiMo
_symmetry_space_group_name_H-M   'P 1'
_cell_length_a   15.21461204
_cell_length_b   15.20529540
_cell_length_c   16.85847258
_cell_angle_alpha   89.99546096
_cell_angle_beta   89.95349442
_cell_angle_gamma   89.89078447
_symmetry_Int_Tables_number   1
_chemical_formula_structural   HfZrTaTiMo
_chemical_formula_sum   'Hf40 Zr40 Ta40 Ti40 Mo40'
_cell_volume   3900.07568650
_cell_formula_units_Z   40
loop_
 _symmetry_equiv_pos_site_id
 _symmetry_equiv_pos_as_xyz
  1  'x, y, z'
loop_
 _atom_site_type_symbol
 _atom_site_label
 _atom_site_symmetry_multiplicity
 _atom_site_fract_x
 _atom_site_fract_y
 _atom_site_fract_z
 _atom_site_occupancy
  Hf  Hf0  1  0.61087354  -0.00840400  0.25419619  1
  Hf  Hf1  1  0.01730206  -0.00653945  0.74613155  1
  Hf  Hf2  1  0.49917920  0.49114577  0.61924539  1
  Hf  Hf3  1  0.00354544  0.20255731  0.76427231  1
  Hf  Hf4  1  0.00366354  0.79119074  0.76806927  1
  Hf  Hf5  1  0.69277957  0.49694876  0.12461129  1
  Hf  Hf6  1  0.80311000  0.82168389  0.25430023  1
  Hf  Hf7  1  0.29353440  0.30803514  0.36505005  1
  Hf  Hf8  1  0.20202096  0.78480165  0.24913316  1
  Hf  Hf9  1  0.60153128  0.79160826  0.24310105  1
  Hf  Hf10  1  0.49629634  0.10681419  0.12682371  1
  Hf  Hf11  1  0.80440038  0.20236906  0.25322448  1
  Hf  Hf12  1  0.39454005  0.41666428  -0.00009137  1
  Hf  Hf13  1  0.90508351  0.91481595  0.11662150  1
  Hf  Hf14  1  0.31356962  0.29724038  0.13199420  1
  Hf  Hf15  1  0.89160631  0.89882232  0.63954995  1
  Hf  Hf16  1  0.79792872  0.80527077  0.50301566  1
  Hf  Hf17  1  0.79938069  0.21945955  0.50522374  1
  Hf  Hf18  1  -0.00806717  -0.00060666  0.25940660  1
  Hf  Hf19  1  0.70351535  0.09836461  0.12550313  1
  Hf  Hf20  1  0.01437027  0.60742743  0.50211367  1
  Hf  Hf21  1  0.28972261  0.30190694  0.62060244  1
  Hf  Hf22  1  0.60422957  0.58770255  -0.00705513  1
  Hf  Hf23  1  0.70296709  0.09629143  0.37206024  1
  Hf  Hf24  1  0.29841154  0.90562497  0.13106442  1
  Hf  Hf25  1  0.19214974  0.00044951  0.48220984  1
  Hf  Hf26  1  0.69803455  0.70542320  0.38071182  1
  Hf  Hf27  1  0.81455907  0.02270843  -0.02014690  1
  Hf  Hf28  1  0.29620878  0.30104199  0.88374252  1
  Hf  Hf29  1  0.79275744  0.40964587  0.25282856  1
  Hf  Hf30  1  0.40649769  0.61754501  -0.00904580  1
  Hf  Hf31  1  0.91251572  0.11644416  0.38076398  1
  Hf  Hf32  1  0.40419834  0.00545909  0.26109351  1
  Hf  Hf33  1  0.49758382  0.89711825  0.11138716  1
  Hf  Hf34  1  0.61044701  -0.01884754  0.76138695  1
  Hf  Hf35  1  0.18976417  0.39964109  0.23757407  1
  Hf  Hf36  1  0.20779687  0.17996002  0.00916534  1
  Hf  Hf37  1  0.19893745  0.19816823  0.75884524  1
  Hf  Hf38  1  0.71201979  0.69897293  0.85502801  1
  Hf  Hf39  1  0.80845012  0.60885191  0.25131244  1
  Zr  Zr40  1  0.27409085  0.50139736  0.62163736  1
  Zr  Zr41  1  0.31000250  0.87555766  0.38431629  1
  Zr  Zr42  1  0.00012614  0.59795987  -0.01579775  1
  Zr  Zr43  1  0.20205940  0.60700640  0.75945033  1
  Zr  Zr44  1  -0.01937055  0.40237966  0.49712755  1
  Zr  Zr45  1  0.07697356  0.86867287  0.38476737  1
  Zr  Zr46  1  -0.01191724  0.19214349  -0.01622809  1
  Zr  Zr47  1  0.38903747  0.40131739  0.75220378  1
  Zr  Zr48  1  0.40677144  0.19820074  0.75429764  1
  Zr  Zr49  1  0.19164567  -0.00623055  0.26602609  1
  Zr  Zr50  1  0.91260676  0.70806878  0.12790391  1
  Zr  Zr51  1  -0.00332697  0.39995234  0.78264411  1
  Zr  Zr52  1  0.41580377  -0.00324264  0.48822810  1
  Zr  Zr53  1  0.08617320  0.29846268  0.10960839  1
  Zr  Zr54  1  0.40105782  0.79513815  0.74179918  1
  Zr  Zr55  1  0.50437374  0.29012766  0.61871353  1
  Zr  Zr56  1  0.79326046  0.01159315  0.51512975  1
  Zr  Zr57  1  -0.00625058  0.00009427  0.50579977  1
  Zr  Zr58  1  0.79881055  0.40608937  -0.01495445  1
  Zr  Zr59  1  0.51348041  0.31077536  0.15078774  1
  Zr  Zr60  1  0.21595015  0.79400213  0.00073743  1
  Zr  Zr61  1  0.41573561  0.20790517  -0.00412954  1
  Zr  Zr62  1  0.70935122  0.90030581  0.10677790  1
  Zr  Zr63  1  0.89554258  0.69931813  0.64627803  1
  Zr  Zr64  1  0.59259973  0.59048729  0.25889099  1
  Zr  Zr65  1  0.29712174  0.89713707  0.60802029  1
  Zr  Zr66  1  0.58901170  0.38679087  -0.01501416  1
  Zr  Zr67  1  0.29167309  0.51946014  0.37845661  1
  Zr  Zr68  1  0.39092869  0.61622673  0.51204043  1
  Zr  Zr69  1  0.10509191  0.10293303  0.62332687  1
  Zr  Zr70  1  0.70320474  0.29551685  0.12548761  1
  Zr  Zr71  1  0.60459258  0.78169596  -0.00276507  1
  Zr  Zr72  1  0.90390229  0.49568368  0.64171408  1
  Zr  Zr73  1  0.00651491  0.80923138  -0.01875058  1
  Zr  Zr74  1  0.80493963  0.59696449  0.50326702  1
  Zr  Zr75  1  0.48653965  0.88895707  0.88735231  1
  Zr  Zr76  1  0.30569434  0.09956001  0.61779640  1
  Zr  Zr77  1  0.50051729  0.09796469  0.87608910  1
  Zr  Zr78  1  0.40790353  0.20017634  0.49235990  1
  Zr  Zr79  1  0.19826010  0.18485754  0.23760030  1
  Ta  Ta80  1  0.49745238  0.50095156  0.85938488  1
  Ta  Ta81  1  0.40981415  0.79105206  0.24892021  1
  Ta  Ta82  1  0.30249406  0.10951972  0.37562949  1
  Ta  Ta83  1  0.09204686  0.49375676  0.36360978  1
  Ta  Ta84  1  0.90116359  0.11081508  0.12580809  1
  Ta  Ta85  1  0.50111957  0.30138626  0.36420380  1
  Ta  Ta86  1  0.09905905  0.87714461  0.61433368  1
  Ta  Ta87  1  0.18249542  0.40112912  0.76598665  1
  Ta  Ta88  1  0.48735790  0.70034325  0.38380523  1
  Ta  Ta89  1  0.60688769  -0.00737796  0.49983000  1
  Ta  Ta90  1  0.89486226  0.11324661  0.63960009  1
  Ta  Ta91  1  0.91994666  0.71263979  0.36878419  1
  Ta  Ta92  1  0.51002659  0.88855358  0.62483466  1
  Ta  Ta93  1  0.51559789  0.08284382  0.63104669  1
  Ta  Ta94  1  0.59922815  0.59876867  0.73125748  1
  Ta  Ta95  1  0.80072131  0.60979950  -0.00233170  1
  Ta  Ta96  1  0.60306285  0.60420239  0.51509239  1
  Ta  Ta97  1  0.68922182  0.30286531  0.37195524  1
  Ta  Ta98  1  0.59690828  0.39305301  0.75160105  1
  Ta  Ta99  1  0.32358449  0.69139868  0.12790528  1
  Ta  Ta100  1  0.20975155  0.59146954  0.00841738  1
  Ta  Ta101  1  0.19078791  0.20801427  0.49118641  1
  Ta  Ta102  1  0.39550317  0.40096942  0.49161094  1
  Ta  Ta103  1  0.39231524  -0.00826099  0.74725814  1
  Ta  Ta104  1  0.19500721  0.76475722  0.49640666  1
  Ta  Ta105  1  0.90116984  0.50141029  0.12001521  1
  Ta  Ta106  1  0.89456363  0.30524498  0.64048737  1
  Ta  Ta107  1  0.09294102  0.31724622  0.62910256  1
  Ta  Ta108  1  0.00139522  0.20519854  0.24325958  1
  Ta  Ta109  1  0.70458096  0.30352772  0.63399150  1
  Ta  Ta110  1  0.10430733  0.08126125  0.87894153  1
  Ta  Ta111  1  0.09338929  0.88827773  0.13063356  1
  Ta  Ta112  1  0.19906363  0.82007524  0.75768076  1
  Ta  Ta113  1  0.61332317  0.18856156  0.75126311  1
  Ta  Ta114  1  0.18094990  0.40398362  0.49424202  1
  Ta  Ta115  1  0.48298111  0.51705594  0.13067385  1
  Ta  Ta116  1  0.40164967  0.42308560  0.25726896  1
  Ta  Ta117  1  0.08625467  0.29468572  0.36970775  1
  Ta  Ta118  1  -0.01180804  0.40287976  0.24549530  1
  Ta  Ta119  1  0.50707977  0.69010872  0.85785130  1
  Ti  Ti120  1  0.89252941  0.31451355  0.37367865  1
  Ti  Ti121  1  0.10794812  0.67614979  0.36182962  1
  Ti  Ti122  1  0.89555397  0.30665278  0.11471753  1
  Ti  Ti123  1  0.60747994  0.39362862  0.50094041  1
  Ti  Ti124  1  0.87874292  0.52079509  0.86131972  1
  Ti  Ti125  1  0.79494196  0.01535357  0.75517701  1
  Ti  Ti126  1  0.70837567  0.49369605  0.62955978  1
  Ti  Ti127  1  0.69571575  0.29574648  0.86204725  1
  Ti  Ti128  1  0.61850713  0.19229390  -0.01431505  1
  Ti  Ti129  1  0.10342377  0.69325610  0.12539355  1
  Ti  Ti130  1  0.38170247  0.00408741  0.00297417  1
  Ti  Ti131  1  0.29060075  0.70772796  0.62861082  1
  Ti  Ti132  1  0.40007969  0.59933965  0.73951531  1
  Ti  Ti133  1  0.80846576  0.80096284  -0.01984210  1
  Ti  Ti134  1  0.11490716  0.69542405  0.88065387  1
  Ti  Ti135  1  0.60320079  0.18937450  0.49980151  1
  Ti  Ti136  1  0.88274459  0.90857023  0.38083707  1
  Ti  Ti137  1  0.70038841  0.49609843  0.38738128  1
  Ti  Ti138  1  0.50447010  0.50029765  0.39019651  1
  Ti  Ti139  1  0.19455399  0.40336125  0.00247858  1
  Ti  Ti140  1  0.19064659  -0.01327748  0.00197598  1
  Ti  Ti141  1  0.00245168  0.20895796  0.50910482  1
  Ti  Ti142  1  0.10159229  0.68822110  0.63389630  1
  Ti  Ti143  1  0.90330417  0.51289296  0.37009305  1
  Ti  Ti144  1  0.69433625  0.72382793  0.64223668  1
  Ti  Ti145  1  0.31199672  0.71472772  0.87241172  1
  Ti  Ti146  1  0.08924777  0.50169116  0.11925045  1
  Ti  Ti147  1  0.90002883  0.90942920  0.86559104  1
  Ti  Ti148  1  0.51735866  0.88973853  0.37810867  1
  Ti  Ti149  1  0.60968383  -0.00123716  -0.01561562  1
  Ti  Ti150  1  0.70600674  0.69629832  0.12276243  1
  Ti  Ti151  1  0.29678140  0.08174405  0.87086667  1
  Ti  Ti152  1  0.29700815  0.51102343  0.87426007  1
  Ti  Ti153  1  0.69484021  0.50121793  0.85591165  1
  Ti  Ti154  1  0.09047528  0.07918378  0.11838059  1
  Ti  Ti155  1  -0.00394502  0.40216478  -0.02040916  1
  Ti  Ti156  1  0.87642407  0.28528330  0.87000797  1
  Ti  Ti157  1  0.01021857  0.59261472  0.76738546  1
  Ti  Ti158  1  0.59518072  0.79706383  0.50676140  1
  Ti  Ti159  1  0.20900612  0.59010494  0.23232144  1
  Mo  Mo160  1  0.39858283  0.60823791  0.25654298  1
  Mo  Mo161  1  0.40121511  0.80057212  0.00038157  1
  Mo  Mo162  1  0.59781710  0.40831656  0.26477585  1
  Mo  Mo163  1  0.29513018  0.90937620  0.87629419  1
  Mo  Mo164  1  0.79835002  0.20327645  0.74380096  1
  Mo  Mo165  1  0.10559356  0.29539788  0.89568076  1
  Mo  Mo166  1  0.89919038  0.69994715  0.86318959  1
  Mo  Mo167  1  0.80822415  0.00766616  0.25002006  1
  Mo  Mo168  1  0.09888882  0.11343385  0.37876938  1
  Mo  Mo169  1  0.78969487  0.40120568  0.76033006  1
  Mo  Mo170  1  0.50594078  0.69709984  0.62909045  1
  Mo  Mo171  1  0.09302767  0.49656134  0.63478411  1
  Mo  Mo172  1  0.10975643  0.90003623  0.87589259  1
  Mo  Mo173  1  0.69742497  0.89598010  0.38092046  1
  Mo  Mo174  1  0.50655581  0.30379208  0.86797004  1
  Mo  Mo175  1  0.30399319  0.09088148  0.12513502  1
  Mo  Mo176  1  0.79683913  0.20802872  -0.00397556  1
  Mo  Mo177  1  0.79327603  0.60199768  0.74019688  1
  Mo  Mo178  1  0.78733432  0.40372013  0.49757932  1
  Mo  Mo179  1  0.00872570  0.00176493  -0.00274638  1
  Mo  Mo180  1  0.01161058  0.59153603  0.24509376  1
  Mo  Mo181  1  0.11093375  0.49854997  0.89139286  1
  Mo  Mo182  1  0.18883438  0.59291824  0.50145159  1
  Mo  Mo183  1  0.78873173  0.82448887  0.76160979  1
  Mo  Mo184  1  0.70682754  0.90079514  0.88569865  1
  Mo  Mo185  1  0.59851212  0.79798078  0.75240415  1
  Mo  Mo186  1  0.70909552  0.10840880  0.87372837  1
  Mo  Mo187  1  0.20639453  -0.00240448  0.74594615  1
  Mo  Mo188  1  0.29676648  0.50079152  0.12468214  1
  Mo  Mo189  1  0.50935580  0.10669825  0.37005132  1
  Mo  Mo190  1  0.69109716  0.90745889  0.62898008  1
  Mo  Mo191  1  -0.00655066  0.79247411  0.50770343  1
  Mo  Mo192  1  0.59561517  0.19496873  0.25972044  1
  Mo  Mo193  1  0.00204089  0.79215831  0.24540608  1
  Mo  Mo194  1  0.50832998  0.69897207  0.12586170  1
  Mo  Mo195  1  0.90381088  0.09787041  0.85320537  1
  Mo  Mo196  1  0.29739455  0.69810065  0.36947375  1
  Mo  Mo197  1  0.40699496  0.79475690  0.50790516  1
  Mo  Mo198  1  0.69497409  0.10621386  0.62596261  1
  Mo  Mo199  1  0.40053763  0.20090904  0.26006113  1
