# generated using pymatgen
data_HfZrTaTiMo
_symmetry_space_group_name_H-M   'P 1'
_cell_length_a   15.20971264
_cell_length_b   15.21180104
_cell_length_c   16.84061949
_cell_angle_alpha   90.07263759
_cell_angle_beta   90.02399078
_cell_angle_gamma   90.00016826
_symmetry_Int_Tables_number   1
_chemical_formula_structural   HfZrTaTiMo
_chemical_formula_sum   'Hf40 Zr40 Ta40 Ti40 Mo40'
_cell_volume   3896.36220094
_cell_formula_units_Z   40
loop_
 _symmetry_equiv_pos_site_id
 _symmetry_equiv_pos_as_xyz
  1  'x, y, z'
loop_
 _atom_site_type_symbol
 _atom_site_label
 _atom_site_symmetry_multiplicity
 _atom_site_fract_x
 _atom_site_fract_y
 _atom_site_fract_z
 _atom_site_occupancy
  Hf  Hf0  1  0.38704867  0.20497636  -0.00327047  1
  Hf  Hf1  1  0.28128218  0.88222760  0.37712258  1
  Hf  Hf2  1  -0.00740401  0.59429816  0.74692558  1
  Hf  Hf3  1  0.50450420  0.29092395  0.13648607  1
  Hf  Hf4  1  0.28789753  0.08789727  0.12027965  1
  Hf  Hf5  1  0.58921794  0.59372203  0.48566031  1
  Hf  Hf6  1  0.69052271  0.10984292  0.12404224  1
  Hf  Hf7  1  0.79960353  0.20766788  0.50335279  1
  Hf  Hf8  1  0.79338181  0.60711014  0.49256291  1
  Hf  Hf9  1  0.31471103  0.50708097  0.60684589  1
  Hf  Hf10  1  0.69747522  0.10429044  0.63016012  1
  Hf  Hf11  1  -0.00817347  0.81809716  0.01712422  1
  Hf  Hf12  1  0.87732192  0.70742221  0.87156262  1
  Hf  Hf13  1  0.40688591  0.59216637  0.01802727  1
  Hf  Hf14  1  0.09526407  0.12334943  0.13100168  1
  Hf  Hf15  1  0.19931605  0.20584934  0.50926739  1
  Hf  Hf16  1  0.78669455  0.20075478  0.76580442  1
  Hf  Hf17  1  0.90624985  0.50615007  0.88730908  1
  Hf  Hf18  1  0.89576587  0.50288304  0.62084719  1
  Hf  Hf19  1  0.59977367  0.80331067  0.26255559  1
  Hf  Hf20  1  -0.00400844  0.60095748  0.25409223  1
  Hf  Hf21  1  0.91075244  0.31195374  0.87828004  1
  Hf  Hf22  1  0.49883294  0.69971172  0.88073033  1
  Hf  Hf23  1  0.59231808  0.21235869  0.49895491  1
  Hf  Hf24  1  0.00228713  0.61261125  0.00849116  1
  Hf  Hf25  1  0.60359746  0.60381720  0.01909280  1
  Hf  Hf26  1  0.02983433  0.40228222  0.25182416  1
  Hf  Hf27  1  0.29813248  0.09711901  0.63485158  1
  Hf  Hf28  1  -0.01343205  0.00543568  0.23410991  1
  Hf  Hf29  1  0.19782016  0.58811098  0.25653804  1
  Hf  Hf30  1  0.50372876  0.89170296  0.62630795  1
  Hf  Hf31  1  0.78846397  0.79505852  0.01257812  1
  Hf  Hf32  1  0.09574436  0.08875863  0.85216349  1
  Hf  Hf33  1  0.70039076  0.30142984  0.36042637  1
  Hf  Hf34  1  0.61106203  0.79315390  0.48645252  1
  Hf  Hf35  1  0.78443433  0.20862970  -0.01636590  1
  Hf  Hf36  1  0.09412276  0.70158323  0.87864872  1
  Hf  Hf37  1  0.79010123  -0.00197071  0.24382440  1
  Hf  Hf38  1  0.28672552  0.10653247  0.86097301  1
  Hf  Hf39  1  0.61333142  0.40196789  0.01024682  1
  Zr  Zr40  1  0.30971337  0.48132397  0.89292578  1
  Zr  Zr41  1  0.39348327  -0.00434517  0.50208028  1
  Zr  Zr42  1  0.71555969  0.30350177  0.13292176  1
  Zr  Zr43  1  0.39536366  0.19308964  0.25471621  1
  Zr  Zr44  1  0.90244121  0.09371129  0.88358824  1
  Zr  Zr45  1  -0.00428749  0.19694588  0.51725392  1
  Zr  Zr46  1  0.71239701  0.89243290  0.86762917  1
  Zr  Zr47  1  0.40384906  -0.01498333  -0.01177350  1
  Zr  Zr48  1  0.70437244  0.51497391  0.87604048  1
  Zr  Zr49  1  0.09162478  0.09327190  0.64488978  1
  Zr  Zr50  1  0.40329150  -0.00936893  0.75300200  1
  Zr  Zr51  1  0.60055613  0.00045523  0.49735362  1
  Zr  Zr52  1  0.22101453  0.40229614  0.74128021  1
  Zr  Zr53  1  0.90295967  0.09827312  0.37622071  1
  Zr  Zr54  1  0.19846694  0.22394605  0.25504115  1
  Zr  Zr55  1  0.28432686  0.47581866  0.11770468  1
  Zr  Zr56  1  0.10582686  0.48926416  0.88905582  1
  Zr  Zr57  1  0.09647837  0.89955187  0.86736902  1
  Zr  Zr58  1  0.90291921  0.88778401  0.37719693  1
  Zr  Zr59  1  0.09687405  0.10992450  0.37076954  1
  Zr  Zr60  1  0.42309052  0.39503280  0.50051955  1
  Zr  Zr61  1  0.80693697  0.80432174  0.24440541  1
  Zr  Zr62  1  0.81818592  0.40391139  0.24917237  1
  Zr  Zr63  1  0.49350611  0.10493160  0.37473365  1
  Zr  Zr64  1  0.00009744  0.61610936  0.49085285  1
  Zr  Zr65  1  0.71013821  0.89096542  0.62976645  1
  Zr  Zr66  1  0.00249502  0.39879297  0.50395577  1
  Zr  Zr67  1  0.59224447  0.00046301  0.26072110  1
  Zr  Zr68  1  0.80105554  0.41411869  0.75340886  1
  Zr  Zr69  1  0.39731323  0.58522539  0.75453305  1
  Zr  Zr70  1  0.40127798  0.78330379  0.74710563  1
  Zr  Zr71  1  0.92689565  0.29905172  0.11161526  1
  Zr  Zr72  1  0.29747018  0.88885400  0.87810652  1
  Zr  Zr73  1  0.68907863  0.31751563  0.63177588  1
  Zr  Zr74  1  0.11527129  0.28785502  0.85103002  1
  Zr  Zr75  1  0.49783273  0.08796876  0.12227689  1
  Zr  Zr76  1  0.58145504  0.81218350  -0.00195389  1
  Zr  Zr77  1  0.09539309  0.91039381  0.36079621  1
  Zr  Zr78  1  0.39411675  0.77850161  0.49575772  1
  Zr  Zr79  1  0.20271642  0.60237000  0.75437450  1
  Ta  Ta80  1  0.29339069  0.69628129  0.11928219  1
  Ta  Ta81  1  0.80286375  -0.00006860  0.50257853  1
  Ta  Ta82  1  0.38349957  -0.01327836  0.25796308  1
  Ta  Ta83  1  0.19384799  0.80414111  0.01114382  1
  Ta  Ta84  1  0.70281407  0.10249086  0.37419309  1
  Ta  Ta85  1  0.90010704  0.49615002  0.11264032  1
  Ta  Ta86  1  0.69120177  0.51848795  0.62592277  1
  Ta  Ta87  1  0.49312968  0.70575215  0.13623136  1
  Ta  Ta88  1  0.80135678  -0.00482186  0.00500112  1
  Ta  Ta89  1  0.31012032  0.50580485  0.38411863  1
  Ta  Ta90  1  0.39717147  0.58768425  0.23870750  1
  Ta  Ta91  1  0.38897470  0.78798334  0.25562938  1
  Ta  Ta92  1  0.59699737  0.59652991  0.75029861  1
  Ta  Ta93  1  0.39876548  0.19819107  0.49918230  1
  Ta  Ta94  1  0.90986636  0.29849944  0.37117854  1
  Ta  Ta95  1  0.49620345  0.31089759  0.87446869  1
  Ta  Ta96  1  0.60653256  0.01035431  -0.02151557  1
  Ta  Ta97  1  0.11192971  0.91224010  0.13771605  1
  Ta  Ta98  1  0.29050208  0.69689669  0.61734493  1
  Ta  Ta99  1  0.10706358  0.50812030  0.61725533  1
  Ta  Ta100  1  0.89397747  0.10684147  0.10995688  1
  Ta  Ta101  1  0.60521060  0.00342027  0.76049909  1
  Ta  Ta102  1  0.49716797  0.10888208  0.86558116  1
  Ta  Ta103  1  0.09962856  0.70344457  0.62583704  1
  Ta  Ta104  1  0.79868360  0.59736345  0.24727086  1
  Ta  Ta105  1  0.28714392  0.88856252  0.62303839  1
  Ta  Ta106  1  0.50148485  0.49172088  0.35660667  1
  Ta  Ta107  1  0.61346513  0.78493127  0.75229941  1
  Ta  Ta108  1  0.09866020  0.89309308  0.63509993  1
  Ta  Ta109  1  0.18732073  -0.00836558  0.50883143  1
  Ta  Ta110  1  0.89901185  0.69850655  0.13099053  1
  Ta  Ta111  1  0.68442821  0.90847881  0.11850065  1
  Ta  Ta112  1  0.49779187  0.11349224  0.63643537  1
  Ta  Ta113  1  0.10405577  0.71822917  0.36311751  1
  Ta  Ta114  1  0.29993264  0.89098904  0.12707860  1
  Ta  Ta115  1  0.50631096  0.67877156  0.62103767  1
  Ta  Ta116  1  0.48987471  0.89191389  0.37544951  1
  Ta  Ta117  1  0.59957806  0.59853819  0.24575598  1
  Ta  Ta118  1  0.90318020  0.50059807  0.37744256  1
  Ta  Ta119  1  0.29348180  0.69178241  0.90250203  1
  Ti  Ti120  1  0.48976428  0.89676287  0.13296865  1
  Ti  Ti121  1  0.48356199  0.68556992  0.36540615  1
  Ti  Ti122  1  0.50745613  0.49652176  0.88055682  1
  Ti  Ti123  1  0.30543510  0.30469326  0.38495325  1
  Ti  Ti124  1  0.80937543  0.00238514  0.74787637  1
  Ti  Ti125  1  0.01227247  0.00782871  0.01027443  1
  Ti  Ti126  1  0.38664001  0.39443030  0.24695562  1
  Ti  Ti127  1  0.10318243  0.70580536  0.13678951  1
  Ti  Ti128  1  0.69495282  0.70444769  0.13712700  1
  Ti  Ti129  1  -0.01605294  0.19945597  0.74221931  1
  Ti  Ti130  1  0.28722128  0.09218496  0.38163328  1
  Ti  Ti131  1  0.59230134  0.20451842  -0.01440507  1
  Ti  Ti132  1  0.79876264  0.40451813  0.49327418  1
  Ti  Ti133  1  0.20221547  0.79291990  0.75235470  1
  Ti  Ti134  1  -0.00384077  -0.00122633  0.50980951  1
  Ti  Ti135  1  0.71377402  0.70171241  0.36468170  1
  Ti  Ti136  1  0.20680036  0.35320958  -0.00554872  1
  Ti  Ti137  1  0.59080645  0.21346002  0.75910537  1
  Ti  Ti138  1  0.09855658  0.49335032  0.10883761  1
  Ti  Ti139  1  0.90585294  0.90250233  0.87205834  1
  Ti  Ti140  1  0.88802168  0.70927600  0.63054414  1
  Ti  Ti141  1  0.10460794  0.31189310  0.38354344  1
  Ti  Ti142  1  0.61060103  0.40520160  0.49403196  1
  Ti  Ti143  1  0.50492517  0.30272036  0.35878419  1
  Ti  Ti144  1  0.02437692  0.20841810  -0.00962282  1
  Ti  Ti145  1  0.00710627  0.80497843  0.50437007  1
  Ti  Ti146  1  0.81458518  0.19400889  0.24923639  1
  Ti  Ti147  1  0.60365243  0.40936463  0.23821302  1
  Ti  Ti148  1  -0.00843359  0.79975680  0.74550811  1
  Ti  Ti149  1  0.20288749  0.61480287  0.48561329  1
  Ti  Ti150  1  0.89704869  0.30180729  0.63596848  1
  Ti  Ti151  1  0.42440966  0.39290791  0.73851702  1
  Ti  Ti152  1  0.90534317  0.90464680  0.62615062  1
  Ti  Ti153  1  0.70085195  0.50057156  0.36672064  1
  Ti  Ti154  1  0.09992154  0.30902085  0.63994241  1
  Ti  Ti155  1  0.80941914  0.79826027  0.49460536  1
  Ti  Ti156  1  0.31389725  0.29557260  0.62542569  1
  Ti  Ti157  1  0.41249584  0.39148155  0.01353351  1
  Ti  Ti158  1  0.79343333  0.59730383  0.01496456  1
  Ti  Ti159  1  0.20237274  0.40719801  0.49968148  1
  Mo  Mo160  1  0.51503560  0.49247893  0.62449804  1
  Mo  Mo161  1  0.59727448  0.40776707  0.75644721  1
  Mo  Mo162  1  0.90179564  0.69705397  0.36936896  1
  Mo  Mo163  1  0.70157080  0.90267266  0.38692060  1
  Mo  Mo164  1  -0.00783504  0.21311530  0.24989742  1
  Mo  Mo165  1  0.21489690  0.40653965  0.26869304  1
  Mo  Mo166  1  0.00241451  0.79874408  0.23259218  1
  Mo  Mo167  1  0.81026194  0.80683788  0.74324472  1
  Mo  Mo168  1  0.12300660  0.31251750  0.12116561  1
  Mo  Mo169  1  0.89574207  0.91008910  0.11842212  1
  Mo  Mo170  1  0.49987849  0.49457180  0.14251005  1
  Mo  Mo171  1  0.20010115  0.79653192  0.23835816  1
  Mo  Mo172  1  0.50644573  0.90221776  0.86268507  1
  Mo  Mo173  1  0.00477415  0.40358073  0.73344831  1
  Mo  Mo174  1  0.68656198  0.30854167  0.87343993  1
  Mo  Mo175  1  0.01281935  0.39876857  -0.00014551  1
  Mo  Mo176  1  0.18184661  0.79463481  0.50291574  1
  Mo  Mo177  1  0.78603268  0.62633249  0.73939096  1
  Mo  Mo178  1  0.40053963  0.20863008  0.75280285  1
  Mo  Mo179  1  0.20046506  -0.01656674  0.73927712  1
  Mo  Mo180  1  0.29765695  0.29027703  0.12442797  1
  Mo  Mo181  1  0.69316745  0.10171990  0.87027868  1
  Mo  Mo182  1  0.69807129  0.69948923  0.62014514  1
  Mo  Mo183  1  0.20372829  0.20274539  0.73061050  1
  Mo  Mo184  1  0.31465835  0.29463514  0.86489540  1
  Mo  Mo185  1  0.61025934  0.20301056  0.25645189  1
  Mo  Mo186  1  0.29500864  0.69189185  0.36855704  1
  Mo  Mo187  1  0.19570298  0.18010373  -0.00672068  1
  Mo  Mo188  1  0.50155614  0.29484844  0.62844575  1
  Mo  Mo189  1  0.70771727  0.50907346  0.13048080  1
  Mo  Mo190  1  0.19562987  0.60771366  0.01045725  1
  Mo  Mo191  1  0.20498234  0.00671054  0.25129962  1
  Mo  Mo192  1  0.39605384  0.79408134  0.01051561  1
  Mo  Mo193  1  0.80549175  0.40776189  -0.00086581  1
  Mo  Mo194  1  0.10878989  0.50219596  0.39093944  1
  Mo  Mo195  1  0.18677578  -0.00359908  0.00134959  1
  Mo  Mo196  1  0.88740843  0.09482871  0.62761915  1
  Mo  Mo197  1  0.69456076  0.69841360  0.87719349  1
  Mo  Mo198  1  -0.01559312  -0.01235158  0.74322711  1
  Mo  Mo199  1  0.40207483  0.59665555  0.49532049  1
