# generated using pymatgen
data_HfZrTaTiMo
_symmetry_space_group_name_H-M   'P 1'
_cell_length_a   15.19982123
_cell_length_b   15.19440691
_cell_length_c   16.81409770
_cell_angle_alpha   89.96709324
_cell_angle_beta   89.88045265
_cell_angle_gamma   90.01976207
_symmetry_Int_Tables_number   1
_chemical_formula_structural   HfZrTaTiMo
_chemical_formula_sum   'Hf40 Zr40 Ta40 Ti40 Mo40'
_cell_volume   3883.24468527
_cell_formula_units_Z   40
loop_
 _symmetry_equiv_pos_site_id
 _symmetry_equiv_pos_as_xyz
  1  'x, y, z'
loop_
 _atom_site_type_symbol
 _atom_site_label
 _atom_site_symmetry_multiplicity
 _atom_site_fract_x
 _atom_site_fract_y
 _atom_site_fract_z
 _atom_site_occupancy
  Hf  Hf0  1  0.20294097  0.60087420  0.51677521  1
  Hf  Hf1  1  0.40989727  0.21164262  0.01479440  1
  Hf  Hf2  1  0.41085390  0.60189813  0.51440529  1
  Hf  Hf3  1  0.09360260  0.30550087  0.62628222  1
  Hf  Hf4  1  0.90389930  0.29667174  0.37122498  1
  Hf  Hf5  1  0.48713032  0.68537521  0.11646873  1
  Hf  Hf6  1  0.69576341  0.49027196  0.87875450  1
  Hf  Hf7  1  0.41789053  0.00644141  -0.00711369  1
  Hf  Hf8  1  0.80831021  0.60007228  -0.00545953  1
  Hf  Hf9  1  0.08461142  0.50174287  0.63324986  1
  Hf  Hf10  1  0.28940570  0.32298564  0.11914989  1
  Hf  Hf11  1  -0.01214202  0.00063572  0.76227119  1
  Hf  Hf12  1  0.20646008  0.01285030  0.23816065  1
  Hf  Hf13  1  0.20891044  0.41914241  0.25792311  1
  Hf  Hf14  1  0.60872480  -0.01570192  0.76466989  1
  Hf  Hf15  1  0.20755131  0.79841306  0.24074867  1
  Hf  Hf16  1  0.20270770  0.40230451  0.75246143  1
  Hf  Hf17  1  0.11233160  0.69081720  0.12222640  1
  Hf  Hf18  1  0.19816746  0.79016445  -0.00775894  1
  Hf  Hf19  1  0.48086549  0.09542086  0.37172039  1
  Hf  Hf20  1  0.10587639  0.71468117  0.38061918  1
  Hf  Hf21  1  0.10481067  0.09857646  0.62673630  1
  Hf  Hf22  1  0.61262167  -0.01137680  -0.02329251  1
  Hf  Hf23  1  0.10327595  0.10035498  0.37518272  1
  Hf  Hf24  1  0.81097424  0.58026256  0.75079971  1
  Hf  Hf25  1  0.00330251  0.60312509  0.25610949  1
  Hf  Hf26  1  0.19878953  0.19936181  0.75658831  1
  Hf  Hf27  1  -0.00016862  0.20318357  0.50534825  1
  Hf  Hf28  1  0.10116895  0.90526960  0.62995318  1
  Hf  Hf29  1  0.29975955  0.30723837  0.62182504  1
  Hf  Hf30  1  0.19462889  0.41758845  -0.01188806  1
  Hf  Hf31  1  0.79048407  0.60158104  0.26788876  1
  Hf  Hf32  1  0.51902973  0.89471665  0.11910624  1
  Hf  Hf33  1  0.89609529  0.50061426  0.13448372  1
  Hf  Hf34  1  0.70135923  0.67885202  0.62521014  1
  Hf  Hf35  1  0.80650008  0.79526008  0.26301843  1
  Hf  Hf36  1  0.20015944  0.01023656  0.77268815  1
  Hf  Hf37  1  0.40973031  0.39232358  0.25418087  1
  Hf  Hf38  1  0.79686563  0.19161533  0.49355161  1
  Hf  Hf39  1  0.69109446  0.09103460  0.11562376  1
  Zr  Zr40  1  0.78790812  0.19453653  0.25821932  1
  Zr  Zr41  1  0.19795762  0.80519337  0.76005955  1
  Zr  Zr42  1  0.09133015  0.29788464  0.87286246  1
  Zr  Zr43  1  0.69205573  0.30062950  0.12102441  1
  Zr  Zr44  1  0.90179077  0.29236086  0.13630814  1
  Zr  Zr45  1  0.88946079  0.90092608  0.62145588  1
  Zr  Zr46  1  0.69693179  0.70368613  0.11389809  1
  Zr  Zr47  1  0.91293295  0.90759811  0.38111369  1
  Zr  Zr48  1  0.01214202  0.80792097  0.50082510  1
  Zr  Zr49  1  0.30638371  0.89587271  0.10931797  1
  Zr  Zr50  1  0.60511485  0.39987023  0.27005911  1
  Zr  Zr51  1  0.40797160  0.41677805  -0.00295423  1
  Zr  Zr52  1  0.58141724  0.19956987  0.25017957  1
  Zr  Zr53  1  0.38237733  0.59059044  0.26139605  1
  Zr  Zr54  1  0.39523710  0.19586823  0.50277529  1
  Zr  Zr55  1  0.69766271  0.29670932  0.61766457  1
  Zr  Zr56  1  0.37955355  0.18929300  0.23010110  1
  Zr  Zr57  1  0.29412711  0.91385498  0.37271116  1
  Zr  Zr58  1  0.30423692  0.92380863  0.63687907  1
  Zr  Zr59  1  0.39433066  0.20138084  0.75354618  1
  Zr  Zr60  1  -0.00839623  0.40022633  -0.00556502  1
  Zr  Zr61  1  0.70238338  0.69443383  0.87210805  1
  Zr  Zr62  1  0.50331711  0.30718941  0.61683010  1
  Zr  Zr63  1  0.10483220  0.30977987  0.38383037  1
  Zr  Zr64  1  0.50282326  0.89259845  0.62890642  1
  Zr  Zr65  1  0.69155465  0.50143005  0.12188229  1
  Zr  Zr66  1  0.79706730  -0.00711254  0.24994630  1
  Zr  Zr67  1  0.30110526  0.69657556  0.38722809  1
  Zr  Zr68  1  0.80746689  0.77326407  0.49191161  1
  Zr  Zr69  1  0.09405458  0.70521592  0.63064115  1
  Zr  Zr70  1  0.89038277  0.31824462  0.62436673  1
  Zr  Zr71  1  0.41076647  0.79806540  0.25303090  1
  Zr  Zr72  1  0.01032937  0.60125257  -0.00444205  1
  Zr  Zr73  1  0.59570236  0.19391000  0.75777934  1
  Zr  Zr74  1  0.58774656  0.60003151  0.27123384  1
  Zr  Zr75  1  0.30681460  0.89993277  0.88172977  1
  Zr  Zr76  1  0.61227629  0.79637035  0.26235327  1
  Zr  Zr77  1  0.69859021  0.08202215  0.62265114  1
  Zr  Zr78  1  0.00693595  0.01737069  0.23392929  1
  Zr  Zr79  1  0.00845969  0.81357376  0.24438506  1
  Ta  Ta80  1  0.30659900  0.69151961  0.86691294  1
  Ta  Ta81  1  0.39827262  0.80696729  0.50173555  1
  Ta  Ta82  1  0.30653444  0.51109368  0.86463424  1
  Ta  Ta83  1  0.60614531  0.40817321  0.74725757  1
  Ta  Ta84  1  0.68924787  0.08938153  0.38338618  1
  Ta  Ta85  1  0.49759748  0.68816949  0.86879464  1
  Ta  Ta86  1  0.59102042  0.78038805  0.49616577  1
  Ta  Ta87  1  0.79702870  0.40137930  0.26981833  1
  Ta  Ta88  1  0.17400109  0.21051055  0.23140456  1
  Ta  Ta89  1  0.89774434  0.70667902  0.12270536  1
  Ta  Ta90  1  0.79878166  0.39366182  -0.00425283  1
  Ta  Ta91  1  0.30489976  0.30795055  0.88102534  1
  Ta  Ta92  1  0.30059036  0.29319271  0.37627389  1
  Ta  Ta93  1  0.69971531  0.29439078  0.87517668  1
  Ta  Ta94  1  -0.01492604  0.60738981  0.49742615  1
  Ta  Ta95  1  0.69792436  0.88653100  0.61268754  1
  Ta  Ta96  1  0.20590785  0.19295792  0.50319599  1
  Ta  Ta97  1  -0.01308567  0.79661755  0.75462810  1
  Ta  Ta98  1  0.48903681  0.08996709  0.62814204  1
  Ta  Ta99  1  0.59354447  0.19166936  -0.01121433  1
  Ta  Ta100  1  0.59877610  -0.00484880  0.25369898  1
  Ta  Ta101  1  0.89768101  0.10068282  0.62854948  1
  Ta  Ta102  1  0.29746571  0.11432771  0.89768433  1
  Ta  Ta103  1  0.80377887  0.19115113  0.75187436  1
  Ta  Ta104  1  -0.02662199  0.41431365  0.75900841  1
  Ta  Ta105  1  0.00971168  0.39461201  0.25047893  1
  Ta  Ta106  1  0.40656089  0.41256106  0.74754691  1
  Ta  Ta107  1  -0.00883347  -0.00287723  -0.00205018  1
  Ta  Ta108  1  -0.00704684  0.20159367  0.75108229  1
  Ta  Ta109  1  0.31008059  0.71627055  0.62757903  1
  Ta  Ta110  1  0.21466234  0.60079742  0.73620891  1
  Ta  Ta111  1  0.39316849  0.00383392  0.50071997  1
  Ta  Ta112  1  0.29377308  0.53296656  0.11576168  1
  Ta  Ta113  1  0.71676458  0.09677301  0.87571455  1
  Ta  Ta114  1  0.71276560  0.89543370  0.11673331  1
  Ta  Ta115  1  0.60120536  0.78420084  0.75112253  1
  Ta  Ta116  1  0.50186868  0.89985815  0.38180800  1
  Ta  Ta117  1  0.09783018  0.51343815  0.85691382  1
  Ta  Ta118  1  0.10502591  0.49275678  0.12874785  1
  Ta  Ta119  1  0.69925359  0.90078330  0.39675155  1
  Ti  Ti120  1  0.79700691  0.80928252  0.75171672  1
  Ti  Ti121  1  0.40600709  0.00028662  0.23438071  1
  Ti  Ti122  1  0.18879603  0.21053565  0.00795586  1
  Ti  Ti123  1  0.40999936  0.01066862  0.77396232  1
  Ti  Ti124  1  0.41034151  0.79139622  -0.01056778  1
  Ti  Ti125  1  0.28466641  0.09568639  0.09991816  1
  Ti  Ti126  1  0.50022678  0.50385364  0.86662134  1
  Ti  Ti127  1  0.71328551  0.48435257  0.60646286  1
  Ti  Ti128  1  0.59041504  -0.00579202  0.50166160  1
  Ti  Ti129  1  0.52171465  0.50281338  0.61527581  1
  Ti  Ti130  1  0.50067202  0.30313185  0.39297674  1
  Ti  Ti131  1  -0.00277904  0.00834321  0.50085992  1
  Ti  Ti132  1  0.40868037  0.80165768  0.75551629  1
  Ti  Ti133  1  0.41475510  0.60311412  0.73036022  1
  Ti  Ti134  1  0.79748262  0.19588231  -0.00237111  1
  Ti  Ti135  1  0.90422004  0.49970434  0.37431959  1
  Ti  Ti136  1  0.49684941  0.49098588  0.12644745  1
  Ti  Ti137  1  0.58642635  0.59091342  -0.00367027  1
  Ti  Ti138  1  0.89645077  0.09647116  0.11772612  1
  Ti  Ti139  1  0.80478554  0.81446243  -0.01166021  1
  Ti  Ti140  1  0.88629054  0.29615783  0.87091337  1
  Ti  Ti141  1  0.10750723  0.51085819  0.38194933  1
  Ti  Ti142  1  0.50071484  0.30654959  0.86975041  1
  Ti  Ti143  1  0.08527258  0.89838895  0.88339647  1
  Ti  Ti144  1  0.20965554  0.40651031  0.50204380  1
  Ti  Ti145  1  0.10348257  0.91272013  0.10584042  1
  Ti  Ti146  1  0.49422521  0.49870641  0.39583471  1
  Ti  Ti147  1  0.20108008  -0.00097267  0.49697952  1
  Ti  Ti148  1  0.10376126  0.69710062  0.86588539  1
  Ti  Ti149  1  0.89903775  0.89807837  0.11785973  1
  Ti  Ti150  1  0.89931467  0.09834005  0.88158157  1
  Ti  Ti151  1  0.60175482  0.79570873  -0.01778605  1
  Ti  Ti152  1  0.09575600  0.10169127  0.89434026  1
  Ti  Ti153  1  0.89847257  0.09767684  0.37301699  1
  Ti  Ti154  1  0.90728574  0.70013913  0.87124978  1
  Ti  Ti155  1  0.59467129  0.38801739  -0.00185451  1
  Ti  Ti156  1  -0.00729074  0.79891511  -0.00139871  1
  Ti  Ti157  1  -0.00727405  0.41548615  0.49950906  1
  Ti  Ti158  1  -0.00666741  0.20069304  0.00477602  1
  Ti  Ti159  1  0.59452935  0.18995354  0.49664881  1
  Mo  Mo160  1  0.49750581  0.70230717  0.38298995  1
  Mo  Mo161  1  0.19406994  0.00326831  -0.01220093  1
  Mo  Mo162  1  0.20392428  0.60016322  -0.01531658  1
  Mo  Mo163  1  0.50269786  0.10613014  0.87342424  1
  Mo  Mo164  1  0.21513393  0.81143714  0.50995735  1
  Mo  Mo165  1  0.50743581  0.70004015  0.63274704  1
  Mo  Mo166  1  0.60109052  0.39724987  0.49007864  1
  Mo  Mo167  1  0.79178450  0.38800818  0.75632086  1
  Mo  Mo168  1  0.39505829  0.40518314  0.49658440  1
  Mo  Mo169  1  0.69472816  0.29278154  0.38866748  1
  Mo  Mo170  1  -0.00104605  0.20004492  0.24744208  1
  Mo  Mo171  1  0.30734366  0.50162682  0.63226239  1
  Mo  Mo172  1  0.60868768  0.59672748  0.49279913  1
  Mo  Mo173  1  0.70163616  0.49306980  0.39416844  1
  Mo  Mo174  1  0.28989090  0.11011982  0.36792637  1
  Mo  Mo175  1  0.90121858  0.69038219  0.63463394  1
  Mo  Mo176  1  0.71441354  0.89176009  0.87066183  1
  Mo  Mo177  1  0.80607422  0.39921592  0.48180204  1
  Mo  Mo178  1  0.69896301  0.69387534  0.38802772  1
  Mo  Mo179  1  0.19510092  0.60081531  0.25375333  1
  Mo  Mo180  1  0.79858561  -0.00269447  0.49608507  1
  Mo  Mo181  1  0.00189384  0.60684852  0.75729598  1
  Mo  Mo182  1  0.80874600  0.00197875  0.00195337  1
  Mo  Mo183  1  0.80083920  -0.00169972  0.75086648  1
  Mo  Mo184  1  0.50310000  0.30573461  0.12212222  1
  Mo  Mo185  1  0.09581744  0.30909126  0.12224223  1
  Mo  Mo186  1  0.10746974  0.91153081  0.37904535  1
  Mo  Mo187  1  0.59629918  0.58742358  0.74672568  1
  Mo  Mo188  1  0.09381967  0.10823269  0.10233152  1
  Mo  Mo189  1  0.29819181  0.48759464  0.38961314  1
  Mo  Mo190  1  0.89770143  0.49514920  0.88003867  1
  Mo  Mo191  1  0.30287123  0.70462749  0.11647015  1
  Mo  Mo192  1  0.39965459  0.60394972  -0.01005623  1
  Mo  Mo193  1  0.89321812  0.51058439  0.61935414  1
  Mo  Mo194  1  0.80774710  0.58483996  0.49245031  1
  Mo  Mo195  1  0.90970596  0.69195653  0.37053217  1
  Mo  Mo196  1  0.29915254  0.09809689  0.62888688  1
  Mo  Mo197  1  0.89760316  0.89498936  0.87659444  1
  Mo  Mo198  1  0.50511517  0.88345914  0.86826332  1
  Mo  Mo199  1  0.50134779  0.08768225  0.12532108  1
