# generated using pymatgen
data_HfZrTaTiMo
_symmetry_space_group_name_H-M   'P 1'
_cell_length_a   15.21974488
_cell_length_b   15.20993318
_cell_length_c   16.84389005
_cell_angle_alpha   90.03573824
_cell_angle_beta   89.92060333
_cell_angle_gamma   90.06882087
_symmetry_Int_Tables_number   1
_chemical_formula_structural   HfZrTaTiMo
_chemical_formula_sum   'Hf40 Zr40 Ta40 Ti40 Mo40'
_cell_volume   3899.20673741
_cell_formula_units_Z   40
loop_
 _symmetry_equiv_pos_site_id
 _symmetry_equiv_pos_as_xyz
  1  'x, y, z'
loop_
 _atom_site_type_symbol
 _atom_site_label
 _atom_site_symmetry_multiplicity
 _atom_site_fract_x
 _atom_site_fract_y
 _atom_site_fract_z
 _atom_site_occupancy
  Hf  Hf0  1  0.07782122  0.48484079  0.62845714  1
  Hf  Hf1  1  0.70160573  0.70498116  0.86762390  1
  Hf  Hf2  1  0.19470854  0.19439202  0.00092278  1
  Hf  Hf3  1  0.89552675  0.50931986  0.87416597  1
  Hf  Hf4  1  0.20610084  0.38528873  0.73586781  1
  Hf  Hf5  1  0.09077349  0.69544024  0.87127183  1
  Hf  Hf6  1  0.70650624  0.72363073  0.11411805  1
  Hf  Hf7  1  0.70409926  0.90675542  0.63707296  1
  Hf  Hf8  1  0.09817740  0.68608274  0.13169672  1
  Hf  Hf9  1  0.49089432  0.49469200  0.61681050  1
  Hf  Hf10  1  0.89485280  0.71158321  0.60445265  1
  Hf  Hf11  1  0.60542327  0.80977523  0.50533509  1
  Hf  Hf12  1  0.79642269  0.01301807  0.51175070  1
  Hf  Hf13  1  0.11430145  0.70401679  0.38385636  1
  Hf  Hf14  1  0.70322484  0.69215276  0.63145249  1
  Hf  Hf15  1  0.19317030  0.58069904  0.00501290  1
  Hf  Hf16  1  0.40156531  0.39618320  0.02774555  1
  Hf  Hf17  1  0.50268805  0.71301056  0.12057395  1
  Hf  Hf18  1  0.18807719  -0.01428703  0.49460616  1
  Hf  Hf19  1  0.58167150  0.81039410  0.75149869  1
  Hf  Hf20  1  0.29674667  0.09009137  0.14293306  1
  Hf  Hf21  1  0.10211645  0.88919080  0.11857823  1
  Hf  Hf22  1  0.68637763  0.10835223  0.64180973  1
  Hf  Hf23  1  0.39199455  0.79786309  0.25460736  1
  Hf  Hf24  1  0.60464986  0.80931956  0.25530672  1
  Hf  Hf25  1  0.60490640  0.38673177  0.51061168  1
  Hf  Hf26  1  0.30394231  0.09602702  0.86815116  1
  Hf  Hf27  1  0.78800751  0.20386462  0.76796460  1
  Hf  Hf28  1  0.40109222  0.59799788  0.01040863  1
  Hf  Hf29  1  0.90498947  0.31100376  0.62637538  1
  Hf  Hf30  1  0.49942954  0.69909225  0.38545923  1
  Hf  Hf31  1  0.59181243  0.21298245  -0.00533111  1
  Hf  Hf32  1  0.69468545  0.51602538  0.12474303  1
  Hf  Hf33  1  0.31167821  0.89401724  0.12519002  1
  Hf  Hf34  1  0.10548784  0.89972765  0.63332160  1
  Hf  Hf35  1  0.49911029  0.69911034  0.61455188  1
  Hf  Hf36  1  0.00803099  0.20603067  0.75128803  1
  Hf  Hf37  1  0.21279831  0.18218654  0.49228975  1
  Hf  Hf38  1  0.48148919  0.91015980  0.38132799  1
  Hf  Hf39  1  0.20277250  0.58891252  0.51069327  1
  Zr  Zr40  1  0.39438093  0.19657657  0.00926274  1
  Zr  Zr41  1  0.79560284  0.40073434  0.00559336  1
  Zr  Zr42  1  0.91062012  0.30868240  0.87603853  1
  Zr  Zr43  1  0.00417186  0.37722625  0.25543076  1
  Zr  Zr44  1  0.10901684  0.90386848  0.86931265  1
  Zr  Zr45  1  0.48664221  0.49503011  0.38454202  1
  Zr  Zr46  1  0.40317915  0.39794096  0.74511009  1
  Zr  Zr47  1  0.38531757  0.00871234  0.50515634  1
  Zr  Zr48  1  0.40870058  0.21389551  0.23672612  1
  Zr  Zr49  1  0.79618346  0.41322841  0.75187710  1
  Zr  Zr50  1  0.82208006  0.18763614  0.23856813  1
  Zr  Zr51  1  0.09635316  0.10181855  0.13484928  1
  Zr  Zr52  1  0.90210834  0.91414391  0.38171640  1
  Zr  Zr53  1  0.78619854  -0.00994873  -0.00723627  1
  Zr  Zr54  1  0.89753577  0.28055397  0.38644830  1
  Zr  Zr55  1  0.80444586  0.80567959  0.25100651  1
  Zr  Zr56  1  0.78972708  0.38594297  0.24429158  1
  Zr  Zr57  1  0.21078841  0.59039497  0.72894543  1
  Zr  Zr58  1  0.18910400  0.38816096  0.49960817  1
  Zr  Zr59  1  0.90646933  0.88856597  0.88308616  1
  Zr  Zr60  1  0.57765294  0.40912751  0.23133135  1
  Zr  Zr61  1  0.30771850  0.68809074  0.87341790  1
  Zr  Zr62  1  0.62164622  0.21244582  0.23393608  1
  Zr  Zr63  1  0.00896010  0.79467987  0.25622769  1
  Zr  Zr64  1  0.32838414  0.89081850  0.86459231  1
  Zr  Zr65  1  0.07777446  0.09665326  0.36588005  1
  Zr  Zr66  1  0.91280518  0.50249674  0.13046062  1
  Zr  Zr67  1  0.90428534  0.69802403  0.39130906  1
  Zr  Zr68  1  0.21029946  0.79283989  0.74344798  1
  Zr  Zr69  1  0.52012731  0.29530440  0.37952326  1
  Zr  Zr70  1  0.00307770  0.20064235  0.50862760  1
  Zr  Zr71  1  -0.02194773  0.00000720  0.23753690  1
  Zr  Zr72  1  0.31824460  0.30197998  0.38160310  1
  Zr  Zr73  1  0.01077443  0.00404475  -0.00309731  1
  Zr  Zr74  1  0.09257889  0.49156888  0.85900604  1
  Zr  Zr75  1  0.20842450  0.79409088  -0.00605264  1
  Zr  Zr76  1  0.80616599  0.60236577  0.25592004  1
  Zr  Zr77  1  0.69880451  0.91177631  0.38379058  1
  Zr  Zr78  1  0.30184034  0.48635320  0.87722081  1
  Zr  Zr79  1  0.58848538  0.01495088  0.25565156  1
  Ta  Ta80  1  0.59908210  0.60904398  -0.00639967  1
  Ta  Ta81  1  0.79505257  0.19676949  -0.01254747  1
  Ta  Ta82  1  0.70164851  0.69911914  0.38541130  1
  Ta  Ta83  1  0.80044437  0.39931750  0.50056712  1
  Ta  Ta84  1  0.09644048  0.49748676  0.36827459  1
  Ta  Ta85  1  0.19015510  0.20955244  0.26264220  1
  Ta  Ta86  1  -0.00196193  0.79663881  0.74067729  1
  Ta  Ta87  1  0.69604272  0.09849358  0.11031124  1
  Ta  Ta88  1  0.60687053  0.59257928  0.49781686  1
  Ta  Ta89  1  0.20799018  0.60144287  0.25534744  1
  Ta  Ta90  1  0.59536075  0.39433651  0.74874174  1
  Ta  Ta91  1  0.81244121  0.80141402  0.74799477  1
  Ta  Ta92  1  0.89896508  0.09395981  0.86793440  1
  Ta  Ta93  1  0.70693433  0.12477442  0.38397724  1
  Ta  Ta94  1  0.60174956  0.82141409  -0.01393798  1
  Ta  Ta95  1  0.41020640  -0.00844408  -0.00382838  1
  Ta  Ta96  1  0.89812655  0.69915975  0.87972135  1
  Ta  Ta97  1  0.88873167  0.88745354  0.10675796  1
  Ta  Ta98  1  0.11466801  0.29930165  0.87423826  1
  Ta  Ta99  1  -0.00648236  0.00535744  0.51676906  1
  Ta  Ta100  1  0.29771229  0.50294337  0.37647405  1
  Ta  Ta101  1  0.30853397  0.69480047  0.39089981  1
  Ta  Ta102  1  0.89180467  0.10034600  0.64258735  1
  Ta  Ta103  1  -0.02082238  0.60722043  0.73927012  1
  Ta  Ta104  1  0.69392478  0.49166904  0.37337761  1
  Ta  Ta105  1  0.01210829  0.81603011  0.50127058  1
  Ta  Ta106  1  0.20381807  0.38817467  0.01276469  1
  Ta  Ta107  1  0.01662417  0.39884545  0.00614205  1
  Ta  Ta108  1  0.59369595  0.01429407  -0.02098636  1
  Ta  Ta109  1  0.21143178  0.19742342  0.74639378  1
  Ta  Ta110  1  0.40205338  0.59092252  0.24191190  1
  Ta  Ta111  1  0.09568882  0.69743928  0.61518180  1
  Ta  Ta112  1  0.78263890  -0.00115461  0.23444850  1
  Ta  Ta113  1  0.59031761  0.01909808  0.50320510  1
  Ta  Ta114  1  0.90601076  0.70131360  0.11359284  1
  Ta  Ta115  1  0.30945180  0.71189653  0.60605734  1
  Ta  Ta116  1  0.88491753  0.50992773  0.62111168  1
  Ta  Ta117  1  0.32319801  0.28840938  0.61030809  1
  Ta  Ta118  1  0.50572948  0.49905911  0.87826582  1
  Ta  Ta119  1  0.30512016  0.08733991  0.35582728  1
  Ti  Ti120  1  0.49398651  0.11433762  0.62796433  1
  Ti  Ti121  1  0.10842228  0.28822613  0.62451034  1
  Ti  Ti122  1  0.10165063  0.10041148  0.86510615  1
  Ti  Ti123  1  0.40504355  0.60791208  0.74584141  1
  Ti  Ti124  1  0.58407014  0.20349846  0.77324085  1
  Ti  Ti125  1  0.79275862  0.59240201  0.49196252  1
  Ti  Ti126  1  0.69757599  0.49957076  0.62830624  1
  Ti  Ti127  1  0.89628270  0.09654455  0.10480649  1
  Ti  Ti128  1  0.59998457  0.60890049  0.25557560  1
  Ti  Ti129  1  0.00097133  0.20232590  -0.01117362  1
  Ti  Ti130  1  0.10435785  0.49260940  0.14143474  1
  Ti  Ti131  1  0.48779612  0.90520244  0.61915563  1
  Ti  Ti132  1  0.49920084  0.09560512  0.12349595  1
  Ti  Ti133  1  -0.00226512  0.58551014  0.49849434  1
  Ti  Ti134  1  -0.00891673  -0.00502889  0.74459801  1
  Ti  Ti135  1  0.19232927  -0.02341633  0.25930076  1
  Ti  Ti136  1  0.90476834  0.28985110  0.11116876  1
  Ti  Ti137  1  0.79815414  0.60578549  0.00038969  1
  Ti  Ti138  1  0.10237406  0.09785503  0.63337025  1
  Ti  Ti139  1  -0.00114644  0.59487127  -0.00066842  1
  Ti  Ti140  1  0.21213846  0.39820379  0.25143504  1
  Ti  Ti141  1  0.42247335  -0.00139998  0.74856682  1
  Ti  Ti142  1  0.59297409  0.41003462  0.01213095  1
  Ti  Ti143  1  0.89940987  0.49309413  0.37439786  1
  Ti  Ti144  1  0.09982973  0.29564696  0.12671926  1
  Ti  Ti145  1  0.68452899  0.31766095  0.87986541  1
  Ti  Ti146  1  0.49569334  0.11038765  0.37920393  1
  Ti  Ti147  1  0.69907245  0.29679647  0.63192239  1
  Ti  Ti148  1  0.20685590  0.00148974  0.74668309  1
  Ti  Ti149  1  0.30735117  0.29672764  0.87788071  1
  Ti  Ti150  1  0.51149628  0.90917983  0.12214571  1
  Ti  Ti151  1  0.59683940  0.59216771  0.75385865  1
  Ti  Ti152  1  0.28208701  0.88321269  0.37505857  1
  Ti  Ti153  1  0.49370582  0.70897776  0.87845339  1
  Ti  Ti154  1  0.21284443  -0.00032920  -0.00278256  1
  Ti  Ti155  1  0.30203023  0.09433302  0.63449925  1
  Ti  Ti156  1  0.70182335  0.91385820  0.85334541  1
  Ti  Ti157  1  0.29595314  0.69754330  0.12595296  1
  Ti  Ti158  1  0.69572428  0.50837845  0.87605713  1
  Ti  Ti159  1  0.40472220  0.20493220  0.75338631  1
  Mo  Mo160  1  0.79450831  0.60811992  0.74713063  1
  Mo  Mo161  1  0.69803002  0.10776491  0.87279023  1
  Mo  Mo162  1  0.70780150  0.30774642  0.37870608  1
  Mo  Mo163  1  0.68591535  0.91027246  0.11899745  1
  Mo  Mo164  1  0.00627843  0.59075954  0.25833478  1
  Mo  Mo165  1  0.39590234  0.39636973  0.50855406  1
  Mo  Mo166  1  0.50075721  0.30034293  0.12355402  1
  Mo  Mo167  1  0.60718465  0.19269792  0.50664595  1
  Mo  Mo168  1  0.39482887  0.80748001  0.49573927  1
  Mo  Mo169  1  0.79404188  0.79462713  -0.00744600  1
  Mo  Mo170  1  0.20745306  0.79065813  0.25013931  1
  Mo  Mo171  1  0.10684705  0.30162242  0.37408909  1
  Mo  Mo172  1  -0.00721878  0.40843501  0.48859131  1
  Mo  Mo173  1  0.51228694  0.28421647  0.62954204  1
  Mo  Mo174  1  0.79148718  0.20606778  0.51617142  1
  Mo  Mo175  1  0.80417352  0.00095862  0.75661840  1
  Mo  Mo176  1  0.31038094  0.90372806  0.63665038  1
  Mo  Mo177  1  0.50233340  0.51746305  0.12239268  1
  Mo  Mo178  1  0.39935984  0.59630398  0.49942556  1
  Mo  Mo179  1  0.40542417  0.79524033  0.73941247  1
  Mo  Mo180  1  0.59622075  0.01469188  0.76385715  1
  Mo  Mo181  1  0.50677433  0.90249886  0.87379632  1
  Mo  Mo182  1  0.41224996  0.19111740  0.50000002  1
  Mo  Mo183  1  0.38491430  0.41096152  0.23285204  1
  Mo  Mo184  1  0.49454178  0.31533147  0.87867354  1
  Mo  Mo185  1  0.09963164  0.89884975  0.37769227  1
  Mo  Mo186  1  0.00177304  0.40217090  0.74859763  1
  Mo  Mo187  1  0.79870558  0.80209852  0.50175143  1
  Mo  Mo188  1  -0.00044567  0.78636592  0.00372157  1
  Mo  Mo189  1  0.88570175  0.09184152  0.38012176  1
  Mo  Mo190  1  0.30138098  0.49822743  0.61967902  1
  Mo  Mo191  1  -0.00083341  0.19782630  0.24320152  1
  Mo  Mo192  1  0.20213393  0.80004581  0.50962724  1
  Mo  Mo193  1  0.90269713  0.90594018  0.62589239  1
  Mo  Mo194  1  0.49064102  0.10401762  0.87145710  1
  Mo  Mo195  1  0.41607299  0.80045795  0.00539750  1
  Mo  Mo196  1  0.28884895  0.50460287  0.13341736  1
  Mo  Mo197  1  0.28274526  0.29733806  0.13532372  1
  Mo  Mo198  1  0.39615057  -0.00111899  0.25192719  1
  Mo  Mo199  1  0.70648578  0.29905929  0.10750170  1
