# generated using pymatgen
data_HfZrTaTiMo
_symmetry_space_group_name_H-M   'P 1'
_cell_length_a   15.17896965
_cell_length_b   15.17077304
_cell_length_c   16.81376137
_cell_angle_alpha   90.05165414
_cell_angle_beta   89.98848846
_cell_angle_gamma   90.13202526
_symmetry_Int_Tables_number   1
_chemical_formula_structural   HfZrTaTiMo
_chemical_formula_sum   'Hf40 Zr40 Ta40 Ti40 Mo40'
_cell_volume   3871.80561121
_cell_formula_units_Z   40
loop_
 _symmetry_equiv_pos_site_id
 _symmetry_equiv_pos_as_xyz
  1  'x, y, z'
loop_
 _atom_site_type_symbol
 _atom_site_label
 _atom_site_symmetry_multiplicity
 _atom_site_fract_x
 _atom_site_fract_y
 _atom_site_fract_z
 _atom_site_occupancy
  Hf  Hf0  1  0.91550761  0.69187312  0.13979631  1
  Hf  Hf1  1  0.29588507  0.29156427  0.62212922  1
  Hf  Hf2  1  0.78871503  0.00022812  0.23955249  1
  Hf  Hf3  1  0.71179525  0.70515837  0.13375253  1
  Hf  Hf4  1  0.20728582  0.83029924  0.48754664  1
  Hf  Hf5  1  0.09592374  0.49303520  0.85593632  1
  Hf  Hf6  1  0.90386474  0.09915047  0.62890420  1
  Hf  Hf7  1  0.49150707  0.06778934  0.38124192  1
  Hf  Hf8  1  0.09407309  0.52252864  0.63110557  1
  Hf  Hf9  1  0.89837460  0.89671930  0.87153524  1
  Hf  Hf10  1  0.60205008  0.19594148  0.75383633  1
  Hf  Hf11  1  0.40065006  0.18903559  0.25445661  1
  Hf  Hf12  1  0.49556818  0.87944419  0.87231751  1
  Hf  Hf13  1  0.18979519  0.61917493  0.27824700  1
  Hf  Hf14  1  0.08957628  0.51434437  0.13605524  1
  Hf  Hf15  1  0.29799910  0.71138972  0.13951616  1
  Hf  Hf16  1  0.70257037  0.08675101  0.62515617  1
  Hf  Hf17  1  0.79178353  0.39963004  0.75287114  1
  Hf  Hf18  1  0.09105231  0.10095310  0.37229799  1
  Hf  Hf19  1  0.49663787  0.50153461  0.88111342  1
  Hf  Hf20  1  0.19610937  0.20975691  -0.01211690  1
  Hf  Hf21  1  0.59278015  -0.01868836  0.73664156  1
  Hf  Hf22  1  0.01403821  0.21283277  0.74748755  1
  Hf  Hf23  1  0.50581105  0.89570929  0.12008889  1
  Hf  Hf24  1  0.21055253  0.18956758  0.76194988  1
  Hf  Hf25  1  0.29636495  0.90235614  0.12126943  1
  Hf  Hf26  1  0.89774695  0.09801177  0.88334661  1
  Hf  Hf27  1  0.31332815  0.31357585  0.87425377  1
  Hf  Hf28  1  -0.00322068  0.80046721  -0.00379702  1
  Hf  Hf29  1  0.38353342  0.60687501  -0.00313709  1
  Hf  Hf30  1  0.40606590  0.60246749  0.26383512  1
  Hf  Hf31  1  0.91090288  0.30565649  0.87041576  1
  Hf  Hf32  1  0.59544000  0.39588582  0.49493714  1
  Hf  Hf33  1  0.39510495  0.39049698  0.25230604  1
  Hf  Hf34  1  0.89630808  0.10496793  0.37265312  1
  Hf  Hf35  1  0.58733147  0.40254677  0.75133876  1
  Hf  Hf36  1  0.19041477  0.39008910  0.73813406  1
  Hf  Hf37  1  0.49772592  0.09230320  0.87733202  1
  Hf  Hf38  1  0.79582103  0.40857334  0.50975877  1
  Hf  Hf39  1  0.10356269  0.10429794  0.12098285  1
  Zr  Zr40  1  0.70099268  0.29553870  0.62729077  1
  Zr  Zr41  1  0.91449355  0.70528776  0.62856526  1
  Zr  Zr42  1  0.39339960  0.18975252  0.49640565  1
  Zr  Zr43  1  0.60930371  0.78154215  0.50107658  1
  Zr  Zr44  1  0.00273262  0.62023752  0.48686088  1
  Zr  Zr45  1  0.70494335  0.27483487  0.10945274  1
  Zr  Zr46  1  0.40980006  0.60159645  0.48091446  1
  Zr  Zr47  1  0.79912342  0.40011363  -0.00961258  1
  Zr  Zr48  1  -0.00472692  0.21634655  0.23713881  1
  Zr  Zr49  1  0.60021544  0.38382242  0.23460896  1
  Zr  Zr50  1  0.88355726  0.10520493  0.11431265  1
  Zr  Zr51  1  0.20184065  0.78066813  -0.01592910  1
  Zr  Zr52  1  0.59549097  0.58708695  0.02273087  1
  Zr  Zr53  1  0.22610102  0.60368542  0.75089948  1
  Zr  Zr54  1  0.20267187  0.20617181  0.25632486  1
  Zr  Zr55  1  0.69674417  0.08864820  0.38295456  1
  Zr  Zr56  1  0.57473963  -0.02690347  0.52115285  1
  Zr  Zr57  1  0.60810411  0.59494077  0.24768660  1
  Zr  Zr58  1  0.19738023  0.40896390  0.50287992  1
  Zr  Zr59  1  0.28745656  0.29825676  0.12111324  1
  Zr  Zr60  1  0.09569791  0.89609350  0.12885446  1
  Zr  Zr61  1  0.19824026  0.42193606  -0.00537393  1
  Zr  Zr62  1  0.60615708  0.58878627  0.47626073  1
  Zr  Zr63  1  0.18710594  0.40227231  0.26187961  1
  Zr  Zr64  1  0.20228076  -0.00247211  -0.01748879  1
  Zr  Zr65  1  0.49189734  0.30009135  0.62484256  1
  Zr  Zr66  1  -0.00980162  0.41032309  0.51299841  1
  Zr  Zr67  1  0.69471161  0.89071698  0.37659036  1
  Zr  Zr68  1  0.41140135  0.40575621  0.01466503  1
  Zr  Zr69  1  0.59539794  0.18735935  0.50396338  1
  Zr  Zr70  1  0.80188351  0.60431336  0.49608231  1
  Zr  Zr71  1  0.90123553  0.52104022  0.86577843  1
  Zr  Zr72  1  0.69861159  0.10234780  0.89401816  1
  Zr  Zr73  1  0.80631532  0.20226536  0.50211414  1
  Zr  Zr74  1  0.29360590  0.51482608  0.13675759  1
  Zr  Zr75  1  0.79537190  0.60804386  0.74784721  1
  Zr  Zr76  1  0.69676439  0.89567324  0.87446521  1
  Zr  Zr77  1  0.38052209  -0.01194120  0.75172930  1
  Zr  Zr78  1  0.69940710  0.69109929  0.88477819  1
  Zr  Zr79  1  0.01479093  0.60668616  -0.00467258  1
  Ta  Ta80  1  0.90398622  0.90338276  0.62635406  1
  Ta  Ta81  1  0.39320147  -0.00607307  0.24607618  1
  Ta  Ta82  1  0.10487269  0.91616959  0.62910127  1
  Ta  Ta83  1  0.00429722  0.40286497  0.00512456  1
  Ta  Ta84  1  0.50139729  0.28513216  0.37170078  1
  Ta  Ta85  1  0.50040076  0.28188756  0.11755812  1
  Ta  Ta86  1  0.00849083  0.79631184  0.27048316  1
  Ta  Ta87  1  0.72285388  0.49096342  0.13179203  1
  Ta  Ta88  1  0.72002937  0.47957424  0.35738730  1
  Ta  Ta89  1  0.40379826  0.79656689  -0.00180078  1
  Ta  Ta90  1  0.41364075  0.81031286  0.50072089  1
  Ta  Ta91  1  0.42186120  0.60912505  0.75489636  1
  Ta  Ta92  1  0.00247432  0.00004337  0.50123028  1
  Ta  Ta93  1  0.18882735  0.00029792  0.76407112  1
  Ta  Ta94  1  0.59129808  -0.01428567  0.24509620  1
  Ta  Ta95  1  0.09419197  0.69915791  0.85254129  1
  Ta  Ta96  1  -0.01890603  0.41990493  0.25181348  1
  Ta  Ta97  1  0.50795238  0.67528936  0.62134150  1
  Ta  Ta98  1  0.29073987  0.09032929  0.38451387  1
  Ta  Ta99  1  0.08919587  0.10578566  0.88091685  1
  Ta  Ta100  1  0.67819235  0.51013678  0.62870500  1
  Ta  Ta101  1  0.59282364  0.77242285  0.74485504  1
  Ta  Ta102  1  0.28367725  0.08127029  0.61776489  1
  Ta  Ta103  1  -0.00114729  0.21373199  0.00626722  1
  Ta  Ta104  1  0.20540073  0.82244458  0.27125780  1
  Ta  Ta105  1  0.30609219  0.09834387  0.11761174  1
  Ta  Ta106  1  0.59922959  0.17676689  0.24782155  1
  Ta  Ta107  1  0.31556685  0.71363004  0.61904310  1
  Ta  Ta108  1  0.32061997  0.72677174  0.37286161  1
  Ta  Ta109  1  0.69741698  0.29157340  0.36920029  1
  Ta  Ta110  1  0.20676750  0.62063552  0.49174635  1
  Ta  Ta111  1  0.39040636  0.41501991  0.74620051  1
  Ta  Ta112  1  0.21386272  0.81237727  0.75868365  1
  Ta  Ta113  1  0.39822874  0.39578259  0.48503929  1
  Ta  Ta114  1  0.39869428  0.19388519  -0.00562413  1
  Ta  Ta115  1  0.89079223  0.31492735  0.37186746  1
  Ta  Ta116  1  0.80177789  0.19666213  0.75678682  1
  Ta  Ta117  1  0.12024458  0.72466497  0.62751519  1
  Ta  Ta118  1  0.08674813  0.30703703  0.38166396  1
  Ta  Ta119  1  0.00192505  0.20746363  0.50446536  1
  Ti  Ti120  1  0.80448390  -0.01151440  0.50407606  1
  Ti  Ti121  1  0.31708384  0.51214020  0.61362253  1
  Ti  Ti122  1  0.80642503  0.80461601  0.25325719  1
  Ti  Ti123  1  0.49710945  0.70032857  0.13500990  1
  Ti  Ti124  1  0.79284499  0.20405233  0.25054540  1
  Ti  Ti125  1  0.48070274  0.08905098  0.62914081  1
  Ti  Ti126  1  0.50891272  0.48449224  0.36287138  1
  Ti  Ti127  1  0.68002637  0.08221609  0.10567007  1
  Ti  Ti128  1  0.89688055  0.89331307  0.12886550  1
  Ti  Ti129  1  0.80544168  0.79357642  0.00290809  1
  Ti  Ti130  1  0.71104816  0.69562952  0.35713188  1
  Ti  Ti131  1  0.10903991  0.70626051  0.13563875  1
  Ti  Ti132  1  0.81534338  0.79920076  0.49619324  1
  Ti  Ti133  1  0.40363486  0.20149753  0.75523047  1
  Ti  Ti134  1  0.70881261  0.88497449  0.62691818  1
  Ti  Ti135  1  -0.00387982  -0.00466025  0.24648130  1
  Ti  Ti136  1  0.09399944  0.90122361  0.87202550  1
  Ti  Ti137  1  0.90601596  0.30598189  0.63629907  1
  Ti  Ti138  1  0.29639443  0.49860264  0.37787169  1
  Ti  Ti139  1  0.80049709  0.80259958  0.74977908  1
  Ti  Ti140  1  0.08828079  0.50497910  0.37948831  1
  Ti  Ti141  1  0.49726362  0.09270003  0.11422147  1
  Ti  Ti142  1  0.60486623  0.79618245  0.00591411  1
  Ti  Ti143  1  0.70447616  0.69747985  0.62561295  1
  Ti  Ti144  1  0.10164167  0.10880040  0.62238956  1
  Ti  Ti145  1  0.00443873  0.80848317  0.74753646  1
  Ti  Ti146  1  0.82775415  0.58453035  0.25754040  1
  Ti  Ti147  1  0.79925952  -0.00159265  0.74993832  1
  Ti  Ti148  1  0.79261758  -0.01674895  0.00929652  1
  Ti  Ti149  1  0.52148268  0.30017098  0.89241402  1
  Ti  Ti150  1  0.19309603  0.20465823  0.49364119  1
  Ti  Ti151  1  0.68911345  0.48947573  0.88260739  1
  Ti  Ti152  1  -0.00375578  -0.00044221  0.00462508  1
  Ti  Ti153  1  0.89701127  0.31763949  0.12163829  1
  Ti  Ti154  1  0.39862666  -0.00487789  -0.00769189  1
  Ti  Ti155  1  0.90295458  0.90624701  0.37414407  1
  Ti  Ti156  1  0.00726052  0.81452641  0.48929883  1
  Ti  Ti157  1  0.81090604  0.60344906  0.00327749  1
  Ti  Ti158  1  0.19995253  0.00783060  0.25046555  1
  Ti  Ti159  1  -0.00000751  0.00520541  0.75089769  1
  Mo  Mo160  1  0.39952783  0.78830673  0.74801937  1
  Mo  Mo161  1  0.30378194  0.10266616  0.87770746  1
  Mo  Mo162  1  0.70544374  0.89659941  0.12220265  1
  Mo  Mo163  1  0.89180962  0.50260337  0.63826267  1
  Mo  Mo164  1  0.31021337  0.91909312  0.37197597  1
  Mo  Mo165  1  0.50218425  0.49646087  0.13330615  1
  Mo  Mo166  1  0.10817452  0.71597225  0.38659104  1
  Mo  Mo167  1  0.09960740  0.29506303  0.61543929  1
  Mo  Mo168  1  0.59074301  0.19548381  -0.00098389  1
  Mo  Mo169  1  0.18822995  0.01415416  0.50094205  1
  Mo  Mo170  1  0.60809972  0.79951487  0.24534412  1
  Mo  Mo171  1  0.60204910  0.59082269  0.75292092  1
  Mo  Mo172  1  0.60245629  0.39811756  0.01589935  1
  Mo  Mo173  1  0.49012829  0.88133301  0.36662863  1
  Mo  Mo174  1  0.29817448  0.29987689  0.38311060  1
  Mo  Mo175  1  0.48364883  0.87037468  0.63671339  1
  Mo  Mo176  1  0.19674352  0.60515982  -0.01593491  1
  Mo  Mo177  1  0.09600213  0.30225865  0.87562984  1
  Mo  Mo178  1  0.30041706  0.89888101  0.88065034  1
  Mo  Mo179  1  0.80264801  0.38888122  0.24398114  1
  Mo  Mo180  1  0.31670864  0.70729358  0.86804442  1
  Mo  Mo181  1  0.51423663  0.71008049  0.36123089  1
  Mo  Mo182  1  0.80660064  0.19745714  -0.00483748  1
  Mo  Mo183  1  0.69911527  0.29831114  0.88081342  1
  Mo  Mo184  1  0.00340773  0.60698836  0.26856005  1
  Mo  Mo185  1  0.90211135  0.71476486  0.86802058  1
  Mo  Mo186  1  0.59118102  -0.01217926  0.00132053  1
  Mo  Mo187  1  0.90023954  0.50548851  0.12034113  1
  Mo  Mo188  1  0.38158530  -0.01622835  0.51069742  1
  Mo  Mo189  1  0.28464292  0.89058412  0.62751941  1
  Mo  Mo190  1  0.08602255  0.31091289  0.12511178  1
  Mo  Mo191  1  0.30313746  0.50513398  0.86685363  1
  Mo  Mo192  1  0.09539813  0.91853879  0.36831373  1
  Mo  Mo193  1  0.89997520  0.50133393  0.37746354  1
  Mo  Mo194  1  0.48917375  0.49692829  0.61976505  1
  Mo  Mo195  1  -0.00750709  0.40948165  0.73143597  1
  Mo  Mo196  1  0.00753433  0.61621720  0.74087105  1
  Mo  Mo197  1  0.89536892  0.71490998  0.36917404  1
  Mo  Mo198  1  0.40889378  0.80788525  0.24743689  1
  Mo  Mo199  1  0.50981359  0.69859917  0.88404912  1
