# generated using pymatgen
data_HfZrTaTiMo
_symmetry_space_group_name_H-M   'P 1'
_cell_length_a   15.20885228
_cell_length_b   15.20602728
_cell_length_c   16.86592408
_cell_angle_alpha   90.02091259
_cell_angle_beta   89.97998049
_cell_angle_gamma   89.98538830
_symmetry_Int_Tables_number   1
_chemical_formula_structural   HfZrTaTiMo
_chemical_formula_sum   'Hf40 Zr40 Ta40 Ti40 Mo40'
_cell_volume   3900.51793156
_cell_formula_units_Z   40
loop_
 _symmetry_equiv_pos_site_id
 _symmetry_equiv_pos_as_xyz
  1  'x, y, z'
loop_
 _atom_site_type_symbol
 _atom_site_label
 _atom_site_symmetry_multiplicity
 _atom_site_fract_x
 _atom_site_fract_y
 _atom_site_fract_z
 _atom_site_occupancy
  Hf  Hf0  1  0.00831225  0.80365158  0.74522189  1
  Hf  Hf1  1  0.00806315  0.58167899  0.00978485  1
  Hf  Hf2  1  0.81041383  0.78411571  0.51587302  1
  Hf  Hf3  1  0.81022411  -0.01174203  0.25983474  1
  Hf  Hf4  1  0.69619556  0.90723534  0.61765376  1
  Hf  Hf5  1  0.90052064  0.89931102  0.87818017  1
  Hf  Hf6  1  0.42248941  0.79216033  0.23845046  1
  Hf  Hf7  1  0.40958559  0.00359903  0.23853681  1
  Hf  Hf8  1  0.47970242  0.29770837  0.88923663  1
  Hf  Hf9  1  0.81101015  0.00976425  0.49946365  1
  Hf  Hf10  1  0.39913438  0.20492766  0.75231856  1
  Hf  Hf11  1  0.90253237  0.69408638  0.37566497  1
  Hf  Hf12  1  0.49862666  0.10426841  0.62278471  1
  Hf  Hf13  1  0.02237874  0.40826619  0.25295714  1
  Hf  Hf14  1  0.01850497  0.79626223  0.25611925  1
  Hf  Hf15  1  0.30058054  0.49777452  0.37793035  1
  Hf  Hf16  1  0.29552931  0.09524362  0.62700183  1
  Hf  Hf17  1  0.57238168  0.40934442  0.49187559  1
  Hf  Hf18  1  0.59040404  0.19405448  0.01727302  1
  Hf  Hf19  1  0.38972943  0.60440603  0.73792336  1
  Hf  Hf20  1  0.71404475  0.87950717  0.12869607  1
  Hf  Hf21  1  0.80872554  0.00796085  0.74353942  1
  Hf  Hf22  1  0.50621497  0.89847635  0.37030244  1
  Hf  Hf23  1  -0.01844810  0.18903321  0.73759847  1
  Hf  Hf24  1  0.68745574  0.07511345  0.13564975  1
  Hf  Hf25  1  0.20367498  0.20298983  -0.00216379  1
  Hf  Hf26  1  0.09276673  0.28895064  0.38943113  1
  Hf  Hf27  1  0.18272860  0.60330259  0.26598899  1
  Hf  Hf28  1  0.00394185  0.20868231  0.00063891  1
  Hf  Hf29  1  0.28601956  0.09094081  0.37308297  1
  Hf  Hf30  1  0.70113272  0.70597844  0.86257493  1
  Hf  Hf31  1  0.10519147  0.90063536  0.11960027  1
  Hf  Hf32  1  0.89424334  0.30299653  0.36977511  1
  Hf  Hf33  1  0.91081384  0.90277881  0.12310972  1
  Hf  Hf34  1  0.08540151  0.30645551  0.86000653  1
  Hf  Hf35  1  0.19085933  0.61808269  0.48880747  1
  Hf  Hf36  1  0.58862785  0.40761029  0.00101500  1
  Hf  Hf37  1  0.16785252  0.40224409  0.00666210  1
  Hf  Hf38  1  0.90204465  0.69269330  0.86887332  1
  Hf  Hf39  1  0.90611161  0.48693704  0.87101080  1
  Zr  Zr40  1  0.91849984  0.89937537  0.38278329  1
  Zr  Zr41  1  0.03256816  0.79916612  0.50110543  1
  Zr  Zr42  1  0.31096340  0.89646986  0.11831642  1
  Zr  Zr43  1  0.78136428  0.40610600  0.24001017  1
  Zr  Zr44  1  0.19487057  0.40648583  0.73603296  1
  Zr  Zr45  1  0.59311035  0.00634654  0.75147818  1
  Zr  Zr46  1  0.79834902  0.19880210  0.24345602  1
  Zr  Zr47  1  0.91457783  0.30951275  0.12795026  1
  Zr  Zr48  1  0.30628856  0.49323075  0.60725934  1
  Zr  Zr49  1  0.41843922  0.59667095  0.49529930  1
  Zr  Zr50  1  0.28196190  0.30495057  0.14244490  1
  Zr  Zr51  1  0.21403624  0.60217059  0.01672627  1
  Zr  Zr52  1  0.22269657  0.80552072  0.76118608  1
  Zr  Zr53  1  0.88148312  0.29495430  0.86481800  1
  Zr  Zr54  1  0.49853859  0.71494903  0.87047591  1
  Zr  Zr55  1  0.01099308  0.59352467  0.72928548  1
  Zr  Zr56  1  0.31196398  0.10036989  0.87227861  1
  Zr  Zr57  1  0.20717079  0.00420468  -0.00861914  1
  Zr  Zr58  1  0.86096124  0.29419853  0.62893386  1
  Zr  Zr59  1  0.00522936  0.79049714  -0.00156342  1
  Zr  Zr60  1  0.77822142  0.40668438  0.49126738  1
  Zr  Zr61  1  0.58599030  0.59648811  0.73843222  1
  Zr  Zr62  1  0.58805890  0.21181498  0.23272322  1
  Zr  Zr63  1  0.89107519  0.50543895  0.37281715  1
  Zr  Zr64  1  0.09511431  0.08402577  0.62512689  1
  Zr  Zr65  1  0.79298140  0.19377733  0.01542283  1
  Zr  Zr66  1  0.69934595  0.49857638  0.87261024  1
  Zr  Zr67  1  0.21773174  0.79335571  -0.00324016  1
  Zr  Zr68  1  0.70558244  0.87668519  0.38335784  1
  Zr  Zr69  1  0.38833963  -0.00553358  0.49389116  1
  Zr  Zr70  1  0.59790006  0.00411050  0.49890105  1
  Zr  Zr71  1  0.79492521  0.39970875  0.01436472  1
  Zr  Zr72  1  0.58925628  0.38894822  0.75919053  1
  Zr  Zr73  1  0.28827113  0.50178426  0.87308561  1
  Zr  Zr74  1  0.11476447  0.68625441  0.86603999  1
  Zr  Zr75  1  0.80965349  0.58821516  0.72999973  1
  Zr  Zr76  1  0.28820664  0.49829469  0.14976432  1
  Zr  Zr77  1  0.78583826  0.20055529  0.48255357  1
  Zr  Zr78  1  0.48840029  0.30938339  0.62327760  1
  Zr  Zr79  1  0.79898007  0.60407755  0.01008076  1
  Ta  Ta80  1  0.79898819  -0.00465402  -0.00104270  1
  Ta  Ta81  1  0.61720464  0.60236859  0.51096248  1
  Ta  Ta82  1  0.49623959  0.11173585  0.36806901  1
  Ta  Ta83  1  0.19652858  0.39226687  0.49258240  1
  Ta  Ta84  1  0.29900380  0.29325325  0.37038254  1
  Ta  Ta85  1  0.68706805  0.09510732  0.35894804  1
  Ta  Ta86  1  0.78622270  0.61758855  0.24311481  1
  Ta  Ta87  1  0.52868822  0.90459482  0.11960137  1
  Ta  Ta88  1  0.67248432  0.30914887  0.36138767  1
  Ta  Ta89  1  0.20556205  0.00199008  0.24026594  1
  Ta  Ta90  1  0.92307873  0.91116746  0.61905593  1
  Ta  Ta91  1  0.52603020  0.69915029  0.38245528  1
  Ta  Ta92  1  0.00497283  0.19573679  0.24721934  1
  Ta  Ta93  1  0.70093624  0.12220342  0.62874571  1
  Ta  Ta94  1  0.10365931  0.10533874  0.12370301  1
  Ta  Ta95  1  0.13800417  0.90057317  0.37181720  1
  Ta  Ta96  1  0.41843113  0.00671216  0.01192238  1
  Ta  Ta97  1  0.67609045  0.51171537  0.12799605  1
  Ta  Ta98  1  0.12007367  0.70949051  0.63012924  1
  Ta  Ta99  1  0.19283698  0.19987049  0.74777457  1
  Ta  Ta100  1  0.59844184  0.80868598  0.73662701  1
  Ta  Ta101  1  0.01766870  0.00692448  0.25663615  1
  Ta  Ta102  1  0.40483192  0.60524583  0.26513350  1
  Ta  Ta103  1  0.28876038  0.29140449  0.61442791  1
  Ta  Ta104  1  0.30738100  0.72377887  0.37945053  1
  Ta  Ta105  1  0.09526018  0.29438803  0.61324953  1
  Ta  Ta106  1  0.69996274  0.69914409  0.63100878  1
  Ta  Ta107  1  0.48054460  0.51686754  0.12322224  1
  Ta  Ta108  1  0.30734817  0.70861613  0.61346896  1
  Ta  Ta109  1  0.59004278  0.61942603  0.00274195  1
  Ta  Ta110  1  0.70070467  0.90014163  0.87337820  1
  Ta  Ta111  1  0.39024966  0.19760834  0.24077810  1
  Ta  Ta112  1  0.59254566  0.20775595  0.48890605  1
  Ta  Ta113  1  0.00698256  -0.00492263  0.75713634  1
  Ta  Ta114  1  0.68660055  0.28587197  0.87737265  1
  Ta  Ta115  1  0.80614148  0.80431337  0.73474723  1
  Ta  Ta116  1  0.69599668  0.47873138  0.62975985  1
  Ta  Ta117  1  -0.01465025  0.40025685  0.72295721  1
  Ta  Ta118  1  0.48248286  0.51031072  0.88623122  1
  Ta  Ta119  1  0.42458370  0.78066484  0.02021650  1
  Ti  Ti120  1  0.32924435  0.89231591  0.88611921  1
  Ti  Ti121  1  0.59164439  0.60254979  0.24906484  1
  Ti  Ti122  1  0.10401959  0.49957039  0.60999567  1
  Ti  Ti123  1  -0.01556600  0.19059215  0.50949122  1
  Ti  Ti124  1  0.39376665  0.19761791  0.02416441  1
  Ti  Ti125  1  0.18758238  0.19741696  0.25352812  1
  Ti  Ti126  1  0.09543863  0.49785721  0.86321019  1
  Ti  Ti127  1  0.10336589  0.68971897  0.13193283  1
  Ti  Ti128  1  0.09606229  0.10190280  0.86878332  1
  Ti  Ti129  1  0.50802203  0.10017102  0.88201904  1
  Ti  Ti130  1  0.28718866  0.30575054  0.87278126  1
  Ti  Ti131  1  0.21887052  0.79562937  0.24266263  1
  Ti  Ti132  1  0.41148359  0.39962843  0.26245864  1
  Ti  Ti133  1  0.49061705  0.32004793  0.12501284  1
  Ti  Ti134  1  0.10610331  0.90084903  0.88115220  1
  Ti  Ti135  1  0.90973898  0.10495645  0.37134185  1
  Ti  Ti136  1  0.31561996  0.69274765  0.87749630  1
  Ti  Ti137  1  0.19273535  0.18402129  0.49796633  1
  Ti  Ti138  1  0.90531876  0.51171281  0.13831920  1
  Ti  Ti139  1  0.37807345  0.40566765  0.00567795  1
  Ti  Ti140  1  -0.01125709  0.39905314  0.51218354  1
  Ti  Ti141  1  0.39992243  -0.01111998  0.75323035  1
  Ti  Ti142  1  0.62648557  0.78434906  0.25210461  1
  Ti  Ti143  1  0.69949862  0.09824455  0.87763102  1
  Ti  Ti144  1  0.89496721  0.09896014  0.87817941  1
  Ti  Ti145  1  0.20161764  -0.00262996  0.76115144  1
  Ti  Ti146  1  0.39537660  0.40682730  0.75139508  1
  Ti  Ti147  1  0.79741717  0.79532262  -0.00381470  1
  Ti  Ti148  1  0.68603250  0.51791215  0.36877659  1
  Ti  Ti149  1  0.08326762  0.50790843  0.39042718  1
  Ti  Ti150  1  -0.01277614  0.60587003  0.51844890  1
  Ti  Ti151  1  0.41571360  0.80388294  0.50565477  1
  Ti  Ti152  1  0.41391443  0.80659587  0.73520538  1
  Ti  Ti153  1  0.01942852  0.00534450  0.48961477  1
  Ti  Ti154  1  0.00157167  0.00700247  -0.00655561  1
  Ti  Ti155  1  0.89683987  0.70871098  0.13590194  1
  Ti  Ti156  1  0.51357933  0.90447798  0.89109423  1
  Ti  Ti157  1  0.29026258  0.90034714  0.62390419  1
  Ti  Ti158  1  0.90776847  0.09269353  0.12643256  1
  Ti  Ti159  1  0.39595593  0.20949611  0.49142573  1
  Mo  Mo160  1  0.70788933  0.68866592  0.38207374  1
  Mo  Mo161  1  -0.00879066  0.60655198  0.24241500  1
  Mo  Mo162  1  0.70282729  0.69897842  0.12166826  1
  Mo  Mo163  1  0.20494042  0.60492940  0.73325687  1
  Mo  Mo164  1  0.11423910  0.90201682  0.63166240  1
  Mo  Mo165  1  0.29429224  0.10263758  0.12779516  1
  Mo  Mo166  1  0.61160808  0.80552070  -0.00409797  1
  Mo  Mo167  1  0.81472192  0.79251320  0.25299524  1
  Mo  Mo168  1  0.89337776  0.09187918  0.61961867  1
  Mo  Mo169  1  0.59382000  0.19520195  0.76001663  1
  Mo  Mo170  1  0.52244876  0.69503292  0.13167296  1
  Mo  Mo171  1  0.09466492  0.09509655  0.37508673  1
  Mo  Mo172  1  0.10637746  0.70500717  0.37388661  1
  Mo  Mo173  1  -0.00606661  0.40129561  0.00057138  1
  Mo  Mo174  1  0.49381339  0.09783913  0.12655004  1
  Mo  Mo175  1  0.67504046  0.29327731  0.62387153  1
  Mo  Mo176  1  0.10184867  0.29550542  0.13440073  1
  Mo  Mo177  1  0.77599986  0.19464067  0.75712642  1
  Mo  Mo178  1  0.89961649  0.49265446  0.61167784  1
  Mo  Mo179  1  0.31802440  0.68863319  0.14000030  1
  Mo  Mo180  1  0.19826722  0.39659444  0.27970617  1
  Mo  Mo181  1  0.40176794  0.59770488  0.00446851  1
  Mo  Mo182  1  0.19724073  -0.00984586  0.49942832  1
  Mo  Mo183  1  0.49868905  0.50215347  0.62643824  1
  Mo  Mo184  1  0.61028996  -0.00152945  -0.00612231  1
  Mo  Mo185  1  0.48866474  0.29734743  0.36775947  1
  Mo  Mo186  1  0.79024089  0.39416179  0.74940762  1
  Mo  Mo187  1  0.90804342  0.70532729  0.62477994  1
  Mo  Mo188  1  0.48741284  0.90139678  0.62590792  1
  Mo  Mo189  1  0.58465737  0.41685107  0.24549755  1
  Mo  Mo190  1  0.31279773  0.89714743  0.36004690  1
  Mo  Mo191  1  0.50385872  0.70788045  0.61809661  1
  Mo  Mo192  1  0.68724546  0.31217987  0.12437798  1
  Mo  Mo193  1  0.50727788  0.50161103  0.36755137  1
  Mo  Mo194  1  0.38911342  0.38974089  0.48915706  1
  Mo  Mo195  1  0.09335095  0.49690566  0.13495497  1
  Mo  Mo196  1  0.60096999  -0.00944236  0.25771496  1
  Mo  Mo197  1  0.59732649  0.79201339  0.51301943  1
  Mo  Mo198  1  0.79941681  0.59398997  0.51888678  1
  Mo  Mo199  1  0.22534905  0.81175095  0.50095551  1
