# generated using pymatgen
data_HfZrTaTiMo
_symmetry_space_group_name_H-M   'P 1'
_cell_length_a   15.21340978
_cell_length_b   15.20572079
_cell_length_c   16.86304536
_cell_angle_alpha   90.01263927
_cell_angle_beta   89.99981761
_cell_angle_gamma   90.04889967
_symmetry_Int_Tables_number   1
_chemical_formula_structural   HfZrTaTiMo
_chemical_formula_sum   'Hf40 Zr40 Ta40 Ti40 Mo40'
_cell_volume   3900.94129291
_cell_formula_units_Z   40
loop_
 _symmetry_equiv_pos_site_id
 _symmetry_equiv_pos_as_xyz
  1  'x, y, z'
loop_
 _atom_site_type_symbol
 _atom_site_label
 _atom_site_symmetry_multiplicity
 _atom_site_fract_x
 _atom_site_fract_y
 _atom_site_fract_z
 _atom_site_occupancy
  Hf  Hf0  1  0.51223885  0.91070958  0.13955389  1
  Hf  Hf1  1  0.49228053  0.87758038  0.62123758  1
  Hf  Hf2  1  0.10398503  0.31316047  0.36282225  1
  Hf  Hf3  1  0.80782874  0.59216297  0.49905546  1
  Hf  Hf4  1  0.19217553  0.80917024  0.75313658  1
  Hf  Hf5  1  0.69999993  0.29983220  0.37953932  1
  Hf  Hf6  1  0.50479684  0.10641002  0.14661290  1
  Hf  Hf7  1  0.40371358  0.78521755  0.48241700  1
  Hf  Hf8  1  0.70894038  0.70677591  0.37027600  1
  Hf  Hf9  1  0.39730745  0.39813281  0.00740123  1
  Hf  Hf10  1  0.50520851  0.69241054  0.88823776  1
  Hf  Hf11  1  0.27782905  0.90487878  0.89307453  1
  Hf  Hf12  1  0.81698284  0.58953513  -0.00402662  1
  Hf  Hf13  1  0.59478731  0.60786265  0.49218943  1
  Hf  Hf14  1  0.81010469  0.19478591  0.49622157  1
  Hf  Hf15  1  0.38340487  -0.00711442  0.48561488  1
  Hf  Hf16  1  0.39514425  0.40599416  0.50186708  1
  Hf  Hf17  1  0.59436441  0.21140527  0.73086330  1
  Hf  Hf18  1  0.27871868  0.10632353  0.38058527  1
  Hf  Hf19  1  0.40043571  0.59832035  0.01111887  1
  Hf  Hf20  1  0.71078260  0.30989279  0.61881089  1
  Hf  Hf21  1  0.30198139  0.51175962  0.62176254  1
  Hf  Hf22  1  0.29436303  0.10388282  0.12408969  1
  Hf  Hf23  1  0.58897684  0.19838375  0.00097197  1
  Hf  Hf24  1  0.71099714  0.70653775  0.88198350  1
  Hf  Hf25  1  0.68541240  0.30426796  0.86918322  1
  Hf  Hf26  1  0.17561773  0.00939471  0.74747986  1
  Hf  Hf27  1  0.59571227  0.79423869  0.76115704  1
  Hf  Hf28  1  -0.00453215  0.41320202  0.00551213  1
  Hf  Hf29  1  0.51325489  0.49284348  0.87802209  1
  Hf  Hf30  1  0.28433367  0.90255658  0.61788190  1
  Hf  Hf31  1  0.21054012  0.61014063  0.75181396  1
  Hf  Hf32  1  0.10120558  0.29672463  0.88075553  1
  Hf  Hf33  1  0.39143697  0.79763770  0.76719875  1
  Hf  Hf34  1  0.48338096  0.09096107  0.62179921  1
  Hf  Hf35  1  0.30096315  0.90137793  0.11940103  1
  Hf  Hf36  1  0.89694830  0.29288194  0.87809094  1
  Hf  Hf37  1  0.88072201  0.08235858  0.12672372  1
  Hf  Hf38  1  0.90384940  0.48829884  0.62340475  1
  Hf  Hf39  1  0.01383088  0.59254617  0.49813166  1
  Zr  Zr40  1  0.08253082  0.10778249  0.37023802  1
  Zr  Zr41  1  0.69098999  0.29133142  0.13407829  1
  Zr  Zr42  1  0.50066417  0.89098965  0.35753656  1
  Zr  Zr43  1  0.59047095  0.21108937  0.51114577  1
  Zr  Zr44  1  0.90031812  0.29815203  0.13487771  1
  Zr  Zr45  1  0.69903180  0.70435943  0.63159320  1
  Zr  Zr46  1  -0.00100006  0.78795606  0.73433490  1
  Zr  Zr47  1  0.81379312  0.78832322  0.24086485  1
  Zr  Zr48  1  0.90257484  0.90307526  0.61693500  1
  Zr  Zr49  1  0.81575160  0.61195082  0.74782410  1
  Zr  Zr50  1  0.40533293  0.39444056  0.73351946  1
  Zr  Zr51  1  0.60789693  0.82600753  -0.00254500  1
  Zr  Zr52  1  0.50026141  0.11058587  0.36619312  1
  Zr  Zr53  1  0.00242843  0.18421316  0.75239560  1
  Zr  Zr54  1  0.60670675  0.40567628  0.25829247  1
  Zr  Zr55  1  0.78889798  0.19394701  0.00204838  1
  Zr  Zr56  1  0.48313175  0.31469819  0.36937583  1
  Zr  Zr57  1  0.30110208  0.70129877  0.13194435  1
  Zr  Zr58  1  0.81361687  0.78849404  0.50230812  1
  Zr  Zr59  1  0.30240775  0.50152792  0.87190891  1
  Zr  Zr60  1  0.49856363  0.50394901  0.13957256  1
  Zr  Zr61  1  0.38280485  0.20458287  0.73262401  1
  Zr  Zr62  1  0.91681816  0.70755281  0.88464933  1
  Zr  Zr63  1  0.59940591  0.00155860  0.49273969  1
  Zr  Zr64  1  0.78116800  -0.01630363  0.26687251  1
  Zr  Zr65  1  0.11002898  0.70182265  0.36348649  1
  Zr  Zr66  1  0.89407179  0.07375886  0.88459915  1
  Zr  Zr67  1  0.80368324  0.39847968  0.75266488  1
  Zr  Zr68  1  0.49861850  0.10689158  0.86176504  1
  Zr  Zr69  1  0.60668155  -0.00933402  0.74790652  1
  Zr  Zr70  1  0.72193193  0.50564699  0.13243249  1
  Zr  Zr71  1  0.42033550  0.00049651  -0.00650858  1
  Zr  Zr72  1  0.28181576  0.11077232  0.88327478  1
  Zr  Zr73  1  0.43043605  0.60398153  0.73882795  1
  Zr  Zr74  1  0.91578918  0.88338436  0.37712555  1
  Zr  Zr75  1  0.38502857  -0.00594717  0.75601849  1
  Zr  Zr76  1  0.91152159  0.67996202  0.12480878  1
  Zr  Zr77  1  0.78450681  0.18806426  0.25895489  1
  Zr  Zr78  1  0.39318821  0.20859057  0.00625137  1
  Zr  Zr79  1  0.11025484  0.48614283  0.62367552  1
  Ta  Ta80  1  0.18830522  0.21019936  0.01368420  1
  Ta  Ta81  1  0.61316366  0.61532884  0.24829384  1
  Ta  Ta82  1  0.18098175  0.22039155  0.50124248  1
  Ta  Ta83  1  0.29430611  0.70204399  0.89241474  1
  Ta  Ta84  1  0.19729931  0.40398301  0.00890530  1
  Ta  Ta85  1  0.19126507  0.00319041  0.24297496  1
  Ta  Ta86  1  0.08604905  0.10133118  0.12930812  1
  Ta  Ta87  1  0.49023769  0.30323062  0.14436412  1
  Ta  Ta88  1  0.10362278  0.69769399  0.14037444  1
  Ta  Ta89  1  0.69921066  0.09681919  0.86805830  1
  Ta  Ta90  1  0.12203606  0.70110181  0.61407786  1
  Ta  Ta91  1  0.70154437  0.50575308  0.87522291  1
  Ta  Ta92  1  0.40378810  0.80245400  -0.00293984  1
  Ta  Ta93  1  -0.00019203  0.19205652  0.00826287  1
  Ta  Ta94  1  0.70064630  0.90401480  0.61726160  1
  Ta  Ta95  1  0.38371217  0.20822079  0.50478351  1
  Ta  Ta96  1  0.00946775  0.57169917  0.25123898  1
  Ta  Ta97  1  0.91396929  0.28809098  0.36578628  1
  Ta  Ta98  1  0.48851927  0.52058352  0.35870466  1
  Ta  Ta99  1  0.91851921  0.48153051  0.37847403  1
  Ta  Ta100  1  0.69696697  0.50423526  0.62312582  1
  Ta  Ta101  1  0.29338187  0.30471611  0.87579758  1
  Ta  Ta102  1  -0.00237492  -0.01770829  0.24138964  1
  Ta  Ta103  1  0.09148458  0.09012196  0.89259694  1
  Ta  Ta104  1  0.31292262  0.70958500  0.61889706  1
  Ta  Ta105  1  0.01877913  0.79532523  0.50881711  1
  Ta  Ta106  1  0.79762407  -0.00254224  0.48591583  1
  Ta  Ta107  1  0.50611105  0.71176267  0.13592996  1
  Ta  Ta108  1  0.10573498  0.69706423  0.88300661  1
  Ta  Ta109  1  0.60280533  0.79954505  0.49352315  1
  Ta  Ta110  1  0.27433484  0.10479901  0.60778225  1
  Ta  Ta111  1  0.29317583  0.49184538  0.36392266  1
  Ta  Ta112  1  0.38225172  -0.00244938  0.25967468  1
  Ta  Ta113  1  0.31906601  0.69175457  0.35076915  1
  Ta  Ta114  1  0.60925348  0.60115153  0.01278383  1
  Ta  Ta115  1  0.79986567  0.82625583  0.75516302  1
  Ta  Ta116  1  0.81808629  0.81839698  0.01000680  1
  Ta  Ta117  1  0.38130019  0.20833911  0.25400712  1
  Ta  Ta118  1  0.60133564  0.40288958  0.00791066  1
  Ta  Ta119  1  0.79899751  0.18979548  0.74608416  1
  Ti  Ti120  1  0.70309222  0.71055240  0.11880459  1
  Ti  Ti121  1  0.81192628  0.39621009  0.49345110  1
  Ti  Ti122  1  -0.01203650  -0.01307016  0.74928500  1
  Ti  Ti123  1  0.21758618  0.60365836  0.48850265  1
  Ti  Ti124  1  0.89649220  0.09481167  0.62152784  1
  Ti  Ti125  1  0.70955707  0.50453446  0.37172543  1
  Ti  Ti126  1  0.10456470  0.50204146  0.87427616  1
  Ti  Ti127  1  0.01394549  0.37563470  0.50357507  1
  Ti  Ti128  1  0.40721108  0.60076621  0.49713336  1
  Ti  Ti129  1  0.89982636  0.09375703  0.36829585  1
  Ti  Ti130  1  0.17593993  0.00167063  0.01487180  1
  Ti  Ti131  1  0.91263492  0.50127616  0.86789622  1
  Ti  Ti132  1  0.19871620  0.39603659  0.75302342  1
  Ti  Ti133  1  0.07267969  0.89471080  0.88493348  1
  Ti  Ti134  1  0.19096847  0.20530747  0.24270923  1
  Ti  Ti135  1  0.91392129  0.68170029  0.36297500  1
  Ti  Ti136  1  0.00766298  0.39338703  0.75202107  1
  Ti  Ti137  1  0.29200197  0.31108725  0.13563231  1
  Ti  Ti138  1  0.79414051  0.39817029  -0.00337592  1
  Ti  Ti139  1  0.09497621  0.30716085  0.13252919  1
  Ti  Ti140  1  0.49041004  0.30326563  0.87162559  1
  Ti  Ti141  1  0.81638434  0.40912899  0.25798353  1
  Ti  Ti142  1  0.70680300  0.09506976  0.62308296  1
  Ti  Ti143  1  0.19148193  0.59568066  0.00608427  1
  Ti  Ti144  1  0.20567842  0.81431955  0.25144607  1
  Ti  Ti145  1  0.27797486  0.30897134  0.61737748  1
  Ti  Ti146  1  0.18379150  0.41992060  0.24328953  1
  Ti  Ti147  1  0.59571353  0.41441558  0.73530535  1
  Ti  Ti148  1  0.59850423  0.41540373  0.49601884  1
  Ti  Ti149  1  0.61944372  0.81544791  0.24784006  1
  Ti  Ti150  1  0.01478321  0.59585012  0.74176663  1
  Ti  Ti151  1  0.10900241  0.90796347  0.37593027  1
  Ti  Ti152  1  0.08691558  0.10080662  0.61107061  1
  Ti  Ti153  1  0.20943467  0.80559751  0.48683435  1
  Ti  Ti154  1  0.19077794  0.20433455  0.74386859  1
  Ti  Ti155  1  -0.01515230  -0.02495914  0.01753512  1
  Ti  Ti156  1  0.18367671  0.79863919  0.00941748  1
  Ti  Ti157  1  -0.00038768  0.00135439  0.49707239  1
  Ti  Ti158  1  0.28957691  0.50407724  0.13797487  1
  Ti  Ti159  1  0.91630757  0.28803974  0.62627118  1
  Mo  Mo160  1  0.61460499  0.59367127  0.75229272  1
  Mo  Mo161  1  0.09954328  0.50593819  0.12194003  1
  Mo  Mo162  1  0.50088016  0.69857921  0.62032840  1
  Mo  Mo163  1  0.49847256  0.30834317  0.61105424  1
  Mo  Mo164  1  0.20148157  0.59902597  0.25078576  1
  Mo  Mo165  1  0.49513824  0.89900280  0.87922599  1
  Mo  Mo166  1  0.19845952  0.41023621  0.49377450  1
  Mo  Mo167  1  0.00124327  0.39295779  0.24594422  1
  Mo  Mo168  1  0.90563021  0.49241497  0.12728021  1
  Mo  Mo169  1  0.90035535  0.89664195  0.87717337  1
  Mo  Mo170  1  -0.00698172  0.19801122  0.50103488  1
  Mo  Mo171  1  0.90591678  0.89108193  0.13415189  1
  Mo  Mo172  1  0.40381043  0.60094488  0.24138271  1
  Mo  Mo173  1  -0.00115032  0.18851298  0.24043278  1
  Mo  Mo174  1  0.28728927  0.89593749  0.36662326  1
  Mo  Mo175  1  0.50924860  0.69949749  0.35271197  1
  Mo  Mo176  1  0.01024686  0.79713729  0.00889254  1
  Mo  Mo177  1  0.51311628  0.50077131  0.61313993  1
  Mo  Mo178  1  0.10282128  0.29044988  0.63135086  1
  Mo  Mo179  1  0.60472103  0.00802520  0.26354848  1
  Mo  Mo180  1  0.10113128  0.90825587  0.61233852  1
  Mo  Mo181  1  0.10420273  0.50104716  0.38184743  1
  Mo  Mo182  1  0.80208361  0.00689133  0.74202358  1
  Mo  Mo183  1  0.91973188  0.68868231  0.62228675  1
  Mo  Mo184  1  0.40186859  0.80490977  0.24680997  1
  Mo  Mo185  1  0.60877176  0.01294518  -0.00231348  1
  Mo  Mo186  1  0.01503373  0.79255366  0.25205164  1
  Mo  Mo187  1  0.29043413  0.29974492  0.37148579  1
  Mo  Mo188  1  0.38136338  0.40177723  0.24726388  1
  Mo  Mo189  1  0.10185616  0.89526832  0.13062862  1
  Mo  Mo190  1  0.18386703  -0.00063825  0.49933115  1
  Mo  Mo191  1  0.71234012  0.91354732  0.87647127  1
  Mo  Mo192  1  0.69924056  0.10253564  0.38639936  1
  Mo  Mo193  1  0.68175098  0.08159954  0.12799002  1
  Mo  Mo194  1  0.70231057  0.89455732  0.38667656  1
  Mo  Mo195  1  0.01982601  0.59937226  -0.00089918  1
  Mo  Mo196  1  0.59265631  0.20275392  0.25743243  1
  Mo  Mo197  1  0.78221804  -0.00969717  0.00480922  1
  Mo  Mo198  1  0.70789655  0.90788441  0.12620627  1
  Mo  Mo199  1  0.80850079  0.58810322  0.26432229  1
