# generated using pymatgen
data_HfZrTaTiMo
_symmetry_space_group_name_H-M   'P 1'
_cell_length_a   15.19216961
_cell_length_b   15.18853080
_cell_length_c   16.79100303
_cell_angle_alpha   89.98071244
_cell_angle_beta   89.92901709
_cell_angle_gamma   90.14117556
_symmetry_Int_Tables_number   1
_chemical_formula_structural   HfZrTaTiMo
_chemical_formula_sum   'Hf40 Zr40 Ta40 Ti40 Mo40'
_cell_volume   3874.45418767
_cell_formula_units_Z   40
loop_
 _symmetry_equiv_pos_site_id
 _symmetry_equiv_pos_as_xyz
  1  'x, y, z'
loop_
 _atom_site_type_symbol
 _atom_site_label
 _atom_site_symmetry_multiplicity
 _atom_site_fract_x
 _atom_site_fract_y
 _atom_site_fract_z
 _atom_site_occupancy
  Hf  Hf0  1  0.09671482  0.90171045  0.63761500  1
  Hf  Hf1  1  0.39817956  0.57989960  0.24688399  1
  Hf  Hf2  1  0.88404065  0.50580704  0.37340474  1
  Hf  Hf3  1  0.00439458  0.60591565  0.48936966  1
  Hf  Hf4  1  0.20104282  0.79291676  -0.01194114  1
  Hf  Hf5  1  -0.00888610  -0.01126260  0.24058311  1
  Hf  Hf6  1  0.78768820  0.00023948  0.01741195  1
  Hf  Hf7  1  0.49600526  0.49685283  0.10871888  1
  Hf  Hf8  1  0.30101669  0.69583537  0.36329112  1
  Hf  Hf9  1  0.30881703  0.29481990  0.12496982  1
  Hf  Hf10  1  0.80424696  0.39974629  0.75000557  1
  Hf  Hf11  1  0.59827527  0.00497977  0.23005414  1
  Hf  Hf12  1  0.40175043  0.80084592  0.76455652  1
  Hf  Hf13  1  0.19336555  0.38251565  0.75102746  1
  Hf  Hf14  1  0.71327066  0.70235247  0.35751301  1
  Hf  Hf15  1  0.59945610  0.80795524  0.01409041  1
  Hf  Hf16  1  0.68618803  0.29494762  0.63387408  1
  Hf  Hf17  1  0.39098660  -0.01415139  0.51860839  1
  Hf  Hf18  1  0.80935966  0.80218126  0.01535205  1
  Hf  Hf19  1  0.49821280  0.91310633  0.87760013  1
  Hf  Hf20  1  0.79934092  0.19188486  0.76464028  1
  Hf  Hf21  1  0.49880980  0.12448929  0.64656394  1
  Hf  Hf22  1  0.18827336  0.38351393  -0.01262554  1
  Hf  Hf23  1  0.59743015  0.21038329  0.49740239  1
  Hf  Hf24  1  0.90157382  0.30285462  0.11727375  1
  Hf  Hf25  1  0.40240465  0.19172121  0.49923175  1
  Hf  Hf26  1  0.39722340  0.59844594  0.49345129  1
  Hf  Hf27  1  0.68698468  0.30076312  0.10210388  1
  Hf  Hf28  1  0.70074107  0.29949989  0.89208840  1
  Hf  Hf29  1  0.50816098  0.70071331  0.36026439  1
  Hf  Hf30  1  0.69350262  0.51228417  0.63483583  1
  Hf  Hf31  1  0.78556564  0.40338037  0.50256693  1
  Hf  Hf32  1  0.89708359  0.91172285  0.87310068  1
  Hf  Hf33  1  0.20275986  -0.01252020  0.24860757  1
  Hf  Hf34  1  0.19583061  -0.00572643  0.49753520  1
  Hf  Hf35  1  0.00187297  0.40379620  0.49582154  1
  Hf  Hf36  1  0.00692361  0.21178137  0.75074027  1
  Hf  Hf37  1  0.81965156  0.80443391  0.23526666  1
  Hf  Hf38  1  0.89642543  0.90235896  0.63315012  1
  Hf  Hf39  1  0.01408396  0.20566331  0.00031585  1
  Zr  Zr40  1  0.89925782  0.71335346  0.63111580  1
  Zr  Zr41  1  0.69737165  0.30652936  0.37001796  1
  Zr  Zr42  1  0.89405865  0.09941004  0.61996587  1
  Zr  Zr43  1  0.89983201  0.50490768  0.62710848  1
  Zr  Zr44  1  0.69964843  0.71752278  0.62138345  1
  Zr  Zr45  1  0.91608515  0.30991370  0.88409304  1
  Zr  Zr46  1  0.88539383  0.50909066  0.87517874  1
  Zr  Zr47  1  0.50604626  0.89257009  0.63415430  1
  Zr  Zr48  1  -0.00648733  0.19825993  0.25030986  1
  Zr  Zr49  1  0.20442090  0.79884623  0.76210947  1
  Zr  Zr50  1  0.50064166  0.69194675  0.63694066  1
  Zr  Zr51  1  0.11106563  0.31502596  0.13857141  1
  Zr  Zr52  1  0.01237506  0.80377840  0.48660136  1
  Zr  Zr53  1  0.09554226  0.08971240  0.37480363  1
  Zr  Zr54  1  0.10864463  0.69821462  0.62867282  1
  Zr  Zr55  1  0.50403276  0.29989447  0.88442032  1
  Zr  Zr56  1  0.10676947  0.30653813  0.37613282  1
  Zr  Zr57  1  -0.00508170  0.00456821  0.00937981  1
  Zr  Zr58  1  0.87954526  0.09030639  0.37892186  1
  Zr  Zr59  1  0.10457819  0.29728748  0.61338504  1
  Zr  Zr60  1  0.00200093  0.41598941  0.25367133  1
  Zr  Zr61  1  0.60091399  0.59959981  0.49344174  1
  Zr  Zr62  1  0.70383869  0.90657637  0.37249834  1
  Zr  Zr63  1  0.48804926  0.30327136  0.36714539  1
  Zr  Zr64  1  0.00206350  0.60958229  0.75669496  1
  Zr  Zr65  1  0.92315554  0.69305820  0.13009131  1
  Zr  Zr66  1  0.79436095  0.40669117  0.23499074  1
  Zr  Zr67  1  0.49847838  0.49360181  0.63846625  1
  Zr  Zr68  1  0.68233877  0.50622644  0.88829857  1
  Zr  Zr69  1  0.19173143  0.59435723  -0.01103720  1
  Zr  Zr70  1  0.79041527  0.19389686  0.23809499  1
  Zr  Zr71  1  0.22409729  0.79755637  0.50331678  1
  Zr  Zr72  1  0.49300117  0.90705271  0.37248240  1
  Zr  Zr73  1  0.21440717  0.20014229  0.26025038  1
  Zr  Zr74  1  0.59702262  0.01530609  0.50204643  1
  Zr  Zr75  1  0.28379123  0.49247785  0.12102717  1
  Zr  Zr76  1  0.70616228  0.90898948  0.62456559  1
  Zr  Zr77  1  0.30288601  0.50144712  0.63649392  1
  Zr  Zr78  1  0.08495081  0.48110052  0.86352611  1
  Zr  Zr79  1  0.20345512  -0.00734377  0.00481340  1
  Ta  Ta80  1  0.21064582  0.19500325  0.49550732  1
  Ta  Ta81  1  0.10862764  0.10051972  0.13134089  1
  Ta  Ta82  1  0.89442429  0.29734128  0.38181562  1
  Ta  Ta83  1  0.30475955  0.49078904  0.87083752  1
  Ta  Ta84  1  0.20454492  0.18759810  0.00112744  1
  Ta  Ta85  1  0.39927237  0.00152537  0.23246954  1
  Ta  Ta86  1  0.30150792  0.69552412  0.12580505  1
  Ta  Ta87  1  0.10369261  0.10090391  0.87160196  1
  Ta  Ta88  1  0.59319927  0.20214182  0.23911503  1
  Ta  Ta89  1  0.20795585  0.59733668  0.76264397  1
  Ta  Ta90  1  0.10432563  0.50062980  0.62704620  1
  Ta  Ta91  1  0.60030965  0.80433568  0.23141745  1
  Ta  Ta92  1  0.39344441  0.18914319  -0.00224174  1
  Ta  Ta93  1  0.78234245  0.62094129  0.75849618  1
  Ta  Ta94  1  0.40033922  0.80266651  0.23511331  1
  Ta  Ta95  1  0.39966032  0.60477134  -0.00638368  1
  Ta  Ta96  1  -0.00226035  0.19587073  0.49602702  1
  Ta  Ta97  1  0.10089521  0.09814448  0.62004624  1
  Ta  Ta98  1  -0.00145305  0.60988709  -0.00924055  1
  Ta  Ta99  1  0.79784685  -0.00005104  0.22078758  1
  Ta  Ta100  1  0.50020959  0.10447795  0.11017523  1
  Ta  Ta101  1  0.69652227  0.90000871  0.87885517  1
  Ta  Ta102  1  0.89864842  0.71517957  0.87184336  1
  Ta  Ta103  1  0.29742323  0.28135979  0.87141809  1
  Ta  Ta104  1  0.40032754  0.38806331  0.75851593  1
  Ta  Ta105  1  0.58634535  0.40450964  0.23635457  1
  Ta  Ta106  1  0.80074130  0.61521353  0.49430846  1
  Ta  Ta107  1  0.20232200  0.59415027  0.49541643  1
  Ta  Ta108  1  0.39758031  0.79873666  -0.00052793  1
  Ta  Ta109  1  0.31996838  0.08910196  0.37344416  1
  Ta  Ta110  1  0.21727377  0.40089946  0.49718473  1
  Ta  Ta111  1  0.90011524  0.89262432  0.37527941  1
  Ta  Ta112  1  0.70006738  0.68830427  0.13333538  1
  Ta  Ta113  1  0.09681797  0.90169934  0.86697232  1
  Ta  Ta114  1  0.30623401  0.08477922  0.87447085  1
  Ta  Ta115  1  0.31614139  0.28653431  0.63041699  1
  Ta  Ta116  1  0.40812742  0.19065530  0.24500744  1
  Ta  Ta117  1  0.09682345  0.88191474  0.12979622  1
  Ta  Ta118  1  0.38664994  0.00298462  0.74111856  1
  Ta  Ta119  1  0.68567872  0.50793517  0.35979712  1
  Ti  Ti120  1  0.49601879  0.50655069  0.87787288  1
  Ti  Ti121  1  0.81094628  0.18772429  -0.00242747  1
  Ti  Ti122  1  0.11498483  0.50716375  0.37394042  1
  Ti  Ti123  1  0.58925623  0.40557609  0.50136871  1
  Ti  Ti124  1  0.80393202  0.41290332  0.00836370  1
  Ti  Ti125  1  0.80117125  0.60604275  0.00551539  1
  Ti  Ti126  1  0.30841319  0.69243728  0.87543682  1
  Ti  Ti127  1  -0.00118327  0.41824375  0.01192201  1
  Ti  Ti128  1  0.70094830  0.70375336  0.88760026  1
  Ti  Ti129  1  0.40066227  -0.00618490  0.01098859  1
  Ti  Ti130  1  -0.00625577  -0.00278469  0.49811477  1
  Ti  Ti131  1  0.89651952  0.29733185  0.61738968  1
  Ti  Ti132  1  -0.00291523  0.01503475  0.75671740  1
  Ti  Ti133  1  0.20311713  -0.00261194  0.74949483  1
  Ti  Ti134  1  0.68889113  0.09499092  0.88749135  1
  Ti  Ti135  1  0.59468398  0.80209966  0.49413523  1
  Ti  Ti136  1  0.00840379  0.80070672  -0.00532386  1
  Ti  Ti137  1  0.79254901  0.19284177  0.49945841  1
  Ti  Ti138  1  0.68684371  0.10100073  0.36907698  1
  Ti  Ti139  1  0.69265278  0.50729630  0.11608608  1
  Ti  Ti140  1  0.49599348  0.49464802  0.36776247  1
  Ti  Ti141  1  -0.00437289  0.61579978  0.26943269  1
  Ti  Ti142  1  0.39157026  0.39684816  -0.01044767  1
  Ti  Ti143  1  0.79247893  0.00282174  0.76229017  1
  Ti  Ti144  1  0.61558047  0.79524065  0.76273226  1
  Ti  Ti145  1  0.19260398  0.59894097  0.25309755  1
  Ti  Ti146  1  0.30170986  0.89239857  0.36636846  1
  Ti  Ti147  1  0.70062267  0.10111599  0.63144200  1
  Ti  Ti148  1  0.60170234  0.00972573  0.75532074  1
  Ti  Ti149  1  0.50019544  0.10552858  0.87303351  1
  Ti  Ti150  1  0.11313633  0.70119452  0.13275890  1
  Ti  Ti151  1  0.31047920  0.70052483  0.63266947  1
  Ti  Ti152  1  0.21122513  0.18239259  0.74459809  1
  Ti  Ti153  1  0.29681219  0.88970511  0.12467037  1
  Ti  Ti154  1  0.59732745  0.39533951  0.75641961  1
  Ti  Ti155  1  0.49770583  0.29984488  0.11006159  1
  Ti  Ti156  1  0.49934625  0.69440058  0.12540327  1
  Ti  Ti157  1  0.08375323  0.51788228  0.13164779  1
  Ti  Ti158  1  0.40065181  0.39324521  0.50245284  1
  Ti  Ti159  1  0.51147590  0.69536012  0.87944179  1
  Mo  Mo160  1  0.10931366  0.69796289  0.37017461  1
  Mo  Mo161  1  0.21918237  0.41539597  0.26309923  1
  Mo  Mo162  1  0.10955312  0.28429605  0.86885975  1
  Mo  Mo163  1  0.30077313  0.89425469  0.63269054  1
  Mo  Mo164  1  0.69424026  0.10724451  0.11237261  1
  Mo  Mo165  1  0.79971504  0.00209558  0.49706750  1
  Mo  Mo166  1  0.59217746  0.40596707  0.00361794  1
  Mo  Mo167  1  0.69650252  0.89488995  0.12815475  1
  Mo  Mo168  1  0.30208524  0.09580077  0.12435498  1
  Mo  Mo169  1  0.09464186  0.70079972  0.87334775  1
  Mo  Mo170  1  0.20778943  0.79314786  0.24461002  1
  Mo  Mo171  1  0.80349230  0.80580131  0.48962976  1
  Mo  Mo172  1  0.59462721  0.61190456  0.00293399  1
  Mo  Mo173  1  0.89697737  0.50856909  0.11709446  1
  Mo  Mo174  1  0.30477961  0.48756355  0.37562847  1
  Mo  Mo175  1  0.02061173  0.79880537  0.26538489  1
  Mo  Mo176  1  0.48847138  0.89617730  0.11939675  1
  Mo  Mo177  1  0.30500339  0.90346918  0.88058538  1
  Mo  Mo178  1  -0.00092716  0.81323090  0.76116982  1
  Mo  Mo179  1  0.59835348  0.60606824  0.76413397  1
  Mo  Mo180  1  0.49691562  0.30961537  0.63185619  1
  Mo  Mo181  1  0.80110114  0.59540286  0.24051252  1
  Mo  Mo182  1  0.91120985  0.89485349  0.12161193  1
  Mo  Mo183  1  0.39955472  0.59911495  0.77152807  1
  Mo  Mo184  1  0.79401146  0.80814619  0.76455133  1
  Mo  Mo185  1  0.89426206  0.10346844  0.87635925  1
  Mo  Mo186  1  0.28870142  0.09764159  0.62747116  1
  Mo  Mo187  1  0.59989341  0.59477717  0.24216440  1
  Mo  Mo188  1  0.59722199  0.19024431  -0.00261194  1
  Mo  Mo189  1  0.10704401  0.89484567  0.36847496  1
  Mo  Mo190  1  0.89864835  0.70326668  0.37156802  1
  Mo  Mo191  1  0.50095011  0.09705106  0.36516517  1
  Mo  Mo192  1  -0.00280352  0.39809052  0.73323992  1
  Mo  Mo193  1  0.40600591  0.79176783  0.50002131  1
  Mo  Mo194  1  0.59155289  0.00240607  0.00346082  1
  Mo  Mo195  1  0.60592421  0.19769402  0.76249487  1
  Mo  Mo196  1  0.30369592  0.29559400  0.37974479  1
  Mo  Mo197  1  0.90483076  0.10547883  0.12250416  1
  Mo  Mo198  1  0.39603679  0.19698763  0.76051739  1
  Mo  Mo199  1  0.40051423  0.38696612  0.24469622  1
