# generated using pymatgen
data_HfZrTaTiMo
_symmetry_space_group_name_H-M   'P 1'
_cell_length_a   15.19272642
_cell_length_b   15.22278881
_cell_length_c   16.88279758
_cell_angle_alpha   89.98966786
_cell_angle_beta   89.95610791
_cell_angle_gamma   89.93468761
_symmetry_Int_Tables_number   1
_chemical_formula_structural   HfZrTaTiMo
_chemical_formula_sum   'Hf40 Zr40 Ta40 Ti40 Mo40'
_cell_volume   3904.57650415
_cell_formula_units_Z   40
loop_
 _symmetry_equiv_pos_site_id
 _symmetry_equiv_pos_as_xyz
  1  'x, y, z'
loop_
 _atom_site_type_symbol
 _atom_site_label
 _atom_site_symmetry_multiplicity
 _atom_site_fract_x
 _atom_site_fract_y
 _atom_site_fract_z
 _atom_site_occupancy
  Hf  Hf0  1  0.49752979  0.09405326  0.62095004  1
  Hf  Hf1  1  0.20262544  -0.00214710  0.49445306  1
  Hf  Hf2  1  0.30557400  0.29251021  0.13375003  1
  Hf  Hf3  1  0.59373697  -0.00204563  0.73941693  1
  Hf  Hf4  1  0.88745473  0.09762474  0.12091248  1
  Hf  Hf5  1  0.70266419  0.90563166  0.38152218  1
  Hf  Hf6  1  0.82228015  0.60659913  0.02190245  1
  Hf  Hf7  1  0.69794514  0.92151355  0.12689761  1
  Hf  Hf8  1  0.90548205  0.90496474  0.37317335  1
  Hf  Hf9  1  0.60611173  0.38066666  0.00389882  1
  Hf  Hf10  1  -0.02003551  0.60382596  0.74728000  1
  Hf  Hf11  1  0.80631986  0.81115292  0.00815790  1
  Hf  Hf12  1  0.72464419  0.70419417  0.86990152  1
  Hf  Hf13  1  0.51352444  0.89322680  0.37746701  1
  Hf  Hf14  1  0.70391304  0.50041581  0.88718554  1
  Hf  Hf15  1  0.71489565  0.31892907  0.36533320  1
  Hf  Hf16  1  0.20579682  0.60156069  0.74652852  1
  Hf  Hf17  1  0.29156713  0.89835875  0.13020394  1
  Hf  Hf18  1  0.49722858  0.49466027  0.87469516  1
  Hf  Hf19  1  0.50089609  0.30235232  0.62341848  1
  Hf  Hf20  1  0.70204867  0.11522005  0.37301853  1
  Hf  Hf21  1  0.29121882  0.08304008  0.63215451  1
  Hf  Hf22  1  0.49735124  0.69630848  0.86972872  1
  Hf  Hf23  1  0.08768451  0.31092140  0.35994898  1
  Hf  Hf24  1  0.19538130  0.20239634  0.00212958  1
  Hf  Hf25  1  0.40390129  0.00440109  0.25707377  1
  Hf  Hf26  1  0.12579944  0.90084162  0.64241766  1
  Hf  Hf27  1  0.00725902  0.00680374  0.75696011  1
  Hf  Hf28  1  -0.01690214  0.19655335  0.48779192  1
  Hf  Hf29  1  0.09370195  0.70002473  0.62146916  1
  Hf  Hf30  1  0.60555316  0.80081289  0.74745118  1
  Hf  Hf31  1  0.50912733  0.07844552  0.87884689  1
  Hf  Hf32  1  0.00311359  -0.00462550  0.50665807  1
  Hf  Hf33  1  0.39912795  0.79775253  0.26534150  1
  Hf  Hf34  1  0.09230869  0.50166325  0.61938557  1
  Hf  Hf35  1  0.10035775  0.49591541  0.87350769  1
  Hf  Hf36  1  0.61335218  0.42085242  0.50093458  1
  Hf  Hf37  1  0.51069175  0.49128307  0.13195872  1
  Hf  Hf38  1  0.39195761  0.19180303  0.50211506  1
  Hf  Hf39  1  0.89351171  0.10684856  0.63487831  1
  Zr  Zr40  1  -0.00875318  0.41333010  0.01605437  1
  Zr  Zr41  1  0.89882666  0.30469687  0.63219103  1
  Zr  Zr42  1  0.59616792  0.80912792  -0.00278500  1
  Zr  Zr43  1  0.11906070  0.89423472  0.86849324  1
  Zr  Zr44  1  0.09807585  0.29337032  0.63149822  1
  Zr  Zr45  1  0.19973251  0.39770111  0.49978016  1
  Zr  Zr46  1  0.89884598  0.51562689  0.88195316  1
  Zr  Zr47  1  0.39186948  0.40833439  0.74567317  1
  Zr  Zr48  1  0.39882482  0.39074419  0.00134459  1
  Zr  Zr49  1  0.80079276  0.41382920  0.74808920  1
  Zr  Zr50  1  0.29189313  0.30181535  0.86901169  1
  Zr  Zr51  1  0.31109345  0.69940204  0.62422353  1
  Zr  Zr52  1  0.41830512  0.38616671  0.25171631  1
  Zr  Zr53  1  0.51223793  0.29548205  0.38110586  1
  Zr  Zr54  1  0.60056626  0.40272333  0.74373102  1
  Zr  Zr55  1  0.09610701  0.08660870  0.12638505  1
  Zr  Zr56  1  0.17966647  0.78636053  0.25752494  1
  Zr  Zr57  1  0.09524132  0.51939860  0.37174008  1
  Zr  Zr58  1  0.80369414  0.78473859  0.48889727  1
  Zr  Zr59  1  0.60828377  0.60386717  0.01147490  1
  Zr  Zr60  1  0.20780179  0.80199389  0.49061918  1
  Zr  Zr61  1  0.70663233  0.11173916  0.86753214  1
  Zr  Zr62  1  0.29592687  0.69790665  0.13059521  1
  Zr  Zr63  1  0.40653726  0.19066192  -0.00878873  1
  Zr  Zr64  1  0.29032141  0.49508999  0.14033353  1
  Zr  Zr65  1  0.39965584  0.40127412  0.49885667  1
  Zr  Zr66  1  -0.00102786  0.20744651  0.00614306  1
  Zr  Zr67  1  0.88956938  0.89703246  0.86713156  1
  Zr  Zr68  1  0.79317160  0.22133522  0.00790214  1
  Zr  Zr69  1  0.29704945  0.29358859  0.36405618  1
  Zr  Zr70  1  0.69927426  0.90124844  0.60998290  1
  Zr  Zr71  1  0.39749289  0.59966761  0.00563917  1
  Zr  Zr72  1  -0.01949832  0.40564980  0.49448151  1
  Zr  Zr73  1  0.30582791  0.08890566  0.12109250  1
  Zr  Zr74  1  0.19458971  0.19101807  0.24262747  1
  Zr  Zr75  1  0.40925679  0.78718682  0.48413711  1
  Zr  Zr76  1  0.09113409  0.09258210  0.36463450  1
  Zr  Zr77  1  0.90162159  0.88968559  0.63105439  1
  Zr  Zr78  1  0.80251383  0.60301236  0.24167136  1
  Zr  Zr79  1  0.39967554  0.18563427  0.75658113  1
  Ta  Ta80  1  0.52008075  0.50898097  0.36833849  1
  Ta  Ta81  1  0.89179774  0.48552941  0.35847502  1
  Ta  Ta82  1  0.51337917  0.28766584  0.86802310  1
  Ta  Ta83  1  0.08805613  0.88493129  0.12377621  1
  Ta  Ta84  1  -0.00024142  0.79281340  0.75418481  1
  Ta  Ta85  1  0.50185210  0.70648959  0.13667077  1
  Ta  Ta86  1  0.09822678  0.10414065  0.62902320  1
  Ta  Ta87  1  0.79124013  0.58442548  0.48147324  1
  Ta  Ta88  1  0.79715142  0.80730013  0.25276018  1
  Ta  Ta89  1  0.89565685  0.30533875  0.87095822  1
  Ta  Ta90  1  0.49566770  0.52021908  0.62269274  1
  Ta  Ta91  1  -0.02456115  0.20063174  0.25025978  1
  Ta  Ta92  1  0.88434017  0.52024152  0.61714866  1
  Ta  Ta93  1  0.49883685  0.89645149  0.13167976  1
  Ta  Ta94  1  0.40613715  0.59964405  0.25984971  1
  Ta  Ta95  1  0.91317308  0.69064111  0.36379081  1
  Ta  Ta96  1  0.61026092  0.20215495  0.50482772  1
  Ta  Ta97  1  0.18814747  0.59822647  0.00096755  1
  Ta  Ta98  1  0.68782481  0.91019179  0.87486099  1
  Ta  Ta99  1  0.29120384  0.70602875  0.87271645  1
  Ta  Ta100  1  0.39481993  -0.00993359  0.48934467  1
  Ta  Ta101  1  0.80495329  0.01259621  0.25400245  1
  Ta  Ta102  1  0.19341560  0.40190718  0.00526000  1
  Ta  Ta103  1  0.19160622  0.19486702  0.49706128  1
  Ta  Ta104  1  0.00218195  0.79174085  -0.00448619  1
  Ta  Ta105  1  0.69011377  0.29998328  0.14459190  1
  Ta  Ta106  1  0.71451078  0.69222571  0.62492423  1
  Ta  Ta107  1  -0.00575503  -0.00979443  -0.00386721  1
  Ta  Ta108  1  0.09432586  0.69333765  0.87427398  1
  Ta  Ta109  1  0.39517081  0.79791741  0.75212116  1
  Ta  Ta110  1  0.00554908  0.79227253  0.49525335  1
  Ta  Ta111  1  0.40794869  0.59545571  0.48273382  1
  Ta  Ta112  1  0.39677193  0.80036501  -0.00129318  1
  Ta  Ta113  1  0.51110155  0.09012376  0.12251794  1
  Ta  Ta114  1  0.29170963  0.28870612  0.63099341  1
  Ta  Ta115  1  0.70978625  0.29903676  0.61888917  1
  Ta  Ta116  1  0.29554811  0.50896515  0.87602741  1
  Ta  Ta117  1  0.30031879  0.49812222  0.36303712  1
  Ta  Ta118  1  0.29899259  0.09464878  0.36900223  1
  Ta  Ta119  1  0.48798720  0.89170245  0.61551875  1
  Ti  Ti120  1  0.89897870  0.10686991  0.87846206  1
  Ti  Ti121  1  0.58588255  0.20069731  0.24584302  1
  Ti  Ti122  1  0.59683372  0.00444701  0.50184810  1
  Ti  Ti123  1  0.68105271  0.70030620  0.37110243  1
  Ti  Ti124  1  -0.00016401  0.40362823  0.75043141  1
  Ti  Ti125  1  0.60321284  0.00160982  0.25423820  1
  Ti  Ti126  1  0.71792611  0.48682547  0.12241956  1
  Ti  Ti127  1  0.09758595  0.09997005  0.88288737  1
  Ti  Ti128  1  0.19579546  0.39768075  0.74646265  1
  Ti  Ti129  1  0.88875113  0.31691292  0.13935011  1
  Ti  Ti130  1  0.19793281  -0.01146584  -0.00188501  1
  Ti  Ti131  1  0.51181745  0.69870829  0.62474137  1
  Ti  Ti132  1  0.19914965  0.79412110  0.00177272  1
  Ti  Ti133  1  0.80582036  0.02510180  0.49585211  1
  Ti  Ti134  1  0.91949254  0.71462188  0.13720615  1
  Ti  Ti135  1  0.28916581  0.68731937  0.37082229  1
  Ti  Ti136  1  0.01889009  0.60749578  0.23781593  1
  Ti  Ti137  1  0.19054980  0.18858783  0.75907399  1
  Ti  Ti138  1  0.30239435  0.49983433  0.62215719  1
  Ti  Ti139  1  0.09980657  0.89245853  0.36941313  1
  Ti  Ti140  1  0.69616113  0.50965242  0.62356092  1
  Ti  Ti141  1  0.90211790  0.90306767  0.13089826  1
  Ti  Ti142  1  0.50170628  0.10154272  0.37990518  1
  Ti  Ti143  1  0.60533879  0.60432890  0.24267518  1
  Ti  Ti144  1  0.40882454  -0.01707071  -0.00375119  1
  Ti  Ti145  1  0.70465634  0.10875713  0.62315383  1
  Ti  Ti146  1  0.69758278  0.71661392  0.13259770  1
  Ti  Ti147  1  0.09666173  0.31639358  0.14276000  1
  Ti  Ti148  1  0.78878999  0.01056420  -0.00426400  1
  Ti  Ti149  1  0.39116061  -0.01951393  0.75760273  1
  Ti  Ti150  1  0.09249078  0.30210879  0.87446141  1
  Ti  Ti151  1  0.00251537  -0.00795634  0.24692263  1
  Ti  Ti152  1  0.70471534  0.30309785  0.86922256  1
  Ti  Ti153  1  0.60223718  0.59922509  0.74945746  1
  Ti  Ti154  1  0.79342451  -0.00084548  0.74945157  1
  Ti  Ti155  1  0.60256608  0.18741669  0.00908894  1
  Ti  Ti156  1  0.29141212  0.08001642  0.87727493  1
  Ti  Ti157  1  -0.00490166  0.20271524  0.76191265  1
  Ti  Ti158  1  0.20291986  0.59997855  0.49908469  1
  Ti  Ti159  1  0.60991672  0.20185058  0.74228590  1
  Mo  Mo160  1  0.19775352  -0.01357144  0.25672809  1
  Mo  Mo161  1  0.40707647  0.60353981  0.74816093  1
  Mo  Mo162  1  0.50810578  0.69295785  0.36426575  1
  Mo  Mo163  1  0.80001635  0.40252166  0.50170184  1
  Mo  Mo164  1  0.29492500  0.90488254  0.36581434  1
  Mo  Mo165  1  0.60680015  0.80256904  0.24422682  1
  Mo  Mo166  1  0.41105693  0.18692116  0.25276418  1
  Mo  Mo167  1  -0.00348055  0.40859116  0.24054537  1
  Mo  Mo168  1  0.30945747  0.89460505  0.88564879  1
  Mo  Mo169  1  0.10344751  0.50494257  0.13251789  1
  Mo  Mo170  1  -0.01157246  0.80013576  0.25251200  1
  Mo  Mo171  1  0.89466223  0.29460510  0.36301820  1
  Mo  Mo172  1  0.19554564  0.40345508  0.25018660  1
  Mo  Mo173  1  0.09550894  0.69773555  0.38402326  1
  Mo  Mo174  1  0.60826084  0.41136640  0.24528262  1
  Mo  Mo175  1  0.79610010  0.20674524  0.49952402  1
  Mo  Mo176  1  0.60319779  0.79352361  0.50686536  1
  Mo  Mo177  1  0.01058127  0.61109419  0.01305552  1
  Mo  Mo178  1  0.89255311  0.09732958  0.36880791  1
  Mo  Mo179  1  0.70063081  0.51256002  0.36630775  1
  Mo  Mo180  1  0.49609708  0.89108640  0.87213127  1
  Mo  Mo181  1  0.80296021  0.40332484  0.24455347  1
  Mo  Mo182  1  0.80524143  0.79849166  0.74505021  1
  Mo  Mo183  1  0.79818030  0.40010236  0.00750771  1
  Mo  Mo184  1  0.10087992  0.70160833  0.11848831  1
  Mo  Mo185  1  0.20582428  0.79872543  0.75390823  1
  Mo  Mo186  1  0.20541247  0.59903659  0.25486091  1
  Mo  Mo187  1  0.89864619  0.69746969  0.61568312  1
  Mo  Mo188  1  0.90836944  0.50564881  0.13860172  1
  Mo  Mo189  1  0.59828088  0.00162901  0.00166800  1
  Mo  Mo190  1  0.59851391  0.61651678  0.50111411  1
  Mo  Mo191  1  0.80053358  0.20074820  0.75521805  1
  Mo  Mo192  1  0.50632249  0.28156302  0.12664773  1
  Mo  Mo193  1  0.90802477  0.70674772  0.87886277  1
  Mo  Mo194  1  0.31440986  0.89799315  0.62706596  1
  Mo  Mo195  1  0.78899042  0.60970101  0.74556378  1
  Mo  Mo196  1  0.20841602  0.00916122  0.76101273  1
  Mo  Mo197  1  0.79309906  0.19979373  0.24144000  1
  Mo  Mo198  1  0.69287833  0.10606784  0.13486397  1
  Mo  Mo199  1  -0.01692485  0.60858002  0.49589639  1
