# generated using pymatgen
data_HfZrTaTiMo
_symmetry_space_group_name_H-M   'P 1'
_cell_length_a   15.18978744
_cell_length_b   15.19724076
_cell_length_c   16.81023755
_cell_angle_alpha   89.92320277
_cell_angle_beta   90.00418805
_cell_angle_gamma   89.96141289
_symmetry_Int_Tables_number   1
_chemical_formula_structural   HfZrTaTiMo
_chemical_formula_sum   'Hf40 Zr40 Ta40 Ti40 Mo40'
_cell_volume   3880.51888579
_cell_formula_units_Z   40
loop_
 _symmetry_equiv_pos_site_id
 _symmetry_equiv_pos_as_xyz
  1  'x, y, z'
loop_
 _atom_site_type_symbol
 _atom_site_label
 _atom_site_symmetry_multiplicity
 _atom_site_fract_x
 _atom_site_fract_y
 _atom_site_fract_z
 _atom_site_occupancy
  Hf  Hf0  1  0.81602355  0.80579893  0.50369428  1
  Hf  Hf1  1  0.50013638  0.70426122  0.36212664  1
  Hf  Hf2  1  0.39818877  0.00761525  0.50241936  1
  Hf  Hf3  1  0.49376504  0.70638950  0.87939819  1
  Hf  Hf4  1  0.20394961  0.59765032  0.73683677  1
  Hf  Hf5  1  0.60048798  0.78846422  0.01199687  1
  Hf  Hf6  1  0.39314351  0.40492044  0.50008657  1
  Hf  Hf7  1  0.09009075  0.48881799  0.39474989  1
  Hf  Hf8  1  0.39838401  0.01313598  0.23418133  1
  Hf  Hf9  1  0.09704069  0.09149364  0.62134863  1
  Hf  Hf10  1  0.49435561  0.51045034  0.87922380  1
  Hf  Hf11  1  0.10150388  0.50750663  0.88237683  1
  Hf  Hf12  1  0.49896740  0.30872669  0.88114550  1
  Hf  Hf13  1  0.31710056  0.69997520  0.14043338  1
  Hf  Hf14  1  0.60808664  0.00027945  0.76326839  1
  Hf  Hf15  1  0.59885710  0.40659426  0.75307734  1
  Hf  Hf16  1  0.20571847  0.19467185  0.24553934  1
  Hf  Hf17  1  0.29646818  0.30225301  0.87465545  1
  Hf  Hf18  1  0.89668799  0.29952985  0.37522325  1
  Hf  Hf19  1  0.61225403  0.20996785  0.48452151  1
  Hf  Hf20  1  0.39132006  0.80706179  0.49722366  1
  Hf  Hf21  1  0.69729824  0.70789326  0.61317590  1
  Hf  Hf22  1  0.41143899  0.19962466  0.50630041  1
  Hf  Hf23  1  0.10541759  0.29092424  0.38831573  1
  Hf  Hf24  1  0.61522700  0.00765762  0.23704761  1
  Hf  Hf25  1  0.80120107  0.59581221  0.74760821  1
  Hf  Hf26  1  0.09781068  0.69210240  0.36992090  1
  Hf  Hf27  1  0.50046434  0.90803152  0.36699603  1
  Hf  Hf28  1  0.79440831  0.39072598  0.76047162  1
  Hf  Hf29  1  0.79568728  0.61426862  0.23580061  1
  Hf  Hf30  1  0.50945807  0.30357817  0.62539018  1
  Hf  Hf31  1  0.72504497  0.10089616  0.89089374  1
  Hf  Hf32  1  0.29098019  0.49995755  0.37687191  1
  Hf  Hf33  1  0.70659152  0.69244865  0.88345223  1
  Hf  Hf34  1  0.01041880  0.39744373  0.24781775  1
  Hf  Hf35  1  0.89641646  0.49194794  0.60998090  1
  Hf  Hf36  1  0.29997716  0.89153951  0.89181011  1
  Hf  Hf37  1  0.88780790  0.28701049  0.60572205  1
  Hf  Hf38  1  0.10590510  0.88419443  0.36246755  1
  Hf  Hf39  1  0.59561498  0.60598358  0.74352380  1
  Zr  Zr40  1  0.21257868  0.18432854  0.50458982  1
  Zr  Zr41  1  0.18254230  -0.01261099  0.00280110  1
  Zr  Zr42  1  0.19961180  0.57974180  0.23984033  1
  Zr  Zr43  1  0.11023553  0.70580288  0.87572757  1
  Zr  Zr44  1  0.20235542  0.61055845  0.51078720  1
  Zr  Zr45  1  0.70708236  0.71801234  0.38213091  1
  Zr  Zr46  1  0.59180866  0.41082501  0.24249607  1
  Zr  Zr47  1  0.49834450  0.10191305  0.89142503  1
  Zr  Zr48  1  0.58960640  0.60794581  0.49866242  1
  Zr  Zr49  1  0.61411439  0.80420848  0.23677547  1
  Zr  Zr50  1  0.69423415  0.28458674  0.14375236  1
  Zr  Zr51  1  0.19113818  0.40413377  0.74188206  1
  Zr  Zr52  1  0.78158250  0.39102247  0.00060409  1
  Zr  Zr53  1  0.09198671  0.08895923  0.13066205  1
  Zr  Zr54  1  -0.00370091  0.59771511  0.23603673  1
  Zr  Zr55  1  0.69558220  0.49492740  0.61082116  1
  Zr  Zr56  1  0.00703083  0.60846970  0.01815188  1
  Zr  Zr57  1  0.20784708  0.80463513  0.75279957  1
  Zr  Zr58  1  0.60435666  0.80705451  0.75829464  1
  Zr  Zr59  1  0.29769067  0.71920031  0.35771222  1
  Zr  Zr60  1  0.51037920  0.90472101  0.62060582  1
  Zr  Zr61  1  0.09883390  0.29314768  0.87966347  1
  Zr  Zr62  1  0.60649590  0.58693644  0.02487133  1
  Zr  Zr63  1  -0.01468745  0.40459593  0.75949993  1
  Zr  Zr64  1  -0.00858162  0.19367051  0.74592931  1
  Zr  Zr65  1  -0.00054088  0.81460451  0.00135515  1
  Zr  Zr66  1  0.39797556  -0.00680808  0.75378261  1
  Zr  Zr67  1  0.38733939  0.41349016  0.00853276  1
  Zr  Zr68  1  0.69726260  0.10486645  0.62125058  1
  Zr  Zr69  1  0.89664297  0.28349384  0.13206703  1
  Zr  Zr70  1  0.69738210  0.50790317  0.37182677  1
  Zr  Zr71  1  0.09151101  0.30635411  0.60509430  1
  Zr  Zr72  1  0.81946307  -0.00389060  0.75037891  1
  Zr  Zr73  1  0.90477737  0.70429699  0.87301738  1
  Zr  Zr74  1  0.51124041  0.11895777  0.12360441  1
  Zr  Zr75  1  0.10890045  0.90108598  0.63150628  1
  Zr  Zr76  1  0.40409647  0.19673877  0.74212641  1
  Zr  Zr77  1  0.60945999  0.20240477  0.76141290  1
  Zr  Zr78  1  -0.00851088  0.39547126  -0.00518213  1
  Zr  Zr79  1  0.89685786  0.09486967  0.36546911  1
  Ta  Ta80  1  0.71583221  0.89805287  0.10990442  1
  Ta  Ta81  1  0.29744489  0.89788143  0.12245219  1
  Ta  Ta82  1  0.29273923  0.10115174  0.87990717  1
  Ta  Ta83  1  0.61629907  0.21051960  -0.00096518  1
  Ta  Ta84  1  0.89859179  0.90839851  0.13892511  1
  Ta  Ta85  1  0.40228889  0.79850903  0.74974338  1
  Ta  Ta86  1  0.10010152  0.09508466  0.87079161  1
  Ta  Ta87  1  -0.00201628  -0.01540599  0.49102149  1
  Ta  Ta88  1  0.39416609  0.60637776  0.74233834  1
  Ta  Ta89  1  -0.00511814  0.18468807  -0.00031358  1
  Ta  Ta90  1  0.60181256  0.00619003  0.49012557  1
  Ta  Ta91  1  0.00190694  0.59940936  0.74143788  1
  Ta  Ta92  1  0.60849614  0.00248946  0.00960353  1
  Ta  Ta93  1  0.01206577  0.79844110  0.50230559  1
  Ta  Ta94  1  0.20324075  0.19401650  0.00728084  1
  Ta  Ta95  1  -0.01378530  0.61039199  0.50474786  1
  Ta  Ta96  1  0.89333128  0.49437790  0.12193893  1
  Ta  Ta97  1  0.80112741  0.19897266  0.75156824  1
  Ta  Ta98  1  0.10675735  0.08614309  0.37394974  1
  Ta  Ta99  1  0.49424819  0.89463132  0.11627073  1
  Ta  Ta100  1  0.71503374  0.89457210  0.89534800  1
  Ta  Ta101  1  0.50044928  0.11250015  0.36157816  1
  Ta  Ta102  1  0.48885130  0.50642850  0.62364222  1
  Ta  Ta103  1  0.58875874  0.39716148  0.01937344  1
  Ta  Ta104  1  0.39333613  0.41265293  0.74497521  1
  Ta  Ta105  1  0.10058420  0.29420051  0.11683598  1
  Ta  Ta106  1  0.50140614  0.90195087  0.89800350  1
  Ta  Ta107  1  0.30496857  0.09691923  0.37084186  1
  Ta  Ta108  1  0.48886392  0.50520986  0.36542373  1
  Ta  Ta109  1  0.78433815  0.38946851  0.48499152  1
  Ta  Ta110  1  0.39298439  0.00765082  0.01330616  1
  Ta  Ta111  1  0.80079812  0.00199111  0.49367418  1
  Ta  Ta112  1  0.89540535  0.88858754  0.36130050  1
  Ta  Ta113  1  0.28970359  0.30671727  0.12701478  1
  Ta  Ta114  1  0.20187750  0.19165488  0.74294747  1
  Ta  Ta115  1  0.09458840  0.87981085  0.14247224  1
  Ta  Ta116  1  0.29798222  0.30606657  0.62686560  1
  Ta  Ta117  1  0.20636654  -0.00952131  0.24793292  1
  Ta  Ta118  1  0.80099701  0.80377521  0.74515227  1
  Ta  Ta119  1  0.30262543  0.29756729  0.37023095  1
  Ti  Ti120  1  0.20105251  0.78144331  0.01608523  1
  Ti  Ti121  1  0.49239283  0.30530323  0.36013342  1
  Ti  Ti122  1  0.09448960  0.70277626  0.62689452  1
  Ti  Ti123  1  -0.00744848  0.18257229  0.49288389  1
  Ti  Ti124  1  0.59946213  0.60625046  0.23194609  1
  Ti  Ti125  1  0.40470865  0.61520886  0.01087085  1
  Ti  Ti126  1  0.90194661  0.70271485  0.62868877  1
  Ti  Ti127  1  -0.01571717  0.00227230  0.00007859  1
  Ti  Ti128  1  0.70280777  0.30177573  0.61888075  1
  Ti  Ti129  1  0.37817810  0.40594983  0.24667729  1
  Ti  Ti130  1  0.47956300  0.51149137  0.13766696  1
  Ti  Ti131  1  0.21562443  0.58689382  0.01462271  1
  Ti  Ti132  1  0.89276782  0.50626193  0.38439923  1
  Ti  Ti133  1  0.70254367  0.09978664  0.36596583  1
  Ti  Ti134  1  0.11278076  0.47941479  0.11468583  1
  Ti  Ti135  1  0.00166491  0.19435052  0.25297067  1
  Ti  Ti136  1  -0.01290139  0.81060776  0.74484366  1
  Ti  Ti137  1  0.29977151  0.71502252  0.62210860  1
  Ti  Ti138  1  0.09417168  0.49947325  0.60863629  1
  Ti  Ti139  1  0.70857481  0.90436858  0.61788728  1
  Ti  Ti140  1  0.29736387  0.50486473  0.87659164  1
  Ti  Ti141  1  0.39811655  0.20651519  0.00801355  1
  Ti  Ti142  1  0.80399581  0.40709768  0.25123161  1
  Ti  Ti143  1  0.88335954  0.27800254  0.88475077  1
  Ti  Ti144  1  0.69386860  0.49616128  0.88321682  1
  Ti  Ti145  1  0.80274307  0.60915308  0.02149879  1
  Ti  Ti146  1  -0.00050375  -0.00569467  0.25432978  1
  Ti  Ti147  1  0.90310531  0.69871629  0.37227084  1
  Ti  Ti148  1  0.88893612  0.51153724  0.88768583  1
  Ti  Ti149  1  0.73315073  0.09541202  0.11969586  1
  Ti  Ti150  1  0.08518315  0.90964255  0.85980694  1
  Ti  Ti151  1  0.20564854  -0.02359944  0.49273000  1
  Ti  Ti152  1  0.58806656  0.40320913  0.48654405  1
  Ti  Ti153  1  0.89888038  0.08550687  0.61327793  1
  Ti  Ti154  1  0.29812418  0.08232188  0.63262712  1
  Ti  Ti155  1  0.30367050  0.69218475  0.88252770  1
  Ti  Ti156  1  0.48715094  0.30324650  0.13629925  1
  Ti  Ti157  1  0.39707967  0.60482709  0.50147525  1
  Ti  Ti158  1  0.49563897  0.70833996  0.62120917  1
  Ti  Ti159  1  0.69988198  0.29510639  0.35448543  1
  Mo  Mo160  1  0.50077830  0.70381388  0.13650676  1
  Mo  Mo161  1  0.71095675  0.70457952  0.12150765  1
  Mo  Mo162  1  0.29795705  0.91351304  0.36633137  1
  Mo  Mo163  1  0.70444410  0.49465340  0.13218419  1
  Mo  Mo164  1  0.40916053  0.59633699  0.25490587  1
  Mo  Mo165  1  0.39687877  0.21232952  0.24900461  1
  Mo  Mo166  1  0.90025373  0.90213300  0.87358299  1
  Mo  Mo167  1  0.30430792  0.89813183  0.62664133  1
  Mo  Mo168  1  0.11003723  0.69336821  0.12234722  1
  Mo  Mo169  1  0.29804798  0.49680078  0.12712547  1
  Mo  Mo170  1  0.30239728  0.50389732  0.62194639  1
  Mo  Mo171  1  0.00491102  -0.00079764  0.74773888  1
  Mo  Mo172  1  0.70412235  0.91234362  0.38100458  1
  Mo  Mo173  1  0.80657716  0.60229627  0.49588671  1
  Mo  Mo174  1  0.80590241  0.80675197  0.24996217  1
  Mo  Mo175  1  0.39430010  0.80108269  0.00303377  1
  Mo  Mo176  1  0.19804269  0.80385163  0.50332662  1
  Mo  Mo177  1  0.20309475  0.00737294  0.76047255  1
  Mo  Mo178  1  0.80855104  0.79569517  0.00435997  1
  Mo  Mo179  1  0.81065769  0.19091907  0.00435427  1
  Mo  Mo180  1  -0.00592803  0.78899351  0.24540941  1
  Mo  Mo181  1  0.20097940  0.79711062  0.23781992  1
  Mo  Mo182  1  0.79716562  0.19151360  0.25459915  1
  Mo  Mo183  1  0.29867243  0.10493339  0.11616333  1
  Mo  Mo184  1  0.79452692  -0.00817754  0.25248628  1
  Mo  Mo185  1  0.40209570  0.81692228  0.24782796  1
  Mo  Mo186  1  0.59587809  0.20212489  0.26133066  1
  Mo  Mo187  1  0.50568976  0.10201020  0.61997869  1
  Mo  Mo188  1  0.69650149  0.30134712  0.88388063  1
  Mo  Mo189  1  0.91498498  0.09632883  0.87397547  1
  Mo  Mo190  1  0.79580291  0.19235396  0.49116103  1
  Mo  Mo191  1  0.60011827  0.81925650  0.49727402  1
  Mo  Mo192  1  0.20248818  0.39550477  0.50852806  1
  Mo  Mo193  1  0.90439934  0.89820049  0.61874262  1
  Mo  Mo194  1  0.19348204  0.38612742  0.25018479  1
  Mo  Mo195  1  0.81602759  -0.00721824  0.00029718  1
  Mo  Mo196  1  0.19695091  0.39718624  -0.00201984  1
  Mo  Mo197  1  -0.01098149  0.39971531  0.49439807  1
  Mo  Mo198  1  0.90433848  0.71707459  0.12557062  1
  Mo  Mo199  1  0.90406065  0.09149885  0.13817003  1
