# generated using pymatgen
data_HfZrTaTiMo
_symmetry_space_group_name_H-M   'P 1'
_cell_length_a   15.21217507
_cell_length_b   15.21004424
_cell_length_c   16.81077525
_cell_angle_alpha   90.01246958
_cell_angle_beta   89.95722982
_cell_angle_gamma   89.96867780
_symmetry_Int_Tables_number   1
_chemical_formula_structural   HfZrTaTiMo
_chemical_formula_sum   'Hf40 Zr40 Ta40 Ti40 Mo40'
_cell_volume   3889.63937192
_cell_formula_units_Z   40
loop_
 _symmetry_equiv_pos_site_id
 _symmetry_equiv_pos_as_xyz
  1  'x, y, z'
loop_
 _atom_site_type_symbol
 _atom_site_label
 _atom_site_symmetry_multiplicity
 _atom_site_fract_x
 _atom_site_fract_y
 _atom_site_fract_z
 _atom_site_occupancy
  Hf  Hf0  1  0.01243925  0.00569134  0.74007047  1
  Hf  Hf1  1  0.88395147  0.51524092  0.63490366  1
  Hf  Hf2  1  0.88705988  0.51170161  0.87542597  1
  Hf  Hf3  1  0.60214564  0.19396650  0.23248986  1
  Hf  Hf4  1  0.10903081  0.90038602  0.37656032  1
  Hf  Hf5  1  0.19457274  0.18683606  0.48891929  1
  Hf  Hf6  1  0.69815439  0.69554709  0.87691075  1
  Hf  Hf7  1  0.43025668  -0.00973230  0.49775701  1
  Hf  Hf8  1  0.57809969  0.41903680  0.73734764  1
  Hf  Hf9  1  0.91375012  0.11729447  0.61496622  1
  Hf  Hf10  1  0.20081461  0.79138479  0.00684726  1
  Hf  Hf11  1  0.30134887  0.48029365  0.86504128  1
  Hf  Hf12  1  0.40776280  -0.00535615  -0.01803922  1
  Hf  Hf13  1  0.58596128  0.81518471  0.51275403  1
  Hf  Hf14  1  -0.00659650  0.19944905  0.77048637  1
  Hf  Hf15  1  0.30059566  0.49187006  0.62881499  1
  Hf  Hf16  1  0.31593622  0.10408865  0.13830835  1
  Hf  Hf17  1  0.80384320  0.01127294  -0.00061231  1
  Hf  Hf18  1  0.00869120  0.20736665  0.24483811  1
  Hf  Hf19  1  0.79524267  0.81250100  -0.00316721  1
  Hf  Hf20  1  0.31825971  0.08360523  0.63578470  1
  Hf  Hf21  1  0.09903904  0.70067532  0.87538193  1
  Hf  Hf22  1  0.68938242  0.91323756  0.63363215  1
  Hf  Hf23  1  0.70243309  0.10922473  0.88178152  1
  Hf  Hf24  1  0.90357797  0.10557709  0.12196139  1
  Hf  Hf25  1  0.00488804  0.60257296  0.00528669  1
  Hf  Hf26  1  0.41913595  0.58448693  0.74789928  1
  Hf  Hf27  1  0.29218146  0.28594884  0.62581911  1
  Hf  Hf28  1  0.10309898  0.69401006  0.62631531  1
  Hf  Hf29  1  0.21270458  0.58430136  0.01002455  1
  Hf  Hf30  1  0.58881182  0.39772946  0.50302416  1
  Hf  Hf31  1  0.79906414  0.01675607  0.24781157  1
  Hf  Hf32  1  0.80016972  0.81067280  0.75495243  1
  Hf  Hf33  1  -0.00061976  0.40631586  -0.00373811  1
  Hf  Hf34  1  0.21410685  0.21221400  -0.00484668  1
  Hf  Hf35  1  0.20074381  0.59198138  0.25582768  1
  Hf  Hf36  1  0.69709148  0.11106650  0.37657186  1
  Hf  Hf37  1  0.69280784  0.50026153  0.35999781  1
  Hf  Hf38  1  0.19948543  0.79324132  0.74898662  1
  Hf  Hf39  1  0.68477595  0.71512135  0.11918703  1
  Zr  Zr40  1  0.00511568  0.80684348  0.50456677  1
  Zr  Zr41  1  0.09230758  0.48563659  0.62990872  1
  Zr  Zr42  1  0.51671387  0.09289690  0.63755541  1
  Zr  Zr43  1  0.60381365  0.59758423  0.50689825  1
  Zr  Zr44  1  0.21849012  -0.01454289  0.76320584  1
  Zr  Zr45  1  -0.00527688  0.61060115  0.75234118  1
  Zr  Zr46  1  0.20067510  0.79072503  0.24866676  1
  Zr  Zr47  1  0.49672969  0.70534270  0.37813423  1
  Zr  Zr48  1  0.19919229  0.18822869  0.75917038  1
  Zr  Zr49  1  0.01279622  0.60266798  0.25695911  1
  Zr  Zr50  1  0.50633428  0.89214534  0.12085632  1
  Zr  Zr51  1  0.02244764  0.01945508  0.50500564  1
  Zr  Zr52  1  0.79416203  0.80639291  0.50453791  1
  Zr  Zr53  1  0.10825203  0.31061589  0.87938378  1
  Zr  Zr54  1  0.91480575  0.11171800  0.37620482  1
  Zr  Zr55  1  0.39343793  0.58638152  0.24652734  1
  Zr  Zr56  1  0.77839625  0.41204821  0.75620026  1
  Zr  Zr57  1  0.39305683  0.38747367  0.49207825  1
  Zr  Zr58  1  0.40749767  0.19086863  -0.00947903  1
  Zr  Zr59  1  0.39284215  0.78941866  -0.01075524  1
  Zr  Zr60  1  0.10775295  0.10327059  0.11922984  1
  Zr  Zr61  1  -0.00052079  0.59501798  0.49134865  1
  Zr  Zr62  1  0.69625310  0.70447951  0.36678623  1
  Zr  Zr63  1  0.89993928  0.49381301  0.36026692  1
  Zr  Zr64  1  0.80009527  0.81053789  0.24850833  1
  Zr  Zr65  1  0.89731343  0.31359878  0.62498125  1
  Zr  Zr66  1  0.21406163  -0.00294850  -0.00505398  1
  Zr  Zr67  1  0.20342927  0.59637822  0.48930922  1
  Zr  Zr68  1  0.78131564  0.41124253  0.01393732  1
  Zr  Zr69  1  0.40655672  0.78760330  0.24041221  1
  Zr  Zr70  1  0.90817285  0.91585775  0.87552333  1
  Zr  Zr71  1  0.79415529  0.59712434  0.23227486  1
  Zr  Zr72  1  0.79713931  0.21453497  0.49384435  1
  Zr  Zr73  1  0.22611960  -0.00773719  0.49780161  1
  Zr  Zr74  1  0.59688280  0.39882411  0.22658583  1
  Zr  Zr75  1  0.90787254  0.71054313  0.12476784  1
  Zr  Zr76  1  0.67800326  0.91045402  0.36943381  1
  Zr  Zr77  1  0.80065992  0.21354400  0.75981851  1
  Zr  Zr78  1  0.79041522  0.41504390  0.49903770  1
  Zr  Zr79  1  0.59833348  0.21096911  0.75777311  1
  Ta  Ta80  1  -0.00638681  0.20316210  -0.00783281  1
  Ta  Ta81  1  0.80631849  0.01537919  0.75122522  1
  Ta  Ta82  1  0.48940064  0.68518556  0.10504581  1
  Ta  Ta83  1  0.80072482  0.61007680  0.49783420  1
  Ta  Ta84  1  0.90537618  0.30800507  0.12657831  1
  Ta  Ta85  1  0.39777845  0.79609124  0.76440367  1
  Ta  Ta86  1  0.29117851  0.47138061  0.13197254  1
  Ta  Ta87  1  0.30729918  0.69712916  0.63112499  1
  Ta  Ta88  1  0.58600682  0.60560594  0.23468138  1
  Ta  Ta89  1  0.09951462  0.89606341  0.88113954  1
  Ta  Ta90  1  0.00420296  0.80774786  0.25721620  1
  Ta  Ta91  1  0.90518212  0.71016590  0.37358870  1
  Ta  Ta92  1  0.50308967  0.08319787  0.35913522  1
  Ta  Ta93  1  0.09736745  0.90159250  0.12779094  1
  Ta  Ta94  1  0.50023128  0.48748344  0.89270276  1
  Ta  Ta95  1  0.69703947  0.91814211  0.12773784  1
  Ta  Ta96  1  0.79934748  0.00431478  0.50102484  1
  Ta  Ta97  1  0.37749674  0.38676197  0.00209655  1
  Ta  Ta98  1  0.89460839  0.70966062  0.62748161  1
  Ta  Ta99  1  0.68537211  0.30088610  0.62149166  1
  Ta  Ta100  1  0.79586456  0.21684927  0.23915382  1
  Ta  Ta101  1  0.90877871  0.91003938  0.12577323  1
  Ta  Ta102  1  0.40419207  0.59699351  0.50276420  1
  Ta  Ta103  1  0.48390715  0.29205447  0.62727168  1
  Ta  Ta104  1  0.09337288  0.08898793  0.89050708  1
  Ta  Ta105  1  0.30076170  0.90112803  0.13210874  1
  Ta  Ta106  1  0.79940446  0.60480281  0.01331315  1
  Ta  Ta107  1  0.60129593  0.20395958  0.01371272  1
  Ta  Ta108  1  0.49579418  0.49263995  0.36801726  1
  Ta  Ta109  1  0.89949105  0.70880853  0.88154928  1
  Ta  Ta110  1  0.10750376  0.50810117  0.86322319  1
  Ta  Ta111  1  0.58589399  0.19690452  0.49671389  1
  Ta  Ta112  1  0.29861550  0.67814829  0.86545065  1
  Ta  Ta113  1  0.49769896  0.70182757  0.63150360  1
  Ta  Ta114  1  -0.01077043  0.39631769  0.76368875  1
  Ta  Ta115  1  0.08863058  0.28199228  0.62344913  1
  Ta  Ta116  1  0.32145210  0.89949898  0.36429487  1
  Ta  Ta117  1  0.89949499  0.90876952  0.37809645  1
  Ta  Ta118  1  0.70096256  0.69242981  0.63937825  1
  Ta  Ta119  1  0.18458788  0.38767570  0.49260234  1
  Ti  Ti120  1  0.10536554  0.69743882  0.12645168  1
  Ti  Ti121  1  0.50179656  0.67853954  0.88501666  1
  Ti  Ti122  1  0.50850089  0.08360406  0.13134268  1
  Ti  Ti123  1  0.49780144  0.29003339  0.36226329  1
  Ti  Ti124  1  0.30189377  0.29466858  0.36659192  1
  Ti  Ti125  1  0.68290629  0.50830602  0.87944697  1
  Ti  Ti126  1  0.29926368  0.48838839  0.37629261  1
  Ti  Ti127  1  0.50621821  0.89481113  0.86788513  1
  Ti  Ti128  1  0.19419381  0.39231553  0.74404870  1
  Ti  Ti129  1  0.30965203  0.09663821  0.35914056  1
  Ti  Ti130  1  0.11048495  0.31858453  0.12137798  1
  Ti  Ti131  1  0.60281113  0.58327979  0.01154530  1
  Ti  Ti132  1  0.40126795  0.18804659  0.48913895  1
  Ti  Ti133  1  0.60636357  -0.00182904  0.76787200  1
  Ti  Ti134  1  0.39246607  0.79961057  0.50692215  1
  Ti  Ti135  1  -0.00394394  0.39480586  0.49313589  1
  Ti  Ti136  1  0.00776858  0.00121470  0.25536513  1
  Ti  Ti137  1  0.20856850  0.79804871  0.50309607  1
  Ti  Ti138  1  0.49119191  0.30295209  0.87549820  1
  Ti  Ti139  1  0.89431293  0.30817932  0.35931190  1
  Ti  Ti140  1  0.00114822  0.80979132  0.00445710  1
  Ti  Ti141  1  0.48543192  0.89999434  0.64878530  1
  Ti  Ti142  1  0.20221901  -0.00061158  0.25187828  1
  Ti  Ti143  1  0.47072577  0.29329812  0.13109534  1
  Ti  Ti144  1  0.68231536  0.31887279  0.89100861  1
  Ti  Ti145  1  0.00065061  0.81123407  0.74288340  1
  Ti  Ti146  1  0.70824963  0.10747532  0.62145074  1
  Ti  Ti147  1  0.12028673  0.90644387  0.62220401  1
  Ti  Ti148  1  0.80136928  0.21413266  0.00009924  1
  Ti  Ti149  1  0.18832980  0.39741751  0.25970425  1
  Ti  Ti150  1  0.29802707  0.70356815  0.38136079  1
  Ti  Ti151  1  0.59498323  0.79204499  0.75739471  1
  Ti  Ti152  1  0.60386008  0.00185171  -0.00977672  1
  Ti  Ti153  1  0.09207147  0.29953207  0.37215711  1
  Ti  Ti154  1  0.69417693  0.30786207  0.36563349  1
  Ti  Ti155  1  0.48657082  0.49002769  0.11153799  1
  Ti  Ti156  1  0.59848189  0.80719995  -0.01328730  1
  Ti  Ti157  1  0.89734350  0.91151486  0.62429068  1
  Ti  Ti158  1  0.20472380  0.20274995  0.25417978  1
  Ti  Ti159  1  0.90958669  0.49608966  0.13510683  1
  Mo  Mo160  1  0.30132246  0.68833964  0.12226574  1
  Mo  Mo161  1  0.01123477  0.22074020  0.48871117  1
  Mo  Mo162  1  0.11638522  0.10365725  0.35764456  1
  Mo  Mo163  1  0.50042112  0.89653684  0.36862739  1
  Mo  Mo164  1  0.41138319  -0.00708687  0.77285677  1
  Mo  Mo165  1  0.10494897  0.48607595  0.38026308  1
  Mo  Mo166  1  0.50978197  0.09788125  0.87159305  1
  Mo  Mo167  1  0.20659793  0.59562678  0.74743158  1
  Mo  Mo168  1  0.30677302  0.09681530  0.86747997  1
  Mo  Mo169  1  0.60156955  -0.00115527  0.24092051  1
  Mo  Mo170  1  0.30006528  0.88064198  0.87824163  1
  Mo  Mo171  1  0.29316269  0.29449543  0.13769635  1
  Mo  Mo172  1  0.10276669  0.70534326  0.38172181  1
  Mo  Mo173  1  0.79166024  0.61284998  0.75586551  1
  Mo  Mo174  1  0.57716698  0.39081104  0.01273905  1
  Mo  Mo175  1  0.60877596  0.00854058  0.50450618  1
  Mo  Mo176  1  0.40026250  -0.00499367  0.24831018  1
  Mo  Mo177  1  0.49091894  0.50197688  0.61683191  1
  Mo  Mo178  1  0.70019185  0.29812516  0.11574312  1
  Mo  Mo179  1  0.68947993  0.50757448  0.12568678  1
  Mo  Mo180  1  0.60056093  0.60339008  0.75274508  1
  Mo  Mo181  1  0.39019941  0.39113466  0.25889470  1
  Mo  Mo182  1  0.00650553  0.39654999  0.24469523  1
  Mo  Mo183  1  0.40055162  0.58281380  -0.00138230  1
  Mo  Mo184  1  0.39828699  0.38113653  0.74753707  1
  Mo  Mo185  1  0.00715423  -0.00091437  0.00515660  1
  Mo  Mo186  1  0.59898123  0.79395566  0.23863825  1
  Mo  Mo187  1  0.69472021  0.90468971  0.86815259  1
  Mo  Mo188  1  0.89025774  0.30693998  0.88692610  1
  Mo  Mo189  1  0.40359926  0.19874797  0.25972256  1
  Mo  Mo190  1  0.79955800  0.39463351  0.23392727  1
  Mo  Mo191  1  0.90221115  0.10931030  0.88337396  1
  Mo  Mo192  1  0.69960889  0.10341022  0.11242249  1
  Mo  Mo193  1  0.69367951  0.50693872  0.62313139  1
  Mo  Mo194  1  0.40086351  0.19407849  0.76527431  1
  Mo  Mo195  1  0.11241641  0.10502330  0.62604710  1
  Mo  Mo196  1  0.09765048  0.49238491  0.12944419  1
  Mo  Mo197  1  0.31588256  0.88286499  0.62759548  1
  Mo  Mo198  1  0.19750772  0.39985386  0.00043034  1
  Mo  Mo199  1  0.30747867  0.29849663  0.86237487  1
