# generated using pymatgen
data_HfZrTaTiMo
_symmetry_space_group_name_H-M   'P 1'
_cell_length_a   15.19075861
_cell_length_b   15.20912420
_cell_length_c   16.84701605
_cell_angle_alpha   90.05775532
_cell_angle_beta   90.02342285
_cell_angle_gamma   89.96233718
_symmetry_Int_Tables_number   1
_chemical_formula_structural   HfZrTaTiMo
_chemical_formula_sum   'Hf40 Zr40 Ta40 Ti40 Mo40'
_cell_volume   3892.30001597
_cell_formula_units_Z   40
loop_
 _symmetry_equiv_pos_site_id
 _symmetry_equiv_pos_as_xyz
  1  'x, y, z'
loop_
 _atom_site_type_symbol
 _atom_site_label
 _atom_site_symmetry_multiplicity
 _atom_site_fract_x
 _atom_site_fract_y
 _atom_site_fract_z
 _atom_site_occupancy
  Hf  Hf0  1  0.79633396  0.38920882  0.00302085  1
  Hf  Hf1  1  0.80386685  0.20203713  0.73241376  1
  Hf  Hf2  1  0.18721359  0.59669842  0.25190581  1
  Hf  Hf3  1  -0.00165534  0.00188204  0.00394812  1
  Hf  Hf4  1  0.00947150  0.19868691  0.25622202  1
  Hf  Hf5  1  0.49353520  0.10827867  0.64161330  1
  Hf  Hf6  1  -0.00483884  0.19385398  0.74018854  1
  Hf  Hf7  1  0.40042911  0.38378498  0.74619566  1
  Hf  Hf8  1  0.60805660  0.81429387  0.24294334  1
  Hf  Hf9  1  0.91115773  0.51512394  0.62858740  1
  Hf  Hf10  1  0.80758805  0.40913079  0.49844192  1
  Hf  Hf11  1  0.78766317  0.59255788  0.01255954  1
  Hf  Hf12  1  0.70666530  0.50646209  0.36760627  1
  Hf  Hf13  1  0.81733629  0.61632789  0.76791825  1
  Hf  Hf14  1  0.28378611  0.49871006  0.62402628  1
  Hf  Hf15  1  0.40432877  0.18573619  0.25649739  1
  Hf  Hf16  1  0.38224982  0.59583639  0.75401652  1
  Hf  Hf17  1  0.48931912  0.50173139  0.88384405  1
  Hf  Hf18  1  0.11443313  0.10503999  0.12498605  1
  Hf  Hf19  1  0.41154179  0.01298972  0.49466751  1
  Hf  Hf20  1  0.50391386  0.90542238  0.62163263  1
  Hf  Hf21  1  0.51979726  0.09113267  0.86628312  1
  Hf  Hf22  1  0.39813993  0.59805121  0.49584248  1
  Hf  Hf23  1  0.69420445  0.49961658  0.87553332  1
  Hf  Hf24  1  0.59281610  0.40208612  0.50271422  1
  Hf  Hf25  1  0.20617557  -0.01775594  0.50837823  1
  Hf  Hf26  1  0.30411924  0.27610263  0.12528507  1
  Hf  Hf27  1  0.30059221  0.50459419  0.11852665  1
  Hf  Hf28  1  -0.02640594  0.78957772  0.75406361  1
  Hf  Hf29  1  0.79069375  -0.01141222  0.24639945  1
  Hf  Hf30  1  0.68077778  0.92629720  0.87251868  1
  Hf  Hf31  1  0.09889502  0.30214104  0.11118386  1
  Hf  Hf32  1  0.29720582  0.10239411  0.63629591  1
  Hf  Hf33  1  -0.01622169  0.60970043  0.49419743  1
  Hf  Hf34  1  0.79022978  0.19453964  0.25906867  1
  Hf  Hf35  1  0.59070647  0.60998423  0.75019607  1
  Hf  Hf36  1  -0.00415835  0.40954111  0.24533941  1
  Hf  Hf37  1  0.38514371  0.21890521  0.50324984  1
  Hf  Hf38  1  0.21424484  -0.00182938  0.25643815  1
  Hf  Hf39  1  0.20859076  0.79460557  0.25270591  1
  Zr  Zr40  1  0.39384864  0.61042255  0.25170959  1
  Zr  Zr41  1  0.20823184  0.19181949  -0.01721517  1
  Zr  Zr42  1  0.11347743  0.30245642  0.62801116  1
  Zr  Zr43  1  -0.00194388  0.19851533  0.50681956  1
  Zr  Zr44  1  0.40408096  0.38868444  0.00807307  1
  Zr  Zr45  1  0.19977434  0.39296428  0.24282150  1
  Zr  Zr46  1  0.89796657  0.09120864  0.38269234  1
  Zr  Zr47  1  0.11064674  0.89426989  0.11959594  1
  Zr  Zr48  1  0.09872342  0.69631866  0.11183298  1
  Zr  Zr49  1  0.78965871  0.01461679  0.01871091  1
  Zr  Zr50  1  0.49439042  0.70058594  0.12237376  1
  Zr  Zr51  1  0.71438156  0.71219584  0.62787318  1
  Zr  Zr52  1  0.08985799  0.68782394  0.63107409  1
  Zr  Zr53  1  0.09301043  0.30217958  0.87853592  1
  Zr  Zr54  1  0.11595651  0.70865433  0.87605190  1
  Zr  Zr55  1  0.80939915  -0.00080417  0.73572005  1
  Zr  Zr56  1  0.69436362  0.09281392  0.61020899  1
  Zr  Zr57  1  -0.01160759  0.59602400  -0.01817840  1
  Zr  Zr58  1  0.49980894  0.49792427  0.36550834  1
  Zr  Zr59  1  0.20917234  0.38641819  0.49896027  1
  Zr  Zr60  1  0.49947342  0.71209730  0.61822099  1
  Zr  Zr61  1  0.60694401  0.61083452  0.49673540  1
  Zr  Zr62  1  0.80291899  0.39769449  0.75328773  1
  Zr  Zr63  1  0.29183641  0.70909104  0.38846004  1
  Zr  Zr64  1  0.00310135  -0.00731430  0.25532749  1
  Zr  Zr65  1  0.80014793  0.80045666  0.02368775  1
  Zr  Zr66  1  0.60251576  0.21333930  0.74781658  1
  Zr  Zr67  1  0.28781599  0.10620805  0.38115061  1
  Zr  Zr68  1  0.08808321  0.90726085  0.86019936  1
  Zr  Zr69  1  0.10971177  0.28982088  0.37925629  1
  Zr  Zr70  1  0.39238924  0.80556876  -0.01350677  1
  Zr  Zr71  1  0.21166277  -0.00955466  -0.01666247  1
  Zr  Zr72  1  0.48451408  0.91805281  0.13585665  1
  Zr  Zr73  1  0.88045280  0.89618007  0.87891684  1
  Zr  Zr74  1  0.70468973  0.50901085  0.62851396  1
  Zr  Zr75  1  0.69915716  0.71704332  0.87710919  1
  Zr  Zr76  1  0.89454742  0.29381616  0.12644102  1
  Zr  Zr77  1  0.58178302  0.20003250  0.49231333  1
  Zr  Zr78  1  0.29178458  0.70914141  0.61743256  1
  Zr  Zr79  1  0.60124518  0.81404200  0.01290986  1
  Ta  Ta80  1  0.69636981  0.89561017  0.61114879  1
  Ta  Ta81  1  0.09759480  0.08818047  0.62968156  1
  Ta  Ta82  1  0.89978443  0.50405796  0.36978600  1
  Ta  Ta83  1  0.80391499  0.79224563  0.23857662  1
  Ta  Ta84  1  0.79328231  0.40302820  0.24368860  1
  Ta  Ta85  1  0.10202385  0.88634860  0.63607842  1
  Ta  Ta86  1  0.40787133  -0.00091634  -0.01781761  1
  Ta  Ta87  1  0.10710601  0.88928980  0.38261206  1
  Ta  Ta88  1  0.19991015  0.41404622  0.75848961  1
  Ta  Ta89  1  0.60977019  0.60406171  0.24315923  1
  Ta  Ta90  1  0.00111723  0.40157224  0.75603818  1
  Ta  Ta91  1  0.19997554  -0.00502754  0.74837936  1
  Ta  Ta92  1  0.00854069  0.58763545  0.76973726  1
  Ta  Ta93  1  0.41606763  0.39174861  0.23699036  1
  Ta  Ta94  1  0.29596488  0.49567529  0.37290698  1
  Ta  Ta95  1  0.50180934  0.91287446  0.36742680  1
  Ta  Ta96  1  0.60449903  0.40688580  0.00943009  1
  Ta  Ta97  1  0.59765915  0.40433031  0.74508700  1
  Ta  Ta98  1  0.41322870  0.18675775  -0.01153840  1
  Ta  Ta99  1  0.68993552  0.09249626  0.38570061  1
  Ta  Ta100  1  0.69492549  0.30549367  0.37359269  1
  Ta  Ta101  1  0.70619088  0.70490586  0.36676996  1
  Ta  Ta102  1  0.89899349  0.88660831  0.61649298  1
  Ta  Ta103  1  0.69534780  0.30487420  0.61562397  1
  Ta  Ta104  1  0.79564780  0.20597346  0.49804957  1
  Ta  Ta105  1  0.61640445  0.20914512  -0.00045602  1
  Ta  Ta106  1  0.31751355  0.07976770  0.12083250  1
  Ta  Ta107  1  0.71718384  0.12070484  0.87383110  1
  Ta  Ta108  1  -0.01196502  0.19536064  -0.00450537  1
  Ta  Ta109  1  0.20976530  0.20747431  0.75736656  1
  Ta  Ta110  1  0.31265020  0.30838488  0.36297128  1
  Ta  Ta111  1  0.50384417  0.71905793  0.37181368  1
  Ta  Ta112  1  0.18540242  0.59028648  0.49487945  1
  Ta  Ta113  1  0.90474326  0.09756744  0.87297745  1
  Ta  Ta114  1  0.90892896  0.89421262  0.13071001  1
  Ta  Ta115  1  0.50481656  0.11969181  0.12237600  1
  Ta  Ta116  1  0.40656340  -0.01583365  0.76292964  1
  Ta  Ta117  1  0.29446346  0.70260359  0.10849285  1
  Ta  Ta118  1  0.59733787  0.02502071  0.24976994  1
  Ta  Ta119  1  0.00135726  0.79246827  0.25390182  1
  Ti  Ti120  1  0.59826262  0.01528150  0.01513910  1
  Ti  Ti121  1  0.80412511  -0.00583761  0.50053688  1
  Ti  Ti122  1  -0.01022082  0.40285012  -0.00651539  1
  Ti  Ti123  1  0.80915219  0.78662533  0.49365629  1
  Ti  Ti124  1  0.09159698  0.50171619  0.11223774  1
  Ti  Ti125  1  0.20279040  0.40259278  -0.00413083  1
  Ti  Ti126  1  0.28932510  0.87803102  0.86198174  1
  Ti  Ti127  1  0.09625527  0.49838869  0.37463934  1
  Ti  Ti128  1  0.11546013  0.50258477  0.88179664  1
  Ti  Ti129  1  0.51165207  0.49993285  0.12519616  1
  Ti  Ti130  1  0.30831377  0.30128106  0.87672983  1
  Ti  Ti131  1  0.68530179  0.29732406  0.13426495  1
  Ti  Ti132  1  0.30179960  0.89214375  0.12163237  1
  Ti  Ti133  1  0.80481960  0.59591020  0.23117938  1
  Ti  Ti134  1  0.09919658  0.09043326  0.38758485  1
  Ti  Ti135  1  0.09035787  0.70193873  0.38240421  1
  Ti  Ti136  1  0.40338230  0.78936628  0.76233308  1
  Ti  Ti137  1  0.59180497  0.21812288  0.26151196  1
  Ti  Ti138  1  0.30291327  0.89375166  0.63918007  1
  Ti  Ti139  1  0.30054337  0.67193179  0.89379893  1
  Ti  Ti140  1  0.40214229  0.40222415  0.50689624  1
  Ti  Ti141  1  0.70122653  0.89545069  0.38424979  1
  Ti  Ti142  1  0.51243400  0.29941957  0.87764600  1
  Ti  Ti143  1  0.90720023  0.69268643  0.12629610  1
  Ti  Ti144  1  0.00100793  -0.01487168  0.50741510  1
  Ti  Ti145  1  0.90071483  0.10110732  0.13127832  1
  Ti  Ti146  1  0.49697801  0.50152532  0.62727482  1
  Ti  Ti147  1  0.00742831  0.41048625  0.50058273  1
  Ti  Ti148  1  0.90460690  0.88547652  0.37805636  1
  Ti  Ti149  1  0.88594949  0.28934605  0.87702877  1
  Ti  Ti150  1  0.59553376  0.81679120  0.75334136  1
  Ti  Ti151  1  0.90217769  0.30730582  0.61885266  1
  Ti  Ti152  1  0.89710403  0.30823723  0.37419091  1
  Ti  Ti153  1  0.50191604  0.69814247  0.88852780  1
  Ti  Ti154  1  0.30721759  0.09542319  0.85980073  1
  Ti  Ti155  1  -0.00262460  0.80045565  -0.00739036  1
  Ti  Ti156  1  0.09620782  0.09947742  0.86012330  1
  Ti  Ti157  1  0.89224963  0.69708967  0.36482607  1
  Ti  Ti158  1  -0.00546223  0.60107528  0.24986281  1
  Ti  Ti159  1  0.39414065  0.81771641  0.49260142  1
  Mo  Mo160  1  0.39552432  0.80791564  0.25580501  1
  Mo  Mo161  1  0.49566646  0.31088885  0.37178088  1
  Mo  Mo162  1  0.60226638  -0.00640483  0.49074265  1
  Mo  Mo163  1  0.69544512  0.30260204  0.87642316  1
  Mo  Mo164  1  0.69747330  0.90945044  0.13434138  1
  Mo  Mo165  1  0.78445467  0.80948112  0.74683151  1
  Mo  Mo166  1  0.30819656  0.89553655  0.37762505  1
  Mo  Mo167  1  0.40779545  0.59488340  0.00521290  1
  Mo  Mo168  1  0.19987338  0.79749903  -0.00384018  1
  Mo  Mo169  1  0.21329757  0.79321428  0.74798723  1
  Mo  Mo170  1  0.29604167  0.48909035  0.88300533  1
  Mo  Mo171  1  0.60197451  0.80871289  0.48350916  1
  Mo  Mo172  1  0.19714656  0.18700715  0.50852870  1
  Mo  Mo173  1  0.30542243  0.29486361  0.63695410  1
  Mo  Mo174  1  0.70006831  0.69549387  0.13683241  1
  Mo  Mo175  1  -0.00286620  0.80602937  0.49468242  1
  Mo  Mo176  1  0.09548276  0.49725502  0.63047274  1
  Mo  Mo177  1  0.20343329  0.59025460  0.00270950  1
  Mo  Mo178  1  0.50062379  0.30884880  0.62724022  1
  Mo  Mo179  1  0.90620468  0.48618784  0.87437346  1
  Mo  Mo180  1  0.00059608  -0.00020091  0.73353086  1
  Mo  Mo181  1  0.59467520  0.59829246  0.00784262  1
  Mo  Mo182  1  0.89729230  0.70060412  0.88484163  1
  Mo  Mo183  1  0.80214520  0.60421356  0.48841120  1
  Mo  Mo184  1  0.50557983  0.29783645  0.12159138  1
  Mo  Mo185  1  0.60580272  -0.00168943  0.74502253  1
  Mo  Mo186  1  0.89736585  0.70510830  0.62405443  1
  Mo  Mo187  1  0.39918217  0.19673011  0.76819178  1
  Mo  Mo188  1  0.40440043  -0.00285622  0.25662153  1
  Mo  Mo189  1  0.18738954  0.79846780  0.50403492  1
  Mo  Mo190  1  0.19879783  0.59586425  0.75617516  1
  Mo  Mo191  1  0.80160987  0.19830637  0.00309102  1
  Mo  Mo192  1  0.90534498  0.49923802  0.12822417  1
  Mo  Mo193  1  0.69895647  0.49453484  0.13228637  1
  Mo  Mo194  1  0.49799934  0.89271042  0.87061411  1
  Mo  Mo195  1  0.20099153  0.19265368  0.24541573  1
  Mo  Mo196  1  0.60408535  0.40214595  0.24428039  1
  Mo  Mo197  1  0.50219804  0.10683804  0.37307962  1
  Mo  Mo198  1  0.69271285  0.11364192  0.13453260  1
  Mo  Mo199  1  0.90191216  0.09516678  0.60423870  1
