# generated using pymatgen
data_HfZrTaTiMo
_symmetry_space_group_name_H-M   'P 1'
_cell_length_a   15.21510766
_cell_length_b   15.20643993
_cell_length_c   16.83021693
_cell_angle_alpha   90.00054278
_cell_angle_beta   89.94439111
_cell_angle_gamma   89.96276625
_symmetry_Int_Tables_number   1
_chemical_formula_structural   HfZrTaTiMo
_chemical_formula_sum   'Hf40 Zr40 Ta40 Ti40 Mo40'
_cell_volume   3893.96458862
_cell_formula_units_Z   40
loop_
 _symmetry_equiv_pos_site_id
 _symmetry_equiv_pos_as_xyz
  1  'x, y, z'
loop_
 _atom_site_type_symbol
 _atom_site_label
 _atom_site_symmetry_multiplicity
 _atom_site_fract_x
 _atom_site_fract_y
 _atom_site_fract_z
 _atom_site_occupancy
  Hf  Hf0  1  0.50078279  0.49842421  0.62733097  1
  Hf  Hf1  1  0.50971596  0.50175300  0.10936525  1
  Hf  Hf2  1  0.70516030  0.30632342  0.87212815  1
  Hf  Hf3  1  0.07765257  0.90060760  0.89090467  1
  Hf  Hf4  1  0.62096207  0.40417608  0.24359341  1
  Hf  Hf5  1  0.27677051  0.89745028  0.89443070  1
  Hf  Hf6  1  0.88841800  0.10325051  0.37299857  1
  Hf  Hf7  1  0.00542001  0.39699210  0.25443662  1
  Hf  Hf8  1  0.29433101  0.49480125  0.88585638  1
  Hf  Hf9  1  0.59538869  -0.00010908  0.25432447  1
  Hf  Hf10  1  0.02715511  0.17887928  0.74451465  1
  Hf  Hf11  1  0.38373497  0.79642382  0.50405420  1
  Hf  Hf12  1  0.20664645  0.20047450  0.02222940  1
  Hf  Hf13  1  0.60772358  0.40191842  0.51099529  1
  Hf  Hf14  1  0.70501326  0.10325593  0.87627850  1
  Hf  Hf15  1  0.30588039  0.30726135  0.36710496  1
  Hf  Hf16  1  0.49434299  0.11833781  0.89424300  1
  Hf  Hf17  1  0.80353011  0.39940180  0.52236934  1
  Hf  Hf18  1  0.20173290  -0.00457833  0.24955185  1
  Hf  Hf19  1  0.28830414  0.51908666  0.12100139  1
  Hf  Hf20  1  0.01222391  0.59006420  0.00514903  1
  Hf  Hf21  1  0.60410775  0.79139821  0.49306540  1
  Hf  Hf22  1  0.80310391  0.60758342  0.73357794  1
  Hf  Hf23  1  0.19057163  0.81453701  0.49792983  1
  Hf  Hf24  1  0.11096502  0.29784794  0.87697397  1
  Hf  Hf25  1  0.80661117  -0.00850744  0.00062188  1
  Hf  Hf26  1  0.51570825  0.30994183  0.37209216  1
  Hf  Hf27  1  0.80365841  0.59865721  0.00675333  1
  Hf  Hf28  1  0.70417430  0.50179126  0.86799173  1
  Hf  Hf29  1  0.82040287  0.20912644  -0.00824470  1
  Hf  Hf30  1  0.70147841  0.89799447  0.37304025  1
  Hf  Hf31  1  0.50399624  0.69973108  0.62360493  1
  Hf  Hf32  1  0.09772792  0.88333844  0.11917311  1
  Hf  Hf33  1  0.40109289  0.60090189  0.75690545  1
  Hf  Hf34  1  0.78546818  0.58246994  0.24606173  1
  Hf  Hf35  1  0.52436372  0.29744193  0.10552701  1
  Hf  Hf36  1  0.09649181  0.49781720  0.61841082  1
  Hf  Hf37  1  0.21093771  0.61086567  0.72927466  1
  Hf  Hf38  1  0.09492203  0.92317582  0.62300934  1
  Hf  Hf39  1  0.90595319  0.29511713  0.37818372  1
  Zr  Zr40  1  0.48910751  0.68319619  0.38084593  1
  Zr  Zr41  1  0.90316174  0.69555836  0.14062247  1
  Zr  Zr42  1  0.78399910  0.60070441  0.51273527  1
  Zr  Zr43  1  0.90780855  0.07916568  0.62660649  1
  Zr  Zr44  1  0.70273919  0.89430169  0.62330474  1
  Zr  Zr45  1  0.90598895  0.88052384  0.37399042  1
  Zr  Zr46  1  0.41315227  0.19636548  0.74451198  1
  Zr  Zr47  1  0.40945777  0.41481002  0.24645319  1
  Zr  Zr48  1  0.48617987  0.91565974  0.62469161  1
  Zr  Zr49  1  0.91577239  0.29761566  0.85743321  1
  Zr  Zr50  1  0.79889695  -0.00319396  0.49965736  1
  Zr  Zr51  1  0.69153226  0.89410081  0.12625006  1
  Zr  Zr52  1  0.29121444  0.08098254  0.62396465  1
  Zr  Zr53  1  0.40302666  0.19926279  0.23076741  1
  Zr  Zr54  1  0.68765052  0.10397423  0.64128725  1
  Zr  Zr55  1  0.20927904  0.19898531  0.49417557  1
  Zr  Zr56  1  0.40400031  0.39530214  0.75361981  1
  Zr  Zr57  1  0.90391258  0.49517420  0.87084220  1
  Zr  Zr58  1  0.58526947  0.00717514  0.76626590  1
  Zr  Zr59  1  0.41416748  0.19493982  0.50650604  1
  Zr  Zr60  1  0.91500763  0.29281055  0.63638970  1
  Zr  Zr61  1  0.50098093  0.10807741  0.36465657  1
  Zr  Zr62  1  0.39062999  0.79780477  0.75747103  1
  Zr  Zr63  1  0.00093484  -0.01183103  0.25270106  1
  Zr  Zr64  1  0.69922347  0.11844910  0.10861450  1
  Zr  Zr65  1  0.00073718  0.61255039  0.73677513  1
  Zr  Zr66  1  0.89340591  0.49671359  0.38007428  1
  Zr  Zr67  1  0.49052804  0.88911610  0.11634881  1
  Zr  Zr68  1  0.40202358  0.61398336  -0.01199458  1
  Zr  Zr69  1  0.58968003  0.01034449  0.49203079  1
  Zr  Zr70  1  0.50276653  0.09098123  0.11476468  1
  Zr  Zr71  1  0.29613171  0.71716540  0.13003517  1
  Zr  Zr72  1  0.79335815  0.01181956  0.24506685  1
  Zr  Zr73  1  0.09944530  0.50166517  0.86452607  1
  Zr  Zr74  1  0.49759634  0.70194057  0.12620284  1
  Zr  Zr75  1  0.19659953  0.20882434  0.23543703  1
  Zr  Zr76  1  0.20688013  0.39495024  0.74108342  1
  Zr  Zr77  1  0.18786359  0.81146042  0.74253325  1
  Zr  Zr78  1  0.38106038  0.00002522  0.77061595  1
  Zr  Zr79  1  0.60196614  0.80511722  0.76651354  1
  Ta  Ta80  1  0.89476202  0.69364731  0.37145179  1
  Ta  Ta81  1  0.59450586  0.79565796  -0.01938762  1
  Ta  Ta82  1  0.11332281  0.29210052  0.61859405  1
  Ta  Ta83  1  0.59027547  0.59359477  0.25356857  1
  Ta  Ta84  1  0.29578153  0.89998850  0.11270955  1
  Ta  Ta85  1  0.50788356  0.30880465  0.89398193  1
  Ta  Ta86  1  0.72201337  0.32813086  0.10652914  1
  Ta  Ta87  1  0.71640609  0.29806475  0.37659247  1
  Ta  Ta88  1  0.10562650  0.09721467  0.88991482  1
  Ta  Ta89  1  0.79186704  0.79204238  0.00666051  1
  Ta  Ta90  1  0.68372203  0.49814205  0.38162728  1
  Ta  Ta91  1  0.61024223  0.60861886  -0.01204480  1
  Ta  Ta92  1  0.00651578  0.19079679  0.50156171  1
  Ta  Ta93  1  0.30905297  0.28932086  0.88753529  1
  Ta  Ta94  1  0.18618447  0.40316411  0.00851461  1
  Ta  Ta95  1  -0.01211508  0.79065024  0.00633288  1
  Ta  Ta96  1  0.71883524  0.70912344  0.87039727  1
  Ta  Ta97  1  0.38600915  0.00595791  -0.00539690  1
  Ta  Ta98  1  0.79796459  0.19981050  0.50924279  1
  Ta  Ta99  1  0.10479572  0.30447738  0.37981962  1
  Ta  Ta100  1  0.80476814  0.40762430  0.73132194  1
  Ta  Ta101  1  0.01170913  -0.00689235  0.48437551  1
  Ta  Ta102  1  0.88695032  0.88187310  0.87920658  1
  Ta  Ta103  1  0.08748682  0.70775082  0.37146025  1
  Ta  Ta104  1  0.90512128  0.10055114  0.12318829  1
  Ta  Ta105  1  0.80062443  -0.01801941  0.75895735  1
  Ta  Ta106  1  0.30361581  0.51472414  0.37932412  1
  Ta  Ta107  1  0.91642442  0.08396074  0.87658903  1
  Ta  Ta108  1  -0.00283155  0.19801026  0.24394293  1
  Ta  Ta109  1  0.09507339  0.10810638  0.36707959  1
  Ta  Ta110  1  0.59363420  0.79058271  0.26046453  1
  Ta  Ta111  1  0.40350240  0.40341640  0.49740398  1
  Ta  Ta112  1  0.38333531  -0.00568864  0.48632295  1
  Ta  Ta113  1  0.10869317  0.68763051  0.13735643  1
  Ta  Ta114  1  0.20231476  0.61496372  0.50702621  1
  Ta  Ta115  1  0.39325969  -0.01151140  0.24923976  1
  Ta  Ta116  1  0.10586163  0.50842788  0.38600883  1
  Ta  Ta117  1  0.21002797  0.40987369  0.49968350  1
  Ta  Ta118  1  0.89157365  0.47990597  0.12451988  1
  Ta  Ta119  1  0.00847209  0.39685206  0.50103524  1
  Ti  Ti120  1  0.29721360  0.31981649  0.12854928  1
  Ti  Ti121  1  0.59823840  -0.00948393  -0.01530478  1
  Ti  Ti122  1  0.48708470  0.89102899  0.37113142  1
  Ti  Ti123  1  0.09501418  0.49272601  0.12927331  1
  Ti  Ti124  1  0.39602809  0.39835931  0.00337316  1
  Ti  Ti125  1  0.51254419  0.28913924  0.62563027  1
  Ti  Ti126  1  0.90954640  0.29765207  0.12660503  1
  Ti  Ti127  1  0.19967620  0.41707824  0.25441514  1
  Ti  Ti128  1  0.18469152  0.01369923  0.75937031  1
  Ti  Ti129  1  0.61392529  0.20153551  0.50014667  1
  Ti  Ti130  1  0.00537368  0.59295412  0.25497933  1
  Ti  Ti131  1  0.39325076  0.60603801  0.25282811  1
  Ti  Ti132  1  0.68791139  0.69641699  0.12894755  1
  Ti  Ti133  1  0.89998809  0.89593927  0.12814068  1
  Ti  Ti134  1  0.21785339  0.19687212  0.75092744  1
  Ti  Ti135  1  0.90187248  0.87638780  0.61800337  1
  Ti  Ti136  1  0.19124132  0.00647155  0.01199918  1
  Ti  Ti137  1  0.28386334  0.70955914  0.36124241  1
  Ti  Ti138  1  0.39257113  0.20142176  0.01692391  1
  Ti  Ti139  1  -0.00561168  -0.01728063  0.75505808  1
  Ti  Ti140  1  0.31007495  0.30822758  0.61905888  1
  Ti  Ti141  1  0.30043850  0.10095629  0.36542822  1
  Ti  Ti142  1  0.08397227  0.71794773  0.61658338  1
  Ti  Ti143  1  0.01226628  0.19956939  0.00825654  1
  Ti  Ti144  1  0.80810881  0.18800425  0.75358782  1
  Ti  Ti145  1  0.59919336  0.39843234  0.74888445  1
  Ti  Ti146  1  0.50578049  0.49829396  0.88218969  1
  Ti  Ti147  1  -0.00622994  0.60722833  0.50389803  1
  Ti  Ti148  1  0.39180808  0.59458505  0.50800336  1
  Ti  Ti149  1  0.70147302  0.69319990  0.37316819  1
  Ti  Ti150  1  0.90878198  0.69997686  0.87398862  1
  Ti  Ti151  1  0.70099073  0.70648773  0.62824008  1
  Ti  Ti152  1  0.69944908  0.29511785  0.64290306  1
  Ti  Ti153  1  0.28499254  0.70017315  0.88466432  1
  Ti  Ti154  1  0.09858851  0.70604719  0.87663658  1
  Ti  Ti155  1  0.19720105  0.00450601  0.48004663  1
  Ti  Ti156  1  0.62727866  0.20395401  0.24793308  1
  Ti  Ti157  1  0.79469037  0.79474046  0.24738532  1
  Ti  Ti158  1  0.09274867  0.09480130  0.12635553  1
  Ti  Ti159  1  0.59986402  0.60301476  0.75858567  1
  Mo  Mo160  1  0.39383678  0.80667218  0.25800712  1
  Mo  Mo161  1  0.10470597  0.89683068  0.37004718  1
  Mo  Mo162  1  0.80305478  0.39154490  0.25006696  1
  Mo  Mo163  1  0.50668779  0.69288783  0.87134742  1
  Mo  Mo164  1  0.18525883  0.78354165  -0.00041172  1
  Mo  Mo165  1  0.80301191  0.21694217  0.23998886  1
  Mo  Mo166  1  0.70259405  0.89930200  0.88192649  1
  Mo  Mo167  1  0.50097665  0.10347045  0.61795100  1
  Mo  Mo168  1  0.81088053  0.79903099  0.74947560  1
  Mo  Mo169  1  -0.00209398  0.78617121  0.24638574  1
  Mo  Mo170  1  0.69090748  0.50100106  0.64186504  1
  Mo  Mo171  1  0.90522286  0.50027888  0.61832638  1
  Mo  Mo172  1  0.19133253  0.80227579  0.25779818  1
  Mo  Mo173  1  0.59351349  0.59547427  0.50286376  1
  Mo  Mo174  1  0.00678348  0.39487654  0.73577358  1
  Mo  Mo175  1  0.19312420  0.59639036  0.26121015  1
  Mo  Mo176  1  0.39557169  0.80561874  -0.01613428  1
  Mo  Mo177  1  0.81529540  0.40449120  -0.00627177  1
  Mo  Mo178  1  0.59793280  0.21437770  0.75601580  1
  Mo  Mo179  1  0.30268391  0.50050997  0.61175978  1
  Mo  Mo180  1  0.69958163  0.50815644  0.11658618  1
  Mo  Mo181  1  0.30039809  0.89967175  0.36948435  1
  Mo  Mo182  1  0.29233599  0.90468555  0.62259877  1
  Mo  Mo183  1  0.19103091  0.60220873  -0.00094416  1
  Mo  Mo184  1  0.80099381  0.78882934  0.49432423  1
  Mo  Mo185  1  0.09935335  0.10185407  0.61869478  1
  Mo  Mo186  1  0.29556566  0.70278004  0.61989013  1
  Mo  Mo187  1  0.49602346  0.49924065  0.38100755  1
  Mo  Mo188  1  0.61063253  0.20485419  -0.00358193  1
  Mo  Mo189  1  0.00016205  0.38750806  0.00884054  1
  Mo  Mo190  1  0.09550908  0.30733487  0.12580617  1
  Mo  Mo191  1  0.48971018  0.90119232  0.89163872  1
  Mo  Mo192  1  -0.01201007  0.80397938  0.75036702  1
  Mo  Mo193  1  0.30086730  0.08573295  0.12663586  1
  Mo  Mo194  1  -0.00194451  0.79519022  0.49745329  1
  Mo  Mo195  1  0.70196576  0.11745482  0.37517101  1
  Mo  Mo196  1  0.28525129  0.10976535  0.88413339  1
  Mo  Mo197  1  0.89730137  0.70794895  0.61219868  1
  Mo  Mo198  1  -0.00542402  0.00238449  0.00896836  1
  Mo  Mo199  1  0.60863718  0.41249683  -0.00920445  1
