# generated using pymatgen
data_HfZrTaTiMo
_symmetry_space_group_name_H-M   'P 1'
_cell_length_a   15.20006757
_cell_length_b   15.20694472
_cell_length_c   16.85165642
_cell_angle_alpha   89.95939565
_cell_angle_beta   89.98614345
_cell_angle_gamma   89.93367078
_symmetry_Int_Tables_number   1
_chemical_formula_structural   HfZrTaTiMo
_chemical_formula_sum   'Hf40 Zr40 Ta40 Ti40 Mo40'
_cell_volume   3895.19916932
_cell_formula_units_Z   40
loop_
 _symmetry_equiv_pos_site_id
 _symmetry_equiv_pos_as_xyz
  1  'x, y, z'
loop_
 _atom_site_type_symbol
 _atom_site_label
 _atom_site_symmetry_multiplicity
 _atom_site_fract_x
 _atom_site_fract_y
 _atom_site_fract_z
 _atom_site_occupancy
  Hf  Hf0  1  0.20218550  0.80538982  0.75924507  1
  Hf  Hf1  1  0.09849099  0.91281677  0.62181665  1
  Hf  Hf2  1  0.09814179  0.70995184  0.61828774  1
  Hf  Hf3  1  0.69605706  0.89301593  0.87041084  1
  Hf  Hf4  1  0.59468565  0.39301082  0.50505564  1
  Hf  Hf5  1  0.90111605  0.50369908  0.11426482  1
  Hf  Hf6  1  0.79046539  0.59901594  -0.00486407  1
  Hf  Hf7  1  0.79890227  0.79779700  -0.00199940  1
  Hf  Hf8  1  0.12388081  0.29883322  0.88371799  1
  Hf  Hf9  1  0.31347803  0.70443390  0.62097133  1
  Hf  Hf10  1  0.01137130  0.39943901  0.75064001  1
  Hf  Hf11  1  0.10519065  0.71248703  0.38624272  1
  Hf  Hf12  1  0.89388239  0.49965838  0.37484126  1
  Hf  Hf13  1  0.41334375  0.20134980  0.49338712  1
  Hf  Hf14  1  0.50587842  0.30371112  0.63804566  1
  Hf  Hf15  1  0.80310617  0.59464789  0.24651905  1
  Hf  Hf16  1  0.37798111  -0.00065429  0.49186431  1
  Hf  Hf17  1  0.40013496  0.42696298  0.75014959  1
  Hf  Hf18  1  0.91046073  0.29842512  0.37306882  1
  Hf  Hf19  1  0.80992231  0.18712093  0.25614420  1
  Hf  Hf20  1  0.11088170  0.30434137  0.36680434  1
  Hf  Hf21  1  0.59301119  -0.01681450  0.73646979  1
  Hf  Hf22  1  0.69350331  0.69549783  0.13580170  1
  Hf  Hf23  1  0.31279540  0.69256793  0.87413619  1
  Hf  Hf24  1  0.59078290  0.40055954  -0.00292838  1
  Hf  Hf25  1  0.00809056  0.19756827  0.23782661  1
  Hf  Hf26  1  0.30020858  0.30201004  0.36057429  1
  Hf  Hf27  1  0.30267811  0.10254942  0.35530474  1
  Hf  Hf28  1  0.01488431  0.19856408  0.50899614  1
  Hf  Hf29  1  0.60415938  0.19106760  0.75508134  1
  Hf  Hf30  1  0.49713386  0.09168390  0.13631627  1
  Hf  Hf31  1  0.79441297  0.41297289  0.51011090  1
  Hf  Hf32  1  0.80417285  0.18671540  0.49126980  1
  Hf  Hf33  1  0.38844533  0.40105052  0.00833550  1
  Hf  Hf34  1  0.01166541  0.19098651  0.74978525  1
  Hf  Hf35  1  0.38950425  0.40411335  0.50127765  1
  Hf  Hf36  1  0.70248037  0.89624440  0.13941976  1
  Hf  Hf37  1  0.49482786  0.08697036  0.87965947  1
  Hf  Hf38  1  0.09830195  0.92489603  0.11225869  1
  Hf  Hf39  1  0.90515437  0.71104120  0.12365597  1
  Zr  Zr40  1  0.50683152  0.48786659  0.37618493  1
  Zr  Zr41  1  0.70267675  0.09236823  0.88125056  1
  Zr  Zr42  1  0.19123737  0.60901331  0.24736689  1
  Zr  Zr43  1  0.40386034  0.60302792  0.48659117  1
  Zr  Zr44  1  0.56725968  0.60491527  0.75643234  1
  Zr  Zr45  1  0.67780580  0.49251896  0.86285116  1
  Zr  Zr46  1  0.19906959  0.01138285  0.75248379  1
  Zr  Zr47  1  0.00035777  0.60851111  0.74934355  1
  Zr  Zr48  1  0.11124389  0.71095589  0.11117721  1
  Zr  Zr49  1  0.80488041  -0.01006291  0.00372132  1
  Zr  Zr50  1  0.79689810  0.38364137  -0.00552500  1
  Zr  Zr51  1  0.90191177  0.70484086  0.37423905  1
  Zr  Zr52  1  0.00856963  0.81493441  0.25045024  1
  Zr  Zr53  1  0.51252900  0.30344782  0.13304501  1
  Zr  Zr54  1  0.79510288  -0.02206733  0.50385764  1
  Zr  Zr55  1  0.10618805  0.08904363  0.90167690  1
  Zr  Zr56  1  0.59146239  0.79662357  0.00832711  1
  Zr  Zr57  1  0.10774687  0.09438993  0.37608567  1
  Zr  Zr58  1  0.40843669  0.41075175  0.24114147  1
  Zr  Zr59  1  0.29048623  0.51124195  0.12637982  1
  Zr  Zr60  1  0.90415775  0.29411848  0.62957358  1
  Zr  Zr61  1  0.70032442  0.28786585  0.62654536  1
  Zr  Zr62  1  0.91582030  0.08415226  0.11465127  1
  Zr  Zr63  1  0.00494481  0.39927007  -0.00183430  1
  Zr  Zr64  1  0.79644206  -0.00422806  0.73816295  1
  Zr  Zr65  1  0.00082421  0.40583343  0.51350318  1
  Zr  Zr66  1  0.79860396  0.39615570  0.75139199  1
  Zr  Zr67  1  0.49469930  0.30845846  0.86646075  1
  Zr  Zr68  1  0.59022567  -0.01143799  0.49545268  1
  Zr  Zr69  1  0.60949082  0.19687611  0.25381631  1
  Zr  Zr70  1  0.30492569  0.29104824  0.62978228  1
  Zr  Zr71  1  0.90069001  0.50829760  0.87415044  1
  Zr  Zr72  1  0.48966052  0.09926111  0.62378786  1
  Zr  Zr73  1  0.59679535  0.58278979  0.25480200  1
  Zr  Zr74  1  0.69780076  0.31010098  0.37558706  1
  Zr  Zr75  1  0.52056096  0.70875561  0.61006435  1
  Zr  Zr76  1  0.40295768  0.19631323  0.00868278  1
  Zr  Zr77  1  0.20651545  0.59380720  0.74535849  1
  Zr  Zr78  1  0.09390374  0.50276799  0.37811767  1
  Zr  Zr79  1  0.38709855  0.81400444  0.00994708  1
  Ta  Ta80  1  0.20714411  0.81667877  0.49854470  1
  Ta  Ta81  1  0.58515825  0.60019099  -0.00072839  1
  Ta  Ta82  1  0.61713216  0.59695043  0.49304355  1
  Ta  Ta83  1  0.79801904  0.39598573  0.24156442  1
  Ta  Ta84  1  0.27659404  0.90390859  0.35539649  1
  Ta  Ta85  1  0.51107375  0.71135058  0.37245659  1
  Ta  Ta86  1  0.28634561  0.49840206  0.36777086  1
  Ta  Ta87  1  -0.00230433  0.00170894  0.49578595  1
  Ta  Ta88  1  -0.00203733  0.80736221  0.75528742  1
  Ta  Ta89  1  0.49692027  0.89371320  0.87485243  1
  Ta  Ta90  1  0.49230652  0.89580250  0.15185907  1
  Ta  Ta91  1  0.69010123  0.48816122  0.12105795  1
  Ta  Ta92  1  0.20391898  0.59503387  0.50430145  1
  Ta  Ta93  1  0.00272313  0.40552970  0.23638151  1
  Ta  Ta94  1  0.70314411  0.28856463  0.87175919  1
  Ta  Ta95  1  0.49210435  0.89112017  0.61941794  1
  Ta  Ta96  1  0.29388453  0.48861816  0.88473178  1
  Ta  Ta97  1  0.81104949  -0.00882130  0.25366530  1
  Ta  Ta98  1  -0.01202865  0.80857334  0.50209980  1
  Ta  Ta99  1  0.70553567  0.69978925  0.37000760  1
  Ta  Ta100  1  0.30408858  0.90278511  0.62722612  1
  Ta  Ta101  1  0.58753327  -0.00669252  0.01120181  1
  Ta  Ta102  1  0.69015292  0.70153846  0.86849494  1
  Ta  Ta103  1  0.61151609  0.19614324  0.00050856  1
  Ta  Ta104  1  0.39468488  0.60993488  0.25854739  1
  Ta  Ta105  1  0.70495309  0.09896730  0.11983032  1
  Ta  Ta106  1  0.40507010  0.81176689  0.48424319  1
  Ta  Ta107  1  0.20338477  0.39604063  0.74337435  1
  Ta  Ta108  1  0.19813889  0.39370822  0.51144397  1
  Ta  Ta109  1  0.89757670  0.89116158  0.63021520  1
  Ta  Ta110  1  0.30016154  0.70835766  0.37523105  1
  Ta  Ta111  1  0.90320290  0.09984122  0.88432190  1
  Ta  Ta112  1  0.10794944  0.50672990  0.88559356  1
  Ta  Ta113  1  0.48708824  0.70036797  0.14076416  1
  Ta  Ta114  1  0.41545030  0.79897995  0.75328228  1
  Ta  Ta115  1  0.80039502  0.61002662  0.50784709  1
  Ta  Ta116  1  0.30078051  0.11185832  0.88401297  1
  Ta  Ta117  1  0.89214978  0.51548169  0.63392583  1
  Ta  Ta118  1  -0.00028898  -0.00162197  0.75736592  1
  Ta  Ta119  1  0.49087549  0.90163238  0.35501464  1
  Ti  Ti120  1  0.00014561  0.20010890  0.00670297  1
  Ti  Ti121  1  0.78941148  0.61313361  0.75000770  1
  Ti  Ti122  1  0.21189180  0.20829684  0.01454728  1
  Ti  Ti123  1  0.39325831  -0.00063094  0.74735361  1
  Ti  Ti124  1  0.70957567  0.29186961  0.12252028  1
  Ti  Ti125  1  0.89503485  0.70686073  0.87229456  1
  Ti  Ti126  1  0.38943146  0.19373052  0.75614712  1
  Ti  Ti127  1  0.10394899  0.50018038  0.62338682  1
  Ti  Ti128  1  0.80875055  0.18813165  0.75099424  1
  Ti  Ti129  1  -0.00432018  0.80928861  -0.00943653  1
  Ti  Ti130  1  0.20328894  0.60639719  -0.00067172  1
  Ti  Ti131  1  0.29741067  0.29930229  0.14187166  1
  Ti  Ti132  1  0.09657465  0.50558840  0.11070637  1
  Ti  Ti133  1  0.69442163  0.09538940  0.61276704  1
  Ti  Ti134  1  -0.00430269  0.60423673  0.51100501  1
  Ti  Ti135  1  0.49960324  0.29035172  0.36173674  1
  Ti  Ti136  1  0.00137058  0.60182791  0.24545172  1
  Ti  Ti137  1  0.29570755  0.08526809  0.13181113  1
  Ti  Ti138  1  0.30318638  0.91636729  0.87698385  1
  Ti  Ti139  1  0.29474367  0.89781119  0.14702992  1
  Ti  Ti140  1  0.10859281  0.30936656  0.12138054  1
  Ti  Ti141  1  0.40056442  0.60817658  0.01041904  1
  Ti  Ti142  1  0.90323980  0.90209521  0.86742086  1
  Ti  Ti143  1  0.60834674  -0.00170995  0.25533864  1
  Ti  Ti144  1  0.90265244  0.28766923  0.87568441  1
  Ti  Ti145  1  0.88766519  0.71004965  0.62864400  1
  Ti  Ti146  1  0.50012055  0.09902360  0.36250161  1
  Ti  Ti147  1  0.69614117  0.88321567  0.36483881  1
  Ti  Ti148  1  0.19633989  0.81415878  -0.01384865  1
  Ti  Ti149  1  0.90669698  0.08887734  0.62494787  1
  Ti  Ti150  1  0.00340449  0.00562802  0.25919654  1
  Ti  Ti151  1  0.09421380  0.70211820  0.88269580  1
  Ti  Ti152  1  0.70287861  0.08778873  0.37871227  1
  Ti  Ti153  1  0.20210636  0.19889923  0.74380324  1
  Ti  Ti154  1  0.19700376  0.19217308  0.23212704  1
  Ti  Ti155  1  0.90021541  0.29635838  0.12210868  1
  Ti  Ti156  1  0.89633663  0.90258234  0.37654309  1
  Ti  Ti157  1  0.68719838  0.50643491  0.63812375  1
  Ti  Ti158  1  0.49169645  0.50985999  0.61879140  1
  Ti  Ti159  1  0.21016438  0.18634479  0.51250902  1
  Mo  Mo160  1  0.60467891  0.79868827  0.74998765  1
  Mo  Mo161  1  0.47387210  0.52067128  0.88780737  1
  Mo  Mo162  1  0.38952561  0.61038728  0.74815769  1
  Mo  Mo163  1  0.29723526  0.50375039  0.61818710  1
  Mo  Mo164  1  0.60016464  0.79713239  0.25436276  1
  Mo  Mo165  1  0.70876918  0.69184571  0.62967585  1
  Mo  Mo166  1  0.19813028  0.00287197  0.50330264  1
  Mo  Mo167  1  0.39707816  0.19930776  0.24198166  1
  Mo  Mo168  1  0.61626193  0.39795216  0.24247386  1
  Mo  Mo169  1  0.19655214  0.80615664  0.25029330  1
  Mo  Mo170  1  0.80179576  0.80481613  0.25377409  1
  Mo  Mo171  1  0.60106833  0.19050626  0.48504400  1
  Mo  Mo172  1  0.09756401  0.10195883  0.62338074  1
  Mo  Mo173  1  0.18941407  0.39890857  0.24032320  1
  Mo  Mo174  1  0.39528378  0.00117475  0.25321928  1
  Mo  Mo175  1  0.00468561  -0.01227354  -0.01326563  1
  Mo  Mo176  1  0.39239981  0.79611015  0.25845911  1
  Mo  Mo177  1  0.50186660  0.51234590  0.12067437  1
  Mo  Mo178  1  0.71030796  0.50522547  0.37913269  1
  Mo  Mo179  1  0.59683415  0.40307684  0.74454185  1
  Mo  Mo180  1  0.11186655  0.11255549  0.10644044  1
  Mo  Mo181  1  0.09841470  0.89419038  0.87850703  1
  Mo  Mo182  1  0.69159745  0.86549094  0.62528973  1
  Mo  Mo183  1  0.49788878  0.70822372  0.88349315  1
  Mo  Mo184  1  0.30171500  0.71261667  0.12958679  1
  Mo  Mo185  1  0.61023124  0.79882356  0.48874650  1
  Mo  Mo186  1  0.18538441  0.00173110  0.24316085  1
  Mo  Mo187  1  0.22664191  -0.00527514  0.00148462  1
  Mo  Mo188  1  0.90291306  0.89636114  0.12986186  1
  Mo  Mo189  1  0.10886597  0.29889348  0.62913602  1
  Mo  Mo190  1  0.40014781  -0.00589035  0.00743030  1
  Mo  Mo191  1  0.20262237  0.40162183  0.00457482  1
  Mo  Mo192  1  0.89974973  0.09149166  0.37529481  1
  Mo  Mo193  1  0.79446274  0.79505252  0.50003710  1
  Mo  Mo194  1  0.00480177  0.61523558  -0.01147664  1
  Mo  Mo195  1  0.29850156  0.29566287  0.86678939  1
  Mo  Mo196  1  0.29619480  0.09281068  0.62726221  1
  Mo  Mo197  1  0.80512784  0.19900947  0.00042066  1
  Mo  Mo198  1  0.80554315  0.79363248  0.75639916  1
  Mo  Mo199  1  0.09071426  0.90164361  0.38614906  1
