# generated using pymatgen
data_HfZrTaTiMo
_symmetry_space_group_name_H-M   'P 1'
_cell_length_a   15.21429010
_cell_length_b   15.21039034
_cell_length_c   16.83613333
_cell_angle_alpha   90.02719432
_cell_angle_beta   90.02293034
_cell_angle_gamma   89.88990855
_symmetry_Int_Tables_number   1
_chemical_formula_structural   HfZrTaTiMo
_chemical_formula_sum   'Hf40 Zr40 Ta40 Ti40 Mo40'
_cell_volume   3896.13075185
_cell_formula_units_Z   40
loop_
 _symmetry_equiv_pos_site_id
 _symmetry_equiv_pos_as_xyz
  1  'x, y, z'
loop_
 _atom_site_type_symbol
 _atom_site_label
 _atom_site_symmetry_multiplicity
 _atom_site_fract_x
 _atom_site_fract_y
 _atom_site_fract_z
 _atom_site_occupancy
  Hf  Hf0  1  0.39082673  0.40897603  0.51343348  1
  Hf  Hf1  1  0.40757146  0.19953856  0.74211017  1
  Hf  Hf2  1  0.30453028  0.08326032  0.62150355  1
  Hf  Hf3  1  0.69741249  0.51710294  0.87200144  1
  Hf  Hf4  1  0.80948509  0.61953164  0.00483941  1
  Hf  Hf5  1  0.21835651  0.80165890  0.77678500  1
  Hf  Hf6  1  0.49956852  0.90892949  0.37669185  1
  Hf  Hf7  1  0.00629553  0.20550460  0.74743522  1
  Hf  Hf8  1  0.31680168  0.10158916  0.88218047  1
  Hf  Hf9  1  0.68152821  0.28667373  0.37964845  1
  Hf  Hf10  1  0.00940043  0.59380904  0.25603262  1
  Hf  Hf11  1  0.18898501  0.38787729  0.74704306  1
  Hf  Hf12  1  0.79459302  0.18904945  0.51312621  1
  Hf  Hf13  1  0.48476203  0.91181330  0.61159675  1
  Hf  Hf14  1  0.31742961  0.08291621  0.37069736  1
  Hf  Hf15  1  0.69092529  0.49692009  0.38196795  1
  Hf  Hf16  1  0.89836028  0.10550591  0.87563899  1
  Hf  Hf17  1  0.10291475  0.71311513  0.64519047  1
  Hf  Hf18  1  0.89405835  0.49982183  0.62237842  1
  Hf  Hf19  1  0.29681375  0.30287491  0.36546271  1
  Hf  Hf20  1  -0.00344199  0.20311654  0.24952667  1
  Hf  Hf21  1  0.89214749  0.30986039  0.12199090  1
  Hf  Hf22  1  0.70089082  0.71625014  0.13547630  1
  Hf  Hf23  1  0.59461757  0.40246016  0.74258035  1
  Hf  Hf24  1  0.80554435  0.61451929  0.25900661  1
  Hf  Hf25  1  0.80792020  -0.00473000  0.51749651  1
  Hf  Hf26  1  0.89468841  0.89949993  0.87054890  1
  Hf  Hf27  1  0.79013284  0.00772822  0.74130211  1
  Hf  Hf28  1  0.90405988  0.69873073  0.63186206  1
  Hf  Hf29  1  0.38894687  0.40830991  0.73240790  1
  Hf  Hf30  1  0.00805325  0.20130224  0.50201491  1
  Hf  Hf31  1  0.30052440  0.50070352  0.88004820  1
  Hf  Hf32  1  0.29116560  0.30680470  0.12839435  1
  Hf  Hf33  1  0.19792472  0.18779808  0.24453379  1
  Hf  Hf34  1  0.29266817  0.29839514  0.88306604  1
  Hf  Hf35  1  0.49330596  0.48963653  0.37066105  1
  Hf  Hf36  1  0.10150160  0.91607893  0.64553145  1
  Hf  Hf37  1  0.00066207  0.40407475  0.50228752  1
  Hf  Hf38  1  0.39238256  0.60207602  0.24634391  1
  Hf  Hf39  1  0.90713176  0.90722546  0.36553299  1
  Zr  Zr40  1  0.10983048  0.08510268  0.37003605  1
  Zr  Zr41  1  0.61162424  0.19319283  0.75167809  1
  Zr  Zr42  1  0.40495551  0.19196363  0.01989733  1
  Zr  Zr43  1  0.70323995  0.29405821  0.88061887  1
  Zr  Zr44  1  0.37728414  0.80807904  0.48176818  1
  Zr  Zr45  1  0.20895299  -0.00468203  -0.00515873  1
  Zr  Zr46  1  0.09335877  0.69647984  0.87886946  1
  Zr  Zr47  1  0.08749734  0.30201645  0.12541231  1
  Zr  Zr48  1  0.08586196  0.90128367  0.88239045  1
  Zr  Zr49  1  0.59394376  0.39757165  0.01235919  1
  Zr  Zr50  1  0.80075682  0.80613415  0.49943499  1
  Zr  Zr51  1  0.31101475  0.88519611  0.13274847  1
  Zr  Zr52  1  0.79976468  0.41078622  -0.00195611  1
  Zr  Zr53  1  -0.00076099  0.79418620  0.23921319  1
  Zr  Zr54  1  0.20703432  0.60011260  0.50596622  1
  Zr  Zr55  1  0.89876694  0.09686224  0.36908335  1
  Zr  Zr56  1  0.69382001  0.49283485  0.61195131  1
  Zr  Zr57  1  0.49426201  0.29100583  0.88243355  1
  Zr  Zr58  1  0.59594687  -0.00566669  0.01099665  1
  Zr  Zr59  1  0.52083511  0.10563582  0.61017503  1
  Zr  Zr60  1  0.59543407  0.61002908  0.01178816  1
  Zr  Zr61  1  0.01259888  -0.00166606  0.50697578  1
  Zr  Zr62  1  0.20703196  0.00481166  0.76719597  1
  Zr  Zr63  1  0.78350475  0.19784179  0.24191920  1
  Zr  Zr64  1  0.01255008  0.60830669  0.49569646  1
  Zr  Zr65  1  0.40400758  0.20866778  0.50089641  1
  Zr  Zr66  1  0.21783652  0.59633403  0.75255732  1
  Zr  Zr67  1  0.59641206  0.60343961  0.24853038  1
  Zr  Zr68  1  0.50631331  0.71935986  0.61196110  1
  Zr  Zr69  1  0.77684943  0.79445230  0.74495990  1
  Zr  Zr70  1  0.89390350  0.30141376  0.37609738  1
  Zr  Zr71  1  0.79931561  0.40814061  0.25021270  1
  Zr  Zr72  1  0.10686289  0.88700954  0.10904231  1
  Zr  Zr73  1  0.08386263  0.49898775  0.87000069  1
  Zr  Zr74  1  0.41643647  0.19718825  0.23635770  1
  Zr  Zr75  1  0.60969984  -0.00247170  0.24560287  1
  Zr  Zr76  1  0.69100868  0.68923049  0.60907104  1
  Zr  Zr77  1  0.89621532  0.68924621  0.86059051  1
  Zr  Zr78  1  0.49315258  0.51083930  0.87034452  1
  Zr  Zr79  1  0.19370158  0.39334052  0.50352524  1
  Ta  Ta80  1  0.40961930  0.79929875  0.75998398  1
  Ta  Ta81  1  0.51867827  0.11104026  0.37848394  1
  Ta  Ta82  1  0.59355165  -0.00615855  0.75496066  1
  Ta  Ta83  1  0.39584582  0.60701151  0.00973486  1
  Ta  Ta84  1  0.79785487  0.39194098  0.75192842  1
  Ta  Ta85  1  0.29284514  0.69710699  0.12117467  1
  Ta  Ta86  1  0.21378752  -0.01663322  0.49789548  1
  Ta  Ta87  1  0.70464057  0.09854856  0.12181572  1
  Ta  Ta88  1  0.19957412  0.60752101  0.24562273  1
  Ta  Ta89  1  0.59439805  0.38253246  0.23307777  1
  Ta  Ta90  1  0.69456418  0.89227119  0.87844803  1
  Ta  Ta91  1  0.49660122  0.52637608  0.62625050  1
  Ta  Ta92  1  -0.00468698  0.41097544  -0.00521099  1
  Ta  Ta93  1  0.10132977  0.50342695  0.11699507  1
  Ta  Ta94  1  0.50422619  0.69936817  0.38393471  1
  Ta  Ta95  1  0.90567331  0.70650181  0.37931401  1
  Ta  Ta96  1  0.01207354  0.00097211  0.22969574  1
  Ta  Ta97  1  0.20106698  0.19529349  0.74879273  1
  Ta  Ta98  1  0.80419783  0.59851329  0.48476489  1
  Ta  Ta99  1  0.00563314  0.80815018  0.50048188  1
  Ta  Ta100  1  0.69381392  0.09134075  0.88685742  1
  Ta  Ta101  1  0.31403733  0.69629373  0.62995438  1
  Ta  Ta102  1  0.18910380  0.80117988  0.50342898  1
  Ta  Ta103  1  0.67733203  0.89949769  0.62156045  1
  Ta  Ta104  1  -0.00328005  0.01266703  0.01227886  1
  Ta  Ta105  1  0.39878368  0.60078399  0.49248284  1
  Ta  Ta106  1  0.41047631  -0.01067806  0.01257705  1
  Ta  Ta107  1  0.09474773  0.10971132  0.88243316  1
  Ta  Ta108  1  0.18699940  0.19363388  0.00960104  1
  Ta  Ta109  1  0.09484917  0.50443362  0.63876546  1
  Ta  Ta110  1  0.70548243  0.50189790  0.13011618  1
  Ta  Ta111  1  0.28844336  0.50366764  0.36954830  1
  Ta  Ta112  1  0.79946841  0.19441333  0.00660444  1
  Ta  Ta113  1  0.41985652  0.79461094  -0.00309936  1
  Ta  Ta114  1  0.11607904  0.71298223  0.37065899  1
  Ta  Ta115  1  0.39284627  0.40883361  0.01635798  1
  Ta  Ta116  1  0.90841384  0.49972907  0.37703272  1
  Ta  Ta117  1  0.29789963  0.88630263  0.63123790  1
  Ta  Ta118  1  0.22609720  0.78619841  -0.01822334  1
  Ta  Ta119  1  0.19459646  0.40035870  0.00149263  1
  Ti  Ti120  1  0.92093195  0.09536690  0.63631092  1
  Ti  Ti121  1  0.58328699  0.38769289  0.50906818  1
  Ti  Ti122  1  0.18995317  0.41687955  0.24629108  1
  Ti  Ti123  1  0.29310121  0.29071710  0.62362278  1
  Ti  Ti124  1  0.40864119  -0.00554696  0.23654870  1
  Ti  Ti125  1  0.89479090  0.30183778  0.62463924  1
  Ti  Ti126  1  0.27411874  0.88824492  0.35099436  1
  Ti  Ti127  1  0.70804523  0.08542068  0.37007314  1
  Ti  Ti128  1  0.80269949  0.20186435  0.74076317  1
  Ti  Ti129  1  0.78733729  0.81616811  0.26318773  1
  Ti  Ti130  1  0.09529775  0.31780204  0.36241308  1
  Ti  Ti131  1  0.19970339  0.59519148  -0.00160158  1
  Ti  Ti132  1  0.60747405  0.79888376  0.00225715  1
  Ti  Ti133  1  0.09248494  0.29450725  0.88486925  1
  Ti  Ti134  1  -0.02890092  0.78642547  0.00847216  1
  Ti  Ti135  1  0.88979745  0.89678654  0.12627529  1
  Ti  Ti136  1  -0.01475524  0.40308065  0.75116813  1
  Ti  Ti137  1  0.40738601  0.79143946  0.25657656  1
  Ti  Ti138  1  0.69260092  0.71221503  0.38250845  1
  Ti  Ti139  1  0.61370987  0.00251955  0.49190523  1
  Ti  Ti140  1  0.19989173  0.18752703  0.49995508  1
  Ti  Ti141  1  0.80121389  -0.00721462  0.00324425  1
  Ti  Ti142  1  0.29191009  0.08626414  0.12897750  1
  Ti  Ti143  1  0.69009548  0.28903158  0.62008952  1
  Ti  Ti144  1  0.40454514  -0.00532327  0.75896822  1
  Ti  Ti145  1  0.09410963  0.69290174  0.10796662  1
  Ti  Ti146  1  0.09692760  0.29523038  0.62490211  1
  Ti  Ti147  1  0.90848359  0.51530621  0.12694954  1
  Ti  Ti148  1  0.90947838  0.89439626  0.64611322  1
  Ti  Ti149  1  0.90266025  0.10078998  0.12331479  1
  Ti  Ti150  1  0.39433328  0.40444107  0.23727164  1
  Ti  Ti151  1  0.49519167  0.29955566  0.36892104  1
  Ti  Ti152  1  0.52108209  0.70332963  0.86475132  1
  Ti  Ti153  1  0.79644268  0.39435443  0.49643728  1
  Ti  Ti154  1  0.79306439  0.58909102  0.74712623  1
  Ti  Ti155  1  0.90294459  0.30330626  0.87985306  1
  Ti  Ti156  1  0.59863879  0.19438312  0.01677626  1
  Ti  Ti157  1  0.70574328  0.90091734  0.12697570  1
  Ti  Ti158  1  0.50304774  0.90427487  0.87674799  1
  Ti  Ti159  1  0.49492000  0.50443545  0.12921386  1
  Mo  Mo160  1  0.59806672  0.80009230  0.26236151  1
  Mo  Mo161  1  0.51270467  0.87885192  0.13540627  1
  Mo  Mo162  1  0.20000299  0.78683927  0.24220223  1
  Mo  Mo163  1  0.60088581  0.80979577  0.48494674  1
  Mo  Mo164  1  0.49873400  0.30358349  0.12234597  1
  Mo  Mo165  1  0.69508902  0.70706843  0.87660718  1
  Mo  Mo166  1  -0.00472094  0.59406459  0.74138019  1
  Mo  Mo167  1  0.49168657  0.71118848  0.12879240  1
  Mo  Mo168  1  0.50083488  0.08841854  0.12948975  1
  Mo  Mo169  1  0.00181039  0.40934396  0.25080920  1
  Mo  Mo170  1  0.09748762  0.09577197  0.12088159  1
  Mo  Mo171  1  0.60450794  0.19925356  0.49637279  1
  Mo  Mo172  1  0.32731187  0.69150198  0.88140125  1
  Mo  Mo173  1  0.11405757  0.10983896  0.62321819  1
  Mo  Mo174  1  0.59320050  0.59559350  0.48537845  1
  Mo  Mo175  1  0.81213559  -0.00401410  0.23571622  1
  Mo  Mo176  1  0.29854043  0.50647049  0.62656657  1
  Mo  Mo177  1  0.41324775  0.60977109  0.74768242  1
  Mo  Mo178  1  0.39454777  0.00277325  0.49165794  1
  Mo  Mo179  1  0.29102174  0.50375620  0.12121267  1
  Mo  Mo180  1  0.50446248  0.31271095  0.62582451  1
  Mo  Mo181  1  0.10107028  0.89570774  0.36962146  1
  Mo  Mo182  1  0.10556685  0.49973608  0.37082705  1
  Mo  Mo183  1  0.59164797  0.81190540  0.75105948  1
  Mo  Mo184  1  -0.00226739  0.59609783  0.00655062  1
  Mo  Mo185  1  0.20080779  -0.00868936  0.24100712  1
  Mo  Mo186  1  0.70451610  0.90488112  0.37620898  1
  Mo  Mo187  1  0.32245911  0.89706197  0.88488771  1
  Mo  Mo188  1  0.70726437  0.09301405  0.62640078  1
  Mo  Mo189  1  0.50809885  0.09052489  0.87719984  1
  Mo  Mo190  1  -0.00146895  0.01098385  0.75440484  1
  Mo  Mo191  1  0.60602278  0.61571399  0.74843456  1
  Mo  Mo192  1  0.30100332  0.69820824  0.37023226  1
  Mo  Mo193  1  0.59945185  0.19677203  0.24019449  1
  Mo  Mo194  1  0.89291241  0.49253359  0.86434591  1
  Mo  Mo195  1  0.69817280  0.29886220  0.11654551  1
  Mo  Mo196  1  0.79230663  0.81072086  0.00110445  1
  Mo  Mo197  1  -0.00150401  0.80377335  0.75269634  1
  Mo  Mo198  1  0.89999648  0.70648289  0.13095759  1
  Mo  Mo199  1  -0.00775519  0.20366012  -0.00126168  1
