# generated using pymatgen
data_HfZrTaTiMo
_symmetry_space_group_name_H-M   'P 1'
_cell_length_a   15.20014820
_cell_length_b   15.21700489
_cell_length_c   16.84427401
_cell_angle_alpha   90.00197565
_cell_angle_beta   89.95616527
_cell_angle_gamma   89.89270321
_symmetry_Int_Tables_number   1
_chemical_formula_structural   HfZrTaTiMo
_chemical_formula_sum   'Hf40 Zr40 Ta40 Ti40 Mo40'
_cell_volume   3896.08489269
_cell_formula_units_Z   40
loop_
 _symmetry_equiv_pos_site_id
 _symmetry_equiv_pos_as_xyz
  1  'x, y, z'
loop_
 _atom_site_type_symbol
 _atom_site_label
 _atom_site_symmetry_multiplicity
 _atom_site_fract_x
 _atom_site_fract_y
 _atom_site_fract_z
 _atom_site_occupancy
  Hf  Hf0  1  0.01687645  0.81572427  0.76582003  1
  Hf  Hf1  1  0.08599633  0.69585266  0.37285113  1
  Hf  Hf2  1  0.00980196  0.21420255  0.50671655  1
  Hf  Hf3  1  0.39121596  0.01127799  0.75338441  1
  Hf  Hf4  1  0.79687338  0.81138080  0.00339761  1
  Hf  Hf5  1  0.72374988  0.69792604  0.37131479  1
  Hf  Hf6  1  0.89360590  0.88395663  0.36504620  1
  Hf  Hf7  1  0.90674585  0.32653727  0.61787834  1
  Hf  Hf8  1  0.09470324  0.89203226  0.62171963  1
  Hf  Hf9  1  0.00166111  0.00175752  0.26136426  1
  Hf  Hf10  1  0.40812924  0.59281263  0.74003895  1
  Hf  Hf11  1  0.19541764  0.58687849  0.50761224  1
  Hf  Hf12  1  0.20862097  0.79130684  0.00815665  1
  Hf  Hf13  1  0.29722696  0.09408241  0.89102549  1
  Hf  Hf14  1  0.58882134  0.20962824  0.74991432  1
  Hf  Hf15  1  0.19508524  0.79544960  0.49767983  1
  Hf  Hf16  1  0.59981240  0.00003153  0.74960213  1
  Hf  Hf17  1  0.40606951  0.78199651  0.00081826  1
  Hf  Hf18  1  0.49748119  0.11488205  0.89189685  1
  Hf  Hf19  1  0.00292650  0.21157913  0.74372950  1
  Hf  Hf20  1  0.39750171  -0.00097738  0.49324113  1
  Hf  Hf21  1  0.18797647  0.38494351  0.50168580  1
  Hf  Hf22  1  0.70283378  0.09738116  0.62583316  1
  Hf  Hf23  1  0.30859111  0.09993445  0.12470289  1
  Hf  Hf24  1  0.40703301  0.39417494  0.48694812  1
  Hf  Hf25  1  0.60990117  -0.01475313  0.25677725  1
  Hf  Hf26  1  0.19740568  -0.00939300  0.00385396  1
  Hf  Hf27  1  0.40112399  0.38714664  -0.00256019  1
  Hf  Hf28  1  0.60274741  0.39059860  0.25197817  1
  Hf  Hf29  1  0.08353102  0.09612772  0.12486076  1
  Hf  Hf30  1  0.60496022  0.79594619  -0.00550631  1
  Hf  Hf31  1  0.87272134  0.30984897  0.10948622  1
  Hf  Hf32  1  0.80318349  0.60064451  0.23677625  1
  Hf  Hf33  1  -0.00007096  0.59589661  0.24432676  1
  Hf  Hf34  1  0.29473743  0.50044625  0.87181186  1
  Hf  Hf35  1  0.80686254  0.00304554  0.49478884  1
  Hf  Hf36  1  0.31266148  0.88966436  0.13834166  1
  Hf  Hf37  1  0.30031265  0.69004153  0.37617002  1
  Hf  Hf38  1  0.10356924  0.11345487  0.36702003  1
  Hf  Hf39  1  0.60488403  -0.00792233  0.48803662  1
  Zr  Zr40  1  0.08821355  0.10350775  0.87901052  1
  Zr  Zr41  1  0.60009683  0.39797031  -0.00751686  1
  Zr  Zr42  1  0.80568517  0.01988417  0.24628763  1
  Zr  Zr43  1  0.00539371  0.60020980  0.75137382  1
  Zr  Zr44  1  0.11024095  0.69112734  0.88234472  1
  Zr  Zr45  1  0.29227314  0.29339072  0.36086322  1
  Zr  Zr46  1  0.50497782  0.89786788  0.61733555  1
  Zr  Zr47  1  0.49749907  0.89901493  0.87661498  1
  Zr  Zr48  1  0.17845090  0.39962830  0.23470881  1
  Zr  Zr49  1  0.18424795  0.39126802  0.74194533  1
  Zr  Zr50  1  0.59686348  0.21319754  0.50587981  1
  Zr  Zr51  1  0.40136319  0.79479130  0.74707575  1
  Zr  Zr52  1  0.29710581  0.89823556  0.62292772  1
  Zr  Zr53  1  0.19981666  0.39524521  0.02083403  1
  Zr  Zr54  1  0.41160198  0.38811017  0.76106750  1
  Zr  Zr55  1  0.70834188  0.11843931  0.37313380  1
  Zr  Zr56  1  0.80495857  0.01843551  0.01226025  1
  Zr  Zr57  1  0.29741775  0.28323853  0.87501989  1
  Zr  Zr58  1  0.20671870  0.59482021  0.02146857  1
  Zr  Zr59  1  0.80314209  0.20753870  0.73886408  1
  Zr  Zr60  1  0.30316142  0.89478720  0.36218718  1
  Zr  Zr61  1  0.51492559  0.69281415  0.60571843  1
  Zr  Zr62  1  0.90311341  0.89990600  0.13208845  1
  Zr  Zr63  1  0.60971272  0.78492016  0.74789973  1
  Zr  Zr64  1  0.79364633  0.79861957  0.51096376  1
  Zr  Zr65  1  0.30612997  0.28636859  0.63089019  1
  Zr  Zr66  1  0.50108486  0.10962173  0.36435624  1
  Zr  Zr67  1  0.30016341  0.09963216  0.35680988  1
  Zr  Zr68  1  0.09495892  0.88745160  0.12960000  1
  Zr  Zr69  1  0.19240784  0.78597791  0.24509537  1
  Zr  Zr70  1  0.90066842  0.92717342  0.86489243  1
  Zr  Zr71  1  0.50678400  0.49829445  0.13339092  1
  Zr  Zr72  1  0.71109694  0.10405398  0.87547327  1
  Zr  Zr73  1  0.62174292  0.58066686  0.48890138  1
  Zr  Zr74  1  0.69311202  0.12624102  0.12535709  1
  Zr  Zr75  1  0.89166688  0.31840082  0.38201281  1
  Zr  Zr76  1  0.09666290  0.09220638  0.63004119  1
  Zr  Zr77  1  0.91521192  0.71840498  0.63400566  1
  Zr  Zr78  1  0.51728467  0.88212332  0.13151051  1
  Zr  Zr79  1  0.90182727  0.50552702  0.89197382  1
  Ta  Ta80  1  0.09123510  0.30284456  0.88691657  1
  Ta  Ta81  1  0.79831053  0.60699067  0.75524375  1
  Ta  Ta82  1  -0.02270821  0.40480228  0.23777776  1
  Ta  Ta83  1  0.40503628  -0.01067659  0.00635773  1
  Ta  Ta84  1  0.07940525  0.49034665  0.61959686  1
  Ta  Ta85  1  0.59781240  0.60470928  0.00170391  1
  Ta  Ta86  1  0.00065548  0.00135835  0.48759911  1
  Ta  Ta87  1  0.80082712  0.21262211  0.51464770  1
  Ta  Ta88  1  0.89675658  0.70758422  0.88045137  1
  Ta  Ta89  1  0.90195179  0.92893950  0.63799749  1
  Ta  Ta90  1  0.39589667  0.19830434  0.49665367  1
  Ta  Ta91  1  0.71094822  0.49373945  0.11899580  1
  Ta  Ta92  1  0.31311309  0.49227493  0.14232046  1
  Ta  Ta93  1  0.10135898  0.49409891  0.88210292  1
  Ta  Ta94  1  0.29067326  0.49233070  0.36555685  1
  Ta  Ta95  1  0.70419027  0.90238769  0.86754107  1
  Ta  Ta96  1  0.40757216  0.58957837  -0.00014464  1
  Ta  Ta97  1  0.30491748  0.69267682  0.61215961  1
  Ta  Ta98  1  0.18588477  -0.01718099  0.76384433  1
  Ta  Ta99  1  0.69830438  0.50973532  0.88059587  1
  Ta  Ta100  1  0.19975266  0.59292233  0.24059808  1
  Ta  Ta101  1  0.20489879  0.19084642  0.50230270  1
  Ta  Ta102  1  0.19366103  0.00054403  0.49077475  1
  Ta  Ta103  1  0.88278457  0.51802271  0.62267783  1
  Ta  Ta104  1  0.88944931  0.51854206  0.38391542  1
  Ta  Ta105  1  0.77826802  0.41623242  0.50574719  1
  Ta  Ta106  1  0.79470198  0.40999021  0.75527638  1
  Ta  Ta107  1  0.40807981  0.58950463  0.26773928  1
  Ta  Ta108  1  0.20002544  0.00064101  0.24400670  1
  Ta  Ta109  1  0.20302991  0.59669070  0.73120714  1
  Ta  Ta110  1  0.51367129  0.48240223  0.61983980  1
  Ta  Ta111  1  0.60874780  0.58703301  0.74572441  1
  Ta  Ta112  1  0.60456463  0.40100649  0.76425943  1
  Ta  Ta113  1  0.59976774  0.60384557  0.26479115  1
  Ta  Ta114  1  0.18974970  0.20511743  0.22545463  1
  Ta  Ta115  1  0.30843686  0.69139348  0.87101084  1
  Ta  Ta116  1  0.89558466  0.29767184  0.88659536  1
  Ta  Ta117  1  0.90484622  0.11979223  0.38074646  1
  Ta  Ta118  1  0.19264722  0.20717593  0.02017466  1
  Ta  Ta119  1  -0.00420890  -0.00012071  -0.00026852  1
  Ti  Ti120  1  0.20535013  0.18686364  0.75084774  1
  Ti  Ti121  1  0.30794137  0.49114688  0.62072295  1
  Ti  Ti122  1  0.32794464  0.68858762  0.14112683  1
  Ti  Ti123  1  0.79182369  0.61180838  0.00426705  1
  Ti  Ti124  1  0.41026854  -0.00394473  0.24728948  1
  Ti  Ti125  1  0.69230687  0.31186741  0.37982552  1
  Ti  Ti126  1  0.08736774  0.30351170  0.36526533  1
  Ti  Ti127  1  0.40652506  0.79473010  0.48807677  1
  Ti  Ti128  1  -0.01528669  0.20947530  0.24101103  1
  Ti  Ti129  1  0.70508612  0.89414397  0.63201828  1
  Ti  Ti130  1  0.00586812  0.40098615  0.00898159  1
  Ti  Ti131  1  0.50671445  0.28694351  0.12197450  1
  Ti  Ti132  1  0.70128384  0.29945993  0.88295925  1
  Ti  Ti133  1  0.43328103  0.78284161  0.26508317  1
  Ti  Ti134  1  -0.00553138  0.80667586  0.49808072  1
  Ti  Ti135  1  0.90369310  0.51007278  0.10429682  1
  Ti  Ti136  1  0.41032907  0.21307827  0.23995980  1
  Ti  Ti137  1  0.68048559  0.70451948  0.13241910  1
  Ti  Ti138  1  0.29499031  0.88787196  0.87571305  1
  Ti  Ti139  1  -0.01773494  0.19495151  0.00575630  1
  Ti  Ti140  1  0.70530751  0.70081220  0.87322623  1
  Ti  Ti141  1  0.78853972  0.23166671  0.24865528  1
  Ti  Ti142  1  0.78166130  0.80997609  0.23729670  1
  Ti  Ti143  1  0.59809652  0.80024536  0.47066057  1
  Ti  Ti144  1  -0.00898456  0.40492573  0.75881766  1
  Ti  Ti145  1  0.89965551  0.70544018  0.11545547  1
  Ti  Ti146  1  0.08405118  0.69255144  0.11951974  1
  Ti  Ti147  1  0.29585780  0.09245205  0.62425376  1
  Ti  Ti148  1  0.48814404  0.10521579  0.62336561  1
  Ti  Ti149  1  -0.00482032  0.60927538  0.50594056  1
  Ti  Ti150  1  0.40746247  0.58871786  0.48820952  1
  Ti  Ti151  1  0.20650160  0.78574548  0.74607405  1
  Ti  Ti152  1  0.08625124  0.49238388  0.37821036  1
  Ti  Ti153  1  0.80409330  0.80546634  0.75059470  1
  Ti  Ti154  1  0.50594449  0.68074796  0.87019899  1
  Ti  Ti155  1  0.60620453  -0.00341992  0.00368624  1
  Ti  Ti156  1  0.50170625  0.30032188  0.62480218  1
  Ti  Ti157  1  0.00229899  0.80365837  -0.01168305  1
  Ti  Ti158  1  0.10022755  0.89683750  0.37021286  1
  Ti  Ti159  1  0.50310600  0.09811264  0.12021777  1
  Mo  Mo160  1  0.68810372  0.31392583  0.12069154  1
  Mo  Mo161  1  0.39842268  0.18851043  0.74704108  1
  Mo  Mo162  1  0.60751720  0.78887256  0.26569492  1
  Mo  Mo163  1  0.10334749  0.30299485  0.62641596  1
  Mo  Mo164  1  0.59713206  0.39600211  0.49421193  1
  Mo  Mo165  1  0.79757389  0.00267090  0.74476554  1
  Mo  Mo166  1  0.79064443  0.21321348  -0.00418637  1
  Mo  Mo167  1  0.50092994  0.49088596  0.36890648  1
  Mo  Mo168  1  0.50122611  0.68686785  0.13167187  1
  Mo  Mo169  1  0.69928784  0.49434990  0.63384176  1
  Mo  Mo170  1  0.39821507  0.19738761  0.01695708  1
  Mo  Mo171  1  0.09035394  0.50191381  0.12465533  1
  Mo  Mo172  1  0.49824542  0.89570112  0.37040117  1
  Mo  Mo173  1  -0.00392582  0.42108416  0.49601113  1
  Mo  Mo174  1  0.69815092  0.89960904  0.12260566  1
  Mo  Mo175  1  0.59449605  0.20253078  -0.00177704  1
  Mo  Mo176  1  -0.00236189  0.60905951  0.00375970  1
  Mo  Mo177  1  0.10972464  0.69672605  0.62395021  1
  Mo  Mo178  1  0.90226398  0.11878308  0.87450162  1
  Mo  Mo179  1  0.39972432  0.39809988  0.25820410  1
  Mo  Mo180  1  0.50401955  0.29740474  0.87876270  1
  Mo  Mo181  1  0.79633326  0.41187870  -0.01155254  1
  Mo  Mo182  1  0.71157314  0.49185993  0.36633791  1
  Mo  Mo183  1  0.59953169  0.19912431  0.24835918  1
  Mo  Mo184  1  0.72005253  0.68603962  0.63403589  1
  Mo  Mo185  1  0.69151485  0.31891442  0.62967582  1
  Mo  Mo186  1  0.30902381  0.29801999  0.13488934  1
  Mo  Mo187  1  0.49837746  0.29511347  0.36920267  1
  Mo  Mo188  1  0.50283980  0.69042766  0.39008449  1
  Mo  Mo189  1  0.80808520  0.60467495  0.50690780  1
  Mo  Mo190  1  -0.00094616  0.01365818  0.74974978  1
  Mo  Mo191  1  0.10714150  0.89970775  0.88230388  1
  Mo  Mo192  1  0.07732493  0.29505689  0.12145091  1
  Mo  Mo193  1  0.90080755  0.10836651  0.60977595  1
  Mo  Mo194  1  -0.01630532  0.78611641  0.24789097  1
  Mo  Mo195  1  0.70267324  0.90048440  0.37305440  1
  Mo  Mo196  1  0.90702234  0.69887331  0.37609644  1
  Mo  Mo197  1  0.90143910  0.11677338  0.13280212  1
  Mo  Mo198  1  0.50145926  0.50756587  0.87626355  1
  Mo  Mo199  1  0.80128863  0.41264783  0.24849509  1
