# generated using pymatgen
data_HfZrTaTiMo
_symmetry_space_group_name_H-M   'P 1'
_cell_length_a   15.21670969
_cell_length_b   15.21232208
_cell_length_c   16.83897618
_cell_angle_alpha   90.05730145
_cell_angle_beta   90.01907468
_cell_angle_gamma   89.88366025
_symmetry_Int_Tables_number   1
_chemical_formula_structural   HfZrTaTiMo
_chemical_formula_sum   'Hf40 Zr40 Ta40 Ti40 Mo40'
_cell_volume   3897.90107917
_cell_formula_units_Z   40
loop_
 _symmetry_equiv_pos_site_id
 _symmetry_equiv_pos_as_xyz
  1  'x, y, z'
loop_
 _atom_site_type_symbol
 _atom_site_label
 _atom_site_symmetry_multiplicity
 _atom_site_fract_x
 _atom_site_fract_y
 _atom_site_fract_z
 _atom_site_occupancy
  Hf  Hf0  1  0.40116101  0.19509896  -0.00535067  1
  Hf  Hf1  1  0.70398096  0.09516187  0.88374897  1
  Hf  Hf2  1  0.79420865  0.01094216  0.26373948  1
  Hf  Hf3  1  0.41849158  0.59849156  -0.00288729  1
  Hf  Hf4  1  0.09559964  0.50110438  0.37982532  1
  Hf  Hf5  1  0.79193365  0.41104696  0.01030716  1
  Hf  Hf6  1  -0.00008128  0.01932731  0.24164341  1
  Hf  Hf7  1  0.30288310  0.88589621  0.12325048  1
  Hf  Hf8  1  0.40274044  0.37717886  0.47899721  1
  Hf  Hf9  1  0.19361199  0.39210732  0.50941678  1
  Hf  Hf10  1  0.77589548  0.61839200  0.00502918  1
  Hf  Hf11  1  0.30990097  0.89175400  0.38535768  1
  Hf  Hf12  1  0.90807441  0.91332252  0.62248480  1
  Hf  Hf13  1  0.90872729  0.11815589  0.61510488  1
  Hf  Hf14  1  0.00772570  0.80102500  0.25932855  1
  Hf  Hf15  1  0.48636531  0.28043625  0.62351800  1
  Hf  Hf16  1  0.89448078  0.70959328  0.12433710  1
  Hf  Hf17  1  0.80135318  0.21422917  0.75341030  1
  Hf  Hf18  1  0.59249180  0.21138653  0.48813352  1
  Hf  Hf19  1  0.20393278  -0.00573554  0.24302732  1
  Hf  Hf20  1  0.20383385  0.79406639  0.51494042  1
  Hf  Hf21  1  0.78766927  0.82474526  0.00301369  1
  Hf  Hf22  1  0.29948142  0.49636816  0.86281719  1
  Hf  Hf23  1  0.20932287  0.79937627  0.75173173  1
  Hf  Hf24  1  0.89958462  0.71041398  0.88421250  1
  Hf  Hf25  1  0.78432275  0.61264337  0.74711534  1
  Hf  Hf26  1  0.50484045  0.48501652  0.60282731  1
  Hf  Hf27  1  0.20831115  0.79646290  -0.01645983  1
  Hf  Hf28  1  0.58290324  0.40441070  -0.00090154  1
  Hf  Hf29  1  0.10373458  0.70726438  0.12131346  1
  Hf  Hf30  1  0.69530562  0.89651182  0.85574743  1
  Hf  Hf31  1  0.70736573  0.07877269  0.10843290  1
  Hf  Hf32  1  0.11407012  0.91260492  0.63586899  1
  Hf  Hf33  1  0.08346113  0.29575866  0.87389255  1
  Hf  Hf34  1  0.30536422  0.68541461  0.13006289  1
  Hf  Hf35  1  0.59879213  0.76639216  0.00042801  1
  Hf  Hf36  1  0.67625535  0.51799070  0.87492796  1
  Hf  Hf37  1  0.20852707  0.59544659  -0.01043376  1
  Hf  Hf38  1  0.30189236  0.31040787  0.13409258  1
  Hf  Hf39  1  0.18554146  0.39252028  0.73391589  1
  Zr  Zr40  1  0.10327460  0.90793220  0.86646140  1
  Zr  Zr41  1  0.31002223  0.69075438  0.63104793  1
  Zr  Zr42  1  0.41094326  -0.00244106  0.25130610  1
  Zr  Zr43  1  0.90566374  0.11617359  0.39073253  1
  Zr  Zr44  1  0.78029619  0.41196686  0.49386298  1
  Zr  Zr45  1  0.19167669  0.59924474  0.75083484  1
  Zr  Zr46  1  0.89377733  0.50375578  0.88148101  1
  Zr  Zr47  1  0.69864285  0.10940449  0.61925865  1
  Zr  Zr48  1  -0.00756831  0.60224057  0.74774870  1
  Zr  Zr49  1  0.18553789  0.18041669  0.73608285  1
  Zr  Zr50  1  0.30432203  0.08704147  0.39445521  1
  Zr  Zr51  1  0.58970724  0.18199709  0.75484169  1
  Zr  Zr52  1  0.60363292  0.18310762  0.26141494  1
  Zr  Zr53  1  0.28707035  0.28099221  0.36618687  1
  Zr  Zr54  1  0.80989026  0.20590619  0.00608762  1
  Zr  Zr55  1  0.60772038  -0.01306740  0.25665315  1
  Zr  Zr56  1  0.10730418  0.10565539  0.37689925  1
  Zr  Zr57  1  0.28536468  0.28827170  0.87097665  1
  Zr  Zr58  1  0.81559329  0.80330266  0.73934953  1
  Zr  Zr59  1  0.38681667  0.58031062  0.27232001  1
  Zr  Zr60  1  0.89775550  0.90470761  0.38688331  1
  Zr  Zr61  1  0.70278973  0.71849273  0.36541515  1
  Zr  Zr62  1  0.30385384  0.49171719  0.61832405  1
  Zr  Zr63  1  0.89828623  0.31927810  0.37368837  1
  Zr  Zr64  1  0.51099524  0.88784606  0.38556351  1
  Zr  Zr65  1  0.50120544  0.87893476  0.85650908  1
  Zr  Zr66  1  0.11257559  0.89800273  0.37913249  1
  Zr  Zr67  1  0.50660459  0.88461643  0.12222214  1
  Zr  Zr68  1  0.09200263  0.29595710  0.37366211  1
  Zr  Zr69  1  0.00068505  0.39433111  0.23133157  1
  Zr  Zr70  1  0.68892076  0.30375103  0.13217059  1
  Zr  Zr71  1  0.31018042  0.10197204  0.12377253  1
  Zr  Zr72  1  0.81626768  0.20717453  0.23911552  1
  Zr  Zr73  1  0.39139461  0.39891844  -0.00239209  1
  Zr  Zr74  1  0.89157915  0.91438954  0.12466544  1
  Zr  Zr75  1  -0.01215511  0.60095090  0.26095334  1
  Zr  Zr76  1  0.21094122  0.00272162  -0.00314111  1
  Zr  Zr77  1  0.90367248  0.92180125  0.87340203  1
  Zr  Zr78  1  0.67843686  0.51799728  0.14491601  1
  Zr  Zr79  1  0.59272828  0.39864503  0.75131698  1
  Ta  Ta80  1  0.88777760  0.31172964  0.61989029  1
  Ta  Ta81  1  0.80445335  0.61184937  0.49063041  1
  Ta  Ta82  1  0.89815504  0.31139829  0.87918748  1
  Ta  Ta83  1  0.01721223  0.00763611  0.50602966  1
  Ta  Ta84  1  0.61140269  0.79284851  0.51538509  1
  Ta  Ta85  1  0.50882916  0.09413351  0.10702506  1
  Ta  Ta86  1  0.20848113  0.42130231  0.25200360  1
  Ta  Ta87  1  0.70372333  0.50974407  0.35704161  1
  Ta  Ta88  1  0.69988841  0.30701628  0.87842624  1
  Ta  Ta89  1  0.00983359  0.02914141  0.74813414  1
  Ta  Ta90  1  0.40032165  0.78726131  0.25704220  1
  Ta  Ta91  1  0.60587677  0.59478518  0.48296076  1
  Ta  Ta92  1  -0.01155579  0.40918769  0.50602134  1
  Ta  Ta93  1  0.08999561  0.49082301  0.87829868  1
  Ta  Ta94  1  0.32552542  0.70366575  0.86023821  1
  Ta  Ta95  1  0.18932930  0.39898565  0.00377382  1
  Ta  Ta96  1  0.69324675  0.51420909  0.61894038  1
  Ta  Ta97  1  0.39897738  0.39166017  0.26877080  1
  Ta  Ta98  1  -0.00090433  0.01744207  0.00948528  1
  Ta  Ta99  1  0.50910754  0.89235974  0.63359189  1
  Ta  Ta100  1  0.79378080  0.41026294  0.74675138  1
  Ta  Ta101  1  0.41154606  0.78825267  0.50958425  1
  Ta  Ta102  1  0.61324267  0.77507719  0.73048935  1
  Ta  Ta103  1  0.58572977  0.39934694  0.26980162  1
  Ta  Ta104  1  0.00554252  0.79388360  0.50317155  1
  Ta  Ta105  1  0.49831011  0.07928236  0.88449205  1
  Ta  Ta106  1  0.80367748  0.01684686  0.74792262  1
  Ta  Ta107  1  0.30480748  0.08916096  0.61477820  1
  Ta  Ta108  1  0.51129337  0.68084148  0.61790710  1
  Ta  Ta109  1  0.19198066  0.19343348  0.51977416  1
  Ta  Ta110  1  0.08426142  0.50953318  0.61529797  1
  Ta  Ta111  1  0.49670489  0.29187866  0.13627227  1
  Ta  Ta112  1  0.60936920  -0.00496003  0.50444402  1
  Ta  Ta113  1  -0.00181423  0.40379137  0.01598501  1
  Ta  Ta114  1  0.52021197  0.67581732  0.85940727  1
  Ta  Ta115  1  0.10132644  0.90060135  0.12157167  1
  Ta  Ta116  1  0.11241218  0.50945462  0.12622928  1
  Ta  Ta117  1  0.39290170  0.38602039  0.74639425  1
  Ta  Ta118  1  0.00748385  0.21202235  0.02564770  1
  Ta  Ta119  1  0.41214594  0.00630826  0.73983334  1
  Ti  Ti120  1  0.10209411  0.10543571  0.88249737  1
  Ti  Ti121  1  0.28948484  0.70039161  0.37994113  1
  Ti  Ti122  1  0.79427902  0.20930872  0.49644513  1
  Ti  Ti123  1  0.50824833  0.67932062  0.14694499  1
  Ti  Ti124  1  0.00342825  0.59983595  0.00184295  1
  Ti  Ti125  1  0.19055558  0.61542654  0.26211898  1
  Ti  Ti126  1  0.31513693  0.90010249  0.63076523  1
  Ti  Ti127  1  0.60481671  -0.02441514  -0.00198315  1
  Ti  Ti128  1  0.19529146  0.20329870  0.00942325  1
  Ti  Ti129  1  0.49542379  0.29232228  0.86814722  1
  Ti  Ti130  1  0.59693552  0.20348998  -0.00561569  1
  Ti  Ti131  1  0.40816173  0.19146258  0.25228185  1
  Ti  Ti132  1  0.01059600  0.79584722  0.74372892  1
  Ti  Ti133  1  0.39017032  0.18937665  0.74949023  1
  Ti  Ti134  1  0.39481268  0.59287408  0.48448841  1
  Ti  Ti135  1  -0.00565711  0.60812483  0.48834987  1
  Ti  Ti136  1  0.09788906  0.69550320  0.87768234  1
  Ti  Ti137  1  0.07468191  0.29080547  0.62402168  1
  Ti  Ti138  1  0.89010324  0.50526266  0.62135248  1
  Ti  Ti139  1  0.19072327  0.60239366  0.49866888  1
  Ti  Ti140  1  -0.01394519  0.39966881  0.74204077  1
  Ti  Ti141  1  0.91363882  0.11843260  0.87752893  1
  Ti  Ti142  1  0.49994954  0.69530413  0.37722379  1
  Ti  Ti143  1  0.70701060  0.90592031  0.63105690  1
  Ti  Ti144  1  0.00480230  0.81052262  -0.00095830  1
  Ti  Ti145  1  0.90833718  0.69838074  0.61637110  1
  Ti  Ti146  1  0.48214452  0.48947646  0.13889712  1
  Ti  Ti147  1  0.40384872  0.79775432  -0.00772339  1
  Ti  Ti148  1  0.18040818  0.20215949  0.23206268  1
  Ti  Ti149  1  0.70023001  0.29876446  0.36440681  1
  Ti  Ti150  1  0.80261540  0.41777513  0.24482400  1
  Ti  Ti151  1  0.41915694  0.58511107  0.74692174  1
  Ti  Ti152  1  0.69017300  0.31529532  0.62064018  1
  Ti  Ti153  1  0.79631438  0.81582989  0.25361397  1
  Ti  Ti154  1  0.80339334  0.80811080  0.50528967  1
  Ti  Ti155  1  0.69207597  0.71215552  0.15238546  1
  Ti  Ti156  1  0.30295131  0.09040228  0.87108566  1
  Ti  Ti157  1  0.49588755  0.09201036  0.39314779  1
  Ti  Ti158  1  0.31659130  0.90533457  0.86313613  1
  Ti  Ti159  1  0.89462847  0.51488197  0.12399394  1
  Mo  Mo160  1  0.29490810  0.50105259  0.12834191  1
  Mo  Mo161  1  0.89215296  0.51068631  0.37403801  1
  Mo  Mo162  1  0.09280712  0.69898149  0.61874408  1
  Mo  Mo163  1  0.41155400  0.78889195  0.73884677  1
  Mo  Mo164  1  0.49654932  0.08754043  0.61455353  1
  Mo  Mo165  1  0.00382709  0.20016990  0.22592564  1
  Mo  Mo166  1  0.70591256  0.09707610  0.39701598  1
  Mo  Mo167  1  0.29579016  0.28818015  0.62663261  1
  Mo  Mo168  1  0.80238585  0.61022848  0.24912579  1
  Mo  Mo169  1  0.70503263  0.90602850  0.39213219  1
  Mo  Mo170  1  0.89748294  0.31744976  0.12256046  1
  Mo  Mo171  1  0.48875335  0.49090005  0.86618773  1
  Mo  Mo172  1  0.60312913  0.39967648  0.47825759  1
  Mo  Mo173  1  0.50014197  0.49542395  0.38945337  1
  Mo  Mo174  1  0.41123676  -0.00895257  -0.00807933  1
  Mo  Mo175  1  0.59916651  0.59205156  0.73447377  1
  Mo  Mo176  1  0.41148928  -0.01417433  0.51716819  1
  Mo  Mo177  1  -0.01051192  0.21144827  0.75235568  1
  Mo  Mo178  1  0.09714760  0.09720574  0.62051022  1
  Mo  Mo179  1  0.10619229  0.09860686  0.11944449  1
  Mo  Mo180  1  0.49736328  0.28377269  0.36266868  1
  Mo  Mo181  1  0.00069821  0.21722109  0.50395516  1
  Mo  Mo182  1  0.39389150  0.18879567  0.50307145  1
  Mo  Mo183  1  0.10426894  0.70312110  0.38372391  1
  Mo  Mo184  1  0.60607599  -0.00643976  0.73990384  1
  Mo  Mo185  1  0.90182823  0.70817265  0.38360332  1
  Mo  Mo186  1  0.20660616  -0.00795689  0.50929450  1
  Mo  Mo187  1  0.71069927  0.69925317  0.60807734  1
  Mo  Mo188  1  0.90255042  0.10662820  0.12180696  1
  Mo  Mo189  1  0.20865303  0.79303213  0.25046976  1
  Mo  Mo190  1  0.11057990  0.30951353  0.12560455  1
  Mo  Mo191  1  0.59092683  0.59308097  0.01049220  1
  Mo  Mo192  1  0.21739400  0.00510771  0.75678921  1
  Mo  Mo193  1  0.58679088  0.60268383  0.26980051  1
  Mo  Mo194  1  0.28922124  0.49935477  0.38985869  1
  Mo  Mo195  1  0.59298849  0.79726896  0.25379083  1
  Mo  Mo196  1  0.69723167  0.70696211  0.87129687  1
  Mo  Mo197  1  0.80022498  0.00290891  0.50412264  1
  Mo  Mo198  1  0.80339842  0.00703988  -0.01376618  1
  Mo  Mo199  1  0.69901630  0.89183966  0.12709728  1
