# generated using pymatgen
data_HfZrTaTiMo
_symmetry_space_group_name_H-M   'P 1'
_cell_length_a   15.17402302
_cell_length_b   15.17397533
_cell_length_c   16.82052398
_cell_angle_alpha   89.99484350
_cell_angle_beta   90.05349865
_cell_angle_gamma   90.02638574
_symmetry_Int_Tables_number   1
_chemical_formula_structural   HfZrTaTiMo
_chemical_formula_sum   'Hf40 Zr40 Ta40 Ti40 Mo40'
_cell_volume   3872.92775252
_cell_formula_units_Z   40
loop_
 _symmetry_equiv_pos_site_id
 _symmetry_equiv_pos_as_xyz
  1  'x, y, z'
loop_
 _atom_site_type_symbol
 _atom_site_label
 _atom_site_symmetry_multiplicity
 _atom_site_fract_x
 _atom_site_fract_y
 _atom_site_fract_z
 _atom_site_occupancy
  Hf  Hf0  1  0.20612728  0.40551231  0.52255778  1
  Hf  Hf1  1  0.89063338  0.30810154  0.10768892  1
  Hf  Hf2  1  0.79714103  0.80823836  0.26048179  1
  Hf  Hf3  1  0.49957468  0.69612051  0.36624095  1
  Hf  Hf4  1  0.18513104  -0.01411818  -0.02026186  1
  Hf  Hf5  1  0.60341409  0.19090136  0.24928217  1
  Hf  Hf6  1  0.90502097  0.71204242  0.12851483  1
  Hf  Hf7  1  0.41090863  0.62738151  0.52092936  1
  Hf  Hf8  1  0.27270581  0.89134595  0.11459520  1
  Hf  Hf9  1  0.38345769  0.81013124  0.76367879  1
  Hf  Hf10  1  0.62446180  0.40255129  0.50191868  1
  Hf  Hf11  1  0.49843394  0.08864049  0.37030587  1
  Hf  Hf12  1  0.89278287  0.70487753  0.61737352  1
  Hf  Hf13  1  0.50283357  0.30688452  0.37453545  1
  Hf  Hf14  1  0.71276409  0.48630809  0.12202267  1
  Hf  Hf15  1  0.12468521  0.49911806  0.12571364  1
  Hf  Hf16  1  0.10039025  0.29221262  0.11565416  1
  Hf  Hf17  1  0.91473380  0.50741288  0.11400433  1
  Hf  Hf18  1  0.17932135  0.21017523  0.25674106  1
  Hf  Hf19  1  0.39241821  0.00532509  0.00561929  1
  Hf  Hf20  1  0.71223112  0.49244593  0.88869236  1
  Hf  Hf21  1  0.31564638  0.51704222  0.39056826  1
  Hf  Hf22  1  0.88779245  0.90026774  0.85820117  1
  Hf  Hf23  1  0.78496128  0.79637489  0.49087345  1
  Hf  Hf24  1  0.51190851  0.10129992  0.88513774  1
  Hf  Hf25  1  0.22846453  0.39950326  -0.00718592  1
  Hf  Hf26  1  0.21467263  0.58870961  0.73211606  1
  Hf  Hf27  1  0.29838215  0.09436540  0.62980150  1
  Hf  Hf28  1  0.08933429  0.09041915  0.12141374  1
  Hf  Hf29  1  0.88291292  0.31638016  0.38974956  1
  Hf  Hf30  1  0.01918793  0.40201630  -0.01011763  1
  Hf  Hf31  1  0.00442880  0.81457414  0.26028459  1
  Hf  Hf32  1  0.70954336  0.70978052  0.88183237  1
  Hf  Hf33  1  0.08602189  0.10305847  0.38783856  1
  Hf  Hf34  1  0.00345759  0.39191772  0.25512472  1
  Hf  Hf35  1  0.18798343  0.19446625  -0.02362664  1
  Hf  Hf36  1  0.59544011  0.79561132  0.75721877  1
  Hf  Hf37  1  -0.00231577  0.82493491  0.50658934  1
  Hf  Hf38  1  0.28794731  0.10864251  0.12562227  1
  Hf  Hf39  1  0.67957365  0.88502911  0.61870233  1
  Zr  Zr40  1  -0.01432501  -0.00035345  -0.00361748  1
  Zr  Zr41  1  0.80642476  0.40214288  0.74745262  1
  Zr  Zr42  1  0.28629826  0.31910680  0.37287275  1
  Zr  Zr43  1  0.40617780  0.19210012  0.75082878  1
  Zr  Zr44  1  0.52962708  0.51566223  0.62100056  1
  Zr  Zr45  1  0.50497199  0.48650654  0.87228190  1
  Zr  Zr46  1  0.38119526  -0.01686832  0.49566382  1
  Zr  Zr47  1  0.00452956  0.60487099  0.26002499  1
  Zr  Zr48  1  0.50579306  0.28828343  0.61659112  1
  Zr  Zr49  1  0.59450564  0.19948540  0.01905524  1
  Zr  Zr50  1  0.39073182  0.20072440  0.49643315  1
  Zr  Zr51  1  0.72213721  0.47686929  0.36006303  1
  Zr  Zr52  1  0.38949765  0.22180755  0.00500551  1
  Zr  Zr53  1  0.00633356  0.40415620  0.50014565  1
  Zr  Zr54  1  0.11181106  0.71197181  0.12084720  1
  Zr  Zr55  1  0.61097456  0.39069490  0.74452162  1
  Zr  Zr56  1  0.59922616  0.59423914  0.00440523  1
  Zr  Zr57  1  0.11460505  0.48970444  0.37741697  1
  Zr  Zr58  1  0.89075292  0.10817282  0.38939529  1
  Zr  Zr59  1  0.49227364  0.88786082  0.12439041  1
  Zr  Zr60  1  0.49789342  0.90507102  0.88276943  1
  Zr  Zr61  1  0.10031720  0.69191981  0.60791105  1
  Zr  Zr62  1  0.21404542  0.60234750  0.25300574  1
  Zr  Zr63  1  0.28220956  0.08962613  0.37652837  1
  Zr  Zr64  1  0.88288906  0.09831781  0.87449444  1
  Zr  Zr65  1  0.11331706  0.69880169  0.39749745  1
  Zr  Zr66  1  0.79678420  0.82556177  0.00877628  1
  Zr  Zr67  1  0.20179452  -0.01081045  0.75754032  1
  Zr  Zr68  1  0.89624460  0.30116135  0.88702651  1
  Zr  Zr69  1  0.79293124  0.22188072  0.25058872  1
  Zr  Zr70  1  0.79316912  0.20025949  0.74285675  1
  Zr  Zr71  1  0.60745033  0.18413619  0.74522656  1
  Zr  Zr72  1  0.91524901  0.51237309  0.87932717  1
  Zr  Zr73  1  0.11061858  0.91037238  0.38365522  1
  Zr  Zr74  1  0.39070988  0.20283546  0.25286908  1
  Zr  Zr75  1  0.78067335  0.00404641  0.72720730  1
  Zr  Zr76  1  0.38698943  0.78523850  -0.01242544  1
  Zr  Zr77  1  0.00565922  0.80572875  -0.00217130  1
  Zr  Zr78  1  0.91514853  0.50800045  0.62587041  1
  Zr  Zr79  1  0.51664797  0.50491747  0.37837303  1
  Ta  Ta80  1  0.81201264  0.61257460  0.00303211  1
  Ta  Ta81  1  0.01156212  0.61343538  0.75259462  1
  Ta  Ta82  1  0.30347574  0.31295271  0.85438408  1
  Ta  Ta83  1  0.39790803  0.41308104  0.72899371  1
  Ta  Ta84  1  0.59906259  0.78985816  0.24569896  1
  Ta  Ta85  1  0.09966312  0.30197296  0.64158723  1
  Ta  Ta86  1  0.69574148  0.68614023  0.36823285  1
  Ta  Ta87  1  -0.00837537  0.19953081  0.74364167  1
  Ta  Ta88  1  0.30609047  0.68924106  0.11878063  1
  Ta  Ta89  1  0.79619174  0.00841205  0.25757463  1
  Ta  Ta90  1  0.70757212  0.08862515  0.13110084  1
  Ta  Ta91  1  0.60209747  -0.01376132  0.24693932  1
  Ta  Ta92  1  0.80344671  0.60664912  0.75224471  1
  Ta  Ta93  1  0.09980659  0.30216748  0.85816868  1
  Ta  Ta94  1  0.41548624  0.61313777  0.73459278  1
  Ta  Ta95  1  0.80603748  0.60040300  0.24897930  1
  Ta  Ta96  1  0.20704453  0.80409201  0.25364669  1
  Ta  Ta97  1  0.38612827  -0.01252263  0.24616308  1
  Ta  Ta98  1  0.79837056  0.58471571  0.49421775  1
  Ta  Ta99  1  0.09212896  0.10351881  0.63063762  1
  Ta  Ta100  1  0.49862915  0.68854377  0.12335376  1
  Ta  Ta101  1  0.29617970  0.29729854  0.63755101  1
  Ta  Ta102  1  0.61499624  0.59986867  0.75878217  1
  Ta  Ta103  1  0.22715181  0.80854910  0.51544713  1
  Ta  Ta104  1  0.61260223  -0.00765419  0.01610169  1
  Ta  Ta105  1  0.58892673  -0.01757129  0.49660360  1
  Ta  Ta106  1  0.49312773  0.68497564  0.87740431  1
  Ta  Ta107  1  0.79648522  0.00003060  0.51558004  1
  Ta  Ta108  1  0.40648469  0.40674747  0.51684420  1
  Ta  Ta109  1  0.90351949  0.29824855  0.61921551  1
  Ta  Ta110  1  0.21602166  0.60241579  -0.01231047  1
  Ta  Ta111  1  0.32029663  0.50655602  0.86646218  1
  Ta  Ta112  1  0.49035649  0.88903286  0.36350148  1
  Ta  Ta113  1  0.70126772  0.70105107  0.12787066  1
  Ta  Ta114  1  0.40718995  0.59529518  0.24461528  1
  Ta  Ta115  1  0.89624513  0.11084996  0.12208228  1
  Ta  Ta116  1  0.18565364  0.78530902  0.75223919  1
  Ta  Ta117  1  0.59977364  0.79751522  0.00343765  1
  Ta  Ta118  1  0.19467920  0.19623552  0.75784353  1
  Ta  Ta119  1  0.49514622  0.09274025  0.13524767  1
  Ti  Ti120  1  0.18920185  -0.00512963  0.24734153  1
  Ti  Ti121  1  0.60349497  0.18939356  0.49487010  1
  Ti  Ti122  1  0.12219539  0.50003069  0.86600547  1
  Ti  Ti123  1  0.79723667  0.79775605  0.74105738  1
  Ti  Ti124  1  0.49136187  0.49064276  0.12454220  1
  Ti  Ti125  1  0.78844694  0.19258883  0.00284291  1
  Ti  Ti126  1  0.89619275  0.91692340  0.38256951  1
  Ti  Ti127  1  0.61531074  0.38680788  0.24424949  1
  Ti  Ti128  1  0.47630543  0.89206315  0.62793227  1
  Ti  Ti129  1  0.58443126  0.78508462  0.49614990  1
  Ti  Ti130  1  -0.01335797  -0.00679945  0.72439448  1
  Ti  Ti131  1  0.69888335  0.09314721  0.38531697  1
  Ti  Ti132  1  0.19549727  0.78875736  -0.03379666  1
  Ti  Ti133  1  0.01162757  0.40849274  0.74972799  1
  Ti  Ti134  1  0.90951194  0.70963485  0.86936763  1
  Ti  Ti135  1  0.90056482  0.69715951  0.38457380  1
  Ti  Ti136  1  0.01964141  0.61113716  -0.00975890  1
  Ti  Ti137  1  0.89365620  0.92048211  0.13454310  1
  Ti  Ti138  1  0.07761259  0.09736628  0.86073576  1
  Ti  Ti139  1  0.68775718  0.89869747  0.37794337  1
  Ti  Ti140  1  0.69503366  0.92153426  0.87416137  1
  Ti  Ti141  1  0.39162275  0.79204360  0.24236473  1
  Ti  Ti142  1  0.31024458  0.71749177  0.38262889  1
  Ti  Ti143  1  -0.00354267  0.20014155  0.51186122  1
  Ti  Ti144  1  0.50095325  0.08475769  0.61521274  1
  Ti  Ti145  1  -0.01219582  0.20031659  0.25545787  1
  Ti  Ti146  1  0.49629325  0.30149262  0.87286852  1
  Ti  Ti147  1  0.59937037  0.38682102  0.00916988  1
  Ti  Ti148  1  0.60563293  0.59003902  0.23682114  1
  Ti  Ti149  1  0.18887669  0.20610673  0.50668033  1
  Ti  Ti150  1  0.17923036  -0.00490420  0.52239894  1
  Ti  Ti151  1  0.30114663  0.32809962  0.14274658  1
  Ti  Ti152  1  -0.00703931  0.00802689  0.25163998  1
  Ti  Ti153  1  0.58287435  -0.00351681  0.74306416  1
  Ti  Ti154  1  0.08074761  0.88592566  0.85285917  1
  Ti  Ti155  1  0.69241802  0.28766981  0.88504703  1
  Ti  Ti156  1  0.69099083  0.68098388  0.62133496  1
  Ti  Ti157  1  0.70942439  0.29321193  0.61384554  1
  Ti  Ti158  1  0.30807040  0.09467404  0.86861991  1
  Ti  Ti159  1  0.49461703  0.30699036  0.13985625  1
  Mo  Mo160  1  0.39842668  0.58604749  0.00024473  1
  Mo  Mo161  1  0.71761479  0.50552578  0.62858274  1
  Mo  Mo162  1  0.61839701  0.61038834  0.49410358  1
  Mo  Mo163  1  0.31098119  0.71542947  0.63133994  1
  Mo  Mo164  1  0.21231178  0.60318485  0.51520494  1
  Mo  Mo165  1  0.69657391  0.29554135  0.12054362  1
  Mo  Mo166  1  0.29788987  0.68665826  0.86273069  1
  Mo  Mo167  1  0.31551201  0.50317358  0.12217145  1
  Mo  Mo168  1  0.69175709  0.09334891  0.88304708  1
  Mo  Mo169  1  0.78998447  0.20133395  0.50656427  1
  Mo  Mo170  1  -0.00687425  0.80051919  0.73822530  1
  Mo  Mo171  1  0.29171271  0.89874115  0.63363568  1
  Mo  Mo172  1  0.88769530  0.89806403  0.62621602  1
  Mo  Mo173  1  0.08758949  0.90133668  0.13617259  1
  Mo  Mo174  1  0.81177463  0.40911825  0.24141878  1
  Mo  Mo175  1  0.70033076  0.89564166  0.13876989  1
  Mo  Mo176  1  0.79201193  0.00499048  0.00678885  1
  Mo  Mo177  1  0.29953505  0.89124597  0.36574472  1
  Mo  Mo178  1  0.09573613  0.89738005  0.63738172  1
  Mo  Mo179  1  0.69433695  0.28496548  0.38339594  1
  Mo  Mo180  1  0.51786460  0.71824265  0.63504487  1
  Mo  Mo181  1  0.00115070  0.19816210  -0.00876542  1
  Mo  Mo182  1  0.20722461  0.40181436  0.25094778  1
  Mo  Mo183  1  0.10122623  0.49981895  0.62875579  1
  Mo  Mo184  1  -0.00698721  0.00737912  0.52094486  1
  Mo  Mo185  1  0.89507960  0.10614878  0.61550506  1
  Mo  Mo186  1  0.41290903  0.39548571  0.00052524  1
  Mo  Mo187  1  0.79528802  0.39949342  -0.00424000  1
  Mo  Mo188  1  0.40607568  0.00288707  0.74978430  1
  Mo  Mo189  1  0.20423721  0.39996016  0.74342443  1
  Mo  Mo190  1  0.41288957  0.81076706  0.50043542  1
  Mo  Mo191  1  0.31230274  0.50650356  0.61733347  1
  Mo  Mo192  1  0.68217824  0.09604340  0.60445136  1
  Mo  Mo193  1  0.09669528  0.68748343  0.86692880  1
  Mo  Mo194  1  -0.00255684  0.60587003  0.48715631  1
  Mo  Mo195  1  0.41075722  0.41150178  0.25190064  1
  Mo  Mo196  1  0.80620022  0.39838168  0.51264116  1
  Mo  Mo197  1  0.09208036  0.28927581  0.38285701  1
  Mo  Mo198  1  0.28870104  0.90072191  0.87843101  1
  Mo  Mo199  1  0.90806203  0.51409376  0.37718512  1
