# generated using pymatgen
data_HfZrTaTiMo
_symmetry_space_group_name_H-M   'P 1'
_cell_length_a   15.19698034
_cell_length_b   15.18903586
_cell_length_c   16.78461323
_cell_angle_alpha   89.98885901
_cell_angle_beta   90.01068260
_cell_angle_gamma   90.05248685
_symmetry_Int_Tables_number   1
_chemical_formula_structural   HfZrTaTiMo
_chemical_formula_sum   'Hf40 Zr40 Ta40 Ti40 Mo40'
_cell_volume   3874.34819490
_cell_formula_units_Z   40
loop_
 _symmetry_equiv_pos_site_id
 _symmetry_equiv_pos_as_xyz
  1  'x, y, z'
loop_
 _atom_site_type_symbol
 _atom_site_label
 _atom_site_symmetry_multiplicity
 _atom_site_fract_x
 _atom_site_fract_y
 _atom_site_fract_z
 _atom_site_occupancy
  Hf  Hf0  1  0.09424665  0.89998125  0.61021440  1
  Hf  Hf1  1  0.20969579  0.80408256  0.48926189  1
  Hf  Hf2  1  0.91224391  0.71363481  0.61731509  1
  Hf  Hf3  1  0.40001324  0.78832550  0.01609721  1
  Hf  Hf4  1  0.60018842  0.17690870  0.48883883  1
  Hf  Hf5  1  0.81773087  0.41276038  0.74512933  1
  Hf  Hf6  1  0.49721753  0.09927115  0.13650151  1
  Hf  Hf7  1  0.20831587  0.00610898  0.48642742  1
  Hf  Hf8  1  0.69122804  0.08894518  0.13368828  1
  Hf  Hf9  1  0.39468089  0.18030544  0.49091363  1
  Hf  Hf10  1  0.79761978  0.20574255  0.25868286  1
  Hf  Hf11  1  0.71537839  0.50480225  0.12050148  1
  Hf  Hf12  1  0.11384636  0.70261794  0.62515795  1
  Hf  Hf13  1  0.60451147  0.60047968  0.25365061  1
  Hf  Hf14  1  0.09539598  0.31200632  0.87652351  1
  Hf  Hf15  1  0.07980075  0.90585078  0.37166450  1
  Hf  Hf16  1  0.08254824  0.70071970  0.87086398  1
  Hf  Hf17  1  0.60826260  0.38804110  -0.00126077  1
  Hf  Hf18  1  0.31430378  0.50514803  0.88165571  1
  Hf  Hf19  1  0.10819602  0.30081740  0.62212872  1
  Hf  Hf20  1  0.39225560  0.39031942  0.26590417  1
  Hf  Hf21  1  0.29478393  0.08807901  0.62696721  1
  Hf  Hf22  1  0.92708946  0.51296462  0.88602148  1
  Hf  Hf23  1  0.50518520  0.48219581  0.13604293  1
  Hf  Hf24  1  0.29172045  0.88531415  0.86999274  1
  Hf  Hf25  1  0.78546134  0.00586700  0.48754603  1
  Hf  Hf26  1  0.18571417  0.59423929  0.00411972  1
  Hf  Hf27  1  0.91159045  0.09462309  0.36988777  1
  Hf  Hf28  1  0.49805062  0.06131252  0.36338249  1
  Hf  Hf29  1  0.00789734  0.40254842  0.24924357  1
  Hf  Hf30  1  0.69244311  0.90427452  0.63563459  1
  Hf  Hf31  1  0.40288829  0.59575074  0.24982970  1
  Hf  Hf32  1  -0.00420555  0.80731987  0.01138753  1
  Hf  Hf33  1  0.91160285  0.30582934  0.61950892  1
  Hf  Hf34  1  0.80785077  0.60927294  0.74596667  1
  Hf  Hf35  1  0.78779349  0.20814432  -0.00334287  1
  Hf  Hf36  1  0.18020411  -0.00518210  -0.00800130  1
  Hf  Hf37  1  0.80016493  -0.00962046  -0.00247077  1
  Hf  Hf38  1  0.80059440  0.60820136  0.48992559  1
  Hf  Hf39  1  0.30006302  0.10004084  0.12448578  1
  Zr  Zr40  1  0.87828653  0.71641342  0.13831570  1
  Zr  Zr41  1  0.10245478  0.50222874  0.61696663  1
  Zr  Zr42  1  0.39805293  0.20557426  -0.00692789  1
  Zr  Zr43  1  0.71226482  0.88442935  0.13270104  1
  Zr  Zr44  1  0.79730964  0.41198708  0.26690616  1
  Zr  Zr45  1  0.80401185  0.20197022  0.49631192  1
  Zr  Zr46  1  0.21546893  0.40406478  0.48709743  1
  Zr  Zr47  1  0.58621807  0.59928264  0.00894260  1
  Zr  Zr48  1  0.20337081  0.21338175  0.24818534  1
  Zr  Zr49  1  0.89331946  0.10371401  0.12573661  1
  Zr  Zr50  1  0.40064786  0.19994931  0.74740184  1
  Zr  Zr51  1  0.17283569  -0.00478403  0.76301773  1
  Zr  Zr52  1  0.79939640  0.40912270  0.49163829  1
  Zr  Zr53  1  0.91359680  0.51855778  0.11607708  1
  Zr  Zr54  1  0.39979538  -0.00469131  -0.00941340  1
  Zr  Zr55  1  0.81353930  0.00544367  0.75670930  1
  Zr  Zr56  1  0.00340918  0.19314420  0.75126672  1
  Zr  Zr57  1  0.92224792  0.10275623  0.89462709  1
  Zr  Zr58  1  0.69566123  0.70249376  0.86730465  1
  Zr  Zr59  1  0.90938468  0.89086655  0.87193653  1
  Zr  Zr60  1  0.28988894  0.69614037  0.87592300  1
  Zr  Zr61  1  0.41020346  0.40228582  0.00196093  1
  Zr  Zr62  1  0.69694227  0.29666514  0.85678398  1
  Zr  Zr63  1  0.09389545  0.08745768  0.13064310  1
  Zr  Zr64  1  0.80961930  0.20345832  0.75120460  1
  Zr  Zr65  1  0.09849665  0.70328547  0.37395336  1
  Zr  Zr66  1  0.59009720  0.19036843  -0.00358294  1
  Zr  Zr67  1  0.68842037  0.70532292  0.62119960  1
  Zr  Zr68  1  0.70423618  0.49688206  0.87581141  1
  Zr  Zr69  1  0.49114986  0.87852004  0.63971472  1
  Zr  Zr70  1  0.79930344  0.61215745  0.27064902  1
  Zr  Zr71  1  0.69638329  0.10022375  0.63625300  1
  Zr  Zr72  1  0.79631109  0.81338953  0.48806779  1
  Zr  Zr73  1  0.68263687  0.30148464  0.13698171  1
  Zr  Zr74  1  0.48690975  0.68265177  0.87801980  1
  Zr  Zr75  1  0.30855507  0.30600999  0.61720558  1
  Zr  Zr76  1  0.20157536  0.20068303  0.75693508  1
  Zr  Zr77  1  0.40974772  0.41407076  0.74354638  1
  Zr  Zr78  1  0.68949932  0.30802757  0.62631545  1
  Zr  Zr79  1  0.89595444  0.31598696  0.11310602  1
  Ta  Ta80  1  0.19873211  0.20520532  0.00198250  1
  Ta  Ta81  1  0.29264405  0.88891596  0.63653148  1
  Ta  Ta82  1  0.59223847  0.19870793  0.26729095  1
  Ta  Ta83  1  0.50568151  0.09219029  0.85947142  1
  Ta  Ta84  1  0.68945291  0.89831822  0.86403249  1
  Ta  Ta85  1  0.80781331  0.61505189  -0.00725343  1
  Ta  Ta86  1  0.50284151  0.08296984  0.63261382  1
  Ta  Ta87  1  0.21559614  0.60577606  0.49027741  1
  Ta  Ta88  1  0.90376225  0.91789338  0.62065126  1
  Ta  Ta89  1  0.59890582  -0.01085560  -0.00966132  1
  Ta  Ta90  1  0.39925505  0.78866965  0.49757416  1
  Ta  Ta91  1  0.59516489  0.40019936  0.27616640  1
  Ta  Ta92  1  0.79228411  -0.00342579  0.26578611  1
  Ta  Ta93  1  0.10816364  0.50294569  0.13476028  1
  Ta  Ta94  1  0.20695599  0.39212080  0.00951850  1
  Ta  Ta95  1  0.69708534  0.50508296  0.61721900  1
  Ta  Ta96  1  0.39427799  0.19380419  0.26457835  1
  Ta  Ta97  1  0.91056087  0.30189348  0.37617241  1
  Ta  Ta98  1  0.39315102  -0.00857577  0.75794989  1
  Ta  Ta99  1  0.40843573  -0.02291118  0.50200423  1
  Ta  Ta100  1  0.20219762  0.59545991  0.25455373  1
  Ta  Ta101  1  0.50383836  0.90409821  0.12887590  1
  Ta  Ta102  1  0.00800036  0.19799003  0.49523955  1
  Ta  Ta103  1  0.10102254  0.30051757  0.37698371  1
  Ta  Ta104  1  0.28912935  0.69483697  0.13194200  1
  Ta  Ta105  1  0.40277335  0.79897718  0.23690299  1
  Ta  Ta106  1  0.08763276  0.09429664  0.61466084  1
  Ta  Ta107  1  0.59175659  0.57970652  0.74262705  1
  Ta  Ta108  1  0.90233187  0.31630346  0.89000641  1
  Ta  Ta109  1  0.59987858  0.80055978  0.00582105  1
  Ta  Ta110  1  0.91610085  0.91130674  0.15218495  1
  Ta  Ta111  1  0.30809740  0.70565982  0.36344585  1
  Ta  Ta112  1  0.10456822  0.50223938  0.37358016  1
  Ta  Ta113  1  0.19788105  0.41289286  0.75324919  1
  Ta  Ta114  1  0.29109257  0.90105491  0.12998160  1
  Ta  Ta115  1  0.18963096  0.79799591  0.01296612  1
  Ta  Ta116  1  0.40182914  0.59768789  0.49312497  1
  Ta  Ta117  1  0.00449635  0.40388556  0.49014119  1
  Ta  Ta118  1  0.50488561  0.30514219  0.85966571  1
  Ta  Ta119  1  0.00322865  0.20923694  0.24600506  1
  Ti  Ti120  1  0.90657052  0.50701035  0.61525795  1
  Ti  Ti121  1  0.10406999  0.10565456  0.36941143  1
  Ti  Ti122  1  0.49970687  0.70355043  0.37237233  1
  Ti  Ti123  1  0.02111765  0.41486189  0.00722465  1
  Ti  Ti124  1  0.20498134  0.40038373  0.25351141  1
  Ti  Ti125  1  0.00748350  0.58635709  0.74491881  1
  Ti  Ti126  1  0.59240140  0.60206198  0.49404784  1
  Ti  Ti127  1  0.67231642  0.91085290  0.36854437  1
  Ti  Ti128  1  0.20439459  0.00162911  0.25876645  1
  Ti  Ti129  1  0.09000944  0.70160398  0.13650302  1
  Ti  Ti130  1  0.20587152  0.60011206  0.75048229  1
  Ti  Ti131  1  0.19687445  0.80184865  0.24874601  1
  Ti  Ti132  1  0.90976443  0.72267513  0.37419799  1
  Ti  Ti133  1  0.68873029  0.71334640  0.38086137  1
  Ti  Ti134  1  0.60069364  0.79544311  0.24406143  1
  Ti  Ti135  1  0.59705193  0.40610265  0.48462537  1
  Ti  Ti136  1  0.50436565  0.29208189  0.61581748  1
  Ti  Ti137  1  0.58495726  0.81143965  0.49762437  1
  Ti  Ti138  1  0.69849009  0.29923372  0.37969886  1
  Ti  Ti139  1  0.40520553  0.40513696  0.48383885  1
  Ti  Ti140  1  0.31064599  0.70338115  0.62892047  1
  Ti  Ti141  1  0.00217563  0.60571200  0.25603779  1
  Ti  Ti142  1  0.69291401  0.09531446  0.86437591  1
  Ti  Ti143  1  0.58544307  0.78013884  0.75060430  1
  Ti  Ti144  1  0.91146992  0.50809295  0.37885161  1
  Ti  Ti145  1  0.49800418  0.88633988  0.86751998  1
  Ti  Ti146  1  0.30029543  0.30642905  0.87263021  1
  Ti  Ti147  1  0.79270582  0.79726319  -0.00865229  1
  Ti  Ti148  1  0.00738992  0.81287622  0.74775483  1
  Ti  Ti149  1  0.29486543  0.10096428  0.87645879  1
  Ti  Ti150  1  0.31632894  0.90365612  0.36131097  1
  Ti  Ti151  1  0.50470530  0.49266015  0.61069397  1
  Ti  Ti152  1  0.01370476  0.20816733  0.01048040  1
  Ti  Ti153  1  0.49625020  0.29198603  0.38369287  1
  Ti  Ti154  1  0.00661724  0.60738704  0.49529366  1
  Ti  Ti155  1  0.29998576  0.49424213  0.12608150  1
  Ti  Ti156  1  0.30355671  0.51001826  0.62147714  1
  Ti  Ti157  1  0.40734205  0.60658766  0.73761645  1
  Ti  Ti158  1  0.20301178  0.19957157  0.48925226  1
  Ti  Ti159  1  0.80633121  0.80234429  0.74828400  1
  Mo  Mo160  1  0.39340076  0.79074027  0.75067146  1
  Mo  Mo161  1  0.38933250  0.59712482  0.02631756  1
  Mo  Mo162  1  0.59330921  -0.01014084  0.76115626  1
  Mo  Mo163  1  0.90842140  0.09786071  0.61167803  1
  Mo  Mo164  1  0.49997975  0.50239002  0.38154922  1
  Mo  Mo165  1  0.09584960  0.89438727  0.87764218  1
  Mo  Mo166  1  0.69451944  0.10016998  0.36632792  1
  Mo  Mo167  1  0.60137894  0.40009515  0.73496396  1
  Mo  Mo168  1  0.10548832  0.30694429  0.12113609  1
  Mo  Mo169  1  0.49620606  0.68144443  0.61915183  1
  Mo  Mo170  1  0.89477441  0.89975857  0.36040087  1
  Mo  Mo171  1  0.10676751  0.89210593  0.14242303  1
  Mo  Mo172  1  0.19550732  0.79192058  0.74345834  1
  Mo  Mo173  1  0.49341258  0.87388392  0.36873932  1
  Mo  Mo174  1  0.29746915  0.09154643  0.37030709  1
  Mo  Mo175  1  -0.00581219  0.80200108  0.50125989  1
  Mo  Mo176  1  0.00555018  0.00941798  0.25416242  1
  Mo  Mo177  1  0.78911189  0.80563462  0.27273764  1
  Mo  Mo178  1  0.11540639  0.50302802  0.87178848  1
  Mo  Mo179  1  -0.00158001  0.00097508  0.74567346  1
  Mo  Mo180  1  0.00094480  0.79805539  0.24597659  1
  Mo  Mo181  1  0.69193166  0.50805107  0.38863917  1
  Mo  Mo182  1  0.00661191  0.40755381  0.75023040  1
  Mo  Mo183  1  0.49380564  0.29079009  0.14584523  1
  Mo  Mo184  1  0.69606147  0.69991143  0.12041104  1
  Mo  Mo185  1  0.30102177  0.29406441  0.38381972  1
  Mo  Mo186  1  0.58988393  -0.01267929  0.50402786  1
  Mo  Mo187  1  0.39022543  -0.01014386  0.24215603  1
  Mo  Mo188  1  0.89671048  0.70268305  0.86872230  1
  Mo  Mo189  1  0.80786168  0.40567359  -0.00457116  1
  Mo  Mo190  1  -0.00675812  0.00427213  0.49573092  1
  Mo  Mo191  1  0.59670209  -0.01243988  0.24565270  1
  Mo  Mo192  1  0.50857140  0.49253771  0.86936082  1
  Mo  Mo193  1  0.29976883  0.50855012  0.37231323  1
  Mo  Mo194  1  -0.00272535  -0.00592893  0.01103684  1
  Mo  Mo195  1  0.30589711  0.30269636  0.12635690  1
  Mo  Mo196  1  0.59156688  0.19488951  0.74351957  1
  Mo  Mo197  1  0.50069898  0.70155722  0.13015573  1
  Mo  Mo198  1  0.00447254  0.61460597  0.00888951  1
  Mo  Mo199  1  0.10040803  0.10664656  0.88987953  1
