# generated using pymatgen
data_HfZrTaTiMo
_symmetry_space_group_name_H-M   'P 1'
_cell_length_a   15.23222479
_cell_length_b   15.19985231
_cell_length_c   16.83963953
_cell_angle_alpha   89.98148583
_cell_angle_beta   90.00469100
_cell_angle_gamma   89.90529643
_symmetry_Int_Tables_number   1
_chemical_formula_structural   HfZrTaTiMo
_chemical_formula_sum   'Hf40 Zr40 Ta40 Ti40 Mo40'
_cell_volume   3898.83522930
_cell_formula_units_Z   40
loop_
 _symmetry_equiv_pos_site_id
 _symmetry_equiv_pos_as_xyz
  1  'x, y, z'
loop_
 _atom_site_type_symbol
 _atom_site_label
 _atom_site_symmetry_multiplicity
 _atom_site_fract_x
 _atom_site_fract_y
 _atom_site_fract_z
 _atom_site_occupancy
  Hf  Hf0  1  0.40136282  0.17405197  0.25122358  1
  Hf  Hf1  1  0.09497695  0.10673431  0.63006996  1
  Hf  Hf2  1  0.09439105  0.70063404  0.62864348  1
  Hf  Hf3  1  0.90771336  0.49284104  0.62223196  1
  Hf  Hf4  1  0.21414334  -0.00320415  0.51893522  1
  Hf  Hf5  1  0.79739266  0.40035577  0.02029164  1
  Hf  Hf6  1  -0.01577954  0.40402262  0.25255480  1
  Hf  Hf7  1  0.80279257  0.60457007  0.73882537  1
  Hf  Hf8  1  0.61209307  -0.01206649  0.74046595  1
  Hf  Hf9  1  0.72094292  0.10173242  0.87760802  1
  Hf  Hf10  1  0.89661187  0.68675035  0.12955933  1
  Hf  Hf11  1  0.01792406  0.00548673  0.00461012  1
  Hf  Hf12  1  0.49906877  0.71181246  0.14150825  1
  Hf  Hf13  1  0.21402680  0.00351926  0.74681010  1
  Hf  Hf14  1  0.10800955  0.11350044  0.87383056  1
  Hf  Hf15  1  0.00582516  0.38976559  0.48747172  1
  Hf  Hf16  1  0.09066381  0.89835716  0.63785521  1
  Hf  Hf17  1  0.18514023  0.81979196  0.23991950  1
  Hf  Hf18  1  0.10513752  0.51158245  0.37316061  1
  Hf  Hf19  1  0.89639243  0.49293567  0.87358441  1
  Hf  Hf20  1  0.20161919  0.38372557  -0.00010036  1
  Hf  Hf21  1  0.60583241  0.59980608  0.00546979  1
  Hf  Hf22  1  0.39108433  0.80705677  0.00936832  1
  Hf  Hf23  1  0.30099188  0.49842473  0.36285950  1
  Hf  Hf24  1  0.11544029  0.08770154  0.37086465  1
  Hf  Hf25  1  0.20482704  0.39710367  0.76113751  1
  Hf  Hf26  1  0.30662999  0.10694364  0.38964989  1
  Hf  Hf27  1  0.69535091  0.70174157  0.36424509  1
  Hf  Hf28  1  0.51136973  0.27398512  0.13049898  1
  Hf  Hf29  1  0.19793440  0.39876458  0.23481825  1
  Hf  Hf30  1  0.69661221  0.49352451  0.35348945  1
  Hf  Hf31  1  0.79269608  0.59740112  0.50694824  1
  Hf  Hf32  1  0.08355203  0.50306233  0.11113944  1
  Hf  Hf33  1  0.50419328  0.10096246  0.62528408  1
  Hf  Hf34  1  -0.01148260  0.19302680  0.48545538  1
  Hf  Hf35  1  0.78550316  0.00438625  0.24001117  1
  Hf  Hf36  1  0.68746821  0.90013204  0.88377194  1
  Hf  Hf37  1  0.10191242  0.90276859  0.87113454  1
  Hf  Hf38  1  0.89250095  0.90616085  0.88885499  1
  Hf  Hf39  1  0.01191882  -0.01464475  0.49444611  1
  Zr  Zr40  1  0.71398783  0.10728720  0.62253452  1
  Zr  Zr41  1  -0.01663796  0.79787173  0.75731246  1
  Zr  Zr42  1  0.03017333  -0.01455928  0.24168292  1
  Zr  Zr43  1  0.91479530  0.11210038  0.13524683  1
  Zr  Zr44  1  0.52286984  0.49302240  0.14648813  1
  Zr  Zr45  1  0.08786873  0.29359469  0.12431727  1
  Zr  Zr46  1  0.19914611  0.21108595  0.50882123  1
  Zr  Zr47  1  0.40027475  0.59809589  0.02103021  1
  Zr  Zr48  1  0.78327947  0.79348307  0.01138854  1
  Zr  Zr49  1  0.88794725  0.29097618  0.88068109  1
  Zr  Zr50  1  0.58494303  0.80310807  0.48870068  1
  Zr  Zr51  1  0.69270364  0.69309650  0.14973471  1
  Zr  Zr52  1  0.39033660  0.38171485  0.23848362  1
  Zr  Zr53  1  0.20058378  0.80947204  -0.00548161  1
  Zr  Zr54  1  0.89135058  0.49657036  0.38009255  1
  Zr  Zr55  1  0.60326119  0.20425257  0.75791567  1
  Zr  Zr56  1  0.81149813  0.01216090  0.49569893  1
  Zr  Zr57  1  0.28462030  0.70279478  0.36572197  1
  Zr  Zr58  1  0.20562426  0.59756694  0.75585573  1
  Zr  Zr59  1  0.50313820  0.08953562  0.39407622  1
  Zr  Zr60  1  0.59536230  0.40323088  0.50368863  1
  Zr  Zr61  1  0.59374735  0.40076139  0.74137919  1
  Zr  Zr62  1  0.58747307  0.82921941  0.26179858  1
  Zr  Zr63  1  0.08593057  0.72081208  0.11076486  1
  Zr  Zr64  1  0.40671133  0.38799575  0.01351762  1
  Zr  Zr65  1  0.21005581  0.60713866  0.50692410  1
  Zr  Zr66  1  0.79540224  0.01146030  0.01815289  1
  Zr  Zr67  1  0.91279297  0.89388228  0.36637745  1
  Zr  Zr68  1  0.49766406  0.69650519  0.87479177  1
  Zr  Zr69  1  0.21069765  0.79737070  0.75777653  1
  Zr  Zr70  1  0.20739443  0.20833266  0.74938799  1
  Zr  Zr71  1  0.69153855  0.71163484  0.62075709  1
  Zr  Zr72  1  0.58571757  0.59642024  0.49680037  1
  Zr  Zr73  1  0.89033006  0.70121030  0.37379903  1
  Zr  Zr74  1  0.10583167  0.49577591  0.62552220  1
  Zr  Zr75  1  0.00652563  0.20542282  0.26431155  1
  Zr  Zr76  1  0.70167032  0.50251139  0.86707780  1
  Zr  Zr77  1  0.59052296  0.20034370  -0.01834188  1
  Zr  Zr78  1  0.31180102  0.49892142  0.88255689  1
  Zr  Zr79  1  0.91319576  0.88863941  0.12196368  1
  Ta  Ta80  1  0.50269231  0.49192474  0.87100479  1
  Ta  Ta81  1  0.08976477  0.30521756  0.62557788  1
  Ta  Ta82  1  0.79501262  0.59338166  0.00724198  1
  Ta  Ta83  1  0.20448668  0.60304599  0.00860110  1
  Ta  Ta84  1  0.78425115  0.21535475  0.23527959  1
  Ta  Ta85  1  0.48060549  0.69526431  0.35780027  1
  Ta  Ta86  1  -0.00952415  0.60119298  -0.00994358  1
  Ta  Ta87  1  0.67139295  0.11195358  0.12553148  1
  Ta  Ta88  1  0.00097940  0.60580146  0.25125185  1
  Ta  Ta89  1  0.38859968  0.78843726  0.50292684  1
  Ta  Ta90  1  0.30410455  0.90525492  0.38197127  1
  Ta  Ta91  1  0.70340214  0.91202278  0.38157072  1
  Ta  Ta92  1  0.48966003  0.29939776  0.62511000  1
  Ta  Ta93  1  0.08740274  0.71759282  0.37428396  1
  Ta  Ta94  1  0.80346954  0.38720744  0.73801940  1
  Ta  Ta95  1  0.22936774  0.01022784  -0.00925013  1
  Ta  Ta96  1  0.49259049  0.89218623  0.86137638  1
  Ta  Ta97  1  0.49604747  0.49606444  0.35600710  1
  Ta  Ta98  1  0.41710543  -0.00044587  -0.01359103  1
  Ta  Ta99  1  0.81193439  -0.00358696  0.74830664  1
  Ta  Ta100  1  0.00042169  0.59631289  0.76164088  1
  Ta  Ta101  1  0.00126299  0.60746547  0.49857846  1
  Ta  Ta102  1  0.60520257  -0.00268535  0.50561316  1
  Ta  Ta103  1  0.00289234  0.20884696  -0.00481991  1
  Ta  Ta104  1  0.39961240  0.40522081  0.49539327  1
  Ta  Ta105  1  0.19555506  0.60794982  0.22697122  1
  Ta  Ta106  1  0.31787914  0.11019600  0.62549740  1
  Ta  Ta107  1  0.40101508  0.59540251  0.49677799  1
  Ta  Ta108  1  0.09747532  0.49678463  0.88786580  1
  Ta  Ta109  1  0.13669916  0.10426363  0.12300104  1
  Ta  Ta110  1  0.70533581  0.11333360  0.37650737  1
  Ta  Ta111  1  0.78792191  0.80866455  0.75131725  1
  Ta  Ta112  1  0.58862187  0.60991612  0.74051803  1
  Ta  Ta113  1  0.21199228  0.40148764  0.49953220  1
  Ta  Ta114  1  0.69647349  0.70231768  0.86940575  1
  Ta  Ta115  1  0.88769728  0.69839361  0.88063256  1
  Ta  Ta116  1  0.38233516  0.81383055  0.24243628  1
  Ta  Ta117  1  0.60613518  0.20585388  0.50046541  1
  Ta  Ta118  1  0.38536094  0.18876888  -0.01732579  1
  Ta  Ta119  1  -0.00434373  0.20823673  0.75545454  1
  Ti  Ti120  1  0.79683499  0.20645385  0.02067226  1
  Ti  Ti121  1  0.31912042  0.68611972  0.63707354  1
  Ti  Ti122  1  0.00151448  0.39542636  0.75549746  1
  Ti  Ti123  1  0.50468933  0.08997544  0.86284179  1
  Ti  Ti124  1  0.90640783  0.09813634  0.62577243  1
  Ti  Ti125  1  0.40247317  0.21551009  0.50176104  1
  Ti  Ti126  1  0.40367182  -0.00666426  0.74551982  1
  Ti  Ti127  1  0.69618360  0.31078315  0.87379927  1
  Ti  Ti128  1  0.87462338  0.29363613  0.37291319  1
  Ti  Ti129  1  0.69278593  0.30143311  0.37153232  1
  Ti  Ti130  1  0.18937032  0.80627420  0.50273152  1
  Ti  Ti131  1  0.50396868  0.87745045  0.63474728  1
  Ti  Ti132  1  0.79497425  0.38878967  0.50594917  1
  Ti  Ti133  1  0.81032683  0.19462413  0.74990369  1
  Ti  Ti134  1  0.40146646  0.21104445  0.76379900  1
  Ti  Ti135  1  0.89421134  0.09817054  0.35757455  1
  Ti  Ti136  1  0.58474881  0.80863604  0.00518485  1
  Ti  Ti137  1  0.80021613  0.80750842  0.24483429  1
  Ti  Ti138  1  0.41025929  -0.01761226  0.51557822  1
  Ti  Ti139  1  0.70204381  0.29773260  0.62362479  1
  Ti  Ti140  1  0.47764474  0.50363363  0.63478613  1
  Ti  Ti141  1  0.31055724  0.88575876  0.63027295  1
  Ti  Ti142  1  0.89540884  0.89654615  0.61923126  1
  Ti  Ti143  1  0.58763066  0.01845244  0.25705114  1
  Ti  Ti144  1  0.70921516  0.89853385  0.61202601  1
  Ti  Ti145  1  0.89664642  0.71132013  0.61399982  1
  Ti  Ti146  1  0.30543008  0.31404663  0.62805522  1
  Ti  Ti147  1  0.09435487  0.69599934  0.88327415  1
  Ti  Ti148  1  0.28859858  0.26251337  0.12145140  1
  Ti  Ti149  1  0.49811633  0.29672856  0.37093370  1
  Ti  Ti150  1  0.38578127  0.59804650  0.23129074  1
  Ti  Ti151  1  0.67615600  0.91003652  0.12149835  1
  Ti  Ti152  1  0.23606314  0.00860718  0.24283563  1
  Ti  Ti153  1  0.30931980  0.70326671  0.87195735  1
  Ti  Ti154  1  0.48625714  0.92454658  0.12655181  1
  Ti  Ti155  1  0.12913451  0.29997186  0.36777406  1
  Ti  Ti156  1  -0.00697947  0.01197898  0.75981768  1
  Ti  Ti157  1  0.89899606  0.28809726  0.62050645  1
  Ti  Ti158  1  0.60322980  0.40146610  0.00206431  1
  Ti  Ti159  1  0.69792280  0.49714976  0.62895039  1
  Mo  Mo160  1  0.89864347  0.29944050  0.12085879  1
  Mo  Mo161  1  0.79749705  0.80993658  0.49850290  1
  Mo  Mo162  1  0.79863821  0.21314121  0.49433949  1
  Mo  Mo163  1  0.39934851  0.39171688  0.75327798  1
  Mo  Mo164  1  0.10857503  0.91691269  0.11202997  1
  Mo  Mo165  1  0.49889454  0.09247603  0.11942870  1
  Mo  Mo166  1  0.60249165  0.37976555  0.25722964  1
  Mo  Mo167  1  0.20061539  0.19184033  -0.00794573  1
  Mo  Mo168  1  0.60384837  0.79916639  0.74798586  1
  Mo  Mo169  1  0.31378150  0.89978296  0.86665605  1
  Mo  Mo170  1  0.12155248  0.89396782  0.38158125  1
  Mo  Mo171  1  0.40342734  0.59076053  0.75372678  1
  Mo  Mo172  1  0.80497115  0.59000825  0.24600441  1
  Mo  Mo173  1  0.49590587  0.30960119  0.87791452  1
  Mo  Mo174  1  0.48951344  0.89601407  0.38393112  1
  Mo  Mo175  1  0.48962819  0.69766269  0.62549970  1
  Mo  Mo176  1  0.40708715  0.79265056  0.74408644  1
  Mo  Mo177  1  -0.00431645  0.39977956  -0.00546843  1
  Mo  Mo178  1  0.59334517  -0.00397408  -0.00416209  1
  Mo  Mo179  1  0.21188279  0.19803635  0.25243376  1
  Mo  Mo180  1  0.70629123  0.49991112  0.14556284  1
  Mo  Mo181  1  -0.00131165  0.79562953  0.50730882  1
  Mo  Mo182  1  0.32455410  0.08974044  0.11866432  1
  Mo  Mo183  1  0.29735507  0.91536832  0.12149597  1
  Mo  Mo184  1  0.90532893  0.09976023  0.87603015  1
  Mo  Mo185  1  0.90065286  0.50227304  0.12420149  1
  Mo  Mo186  1  0.30828387  0.30298054  0.37779203  1
  Mo  Mo187  1  0.30855526  0.49325426  0.62533495  1
  Mo  Mo188  1  0.09223891  0.30804619  0.87839146  1
  Mo  Mo189  1  -0.00565094  0.79656687  -0.01670165  1
  Mo  Mo190  1  0.68774222  0.30524203  0.12562158  1
  Mo  Mo191  1  0.59113383  0.60201927  0.26156202  1
  Mo  Mo192  1  0.29119068  0.49944300  0.12219760  1
  Mo  Mo193  1  0.31600802  0.09248944  0.86232581  1
  Mo  Mo194  1  0.29516168  0.70399082  0.13059096  1
  Mo  Mo195  1  0.30133179  0.29185139  0.87912265  1
  Mo  Mo196  1  0.00007236  0.79602719  0.24858574  1
  Mo  Mo197  1  0.60134397  0.19359129  0.26305242  1
  Mo  Mo198  1  0.41056070  -0.01473216  0.25883447  1
  Mo  Mo199  1  0.79864629  0.39364901  0.23412203  1
