# generated using pymatgen
data_HfZrTaTiMo
_symmetry_space_group_name_H-M   'P 1'
_cell_length_a   15.21056523
_cell_length_b   15.21098950
_cell_length_c   16.85076378
_cell_angle_alpha   90.02616679
_cell_angle_beta   90.02211745
_cell_angle_gamma   89.99042703
_symmetry_Int_Tables_number   1
_chemical_formula_structural   HfZrTaTiMo
_chemical_formula_sum   'Hf40 Zr40 Ta40 Ti40 Mo40'
_cell_volume   3898.72251505
_cell_formula_units_Z   40
loop_
 _symmetry_equiv_pos_site_id
 _symmetry_equiv_pos_as_xyz
  1  'x, y, z'
loop_
 _atom_site_type_symbol
 _atom_site_label
 _atom_site_symmetry_multiplicity
 _atom_site_fract_x
 _atom_site_fract_y
 _atom_site_fract_z
 _atom_site_occupancy
  Hf  Hf0  1  0.49068422  0.51098118  0.37482056  1
  Hf  Hf1  1  0.10935026  0.09126085  0.63466386  1
  Hf  Hf2  1  0.20592900  0.39819666  0.23363638  1
  Hf  Hf3  1  0.30772580  0.69534910  0.38340229  1
  Hf  Hf4  1  0.38811062  0.38664404  0.74328141  1
  Hf  Hf5  1  0.81847249  0.81322736  0.00418954  1
  Hf  Hf6  1  0.41094321  0.80576581  0.25345611  1
  Hf  Hf7  1  0.19544484  0.39047176  0.00542093  1
  Hf  Hf8  1  0.51143099  0.91658011  0.13128899  1
  Hf  Hf9  1  0.39860733  0.58732634  0.74136864  1
  Hf  Hf10  1  0.59854874  0.20031318  0.75333043  1
  Hf  Hf11  1  0.59586181  0.41206337  0.49442823  1
  Hf  Hf12  1  0.10696331  0.48906009  0.38284301  1
  Hf  Hf13  1  0.49197718  0.30719551  0.37238062  1
  Hf  Hf14  1  0.09693844  0.88896634  0.64419686  1
  Hf  Hf15  1  0.89686926  0.89479994  0.85827126  1
  Hf  Hf16  1  0.01287769  -0.01461466  0.50670569  1
  Hf  Hf17  1  0.10762525  0.31299536  0.62824653  1
  Hf  Hf18  1  0.09787477  0.31551064  0.86041412  1
  Hf  Hf19  1  0.68889885  0.10288330  0.61394389  1
  Hf  Hf20  1  0.20006710  0.60337065  0.25395868  1
  Hf  Hf21  1  0.49734477  0.91283951  0.63496742  1
  Hf  Hf22  1  0.50107139  0.70483209  0.11635825  1
  Hf  Hf23  1  0.08399652  0.70850274  0.38111865  1
  Hf  Hf24  1  0.18171408  0.20315122  0.24971952  1
  Hf  Hf25  1  0.40550832  0.79346421  0.50953021  1
  Hf  Hf26  1  0.88155988  0.09822650  0.87590108  1
  Hf  Hf27  1  0.30494512  0.51621213  0.10213612  1
  Hf  Hf28  1  0.38571723  0.19352964  0.24420242  1
  Hf  Hf29  1  0.49127131  0.08472791  0.36905843  1
  Hf  Hf30  1  0.69868885  0.92321696  0.87764082  1
  Hf  Hf31  1  0.50812167  0.28427484  0.12587015  1
  Hf  Hf32  1  0.70352833  0.50499426  0.12367726  1
  Hf  Hf33  1  0.60778104  0.39184928  -0.00832342  1
  Hf  Hf34  1  0.20014103  0.00317661  0.25467399  1
  Hf  Hf35  1  0.69466288  0.50619372  0.62652873  1
  Hf  Hf36  1  0.60695173  0.17777015  -0.00794239  1
  Hf  Hf37  1  0.39995658  0.19415076  0.50661385  1
  Hf  Hf38  1  0.29494864  0.90559558  0.64709321  1
  Hf  Hf39  1  0.89365604  0.27172150  0.37731341  1
  Zr  Zr40  1  0.40104413  0.00035805  -0.00608594  1
  Zr  Zr41  1  0.39929610  0.80000899  -0.00851111  1
  Zr  Zr42  1  0.29564692  0.89589188  0.12663316  1
  Zr  Zr43  1  0.69257701  0.89697289  0.61172000  1
  Zr  Zr44  1  0.70825735  0.31056059  0.63047422  1
  Zr  Zr45  1  0.50550403  0.29727910  0.62083725  1
  Zr  Zr46  1  0.30006504  0.49334176  0.88628136  1
  Zr  Zr47  1  0.09679117  0.89644202  0.12875782  1
  Zr  Zr48  1  -0.01253775  0.20861722  -0.01000909  1
  Zr  Zr49  1  0.71185279  0.90681218  0.11758086  1
  Zr  Zr50  1  0.91707468  0.69278883  0.86945656  1
  Zr  Zr51  1  0.51078555  0.50409085  0.11472804  1
  Zr  Zr52  1  0.21295067  0.20504798  0.74952067  1
  Zr  Zr53  1  0.29394222  0.09744585  0.11528580  1
  Zr  Zr54  1  0.60305671  0.59766689  0.75943858  1
  Zr  Zr55  1  0.71914394  0.29501326  0.12891477  1
  Zr  Zr56  1  0.89307431  0.49557293  0.13318349  1
  Zr  Zr57  1  0.51031433  0.71091207  0.64223583  1
  Zr  Zr58  1  0.30878665  0.90814266  0.37626483  1
  Zr  Zr59  1  0.61728034  0.19998627  0.48030166  1
  Zr  Zr60  1  0.49204639  0.09508320  0.86930793  1
  Zr  Zr61  1  0.09203157  0.51376940  0.11790298  1
  Zr  Zr62  1  0.80384137  0.61153473  0.49633728  1
  Zr  Zr63  1  0.91214399  0.49214297  0.86681149  1
  Zr  Zr64  1  0.90548834  0.49996271  0.37437843  1
  Zr  Zr65  1  0.61374316  0.20378672  0.26874660  1
  Zr  Zr66  1  0.00062636  0.38116860  0.25014312  1
  Zr  Zr67  1  0.08450278  0.09279081  0.11430908  1
  Zr  Zr68  1  0.70203050  0.70242152  0.11623168  1
  Zr  Zr69  1  0.28736305  0.30610663  0.38363766  1
  Zr  Zr70  1  0.19100177  0.81840999  0.50076245  1
  Zr  Zr71  1  0.71325680  0.49796488  0.87692397  1
  Zr  Zr72  1  0.20360465  0.60047172  0.50437843  1
  Zr  Zr73  1  0.39744512  0.39958582  0.23393040  1
  Zr  Zr74  1  0.81272370  0.01357732  0.50120941  1
  Zr  Zr75  1  0.68706557  0.09353779  0.13622564  1
  Zr  Zr76  1  0.71114020  0.71551796  0.87148898  1
  Zr  Zr77  1  0.39761655  0.60419910  0.24463285  1
  Zr  Zr78  1  0.01740874  0.79394940  -0.00117827  1
  Zr  Zr79  1  0.19260283  0.58230756  0.74903659  1
  Ta  Ta80  1  -0.00950065  0.00441215  0.74651262  1
  Ta  Ta81  1  0.51651480  0.88890384  0.38734728  1
  Ta  Ta82  1  0.29418175  0.70284109  0.63296394  1
  Ta  Ta83  1  0.80027680  0.61652741  0.26128864  1
  Ta  Ta84  1  0.59661045  0.60803344  -0.01528240  1
  Ta  Ta85  1  0.39179860  0.40326399  0.51157837  1
  Ta  Ta86  1  0.19421911  0.19238472  0.50867014  1
  Ta  Ta87  1  0.79820292  0.39486517  0.49079742  1
  Ta  Ta88  1  0.18538104  -0.00592627  -0.02375858  1
  Ta  Ta89  1  0.69500793  0.51316048  0.37382108  1
  Ta  Ta90  1  0.49509108  0.30085342  0.87755522  1
  Ta  Ta91  1  0.49826351  0.89388575  0.85079076  1
  Ta  Ta92  1  0.79226463  0.81662533  0.25456074  1
  Ta  Ta93  1  0.88211990  0.10115540  0.12168991  1
  Ta  Ta94  1  0.19375648  0.78416866  0.76205124  1
  Ta  Ta95  1  0.59061349  0.40290865  0.76105140  1
  Ta  Ta96  1  0.59805247  0.61422076  0.50520389  1
  Ta  Ta97  1  0.49773456  0.70198217  0.86637154  1
  Ta  Ta98  1  0.62004253  -0.01989869  0.27266469  1
  Ta  Ta99  1  0.70966539  0.29061630  0.86787494  1
  Ta  Ta100  1  0.80249219  0.19031867  0.74039292  1
  Ta  Ta101  1  -0.01427708  0.80426436  0.24985544  1
  Ta  Ta102  1  0.30701421  0.29073401  0.88369885  1
  Ta  Ta103  1  0.79287210  0.39522206  0.26403544  1
  Ta  Ta104  1  0.81395391  0.38040792  -0.00305773  1
  Ta  Ta105  1  0.28749381  0.10027338  0.38359391  1
  Ta  Ta106  1  0.89783956  0.49299097  0.62605223  1
  Ta  Ta107  1  -0.01187221  0.18759092  0.51674690  1
  Ta  Ta108  1  0.89706243  0.88804937  0.63304738  1
  Ta  Ta109  1  0.09081417  0.28689821  0.39049209  1
  Ta  Ta110  1  0.51018290  0.70101435  0.38055475  1
  Ta  Ta111  1  0.90647697  0.70199917  0.13011399  1
  Ta  Ta112  1  0.28458147  0.48100724  0.62113379  1
  Ta  Ta113  1  0.80999676  0.60156798  0.74102467  1
  Ta  Ta114  1  0.71230390  0.71117122  0.63167195  1
  Ta  Ta115  1  0.90358193  0.30332443  0.63518555  1
  Ta  Ta116  1  0.30011127  0.90277484  0.85510841  1
  Ta  Ta117  1  0.89667340  0.30316252  0.84944270  1
  Ta  Ta118  1  0.09122356  0.29239349  0.11836839  1
  Ta  Ta119  1  0.60599161  0.61528902  0.25505739  1
  Ti  Ti120  1  0.40483367  0.19293042  0.73848901  1
  Ti  Ti121  1  0.40223675  0.38878592  0.00772269  1
  Ti  Ti122  1  0.09500370  0.51173974  0.88418066  1
  Ti  Ti123  1  0.09342283  0.90606275  0.36921201  1
  Ti  Ti124  1  0.89623563  0.89163102  0.38333164  1
  Ti  Ti125  1  0.19679837  0.79725169  0.25826877  1
  Ti  Ti126  1  0.19103648  0.61963215  -0.00773202  1
  Ti  Ti127  1  0.73233679  0.10296608  0.37055540  1
  Ti  Ti128  1  -0.00538825  0.60484296  0.50210620  1
  Ti  Ti129  1  -0.01842781  -0.01076698  -0.00126273  1
  Ti  Ti130  1  -0.00509684  0.40334663  0.00314383  1
  Ti  Ti131  1  0.10341279  0.70328012  0.13132371  1
  Ti  Ti132  1  -0.00669635  0.39220086  0.50192739  1
  Ti  Ti133  1  0.00721507  0.60250336  0.74062449  1
  Ti  Ti134  1  0.29343548  0.70778739  0.11753460  1
  Ti  Ti135  1  0.09322146  0.89478514  0.85887682  1
  Ti  Ti136  1  0.29437059  0.09836866  0.86925390  1
  Ti  Ti137  1  0.19748731  0.19505676  -0.00872936  1
  Ti  Ti138  1  0.70000426  0.72683339  0.38296641  1
  Ti  Ti139  1  0.30736963  0.09377594  0.62846749  1
  Ti  Ti140  1  0.59679822  0.81184248  -0.01066007  1
  Ti  Ti141  1  0.79279391  0.00165961  0.73654925  1
  Ti  Ti142  1  0.49169554  0.49892835  0.88710383  1
  Ti  Ti143  1  0.09198554  0.09754348  0.86825177  1
  Ti  Ti144  1  0.81629605  0.59786484  0.00045656  1
  Ti  Ti145  1  0.39858538  -0.00121826  0.50587263  1
  Ti  Ti146  1  0.40758063  0.59284704  0.52176760  1
  Ti  Ti147  1  0.60214673  0.40973949  0.25508575  1
  Ti  Ti148  1  -0.00163632  0.60673101  0.25534262  1
  Ti  Ti149  1  0.20369951  0.80642789  -0.01985530  1
  Ti  Ti150  1  0.59864376  0.00885812  0.74685262  1
  Ti  Ti151  1  0.90663994  0.70371941  0.63027538  1
  Ti  Ti152  1  0.30310901  0.69536174  0.87114601  1
  Ti  Ti153  1  -0.01749498  0.00370640  0.25297454  1
  Ti  Ti154  1  0.08973333  0.50022301  0.61589621  1
  Ti  Ti155  1  0.09021762  0.09982794  0.38182910  1
  Ti  Ti156  1  -0.00106226  0.19852822  0.74411126  1
  Ti  Ti157  1  0.30143276  0.49594225  0.38319520  1
  Ti  Ti158  1  0.09552075  0.70119319  0.61995061  1
  Ti  Ti159  1  0.39829002  0.19961506  0.00708897  1
  Mo  Mo160  1  0.60675656  0.80741656  0.75713432  1
  Mo  Mo161  1  0.90318320  0.29386864  0.12803222  1
  Mo  Mo162  1  0.19149804  0.39638716  0.49825140  1
  Mo  Mo163  1  0.81058357  0.20839728  0.50959644  1
  Mo  Mo164  1  0.60960341  0.79639409  0.25588034  1
  Mo  Mo165  1  -0.00111390  0.18746752  0.24754543  1
  Mo  Mo166  1  0.80054340  0.80065587  0.74410528  1
  Mo  Mo167  1  0.79714332  0.01608754  -0.00065183  1
  Mo  Mo168  1  0.70010810  0.10192396  0.86303146  1
  Mo  Mo169  1  0.81850806  0.19222160  0.25006069  1
  Mo  Mo170  1  0.10822990  0.69403871  0.87346985  1
  Mo  Mo171  1  0.29645199  0.29121545  0.61644718  1
  Mo  Mo172  1  0.79646692  0.40052016  0.74614597  1
  Mo  Mo173  1  0.79742240  0.20324789  -0.00619290  1
  Mo  Mo174  1  0.39537962  0.01030587  0.74987067  1
  Mo  Mo175  1  0.59329417  -0.00791344  -0.00604751  1
  Mo  Mo176  1  0.29286263  0.29480304  0.10584180  1
  Mo  Mo177  1  0.49626316  0.49961562  0.62374235  1
  Mo  Mo178  1  0.81266117  0.80053048  0.50232505  1
  Mo  Mo179  1  0.49931710  0.09297993  0.62042792  1
  Mo  Mo180  1  0.40807413  0.00193057  0.25324096  1
  Mo  Mo181  1  0.70467626  0.31201053  0.37233732  1
  Mo  Mo182  1  0.59763749  0.00083842  0.48452610  1
  Mo  Mo183  1  0.00467758  0.41346776  0.73948446  1
  Mo  Mo184  1  0.89512046  0.70680122  0.36587841  1
  Mo  Mo185  1  0.60554791  0.79558131  0.50453409  1
  Mo  Mo186  1  0.91880141  0.08794945  0.37797504  1
  Mo  Mo187  1  -0.01361881  0.79284401  0.50469435  1
  Mo  Mo188  1  0.20096834  0.40339300  0.75565144  1
  Mo  Mo189  1  0.81021348  -0.00464894  0.26273558  1
  Mo  Mo190  1  0.70545054  0.90474939  0.39397745  1
  Mo  Mo191  1  0.50073358  0.09307279  0.14348518  1
  Mo  Mo192  1  0.20655435  0.00922161  0.50196372  1
  Mo  Mo193  1  0.90471184  0.90958436  0.12955823  1
  Mo  Mo194  1  0.39266479  0.79273777  0.75570354  1
  Mo  Mo195  1  0.00124185  0.78981289  0.74721319  1
  Mo  Mo196  1  0.18898168  0.00099419  0.77164512  1
  Mo  Mo197  1  0.90187764  0.09709698  0.63480782  1
  Mo  Mo198  1  0.40187481  0.60680205  -0.00895627  1
  Mo  Mo199  1  0.00069137  0.59978596  0.00814973  1
