# generated using pymatgen
data_HfZrTaTiMo
_symmetry_space_group_name_H-M   'P 1'
_cell_length_a   15.19553299
_cell_length_b   15.20323904
_cell_length_c   16.85588849
_cell_angle_alpha   90.02977278
_cell_angle_beta   89.97071584
_cell_angle_gamma   90.11071357
_symmetry_Int_Tables_number   1
_chemical_formula_structural   HfZrTaTiMo
_chemical_formula_sum   'Hf40 Zr40 Ta40 Ti40 Mo40'
_cell_volume   3894.06131256
_cell_formula_units_Z   40
loop_
 _symmetry_equiv_pos_site_id
 _symmetry_equiv_pos_as_xyz
  1  'x, y, z'
loop_
 _atom_site_type_symbol
 _atom_site_label
 _atom_site_symmetry_multiplicity
 _atom_site_fract_x
 _atom_site_fract_y
 _atom_site_fract_z
 _atom_site_occupancy
  Hf  Hf0  1  0.20376986  0.79700933  0.25509782  1
  Hf  Hf1  1  0.79866394  0.19719916  0.25011936  1
  Hf  Hf2  1  0.70380058  0.70662857  0.61428672  1
  Hf  Hf3  1  0.31162205  0.11108715  0.87981360  1
  Hf  Hf4  1  0.19343059  0.39171311  0.50771101  1
  Hf  Hf5  1  0.00162031  0.80062167  0.00361184  1
  Hf  Hf6  1  0.88600050  0.68984591  0.13731360  1
  Hf  Hf7  1  0.60526016  -0.00087015  0.25786689  1
  Hf  Hf8  1  0.91341818  0.09226082  0.11682136  1
  Hf  Hf9  1  0.48477558  0.30776536  0.13091139  1
  Hf  Hf10  1  -0.01095804  0.37957830  0.74528303  1
  Hf  Hf11  1  0.69308749  0.29480837  0.12294867  1
  Hf  Hf12  1  0.89972966  0.08226403  0.61314242  1
  Hf  Hf13  1  0.29936727  0.70489165  0.12223160  1
  Hf  Hf14  1  0.50872479  0.30137214  0.35559046  1
  Hf  Hf15  1  0.60526317  0.61312758  0.00404100  1
  Hf  Hf16  1  0.09860091  0.49293936  0.87541711  1
  Hf  Hf17  1  0.31149073  0.90895262  0.11061149  1
  Hf  Hf18  1  0.30187877  0.90939637  0.38889663  1
  Hf  Hf19  1  0.71752449  0.50130435  0.37794232  1
  Hf  Hf20  1  0.40582012  -0.00213830  0.74924838  1
  Hf  Hf21  1  0.69099693  0.07682712  0.87562460  1
  Hf  Hf22  1  0.01036794  0.01162589  0.26470696  1
  Hf  Hf23  1  0.40383000  0.61208046  0.00256753  1
  Hf  Hf24  1  0.00716353  -0.01668340  0.49074611  1
  Hf  Hf25  1  0.60200756  0.01786020  0.50402706  1
  Hf  Hf26  1  0.30175257  0.90794267  0.88752875  1
  Hf  Hf27  1  0.60128192  0.40463783  -0.00432537  1
  Hf  Hf28  1  0.40599370  0.80738081  0.25528480  1
  Hf  Hf29  1  0.89293221  0.67337598  0.37248551  1
  Hf  Hf30  1  0.62219763  0.60915677  0.24156972  1
  Hf  Hf31  1  0.31405677  0.89137083  0.61357282  1
  Hf  Hf32  1  0.79035106  0.59192997  0.00012768  1
  Hf  Hf33  1  0.18436281  0.58902559  0.50048265  1
  Hf  Hf34  1  -0.00441058  0.59824763  0.00092622  1
  Hf  Hf35  1  0.39497073  0.00273689  0.25134633  1
  Hf  Hf36  1  0.10038507  0.70331370  0.87293396  1
  Hf  Hf37  1  0.09667278  0.09837448  0.86196515  1
  Hf  Hf38  1  0.18175708  0.01018837  0.00636397  1
  Hf  Hf39  1  0.50783593  0.11924499  0.64050768  1
  Zr  Zr40  1  0.79534354  0.38280563  0.51150626  1
  Zr  Zr41  1  0.08911523  0.30916409  0.37727604  1
  Zr  Zr42  1  -0.01593497  0.60504276  0.74763042  1
  Zr  Zr43  1  0.38310423  0.20277460  0.25241610  1
  Zr  Zr44  1  0.08167834  0.71067659  0.62632337  1
  Zr  Zr45  1  0.49606760  0.50830489  0.87808593  1
  Zr  Zr46  1  0.80623664  -0.01468169  0.27044199  1
  Zr  Zr47  1  0.20315918  0.20566354  0.75252368  1
  Zr  Zr48  1  0.29075976  0.50938986  0.88578960  1
  Zr  Zr49  1  0.70811184  0.08550799  0.11499392  1
  Zr  Zr50  1  0.60849590  0.82712331  0.74133290  1
  Zr  Zr51  1  0.52507688  0.92315234  0.88132252  1
  Zr  Zr52  1  0.29710833  0.31609845  0.88944930  1
  Zr  Zr53  1  0.89038064  0.49174241  0.86910348  1
  Zr  Zr54  1  0.50174326  0.50301416  0.13109455  1
  Zr  Zr55  1  0.29054307  0.69536836  0.62050855  1
  Zr  Zr56  1  0.50424187  0.10684480  0.13203188  1
  Zr  Zr57  1  0.80775309  0.40498046  0.24712986  1
  Zr  Zr58  1  0.00531651  0.20387828  0.49992592  1
  Zr  Zr59  1  0.41440750  0.19988694  0.49383789  1
  Zr  Zr60  1  -0.00958255  0.79706814  0.26233775  1
  Zr  Zr61  1  0.39955622  0.41186776  0.74510828  1
  Zr  Zr62  1  0.18683851  0.80096151  0.49266224  1
  Zr  Zr63  1  0.58975244  0.19111432  -0.01409535  1
  Zr  Zr64  1  0.19708731  0.40525072  0.24264746  1
  Zr  Zr65  1  0.82668538  0.19051832  0.77106691  1
  Zr  Zr66  1  0.59653760  0.40781416  0.49042349  1
  Zr  Zr67  1  0.18699249  0.19228244  0.24537783  1
  Zr  Zr68  1  0.40426202  0.40713732  0.49952249  1
  Zr  Zr69  1  0.09885878  0.90321908  0.13261276  1
  Zr  Zr70  1  0.69019872  0.69226753  0.39715833  1
  Zr  Zr71  1  0.29489558  0.09154262  0.61930273  1
  Zr  Zr72  1  0.69946798  0.11875547  0.38277734  1
  Zr  Zr73  1  0.58825515  0.61255565  0.74451557  1
  Zr  Zr74  1  0.48583083  0.71415574  0.61236447  1
  Zr  Zr75  1  0.79872226  -0.01618916  0.75286295  1
  Zr  Zr76  1  0.89021174  0.89528423  0.12527272  1
  Zr  Zr77  1  0.39225179  0.60191393  0.25075661  1
  Zr  Zr78  1  0.20687442  0.81227282  0.75321911  1
  Zr  Zr79  1  0.30967134  0.29182583  0.62340245  1
  Ta  Ta80  1  0.52265964  0.32083156  0.64067017  1
  Ta  Ta81  1  0.39031787  0.61397683  0.75461091  1
  Ta  Ta82  1  0.41156689  0.79935643  0.76389339  1
  Ta  Ta83  1  0.90628552  0.89538961  0.87800130  1
  Ta  Ta84  1  0.29901807  0.49451099  0.11214270  1
  Ta  Ta85  1  0.00106913  0.18783417  -0.00781098  1
  Ta  Ta86  1  0.00509564  0.57538782  0.24325286  1
  Ta  Ta87  1  0.90928630  0.87993717  0.61778997  1
  Ta  Ta88  1  0.19508401  0.40533044  0.74188640  1
  Ta  Ta89  1  0.80522386  0.80814629  0.48738972  1
  Ta  Ta90  1  0.71470334  0.91535273  0.60890361  1
  Ta  Ta91  1  0.19277693  0.60679887  0.00669085  1
  Ta  Ta92  1  0.61924020  0.21499917  0.76378004  1
  Ta  Ta93  1  0.10110031  0.09727911  0.63099694  1
  Ta  Ta94  1  0.50875458  0.90672972  0.11643239  1
  Ta  Ta95  1  0.39457533  0.59628104  0.48936239  1
  Ta  Ta96  1  0.49373692  0.29730499  0.86891928  1
  Ta  Ta97  1  0.90082183  0.48588235  0.11744402  1
  Ta  Ta98  1  0.59359236  0.81814555  0.50495175  1
  Ta  Ta99  1  0.09510565  0.50125462  0.63565487  1
  Ta  Ta100  1  0.89761158  0.28976047  0.11189638  1
  Ta  Ta101  1  0.71170174  0.11700436  0.62449414  1
  Ta  Ta102  1  0.51169188  0.72085388  0.12609040  1
  Ta  Ta103  1  0.49618003  0.70336103  0.38560740  1
  Ta  Ta104  1  0.79739610  0.39147807  -0.00357094  1
  Ta  Ta105  1  0.68148182  0.48582592  0.63507182  1
  Ta  Ta106  1  -0.00793494  0.41484170  0.51942768  1
  Ta  Ta107  1  0.29567379  0.29784455  0.37904748  1
  Ta  Ta108  1  0.81015200  0.78777686  0.74584434  1
  Ta  Ta109  1  0.09950248  0.67306612  0.36570292  1
  Ta  Ta110  1  0.08700385  0.29493666  0.11881405  1
  Ta  Ta111  1  0.59886841  0.80634376  0.26067588  1
  Ta  Ta112  1  0.81556965  0.58514283  0.52270668  1
  Ta  Ta113  1  0.78130915  0.78841015  0.26785418  1
  Ta  Ta114  1  -0.00032382  -0.00139855  0.74736686  1
  Ta  Ta115  1  -0.00811235  0.20203983  0.25435967  1
  Ta  Ta116  1  0.28637705  0.49831063  0.37006950  1
  Ta  Ta117  1  0.78401355  0.38221324  0.74807508  1
  Ta  Ta118  1  0.69514494  0.88000664  0.12538547  1
  Ta  Ta119  1  0.19160445  0.20841162  0.00250980  1
  Ti  Ti120  1  0.20554656  0.00713720  0.25099053  1
  Ti  Ti121  1  0.49479104  0.10309265  0.36860749  1
  Ti  Ti122  1  0.30037980  0.50458229  0.62585888  1
  Ti  Ti123  1  0.29393219  0.30889998  0.10996765  1
  Ti  Ti124  1  0.10101250  0.49478589  0.11500187  1
  Ti  Ti125  1  0.88520037  0.29624244  0.38189087  1
  Ti  Ti126  1  0.89077486  0.28098721  0.62448779  1
  Ti  Ti127  1  0.49793226  0.50746998  0.36121369  1
  Ti  Ti128  1  0.29955476  0.11147444  0.11000822  1
  Ti  Ti129  1  0.29661873  0.69606828  0.37807848  1
  Ti  Ti130  1  -0.00258301  0.38810188  0.24227527  1
  Ti  Ti131  1  0.10878326  0.91254136  0.62824874  1
  Ti  Ti132  1  0.60846956  0.80290077  -0.00814744  1
  Ti  Ti133  1  0.30174631  0.70636124  0.88143232  1
  Ti  Ti134  1  -0.00381826  0.80687480  0.75250162  1
  Ti  Ti135  1  0.09952769  0.69265389  0.13523578  1
  Ti  Ti136  1  0.80432377  0.19512788  -0.01855641  1
  Ti  Ti137  1  0.80186848  -0.01574371  -0.00958831  1
  Ti  Ti138  1  0.61355431  0.22254889  0.50383105  1
  Ti  Ti139  1  0.88947855  0.70149768  0.87396655  1
  Ti  Ti140  1  0.19959606  0.80001869  0.00112631  1
  Ti  Ti141  1  0.60884007  0.40347623  0.24775254  1
  Ti  Ti142  1  0.09909060  0.29192540  0.62716836  1
  Ti  Ti143  1  0.41669222  0.80456292  -0.00962926  1
  Ti  Ti144  1  0.79391097  0.78820670  -0.00339338  1
  Ti  Ti145  1  0.92198266  0.48774698  0.37995496  1
  Ti  Ti146  1  -0.00261517  0.38764171  -0.00534743  1
  Ti  Ti147  1  0.19806805  0.60056060  0.75026375  1
  Ti  Ti148  1  0.58956022  0.59332626  0.51118716  1
  Ti  Ti149  1  0.90580746  0.10104393  0.38804810  1
  Ti  Ti150  1  0.10056036  0.90447794  0.87350642  1
  Ti  Ti151  1  0.42360116  0.02372991  -0.00419935  1
  Ti  Ti152  1  0.69685075  0.70060572  0.86393149  1
  Ti  Ti153  1  0.50464121  0.90318590  0.38253143  1
  Ti  Ti154  1  -0.00651119  0.77831033  0.48485891  1
  Ti  Ti155  1  0.79510911  0.59261240  0.73251906  1
  Ti  Ti156  1  0.41073185  -0.00134876  0.50273000  1
  Ti  Ti157  1  0.10341157  0.89836197  0.37136076  1
  Ti  Ti158  1  0.09444323  0.29870349  0.87314557  1
  Ti  Ti159  1  0.69634023  0.49576942  0.86092538  1
  Mo  Mo160  1  0.29402919  0.10154275  0.38972331  1
  Mo  Mo161  1  0.90723801  0.29490899  0.88780606  1
  Mo  Mo162  1  0.61097985  0.01196030  0.72941962  1
  Mo  Mo163  1  0.72017226  0.87776797  0.87922815  1
  Mo  Mo164  1  0.69463984  0.90082566  0.38910310  1
  Mo  Mo165  1  -0.00288595  0.59134946  0.50612758  1
  Mo  Mo166  1  0.50373058  0.91244162  0.61991428  1
  Mo  Mo167  1  0.60163692  0.20445057  0.24868561  1
  Mo  Mo168  1  0.61100100  -0.00971686  0.00690076  1
  Mo  Mo169  1  0.18586461  0.40334967  0.00954130  1
  Mo  Mo170  1  0.00158243  0.19255238  0.74138749  1
  Mo  Mo171  1  0.19795754  -0.00730769  0.75105598  1
  Mo  Mo172  1  0.39595356  0.20550346  0.00447359  1
  Mo  Mo173  1  0.39941658  0.39961575  0.00137686  1
  Mo  Mo174  1  0.19306582  0.60022462  0.23993546  1
  Mo  Mo175  1  0.81028184  0.59488189  0.24989269  1
  Mo  Mo176  1  0.49810083  0.71335240  0.87541007  1
  Mo  Mo177  1  0.11128494  0.09642280  0.38111494  1
  Mo  Mo178  1  0.49946864  0.11178546  0.85575630  1
  Mo  Mo179  1  0.40121556  0.79896899  0.48605222  1
  Mo  Mo180  1  0.20076326  0.19309169  0.49353517  1
  Mo  Mo181  1  0.90263468  0.88911836  0.37697070  1
  Mo  Mo182  1  0.39001180  0.40551202  0.25868583  1
  Mo  Mo183  1  0.80100760  0.19517769  0.49852975  1
  Mo  Mo184  1  0.80422337  -0.00316981  0.49072764  1
  Mo  Mo185  1  0.70136449  0.30614531  0.36546223  1
  Mo  Mo186  1  0.70435809  0.30260866  0.88206117  1
  Mo  Mo187  1  0.19499497  0.00617027  0.49773755  1
  Mo  Mo188  1  -0.00450564  -0.00416591  -0.00742625  1
  Mo  Mo189  1  0.09390761  0.49601680  0.37341584  1
  Mo  Mo190  1  0.89022449  0.49039684  0.63957513  1
  Mo  Mo191  1  0.90554784  0.08507453  0.88506341  1
  Mo  Mo192  1  0.41026785  0.20850225  0.75169381  1
  Mo  Mo193  1  0.69938252  0.70662231  0.12626747  1
  Mo  Mo194  1  0.49158489  0.51092584  0.62595418  1
  Mo  Mo195  1  0.60125649  0.40618485  0.76215668  1
  Mo  Mo196  1  0.09949674  0.10751880  0.12502649  1
  Mo  Mo197  1  0.71121497  0.49935206  0.12352591  1
  Mo  Mo198  1  0.69821663  0.29188612  0.63168163  1
  Mo  Mo199  1  0.89370926  0.70191881  0.61894437  1
