# generated using pymatgen
data_HfZrTaTiMo
_symmetry_space_group_name_H-M   'P 1'
_cell_length_a   15.21755858
_cell_length_b   15.20458682
_cell_length_c   16.81462056
_cell_angle_alpha   90.00113266
_cell_angle_beta   89.98463081
_cell_angle_gamma   89.93316007
_symmetry_Int_Tables_number   1
_chemical_formula_structural   HfZrTaTiMo
_chemical_formula_sum   'Hf40 Zr40 Ta40 Ti40 Mo40'
_cell_volume   3890.50847341
_cell_formula_units_Z   40
loop_
 _symmetry_equiv_pos_site_id
 _symmetry_equiv_pos_as_xyz
  1  'x, y, z'
loop_
 _atom_site_type_symbol
 _atom_site_label
 _atom_site_symmetry_multiplicity
 _atom_site_fract_x
 _atom_site_fract_y
 _atom_site_fract_z
 _atom_site_occupancy
  Hf  Hf0  1  0.19557034  0.40286980  0.48856906  1
  Hf  Hf1  1  0.20722821  0.60490265  0.49115407  1
  Hf  Hf2  1  -0.00063028  0.40685403  0.76075210  1
  Hf  Hf3  1  0.60036047  0.60966291  -0.01738656  1
  Hf  Hf4  1  0.29085228  0.87377592  0.11545257  1
  Hf  Hf5  1  0.19841574  0.40977811  0.01096820  1
  Hf  Hf6  1  0.29194737  0.89493720  0.63050505  1
  Hf  Hf7  1  0.40238287  0.39899818  0.48605322  1
  Hf  Hf8  1  0.29874515  0.68187387  0.85579196  1
  Hf  Hf9  1  0.29454614  0.88563823  0.88062969  1
  Hf  Hf10  1  0.80629774  0.20538228  0.73932036  1
  Hf  Hf11  1  0.10088708  0.70240451  0.87736907  1
  Hf  Hf12  1  0.50014624  0.29276911  0.62865831  1
  Hf  Hf13  1  0.09210287  0.89868148  0.88895605  1
  Hf  Hf14  1  0.10482500  0.50539858  0.63010323  1
  Hf  Hf15  1  -0.01047024  0.80388915  0.02375844  1
  Hf  Hf16  1  0.52677745  0.08980120  0.87503164  1
  Hf  Hf17  1  0.30603427  0.09195594  0.62536591  1
  Hf  Hf18  1  0.27370279  0.89562391  0.37025912  1
  Hf  Hf19  1  0.71649033  0.10965194  0.39040148  1
  Hf  Hf20  1  0.08632719  0.29497913  0.38209961  1
  Hf  Hf21  1  0.68344859  0.30641273  0.39687912  1
  Hf  Hf22  1  0.59574874  0.79433034  0.50383267  1
  Hf  Hf23  1  -0.00828148  0.00344967  0.22751452  1
  Hf  Hf24  1  0.10625474  0.71015512  0.35364345  1
  Hf  Hf25  1  0.81059706  0.40554441  -0.02519998  1
  Hf  Hf26  1  0.50168620  0.29030465  0.87272495  1
  Hf  Hf27  1  0.60323054  0.40447948  -0.01739489  1
  Hf  Hf28  1  0.62597200  0.59698475  0.24720234  1
  Hf  Hf29  1  0.00015959  0.20138385  0.24812797  1
  Hf  Hf30  1  0.39026295  0.78879780  0.48692173  1
  Hf  Hf31  1  0.40288576  0.18958653  0.75824629  1
  Hf  Hf32  1  0.00215905  0.59925348  0.00505803  1
  Hf  Hf33  1  0.19976817  0.20035197  0.75430285  1
  Hf  Hf34  1  0.40480517  0.19495403  0.48912780  1
  Hf  Hf35  1  0.58345654  0.79020005  0.26346950  1
  Hf  Hf36  1  0.41205758  0.59345131  0.48777393  1
  Hf  Hf37  1  0.80916350  0.59748098  0.76201252  1
  Hf  Hf38  1  0.18700180  -0.00304947  0.23154679  1
  Hf  Hf39  1  0.48537051  0.69772295  0.63827142  1
  Zr  Zr40  1  0.69619829  0.87956726  0.13332049  1
  Zr  Zr41  1  0.39931872  0.00082207  0.26374965  1
  Zr  Zr42  1  0.40539624  -0.01433435  0.76359386  1
  Zr  Zr43  1  0.39264075  -0.00150451  0.48666628  1
  Zr  Zr44  1  0.29426837  0.29833334  0.62260780  1
  Zr  Zr45  1  0.08650516  0.51190050  0.36029857  1
  Zr  Zr46  1  0.09410107  0.50495961  0.14248447  1
  Zr  Zr47  1  0.60534382  0.81717875  0.73840345  1
  Zr  Zr48  1  0.79506225  0.78003966  0.25736200  1
  Zr  Zr49  1  0.59228602  0.01224770  0.01966258  1
  Zr  Zr50  1  0.79453554  -0.00023269  0.01719010  1
  Zr  Zr51  1  0.69947297  0.91466815  0.36737276  1
  Zr  Zr52  1  0.61184863  0.60301669  0.75208417  1
  Zr  Zr53  1  0.30374078  0.29656690  0.13576756  1
  Zr  Zr54  1  0.51165714  0.28510589  0.11114710  1
  Zr  Zr55  1  0.90632994  0.09351065  0.38127042  1
  Zr  Zr56  1  0.30767784  0.49460552  0.64413820  1
  Zr  Zr57  1  0.28059047  0.69308831  0.64481698  1
  Zr  Zr58  1  0.61714278  0.39235246  0.75226131  1
  Zr  Zr59  1  0.79823195  0.00237821  0.73442991  1
  Zr  Zr60  1  0.60492858  0.21629244  0.25233528  1
  Zr  Zr61  1  0.38938557  0.39291610  -0.00201781  1
  Zr  Zr62  1  0.11066376  0.31028604  0.88204813  1
  Zr  Zr63  1  0.70492020  0.50368324  0.11346159  1
  Zr  Zr64  1  0.18038028  0.79985295  0.50575185  1
  Zr  Zr65  1  0.88810073  0.91275714  0.87846129  1
  Zr  Zr66  1  0.09167817  0.09834374  0.88250906  1
  Zr  Zr67  1  0.80159262  0.80634135  0.49288860  1
  Zr  Zr68  1  -0.00472383  0.01590979  0.02240677  1
  Zr  Zr69  1  0.48782335  0.90013759  0.13236025  1
  Zr  Zr70  1  0.81540841  0.60169826  0.50565362  1
  Zr  Zr71  1  -0.02773268  0.40294562  0.25772873  1
  Zr  Zr72  1  0.42010390  0.39164518  0.25619906  1
  Zr  Zr73  1  0.39792421  0.58982634  -0.00146072  1
  Zr  Zr74  1  -0.00375853  0.19943844  0.74572122  1
  Zr  Zr75  1  0.41910872  0.60947482  0.26252757  1
  Zr  Zr76  1  -0.00355496  0.80596576  0.22613950  1
  Zr  Zr77  1  0.48275404  0.50014799  0.85230336  1
  Zr  Zr78  1  0.31961123  0.09383249  0.11852003  1
  Zr  Zr79  1  0.60425664  0.00143423  0.51475837  1
  Ta  Ta80  1  0.71996967  0.49583207  0.38343267  1
  Ta  Ta81  1  0.19909653  0.19272913  0.49427079  1
  Ta  Ta82  1  0.87928309  0.30511365  0.39413685  1
  Ta  Ta83  1  0.71468234  0.70467638  0.62728454  1
  Ta  Ta84  1  0.90227852  0.71457968  0.88114758  1
  Ta  Ta85  1  0.49519115  0.71771364  0.85803643  1
  Ta  Ta86  1  0.53046759  0.49198316  0.37301595  1
  Ta  Ta87  1  0.29374563  0.29237517  0.36672836  1
  Ta  Ta88  1  0.00746728  0.60857113  0.50325215  1
  Ta  Ta89  1  0.51850830  0.10722131  0.37806931  1
  Ta  Ta90  1  0.89301024  0.50068093  0.12016462  1
  Ta  Ta91  1  0.20749312  0.59987177  0.00310750  1
  Ta  Ta92  1  0.19333708  0.39149227  0.25324698  1
  Ta  Ta93  1  0.90506374  0.88660688  0.62568789  1
  Ta  Ta94  1  0.09228797  0.29835805  0.12276068  1
  Ta  Ta95  1  0.10578441  0.09286458  0.37725453  1
  Ta  Ta96  1  0.60681444  0.59782916  0.51133783  1
  Ta  Ta97  1  0.90614910  0.50314220  0.63118758  1
  Ta  Ta98  1  0.29870360  0.51115371  0.14641722  1
  Ta  Ta99  1  0.40442528  0.78644112  -0.00608817  1
  Ta  Ta100  1  0.89347062  0.31073656  0.11928898  1
  Ta  Ta101  1  0.09448432  0.30232900  0.61529952  1
  Ta  Ta102  1  0.27825170  0.47694214  0.85141978  1
  Ta  Ta103  1  0.07977235  0.90768614  0.37129729  1
  Ta  Ta104  1  0.13174877  0.70694956  0.12981134  1
  Ta  Ta105  1  0.70568988  0.71992700  0.87330281  1
  Ta  Ta106  1  0.19920765  0.19218451  0.25000338  1
  Ta  Ta107  1  0.59763668  0.41080339  0.51377454  1
  Ta  Ta108  1  0.70659562  0.30319625  0.61146777  1
  Ta  Ta109  1  0.20474360  0.20090624  0.00446531  1
  Ta  Ta110  1  0.29727025  0.50128968  0.35624194  1
  Ta  Ta111  1  0.60342569  0.00791524  0.72863977  1
  Ta  Ta112  1  0.50036161  0.49534381  0.63733748  1
  Ta  Ta113  1  -0.00915562  0.79392385  0.49373152  1
  Ta  Ta114  1  -0.00088258  -0.00304657  0.74390502  1
  Ta  Ta115  1  0.48805476  0.90415544  0.62087848  1
  Ta  Ta116  1  0.10209589  0.09791859  0.62034020  1
  Ta  Ta117  1  0.70772033  0.28165674  0.87547865  1
  Ta  Ta118  1  0.68434333  0.91064636  0.87680292  1
  Ta  Ta119  1  0.50600864  0.69951867  0.12117172  1
  Ti  Ti120  1  0.71275251  0.10754933  0.60644835  1
  Ti  Ti121  1  0.07606993  0.71009367  0.63876116  1
  Ti  Ti122  1  0.80842651  0.40106699  0.76561643  1
  Ti  Ti123  1  0.61281410  0.18975222  0.73837240  1
  Ti  Ti124  1  0.09257929  0.90315214  0.62925861  1
  Ti  Ti125  1  0.89698286  0.90065954  0.36939781  1
  Ti  Ti126  1  0.79989271  0.60545683  -0.01985227  1
  Ti  Ti127  1  0.80363407  0.21285396  0.25226856  1
  Ti  Ti128  1  0.38561375  0.79167434  0.26193483  1
  Ti  Ti129  1  0.19089792  0.00212486  0.49824666  1
  Ti  Ti130  1  -0.00335650  -0.00892735  0.50645755  1
  Ti  Ti131  1  0.80588466  0.20085329  -0.00379386  1
  Ti  Ti132  1  0.71730970  0.09646905  0.87375809  1
  Ti  Ti133  1  0.80931377  0.80131841  0.74579600  1
  Ti  Ti134  1  -0.00112415  0.60942151  0.76009974  1
  Ti  Ti135  1  0.40404306  -0.01244072  -0.00898704  1
  Ti  Ti136  1  0.59822650  0.80423893  -0.00388559  1
  Ti  Ti137  1  0.29655353  0.09672360  0.88497809  1
  Ti  Ti138  1  0.18128929  0.80678623  0.75131059  1
  Ti  Ti139  1  0.69475621  0.12122488  0.12909429  1
  Ti  Ti140  1  0.78118353  0.40055465  0.25139802  1
  Ti  Ti141  1  0.70843161  0.30696411  0.11326853  1
  Ti  Ti142  1  0.70022940  0.68828545  0.38368091  1
  Ti  Ti143  1  0.19834148  -0.00049845  0.01071692  1
  Ti  Ti144  1  0.90017286  0.30638685  0.61227583  1
  Ti  Ti145  1  0.79609091  0.00977467  0.23690687  1
  Ti  Ti146  1  0.41034409  0.18370593  -0.00792261  1
  Ti  Ti147  1  -0.00519665  0.21199218  0.00123589  1
  Ti  Ti148  1  0.90991496  0.67884023  0.36249625  1
  Ti  Ti149  1  -0.00126531  0.40552901  -0.00861869  1
  Ti  Ti150  1  -0.01130882  0.41388172  0.49750833  1
  Ti  Ti151  1  0.50152362  0.90099334  0.37768624  1
  Ti  Ti152  1  0.89164764  0.12143460  0.12784900  1
  Ti  Ti153  1  0.50481989  0.49739608  0.12663621  1
  Ti  Ti154  1  0.59805198  0.01294348  0.24436706  1
  Ti  Ti155  1  0.40513314  0.19164583  0.26511805  1
  Ti  Ti156  1  0.86784444  0.69334582  0.11980840  1
  Ti  Ti157  1  -0.00232953  0.19331161  0.50682501  1
  Ti  Ti158  1  0.19309729  0.00275733  0.75495726  1
  Ti  Ti159  1  0.71127890  0.49816951  0.62801554  1
  Mo  Mo160  1  0.20180079  0.80526722  0.24886026  1
  Mo  Mo161  1  0.31674750  0.69387344  0.12585392  1
  Mo  Mo162  1  0.51328905  0.69413101  0.38209064  1
  Mo  Mo163  1  0.20331328  0.78530773  -0.00463793  1
  Mo  Mo164  1  0.91177546  0.09364401  0.61318849  1
  Mo  Mo165  1  0.20945781  0.60466659  0.25196731  1
  Mo  Mo166  1  0.39789113  0.59631432  0.75045960  1
  Mo  Mo167  1  0.78735149  0.79393990  -0.00415651  1
  Mo  Mo168  1  0.90192635  0.29175133  0.87746168  1
  Mo  Mo169  1  0.81621385  -0.00194202  0.51404305  1
  Mo  Mo170  1  0.18999014  0.38588464  0.74574375  1
  Mo  Mo171  1  0.39514134  0.80389065  0.75080786  1
  Mo  Mo172  1  0.88667428  0.90212346  0.12865021  1
  Mo  Mo173  1  0.70319461  0.50270596  0.87303376  1
  Mo  Mo174  1  0.89792092  0.49924248  0.37744964  1
  Mo  Mo175  1  0.80294590  0.40773563  0.51220241  1
  Mo  Mo176  1  0.17997528  0.59255560  0.75183453  1
  Mo  Mo177  1  0.91126095  0.51013387  0.87572188  1
  Mo  Mo178  1  0.39694825  0.38456416  0.75235714  1
  Mo  Mo179  1  0.30283873  0.28689311  0.88130383  1
  Mo  Mo180  1  0.69298905  0.69544577  0.11148883  1
  Mo  Mo181  1  0.30031618  0.69661393  0.37364204  1
  Mo  Mo182  1  0.50003437  0.30121484  0.38112147  1
  Mo  Mo183  1  0.70484636  0.89691420  0.62229540  1
  Mo  Mo184  1  0.50098900  0.10623052  0.13167963  1
  Mo  Mo185  1  0.61027132  0.40471054  0.24843225  1
  Mo  Mo186  1  0.61913511  0.19969217  -0.00290173  1
  Mo  Mo187  1  0.59836631  0.20256588  0.50970852  1
  Mo  Mo188  1  0.89100888  0.11622693  0.87844901  1
  Mo  Mo189  1  0.10475364  0.11700728  0.11612394  1
  Mo  Mo190  1  0.50217593  0.09850541  0.62754036  1
  Mo  Mo191  1  0.81471626  0.58556205  0.25128004  1
  Mo  Mo192  1  -0.01262518  0.61077798  0.23024775  1
  Mo  Mo193  1  0.29098754  0.10224218  0.37196215  1
  Mo  Mo194  1  -0.00686241  0.80785234  0.75458819  1
  Mo  Mo195  1  0.10293591  0.51039168  0.87738291  1
  Mo  Mo196  1  0.50599745  0.89670755  0.88007780  1
  Mo  Mo197  1  0.10302303  0.90145298  0.10620063  1
  Mo  Mo198  1  0.80940460  0.20354156  0.51210892  1
  Mo  Mo199  1  0.90620667  0.69715458  0.63094021  1
