# generated using pymatgen
data_HfZrTaTiMo
_symmetry_space_group_name_H-M   'P 1'
_cell_length_a   15.22224425
_cell_length_b   15.21026273
_cell_length_c   16.86349397
_cell_angle_alpha   89.98661792
_cell_angle_beta   89.99940609
_cell_angle_gamma   90.01536265
_symmetry_Int_Tables_number   1
_chemical_formula_structural   HfZrTaTiMo
_chemical_formula_sum   'Hf40 Zr40 Ta40 Ti40 Mo40'
_cell_volume   3904.47760524
_cell_formula_units_Z   40
loop_
 _symmetry_equiv_pos_site_id
 _symmetry_equiv_pos_as_xyz
  1  'x, y, z'
loop_
 _atom_site_type_symbol
 _atom_site_label
 _atom_site_symmetry_multiplicity
 _atom_site_fract_x
 _atom_site_fract_y
 _atom_site_fract_z
 _atom_site_occupancy
  Hf  Hf0  1  0.50227091  0.29360279  0.12364545  1
  Hf  Hf1  1  0.21343369  0.00131381  0.00391355  1
  Hf  Hf2  1  0.58711311  0.58616146  0.73930283  1
  Hf  Hf3  1  0.81118512  0.81218527  -0.01023071  1
  Hf  Hf4  1  0.59294580  0.59829775  0.00629687  1
  Hf  Hf5  1  0.00932186  0.61180431  0.48374306  1
  Hf  Hf6  1  0.29624816  0.91745493  0.61469761  1
  Hf  Hf7  1  0.58759401  0.18575750  0.73909839  1
  Hf  Hf8  1  0.10162750  0.31176427  0.61229804  1
  Hf  Hf9  1  0.60573234  0.79971981  0.24517815  1
  Hf  Hf10  1  0.20270654  0.40300849  0.26133817  1
  Hf  Hf11  1  0.19772307  0.20376168  0.00844713  1
  Hf  Hf12  1  0.61253424  0.19220364  0.00155521  1
  Hf  Hf13  1  0.60580117  0.39711992  0.00543911  1
  Hf  Hf14  1  0.71004565  0.48511374  0.87326925  1
  Hf  Hf15  1  0.10419913  0.69007828  0.62787584  1
  Hf  Hf16  1  0.61140545  0.39137401  0.72840109  1
  Hf  Hf17  1  0.79860648  0.01023884  0.00379634  1
  Hf  Hf18  1  0.69018366  0.07928382  0.61967392  1
  Hf  Hf19  1  0.10520538  0.70305321  0.12348906  1
  Hf  Hf20  1  0.30317228  0.90678992  0.13599646  1
  Hf  Hf21  1  0.70976348  0.28600466  0.86959951  1
  Hf  Hf22  1  0.70431741  0.48567333  0.13843975  1
  Hf  Hf23  1  0.21348442  0.79814678  -0.00531417  1
  Hf  Hf24  1  0.78338862  0.39343538  0.51393147  1
  Hf  Hf25  1  0.30645481  0.31110552  0.12301607  1
  Hf  Hf26  1  0.09259685  0.10734100  0.87713319  1
  Hf  Hf27  1  -0.00205526  0.19475930  0.26898600  1
  Hf  Hf28  1  -0.02406776  0.20369823  0.01123663  1
  Hf  Hf29  1  0.79984059  0.59306040  0.74082575  1
  Hf  Hf30  1  0.00018707  0.20400852  0.74136808  1
  Hf  Hf31  1  0.60094378  0.58246099  0.51407437  1
  Hf  Hf32  1  0.79780585  0.81067582  0.76511052  1
  Hf  Hf33  1  0.40012945  0.79645883  0.26054382  1
  Hf  Hf34  1  0.30050300  0.69822228  0.13637803  1
  Hf  Hf35  1  0.80160133  0.59599105  0.50950231  1
  Hf  Hf36  1  0.39407469  0.19870504  0.49177171  1
  Hf  Hf37  1  0.11834128  0.69305705  0.86990846  1
  Hf  Hf38  1  0.09811097  0.09488000  0.12949147  1
  Hf  Hf39  1  -0.00575680  0.62293571  0.26455932  1
  Zr  Zr40  1  0.40647344  0.80748846  0.49547630  1
  Zr  Zr41  1  0.08477480  0.30990777  0.12937039  1
  Zr  Zr42  1  0.30005238  0.50931989  0.87967926  1
  Zr  Zr43  1  0.80936089  0.58001880  0.00078278  1
  Zr  Zr44  1  0.39089246  0.01078613  0.74547184  1
  Zr  Zr45  1  0.71070818  0.69697955  0.12552298  1
  Zr  Zr46  1  0.39921859  0.41563370  0.73949606  1
  Zr  Zr47  1  0.69780683  0.08207599  0.86765143  1
  Zr  Zr48  1  0.47949917  0.68961265  0.86951480  1
  Zr  Zr49  1  0.59890632  0.79959449  0.74717228  1
  Zr  Zr50  1  0.49322677  0.90302048  0.87637994  1
  Zr  Zr51  1  0.82718536  0.79749476  0.24199990  1
  Zr  Zr52  1  0.20193899  0.20252511  0.26086049  1
  Zr  Zr53  1  0.81589997  0.39480254  0.72731297  1
  Zr  Zr54  1  0.09830823  0.90133725  0.62737708  1
  Zr  Zr55  1  0.09945313  0.50799539  0.13844097  1
  Zr  Zr56  1  0.10494872  0.31276567  0.88261041  1
  Zr  Zr57  1  0.80037813  0.18411798  0.49594067  1
  Zr  Zr58  1  0.68905601  0.48399394  0.36954483  1
  Zr  Zr59  1  -0.00333014  0.80480016  0.76159543  1
  Zr  Zr60  1  0.50918711  0.68781743  0.37373875  1
  Zr  Zr61  1  0.01973718  0.40881870  0.74856224  1
  Zr  Zr62  1  0.50014496  0.30196402  0.87705400  1
  Zr  Zr63  1  0.60561030  0.81017924  0.00862621  1
  Zr  Zr64  1  0.19614071  0.40852598  0.48155602  1
  Zr  Zr65  1  0.50958531  0.10645365  0.37326660  1
  Zr  Zr66  1  0.50935985  0.90555086  0.61790483  1
  Zr  Zr67  1  0.39623112  0.60335634  0.50698527  1
  Zr  Zr68  1  0.20230171  0.58665081  0.74948234  1
  Zr  Zr69  1  0.30562733  0.29958735  0.87827752  1
  Zr  Zr70  1  0.69382311  0.69530227  0.87760808  1
  Zr  Zr71  1  0.49423147  0.09212047  0.13590772  1
  Zr  Zr72  1  0.70490806  0.90055869  0.37033436  1
  Zr  Zr73  1  0.90487862  0.71020264  0.62637218  1
  Zr  Zr74  1  0.00454826  0.80514265  -0.01574364  1
  Zr  Zr75  1  0.80351696  0.19045110  0.72876654  1
  Zr  Zr76  1  0.29632075  0.29681518  0.62017921  1
  Zr  Zr77  1  0.11810693  0.91436338  0.85847366  1
  Zr  Zr78  1  0.70269063  0.11362379  0.14245849  1
  Zr  Zr79  1  0.90846527  0.88174807  0.38807270  1
  Ta  Ta80  1  0.39619558  0.18484201  0.00227151  1
  Ta  Ta81  1  0.58282457  0.39820362  0.24764152  1
  Ta  Ta82  1  -0.01183833  0.01187582  0.74105457  1
  Ta  Ta83  1  0.39871929  0.00019752  0.26356996  1
  Ta  Ta84  1  0.71895756  0.68792016  0.36712548  1
  Ta  Ta85  1  0.40932269  0.40812734  0.50489037  1
  Ta  Ta86  1  0.31651373  0.50434428  0.37302633  1
  Ta  Ta87  1  0.61439231  0.79196334  0.50044049  1
  Ta  Ta88  1  0.80872089  0.37552014  0.01175224  1
  Ta  Ta89  1  0.01136317  0.59079227  -0.00698919  1
  Ta  Ta90  1  0.91356435  0.69457943  0.11414526  1
  Ta  Ta91  1  0.48430584  0.49560991  0.12024024  1
  Ta  Ta92  1  0.09886373  0.90394827  0.38377612  1
  Ta  Ta93  1  -0.00345668  -0.01762186  0.25131027  1
  Ta  Ta94  1  0.00191014  0.19976482  0.47992522  1
  Ta  Ta95  1  0.29818016  0.90499698  0.38060511  1
  Ta  Ta96  1  0.19941788  0.01166251  0.49114382  1
  Ta  Ta97  1  0.19080246  0.79429482  0.49324380  1
  Ta  Ta98  1  0.90238689  0.68297829  0.87685457  1
  Ta  Ta99  1  0.19037595  0.80528811  0.26233517  1
  Ta  Ta100  1  0.28006864  0.50596149  0.61702575  1
  Ta  Ta101  1  0.20431382  0.60934017  0.26925499  1
  Ta  Ta102  1  0.50214614  0.29436084  0.61481366  1
  Ta  Ta103  1  0.19422551  -0.00072671  0.26015360  1
  Ta  Ta104  1  0.48996812  0.10066403  0.88074307  1
  Ta  Ta105  1  -0.00296226  0.59197894  0.75851384  1
  Ta  Ta106  1  0.89622903  0.08989886  0.14299448  1
  Ta  Ta107  1  0.40115491  0.80755325  0.00383935  1
  Ta  Ta108  1  0.88440371  0.50780061  0.36465069  1
  Ta  Ta109  1  0.89979473  0.30335784  0.87481910  1
  Ta  Ta110  1  0.18975651  0.19973259  0.47901094  1
  Ta  Ta111  1  -0.00618871  -0.00246358  0.00207951  1
  Ta  Ta112  1  0.90297398  0.49357402  0.14304657  1
  Ta  Ta113  1  0.59684065  0.59595433  0.24318091  1
  Ta  Ta114  1  0.20333321  0.19606955  0.74729406  1
  Ta  Ta115  1  0.49459426  0.69779152  0.12782100  1
  Ta  Ta116  1  0.38523581  0.60507895  0.00659219  1
  Ta  Ta117  1  -0.00320472  0.01103741  0.50294800  1
  Ta  Ta118  1  0.29437931  0.71057398  0.62426994  1
  Ta  Ta119  1  0.88109614  0.30605587  0.37336059  1
  Ti  Ti120  1  0.49577057  0.49462104  0.88548589  1
  Ti  Ti121  1  0.09493999  0.89842184  0.12647136  1
  Ti  Ti122  1  0.30026334  0.09999075  0.36930673  1
  Ti  Ti123  1  0.19664231  0.42437719  0.00613681  1
  Ti  Ti124  1  0.61400477  0.21416174  0.26429166  1
  Ti  Ti125  1  -0.00714100  0.40320158  0.48040296  1
  Ti  Ti126  1  0.50602976  0.32070410  0.38198130  1
  Ti  Ti127  1  0.79539213  -0.00905269  0.50277350  1
  Ti  Ti128  1  0.60697453  0.20611682  0.49712401  1
  Ti  Ti129  1  0.48089214  0.09520754  0.60702879  1
  Ti  Ti130  1  0.87508496  0.29154011  0.15000824  1
  Ti  Ti131  1  -0.00952569  0.40928820  -0.00029247  1
  Ti  Ti132  1  0.88932156  0.08243690  0.36692938  1
  Ti  Ti133  1  0.89430997  0.10604285  0.87526552  1
  Ti  Ti134  1  0.59144193  -0.00253775  0.00434199  1
  Ti  Ti135  1  0.30995118  0.30725854  0.37451884  1
  Ti  Ti136  1  0.71534882  0.91205598  0.13576516  1
  Ti  Ti137  1  0.10612466  0.10587977  0.61976262  1
  Ti  Ti138  1  0.40822511  0.21206831  0.25879664  1
  Ti  Ti139  1  0.69853290  0.70585916  0.62829107  1
  Ti  Ti140  1  0.29564230  0.70228724  0.37950963  1
  Ti  Ti141  1  0.80017715  0.79368855  0.50272197  1
  Ti  Ti142  1  0.60009585  -0.00406477  0.49117477  1
  Ti  Ti143  1  0.30499370  0.10338667  0.13832478  1
  Ti  Ti144  1  0.80026926  -0.00753943  0.74361246  1
  Ti  Ti145  1  0.39530542  0.19852244  0.74248939  1
  Ti  Ti146  1  0.29858236  0.50479740  0.12929800  1
  Ti  Ti147  1  0.90980986  0.29074837  0.60595439  1
  Ti  Ti148  1  0.60020037  -0.01106554  0.75000740  1
  Ti  Ti149  1  0.29672263  0.08989942  0.87437604  1
  Ti  Ti150  1  0.92626031  0.50020843  0.61470641  1
  Ti  Ti151  1  -0.00898526  0.39950054  0.26596501  1
  Ti  Ti152  1  0.60469189  0.00035720  0.25566022  1
  Ti  Ti153  1  0.40564982  0.58619271  0.25050611  1
  Ti  Ti154  1  0.50251980  0.90153297  0.37736220  1
  Ti  Ti155  1  0.38694096  0.80093102  0.74676573  1
  Ti  Ti156  1  0.89339689  0.90593121  0.61812042  1
  Ti  Ti157  1  0.49872332  0.90169894  0.13021345  1
  Ti  Ti158  1  0.09919163  0.50750568  0.36783789  1
  Ti  Ti159  1  0.49387842  0.70030323  0.62839994  1
  Mo  Mo160  1  0.80306371  -0.00355303  0.24878195  1
  Mo  Mo161  1  0.08999096  0.30801274  0.37620652  1
  Mo  Mo162  1  0.48970471  0.49719869  0.62566087  1
  Mo  Mo163  1  0.89458037  0.69918217  0.38324634  1
  Mo  Mo164  1  0.80344400  0.20083720  0.00415276  1
  Mo  Mo165  1  0.20248196  0.39293453  0.74379832  1
  Mo  Mo166  1  0.28899250  0.10688021  0.61446282  1
  Mo  Mo167  1  0.70737853  0.89066140  0.61534440  1
  Mo  Mo168  1  0.70118137  0.09470109  0.37313933  1
  Mo  Mo169  1  0.39471725  0.61110888  0.72954663  1
  Mo  Mo170  1  0.30654898  0.71351805  0.87202757  1
  Mo  Mo171  1  0.39662074  0.40394699  0.00399623  1
  Mo  Mo172  1  0.91044941  0.09156491  0.61528689  1
  Mo  Mo173  1  0.90918745  0.90275442  0.12018725  1
  Mo  Mo174  1  0.30339060  0.89981725  0.86918191  1
  Mo  Mo175  1  0.19447134  0.01697934  0.74439442  1
  Mo  Mo176  1  0.79816017  0.19421592  0.27257171  1
  Mo  Mo177  1  0.09353992  0.09217572  0.37412957  1
  Mo  Mo178  1  0.80278557  0.59570836  0.24611527  1
  Mo  Mo179  1  0.49750155  0.49643450  0.37346482  1
  Mo  Mo180  1  0.20290977  0.60127457  0.00408747  1
  Mo  Mo181  1  0.69536999  0.28571659  0.62105255  1
  Mo  Mo182  1  0.89983370  0.92706408  0.86997832  1
  Mo  Mo183  1  0.79424970  0.39027658  0.25445983  1
  Mo  Mo184  1  0.09807540  0.50296834  0.61183861  1
  Mo  Mo185  1  0.21413370  0.80589974  0.74724234  1
  Mo  Mo186  1  0.40109832  0.00056170  0.00343591  1
  Mo  Mo187  1  0.01130781  0.80499001  0.24527819  1
  Mo  Mo188  1  0.70087475  0.29872115  0.13557062  1
  Mo  Mo189  1  0.70321985  0.50130045  0.62483158  1
  Mo  Mo190  1  0.40098221  0.39987036  0.25262715  1
  Mo  Mo191  1  0.90408148  0.49010035  0.87765619  1
  Mo  Mo192  1  0.69002091  0.29234053  0.37972767  1
  Mo  Mo193  1  0.09890185  0.71533313  0.37790546  1
  Mo  Mo194  1  0.00016906  0.80938132  0.50948604  1
  Mo  Mo195  1  0.69730612  0.90735572  0.87884867  1
  Mo  Mo196  1  0.09830795  0.50019304  0.88327589  1
  Mo  Mo197  1  0.39777864  0.00553338  0.48142527  1
  Mo  Mo198  1  0.59376238  0.39155044  0.51288293  1
  Mo  Mo199  1  0.20420049  0.60493252  0.48265136  1
