# generated using pymatgen
data_HfZrTaTiMo
_symmetry_space_group_name_H-M   'P 1'
_cell_length_a   15.19360155
_cell_length_b   15.19859186
_cell_length_c   16.79641374
_cell_angle_alpha   90.03080583
_cell_angle_beta   89.92430418
_cell_angle_gamma   90.02028745
_symmetry_Int_Tables_number   1
_chemical_formula_structural   HfZrTaTiMo
_chemical_formula_sum   'Hf40 Zr40 Ta40 Ti40 Mo40'
_cell_volume   3878.64632917
_cell_formula_units_Z   40
loop_
 _symmetry_equiv_pos_site_id
 _symmetry_equiv_pos_as_xyz
  1  'x, y, z'
loop_
 _atom_site_type_symbol
 _atom_site_label
 _atom_site_symmetry_multiplicity
 _atom_site_fract_x
 _atom_site_fract_y
 _atom_site_fract_z
 _atom_site_occupancy
  Hf  Hf0  1  0.81085379  -0.00835197  0.00763060  1
  Hf  Hf1  1  0.79874383  0.39005685  0.00276880  1
  Hf  Hf2  1  0.10487398  0.69520549  0.61028896  1
  Hf  Hf3  1  0.70157567  0.89216732  0.88054864  1
  Hf  Hf4  1  -0.00530946  0.20227670  -0.00007435  1
  Hf  Hf5  1  0.29455311  0.69354290  0.11903945  1
  Hf  Hf6  1  0.59369979  0.57841679  0.26059996  1
  Hf  Hf7  1  0.19721302  0.60280891  0.75546140  1
  Hf  Hf8  1  0.69075310  0.09581751  0.86413379  1
  Hf  Hf9  1  0.80151081  0.78771295  0.74389059  1
  Hf  Hf10  1  0.00965274  0.79975379  0.74251559  1
  Hf  Hf11  1  0.90534505  0.90453983  0.62189435  1
  Hf  Hf12  1  0.50637626  0.32221497  0.12515781  1
  Hf  Hf13  1  0.89353065  0.50107649  0.87393444  1
  Hf  Hf14  1  0.70064689  0.70612542  0.36563614  1
  Hf  Hf15  1  0.59478297  0.39604319  0.50917207  1
  Hf  Hf16  1  0.79644843  0.19462387  -0.00239755  1
  Hf  Hf17  1  0.69671058  0.68936742  0.13339653  1
  Hf  Hf18  1  0.29611492  0.90264059  0.60995805  1
  Hf  Hf19  1  0.10035782  0.31880152  0.14184924  1
  Hf  Hf20  1  0.39778972  0.20955607  0.24363352  1
  Hf  Hf21  1  0.21062910  0.79518798  0.75949972  1
  Hf  Hf22  1  0.28677082  0.89526731  0.13029962  1
  Hf  Hf23  1  0.00016597  -0.01868303  0.26173564  1
  Hf  Hf24  1  0.42006725  0.00080546  0.23879649  1
  Hf  Hf25  1  0.80707644  0.80317613  0.49212101  1
  Hf  Hf26  1  0.90169073  0.49599027  0.61573803  1
  Hf  Hf27  1  0.39496457  0.20502128  0.73613198  1
  Hf  Hf28  1  0.31201135  0.91288407  0.38538658  1
  Hf  Hf29  1  0.59798972  0.60273616  0.49134557  1
  Hf  Hf30  1  0.17686834  0.01091041  0.48466777  1
  Hf  Hf31  1  0.01107636  0.19458462  0.49273869  1
  Hf  Hf32  1  0.51255052  0.92435049  0.61904911  1
  Hf  Hf33  1  0.20664672  0.57178125  0.50367031  1
  Hf  Hf34  1  0.38811872  0.79865532  0.25450898  1
  Hf  Hf35  1  0.80019489  0.58889237  0.26026471  1
  Hf  Hf36  1  0.50964082  0.70577527  0.62869173  1
  Hf  Hf37  1  0.30122845  0.10191526  0.12602627  1
  Hf  Hf38  1  0.49030315  0.70185243  0.11555500  1
  Hf  Hf39  1  0.30206058  0.49032510  0.87216775  1
  Zr  Zr40  1  0.30242032  0.48135486  0.11542666  1
  Zr  Zr41  1  0.68592171  0.10266957  0.37324528  1
  Zr  Zr42  1  0.29558865  0.31960256  0.38009615  1
  Zr  Zr43  1  0.50654036  0.91962695  0.87309437  1
  Zr  Zr44  1  0.60197311  0.01942039  0.01992859  1
  Zr  Zr45  1  0.19076710  0.79620957  -0.00839938  1
  Zr  Zr46  1  0.91376794  0.30224606  0.62953248  1
  Zr  Zr47  1  0.70630665  0.29850063  0.63342191  1
  Zr  Zr48  1  0.70041271  0.30243130  0.86086821  1
  Zr  Zr49  1  0.10284333  0.09080476  0.13026111  1
  Zr  Zr50  1  0.49626882  0.70591001  0.37654156  1
  Zr  Zr51  1  0.20127376  0.20652359  0.00380812  1
  Zr  Zr52  1  0.78877172  0.59175806  0.00892016  1
  Zr  Zr53  1  0.11071083  0.47879362  0.36922313  1
  Zr  Zr54  1  0.28097755  0.11022626  0.61290599  1
  Zr  Zr55  1  0.40643852  0.79786512  0.50430932  1
  Zr  Zr56  1  -0.01050183  0.59869459  0.74657865  1
  Zr  Zr57  1  0.09391878  0.90164848  0.87602167  1
  Zr  Zr58  1  0.51415845  0.70494489  0.87632424  1
  Zr  Zr59  1  0.09422726  0.09875686  0.88104030  1
  Zr  Zr60  1  0.90201314  0.89589741  0.87273888  1
  Zr  Zr61  1  0.90542747  0.49204161  0.13694941  1
  Zr  Zr62  1  0.70401112  0.30116186  0.37638902  1
  Zr  Zr63  1  0.19089216  0.58824695  -0.00256405  1
  Zr  Zr64  1  0.19398666  -0.00087228  0.74695998  1
  Zr  Zr65  1  0.58736723  0.81330192  0.23777650  1
  Zr  Zr66  1  0.89083696  0.09909668  0.62585926  1
  Zr  Zr67  1  0.90086109  0.69229627  0.60751076  1
  Zr  Zr68  1  0.20330646  0.59154454  0.24722431  1
  Zr  Zr69  1  0.40137762  0.22610985  0.52173362  1
  Zr  Zr70  1  0.41025299  0.20351206  0.00345021  1
  Zr  Zr71  1  0.40008946  0.81171158  0.75228805  1
  Zr  Zr72  1  0.60988711  0.19448105  0.22936415  1
  Zr  Zr73  1  0.50418726  0.30804453  0.37004067  1
  Zr  Zr74  1  0.29590461  0.68470088  0.38556734  1
  Zr  Zr75  1  0.00592466  0.40038195  0.00036800  1
  Zr  Zr76  1  0.90164461  0.09239506  0.13435346  1
  Zr  Zr77  1  0.48707524  0.10323724  0.38977391  1
  Zr  Zr78  1  0.40672026  0.60384271  0.76086036  1
  Zr  Zr79  1  0.70485652  0.90940711  0.35775763  1
  Ta  Ta80  1  0.60309156  0.42669975  0.75161111  1
  Ta  Ta81  1  0.51136904  0.91365883  0.38613723  1
  Ta  Ta82  1  0.70693093  0.90224492  0.13089237  1
  Ta  Ta83  1  0.40147157  -0.00130906  0.00739063  1
  Ta  Ta84  1  0.89335376  0.29221695  0.14508414  1
  Ta  Ta85  1  0.00516957  0.18732825  0.75163513  1
  Ta  Ta86  1  0.60391555  0.80467869  0.01151135  1
  Ta  Ta87  1  0.20210655  0.20280520  0.25128391  1
  Ta  Ta88  1  0.40489906  0.01336249  0.74233389  1
  Ta  Ta89  1  0.30736784  0.09171726  0.87461273  1
  Ta  Ta90  1  0.50194623  0.30887117  0.86608135  1
  Ta  Ta91  1  0.88617600  0.10080378  0.36867700  1
  Ta  Ta92  1  0.50677996  0.51161421  0.11464514  1
  Ta  Ta93  1  0.00706872  0.80402806  0.47831683  1
  Ta  Ta94  1  0.29808062  0.49533104  0.64075464  1
  Ta  Ta95  1  0.00384884  0.59819267  0.26020858  1
  Ta  Ta96  1  0.39192219  0.80680774  -0.01245135  1
  Ta  Ta97  1  0.78321520  0.00031999  0.50184731  1
  Ta  Ta98  1  0.08570000  0.69247691  0.87866376  1
  Ta  Ta99  1  0.11713148  0.28657338  0.64192149  1
  Ta  Ta100  1  0.18463735  0.80214188  0.26600191  1
  Ta  Ta101  1  0.90567838  0.29898498  0.36653193  1
  Ta  Ta102  1  0.20282610  0.00312265  0.26706809  1
  Ta  Ta103  1  0.20921850  -0.00644774  -0.00298196  1
  Ta  Ta104  1  0.61570672  0.81665733  0.50339064  1
  Ta  Ta105  1  0.09256663  0.49165425  0.86476725  1
  Ta  Ta106  1  0.10515620  0.30250597  0.85691878  1
  Ta  Ta107  1  0.70254802  0.50752629  0.61868883  1
  Ta  Ta108  1  0.09041100  0.70360942  0.13150686  1
  Ta  Ta109  1  0.78371980  0.59425792  0.74994976  1
  Ta  Ta110  1  0.30168398  0.29236234  0.86498742  1
  Ta  Ta111  1  0.70286083  0.69361203  0.88028589  1
  Ta  Ta112  1  -0.00384379  0.60376629  0.00443228  1
  Ta  Ta113  1  0.79757940  0.58851189  0.48113469  1
  Ta  Ta114  1  0.50032147  0.50810589  0.62643168  1
  Ta  Ta115  1  0.90853740  0.29575037  0.85992445  1
  Ta  Ta116  1  0.00006919  0.79033085  0.26712189  1
  Ta  Ta117  1  0.80226036  0.19643825  0.49978305  1
  Ta  Ta118  1  0.60288797  0.41793053  -0.01243508  1
  Ta  Ta119  1  -0.01760346  -0.00395886  0.47791596  1
  Ti  Ti120  1  0.68416186  0.08087030  0.63307640  1
  Ti  Ti121  1  0.30398025  0.69237145  0.61642782  1
  Ti  Ti122  1  0.00966481  -0.01709305  0.01801363  1
  Ti  Ti123  1  0.79267814  -0.00849090  0.74587942  1
  Ti  Ti124  1  0.00287051  0.59276426  0.48389691  1
  Ti  Ti125  1  0.48370696  0.49865272  0.38458497  1
  Ti  Ti126  1  0.90023193  0.48388636  0.37298120  1
  Ti  Ti127  1  0.58783656  0.20107818  0.73625701  1
  Ti  Ti128  1  0.01677590  0.39189734  0.49959530  1
  Ti  Ti129  1  0.10266484  0.29307316  0.36496914  1
  Ti  Ti130  1  0.49939190  0.11412496  0.87207740  1
  Ti  Ti131  1  0.08482428  0.09116411  0.62702554  1
  Ti  Ti132  1  0.80316594  0.79342941  0.01218986  1
  Ti  Ti133  1  0.00101174  0.19397944  0.25789972  1
  Ti  Ti134  1  0.79150556  0.00965228  0.24005162  1
  Ti  Ti135  1  0.40438106  0.39760285  -0.00956675  1
  Ti  Ti136  1  0.60613237  0.21739829  0.00795468  1
  Ti  Ti137  1  0.78167995  0.39475363  0.25060047  1
  Ti  Ti138  1  0.61260278  0.81163401  0.74203579  1
  Ti  Ti139  1  0.40839635  0.39949157  0.74742112  1
  Ti  Ti140  1  0.70291993  0.69923852  0.61624184  1
  Ti  Ti141  1  0.40672831  0.59803586  -0.01683127  1
  Ti  Ti142  1  0.29114409  0.11808564  0.38703248  1
  Ti  Ti143  1  0.40043515  0.41343594  0.24783690  1
  Ti  Ti144  1  0.39960964  0.59696489  0.24851784  1
  Ti  Ti145  1  0.90320930  0.69488280  0.37547746  1
  Ti  Ti146  1  0.80030698  0.19270650  0.74970174  1
  Ti  Ti147  1  0.90258034  0.69854642  0.13433170  1
  Ti  Ti148  1  0.60426605  0.19458630  0.51989133  1
  Ti  Ti149  1  0.20041853  0.39145541  -0.00568842  1
  Ti  Ti150  1  0.80387100  0.39596076  0.49608446  1
  Ti  Ti151  1  0.10164733  0.47862910  0.63695507  1
  Ti  Ti152  1  -0.00823111  0.79773438  0.01076220  1
  Ti  Ti153  1  0.81655690  0.80642272  0.24635532  1
  Ti  Ti154  1  0.38807596  0.41909665  0.51490368  1
  Ti  Ti155  1  0.09765120  0.90130869  0.61391333  1
  Ti  Ti156  1  0.89919653  0.09124302  0.86538494  1
  Ti  Ti157  1  0.80422890  0.40497509  0.74820100  1
  Ti  Ti158  1  0.19404412  0.79763065  0.48677254  1
  Ti  Ti159  1  0.89478622  0.70052219  0.88157619  1
  Mo  Mo160  1  0.09956795  0.88874157  0.13252158  1
  Mo  Mo161  1  0.31276346  0.49585821  0.37524796  1
  Mo  Mo162  1  0.49890010  0.10906272  0.61877061  1
  Mo  Mo163  1  0.30694655  0.91003013  0.87594455  1
  Mo  Mo164  1  0.50542090  0.49758266  0.87539591  1
  Mo  Mo165  1  0.09674206  0.10705717  0.36205175  1
  Mo  Mo166  1  0.70617252  0.89570848  0.62743681  1
  Mo  Mo167  1  0.80679424  0.20165235  0.25221225  1
  Mo  Mo168  1  0.39492125  0.01024990  0.50044963  1
  Mo  Mo169  1  0.59879901  0.60416298  0.00153578  1
  Mo  Mo170  1  0.30079453  0.30426309  0.12802861  1
  Mo  Mo171  1  0.40202550  0.59263857  0.51516695  1
  Mo  Mo172  1  0.59840072  0.00939045  0.75327008  1
  Mo  Mo173  1  0.68721966  0.48397835  0.12970702  1
  Mo  Mo174  1  0.90590480  0.88172085  0.12944793  1
  Mo  Mo175  1  0.61068636  0.61442562  0.74300589  1
  Mo  Mo176  1  0.69851554  0.50518290  0.86987952  1
  Mo  Mo177  1  0.19662992  0.38571197  0.51333628  1
  Mo  Mo178  1  0.09693068  0.68876489  0.38457943  1
  Mo  Mo179  1  0.20243289  0.19273944  0.75881192  1
  Mo  Mo180  1  0.70927825  0.10816253  0.12327728  1
  Mo  Mo181  1  0.10337021  0.89783674  0.37745569  1
  Mo  Mo182  1  0.29816036  0.70007428  0.88506592  1
  Mo  Mo183  1  0.50388366  0.31782724  0.63892852  1
  Mo  Mo184  1  0.50061942  0.10808772  0.11932910  1
  Mo  Mo185  1  0.89193809  0.89985692  0.37225597  1
  Mo  Mo186  1  0.20880438  0.39313234  0.24650966  1
  Mo  Mo187  1  -0.00957079  -0.00072536  0.74486116  1
  Mo  Mo188  1  0.69968795  0.49094497  0.38369739  1
  Mo  Mo189  1  0.60284595  0.00631106  0.50056117  1
  Mo  Mo190  1  0.20644867  0.39810880  0.75525316  1
  Mo  Mo191  1  -0.00596160  0.39767424  0.25775518  1
  Mo  Mo192  1  0.29289868  0.31522528  0.63578716  1
  Mo  Mo193  1  0.18811222  0.21225021  0.49701381  1
  Mo  Mo194  1  0.70648800  0.31169979  0.12175636  1
  Mo  Mo195  1  0.59411089  0.40462718  0.25091208  1
  Mo  Mo196  1  0.09494733  0.51223336  0.13232922  1
  Mo  Mo197  1  0.59875920  0.00100908  0.23136276  1
  Mo  Mo198  1  -0.00010130  0.39623250  0.75008326  1
  Mo  Mo199  1  0.49314947  0.89717027  0.11064865  1
