# generated using pymatgen
data_HfZrTaTiMo
_symmetry_space_group_name_H-M   'P 1'
_cell_length_a   15.20204769
_cell_length_b   15.20655959
_cell_length_c   16.86051348
_cell_angle_alpha   89.94433328
_cell_angle_beta   90.04938536
_cell_angle_gamma   90.10403097
_symmetry_Int_Tables_number   1
_chemical_formula_structural   HfZrTaTiMo
_chemical_formula_sum   'Hf40 Zr40 Ta40 Ti40 Mo40'
_cell_volume   3897.64942617
_cell_formula_units_Z   40
loop_
 _symmetry_equiv_pos_site_id
 _symmetry_equiv_pos_as_xyz
  1  'x, y, z'
loop_
 _atom_site_type_symbol
 _atom_site_label
 _atom_site_symmetry_multiplicity
 _atom_site_fract_x
 _atom_site_fract_y
 _atom_site_fract_z
 _atom_site_occupancy
  Hf  Hf0  1  0.49171394  0.70154878  0.37700104  1
  Hf  Hf1  1  0.09581106  0.08785555  0.87892287  1
  Hf  Hf2  1  0.81428959  0.41602328  0.00442229  1
  Hf  Hf3  1  0.59524059  0.00302211  0.74249041  1
  Hf  Hf4  1  0.29286858  0.10596115  0.61596086  1
  Hf  Hf5  1  0.29758535  0.69100654  0.61085489  1
  Hf  Hf6  1  0.50926017  0.90346619  0.87336791  1
  Hf  Hf7  1  0.39361814  -0.00030146  0.25676278  1
  Hf  Hf8  1  0.29586442  0.31641846  0.61764304  1
  Hf  Hf9  1  0.81422201  0.80062789  0.74328418  1
  Hf  Hf10  1  0.71339576  0.50561031  0.37200537  1
  Hf  Hf11  1  0.90168456  0.68039713  0.87608564  1
  Hf  Hf12  1  0.71893200  0.51419306  0.12876847  1
  Hf  Hf13  1  0.89606292  0.26870085  0.63844644  1
  Hf  Hf14  1  0.19796368  0.20273488  0.74856668  1
  Hf  Hf15  1  0.09939791  0.88645849  0.37950864  1
  Hf  Hf16  1  0.50262031  0.70631943  0.62073560  1
  Hf  Hf17  1  0.19620882  0.61628254  0.75724742  1
  Hf  Hf18  1  0.39068703  0.20233473  0.25838914  1
  Hf  Hf19  1  0.59896103  0.21151096  0.74691254  1
  Hf  Hf20  1  0.10705625  0.88187153  0.88696113  1
  Hf  Hf21  1  0.19591014  -0.00060630  0.25395627  1
  Hf  Hf22  1  0.79901478  0.01100514  0.49966934  1
  Hf  Hf23  1  0.71167332  0.71833293  0.12381468  1
  Hf  Hf24  1  -0.00957994  -0.01791144  0.51575573  1
  Hf  Hf25  1  0.60258073  0.41686484  0.74608576  1
  Hf  Hf26  1  0.50575580  0.30557977  0.88220535  1
  Hf  Hf27  1  0.40450328  0.40368777  0.75239964  1
  Hf  Hf28  1  0.29563484  0.51285323  0.11509574  1
  Hf  Hf29  1  0.41129202  0.19640172  -0.00384951  1
  Hf  Hf30  1  0.00049733  0.79278719  0.24097240  1
  Hf  Hf31  1  0.81393748  0.80510963  0.50202209  1
  Hf  Hf32  1  0.17294287  0.20994698  0.49476111  1
  Hf  Hf33  1  0.70992790  0.50681957  0.61610916  1
  Hf  Hf34  1  0.59928736  0.59977728  0.49243658  1
  Hf  Hf35  1  0.07737518  0.09155374  0.37599290  1
  Hf  Hf36  1  0.00092088  0.77825705  0.01241189  1
  Hf  Hf37  1  0.30242984  0.89835174  0.61280495  1
  Hf  Hf38  1  0.30410998  0.29141624  0.12408152  1
  Hf  Hf39  1  0.39430177  0.20700566  0.49253934  1
  Zr  Zr40  1  0.01307622  0.39313208  0.01106846  1
  Zr  Zr41  1  0.40194278  0.59713252  0.75554239  1
  Zr  Zr42  1  -0.00271238  0.58946966  0.74723284  1
  Zr  Zr43  1  0.30839331  0.50719587  0.89758772  1
  Zr  Zr44  1  0.07746362  0.11056213  0.62899646  1
  Zr  Zr45  1  -0.00266306  0.19570733  0.24642869  1
  Zr  Zr46  1  0.10171890  0.67171727  0.13461667  1
  Zr  Zr47  1  0.70773001  0.30171269  0.37220403  1
  Zr  Zr48  1  0.21451932  0.79802975  0.24878566  1
  Zr  Zr49  1  0.77872381  -0.01795389  -0.00092606  1
  Zr  Zr50  1  0.89848425  0.68862429  0.37482073  1
  Zr  Zr51  1  0.61309492  0.82128165  0.00566938  1
  Zr  Zr52  1  0.70121880  0.71823777  0.87679056  1
  Zr  Zr53  1  0.71487672  0.11664087  0.63303817  1
  Zr  Zr54  1  0.60893863  0.80604987  0.49719814  1
  Zr  Zr55  1  0.49375451  0.32180111  0.37597753  1
  Zr  Zr56  1  0.78829117  -0.00420102  0.24110413  1
  Zr  Zr57  1  0.90346989  0.68372872  0.61421493  1
  Zr  Zr58  1  0.20219126  0.58777338  0.27167654  1
  Zr  Zr59  1  0.58865843  -0.00172657  0.51112147  1
  Zr  Zr60  1  0.40008185  0.79932867  0.75381471  1
  Zr  Zr61  1  0.70519027  0.30673289  0.88840904  1
  Zr  Zr62  1  0.60615154  0.20191647  0.49840034  1
  Zr  Zr63  1  -0.00833131  -0.02084794  0.74369769  1
  Zr  Zr64  1  0.11379790  0.50349872  0.62351108  1
  Zr  Zr65  1  0.39312993  0.00308607  0.75446042  1
  Zr  Zr66  1  0.39750356  0.61180145  0.24553654  1
  Zr  Zr67  1  0.59739585  0.20434066  0.25199959  1
  Zr  Zr68  1  0.00375054  0.57270919  0.49149521  1
  Zr  Zr69  1  0.59963006  0.81542577  0.24859472  1
  Zr  Zr70  1  0.10276659  0.09561319  0.11846370  1
  Zr  Zr71  1  0.89117562  0.28913790  0.12234245  1
  Zr  Zr72  1  0.40053072  0.80942372  -0.00035797  1
  Zr  Zr73  1  0.89103895  0.09349636  0.88042115  1
  Zr  Zr74  1  0.20548129  0.41330208  0.75781197  1
  Zr  Zr75  1  0.10506225  0.29530620  0.87308741  1
  Zr  Zr76  1  0.59986703  0.60504876  0.24910264  1
  Zr  Zr77  1  0.69659119  0.12181810  0.11303808  1
  Zr  Zr78  1  0.28336491  0.71765854  0.89127415  1
  Zr  Zr79  1  0.82194236  0.38854005  0.49483225  1
  Ta  Ta80  1  0.89635002  0.08855639  0.11066345  1
  Ta  Ta81  1  -0.00100350  0.19335853  0.00359385  1
  Ta  Ta82  1  0.28795601  0.09965764  0.38717614  1
  Ta  Ta83  1  0.68506415  0.10574795  0.87899699  1
  Ta  Ta84  1  0.89570940  0.88342087  0.88496353  1
  Ta  Ta85  1  0.70815098  0.90009360  0.63057204  1
  Ta  Ta86  1  0.20262993  0.19730100  -0.00053204  1
  Ta  Ta87  1  0.38926904  0.00283558  -0.01046638  1
  Ta  Ta88  1  0.60486455  0.60512698  0.00640846  1
  Ta  Ta89  1  0.49381969  0.90619408  0.37503160  1
  Ta  Ta90  1  -0.00977499  -0.01245809  0.23489626  1
  Ta  Ta91  1  0.49872266  0.30665290  0.61813100  1
  Ta  Ta92  1  0.51319308  0.50464454  0.89310612  1
  Ta  Ta93  1  0.49055956  0.11022865  0.12726576  1
  Ta  Ta94  1  0.70383680  0.69915973  0.62581891  1
  Ta  Ta95  1  0.20356595  0.39297542  0.24489910  1
  Ta  Ta96  1  0.90668895  0.47419412  0.62478766  1
  Ta  Ta97  1  0.20236951  0.39640138  0.00564342  1
  Ta  Ta98  1  -0.01891615  0.57811616  0.00509648  1
  Ta  Ta99  1  0.39995718  0.20451515  0.75254474  1
  Ta  Ta100  1  0.19517876  -0.00721736  0.74499391  1
  Ta  Ta101  1  0.28623238  0.30935589  0.37301000  1
  Ta  Ta102  1  0.57877881  0.02105707  -0.00357217  1
  Ta  Ta103  1  0.19758297  0.40808227  0.49051686  1
  Ta  Ta104  1  0.60118294  0.60688683  0.75173681  1
  Ta  Ta105  1  0.19215115  -0.00307666  0.50361425  1
  Ta  Ta106  1  0.49312417  0.91821298  0.12341316  1
  Ta  Ta107  1  0.60101404  0.40322909  0.23320951  1
  Ta  Ta108  1  0.59569162  0.40636870  0.50242557  1
  Ta  Ta109  1  0.70732738  0.51425519  0.88247336  1
  Ta  Ta110  1  0.29323677  0.10153639  0.87535429  1
  Ta  Ta111  1  0.80365502  0.39896855  0.75342407  1
  Ta  Ta112  1  0.90372400  0.90599024  0.36872903  1
  Ta  Ta113  1  0.30027623  0.08636524  0.11922202  1
  Ta  Ta114  1  0.40398760  0.40859950  0.23955156  1
  Ta  Ta115  1  0.20974155  0.59676362  0.48239447  1
  Ta  Ta116  1  0.48822488  0.10567465  0.62222012  1
  Ta  Ta117  1  0.92007845  0.47865723  0.35850518  1
  Ta  Ta118  1  0.90381257  0.29381012  0.87371725  1
  Ta  Ta119  1  0.80785300  0.39684965  0.24405394  1
  Ti  Ti120  1  0.08759315  0.50338410  0.87812849  1
  Ti  Ti121  1  0.40934082  0.81174803  0.50165576  1
  Ti  Ti122  1  0.80237254  0.19422078  0.25440984  1
  Ti  Ti123  1  0.01286336  0.78864604  0.74676736  1
  Ti  Ti124  1  0.10302050  0.71400039  0.60347063  1
  Ti  Ti125  1  0.19760755  0.80883763  0.74467755  1
  Ti  Ti126  1  -0.03524967  0.19448045  0.48727457  1
  Ti  Ti127  1  -0.00078514  0.39127465  0.75599428  1
  Ti  Ti128  1  0.17690453  0.60308922  -0.00511655  1
  Ti  Ti129  1  0.19468133  0.20000483  0.25528083  1
  Ti  Ti130  1  0.88343565  0.88255416  0.11938128  1
  Ti  Ti131  1  0.70413346  0.31044953  0.62159464  1
  Ti  Ti132  1  0.79652808  0.59056185  0.74906611  1
  Ti  Ti133  1  0.01586139  0.40058618  0.23076027  1
  Ti  Ti134  1  0.30008848  0.71444654  0.38981145  1
  Ti  Ti135  1  0.49832284  0.70605931  0.11904954  1
  Ti  Ti136  1  0.50192895  0.69350778  0.88291556  1
  Ti  Ti137  1  0.60515596  0.39820067  0.02063613  1
  Ti  Ti138  1  0.09686702  0.69333479  0.38054235  1
  Ti  Ti139  1  0.08178045  0.31288160  0.37169255  1
  Ti  Ti140  1  0.49382252  0.09662439  0.38108524  1
  Ti  Ti141  1  0.29952752  0.71001537  0.10932768  1
  Ti  Ti142  1  0.40845675  0.40146902  0.01163975  1
  Ti  Ti143  1  0.79506016  -0.00084355  0.75618163  1
  Ti  Ti144  1  0.08641831  0.31103424  0.62463399  1
  Ti  Ti145  1  0.70694010  0.70352346  0.37324910  1
  Ti  Ti146  1  -0.00333451  -0.01616768  0.00847959  1
  Ti  Ti147  1  0.40125647  0.80756690  0.24250662  1
  Ti  Ti148  1  0.89361400  0.67610732  0.13663194  1
  Ti  Ti149  1  0.50119348  0.50829221  0.11570986  1
  Ti  Ti150  1  0.80181376  0.80140682  0.25557847  1
  Ti  Ti151  1  0.30361967  0.90441198  0.39240773  1
  Ti  Ti152  1  0.32664438  0.49534507  0.38061126  1
  Ti  Ti153  1  0.11587097  0.89420459  0.11545565  1
  Ti  Ti154  1  0.30486148  0.30221144  0.88269509  1
  Ti  Ti155  1  0.59236056  0.00765949  0.24940371  1
  Ti  Ti156  1  0.70055669  0.90394438  0.37458431  1
  Ti  Ti157  1  0.48654394  0.50512968  0.61533906  1
  Ti  Ti158  1  0.60610821  0.80482155  0.74492539  1
  Ti  Ti159  1  0.69992096  0.09726181  0.37377757  1
  Mo  Mo160  1  -0.00440723  0.19739919  0.75958575  1
  Mo  Mo161  1  0.90420444  0.29308250  0.35832944  1
  Mo  Mo162  1  0.28861722  0.91134253  0.87102144  1
  Mo  Mo163  1  0.79891145  0.19489894  0.49077361  1
  Mo  Mo164  1  0.30501899  0.50491545  0.61170098  1
  Mo  Mo165  1  0.30348657  0.90350918  0.12604508  1
  Mo  Mo166  1  0.70606465  0.91146891  0.86284371  1
  Mo  Mo167  1  0.10920618  0.49102052  0.12482154  1
  Mo  Mo168  1  0.50751522  0.49688978  0.36869552  1
  Mo  Mo169  1  0.80364344  0.20040901  -0.00708439  1
  Mo  Mo170  1  0.89521186  0.48567841  0.86940551  1
  Mo  Mo171  1  0.11222445  0.29180031  0.12508766  1
  Mo  Mo172  1  0.81161278  0.79663043  0.00186234  1
  Mo  Mo173  1  0.80756598  0.60519085  0.25674280  1
  Mo  Mo174  1  0.10632363  0.88958330  0.62387348  1
  Mo  Mo175  1  0.39488885  0.00392651  0.49546082  1
  Mo  Mo176  1  0.69989234  0.31086831  0.12359278  1
  Mo  Mo177  1  0.40289287  0.60175235  0.49262122  1
  Mo  Mo178  1  0.68985721  0.91092762  0.12917395  1
  Mo  Mo179  1  0.11328654  0.48367294  0.37176142  1
  Mo  Mo180  1  0.80326227  0.60582589  0.00128650  1
  Mo  Mo181  1  0.59965034  0.20758648  0.00385146  1
  Mo  Mo182  1  0.39946397  0.41163076  0.50155479  1
  Mo  Mo183  1  0.89895716  0.89251326  0.63068909  1
  Mo  Mo184  1  0.80044241  0.59301786  0.50050370  1
  Mo  Mo185  1  0.91339134  0.50382261  0.14524732  1
  Mo  Mo186  1  0.19668461  0.79873017  0.01280917  1
  Mo  Mo187  1  0.49662677  0.10965259  0.87012970  1
  Mo  Mo188  1  0.79658771  0.20163515  0.76560140  1
  Mo  Mo189  1  0.19976199  0.79835578  0.49343346  1
  Mo  Mo190  1  0.00535523  0.79442918  0.49651712  1
  Mo  Mo191  1  0.09146674  0.69252634  0.88033263  1
  Mo  Mo192  1  0.89003681  0.08946010  0.36663223  1
  Mo  Mo193  1  0.20492786  -0.00485369  -0.00220173  1
  Mo  Mo194  1  0.00355841  0.58790583  0.26071244  1
  Mo  Mo195  1  0.50440033  0.90138849  0.62807249  1
  Mo  Mo196  1  0.01028876  0.37566858  0.50134868  1
  Mo  Mo197  1  0.50298044  0.30538424  0.12668013  1
  Mo  Mo198  1  0.41348658  0.60580680  0.00784974  1
  Mo  Mo199  1  0.88982717  0.08964037  0.63614255  1
