# generated using pymatgen
data_HfZrTaTiMo
_symmetry_space_group_name_H-M   'P 1'
_cell_length_a   15.21781608
_cell_length_b   15.19603130
_cell_length_c   16.85403101
_cell_angle_alpha   90.00828418
_cell_angle_beta   89.97013084
_cell_angle_gamma   89.91139715
_symmetry_Int_Tables_number   1
_chemical_formula_structural   HfZrTaTiMo
_chemical_formula_sum   'Hf40 Zr40 Ta40 Ti40 Mo40'
_cell_volume   3897.49634115
_cell_formula_units_Z   40
loop_
 _symmetry_equiv_pos_site_id
 _symmetry_equiv_pos_as_xyz
  1  'x, y, z'
loop_
 _atom_site_type_symbol
 _atom_site_label
 _atom_site_symmetry_multiplicity
 _atom_site_fract_x
 _atom_site_fract_y
 _atom_site_fract_z
 _atom_site_occupancy
  Hf  Hf0  1  0.41283162  0.58308830  0.75725504  1
  Hf  Hf1  1  0.40171928  0.19078236  -0.00119336  1
  Hf  Hf2  1  0.69778573  0.09232598  0.37255950  1
  Hf  Hf3  1  0.61857118  0.79687177  0.49300086  1
  Hf  Hf4  1  -0.01636752  0.22968840  -0.01684844  1
  Hf  Hf5  1  0.09312444  0.49524697  0.37773663  1
  Hf  Hf6  1  0.59836995  0.58393998  0.22697489  1
  Hf  Hf7  1  0.40422013  0.39905661  0.22948227  1
  Hf  Hf8  1  -0.01626877  0.61677380  0.51037898  1
  Hf  Hf9  1  0.10027234  0.72322229  0.63838520  1
  Hf  Hf10  1  0.79650395  0.80271651  -0.01510784  1
  Hf  Hf11  1  0.60383268  0.39702103  0.01280500  1
  Hf  Hf12  1  0.88256307  0.51246803  0.62758871  1
  Hf  Hf13  1  0.09774507  0.30892229  0.63772817  1
  Hf  Hf14  1  0.08645784  0.70793814  0.37199263  1
  Hf  Hf15  1  0.10042104  0.49791733  0.87497292  1
  Hf  Hf16  1  0.39968371  0.59288470  0.01742751  1
  Hf  Hf17  1  0.50638638  0.90286829  0.37313314  1
  Hf  Hf18  1  0.18589728  0.39471618  0.24897130  1
  Hf  Hf19  1  0.19846427  0.20683944  0.50079271  1
  Hf  Hf20  1  0.19707857  0.59678099  0.50201301  1
  Hf  Hf21  1  0.21875850  0.59866841  0.75219250  1
  Hf  Hf22  1  0.61330682  0.19493113  0.00324096  1
  Hf  Hf23  1  0.70450995  0.10319879  0.14150948  1
  Hf  Hf24  1  0.48953061  0.90199296  0.87812603  1
  Hf  Hf25  1  0.00646052  0.00813672  0.25425514  1
  Hf  Hf26  1  0.62027569  0.59333394  0.49056868  1
  Hf  Hf27  1  0.29617256  0.89990233  0.38076873  1
  Hf  Hf28  1  0.50928937  0.11105977  0.38238153  1
  Hf  Hf29  1  0.10518647  0.49959047  0.63025630  1
  Hf  Hf30  1  0.11764744  0.71475011  0.86520769  1
  Hf  Hf31  1  -0.00805922  0.61113631  0.74900413  1
  Hf  Hf32  1  0.90986428  0.89455304  0.37593318  1
  Hf  Hf33  1  0.59971495  -0.00154736  0.74995661  1
  Hf  Hf34  1  0.89684818  0.31862705  0.36415234  1
  Hf  Hf35  1  -0.00118526  0.20722456  0.49363084  1
  Hf  Hf36  1  0.90795758  0.92088229  0.86875670  1
  Hf  Hf37  1  0.19752444  -0.01111976  -0.00100356  1
  Hf  Hf38  1  0.40837081  0.19856926  0.75315244  1
  Hf  Hf39  1  0.90085282  0.49260023  0.12441975  1
  Zr  Zr40  1  0.39728891  0.00673055  0.24364514  1
  Zr  Zr41  1  0.88771649  0.51573561  0.36879837  1
  Zr  Zr42  1  0.40101304  -0.00009388  0.72741515  1
  Zr  Zr43  1  0.70163929  0.89065902  0.12343741  1
  Zr  Zr44  1  0.10544010  0.11698442  0.12432726  1
  Zr  Zr45  1  0.88743757  0.50199458  0.87996069  1
  Zr  Zr46  1  0.89860283  0.70963607  0.11765628  1
  Zr  Zr47  1  0.78068789  0.20418489  0.50375214  1
  Zr  Zr48  1  0.01614144  0.81714198  -0.00720733  1
  Zr  Zr49  1  0.89781144  0.10161445  0.38010723  1
  Zr  Zr50  1  0.29349756  0.26986507  0.13279587  1
  Zr  Zr51  1  0.30579144  0.08125006  0.87034695  1
  Zr  Zr52  1  0.79926145  0.01466021  0.74615543  1
  Zr  Zr53  1  0.89903460  0.91489678  0.12016073  1
  Zr  Zr54  1  0.08376651  0.09177736  0.86319937  1
  Zr  Zr55  1  0.68884709  0.30069626  0.35576558  1
  Zr  Zr56  1  0.30689669  0.09888532  0.37660983  1
  Zr  Zr57  1  0.41069301  0.79254875  0.50301795  1
  Zr  Zr58  1  0.50207925  0.89769225  0.13119447  1
  Zr  Zr59  1  0.29498894  0.30062043  0.63126929  1
  Zr  Zr60  1  0.49715200  0.68973794  0.88638473  1
  Zr  Zr61  1  0.19557251  0.20464735  -0.02470443  1
  Zr  Zr62  1  0.10122347  0.90358063  0.12779785  1
  Zr  Zr63  1  0.59203839  0.39322108  0.76870152  1
  Zr  Zr64  1  0.53058466  0.69150361  0.63041708  1
  Zr  Zr65  1  0.70596678  0.88590092  0.63229663  1
  Zr  Zr66  1  0.00397775  0.60567514  -0.00215354  1
  Zr  Zr67  1  0.09004312  0.31788569  0.11896284  1
  Zr  Zr68  1  -0.01891353  0.20148992  0.75582675  1
  Zr  Zr69  1  0.49792780  0.71301449  0.12905086  1
  Zr  Zr70  1  0.40337801  0.21138515  0.50311273  1
  Zr  Zr71  1  0.30981697  0.48986304  0.37648546  1
  Zr  Zr72  1  0.89403710  0.29685581  0.14969730  1
  Zr  Zr73  1  0.88912809  0.31098844  0.62207158  1
  Zr  Zr74  1  0.30973027  0.68676060  0.61564777  1
  Zr  Zr75  1  0.50147784  0.30981946  0.62592863  1
  Zr  Zr76  1  0.50567735  0.69169689  0.35684380  1
  Zr  Zr77  1  0.09778672  0.10246262  0.63172491  1
  Zr  Zr78  1  0.40265820  0.79062135  0.74551383  1
  Zr  Zr79  1  0.30171847  0.69541770  0.37443124  1
  Ta  Ta80  1  0.71337472  0.88798608  0.37266462  1
  Ta  Ta81  1  0.02134928  0.21420481  0.26822740  1
  Ta  Ta82  1  0.61619217  0.78513639  0.77086147  1
  Ta  Ta83  1  0.79717104  -0.01747592  0.50756187  1
  Ta  Ta84  1  0.10894391  0.70267054  0.12763376  1
  Ta  Ta85  1  0.20138034  0.00041000  0.51259024  1
  Ta  Ta86  1  0.10948372  0.09395526  0.37973424  1
  Ta  Ta87  1  -0.00308575  0.80985370  0.50500579  1
  Ta  Ta88  1  0.20028469  -0.00831918  0.73521930  1
  Ta  Ta89  1  -0.00977616  0.02469620  0.00011685  1
  Ta  Ta90  1  0.42234040  0.58050573  0.49406418  1
  Ta  Ta91  1  0.20635699  0.20222986  0.76397617  1
  Ta  Ta92  1  0.39378205  0.59265024  0.23201966  1
  Ta  Ta93  1  0.77984713  0.41574805  0.49640020  1
  Ta  Ta94  1  0.29030784  0.88899240  0.61783690  1
  Ta  Ta95  1  0.29386738  0.29488148  0.36310895  1
  Ta  Ta96  1  0.19686019  0.80217503  0.25665227  1
  Ta  Ta97  1  0.19788794  0.59818021  0.24522298  1
  Ta  Ta98  1  0.40410032  0.00052512  0.51597836  1
  Ta  Ta99  1  0.30936663  0.48428581  0.61528789  1
  Ta  Ta100  1  0.60217912  0.79597257  -0.01243241  1
  Ta  Ta101  1  0.61371122  0.58600650  0.76753425  1
  Ta  Ta102  1  0.79105658  0.01933880  -0.00401418  1
  Ta  Ta103  1  0.78331900  0.40772428  0.75728566  1
  Ta  Ta104  1  0.78878974  0.61388849  0.23286282  1
  Ta  Ta105  1  0.89451924  0.09363975  0.61425217  1
  Ta  Ta106  1  0.50139431  0.49513961  0.62599396  1
  Ta  Ta107  1  0.29984695  0.88783137  0.13104255  1
  Ta  Ta108  1  0.52659691  0.10486394  0.60855055  1
  Ta  Ta109  1  0.60406354  -0.00346380  0.25259228  1
  Ta  Ta110  1  0.00245038  0.60263886  0.24184803  1
  Ta  Ta111  1  0.80217518  -0.00750126  0.25378964  1
  Ta  Ta112  1  0.81053024  0.77795052  0.50720759  1
  Ta  Ta113  1  0.59778325  -0.00145004  -0.00112296  1
  Ta  Ta114  1  0.90398376  0.70904658  0.87484477  1
  Ta  Ta115  1  0.68896872  0.49850916  0.62828059  1
  Ta  Ta116  1  0.39687929  -0.00577406  0.01173391  1
  Ta  Ta117  1  0.60911622  0.19131733  0.75502838  1
  Ta  Ta118  1  0.80544021  0.38243511  -0.00047304  1
  Ta  Ta119  1  0.28812211  0.87738545  0.87134991  1
  Ti  Ti120  1  0.29257008  0.70199105  0.13030048  1
  Ti  Ti121  1  0.69894676  0.90831531  0.87454120  1
  Ti  Ti122  1  0.20868507  0.39682689  0.76582009  1
  Ti  Ti123  1  0.19436165  0.39626699  -0.00952974  1
  Ti  Ti124  1  -0.00339361  0.80135847  0.24553674  1
  Ti  Ti125  1  0.00735664  -0.00492412  0.50211163  1
  Ti  Ti126  1  0.51102625  0.89741669  0.61854277  1
  Ti  Ti127  1  -0.01202773  0.40273172  0.75585232  1
  Ti  Ti128  1  0.09796550  0.50750274  0.11665781  1
  Ti  Ti129  1  0.20662521  0.60945467  -0.00287334  1
  Ti  Ti130  1  0.69421308  0.50144938  0.35873511  1
  Ti  Ti131  1  0.49726625  0.29420793  0.88294826  1
  Ti  Ti132  1  0.78788774  0.20910694  0.73883266  1
  Ti  Ti133  1  0.38554687  0.79795938  -0.00159425  1
  Ti  Ti134  1  0.50231195  0.49032738  0.89573922  1
  Ti  Ti135  1  0.49752099  0.10673526  0.13098046  1
  Ti  Ti136  1  0.39392030  0.39683462  0.76497123  1
  Ti  Ti137  1  0.70628685  0.29654444  0.14121415  1
  Ti  Ti138  1  0.68663308  0.30259101  0.62303059  1
  Ti  Ti139  1  0.60861342  0.59767481  0.01281542  1
  Ti  Ti140  1  0.49041874  0.31199921  0.36624658  1
  Ti  Ti141  1  0.91419328  0.89417265  0.63540171  1
  Ti  Ti142  1  0.59283328  0.39608593  0.22896716  1
  Ti  Ti143  1  0.10141026  0.90504476  0.85598684  1
  Ti  Ti144  1  0.80588375  0.79564783  0.76056170  1
  Ti  Ti145  1  0.18611986  0.80618295  0.49534441  1
  Ti  Ti146  1  0.87078228  0.12178558  0.87943896  1
  Ti  Ti147  1  0.71333248  0.28795435  0.87918942  1
  Ti  Ti148  1  0.88368717  0.70578086  0.36413114  1
  Ti  Ti149  1  0.78793601  0.59553044  0.00311979  1
  Ti  Ti150  1  0.50753755  0.09587819  0.87957651  1
  Ti  Ti151  1  0.30727705  0.49733154  0.88932648  1
  Ti  Ti152  1  0.78975182  0.60885372  0.75914356  1
  Ti  Ti153  1  0.39590648  0.38613841  0.01137995  1
  Ti  Ti154  1  0.28446285  0.49128146  0.11784814  1
  Ti  Ti155  1  0.00061751  0.40618072  0.50322959  1
  Ti  Ti156  1  0.62903863  0.78818420  0.25330762  1
  Ti  Ti157  1  0.89896194  0.11190019  0.13180342  1
  Ti  Ti158  1  0.20058357  0.00293833  0.24781778  1
  Ti  Ti159  1  0.58424418  0.40186259  0.48908742  1
  Mo  Mo160  1  0.00038474  0.40705292  -0.00750921  1
  Mo  Mo161  1  0.79870245  0.20155886  0.00826273  1
  Mo  Mo162  1  0.69956937  0.69906923  0.11161335  1
  Mo  Mo163  1  0.19479484  0.39808072  0.49900061  1
  Mo  Mo164  1  0.50787217  0.48845363  0.36430498  1
  Mo  Mo165  1  0.20929200  0.79376504  0.00309907  1
  Mo  Mo166  1  0.38335659  0.79354246  0.25285644  1
  Mo  Mo167  1  0.71380505  0.68698951  0.63671613  1
  Mo  Mo168  1  0.78440524  0.41627701  0.24614383  1
  Mo  Mo169  1  0.39709853  0.40199573  0.49255231  1
  Mo  Mo170  1  0.00153381  0.41400408  0.25316277  1
  Mo  Mo171  1  0.30374457  0.68872311  0.88256696  1
  Mo  Mo172  1  0.40795886  0.20308111  0.25103967  1
  Mo  Mo173  1  0.09876765  0.30962348  0.85802886  1
  Mo  Mo174  1  0.10402285  0.30317286  0.38202569  1
  Mo  Mo175  1  0.80526090  0.80164508  0.24827319  1
  Mo  Mo176  1  0.69310910  0.09894969  0.87617775  1
  Mo  Mo177  1  0.10278120  0.90542243  0.37609295  1
  Mo  Mo178  1  0.30624503  0.09538179  0.62560975  1
  Mo  Mo179  1  0.71258447  0.69144117  0.36660925  1
  Mo  Mo180  1  0.79490375  0.60034680  0.49939579  1
  Mo  Mo181  1  -0.00362075  0.80980735  0.75708301  1
  Mo  Mo182  1  0.30772071  0.30722014  0.87876562  1
  Mo  Mo183  1  0.20898896  0.80448006  0.74550388  1
  Mo  Mo184  1  0.70890081  0.49114212  0.12205573  1
  Mo  Mo185  1  0.80485262  0.19489964  0.25735656  1
  Mo  Mo186  1  0.50581428  0.28812587  0.12347156  1
  Mo  Mo187  1  0.70754961  0.69209858  0.88274656  1
  Mo  Mo188  1  0.09787479  0.90400690  0.62428176  1
  Mo  Mo189  1  0.29977071  0.08508835  0.12264942  1
  Mo  Mo190  1  0.69504927  0.49654463  0.88833182  1
  Mo  Mo191  1  0.20101943  0.18968283  0.25955512  1
  Mo  Mo192  1  0.88879655  0.71144623  0.63745011  1
  Mo  Mo193  1  0.58624157  0.20133188  0.24207696  1
  Mo  Mo194  1  0.70198694  0.10351910  0.61802639  1
  Mo  Mo195  1  0.88758743  0.30848938  0.86395052  1
  Mo  Mo196  1  0.60228672  0.21345700  0.49556611  1
  Mo  Mo197  1  -0.00454009  0.00024854  0.73796478  1
  Mo  Mo198  1  0.60846864  -0.00246100  0.50072751  1
  Mo  Mo199  1  0.49486661  0.49383161  0.11155146  1
