# generated using pymatgen
data_HfZrTaTiMo
_symmetry_space_group_name_H-M   'P 1'
_cell_length_a   15.20925629
_cell_length_b   15.20725334
_cell_length_c   16.81363178
_cell_angle_alpha   90.00765649
_cell_angle_beta   89.97794111
_cell_angle_gamma   90.01277498
_symmetry_Int_Tables_number   1
_chemical_formula_structural   HfZrTaTiMo
_chemical_formula_sum   'Hf40 Zr40 Ta40 Ti40 Mo40'
_cell_volume   3888.84151473
_cell_formula_units_Z   40
loop_
 _symmetry_equiv_pos_site_id
 _symmetry_equiv_pos_as_xyz
  1  'x, y, z'
loop_
 _atom_site_type_symbol
 _atom_site_label
 _atom_site_symmetry_multiplicity
 _atom_site_fract_x
 _atom_site_fract_y
 _atom_site_fract_z
 _atom_site_occupancy
  Hf  Hf0  1  0.59874430  0.38766542  0.74325742  1
  Hf  Hf1  1  0.09890221  0.71176362  0.64176522  1
  Hf  Hf2  1  0.30169449  0.28538374  0.14458121  1
  Hf  Hf3  1  0.30836522  0.50296120  0.37423871  1
  Hf  Hf4  1  0.60023915  0.60146307  0.01437197  1
  Hf  Hf5  1  0.08212304  0.30557031  0.62358037  1
  Hf  Hf6  1  0.12015147  0.90561170  0.36569385  1
  Hf  Hf7  1  0.27662347  0.10352324  0.88609854  1
  Hf  Hf8  1  0.29999551  0.71389268  0.62762392  1
  Hf  Hf9  1  0.41824253  0.00811427  -0.00817492  1
  Hf  Hf10  1  0.01755614  0.38436199  0.01205823  1
  Hf  Hf11  1  0.82433095  0.38860448  0.50541273  1
  Hf  Hf12  1  0.00247841  0.59973786  0.50375084  1
  Hf  Hf13  1  0.67710872  0.09460684  0.39429726  1
  Hf  Hf14  1  0.90129216  0.70636786  0.64459957  1
  Hf  Hf15  1  0.29106334  0.10214944  0.62665872  1
  Hf  Hf16  1  0.00712253  -0.00621770  0.24299866  1
  Hf  Hf17  1  0.49878226  0.90451749  0.38435350  1
  Hf  Hf18  1  0.21556831  0.39881499  0.01475091  1
  Hf  Hf19  1  0.81018405  0.60173583  0.50024772  1
  Hf  Hf20  1  0.40077476  0.59978287  0.74177110  1
  Hf  Hf21  1  0.91745272  0.49169816  0.63587966  1
  Hf  Hf22  1  0.01192865  -0.01114142  0.50307312  1
  Hf  Hf23  1  0.49766373  0.69797415  0.38068456  1
  Hf  Hf24  1  -0.00976479  0.00687959  0.00097100  1
  Hf  Hf25  1  0.10409323  0.30589000  0.35304378  1
  Hf  Hf26  1  0.50521899  0.29339393  0.38330199  1
  Hf  Hf27  1  0.89644061  0.31104892  0.35070838  1
  Hf  Hf28  1  0.28689937  0.70087345  0.87041294  1
  Hf  Hf29  1  0.49087010  0.11151033  0.61905897  1
  Hf  Hf30  1  0.10141203  0.50975232  0.36233383  1
  Hf  Hf31  1  0.69930977  0.88550544  0.62617644  1
  Hf  Hf32  1  0.30431763  0.89267257  0.88600908  1
  Hf  Hf33  1  0.59406153  -0.00637708  0.73316942  1
  Hf  Hf34  1  0.47271596  0.69467954  0.13463479  1
  Hf  Hf35  1  0.59705071  0.79968920  0.24007765  1
  Hf  Hf36  1  0.59734412  0.00159857  0.25206377  1
  Hf  Hf37  1  0.31211335  0.49778427  0.87965508  1
  Hf  Hf38  1  0.90024937  0.48697500  0.89119512  1
  Hf  Hf39  1  0.71039746  0.49274893  0.62860393  1
  Zr  Zr40  1  0.70826096  0.50425746  0.87566700  1
  Zr  Zr41  1  0.31652638  0.89336166  0.10744355  1
  Zr  Zr42  1  0.79028890  0.80509394  0.00413873  1
  Zr  Zr43  1  0.79434486  0.18494485  0.00242086  1
  Zr  Zr44  1  0.00727740  0.01683862  0.75294362  1
  Zr  Zr45  1  0.88716350  0.09317256  0.36792783  1
  Zr  Zr46  1  0.81416976  0.38048672  0.75126999  1
  Zr  Zr47  1  0.52106390  0.89976656  0.87600739  1
  Zr  Zr48  1  0.48711662  0.70219471  0.87800929  1
  Zr  Zr49  1  0.88875490  0.69364242  0.86648140  1
  Zr  Zr50  1  0.11433130  0.50754639  0.88134965  1
  Zr  Zr51  1  0.09761911  0.10316283  0.36554219  1
  Zr  Zr52  1  0.00537114  0.60586351  0.01073205  1
  Zr  Zr53  1  0.78001362  0.19650719  0.24707714  1
  Zr  Zr54  1  0.00489944  0.41479941  0.22166369  1
  Zr  Zr55  1  0.58242026  0.19059588  -0.00620283  1
  Zr  Zr56  1  0.68836327  0.70833795  0.86161185  1
  Zr  Zr57  1  -0.01627015  0.21919349  0.49035635  1
  Zr  Zr58  1  0.08545884  0.71322223  0.36551558  1
  Zr  Zr59  1  0.32737870  0.50644496  0.13596452  1
  Zr  Zr60  1  0.38472820  0.21630102  -0.00885159  1
  Zr  Zr61  1  0.19297611  0.39691369  0.49495458  1
  Zr  Zr62  1  0.71198063  0.49322139  0.37448842  1
  Zr  Zr63  1  0.88749227  0.08956702  0.13406150  1
  Zr  Zr64  1  0.61303660  0.60643285  0.50353465  1
  Zr  Zr65  1  0.30919271  0.49959334  0.61011379  1
  Zr  Zr66  1  0.51042832  0.72519573  0.61075846  1
  Zr  Zr67  1  0.19545583  0.19376564  0.49477509  1
  Zr  Zr68  1  0.61916946  0.39113202  0.25157031  1
  Zr  Zr69  1  0.68633475  0.08819346  0.86818024  1
  Zr  Zr70  1  0.80605009  -0.01644223  0.50167725  1
  Zr  Zr71  1  0.19981844  0.61446844  0.50203909  1
  Zr  Zr72  1  0.58791157  0.80543650  0.02593997  1
  Zr  Zr73  1  0.89755779  0.11303653  0.62412163  1
  Zr  Zr74  1  0.39807549  0.01105603  0.76009214  1
  Zr  Zr75  1  0.59173840  0.59142274  0.73858163  1
  Zr  Zr76  1  0.29044544  0.71155106  0.36925255  1
  Zr  Zr77  1  0.17849917  0.20454023  0.75622588  1
  Zr  Zr78  1  0.60539710  0.39283070  0.00194892  1
  Zr  Zr79  1  0.00075396  0.80345044  -0.00258439  1
  Ta  Ta80  1  0.70319238  0.69843881  0.36115191  1
  Ta  Ta81  1  0.70459210  0.28781878  0.38891537  1
  Ta  Ta82  1  0.29052970  0.09173884  0.11962444  1
  Ta  Ta83  1  0.58590277  0.19495473  0.25119659  1
  Ta  Ta84  1  0.29384521  0.08044389  0.37087166  1
  Ta  Ta85  1  0.80260715  0.79511731  0.24578821  1
  Ta  Ta86  1  0.70844623  0.29514139  0.87676964  1
  Ta  Ta87  1  0.01765087  0.38741055  0.76795091  1
  Ta  Ta88  1  0.69719428  0.09907799  0.61677325  1
  Ta  Ta89  1  0.50399551  0.49886792  0.87631484  1
  Ta  Ta90  1  0.91544599  0.27921055  0.88911353  1
  Ta  Ta91  1  0.50039958  0.49706365  0.39387546  1
  Ta  Ta92  1  0.60880799  0.38925387  0.50571414  1
  Ta  Ta93  1  0.90311963  0.89327930  0.13419209  1
  Ta  Ta94  1  0.19301323  0.82392671  0.50543054  1
  Ta  Ta95  1  0.40754685  0.40318022  0.74544988  1
  Ta  Ta96  1  0.10956011  0.91146834  0.87824429  1
  Ta  Ta97  1  0.39560614  -0.00505003  0.24897777  1
  Ta  Ta98  1  -0.00394587  0.61223269  0.22638719  1
  Ta  Ta99  1  0.88297703  0.09038000  0.87141763  1
  Ta  Ta100  1  0.48720979  0.10037638  0.12922430  1
  Ta  Ta101  1  0.19730246  0.60875040  0.23055428  1
  Ta  Ta102  1  0.41898257  0.40294193  0.25695357  1
  Ta  Ta103  1  0.71146703  0.69915178  0.64230191  1
  Ta  Ta104  1  0.71046552  0.49751161  0.12200439  1
  Ta  Ta105  1  0.90246421  0.90045838  0.85959053  1
  Ta  Ta106  1  0.91035017  0.50538203  0.36471612  1
  Ta  Ta107  1  0.89149563  0.30074606  0.12176256  1
  Ta  Ta108  1  0.20460344  0.61173124  0.02184400  1
  Ta  Ta109  1  0.39018851  0.21706578  0.76006850  1
  Ta  Ta110  1  0.00283195  0.59267783  0.76022997  1
  Ta  Ta111  1  0.90903322  0.88373616  0.36310035  1
  Ta  Ta112  1  0.21463093  0.39689088  0.74966795  1
  Ta  Ta113  1  0.58858259  0.58822243  0.24594233  1
  Ta  Ta114  1  0.39418953  0.19761242  0.48735319  1
  Ta  Ta115  1  0.89491827  0.69507870  0.36258420  1
  Ta  Ta116  1  0.10646985  0.50160947  0.63665549  1
  Ta  Ta117  1  0.68601024  0.09340527  0.12672332  1
  Ta  Ta118  1  0.30672625  0.29865557  0.62158415  1
  Ta  Ta119  1  0.49787150  0.29901154  0.13367889  1
  Ti  Ti120  1  0.20679237  0.40558368  0.23861992  1
  Ti  Ti121  1  0.88305087  0.69845185  0.12273813  1
  Ti  Ti122  1  0.39717230  0.60390596  0.00148180  1
  Ti  Ti123  1  0.29912498  0.90555852  0.62950218  1
  Ti  Ti124  1  0.19754548  0.79602631  0.00669322  1
  Ti  Ti125  1  0.71804596  0.90266848  0.85706354  1
  Ti  Ti126  1  0.79931114  0.78969564  0.49430897  1
  Ti  Ti127  1  0.09802685  0.09982796  0.62170976  1
  Ti  Ti128  1  0.89046688  0.49901668  0.10620726  1
  Ti  Ti129  1  0.70703848  0.89155973  0.37482299  1
  Ti  Ti130  1  0.17742135  0.20838620  0.00493183  1
  Ti  Ti131  1  0.07419452  0.12220378  0.88749885  1
  Ti  Ti132  1  0.10985289  0.91119138  0.11661383  1
  Ti  Ti133  1  0.10753857  0.10479964  0.12540652  1
  Ti  Ti134  1  0.41506775  0.40528962  0.00604410  1
  Ti  Ti135  1  0.39269361  0.80428504  0.25381796  1
  Ti  Ti136  1  0.70074484  0.29597120  0.12043390  1
  Ti  Ti137  1  0.38312895  -0.00204667  0.49852736  1
  Ti  Ti138  1  0.58988905  0.19884973  0.75080088  1
  Ti  Ti139  1  -0.00854250  0.80003333  0.50298531  1
  Ti  Ti140  1  0.10398514  0.90158021  0.63885563  1
  Ti  Ti141  1  0.49551742  0.30550684  0.87102492  1
  Ti  Ti142  1  0.39970222  0.18641255  0.26304091  1
  Ti  Ti143  1  0.30068868  0.29705866  0.36261193  1
  Ti  Ti144  1  0.49569643  0.49678891  0.59857406  1
  Ti  Ti145  1  0.58630301  -0.01127877  0.51307564  1
  Ti  Ti146  1  0.09933701  0.71564007  0.86189870  1
  Ti  Ti147  1  0.00369355  0.20323812  0.23377865  1
  Ti  Ti148  1  0.79780956  0.59043470  0.24134187  1
  Ti  Ti149  1  0.70567228  0.28108174  0.61615305  1
  Ti  Ti150  1  0.19776585  0.81069572  0.23335992  1
  Ti  Ti151  1  0.40889331  0.81393081  0.74285901  1
  Ti  Ti152  1  0.71374036  0.90879608  0.13548825  1
  Ti  Ti153  1  0.20150970  0.59863737  0.74735313  1
  Ti  Ti154  1  0.90476313  0.89863564  0.64711317  1
  Ti  Ti155  1  0.61707923  -0.00529247  0.00834443  1
  Ti  Ti156  1  0.49408685  0.30387857  0.61346778  1
  Ti  Ti157  1  0.39221710  0.80771057  0.49793519  1
  Ti  Ti158  1  0.79515237  0.19085238  0.75212194  1
  Ti  Ti159  1  0.20083590  -0.00261357  0.75460830  1
  Mo  Mo160  1  0.62147744  0.80489483  0.48679953  1
  Mo  Mo161  1  0.59636142  0.80182467  0.74843334  1
  Mo  Mo162  1  0.80480257  0.40239868  0.23967431  1
  Mo  Mo163  1  0.29505825  0.70502943  0.13285585  1
  Mo  Mo164  1  0.50847400  0.49168148  0.12980150  1
  Mo  Mo165  1  0.00089761  0.79919732  0.23511802  1
  Mo  Mo166  1  0.00956320  0.80816859  0.76410020  1
  Mo  Mo167  1  0.09592685  0.71706631  0.12756253  1
  Mo  Mo168  1  0.79782829  -0.01544365  -0.00078925  1
  Mo  Mo169  1  0.80125704  0.80478930  0.75145656  1
  Mo  Mo170  1  0.40121755  0.60761622  0.49595932  1
  Mo  Mo171  1  -0.01706867  0.21027592  0.75620343  1
  Mo  Mo172  1  0.80272566  0.38995564  -0.00049239  1
  Mo  Mo173  1  0.20725535  0.18958073  0.25083544  1
  Mo  Mo174  1  0.19049851  0.00516019  -0.00135238  1
  Mo  Mo175  1  0.80020929  0.00318786  0.73814300  1
  Mo  Mo176  1  0.49335084  0.11074417  0.86193164  1
  Mo  Mo177  1  0.10819483  0.30102939  0.88146416  1
  Mo  Mo178  1  0.89538137  0.30073743  0.63196441  1
  Mo  Mo179  1  0.10715418  0.29123725  0.14004241  1
  Mo  Mo180  1  0.21076119  -0.00220404  0.23641818  1
  Mo  Mo181  1  0.39280028  0.79001532  -0.00135745  1
  Mo  Mo182  1  0.29876301  0.31163458  0.87356104  1
  Mo  Mo183  1  0.48742101  0.90332461  0.61112275  1
  Mo  Mo184  1  0.00410391  0.41196696  0.49096308  1
  Mo  Mo185  1  0.59351459  0.19673947  0.50953073  1
  Mo  Mo186  1  0.30395960  0.89928109  0.37287190  1
  Mo  Mo187  1  0.79384077  0.59887161  0.01163167  1
  Mo  Mo188  1  0.48642676  0.09548049  0.38182725  1
  Mo  Mo189  1  0.50557097  0.91309721  0.12630016  1
  Mo  Mo190  1  0.20602787  0.81377407  0.75179977  1
  Mo  Mo191  1  0.69833853  0.69101991  0.14611037  1
  Mo  Mo192  1  0.40400823  0.59659280  0.26350315  1
  Mo  Mo193  1  0.79364657  -0.01411673  0.26140602  1
  Mo  Mo194  1  -0.00269203  0.19673078  0.01540480  1
  Mo  Mo195  1  0.79116470  0.19850589  0.49865736  1
  Mo  Mo196  1  0.80744054  0.59378987  0.74976643  1
  Mo  Mo197  1  0.20072680  -0.00372813  0.50904804  1
  Mo  Mo198  1  0.10983618  0.50564982  0.12295030  1
  Mo  Mo199  1  0.40176832  0.39185209  0.49306968  1
