# generated using pymatgen
data_HfZrTaTiMo
_symmetry_space_group_name_H-M   'P 1'
_cell_length_a   15.21306796
_cell_length_b   15.20830313
_cell_length_c   16.82548450
_cell_angle_alpha   90.00153026
_cell_angle_beta   90.00121902
_cell_angle_gamma   89.83752665
_symmetry_Int_Tables_number   1
_chemical_formula_structural   HfZrTaTiMo
_chemical_formula_sum   'Hf40 Zr40 Ta40 Ti40 Mo40'
_cell_volume   3892.81171069
_cell_formula_units_Z   40
loop_
 _symmetry_equiv_pos_site_id
 _symmetry_equiv_pos_as_xyz
  1  'x, y, z'
loop_
 _atom_site_type_symbol
 _atom_site_label
 _atom_site_symmetry_multiplicity
 _atom_site_fract_x
 _atom_site_fract_y
 _atom_site_fract_z
 _atom_site_occupancy
  Hf  Hf0  1  0.89038586  0.10476010  0.85906071  1
  Hf  Hf1  1  0.59384919  0.80230344  0.26078358  1
  Hf  Hf2  1  0.20622354  0.59143613  0.50295977  1
  Hf  Hf3  1  0.79766966  0.19123856  0.24405613  1
  Hf  Hf4  1  0.79540662  0.59808266  0.74628533  1
  Hf  Hf5  1  0.70898867  0.48974142  0.61769852  1
  Hf  Hf6  1  0.61372712  0.19428174  0.73700234  1
  Hf  Hf7  1  0.70251036  0.48802916  0.11836012  1
  Hf  Hf8  1  0.20530615  0.21021077  0.77255188  1
  Hf  Hf9  1  0.69939094  0.49661493  0.37504296  1
  Hf  Hf10  1  0.60299061  0.00567537  0.25606910  1
  Hf  Hf11  1  0.69491325  0.90169285  0.11396844  1
  Hf  Hf12  1  0.91774529  0.49922997  0.36251736  1
  Hf  Hf13  1  0.10507388  0.70852887  0.61736797  1
  Hf  Hf14  1  0.50661816  0.50539159  0.63564876  1
  Hf  Hf15  1  0.21064890  0.20603526  -0.01967524  1
  Hf  Hf16  1  0.90275392  0.90794962  0.86771721  1
  Hf  Hf17  1  0.91254517  0.69576711  0.88302276  1
  Hf  Hf18  1  0.39174893  -0.00288496  0.48360512  1
  Hf  Hf19  1  0.69160948  0.70287213  0.62032534  1
  Hf  Hf20  1  0.29559242  0.11488659  0.36886135  1
  Hf  Hf21  1  0.91153767  0.69300772  0.12831231  1
  Hf  Hf22  1  0.49231075  0.30485843  0.62904945  1
  Hf  Hf23  1  0.80132141  0.00122329  0.50777113  1
  Hf  Hf24  1  0.49403499  0.29584620  0.37068347  1
  Hf  Hf25  1  -0.00002363  0.59944065  0.50499981  1
  Hf  Hf26  1  0.69010750  0.90841176  0.88746518  1
  Hf  Hf27  1  0.10754093  0.69926383  0.87967368  1
  Hf  Hf28  1  0.80382699  0.39687292  0.24843541  1
  Hf  Hf29  1  0.80510414  0.60058455  0.49509106  1
  Hf  Hf30  1  0.40709099  0.00044696  0.26253679  1
  Hf  Hf31  1  0.69361393  0.10229955  0.11942681  1
  Hf  Hf32  1  0.90685718  0.30557457  0.12681542  1
  Hf  Hf33  1  0.18247402  0.00537806  0.00815362  1
  Hf  Hf34  1  0.49929295  0.70945732  0.11205497  1
  Hf  Hf35  1  0.20869522  0.80391843  0.00822157  1
  Hf  Hf36  1  0.68690400  0.11275420  0.88355589  1
  Hf  Hf37  1  0.10160569  0.50717000  0.87667819  1
  Hf  Hf38  1  0.40215526  0.39309636  0.23095443  1
  Hf  Hf39  1  0.59964215  0.39215149  0.49971742  1
  Zr  Zr40  1  0.50319209  0.49820993  0.87308245  1
  Zr  Zr41  1  0.10747535  0.48181328  0.36714603  1
  Zr  Zr42  1  0.69779041  0.69877628  0.10659692  1
  Zr  Zr43  1  0.16830942  0.00881955  0.24458809  1
  Zr  Zr44  1  0.62810283  0.39659939  0.76231075  1
  Zr  Zr45  1  0.69419603  0.10809974  0.38491975  1
  Zr  Zr46  1  0.59482146  0.59587056  0.24659872  1
  Zr  Zr47  1  0.89827235  0.49775135  0.86365250  1
  Zr  Zr48  1  0.89899273  0.89654836  0.63361314  1
  Zr  Zr49  1  0.00274763  0.20091936  -0.00236302  1
  Zr  Zr50  1  0.30807477  0.47679185  0.62893342  1
  Zr  Zr51  1  0.89474917  0.10892409  0.64207299  1
  Zr  Zr52  1  0.30965599  0.48795147  0.37067937  1
  Zr  Zr53  1  0.29867115  0.10969230  0.13428193  1
  Zr  Zr54  1  0.41190646  0.40012205  0.00489451  1
  Zr  Zr55  1  0.38586929  -0.00015403  0.00777089  1
  Zr  Zr56  1  0.18533590  0.19806756  0.49722997  1
  Zr  Zr57  1  0.20524623  -0.00766793  0.75148880  1
  Zr  Zr58  1  0.48765049  0.89891659  0.61346794  1
  Zr  Zr59  1  0.09750303  0.69668068  0.36650869  1
  Zr  Zr60  1  0.00657220  0.79705281  0.74432199  1
  Zr  Zr61  1  0.30072737  0.69429373  0.36381871  1
  Zr  Zr62  1  0.79818233  0.79642763  0.49719942  1
  Zr  Zr63  1  0.79860010  0.60410912  0.25031806  1
  Zr  Zr64  1  0.29971927  0.10164184  0.62149165  1
  Zr  Zr65  1  0.81032339  0.80567599  -0.00300349  1
  Zr  Zr66  1  0.59297010  0.80288456  0.75595353  1
  Zr  Zr67  1  0.79088635  0.80173691  0.75200111  1
  Zr  Zr68  1  0.48154803  0.90629462  0.88511463  1
  Zr  Zr69  1  0.79421168  0.80731191  0.25569768  1
  Zr  Zr70  1  0.40788267  0.19067141  0.76412443  1
  Zr  Zr71  1  0.49219513  0.70156898  0.61954878  1
  Zr  Zr72  1  0.92079581  0.29222574  0.36908001  1
  Zr  Zr73  1  0.11295249  0.30071284  0.63619070  1
  Zr  Zr74  1  0.90130485  0.30537246  0.64346212  1
  Zr  Zr75  1  0.69753596  0.68322732  0.89551756  1
  Zr  Zr76  1  0.38326010  0.80013794  0.75229948  1
  Zr  Zr77  1  0.90470995  0.09031634  0.37784354  1
  Zr  Zr78  1  0.49305570  0.70053055  0.89838687  1
  Zr  Zr79  1  0.29899629  0.89590348  0.14290428  1
  Ta  Ta80  1  0.59910913  0.60297586  0.48956940  1
  Ta  Ta81  1  0.90351651  0.90954775  0.12515855  1
  Ta  Ta82  1  0.40654131  0.59052849  0.49861825  1
  Ta  Ta83  1  0.79758981  0.21115060  0.50717128  1
  Ta  Ta84  1  0.81586104  0.39707308  0.49437217  1
  Ta  Ta85  1  0.39167534  0.22220600  0.50141282  1
  Ta  Ta86  1  0.09444767  0.10395676  0.63326575  1
  Ta  Ta87  1  0.41940466  0.19994498  -0.01710164  1
  Ta  Ta88  1  0.69604978  0.90504094  0.38444442  1
  Ta  Ta89  1  0.00976731  0.18743226  0.23391708  1
  Ta  Ta90  1  0.68026266  0.91308012  0.61495516  1
  Ta  Ta91  1  0.10533242  0.49577085  0.62921823  1
  Ta  Ta92  1  0.50845488  0.09745115  0.60449381  1
  Ta  Ta93  1  0.29815754  0.50942880  0.88231641  1
  Ta  Ta94  1  0.28872009  0.89052675  0.60894609  1
  Ta  Ta95  1  0.69959327  0.29717175  0.37468918  1
  Ta  Ta96  1  0.20550826  0.60365044  0.74500079  1
  Ta  Ta97  1  0.79691706  0.20763322  0.00189138  1
  Ta  Ta98  1  0.39225831  0.59908802  0.75531645  1
  Ta  Ta99  1  0.00063960  0.41140714  -0.00076721  1
  Ta  Ta100  1  0.19367121  0.59442103  0.02058981  1
  Ta  Ta101  1  0.01389666  0.38784974  0.50459839  1
  Ta  Ta102  1  -0.00598369  0.00263810  0.00346477  1
  Ta  Ta103  1  0.90334737  0.29824330  0.86238132  1
  Ta  Ta104  1  0.10022537  0.70474692  0.13537522  1
  Ta  Ta105  1  0.90505171  0.70695037  0.36608658  1
  Ta  Ta106  1  0.29885265  0.69687047  0.88678100  1
  Ta  Ta107  1  0.00792878  0.01044426  0.50980659  1
  Ta  Ta108  1  0.91076770  0.49834879  0.63036301  1
  Ta  Ta109  1  0.50056849  0.90638066  0.12034922  1
  Ta  Ta110  1  0.19605746  0.21855578  0.25154806  1
  Ta  Ta111  1  0.01127859  0.80827837  0.00748384  1
  Ta  Ta112  1  0.40185867  0.59107144  0.23110130  1
  Ta  Ta113  1  0.08351145  0.91063744  0.38200379  1
  Ta  Ta114  1  0.20103751  0.58936628  0.23291680  1
  Ta  Ta115  1  -0.00121907  0.81963381  0.25011178  1
  Ta  Ta116  1  0.30011182  0.69958397  0.13330477  1
  Ta  Ta117  1  0.10156708  0.90206611  0.87744696  1
  Ta  Ta118  1  0.30843318  0.29293658  0.11501816  1
  Ta  Ta119  1  0.80323245  0.39396590  -0.00371533  1
  Ti  Ti120  1  0.80726131  0.01252588  0.00296520  1
  Ti  Ti121  1  0.19236166  0.80238162  0.25106762  1
  Ti  Ti122  1  0.59995449  0.60406697  0.75962460  1
  Ti  Ti123  1  0.59750903  0.39112859  0.24446866  1
  Ti  Ti124  1  0.39044407  0.79188685  0.48438247  1
  Ti  Ti125  1  0.10626919  0.90750279  0.61262564  1
  Ti  Ti126  1  0.00781674  -0.00061850  0.74468046  1
  Ti  Ti127  1  0.39887750  0.38832187  0.77118708  1
  Ti  Ti128  1  0.50350793  0.10707514  0.38575071  1
  Ti  Ti129  1  0.39956086  -0.00456949  0.74403329  1
  Ti  Ti130  1  0.10958485  0.30056187  0.11722588  1
  Ti  Ti131  1  0.08978685  0.11017882  0.37785165  1
  Ti  Ti132  1  0.07864134  0.49978612  0.13208869  1
  Ti  Ti133  1  0.58939782  0.80300587  0.48295416  1
  Ti  Ti134  1  0.68789887  0.29342417  0.12529797  1
  Ti  Ti135  1  -0.00900151  0.80588710  0.49899505  1
  Ti  Ti136  1  0.08897852  0.09947425  0.86781414  1
  Ti  Ti137  1  0.21124121  0.40352707  0.76604047  1
  Ti  Ti138  1  0.20080228  0.79891538  0.75134380  1
  Ti  Ti139  1  0.28522526  0.90138864  0.36942498  1
  Ti  Ti140  1  0.60766938  0.37731811  -0.01126552  1
  Ti  Ti141  1  0.82179520  0.58156535  0.00727454  1
  Ti  Ti142  1  0.77234816  0.01144663  0.74018515  1
  Ti  Ti143  1  0.30130736  0.69745778  0.61893424  1
  Ti  Ti144  1  0.30674612  0.07992045  0.87487915  1
  Ti  Ti145  1  0.01526571  0.39786389  0.75700428  1
  Ti  Ti146  1  0.49906974  0.49669174  0.37128580  1
  Ti  Ti147  1  0.80912858  -0.00494171  0.25076558  1
  Ti  Ti148  1  0.58662631  0.00390452  0.74770167  1
  Ti  Ti149  1  0.00570925  0.60285897  0.73627337  1
  Ti  Ti150  1  0.38719960  0.59413619  0.02025431  1
  Ti  Ti151  1  0.40340191  0.79735711  0.25762069  1
  Ti  Ti152  1  0.21889407  0.38382921  0.49836934  1
  Ti  Ti153  1  0.59162717  0.57386077  0.00661772  1
  Ti  Ti154  1  0.19534696  0.80642017  0.48928455  1
  Ti  Ti155  1  0.49783927  0.11955497  0.13283375  1
  Ti  Ti156  1  0.20214126  0.39737862  0.23623523  1
  Ti  Ti157  1  0.58237801  0.01722809  0.00197257  1
  Ti  Ti158  1  0.49783945  0.69195144  0.37443038  1
  Ti  Ti159  1  0.20144809  0.40248629  0.00011765  1
  Mo  Mo160  1  0.39323820  0.79518661  0.00875502  1
  Mo  Mo161  1  0.29072323  0.49323119  0.12016918  1
  Mo  Mo162  1  0.50851622  0.29106408  0.12548834  1
  Mo  Mo163  1  -0.01161220  0.00453303  0.24520719  1
  Mo  Mo164  1  0.40436561  0.40356251  0.49852642  1
  Mo  Mo165  1  0.69237923  0.70251625  0.38250148  1
  Mo  Mo166  1  0.00985067  0.20007703  0.76358454  1
  Mo  Mo167  1  0.71743082  0.29921994  0.87730754  1
  Mo  Mo168  1  0.49318019  0.89415747  0.37966418  1
  Mo  Mo169  1  0.30447617  0.29743779  0.63254803  1
  Mo  Mo170  1  0.89333125  0.09925169  0.12068207  1
  Mo  Mo171  1  0.01909328  0.38628069  0.23849978  1
  Mo  Mo172  1  0.09860649  0.31405530  0.87903938  1
  Mo  Mo173  1  0.59808909  0.20148415  0.50816048  1
  Mo  Mo174  1  0.69429503  0.10106651  0.61339957  1
  Mo  Mo175  1  0.09036210  0.89777472  0.12524067  1
  Mo  Mo176  1  0.59516499  0.81724866  0.00165334  1
  Mo  Mo177  1  0.70622282  0.49961210  0.89389782  1
  Mo  Mo178  1  0.00733616  0.60028344  0.00622814  1
  Mo  Mo179  1  0.59505058  0.20446483  0.25067726  1
  Mo  Mo180  1  0.51524170  0.28869292  0.87087845  1
  Mo  Mo181  1  0.50033204  0.09343319  0.86984946  1
  Mo  Mo182  1  -0.00618954  0.20243996  0.50581993  1
  Mo  Mo183  1  0.59476422  -0.00455109  0.48954161  1
  Mo  Mo184  1  0.09246585  0.11092593  0.11818962  1
  Mo  Mo185  1  0.90265532  0.89948969  0.37955200  1
  Mo  Mo186  1  0.30759288  0.31340036  0.88804689  1
  Mo  Mo187  1  0.50575352  0.49524840  0.12119749  1
  Mo  Mo188  1  0.40016975  0.20083757  0.24911069  1
  Mo  Mo189  1  0.59800457  0.20464820  -0.00005390  1
  Mo  Mo190  1  0.00688263  0.60409623  0.25006917  1
  Mo  Mo191  1  0.19250218  -0.00557471  0.49329516  1
  Mo  Mo192  1  0.79006210  0.20959652  0.75123703  1
  Mo  Mo193  1  0.90306176  0.68881582  0.62417749  1
  Mo  Mo194  1  0.10734748  0.29575025  0.37182180  1
  Mo  Mo195  1  0.29499977  0.30401650  0.36800468  1
  Mo  Mo196  1  0.70662814  0.29839436  0.61542643  1
  Mo  Mo197  1  0.90496769  0.49614223  0.12715807  1
  Mo  Mo198  1  0.28624890  0.89169685  0.87767054  1
  Mo  Mo199  1  0.80772436  0.40337078  0.75070456  1
