# generated using pymatgen
data_HfZrTaTiMo
_symmetry_space_group_name_H-M   'P 1'
_cell_length_a   15.22074249
_cell_length_b   15.20961604
_cell_length_c   16.82758396
_cell_angle_alpha   89.95031549
_cell_angle_beta   89.98378201
_cell_angle_gamma   90.03730515
_symmetry_Int_Tables_number   1
_chemical_formula_structural   HfZrTaTiMo
_chemical_formula_sum   'Hf40 Zr40 Ta40 Ti40 Mo40'
_cell_volume   3895.61099048
_cell_formula_units_Z   40
loop_
 _symmetry_equiv_pos_site_id
 _symmetry_equiv_pos_as_xyz
  1  'x, y, z'
loop_
 _atom_site_type_symbol
 _atom_site_label
 _atom_site_symmetry_multiplicity
 _atom_site_fract_x
 _atom_site_fract_y
 _atom_site_fract_z
 _atom_site_occupancy
  Hf  Hf0  1  0.40706949  0.20514786  0.73638204  1
  Hf  Hf1  1  0.30330212  0.29276852  0.39920311  1
  Hf  Hf2  1  0.31867460  0.50127091  0.12532770  1
  Hf  Hf3  1  0.56497786  0.79570374  0.48862851  1
  Hf  Hf4  1  0.89981036  0.70136645  0.89569194  1
  Hf  Hf5  1  0.40789215  0.00355140  0.00847484  1
  Hf  Hf6  1  0.00229045  0.00404535  0.50205062  1
  Hf  Hf7  1  0.69391811  0.10168432  0.87269135  1
  Hf  Hf8  1  0.58346111  0.18535506  0.00921120  1
  Hf  Hf9  1  0.01366214  0.40206098  0.75634951  1
  Hf  Hf10  1  0.11878904  0.09271630  0.37747321  1
  Hf  Hf11  1  0.01571915  -0.00079690  0.25225621  1
  Hf  Hf12  1  0.20436511  0.00648620  -0.00263624  1
  Hf  Hf13  1  0.20673984  0.60805912  0.74889626  1
  Hf  Hf14  1  0.89566937  0.31375079  0.38365457  1
  Hf  Hf15  1  0.89090717  0.90917298  0.37968585  1
  Hf  Hf16  1  0.10063148  0.51647908  0.88172612  1
  Hf  Hf17  1  0.59050406  0.19615027  0.24302068  1
  Hf  Hf18  1  0.20496702  0.21639473  -0.01918230  1
  Hf  Hf19  1  0.00327815  0.19814629  -0.01312862  1
  Hf  Hf20  1  0.77569424  0.80549550  0.77385713  1
  Hf  Hf21  1  0.50399348  0.88899298  0.88256038  1
  Hf  Hf22  1  0.31410357  0.10664930  0.87158423  1
  Hf  Hf23  1  0.70882020  0.50423799  0.64629814  1
  Hf  Hf24  1  0.88043182  0.70067294  0.36822139  1
  Hf  Hf25  1  0.59132747  0.20608064  0.50984401  1
  Hf  Hf26  1  0.01088485  0.20893218  0.26107198  1
  Hf  Hf27  1  0.80208397  0.19988687  0.50516858  1
  Hf  Hf28  1  0.90759761  0.30734617  0.63198354  1
  Hf  Hf29  1  0.60024649  0.58838526  0.23183175  1
  Hf  Hf30  1  0.47774978  0.29680772  0.12034230  1
  Hf  Hf31  1  0.21070715  -0.00649491  0.75166026  1
  Hf  Hf32  1  0.30713721  0.71055122  0.36493311  1
  Hf  Hf33  1  0.70733758  0.09420796  0.37200623  1
  Hf  Hf34  1  0.41209835  -0.02847715  0.49209202  1
  Hf  Hf35  1  0.00701447  0.60835805  0.01713953  1
  Hf  Hf36  1  0.09722302  0.89693757  0.87711413  1
  Hf  Hf37  1  0.20227568  0.22370049  0.75716006  1
  Hf  Hf38  1  0.60284070  0.38303650  0.74956441  1
  Hf  Hf39  1  -0.00517455  0.61046091  0.48482318  1
  Zr  Zr40  1  0.89419420  0.89802484  0.63093626  1
  Zr  Zr41  1  0.90402009  0.10084789  0.64484151  1
  Zr  Zr42  1  0.70173286  0.30744516  0.11750068  1
  Zr  Zr43  1  0.68206354  0.89622705  0.37214248  1
  Zr  Zr44  1  0.69176985  0.30493876  0.37511527  1
  Zr  Zr45  1  0.09084706  0.69271148  0.62667183  1
  Zr  Zr46  1  0.59843636  0.78810238  0.24188193  1
  Zr  Zr47  1  0.79127111  0.41337835  0.23927504  1
  Zr  Zr48  1  0.38455098  0.79309902  0.75869032  1
  Zr  Zr49  1  0.39452563  0.39944531  0.74459605  1
  Zr  Zr50  1  0.00963168  0.80412567  0.48804838  1
  Zr  Zr51  1  0.28842378  0.30554403  0.12331099  1
  Zr  Zr52  1  0.29719495  0.50017233  0.60738762  1
  Zr  Zr53  1  0.80454498  0.20269814  -0.00267090  1
  Zr  Zr54  1  0.30340154  0.09385870  0.61093246  1
  Zr  Zr55  1  0.00206007  0.39645820  0.00365905  1
  Zr  Zr56  1  0.49266413  0.69190669  0.63976823  1
  Zr  Zr57  1  0.69161361  0.70242910  0.63435367  1
  Zr  Zr58  1  0.70488227  0.49992309  0.87248981  1
  Zr  Zr59  1  0.10860396  0.11061388  0.12632093  1
  Zr  Zr60  1  0.01013825  0.41964121  0.50068610  1
  Zr  Zr61  1  0.50504276  0.08914842  0.37603328  1
  Zr  Zr62  1  -0.00827657  0.78847853  0.75431697  1
  Zr  Zr63  1  0.02257957  0.21489755  0.49636008  1
  Zr  Zr64  1  0.80419760  -0.00014844  -0.00614421  1
  Zr  Zr65  1  0.80419132  -0.01700756  0.24010013  1
  Zr  Zr66  1  0.31279986  0.49248116  0.38252401  1
  Zr  Zr67  1  0.91258860  0.51689136  0.64139613  1
  Zr  Zr68  1  -0.00983169  0.60072708  0.23931668  1
  Zr  Zr69  1  0.50586871  0.08476473  0.62479308  1
  Zr  Zr70  1  -0.00255775  0.40275194  0.24412954  1
  Zr  Zr71  1  -0.00703357  0.80537459  0.25312290  1
  Zr  Zr72  1  0.18994433  0.60305467  0.48543104  1
  Zr  Zr73  1  0.50013048  0.50307568  0.86672452  1
  Zr  Zr74  1  0.78431080  0.79751028  0.50181639  1
  Zr  Zr75  1  0.10054418  0.11329215  0.63984395  1
  Zr  Zr76  1  0.12232327  0.50347610  0.12905335  1
  Zr  Zr77  1  0.80880322  0.19956723  0.24835443  1
  Zr  Zr78  1  0.69952748  0.08556954  0.12982223  1
  Zr  Zr79  1  0.38784588  -0.00801346  0.24414949  1
  Ta  Ta80  1  0.79697534  -0.00066122  0.76149880  1
  Ta  Ta81  1  0.29842852  0.70407492  0.61275166  1
  Ta  Ta82  1  0.61735477  0.41012794  0.51145868  1
  Ta  Ta83  1  0.59718226  0.39992398  0.00158915  1
  Ta  Ta84  1  0.21263427  0.19469026  0.25886004  1
  Ta  Ta85  1  0.20329289  0.81986960  0.24187987  1
  Ta  Ta86  1  0.79293880  0.21294548  0.75585770  1
  Ta  Ta87  1  0.70777928  0.30163861  0.62645075  1
  Ta  Ta88  1  0.70482590  0.09670788  0.63670010  1
  Ta  Ta89  1  0.89954198  0.50293766  0.87909917  1
  Ta  Ta90  1  0.31254178  0.11113512  0.12208066  1
  Ta  Ta91  1  0.10325847  0.90533249  0.11761540  1
  Ta  Ta92  1  0.20614389  0.41164348  0.75665169  1
  Ta  Ta93  1  0.49640510  0.28639270  0.88103967  1
  Ta  Ta94  1  0.29995960  0.89174396  0.88687328  1
  Ta  Ta95  1  0.89529530  0.30791137  0.86859674  1
  Ta  Ta96  1  0.60413215  -0.01368666  0.00587435  1
  Ta  Ta97  1  0.30732120  0.09913464  0.39187457  1
  Ta  Ta98  1  0.09588606  0.10146693  0.85797026  1
  Ta  Ta99  1  0.00401821  0.00500076  -0.00598296  1
  Ta  Ta100  1  0.20905041  0.39349602  0.26221627  1
  Ta  Ta101  1  0.88227520  0.71625443  0.11045744  1
  Ta  Ta102  1  0.68702970  0.90333722  0.62912354  1
  Ta  Ta103  1  0.78822196  0.61394451  0.23066755  1
  Ta  Ta104  1  0.10239293  0.71007627  0.13392543  1
  Ta  Ta105  1  0.60413408  -0.01576199  0.75693540  1
  Ta  Ta106  1  0.39724625  0.39799694  -0.01365195  1
  Ta  Ta107  1  0.39429719  0.78638654  0.00661972  1
  Ta  Ta108  1  0.90819043  0.89905996  0.11044598  1
  Ta  Ta109  1  0.58043832  0.40248666  0.24009829  1
  Ta  Ta110  1  0.50360782  0.88869007  0.11478149  1
  Ta  Ta111  1  0.40909119  0.58990334  0.25243071  1
  Ta  Ta112  1  0.29326214  0.29858488  0.60255543  1
  Ta  Ta113  1  0.59935535  0.59554937  0.50122186  1
  Ta  Ta114  1  0.10213189  0.90306843  0.63378721  1
  Ta  Ta115  1  0.79164890  0.58616431  0.50157550  1
  Ta  Ta116  1  0.68706702  0.68575532  0.37392032  1
  Ta  Ta117  1  0.41338992  0.60808744  0.49305601  1
  Ta  Ta118  1  0.70055289  0.50011575  0.37285868  1
  Ta  Ta119  1  0.19996897  0.79582471  0.01005263  1
  Ti  Ti120  1  0.58833574  0.59518581  0.00434295  1
  Ti  Ti121  1  0.80831043  0.61156789  0.76494851  1
  Ti  Ti122  1  0.79749261  0.00246764  0.50887078  1
  Ti  Ti123  1  0.90639729  0.10234255  0.85742751  1
  Ti  Ti124  1  0.28704796  0.90649289  0.37464353  1
  Ti  Ti125  1  0.59886382  0.19342310  0.74373773  1
  Ti  Ti126  1  0.50723698  0.50385813  0.63603480  1
  Ti  Ti127  1  0.19736887  0.80278679  0.49296309  1
  Ti  Ti128  1  0.71281328  0.87334343  0.11514067  1
  Ti  Ti129  1  0.69802177  0.30208343  0.88433901  1
  Ti  Ti130  1  0.50344728  0.09391427  0.86993604  1
  Ti  Ti131  1  0.58725756  -0.01309620  0.23945207  1
  Ti  Ti132  1  0.88845516  0.70140836  0.62534385  1
  Ti  Ti133  1  0.49722728  0.88705303  0.63442054  1
  Ti  Ti134  1  0.20492505  0.41204128  -0.01446943  1
  Ti  Ti135  1  0.88114688  0.49866014  0.10838959  1
  Ti  Ti136  1  0.30069403  0.88991436  0.62070479  1
  Ti  Ti137  1  0.90380830  0.10418057  0.37768494  1
  Ti  Ti138  1  0.39710303  0.20418937  0.25836398  1
  Ti  Ti139  1  0.10459605  0.50454821  0.35832143  1
  Ti  Ti140  1  0.48971633  0.68952859  0.87136078  1
  Ti  Ti141  1  0.91084468  0.09793251  0.12549059  1
  Ti  Ti142  1  0.10902729  0.70520639  0.88636781  1
  Ti  Ti143  1  0.19617233  -0.01038660  0.50624907  1
  Ti  Ti144  1  0.29239921  0.69320830  0.13272953  1
  Ti  Ti145  1  0.88685128  0.50561481  0.37046133  1
  Ti  Ti146  1  0.42877802  0.39514667  0.51355754  1
  Ti  Ti147  1  0.90275798  0.90381542  0.88150712  1
  Ti  Ti148  1  0.40537681  -0.00851106  0.75271257  1
  Ti  Ti149  1  0.78103227  0.60550679  0.00248214  1
  Ti  Ti150  1  0.19827920  0.79975798  0.75182061  1
  Ti  Ti151  1  0.60976467  -0.00400778  0.50485572  1
  Ti  Ti152  1  0.40165075  0.79486754  0.23364914  1
  Ti  Ti153  1  0.60572319  0.78426719  -0.00319212  1
  Ti  Ti154  1  0.10301356  0.30199693  0.12783728  1
  Ti  Ti155  1  0.51099598  0.49664221  0.37815814  1
  Ti  Ti156  1  0.48913670  0.68367262  0.11536075  1
  Ti  Ti157  1  0.49626985  0.30678593  0.37620876  1
  Ti  Ti158  1  0.30539536  0.52380146  0.88188740  1
  Ti  Ti159  1  0.90365991  0.29741624  0.12071017  1
  Mo  Mo160  1  0.00274171  0.80729398  0.00470529  1
  Mo  Mo161  1  0.67994010  0.69239899  0.87932994  1
  Mo  Mo162  1  0.11217957  0.30911835  0.37022026  1
  Mo  Mo163  1  0.49806822  0.09192797  0.13325790  1
  Mo  Mo164  1  0.69545966  0.89962153  0.88628063  1
  Mo  Mo165  1  0.79197210  0.80168879  -0.01635673  1
  Mo  Mo166  1  0.38371656  0.79237148  0.49845706  1
  Mo  Mo167  1  0.29909397  0.89238756  0.11549800  1
  Mo  Mo168  1  0.20923323  0.00431911  0.24422395  1
  Mo  Mo169  1  0.21101311  0.61099779  0.00346020  1
  Mo  Mo170  1  0.40530848  0.39444334  0.25956781  1
  Mo  Mo171  1  0.40766549  0.19817042  0.50424342  1
  Mo  Mo172  1  0.00089492  0.20796396  0.76348037  1
  Mo  Mo173  1  0.50708657  0.30498191  0.62285676  1
  Mo  Mo174  1  0.79561472  0.79306818  0.24307200  1
  Mo  Mo175  1  0.49658196  0.68330096  0.36632512  1
  Mo  Mo176  1  -0.00078044  -0.00461263  0.76014134  1
  Mo  Mo177  1  0.69484458  0.50196972  0.10806531  1
  Mo  Mo178  1  0.20571063  0.60603537  0.25631993  1
  Mo  Mo179  1  0.18622703  0.39292326  0.49131633  1
  Mo  Mo180  1  0.10173243  0.30988807  0.87737818  1
  Mo  Mo181  1  0.59825761  0.60358357  0.75826063  1
  Mo  Mo182  1  0.40047850  0.60256633  0.00168560  1
  Mo  Mo183  1  0.39752831  0.19785115  -0.00570728  1
  Mo  Mo184  1  0.29401612  0.70224604  0.88410165  1
  Mo  Mo185  1  0.59010144  0.80089029  0.75968729  1
  Mo  Mo186  1  0.80376420  0.39695294  0.75886732  1
  Mo  Mo187  1  0.30818123  0.31773768  0.87267980  1
  Mo  Mo188  1  0.80142107  0.40476343  -0.00297339  1
  Mo  Mo189  1  0.10734909  0.49833481  0.62966327  1
  Mo  Mo190  1  0.10704530  0.70119109  0.34644256  1
  Mo  Mo191  1  0.47385632  0.87438985  0.35743175  1
  Mo  Mo192  1  0.11294212  0.89677356  0.37429857  1
  Mo  Mo193  1  0.69182287  0.69972974  0.10914106  1
  Mo  Mo194  1  0.00025654  0.60470454  0.76475071  1
  Mo  Mo195  1  0.11469548  0.32146157  0.62815084  1
  Mo  Mo196  1  0.39068855  0.59561703  0.74624167  1
  Mo  Mo197  1  0.79859289  0.40879262  0.50340986  1
  Mo  Mo198  1  0.49697665  0.49069253  0.11476573  1
  Mo  Mo199  1  0.20046690  0.19272135  0.50251689  1
