# generated using pymatgen
data_HfZrTaTiMo
_symmetry_space_group_name_H-M   'P 1'
_cell_length_a   15.22612706
_cell_length_b   15.20754177
_cell_length_c   16.84093460
_cell_angle_alpha   90.00599621
_cell_angle_beta   90.00812484
_cell_angle_gamma   90.10064283
_symmetry_Int_Tables_number   1
_chemical_formula_structural   HfZrTaTiMo
_chemical_formula_sum   'Hf40 Zr40 Ta40 Ti40 Mo40'
_cell_volume   3899.54539281
_cell_formula_units_Z   40
loop_
 _symmetry_equiv_pos_site_id
 _symmetry_equiv_pos_as_xyz
  1  'x, y, z'
loop_
 _atom_site_type_symbol
 _atom_site_label
 _atom_site_symmetry_multiplicity
 _atom_site_fract_x
 _atom_site_fract_y
 _atom_site_fract_z
 _atom_site_occupancy
  Hf  Hf0  1  0.61644503  0.20773165  0.73394749  1
  Hf  Hf1  1  -0.01924817  0.79070398  0.24286711  1
  Hf  Hf2  1  0.60543964  0.61065876  -0.00216829  1
  Hf  Hf3  1  0.89923410  0.29913424  0.11577715  1
  Hf  Hf4  1  0.00084526  0.60409422  0.76590117  1
  Hf  Hf5  1  0.28154180  0.50249888  0.37078380  1
  Hf  Hf6  1  0.19852888  0.00691380  0.23718109  1
  Hf  Hf7  1  0.59878064  0.40463109  0.48958334  1
  Hf  Hf8  1  0.91112279  0.50320782  0.12040329  1
  Hf  Hf9  1  0.88037343  0.88809408  0.10230284  1
  Hf  Hf10  1  0.00883398  0.40360690  0.24678321  1
  Hf  Hf11  1  0.60277468  0.61821895  0.25163810  1
  Hf  Hf12  1  0.59703385  0.20608794  0.25112526  1
  Hf  Hf13  1  0.18926036  0.79362626  0.22901751  1
  Hf  Hf14  1  0.29290587  0.90353882  0.36420532  1
  Hf  Hf15  1  0.60413553  0.00202639  0.24318351  1
  Hf  Hf16  1  0.00045744  -0.00269384  0.50310610  1
  Hf  Hf17  1  0.40276790  0.39502088  0.25151271  1
  Hf  Hf18  1  0.89798026  0.29500763  0.62531869  1
  Hf  Hf19  1  0.41184079  0.19764142  0.51445758  1
  Hf  Hf20  1  0.00619229  0.60173304  -0.01364652  1
  Hf  Hf21  1  0.50082567  0.51696038  0.62545199  1
  Hf  Hf22  1  0.78883210  0.38993588  0.75501129  1
  Hf  Hf23  1  0.50621227  0.30272742  0.87870625  1
  Hf  Hf24  1  0.19166774  0.58607572  0.22391962  1
  Hf  Hf25  1  0.28510185  0.51109772  0.62800223  1
  Hf  Hf26  1  0.90098449  0.89595855  0.62254210  1
  Hf  Hf27  1  0.39120661  0.19207489  0.25115087  1
  Hf  Hf28  1  0.80138578  0.40745651  0.49750674  1
  Hf  Hf29  1  0.39682401  0.61336032  0.75931343  1
  Hf  Hf30  1  0.41100366  0.00086653  -0.01374489  1
  Hf  Hf31  1  0.69784922  0.28794712  0.88682393  1
  Hf  Hf32  1  0.78443930  0.80151626  0.25701489  1
  Hf  Hf33  1  0.11061632  0.69568653  0.62910984  1
  Hf  Hf34  1  0.90178869  0.69366312  0.62621388  1
  Hf  Hf35  1  0.39118525  0.60999845  0.49189307  1
  Hf  Hf36  1  0.50245915  0.91023421  0.37650238  1
  Hf  Hf37  1  0.80991303  0.80518233  0.76311654  1
  Hf  Hf38  1  0.00304185  0.18586663  0.24111119  1
  Hf  Hf39  1  0.09272179  0.67428851  0.36139163  1
  Zr  Zr40  1  0.19988180  0.78355876  0.48925346  1
  Zr  Zr41  1  0.29654371  0.28849612  0.38401386  1
  Zr  Zr42  1  0.09903684  0.29326572  0.62327108  1
  Zr  Zr43  1  0.81551279  0.61346388  0.25748524  1
  Zr  Zr44  1  0.70616647  0.70102466  0.62996606  1
  Zr  Zr45  1  0.80768358  -0.00152238  0.24492146  1
  Zr  Zr46  1  0.90317243  0.09593074  0.37996865  1
  Zr  Zr47  1  0.78749683  0.18123578  0.01422585  1
  Zr  Zr48  1  -0.00352739  0.78944496  0.49083571  1
  Zr  Zr49  1  0.39684310  0.00439844  0.49981812  1
  Zr  Zr50  1  0.10205669  0.29468540  0.10572624  1
  Zr  Zr51  1  0.41538253  0.19075202  0.74498231  1
  Zr  Zr52  1  0.30363578  0.90492296  0.11120348  1
  Zr  Zr53  1  -0.00063116  -0.01156381  0.76074174  1
  Zr  Zr54  1  0.70828508  0.50820129  0.37119567  1
  Zr  Zr55  1  0.19598721  -0.01154959  0.49839876  1
  Zr  Zr56  1  0.41429954  0.40326363  0.74607229  1
  Zr  Zr57  1  0.68960238  0.30983962  0.12173763  1
  Zr  Zr58  1  0.10983292  0.10071911  0.37519361  1
  Zr  Zr59  1  0.19875580  0.39216717  0.75086601  1
  Zr  Zr60  1  -0.00857278  0.39743358  0.76536961  1
  Zr  Zr61  1  0.30334278  0.09047798  0.64439382  1
  Zr  Zr62  1  0.30138328  0.28860181  0.88239370  1
  Zr  Zr63  1  0.28041233  0.89239118  0.63603598  1
  Zr  Zr64  1  0.59552632  0.80489355  0.75371491  1
  Zr  Zr65  1  0.09895585  0.08678165  0.63579402  1
  Zr  Zr66  1  0.19899982  0.58824480  0.01945233  1
  Zr  Zr67  1  0.09815681  0.30368954  0.38439974  1
  Zr  Zr68  1  0.40647615  0.79904114  0.24853959  1
  Zr  Zr69  1  0.59707298  0.81541921  0.51173191  1
  Zr  Zr70  1  0.30809130  0.49859802  0.87633445  1
  Zr  Zr71  1  0.39616939  0.40337859  0.50026638  1
  Zr  Zr72  1  0.00376378  0.40203025  -0.01886114  1
  Zr  Zr73  1  0.70973685  0.51426613  0.12698223  1
  Zr  Zr74  1  0.33336039  0.69679577  0.11376185  1
  Zr  Zr75  1  0.49615071  0.10494065  0.11685487  1
  Zr  Zr76  1  0.60371478  0.60834524  0.49511888  1
  Zr  Zr77  1  0.69818704  0.92493642  0.63945835  1
  Zr  Zr78  1  0.28655407  0.70796412  0.89410405  1
  Zr  Zr79  1  0.79786603  0.19913119  0.24342658  1
  Ta  Ta80  1  0.88155017  0.08756897  0.88163709  1
  Ta  Ta81  1  0.10719733  0.09702892  0.10842060  1
  Ta  Ta82  1  0.89989796  0.30048744  0.37854168  1
  Ta  Ta83  1  0.39719761  0.80368436  0.50087439  1
  Ta  Ta84  1  -0.00593656  0.19208804  0.76564908  1
  Ta  Ta85  1  0.20103507  -0.00046572  -0.00740751  1
  Ta  Ta86  1  0.50273720  0.50679209  0.12943831  1
  Ta  Ta87  1  0.20427857  0.38645750  0.23673888  1
  Ta  Ta88  1  0.30576834  0.70263829  0.63242661  1
  Ta  Ta89  1  0.70478195  0.92915538  0.86641042  1
  Ta  Ta90  1  0.69114297  0.49703570  0.87457296  1
  Ta  Ta91  1  0.08548890  0.89886307  0.35588316  1
  Ta  Ta92  1  0.10267591  0.28560462  0.88226700  1
  Ta  Ta93  1  0.69621558  0.72683335  0.11096852  1
  Ta  Ta94  1  0.89952192  0.89760361  0.89474163  1
  Ta  Ta95  1  0.38864252  0.81497240  0.76949379  1
  Ta  Ta96  1  0.79992374  0.59460033  0.76445589  1
  Ta  Ta97  1  0.59924520  0.80610708  0.25078017  1
  Ta  Ta98  1  0.89515314  0.09829277  0.62385883  1
  Ta  Ta99  1  0.59459516  0.41084041  0.00179776  1
  Ta  Ta100  1  0.08007114  0.90563619  0.11272352  1
  Ta  Ta101  1  0.50906303  0.88607043  0.11345537  1
  Ta  Ta102  1  0.70118944  0.49773363  0.63106506  1
  Ta  Ta103  1  0.61111074  0.20445201  0.51020651  1
  Ta  Ta104  1  0.79976104  0.41045305  -0.01045648  1
  Ta  Ta105  1  0.92126370  0.50571706  0.37262212  1
  Ta  Ta106  1  0.49911713  0.70580250  0.87881848  1
  Ta  Ta107  1  0.88421540  0.69394175  0.10053836  1
  Ta  Ta108  1  0.30490705  0.27980907  0.10707850  1
  Ta  Ta109  1  0.48370868  0.91734372  0.64305367  1
  Ta  Ta110  1  0.20287166  0.19883095  0.24084189  1
  Ta  Ta111  1  0.01202917  0.58276632  0.50268067  1
  Ta  Ta112  1  0.59579900  0.40969269  0.26017277  1
  Ta  Ta113  1  0.59944352  0.59579846  0.75932470  1
  Ta  Ta114  1  0.50154430  0.70651483  0.37793690  1
  Ta  Ta115  1  0.40647449  0.40170122  0.00382046  1
  Ta  Ta116  1  0.10007486  0.88085833  0.89605723  1
  Ta  Ta117  1  0.20581842  0.19240936  0.50834700  1
  Ta  Ta118  1  0.80230581  0.20104805  0.50005589  1
  Ta  Ta119  1  0.89469928  0.50295994  0.62850644  1
  Ti  Ti120  1  0.29719786  0.29972630  0.62473127  1
  Ti  Ti121  1  0.70039402  0.70747800  0.87557264  1
  Ti  Ti122  1  0.50383069  0.29991203  0.37884535  1
  Ti  Ti123  1  0.79170538  -0.00013918  0.50020598  1
  Ti  Ti124  1  0.29898079  0.70035611  0.36241715  1
  Ti  Ti125  1  -0.00375710  0.39738268  0.50282237  1
  Ti  Ti126  1  0.11536899  0.50438463  0.86771235  1
  Ti  Ti127  1  0.41506209  0.59422236  -0.00415679  1
  Ti  Ti128  1  0.20504191  0.39622169  -0.00076692  1
  Ti  Ti129  1  0.19363385  0.18822121  0.75860842  1
  Ti  Ti130  1  0.19296820  0.78956468  0.76225219  1
  Ti  Ti131  1  0.70349726  0.29638216  0.37341551  1
  Ti  Ti132  1  0.49802097  0.10585686  0.37728172  1
  Ti  Ti133  1  -0.00024447  0.18742571  -0.00986348  1
  Ti  Ti134  1  0.89214222  0.89176309  0.38142874  1
  Ti  Ti135  1  0.09027833  0.50001368  0.63567567  1
  Ti  Ti136  1  0.51705497  0.31413688  0.62471499  1
  Ti  Ti137  1  0.50556470  0.91445413  0.86615996  1
  Ti  Ti138  1  0.49602002  0.30660158  0.11924275  1
  Ti  Ti139  1  0.09800403  0.09106172  0.88206705  1
  Ti  Ti140  1  0.18792160  0.41531152  0.50616277  1
  Ti  Ti141  1  0.59639981  0.01857512  0.51092593  1
  Ti  Ti142  1  0.69753870  0.90528973  0.38511283  1
  Ti  Ti143  1  0.49174668  0.71580365  0.63205682  1
  Ti  Ti144  1  0.69551321  0.10174332  0.38215519  1
  Ti  Ti145  1  0.89554714  0.28786796  0.88209914  1
  Ti  Ti146  1  0.30937584  0.09554031  0.87232582  1
  Ti  Ti147  1  0.61774745  0.01747811  0.00350374  1
  Ti  Ti148  1  0.20625439  -0.02043430  0.77659811  1
  Ti  Ti149  1  0.31045207  0.48310510  0.12342846  1
  Ti  Ti150  1  0.00655955  0.79887571  0.75879957  1
  Ti  Ti151  1  0.18293778  0.78797317  0.01987331  1
  Ti  Ti152  1  0.89821555  0.70387501  0.88871770  1
  Ti  Ti153  1  0.80393638  0.18595441  0.75004341  1
  Ti  Ti154  1  0.39952689  0.00284616  0.24477489  1
  Ti  Ti155  1  0.60034790  0.81967795  -0.01433650  1
  Ti  Ti156  1  0.81177638  0.61412571  0.49045644  1
  Ti  Ti157  1  0.80337376  0.40036368  0.25566635  1
  Ti  Ti158  1  0.40904163  0.59563787  0.25533268  1
  Ti  Ti159  1  0.91406155  0.07990740  0.11277989  1
  Mo  Mo160  1  0.29350932  0.89978269  0.88928549  1
  Mo  Mo161  1  0.60459428  0.40795896  0.74823324  1
  Mo  Mo162  1  -0.00227226  0.79416604  0.00259669  1
  Mo  Mo163  1  0.70058395  0.72001121  0.38646272  1
  Mo  Mo164  1  0.79434632  0.80603737  0.49283483  1
  Mo  Mo165  1  0.69961345  0.09618606  0.13010714  1
  Mo  Mo166  1  0.41588901  0.80303831  -0.01643198  1
  Mo  Mo167  1  0.52183034  0.10394858  0.88021643  1
  Mo  Mo168  1  0.19766415  0.60400761  0.75347833  1
  Mo  Mo169  1  0.78375499  0.79724495  -0.02074326  1
  Mo  Mo170  1  -0.00486369  0.20072992  0.50274077  1
  Mo  Mo171  1  -0.00035130  0.59888129  0.24046015  1
  Mo  Mo172  1  0.71386038  0.11025270  0.61711460  1
  Mo  Mo173  1  0.70649483  0.31000211  0.61709011  1
  Mo  Mo174  1  0.00342039  -0.01090697  0.24029072  1
  Mo  Mo175  1  0.79048089  -0.00494561  0.00368993  1
  Mo  Mo176  1  0.68902251  0.90307849  0.11769029  1
  Mo  Mo177  1  0.49507231  0.50724956  0.36313145  1
  Mo  Mo178  1  0.29580879  0.09969960  0.11344998  1
  Mo  Mo179  1  0.69384761  0.10347921  0.87174704  1
  Mo  Mo180  1  0.80513741  0.00870940  0.75143576  1
  Mo  Mo181  1  0.19643455  0.59608097  0.49984755  1
  Mo  Mo182  1  0.30519743  0.09946605  0.37386405  1
  Mo  Mo183  1  0.58903849  0.20367106  0.00567976  1
  Mo  Mo184  1  0.09548887  0.88736455  0.63789749  1
  Mo  Mo185  1  0.40509509  0.19954262  -0.00489731  1
  Mo  Mo186  1  0.10149728  0.48890983  0.37485242  1
  Mo  Mo187  1  0.07283941  0.69392072  0.12827349  1
  Mo  Mo188  1  0.51393922  0.09520463  0.62626329  1
  Mo  Mo189  1  0.51153971  0.70167688  0.11703315  1
  Mo  Mo190  1  0.50472094  0.50533327  0.87876902  1
  Mo  Mo191  1  0.79775298  0.59904315  -0.01737061  1
  Mo  Mo192  1  0.59264349  0.01901028  0.74969544  1
  Mo  Mo193  1  0.89022706  0.49958128  0.87282812  1
  Mo  Mo194  1  0.20176267  0.18786344  -0.01257321  1
  Mo  Mo195  1  -0.00165163  0.00158419  -0.00883314  1
  Mo  Mo196  1  0.10482546  0.48737184  0.11742630  1
  Mo  Mo197  1  0.40045123  -0.00143481  0.77081658  1
  Mo  Mo198  1  0.89944450  0.69699821  0.38324391  1
  Mo  Mo199  1  0.09902014  0.69945301  0.87559469  1
