# generated using pymatgen
data_HfZrTaTiMo
_symmetry_space_group_name_H-M   'P 1'
_cell_length_a   15.20776620
_cell_length_b   15.20015558
_cell_length_c   16.88140238
_cell_angle_alpha   89.98117630
_cell_angle_beta   90.09159572
_cell_angle_gamma   90.00766379
_symmetry_Int_Tables_number   1
_chemical_formula_structural   HfZrTaTiMo
_chemical_formula_sum   'Hf40 Zr40 Ta40 Ti40 Mo40'
_cell_volume   3902.30670159
_cell_formula_units_Z   40
loop_
 _symmetry_equiv_pos_site_id
 _symmetry_equiv_pos_as_xyz
  1  'x, y, z'
loop_
 _atom_site_type_symbol
 _atom_site_label
 _atom_site_symmetry_multiplicity
 _atom_site_fract_x
 _atom_site_fract_y
 _atom_site_fract_z
 _atom_site_occupancy
  Hf  Hf0  1  0.40029815  0.58211470  0.00882459  1
  Hf  Hf1  1  0.90386955  0.11761954  0.38963795  1
  Hf  Hf2  1  0.38610730  0.80925290  0.24956924  1
  Hf  Hf3  1  0.20305022  0.38635593  0.49154802  1
  Hf  Hf4  1  0.60421132  0.21311245  -0.00673151  1
  Hf  Hf5  1  0.40246322  0.59484005  0.49752294  1
  Hf  Hf6  1  0.38841746  0.39661270  0.74340044  1
  Hf  Hf7  1  0.10648372  0.32137452  0.87680856  1
  Hf  Hf8  1  -0.00425526  0.40676652  0.01390855  1
  Hf  Hf9  1  0.59823633  0.81153211  0.01527150  1
  Hf  Hf10  1  0.59317573  0.80563335  0.23676528  1
  Hf  Hf11  1  0.10536866  0.50480677  0.13332849  1
  Hf  Hf12  1  0.49129350  0.51313037  0.63562282  1
  Hf  Hf13  1  0.31269783  0.48374150  0.36963883  1
  Hf  Hf14  1  0.20581113  0.20524967  0.01149661  1
  Hf  Hf15  1  0.52308711  0.50597239  0.37950987  1
  Hf  Hf16  1  0.61198131  0.39232691  0.74389571  1
  Hf  Hf17  1  0.89042662  0.90329229  0.63059654  1
  Hf  Hf18  1  0.71496766  0.70989278  0.86809145  1
  Hf  Hf19  1  0.70026086  0.71430700  0.63788082  1
  Hf  Hf20  1  0.79012094  0.58109186  0.24478358  1
  Hf  Hf21  1  0.00852812  0.20435228  0.73365345  1
  Hf  Hf22  1  0.49766455  0.70382152  0.88102567  1
  Hf  Hf23  1  0.30427120  0.26839316  0.86240973  1
  Hf  Hf24  1  0.00369667  0.59832713  0.25791259  1
  Hf  Hf25  1  0.41444671  0.58701510  0.24255026  1
  Hf  Hf26  1  0.69143520  0.89757335  0.36227356  1
  Hf  Hf27  1  0.28341755  0.47844766  0.88189059  1
  Hf  Hf28  1  0.49036924  0.10257937  0.61243041  1
  Hf  Hf29  1  0.80745856  0.02643296  0.00223758  1
  Hf  Hf30  1  -0.00268077  0.79752554  -0.00867216  1
  Hf  Hf31  1  0.09705127  0.08004373  0.13154696  1
  Hf  Hf32  1  0.60042942  0.62368084  0.51051265  1
  Hf  Hf33  1  0.49586489  0.50244610  0.86337784  1
  Hf  Hf34  1  0.78868776  0.02249000  0.74553428  1
  Hf  Hf35  1  0.19041504  0.79526563  -0.01174762  1
  Hf  Hf36  1  0.81376854  0.58236025  0.00712392  1
  Hf  Hf37  1  0.58078394  0.02085766  0.25872334  1
  Hf  Hf38  1  0.20537471  0.78633434  0.75038690  1
  Hf  Hf39  1  0.59119823  0.00574964  0.74629514  1
  Zr  Zr40  1  0.89803310  0.47825510  0.37797071  1
  Zr  Zr41  1  0.59155864  0.01745248  0.00497300  1
  Zr  Zr42  1  0.38219166  0.00596757  0.73744595  1
  Zr  Zr43  1  0.49378013  0.70324019  0.11965820  1
  Zr  Zr44  1  0.48516999  0.90030906  0.88088851  1
  Zr  Zr45  1  0.48217438  0.10634260  0.86922487  1
  Zr  Zr46  1  0.00586085  0.59232312  0.49342185  1
  Zr  Zr47  1  0.79613208  0.21180186  0.26956910  1
  Zr  Zr48  1  0.08899338  0.89221477  0.62401564  1
  Zr  Zr49  1  -0.00948633  0.19195971  0.00592892  1
  Zr  Zr50  1  0.58817253  0.23106043  0.26763010  1
  Zr  Zr51  1  0.80335929  0.80284289  0.01532027  1
  Zr  Zr52  1  0.71211307  0.50313606  0.63645180  1
  Zr  Zr53  1  0.29930888  0.88914686  0.61138748  1
  Zr  Zr54  1  0.78263751  0.79723334  0.49124312  1
  Zr  Zr55  1  0.28797995  0.89571598  0.39423109  1
  Zr  Zr56  1  0.88930490  0.89867947  0.86086159  1
  Zr  Zr57  1  0.79237406  0.00748150  0.49708073  1
  Zr  Zr58  1  0.91063245  0.69831298  0.13657294  1
  Zr  Zr59  1  0.88784810  0.11761297  0.61636017  1
  Zr  Zr60  1  -0.01100056  0.78428040  0.75535456  1
  Zr  Zr61  1  0.71974612  0.49192295  0.86172048  1
  Zr  Zr62  1  0.70492366  0.91819949  0.13755557  1
  Zr  Zr63  1  0.58822839  -0.00160113  0.48952095  1
  Zr  Zr64  1  0.40039400  0.37511131  -0.00185637  1
  Zr  Zr65  1  0.69360475  0.91477598  0.87666068  1
  Zr  Zr66  1  0.89179942  0.30723002  0.87166133  1
  Zr  Zr67  1  0.21196471  0.00033639  -0.00465128  1
  Zr  Zr68  1  0.60985715  0.59961590  0.00282853  1
  Zr  Zr69  1  0.28832233  0.68990940  0.12162964  1
  Zr  Zr70  1  0.70453090  0.12442822  0.13413242  1
  Zr  Zr71  1  0.90654460  0.90740807  0.37620328  1
  Zr  Zr72  1  0.29962655  0.69571819  0.37909892  1
  Zr  Zr73  1  0.00355815  -0.00651742  -0.00599272  1
  Zr  Zr74  1  0.20674479  0.57334621  0.74712394  1
  Zr  Zr75  1  0.20076989  0.38537802  0.25576191  1
  Zr  Zr76  1  0.90553761  0.70398514  0.60922260  1
  Zr  Zr77  1  0.19809593  0.18050714  0.25331760  1
  Zr  Zr78  1  0.89772550  0.69794591  0.37342776  1
  Zr  Zr79  1  0.10809856  0.11000976  0.86663079  1
  Ta  Ta80  1  0.01649133  0.40535094  0.73111554  1
  Ta  Ta81  1  0.30507050  0.47587212  0.13110848  1
  Ta  Ta82  1  0.50612816  0.30033310  0.86365045  1
  Ta  Ta83  1  0.31407206  0.27861340  0.37297926  1
  Ta  Ta84  1  0.10408276  0.49273566  0.36954480  1
  Ta  Ta85  1  0.88694507  0.28853745  0.12114606  1
  Ta  Ta86  1  0.09970888  0.09095198  0.38387645  1
  Ta  Ta87  1  0.82362207  0.61377120  0.75154436  1
  Ta  Ta88  1  -0.00531393  0.19789709  0.24657482  1
  Ta  Ta89  1  0.50246527  0.88878908  0.61839487  1
  Ta  Ta90  1  0.69026029  0.68922544  0.36055908  1
  Ta  Ta91  1  0.60956118  0.42616751  0.24765836  1
  Ta  Ta92  1  0.79091793  0.58944652  0.49515185  1
  Ta  Ta93  1  0.92437686  0.50516502  0.86597198  1
  Ta  Ta94  1  0.70906257  0.29432349  0.61151575  1
  Ta  Ta95  1  0.60708774  0.40798856  -0.00705977  1
  Ta  Ta96  1  0.31415459  0.68399114  0.62300570  1
  Ta  Ta97  1  0.91749215  0.91255424  0.14126450  1
  Ta  Ta98  1  0.80771159  0.80137590  0.24807623  1
  Ta  Ta99  1  0.47844027  0.11708085  0.38502246  1
  Ta  Ta100  1  0.00761537  0.60218663  0.00320410  1
  Ta  Ta101  1  0.09810974  0.90253789  0.85524252  1
  Ta  Ta102  1  0.70047465  0.32325019  0.12162681  1
  Ta  Ta103  1  0.09781036  0.67842480  0.87231300  1
  Ta  Ta104  1  0.11459182  0.68890147  0.61724484  1
  Ta  Ta105  1  -0.00815521  0.38807221  0.24164326  1
  Ta  Ta106  1  0.50810562  0.29777025  0.61901900  1
  Ta  Ta107  1  0.69131920  0.90720434  0.62666066  1
  Ta  Ta108  1  0.02406608  0.80839978  0.26330303  1
  Ta  Ta109  1  0.29427535  0.90289503  0.86546886  1
  Ta  Ta110  1  0.50517894  0.71188593  0.36847307  1
  Ta  Ta111  1  0.48783410  0.11948481  0.13247710  1
  Ta  Ta112  1  0.20236249  0.60200807  0.25703735  1
  Ta  Ta113  1  0.18552497  0.00587307  0.73394227  1
  Ta  Ta114  1  0.30486812  0.69094592  0.87911499  1
  Ta  Ta115  1  0.47306379  0.92530595  0.12628104  1
  Ta  Ta116  1  0.27877354  0.89639550  0.13050133  1
  Ta  Ta117  1  0.01255054  0.59331517  0.73767240  1
  Ta  Ta118  1  0.31711987  0.27918900  0.13775050  1
  Ta  Ta119  1  0.60499856  0.19759964  0.74788093  1
  Ti  Ti120  1  0.89684627  0.10706737  0.86219718  1
  Ti  Ti121  1  0.00461764  0.00408616  0.26220245  1
  Ti  Ti122  1  0.90692529  0.50007856  0.62414855  1
  Ti  Ti123  1  0.69947505  0.32376408  0.39184034  1
  Ti  Ti124  1  0.60820091  0.41271868  0.51081625  1
  Ti  Ti125  1  0.41574074  0.79268001  0.50156447  1
  Ti  Ti126  1  0.19436224  0.00171061  0.51159234  1
  Ti  Ti127  1  0.38949646  0.20047041  0.50317287  1
  Ti  Ti128  1  0.70229986  0.69539078  0.13373971  1
  Ti  Ti129  1  0.00346906  0.00493472  0.50415287  1
  Ti  Ti130  1  0.50577364  0.30911436  0.12444882  1
  Ti  Ti131  1  0.19996292  0.59323553  0.49368024  1
  Ti  Ti132  1  0.68592364  0.11380293  0.60681697  1
  Ti  Ti133  1  0.38448418  0.81159197  0.00394049  1
  Ti  Ti134  1  0.19409288  0.19234911  0.50378732  1
  Ti  Ti135  1  0.40336404  0.78962130  0.74709748  1
  Ti  Ti136  1  0.41010614  0.39119606  0.50209936  1
  Ti  Ti137  1  0.08630091  0.29028902  0.37535911  1
  Ti  Ti138  1  0.19500571  0.58388629  -0.00071185  1
  Ti  Ti139  1  0.21133652  0.19291687  0.72689644  1
  Ti  Ti140  1  0.39636213  0.17636518  0.00161270  1
  Ti  Ti141  1  0.68804526  0.11768182  0.38775463  1
  Ti  Ti142  1  0.02053872  0.79896571  0.48534266  1
  Ti  Ti143  1  0.80812160  0.01295940  0.25671727  1
  Ti  Ti144  1  0.19114926  -0.02719237  0.26034369  1
  Ti  Ti145  1  0.79924879  0.39390090  0.25144989  1
  Ti  Ti146  1  0.59678719  0.80757128  0.75272407  1
  Ti  Ti147  1  0.01015796  0.39372141  0.51369367  1
  Ti  Ti148  1  0.29717753  0.08690654  0.37965259  1
  Ti  Ti149  1  0.30547471  0.29189262  0.62250564  1
  Ti  Ti150  1  0.10364947  0.29765724  0.12759871  1
  Ti  Ti151  1  0.81396135  0.39324134  0.50744322  1
  Ti  Ti152  1  0.79084010  0.22249317  0.74674990  1
  Ti  Ti153  1  0.41823320  0.38215094  0.25462537  1
  Ti  Ti154  1  0.10365119  0.71086796  0.12859669  1
  Ti  Ti155  1  0.00199946  0.21283123  0.51273951  1
  Ti  Ti156  1  0.48419390  0.90781983  0.37683445  1
  Ti  Ti157  1  0.31028537  0.08091868  0.14090350  1
  Ti  Ti158  1  0.28978822  0.48817689  0.61656479  1
  Ti  Ti159  1  0.59493787  0.61289627  0.75078038  1
  Mo  Mo160  1  0.90387666  0.68602996  0.87690514  1
  Mo  Mo161  1  0.09664434  0.09884578  0.61460071  1
  Mo  Mo162  1  0.10848385  0.69768489  0.37972979  1
  Mo  Mo163  1  0.49690608  0.70975938  0.63431363  1
  Mo  Mo164  1  0.79848809  0.20786319  -0.00181349  1
  Mo  Mo165  1  0.70193551  0.49824965  0.11921537  1
  Mo  Mo166  1  0.70390595  0.50185518  0.38492396  1
  Mo  Mo167  1  0.81791896  0.40470089  0.73794313  1
  Mo  Mo168  1  0.39239428  0.00268870  0.50005219  1
  Mo  Mo169  1  0.20440309  0.39500739  0.01855312  1
  Mo  Mo170  1  0.89919739  0.31197272  0.62793353  1
  Mo  Mo171  1  0.91400791  0.30267308  0.38073522  1
  Mo  Mo172  1  0.09882156  0.89072353  0.12862348  1
  Mo  Mo173  1  0.78914002  0.80659670  0.74654156  1
  Mo  Mo174  1  0.79266880  0.21561201  0.49071308  1
  Mo  Mo175  1  0.49638210  0.31422233  0.39112396  1
  Mo  Mo176  1  -0.00103548  0.00679674  0.75040828  1
  Mo  Mo177  1  0.40818997  0.20399307  0.73374495  1
  Mo  Mo178  1  0.70515855  0.12337607  0.86991895  1
  Mo  Mo179  1  0.89824611  0.48208635  0.13087155  1
  Mo  Mo180  1  0.39048893  -0.00004310  0.00469582  1
  Mo  Mo181  1  0.50589859  0.48152482  0.12396616  1
  Mo  Mo182  1  0.40134519  0.19526725  0.25713735  1
  Mo  Mo183  1  0.29200791  0.09282521  0.86491772  1
  Mo  Mo184  1  0.19529650  0.38044848  0.73599047  1
  Mo  Mo185  1  0.29064296  0.10323295  0.61068527  1
  Mo  Mo186  1  0.38860729  0.00387925  0.25895810  1
  Mo  Mo187  1  0.79894637  0.39309167  -0.00137124  1
  Mo  Mo188  1  0.89832915  0.09624269  0.14021704  1
  Mo  Mo189  1  0.19449626  0.79260981  0.25352601  1
  Mo  Mo190  1  0.10322414  0.90537297  0.39124674  1
  Mo  Mo191  1  0.11267080  0.29786771  0.61786785  1
  Mo  Mo192  1  0.39566500  0.60683526  0.75621500  1
  Mo  Mo193  1  0.10705020  0.49671867  0.61239361  1
  Mo  Mo194  1  0.59544636  0.80359042  0.49224491  1
  Mo  Mo195  1  0.60080024  0.60534764  0.24398016  1
  Mo  Mo196  1  0.20275188  0.78142999  0.51127596  1
  Mo  Mo197  1  0.59108484  0.21853525  0.49032971  1
  Mo  Mo198  1  0.09825797  0.49517452  0.87878099  1
  Mo  Mo199  1  0.69857776  0.29896224  0.87004925  1
