# generated using pymatgen
data_HfZrTaTiMo
_symmetry_space_group_name_H-M   'P 1'
_cell_length_a   15.20392366
_cell_length_b   15.20574182
_cell_length_c   16.83947540
_cell_angle_alpha   89.97252063
_cell_angle_beta   90.09689053
_cell_angle_gamma   89.97055753
_symmetry_Int_Tables_number   1
_chemical_formula_structural   HfZrTaTiMo
_chemical_formula_sum   'Hf40 Zr40 Ta40 Ti40 Mo40'
_cell_volume   3893.06022325
_cell_formula_units_Z   40
loop_
 _symmetry_equiv_pos_site_id
 _symmetry_equiv_pos_as_xyz
  1  'x, y, z'
loop_
 _atom_site_type_symbol
 _atom_site_label
 _atom_site_symmetry_multiplicity
 _atom_site_fract_x
 _atom_site_fract_y
 _atom_site_fract_z
 _atom_site_occupancy
  Hf  Hf0  1  0.38875285  0.79674480  0.50378734  1
  Hf  Hf1  1  0.61789549  0.39139030  0.51588077  1
  Hf  Hf2  1  0.67967421  0.69032301  0.12720121  1
  Hf  Hf3  1  0.00643438  0.79321834  0.74585794  1
  Hf  Hf4  1  0.71219407  0.32077221  0.12135173  1
  Hf  Hf5  1  0.70049491  0.10420783  0.37056226  1
  Hf  Hf6  1  0.10686153  0.29997669  0.87605939  1
  Hf  Hf7  1  0.89723766  0.69410636  0.88257938  1
  Hf  Hf8  1  0.49505937  0.10687847  0.86281353  1
  Hf  Hf9  1  0.40488405  0.20603450  0.52048247  1
  Hf  Hf10  1  0.18517930  0.81953558  0.48957897  1
  Hf  Hf11  1  0.89546723  0.10292484  0.14388591  1
  Hf  Hf12  1  0.70637857  0.69476591  0.62877174  1
  Hf  Hf13  1  0.31722136  0.51099999  0.38335192  1
  Hf  Hf14  1  0.29985503  0.31357369  0.12928347  1
  Hf  Hf15  1  0.09867737  0.29691288  0.39483150  1
  Hf  Hf16  1  0.80067781  0.80407907  0.00854833  1
  Hf  Hf17  1  0.70096449  0.10641720  0.13708631  1
  Hf  Hf18  1  0.90767358  0.29620974  0.86692161  1
  Hf  Hf19  1  0.19605267  0.61470426  0.49879998  1
  Hf  Hf20  1  0.38396683  0.00293053  0.50847665  1
  Hf  Hf21  1  0.10735996  0.08524189  0.61182711  1
  Hf  Hf22  1  0.20708229  0.39525335  0.73125015  1
  Hf  Hf23  1  0.30706269  0.51607622  0.61990939  1
  Hf  Hf24  1  0.38725099  0.80726886  0.76020117  1
  Hf  Hf25  1  0.50224922  0.31111353  0.86645939  1
  Hf  Hf26  1  0.57829162  0.59616691  -0.02052703  1
  Hf  Hf27  1  0.77988829  0.79672375  0.25408332  1
  Hf  Hf28  1  0.20513427  -0.00044943  0.00099718  1
  Hf  Hf29  1  0.70271742  0.90669802  0.12863992  1
  Hf  Hf30  1  0.51511962  0.31051552  0.38530549  1
  Hf  Hf31  1  0.41513282  0.41368161  0.25270450  1
  Hf  Hf32  1  0.59933945  0.80089770  -0.01660129  1
  Hf  Hf33  1  0.89423351  0.51759970  0.62631281  1
  Hf  Hf34  1  0.28695936  0.70152308  0.87978724  1
  Hf  Hf35  1  0.30757807  0.29473810  0.87487180  1
  Hf  Hf36  1  0.29561641  0.71243232  0.36605978  1
  Hf  Hf37  1  0.89803996  0.89654868  0.36089238  1
  Hf  Hf38  1  0.90072261  0.88662270  0.62053254  1
  Hf  Hf39  1  0.40263500  0.00402250  -0.00536051  1
  Zr  Zr40  1  0.90052388  0.08962690  0.61382170  1
  Zr  Zr41  1  0.59404410  -0.00767213  0.25600107  1
  Zr  Zr42  1  -0.00295031  -0.00321602  0.00595645  1
  Zr  Zr43  1  0.89845038  0.68285622  0.35290206  1
  Zr  Zr44  1  0.19879581  0.21071502  0.25340555  1
  Zr  Zr45  1  0.78785591  0.59227626  0.00781210  1
  Zr  Zr46  1  0.60885166  0.00272345  -0.01190801  1
  Zr  Zr47  1  -0.01085443  0.59585785  0.49342691  1
  Zr  Zr48  1  0.09876998  0.09355114  0.13627541  1
  Zr  Zr49  1  0.09120212  0.69117518  0.88697100  1
  Zr  Zr50  1  0.09958730  0.49923190  0.36407160  1
  Zr  Zr51  1  0.90375947  0.10203371  0.38280328  1
  Zr  Zr52  1  0.49741502  0.89211163  0.12810730  1
  Zr  Zr53  1  0.11397814  0.49011281  0.13936907  1
  Zr  Zr54  1  0.80098166  0.39001925  0.74797649  1
  Zr  Zr55  1  0.49755534  0.90158880  0.63274268  1
  Zr  Zr56  1  0.29834513  0.69811988  0.12390632  1
  Zr  Zr57  1  0.50082092  0.70029651  0.63100981  1
  Zr  Zr58  1  -0.00016231  0.59358071  0.02182299  1
  Zr  Zr59  1  0.69407090  0.90437031  0.64421945  1
  Zr  Zr60  1  0.29928430  0.49620168  0.87748635  1
  Zr  Zr61  1  0.77704271  -0.01235275  0.49573168  1
  Zr  Zr62  1  0.89494596  0.89700200  0.86902916  1
  Zr  Zr63  1  0.18993606  0.80257869  0.01783594  1
  Zr  Zr64  1  0.91361632  0.30013532  0.60750251  1
  Zr  Zr65  1  0.49927317  0.10592335  0.38442144  1
  Zr  Zr66  1  0.58864553  0.58314776  0.25978752  1
  Zr  Zr67  1  0.61641857  0.20582872  0.74221456  1
  Zr  Zr68  1  0.01530749  0.40651057  0.73668623  1
  Zr  Zr69  1  0.48244179  0.89942561  0.37593614  1
  Zr  Zr70  1  0.30463157  0.30496971  0.38384690  1
  Zr  Zr71  1  0.18253461  0.60141817  0.74228173  1
  Zr  Zr72  1  0.20563098  0.19408302  0.73201937  1
  Zr  Zr73  1  0.60320560  0.20724577  -0.00797570  1
  Zr  Zr74  1  0.20177955  0.20183551  0.00802217  1
  Zr  Zr75  1  0.90208258  0.09536503  0.86419535  1
  Zr  Zr76  1  0.10471305  0.89530951  0.87396020  1
  Zr  Zr77  1  0.40108660  0.80102108  -0.01378493  1
  Zr  Zr78  1  0.60766133  0.22281771  0.25004209  1
  Zr  Zr79  1  0.80615008  0.19885480  -0.00377539  1
  Ta  Ta80  1  0.40133274  0.60054404  0.75813855  1
  Ta  Ta81  1  0.79997395  0.78597442  0.49083162  1
  Ta  Ta82  1  0.70120811  0.70306285  0.86465385  1
  Ta  Ta83  1  0.59396164  0.59420254  0.49777080  1
  Ta  Ta84  1  0.80412685  0.39883867  -0.01354076  1
  Ta  Ta85  1  0.31832379  0.50931560  0.11958476  1
  Ta  Ta86  1  0.51472988  0.49797834  0.11926624  1
  Ta  Ta87  1  0.41429739  0.40890382  -0.00019148  1
  Ta  Ta88  1  0.90689809  0.50082058  0.87323214  1
  Ta  Ta89  1  0.60642090  0.80594452  0.49288219  1
  Ta  Ta90  1  0.79394659  0.38509299  0.26456745  1
  Ta  Ta91  1  0.90138432  0.30212896  0.39320639  1
  Ta  Ta92  1  0.09699119  0.49808190  0.88526727  1
  Ta  Ta93  1  -0.00603920  0.80016412  0.02959796  1
  Ta  Ta94  1  0.89174132  0.69311305  0.14426239  1
  Ta  Ta95  1  0.41295437  0.41416859  0.51299851  1
  Ta  Ta96  1  0.78245810  0.20830963  0.50872692  1
  Ta  Ta97  1  0.49726203  0.10471893  0.12705105  1
  Ta  Ta98  1  0.40564078  0.20132140  0.24812180  1
  Ta  Ta99  1  0.09240872  0.70385796  0.35119593  1
  Ta  Ta100  1  0.19568268  0.80806645  0.24155765  1
  Ta  Ta101  1  0.68999225  0.69264355  0.37813905  1
  Ta  Ta102  1  0.60190586  0.40692149  0.74788502  1
  Ta  Ta103  1  0.28242899  0.90919332  0.63024853  1
  Ta  Ta104  1  -0.00842751  0.39288087  0.25528059  1
  Ta  Ta105  1  -0.00398076  0.39170899  0.00686099  1
  Ta  Ta106  1  0.90550709  0.90592573  0.15137673  1
  Ta  Ta107  1  0.10044150  0.10313883  0.87086888  1
  Ta  Ta108  1  0.00899729  0.19855957  0.73976441  1
  Ta  Ta109  1  0.48822856  0.68637773  0.38271923  1
  Ta  Ta110  1  0.30100834  0.09314333  0.36922742  1
  Ta  Ta111  1  0.01295514  -0.01828982  0.48970681  1
  Ta  Ta112  1  0.40000178  0.20644902  0.72718419  1
  Ta  Ta113  1  0.88817730  0.48041865  0.13490368  1
  Ta  Ta114  1  0.50393628  0.30669308  0.12042207  1
  Ta  Ta115  1  0.28781205  0.71494517  0.63204080  1
  Ta  Ta116  1  -0.00630210  0.20608925  0.26033148  1
  Ta  Ta117  1  0.80899266  0.41245538  0.49536981  1
  Ta  Ta118  1  0.70492733  0.49915717  0.86389338  1
  Ta  Ta119  1  0.29767922  0.09951783  0.86796092  1
  Ti  Ti120  1  0.70413613  0.90525981  0.85360025  1
  Ti  Ti121  1  0.21301835  0.18515785  0.50527914  1
  Ti  Ti122  1  0.20172665  0.40890164  0.51241243  1
  Ti  Ti123  1  0.48382048  0.68588162  0.12588338  1
  Ti  Ti124  1  0.61101697  0.40566666  -0.01457654  1
  Ti  Ti125  1  0.50471692  0.90567878  0.85768611  1
  Ti  Ti126  1  -0.01238430  0.60207185  0.74667115  1
  Ti  Ti127  1  0.80455475  0.78639234  0.74791201  1
  Ti  Ti128  1  0.09754601  0.90231461  0.35544615  1
  Ti  Ti129  1  0.00135561  0.00230175  0.74513978  1
  Ti  Ti130  1  0.40132513  0.20372662  0.00536452  1
  Ti  Ti131  1  0.69318127  0.48485509  0.37787583  1
  Ti  Ti132  1  0.20035431  -0.00938846  0.75675896  1
  Ti  Ti133  1  0.00175752  0.19866508  0.00555202  1
  Ti  Ti134  1  0.50726869  0.50937215  0.63175642  1
  Ti  Ti135  1  0.40383162  0.40178717  0.73519055  1
  Ti  Ti136  1  0.59919461  0.60270369  0.76165331  1
  Ti  Ti137  1  0.09397337  0.69435230  0.14602199  1
  Ti  Ti138  1  0.70759014  0.09675047  0.86036514  1
  Ti  Ti139  1  0.70063946  0.50309923  0.63430521  1
  Ti  Ti140  1  0.10505771  0.09539886  0.38030961  1
  Ti  Ti141  1  0.51196021  0.30433995  0.62801959  1
  Ti  Ti142  1  0.39493675  0.80449376  0.24933373  1
  Ti  Ti143  1  0.78997307  0.59651759  0.48965698  1
  Ti  Ti144  1  0.20072932  0.40747851  0.00375563  1
  Ti  Ti145  1  0.09941699  0.89273823  0.62570687  1
  Ti  Ti146  1  0.80726535  0.19068075  0.73358712  1
  Ti  Ti147  1  0.78885101  0.57701343  0.24940880  1
  Ti  Ti148  1  0.09026305  0.30004069  0.13132158  1
  Ti  Ti149  1  0.39246281  0.01148684  0.74359233  1
  Ti  Ti150  1  0.20607704  0.00088998  0.25138937  1
  Ti  Ti151  1  0.30912147  0.10385829  0.13397887  1
  Ti  Ti152  1  0.21316302  0.59436163  0.25187404  1
  Ti  Ti153  1  -0.00527401  0.78936854  0.49171199  1
  Ti  Ti154  1  0.51740626  0.09080108  0.62636014  1
  Ti  Ti155  1  0.08656617  0.69802010  0.61976563  1
  Ti  Ti156  1  0.30275677  0.91053008  0.13303699  1
  Ti  Ti157  1  0.58540706  0.78807457  0.26189314  1
  Ti  Ti158  1  0.10484931  0.29525987  0.60164839  1
  Ti  Ti159  1  0.80255770  0.00115544  0.00090717  1
  Mo  Mo160  1  0.60603982  0.40468734  0.24950151  1
  Mo  Mo161  1  0.20500879  0.40273559  0.25283744  1
  Mo  Mo162  1  0.00637528  0.40515329  0.50466980  1
  Mo  Mo163  1  0.00933785  0.00484665  0.26291403  1
  Mo  Mo164  1  0.39299249  0.01020213  0.24294941  1
  Mo  Mo165  1  0.50401800  0.49956798  0.38986227  1
  Mo  Mo166  1  0.40336950  0.60977472  0.24865632  1
  Mo  Mo167  1  0.59443555  -0.00247421  0.49893864  1
  Mo  Mo168  1  0.20044636  0.58986664  0.00646457  1
  Mo  Mo169  1  0.29002131  0.90738402  0.36139606  1
  Mo  Mo170  1  0.70849353  0.30551394  0.62706613  1
  Mo  Mo171  1  0.79762901  0.59811858  0.75597810  1
  Mo  Mo172  1  0.19764311  -0.00201156  0.48878757  1
  Mo  Mo173  1  0.89594740  0.70446539  0.61966971  1
  Mo  Mo174  1  0.00726206  0.19013854  0.49435303  1
  Mo  Mo175  1  0.39782062  0.59476319  -0.00633375  1
  Mo  Mo176  1  0.09964880  0.90130140  0.14033249  1
  Mo  Mo177  1  0.69813256  0.09894069  0.62550212  1
  Mo  Mo178  1  0.80167239  0.00171439  0.74343057  1
  Mo  Mo179  1  0.30410561  0.09423603  0.62978355  1
  Mo  Mo180  1  0.49911326  0.49695058  0.86061531  1
  Mo  Mo181  1  0.49756009  0.70049031  0.86183870  1
  Mo  Mo182  1  0.60542861  0.18988416  0.51848358  1
  Mo  Mo183  1  0.70794461  0.30105893  0.87499952  1
  Mo  Mo184  1  0.19464740  0.80200251  0.74380284  1
  Mo  Mo185  1  0.30408447  0.30702094  0.61039414  1
  Mo  Mo186  1  0.30176357  0.91518186  0.86866526  1
  Mo  Mo187  1  0.69783414  0.49752755  0.12004781  1
  Mo  Mo188  1  0.79847423  0.00034387  0.25795720  1
  Mo  Mo189  1  0.09884275  0.50088329  0.61274216  1
  Mo  Mo190  1  0.59838070  0.79577108  0.76531066  1
  Mo  Mo191  1  0.69010149  0.88843249  0.37569674  1
  Mo  Mo192  1  0.59800411  0.00533762  0.76088347  1
  Mo  Mo193  1  -0.00604083  0.58992207  0.23815908  1
  Mo  Mo194  1  0.90886058  0.30010831  0.12661401  1
  Mo  Mo195  1  0.89089853  0.49050687  0.36664417  1
  Mo  Mo196  1  -0.00059707  0.79783278  0.23836570  1
  Mo  Mo197  1  0.81117982  0.21060100  0.25696459  1
  Mo  Mo198  1  0.40157334  0.60658266  0.50970612  1
  Mo  Mo199  1  0.70794509  0.29797759  0.38481411  1
