# generated using pymatgen
data_HfZrTaTiMo
_symmetry_space_group_name_H-M   'P 1'
_cell_length_a   15.20677949
_cell_length_b   15.22231811
_cell_length_c   16.80307957
_cell_angle_alpha   89.99345237
_cell_angle_beta   89.98882288
_cell_angle_gamma   90.00362630
_symmetry_Int_Tables_number   1
_chemical_formula_structural   HfZrTaTiMo
_chemical_formula_sum   'Hf40 Zr40 Ta40 Ti40 Mo40'
_cell_volume   3889.61766612
_cell_formula_units_Z   40
loop_
 _symmetry_equiv_pos_site_id
 _symmetry_equiv_pos_as_xyz
  1  'x, y, z'
loop_
 _atom_site_type_symbol
 _atom_site_label
 _atom_site_symmetry_multiplicity
 _atom_site_fract_x
 _atom_site_fract_y
 _atom_site_fract_z
 _atom_site_occupancy
  Hf  Hf0  1  0.69918752  0.29428787  0.36080318  1
  Hf  Hf1  1  0.80956300  0.39001833  0.74103939  1
  Hf  Hf2  1  0.49551826  0.10127600  0.61876427  1
  Hf  Hf3  1  0.28502332  0.10289907  0.38448158  1
  Hf  Hf4  1  0.51476306  0.70516266  0.35223845  1
  Hf  Hf5  1  0.50118481  0.30494057  0.87060443  1
  Hf  Hf6  1  0.39133397  0.20845529  0.00047832  1
  Hf  Hf7  1  0.59098449  -0.00144890  0.01900812  1
  Hf  Hf8  1  0.41330770  0.61108425  0.48759579  1
  Hf  Hf9  1  -0.00746647  0.20662415  0.75294335  1
  Hf  Hf10  1  0.00499972  0.59261211  0.73806396  1
  Hf  Hf11  1  0.31613323  0.29337299  0.14852707  1
  Hf  Hf12  1  0.58263059  0.60717731  0.76787128  1
  Hf  Hf13  1  0.29924902  0.10242364  0.60911865  1
  Hf  Hf14  1  0.81787729  0.80225037  0.24351440  1
  Hf  Hf15  1  0.89835008  0.28249983  0.60537834  1
  Hf  Hf16  1  0.19333297  0.19994390  0.74856991  1
  Hf  Hf17  1  0.60499110  0.39572471  0.00988170  1
  Hf  Hf18  1  0.02161653  0.40403180  0.50755588  1
  Hf  Hf19  1  0.70048803  0.70613578  0.88493949  1
  Hf  Hf20  1  0.41026919  0.80508944  -0.00270867  1
  Hf  Hf21  1  0.91329248  0.48974727  0.11914938  1
  Hf  Hf22  1  0.89977566  0.68515545  0.87728359  1
  Hf  Hf23  1  0.30027495  0.91456294  0.12245978  1
  Hf  Hf24  1  0.89931690  0.49678626  0.61815681  1
  Hf  Hf25  1  0.60519977  0.40066264  0.74459998  1
  Hf  Hf26  1  0.88618743  0.09663065  0.87175561  1
  Hf  Hf27  1  0.20823823  0.59142926  0.51032933  1
  Hf  Hf28  1  0.70920089  0.49804671  0.87418395  1
  Hf  Hf29  1  0.19877161  0.80064138  0.23801906  1
  Hf  Hf30  1  0.39029522  0.80606351  0.48776021  1
  Hf  Hf31  1  0.70386780  0.49757106  0.13219670  1
  Hf  Hf32  1  0.59056618  -0.00411265  0.23165255  1
  Hf  Hf33  1  0.71421383  0.28973880  0.13724052  1
  Hf  Hf34  1  0.78338062  0.77850721  0.49698556  1
  Hf  Hf35  1  0.71241280  0.29089994  0.87797329  1
  Hf  Hf36  1  0.69964001  0.89439087  0.35917939  1
  Hf  Hf37  1  0.58696433  0.59604156  -0.00000792  1
  Hf  Hf38  1  0.91024826  0.50220746  0.39115054  1
  Hf  Hf39  1  0.49790149  0.51590670  0.62301592  1
  Zr  Zr40  1  0.89342884  0.09013095  0.61755987  1
  Zr  Zr41  1  0.91192362  0.70191632  0.10651011  1
  Zr  Zr42  1  0.88991192  0.10130163  0.37711787  1
  Zr  Zr43  1  0.39492836  0.20297197  0.74806145  1
  Zr  Zr44  1  0.29952144  0.90614067  0.63262411  1
  Zr  Zr45  1  0.41111461  0.41086064  0.00699502  1
  Zr  Zr46  1  0.87790497  0.69526794  0.63724537  1
  Zr  Zr47  1  0.20810851  0.80396641  0.00066499  1
  Zr  Zr48  1  0.49954758  0.90780116  0.36906887  1
  Zr  Zr49  1  0.18310447  0.19240672  0.25382293  1
  Zr  Zr50  1  0.89595796  0.08668533  0.13033248  1
  Zr  Zr51  1  0.60391515  0.80602204  0.01180882  1
  Zr  Zr52  1  0.01059236  0.59950780  0.24450032  1
  Zr  Zr53  1  0.50843131  0.50107083  0.35150047  1
  Zr  Zr54  1  0.60421745  0.00394393  0.75011273  1
  Zr  Zr55  1  0.10941366  0.69816784  0.37938152  1
  Zr  Zr56  1  0.11177126  0.68832470  0.87635513  1
  Zr  Zr57  1  0.68828809  0.09245243  0.88098684  1
  Zr  Zr58  1  0.69245341  0.89416966  0.62499140  1
  Zr  Zr59  1  0.82226547  0.39277257  0.25803101  1
  Zr  Zr60  1  0.58596958  0.19141475  0.23632248  1
  Zr  Zr61  1  0.21104666  0.39631172  0.01606032  1
  Zr  Zr62  1  0.39178310  0.61091141  0.00944824  1
  Zr  Zr63  1  0.48962578  0.90391790  0.62749053  1
  Zr  Zr64  1  0.49622671  0.30689432  0.62083551  1
  Zr  Zr65  1  0.09258550  0.29234265  0.12549922  1
  Zr  Zr66  1  0.59034570  0.19599010  0.02113426  1
  Zr  Zr67  1  0.10260390  0.09211528  0.88552877  1
  Zr  Zr68  1  0.78048697  0.39516686  0.50543280  1
  Zr  Zr69  1  0.10341855  0.49290467  0.87409202  1
  Zr  Zr70  1  0.00177938  -0.00907855  0.75532234  1
  Zr  Zr71  1  0.90481161  0.69642471  0.38273158  1
  Zr  Zr72  1  0.78424093  -0.00423796  0.49288891  1
  Zr  Zr73  1  0.30551392  0.51625621  0.86808591  1
  Zr  Zr74  1  0.31228948  0.70095050  0.63286853  1
  Zr  Zr75  1  0.39715620  0.40807969  0.48611502  1
  Zr  Zr76  1  0.10070598  0.09886934  0.60817786  1
  Zr  Zr77  1  0.89945275  0.89340079  0.62391657  1
  Zr  Zr78  1  0.18637292  0.59837345  0.03044849  1
  Zr  Zr79  1  0.70396293  0.50716036  0.36557045  1
  Ta  Ta80  1  0.79720308  0.81368399  0.76669933  1
  Ta  Ta81  1  0.01384082  0.60775626  0.52232993  1
  Ta  Ta82  1  0.90654157  0.89527307  0.37853211  1
  Ta  Ta83  1  0.27881428  0.09989348  0.12467398  1
  Ta  Ta84  1  0.70604062  0.69949962  0.12433349  1
  Ta  Ta85  1  0.09631034  0.30187646  0.87845446  1
  Ta  Ta86  1  0.10192076  0.29717115  0.38386571  1
  Ta  Ta87  1  0.38346103  0.01185311  0.26109250  1
  Ta  Ta88  1  0.20204496  0.39634343  0.74347231  1
  Ta  Ta89  1  -0.01410198  0.20682471  -0.00856392  1
  Ta  Ta90  1  0.00625963  0.80437197  -0.01563079  1
  Ta  Ta91  1  0.29122380  0.30587112  0.87347189  1
  Ta  Ta92  1  0.29510815  0.30229163  0.61219651  1
  Ta  Ta93  1  0.40555237  0.20392053  0.48158768  1
  Ta  Ta94  1  0.00387342  -0.01232236  0.49518092  1
  Ta  Ta95  1  0.29856069  0.51117194  0.35816656  1
  Ta  Ta96  1  0.70326387  0.52544044  0.63305705  1
  Ta  Ta97  1  0.00357714  0.79772695  0.76127590  1
  Ta  Ta98  1  0.39102769  0.00446907  -0.00618276  1
  Ta  Ta99  1  0.19378957  0.40838108  0.24473052  1
  Ta  Ta100  1  0.08983094  0.90951149  0.11715006  1
  Ta  Ta101  1  0.19692571  0.80365938  0.75696152  1
  Ta  Ta102  1  0.61999133  0.61665991  0.50037463  1
  Ta  Ta103  1  0.90643632  0.48484435  0.87550358  1
  Ta  Ta104  1  0.20233892  0.60405934  0.23202024  1
  Ta  Ta105  1  0.48956244  0.09906802  0.87519331  1
  Ta  Ta106  1  0.78769752  0.19080388  0.74207475  1
  Ta  Ta107  1  0.40649176  0.79472704  0.76988536  1
  Ta  Ta108  1  0.00880964  0.80920101  0.24428247  1
  Ta  Ta109  1  0.29435199  0.31002286  0.36544695  1
  Ta  Ta110  1  0.80960338  0.60145932  0.24231788  1
  Ta  Ta111  1  0.29829366  0.10190140  0.87652540  1
  Ta  Ta112  1  0.81609336  0.38323095  -0.00022870  1
  Ta  Ta113  1  0.11287237  0.49752041  0.37628892  1
  Ta  Ta114  1  0.40168089  0.81288695  0.24341429  1
  Ta  Ta115  1  0.18414074  -0.00459526  0.25684816  1
  Ta  Ta116  1  0.50162498  0.69602395  0.14265010  1
  Ta  Ta117  1  0.72197257  0.90748342  0.13264147  1
  Ta  Ta118  1  0.60448053  0.20835212  0.49456712  1
  Ta  Ta119  1  0.51334243  0.71087027  0.62759236  1
  Ti  Ti120  1  0.01046629  0.39331744  0.73879480  1
  Ti  Ti121  1  -0.00623871  -0.00944987  -0.01001318  1
  Ti  Ti122  1  0.08796559  0.09996010  0.38943882  1
  Ti  Ti123  1  0.11028315  0.29625451  0.61187638  1
  Ti  Ti124  1  0.59567619  0.40885028  0.50196252  1
  Ti  Ti125  1  0.49948361  0.29818445  0.35899067  1
  Ti  Ti126  1  0.50718056  0.90842554  0.87415657  1
  Ti  Ti127  1  0.30368095  0.49289394  0.62987686  1
  Ti  Ti128  1  0.19369201  0.79464302  0.50616827  1
  Ti  Ti129  1  0.59161595  0.00935717  0.49241910  1
  Ti  Ti130  1  0.69053123  0.09924600  0.36550570  1
  Ti  Ti131  1  0.90335584  0.29151701  0.39449475  1
  Ti  Ti132  1  0.59169920  0.80413912  0.49676519  1
  Ti  Ti133  1  0.10204085  0.89331519  0.62585273  1
  Ti  Ti134  1  -0.01123275  0.20000453  0.26075133  1
  Ti  Ti135  1  0.20359494  -0.00006167  0.75144481  1
  Ti  Ti136  1  0.00753971  0.39958814  -0.00047497  1
  Ti  Ti137  1  0.39818073  0.00096177  0.48352636  1
  Ti  Ti138  1  0.79905322  0.19022055  0.00608431  1
  Ti  Ti139  1  0.00462098  0.79660268  0.50934300  1
  Ti  Ti140  1  0.80919110  0.81162843  -0.00400610  1
  Ti  Ti141  1  0.31941912  0.50274998  0.14699436  1
  Ti  Ti142  1  0.20089264  -0.01821823  0.49139729  1
  Ti  Ti143  1  0.19388180  0.19901945  -0.00048538  1
  Ti  Ti144  1  0.90565067  0.28770670  0.13005026  1
  Ti  Ti145  1  -0.00442921  -0.00521070  0.25564841  1
  Ti  Ti146  1  0.70249481  0.69688364  0.35324379  1
  Ti  Ti147  1  0.01019550  0.39374291  0.25959554  1
  Ti  Ti148  1  0.30314110  0.70570449  0.36143793  1
  Ti  Ti149  1  0.40069535  0.41219653  0.75403737  1
  Ti  Ti150  1  0.20432069  0.60149935  0.73610802  1
  Ti  Ti151  1  0.60045805  0.20415764  0.74222922  1
  Ti  Ti152  1  0.46251391  0.09985713  0.13048879  1
  Ti  Ti153  1  0.09151522  0.09303603  0.11354860  1
  Ti  Ti154  1  0.29496016  0.90794174  0.87330198  1
  Ti  Ti155  1  0.80309553  0.58721909  0.00257498  1
  Ti  Ti156  1  0.10022390  0.89521868  0.37868789  1
  Ti  Ti157  1  0.79861440  -0.00872682  -0.00058604  1
  Ti  Ti158  1  0.60094049  0.80343146  0.76357663  1
  Ti  Ti159  1  0.69740596  0.10973815  0.61712634  1
  Mo  Mo160  1  0.90353290  0.30124617  0.87300337  1
  Mo  Mo161  1  0.49125214  0.90461463  0.13164948  1
  Mo  Mo162  1  0.79803966  0.59966740  0.50121454  1
  Mo  Mo163  1  0.19740808  0.00485740  -0.00193461  1
  Mo  Mo164  1  0.39685912  0.60343105  0.74827718  1
  Mo  Mo165  1  0.00052576  0.19681027  0.49320420  1
  Mo  Mo166  1  0.28762595  0.89681482  0.37002736  1
  Mo  Mo167  1  0.68791342  0.70362496  0.64037018  1
  Mo  Mo168  1  0.60942381  0.80082280  0.22925587  1
  Mo  Mo169  1  0.79382457  0.59532138  0.76109234  1
  Mo  Mo170  1  0.89634666  0.89607718  0.87563252  1
  Mo  Mo171  1  0.30080860  0.70818182  0.86549770  1
  Mo  Mo172  1  0.50056812  0.49786608  0.87454030  1
  Mo  Mo173  1  0.50374939  0.49778610  0.14674852  1
  Mo  Mo174  1  0.20086168  0.21073209  0.49237912  1
  Mo  Mo175  1  0.79443059  0.00049964  0.74925520  1
  Mo  Mo176  1  0.09729788  0.49310517  0.13131367  1
  Mo  Mo177  1  0.80243846  -0.00176763  0.25613403  1
  Mo  Mo178  1  0.80528446  0.19089973  0.25187574  1
  Mo  Mo179  1  0.20983800  0.40323545  0.49617723  1
  Mo  Mo180  1  0.39932395  0.39896826  0.25930211  1
  Mo  Mo181  1  0.50140184  0.10632924  0.38025890  1
  Mo  Mo182  1  0.09622814  0.71012090  0.11937508  1
  Mo  Mo183  1  0.70295788  0.90185941  0.88123614  1
  Mo  Mo184  1  0.30705788  0.70724634  0.13624749  1
  Mo  Mo185  1  0.78357913  0.19526280  0.49565700  1
  Mo  Mo186  1  0.49405072  0.70358135  0.87942703  1
  Mo  Mo187  1  0.69420801  0.29848220  0.62303612  1
  Mo  Mo188  1  0.61161028  0.60323963  0.23672253  1
  Mo  Mo189  1  -0.00587108  0.59084196  -0.00304835  1
  Mo  Mo190  1  0.39577198  0.60968685  0.24830909  1
  Mo  Mo191  1  0.39289775  -0.00004521  0.76843204  1
  Mo  Mo192  1  0.11363874  0.49507106  0.63213946  1
  Mo  Mo193  1  0.60052448  0.39541603  0.23847455  1
  Mo  Mo194  1  0.10232117  0.89696884  0.87320232  1
  Mo  Mo195  1  0.10080166  0.70839853  0.63171446  1
  Mo  Mo196  1  0.91179474  0.90026020  0.11772350  1
  Mo  Mo197  1  0.70909518  0.09345744  0.12400295  1
  Mo  Mo198  1  0.39247613  0.19233048  0.26748355  1
  Mo  Mo199  1  0.49861335  0.30647523  0.14100869  1
