# generated using pymatgen
data_HfZrTaTiMo
_symmetry_space_group_name_H-M   'P 1'
_cell_length_a   15.21288104
_cell_length_b   15.21534475
_cell_length_c   16.85172099
_cell_angle_alpha   90.02132625
_cell_angle_beta   90.02065776
_cell_angle_gamma   89.99796525
_symmetry_Int_Tables_number   1
_chemical_formula_structural   HfZrTaTiMo
_chemical_formula_sum   'Hf40 Zr40 Ta40 Ti40 Mo40'
_cell_volume   3900.65434977
_cell_formula_units_Z   40
loop_
 _symmetry_equiv_pos_site_id
 _symmetry_equiv_pos_as_xyz
  1  'x, y, z'
loop_
 _atom_site_type_symbol
 _atom_site_label
 _atom_site_symmetry_multiplicity
 _atom_site_fract_x
 _atom_site_fract_y
 _atom_site_fract_z
 _atom_site_occupancy
  Hf  Hf0  1  0.59481677  0.80662815  0.75053442  1
  Hf  Hf1  1  0.89193770  0.69760538  0.62803815  1
  Hf  Hf2  1  0.21253702  0.39872183  0.75218202  1
  Hf  Hf3  1  0.30582670  0.30414355  0.12477136  1
  Hf  Hf4  1  0.39210951  0.80989862  0.75212587  1
  Hf  Hf5  1  -0.00445054  0.80224252  0.50253977  1
  Hf  Hf6  1  0.77563672  0.60973838  0.25290557  1
  Hf  Hf7  1  0.69808281  0.51514492  0.62738886  1
  Hf  Hf8  1  -0.00619325  0.81843738  0.75967044  1
  Hf  Hf9  1  0.69055932  0.91585065  0.87858527  1
  Hf  Hf10  1  0.00265808  0.61106587  0.00372841  1
  Hf  Hf11  1  0.89059884  0.51322536  0.37472337  1
  Hf  Hf12  1  0.52564289  0.09974699  0.88224964  1
  Hf  Hf13  1  0.79433745  0.00639741  0.75023656  1
  Hf  Hf14  1  0.10561754  0.49627446  0.88486759  1
  Hf  Hf15  1  0.29724229  0.29016254  0.38402981  1
  Hf  Hf16  1  0.89644689  0.30285446  0.37456230  1
  Hf  Hf17  1  0.61304812  -0.00189568  0.02288179  1
  Hf  Hf18  1  0.11190476  0.50699452  0.11688727  1
  Hf  Hf19  1  0.11842310  0.90429847  0.62846251  1
  Hf  Hf20  1  0.59934108  0.78069165  0.24192990  1
  Hf  Hf21  1  0.09141424  0.69973995  0.37290760  1
  Hf  Hf22  1  0.10054255  0.30302896  0.38319736  1
  Hf  Hf23  1  0.60656746  0.21202715  0.49766510  1
  Hf  Hf24  1  0.78458267  0.40320909  0.49655989  1
  Hf  Hf25  1  0.51214250  0.70507793  0.61532691  1
  Hf  Hf26  1  0.29116508  0.69200201  0.12065325  1
  Hf  Hf27  1  0.00080432  0.20208216  0.24199742  1
  Hf  Hf28  1  0.58569442  0.00597290  0.50132665  1
  Hf  Hf29  1  0.89544960  0.50503496  0.13451286  1
  Hf  Hf30  1  -0.01209736  0.57734563  0.75421201  1
  Hf  Hf31  1  0.39057114  0.80616645  0.00117280  1
  Hf  Hf32  1  0.09876788  0.69418195  0.63407093  1
  Hf  Hf33  1  0.19506866  0.17449905  0.50692263  1
  Hf  Hf34  1  0.08785630  0.28717882  0.61403311  1
  Hf  Hf35  1  0.18717789  0.80143109  -0.00874955  1
  Hf  Hf36  1  -0.00545637  0.61136462  0.24827402  1
  Hf  Hf37  1  0.79223367  0.80269732  0.75620090  1
  Hf  Hf38  1  0.40982146  0.18566119  0.50063481  1
  Hf  Hf39  1  0.20420870  -0.00244934  -0.01244105  1
  Zr  Zr40  1  0.10130308  0.49536980  0.61606289  1
  Zr  Zr41  1  0.09716054  0.69340303  0.86188705  1
  Zr  Zr42  1  0.38443643  0.59542714  0.75424938  1
  Zr  Zr43  1  0.68402910  0.47557834  0.11770903  1
  Zr  Zr44  1  0.71190300  0.10351915  0.61532351  1
  Zr  Zr45  1  0.20640005  0.59425452  0.25884687  1
  Zr  Zr46  1  0.88862711  0.30479554  0.13370713  1
  Zr  Zr47  1  0.88735164  0.91570397  0.13005553  1
  Zr  Zr48  1  -0.01133259  0.81376565  -0.01259407  1
  Zr  Zr49  1  0.80420478  0.58912313  -0.00616625  1
  Zr  Zr50  1  0.49824116  0.49432325  0.63954224  1
  Zr  Zr51  1  0.00090172  0.00529262  -0.00551049  1
  Zr  Zr52  1  0.40721922  0.39473915  -0.01134056  1
  Zr  Zr53  1  0.40568398  0.59304976  0.49694545  1
  Zr  Zr54  1  0.69881463  0.48681113  0.87226958  1
  Zr  Zr55  1  0.41700979  0.60263654  0.25476899  1
  Zr  Zr56  1  0.01045868  0.00444773  0.49911697  1
  Zr  Zr57  1  0.52424097  0.69397815  0.39153292  1
  Zr  Zr58  1  0.21086607  -0.00936648  0.77411455  1
  Zr  Zr59  1  0.18722324  0.19395740  0.74961252  1
  Zr  Zr60  1  0.10840012  0.10032736  0.36537522  1
  Zr  Zr61  1  0.41519033  0.60537727  -0.01105287  1
  Zr  Zr62  1  0.69940556  0.30926449  0.63674107  1
  Zr  Zr63  1  0.82005299  0.40548934  0.74917414  1
  Zr  Zr64  1  0.41002138  0.00269818  0.01429190  1
  Zr  Zr65  1  -0.00509004  -0.00059379  0.25145946  1
  Zr  Zr66  1  0.49417010  0.29995385  0.63654579  1
  Zr  Zr67  1  0.30372246  0.48512620  0.38768325  1
  Zr  Zr68  1  0.90565984  0.29220425  0.87924617  1
  Zr  Zr69  1  0.41872296  0.00097996  0.23361460  1
  Zr  Zr70  1  0.30541232  0.07616935  0.63164307  1
  Zr  Zr71  1  0.78576467  0.37565157  -0.00019981  1
  Zr  Zr72  1  0.68332144  0.68471395  0.10785991  1
  Zr  Zr73  1  0.50760288  0.90696615  0.36488305  1
  Zr  Zr74  1  0.10911818  0.30723894  0.12137271  1
  Zr  Zr75  1  0.29029285  0.69807673  0.62562321  1
  Zr  Zr76  1  0.00132490  0.02377724  0.74770484  1
  Zr  Zr77  1  0.39623716  0.81585483  0.49966230  1
  Zr  Zr78  1  0.40527284  0.20364817  0.24819193  1
  Zr  Zr79  1  0.68776599  0.09151156  0.36670794  1
  Ta  Ta80  1  0.89402885  0.10200744  0.38287427  1
  Ta  Ta81  1  0.28981500  0.90049177  0.13029047  1
  Ta  Ta82  1  0.21571313  -0.02065271  0.48699493  1
  Ta  Ta83  1  0.79790837  0.19412156  0.25310657  1
  Ta  Ta84  1  0.88858840  0.69740765  0.87276158  1
  Ta  Ta85  1  0.41508402  0.20268321  0.00290642  1
  Ta  Ta86  1  0.79075960  0.80612587  -0.00740052  1
  Ta  Ta87  1  0.30431470  0.49598301  0.11627531  1
  Ta  Ta88  1  0.60122721  0.17958269  0.74556162  1
  Ta  Ta89  1  0.19942673  0.79717179  0.49179218  1
  Ta  Ta90  1  0.11030514  0.09613113  0.12485262  1
  Ta  Ta91  1  -0.00695768  0.40511195  -0.00041268  1
  Ta  Ta92  1  0.79595659  -0.00834992  0.49139532  1
  Ta  Ta93  1  0.29892351  0.48706855  0.61296504  1
  Ta  Ta94  1  0.69331202  0.30771462  0.36877128  1
  Ta  Ta95  1  0.10296722  0.89391004  0.36644842  1
  Ta  Ta96  1  0.39402300  0.20058477  0.75535757  1
  Ta  Ta97  1  0.49677180  0.30990109  0.37691855  1
  Ta  Ta98  1  0.19856377  0.80117749  0.25067513  1
  Ta  Ta99  1  0.29207753  0.69257038  0.87615296  1
  Ta  Ta100  1  0.58190315  0.79555728  0.00344754  1
  Ta  Ta101  1  0.79235446  0.81158175  0.25050646  1
  Ta  Ta102  1  0.29735279  0.29923705  0.61593380  1
  Ta  Ta103  1  0.68329353  0.69991868  0.88683916  1
  Ta  Ta104  1  0.88942066  0.71546055  0.12729893  1
  Ta  Ta105  1  0.29935742  0.10309850  0.12153939  1
  Ta  Ta106  1  0.50363502  0.49305413  0.85879220  1
  Ta  Ta107  1  0.69473453  0.28112033  0.86008411  1
  Ta  Ta108  1  0.10923957  0.30091646  0.88947203  1
  Ta  Ta109  1  0.69484531  0.89799783  0.61987907  1
  Ta  Ta110  1  0.00135555  0.20035221  0.01391856  1
  Ta  Ta111  1  0.61587269  0.21354036  0.00672358  1
  Ta  Ta112  1  0.09649843  0.49534384  0.38485062  1
  Ta  Ta113  1  0.79228536  0.60637850  0.75808751  1
  Ta  Ta114  1  0.59984841  0.61000775  0.75796964  1
  Ta  Ta115  1  0.72133665  0.71638856  0.39850634  1
  Ta  Ta116  1  0.89117124  0.88974761  0.37182736  1
  Ta  Ta117  1  0.49651334  0.90095466  0.87764205  1
  Ta  Ta118  1  0.51525378  0.31596753  0.12571398  1
  Ta  Ta119  1  0.21229041  0.19994168  -0.00410269  1
  Ti  Ti120  1  0.29492050  0.49192233  0.88360417  1
  Ti  Ti121  1  0.58213685  0.41405038  0.49607843  1
  Ti  Ti122  1  0.59278727  0.41322277  0.25891909  1
  Ti  Ti123  1  0.31280617  0.08502232  0.36583748  1
  Ti  Ti124  1  0.81657758  0.19741289  0.74649823  1
  Ti  Ti125  1  0.71959508  0.09630310  0.13728895  1
  Ti  Ti126  1  0.80480071  0.00273159  -0.00369340  1
  Ti  Ti127  1  0.31785808  0.10422984  0.88068750  1
  Ti  Ti128  1  0.89554273  0.29564587  0.61158544  1
  Ti  Ti129  1  0.62349003  -0.02247855  0.22913233  1
  Ti  Ti130  1  0.20544006  0.19796815  0.24689843  1
  Ti  Ti131  1  0.09066468  0.11596118  0.88035982  1
  Ti  Ti132  1  0.09273826  0.71158699  0.12983002  1
  Ti  Ti133  1  -0.00823408  0.60413538  0.49564201  1
  Ti  Ti134  1  0.91251458  0.11473030  0.60719159  1
  Ti  Ti135  1  0.00942300  0.37972776  0.75286070  1
  Ti  Ti136  1  0.20905066  -0.00217736  0.24886008  1
  Ti  Ti137  1  0.00561596  0.40890485  0.25355060  1
  Ti  Ti138  1  0.20224487  0.39914101  0.25330805  1
  Ti  Ti139  1  0.39762528  0.80154449  0.24106632  1
  Ti  Ti140  1  0.89171116  0.90905505  0.62062840  1
  Ti  Ti141  1  0.40270587  0.40694597  0.24838381  1
  Ti  Ti142  1  0.49357824  0.91561249  0.62838032  1
  Ti  Ti143  1  0.51783396  0.11600426  0.12568703  1
  Ti  Ti144  1  0.30151605  0.71019104  0.37437306  1
  Ti  Ti145  1  0.89224862  0.10207160  0.87691699  1
  Ti  Ti146  1  0.50214903  0.29742515  0.86153917  1
  Ti  Ti147  1  0.89597736  0.50043478  0.61336286  1
  Ti  Ti148  1  0.41771677  0.00565617  0.75862911  1
  Ti  Ti149  1  0.39618655  -0.00054539  0.49345147  1
  Ti  Ti150  1  0.78661548  0.40124986  0.25575693  1
  Ti  Ti151  1  0.59866444  0.20563365  0.25401337  1
  Ti  Ti152  1  0.70384878  0.70685513  0.60751221  1
  Ti  Ti153  1  0.20241052  0.79876146  0.76250808  1
  Ti  Ti154  1  0.68253101  0.51706650  0.38474277  1
  Ti  Ti155  1  0.19654427  0.59995705  0.49288800  1
  Ti  Ti156  1  0.50326278  0.51194896  0.11908001  1
  Ti  Ti157  1  0.80234737  0.18514826  0.01026059  1
  Ti  Ti158  1  0.09779857  0.89966464  0.13298312  1
  Ti  Ti159  1  -0.00583200  0.40214861  0.49787710  1
  Mo  Mo160  1  0.80666774  0.60248128  0.49968507  1
  Mo  Mo161  1  0.69784711  0.89505848  0.37714797  1
  Mo  Mo162  1  0.88810403  0.90583022  0.87580271  1
  Mo  Mo163  1  0.59850087  -0.00160380  0.74420041  1
  Mo  Mo164  1  0.61143582  0.59880536  0.50492445  1
  Mo  Mo165  1  -0.00966481  0.20152965  0.49305717  1
  Mo  Mo166  1  0.20523953  0.39931079  -0.00244110  1
  Mo  Mo167  1  0.49760047  0.70413144  0.86766837  1
  Mo  Mo168  1  0.90785307  0.50120432  0.87795119  1
  Mo  Mo169  1  0.70685634  0.88703207  0.11771979  1
  Mo  Mo170  1  0.80026835  0.20143959  0.49036726  1
  Mo  Mo171  1  0.30404947  0.89454568  0.62246933  1
  Mo  Mo172  1  0.59956711  0.59010369  0.25116463  1
  Mo  Mo173  1  0.60045694  0.39488314  0.75635479  1
  Mo  Mo174  1  0.50167005  0.09800172  0.63362765  1
  Mo  Mo175  1  0.30743827  0.89948240  0.87871958  1
  Mo  Mo176  1  0.30378029  0.28841513  0.87793164  1
  Mo  Mo177  1  0.60849124  0.81458380  0.50744859  1
  Mo  Mo178  1  0.49116936  0.69674153  0.12442125  1
  Mo  Mo179  1  -0.00727897  0.20644944  0.74936613  1
  Mo  Mo180  1  0.09796820  0.90546404  0.86772773  1
  Mo  Mo181  1  0.50208484  0.88676852  0.12962869  1
  Mo  Mo182  1  0.80843156  0.81081411  0.50874332  1
  Mo  Mo183  1  0.68810699  0.28547643  0.14455898  1
  Mo  Mo184  1  0.20018511  0.59280430  0.75080157  1
  Mo  Mo185  1  0.49553249  0.11405118  0.37197637  1
  Mo  Mo186  1  0.29769248  0.89727160  0.35701988  1
  Mo  Mo187  1  0.40037806  0.38730987  0.50358064  1
  Mo  Mo188  1  0.39250091  0.38916263  0.76337601  1
  Mo  Mo189  1  0.10059272  0.09363868  0.62082876  1
  Mo  Mo190  1  0.89949087  0.70757970  0.37239099  1
  Mo  Mo191  1  0.19643405  0.39410133  0.50464015  1
  Mo  Mo192  1  0.50534314  0.49063613  0.37695063  1
  Mo  Mo193  1  0.71092642  0.10905836  0.87867553  1
  Mo  Mo194  1  0.58965615  0.38689680  -0.01132945  1
  Mo  Mo195  1  -0.00237476  0.80177583  0.24545295  1
  Mo  Mo196  1  0.79728346  0.00253978  0.26112045  1
  Mo  Mo197  1  0.20807859  0.60089211  0.00202363  1
  Mo  Mo198  1  0.59055598  0.59079598  -0.01633525  1
  Mo  Mo199  1  0.90254601  0.10663409  0.12444496  1
