# generated using pymatgen
data_HfZrTaTiMo
_symmetry_space_group_name_H-M   'P 1'
_cell_length_a   15.22629119
_cell_length_b   15.20158468
_cell_length_c   16.84538153
_cell_angle_alpha   89.99042477
_cell_angle_beta   90.01839155
_cell_angle_gamma   89.95125903
_symmetry_Int_Tables_number   1
_chemical_formula_structural   HfZrTaTiMo
_chemical_formula_sum   'Hf40 Zr40 Ta40 Ti40 Mo40'
_cell_volume   3899.09359562
_cell_formula_units_Z   40
loop_
 _symmetry_equiv_pos_site_id
 _symmetry_equiv_pos_as_xyz
  1  'x, y, z'
loop_
 _atom_site_type_symbol
 _atom_site_label
 _atom_site_symmetry_multiplicity
 _atom_site_fract_x
 _atom_site_fract_y
 _atom_site_fract_z
 _atom_site_occupancy
  Hf  Hf0  1  0.59818004  0.01073448  0.00720487  1
  Hf  Hf1  1  0.79506879  0.59908299  0.00241477  1
  Hf  Hf2  1  0.49873122  0.08895865  0.62379262  1
  Hf  Hf3  1  0.40889960  0.79852902  0.01524310  1
  Hf  Hf4  1  0.69395349  0.50043994  0.64022291  1
  Hf  Hf5  1  0.10155034  0.09845872  0.13557536  1
  Hf  Hf6  1  0.01409961  0.79503999  0.01036919  1
  Hf  Hf7  1  0.00930697  -0.00973689  0.74252221  1
  Hf  Hf8  1  0.59886238  0.79150374  0.74180252  1
  Hf  Hf9  1  0.20098019  0.59181615  0.75646732  1
  Hf  Hf10  1  0.11203925  0.11278993  0.62000052  1
  Hf  Hf11  1  0.29811784  0.90177376  0.14367644  1
  Hf  Hf12  1  0.79731730  0.39192647  0.23321627  1
  Hf  Hf13  1  0.00528995  0.19379214  0.76340916  1
  Hf  Hf14  1  0.30884477  0.12095429  0.61564525  1
  Hf  Hf15  1  0.40957914  0.01150601  0.47919582  1
  Hf  Hf16  1  0.90678689  0.11030781  0.62578367  1
  Hf  Hf17  1  0.59621669  -0.00658324  0.75456827  1
  Hf  Hf18  1  0.89103157  0.49662696  0.86407580  1
  Hf  Hf19  1  0.30993014  0.69906201  0.61936680  1
  Hf  Hf20  1  0.88421613  0.28707139  0.87344746  1
  Hf  Hf21  1  0.31431498  0.09236061  0.88295233  1
  Hf  Hf22  1  0.71040277  0.31131448  0.37856549  1
  Hf  Hf23  1  0.70546997  0.10870411  0.88054622  1
  Hf  Hf24  1  0.20238738  0.20419956  0.76688099  1
  Hf  Hf25  1  0.00151109  0.00249153  0.49566620  1
  Hf  Hf26  1  0.89320439  0.49392216  0.64506709  1
  Hf  Hf27  1  0.30207678  0.48144318  0.62363938  1
  Hf  Hf28  1  -0.01236338  0.59244370  0.50712160  1
  Hf  Hf29  1  0.68761844  0.71241630  0.11106707  1
  Hf  Hf30  1  0.89493659  0.48908155  0.36740789  1
  Hf  Hf31  1  0.69664923  0.11003091  0.61453477  1
  Hf  Hf32  1  0.19504906  0.80337728  0.74808385  1
  Hf  Hf33  1  0.09264332  0.89378558  0.36485106  1
  Hf  Hf34  1  0.48038641  0.29825578  0.61583650  1
  Hf  Hf35  1  0.09601931  0.49676200  0.35879142  1
  Hf  Hf36  1  0.09968811  0.07704659  0.88617586  1
  Hf  Hf37  1  0.79635971  0.39218769  0.00527581  1
  Hf  Hf38  1  0.49691365  0.50828433  0.62317010  1
  Hf  Hf39  1  0.20732499  0.80448991  0.48968570  1
  Zr  Zr40  1  -0.01382874  0.38693946  0.50790757  1
  Zr  Zr41  1  0.49634266  0.90860421  0.88446309  1
  Zr  Zr42  1  0.81120218  0.22207266  0.50339237  1
  Zr  Zr43  1  0.11345812  0.90345986  0.61149725  1
  Zr  Zr44  1  0.60683936  0.61433995  0.25120275  1
  Zr  Zr45  1  0.10513547  0.28977868  0.34886164  1
  Zr  Zr46  1  0.09989361  0.68978846  0.61822947  1
  Zr  Zr47  1  0.20027404  0.59090204  0.49315344  1
  Zr  Zr48  1  0.68702269  0.50851497  0.86528113  1
  Zr  Zr49  1  0.70674069  0.51782775  0.37025793  1
  Zr  Zr50  1  0.10015855  0.89116026  0.14637126  1
  Zr  Zr51  1  0.78869116  0.62788590  0.74796679  1
  Zr  Zr52  1  0.89177150  0.90120829  0.36631675  1
  Zr  Zr53  1  -0.01837467  -0.00736425  0.02028686  1
  Zr  Zr54  1  0.19972623  0.77663689  0.26065202  1
  Zr  Zr55  1  0.02002310  0.39203002  0.76713803  1
  Zr  Zr56  1  0.69154492  0.89863266  0.38033758  1
  Zr  Zr57  1  -0.01278477  0.79174427  0.73173724  1
  Zr  Zr58  1  0.21213089  0.19248490  0.00791637  1
  Zr  Zr59  1  0.88917112  0.70735847  0.87971051  1
  Zr  Zr60  1  0.39730381  0.82549488  0.73743213  1
  Zr  Zr61  1  0.30166320  0.70340711  0.88463450  1
  Zr  Zr62  1  0.70902004  0.91811672  0.12893024  1
  Zr  Zr63  1  0.18585219  0.59458465  0.00008006  1
  Zr  Zr64  1  0.30382190  0.49682425  0.89109851  1
  Zr  Zr65  1  0.80359745  -0.00213076  0.50673374  1
  Zr  Zr66  1  0.19252153  0.39100776  0.49003180  1
  Zr  Zr67  1  0.20539011  0.01492723  0.47805362  1
  Zr  Zr68  1  0.31244191  0.69235351  0.37641541  1
  Zr  Zr69  1  0.88128320  0.68931145  0.37764527  1
  Zr  Zr70  1  0.22652035  -0.00236102  0.74439000  1
  Zr  Zr71  1  0.60630411  0.40698789  0.49979466  1
  Zr  Zr72  1  0.49999341  0.69439707  0.87519639  1
  Zr  Zr73  1  0.60760226  0.20818279  0.25659725  1
  Zr  Zr74  1  0.60349095  0.20612195  0.74967995  1
  Zr  Zr75  1  0.01356623  0.39867223  -0.01033479  1
  Zr  Zr76  1  0.40212461  0.59982964  0.24443389  1
  Zr  Zr77  1  0.49177625  0.48573560  0.87839137  1
  Zr  Zr78  1  0.78732448  0.78252333  0.24918445  1
  Zr  Zr79  1  0.91033351  0.90100630  0.87078513  1
  Ta  Ta80  1  0.70189742  0.10237197  0.38371236  1
  Ta  Ta81  1  0.49987152  0.50044656  0.12432698  1
  Ta  Ta82  1  0.29367058  0.89908405  0.88975502  1
  Ta  Ta83  1  -0.01354918  0.79935298  0.50759555  1
  Ta  Ta84  1  -0.00145728  0.19624606  -0.00085397  1
  Ta  Ta85  1  0.39383704  0.00939733  0.02139175  1
  Ta  Ta86  1  -0.01064966  0.78505581  0.24479156  1
  Ta  Ta87  1  0.40021978  0.21178084  0.75439876  1
  Ta  Ta88  1  0.78991513  0.82066916  0.72636146  1
  Ta  Ta89  1  0.10539765  0.29668424  0.13064103  1
  Ta  Ta90  1  0.79524142  0.79358642  0.51935436  1
  Ta  Ta91  1  0.79905974  0.00643289  0.74095841  1
  Ta  Ta92  1  0.30680045  0.90288727  0.35738480  1
  Ta  Ta93  1  0.00401340  0.59922724  0.75487418  1
  Ta  Ta94  1  0.50551600  0.90297275  0.13230158  1
  Ta  Ta95  1  0.71032846  0.90163791  0.88138796  1
  Ta  Ta96  1  0.90629888  0.29480836  0.36379910  1
  Ta  Ta97  1  0.58149501  0.19815556  0.48432011  1
  Ta  Ta98  1  0.10171409  0.48898609  0.63448915  1
  Ta  Ta99  1  0.89216832  0.09302245  0.87732839  1
  Ta  Ta100  1  0.49674118  0.50379088  0.37459349  1
  Ta  Ta101  1  0.80926991  0.81903110  0.01052488  1
  Ta  Ta102  1  0.30127358  0.48865017  0.11850384  1
  Ta  Ta103  1  0.21625824  0.38931506  0.76217914  1
  Ta  Ta104  1  0.19666197  -0.01864484  0.00979056  1
  Ta  Ta105  1  0.40100135  0.01374690  0.25104294  1
  Ta  Ta106  1  0.90203124  0.28650303  0.11662347  1
  Ta  Ta107  1  0.59646252  0.00899813  0.24908717  1
  Ta  Ta108  1  0.09538018  0.70598495  0.87475029  1
  Ta  Ta109  1  0.39539784  0.38785156  0.48160562  1
  Ta  Ta110  1  0.01795830  0.19914977  0.48926980  1
  Ta  Ta111  1  0.90637566  0.49824348  0.12070157  1
  Ta  Ta112  1  0.10258301  0.49413232  0.13153762  1
  Ta  Ta113  1  0.58531569  0.60456036  0.00797318  1
  Ta  Ta114  1  0.32425683  0.29815963  0.88847551  1
  Ta  Ta115  1  0.49524849  0.11868879  0.13025667  1
  Ta  Ta116  1  -0.00166973  0.39453591  0.23583738  1
  Ta  Ta117  1  0.29774352  0.69280133  0.11830742  1
  Ta  Ta118  1  0.41370601  0.80480029  0.50159405  1
  Ta  Ta119  1  0.60148415  0.40206801  0.01041812  1
  Ti  Ti120  1  0.40489837  0.59766053  0.49457854  1
  Ti  Ti121  1  0.40688084  0.39425964  0.25011499  1
  Ti  Ti122  1  0.50094458  0.89927307  0.36897262  1
  Ti  Ti123  1  -0.00222560  0.59356563  -0.00675712  1
  Ti  Ti124  1  0.89417810  0.30179016  0.64831036  1
  Ti  Ti125  1  0.58091969  0.39549421  0.74890863  1
  Ti  Ti126  1  0.78805214  0.59343522  0.51137682  1
  Ti  Ti127  1  0.69113616  0.71595927  0.88944521  1
  Ti  Ti128  1  0.41069884  0.79539844  0.24571944  1
  Ti  Ti129  1  0.20190852  0.58813764  0.24323097  1
  Ti  Ti130  1  0.40609485  0.59914620  0.74681309  1
  Ti  Ti131  1  0.08412871  0.69195380  0.37742890  1
  Ti  Ti132  1  -0.01729993  -0.00136320  0.24081251  1
  Ti  Ti133  1  -0.01913976  0.19332883  0.23880274  1
  Ti  Ti134  1  0.20221020  0.38782077  0.00247379  1
  Ti  Ti135  1  0.59237406  0.80238591  0.25428451  1
  Ti  Ti136  1  0.11354392  0.29954855  0.62568267  1
  Ti  Ti137  1  0.89883197  0.69625401  0.12142848  1
  Ti  Ti138  1  0.41097867  0.20634754  0.27001081  1
  Ti  Ti139  1  0.68958583  0.30650190  0.87549172  1
  Ti  Ti140  1  0.09616913  0.09867696  0.35210164  1
  Ti  Ti141  1  0.59578726  0.21390288  0.00579582  1
  Ti  Ti142  1  0.67939203  0.91067413  0.61154605  1
  Ti  Ti143  1  0.32246068  0.28308317  0.12889058  1
  Ti  Ti144  1  0.59343172  0.40578801  0.24710919  1
  Ti  Ti145  1  0.69960323  0.28549244  0.12303945  1
  Ti  Ti146  1  0.30139291  0.49038491  0.36634241  1
  Ti  Ti147  1  0.22313946  0.18800167  0.24405810  1
  Ti  Ti148  1  0.09951191  0.68704731  0.12795601  1
  Ti  Ti149  1  0.68042294  0.69850900  0.61497791  1
  Ti  Ti150  1  0.21322794  0.39213029  0.23878266  1
  Ti  Ti151  1  0.49924761  0.11633357  0.88085754  1
  Ti  Ti152  1  0.41208772  0.38257427  0.01495002  1
  Ti  Ti153  1  0.69865023  0.50375854  0.12717685  1
  Ti  Ti154  1  0.58904320  0.61805903  0.49109082  1
  Ti  Ti155  1  0.21811382  0.20902739  0.47892824  1
  Ti  Ti156  1  0.70558243  0.30814263  0.62807154  1
  Ti  Ti157  1  0.89950434  0.10839287  0.37427102  1
  Ti  Ti158  1  0.79505936  0.02595388  0.24800360  1
  Ti  Ti159  1  -0.00681491  0.59794852  0.24304018  1
  Mo  Mo160  1  0.28896397  0.29651017  0.62144485  1
  Mo  Mo161  1  0.50657713  0.30910628  0.13238481  1
  Mo  Mo162  1  0.59797177  0.00251329  0.49164340  1
  Mo  Mo163  1  0.89539177  0.89403393  0.14280934  1
  Mo  Mo164  1  0.88399613  0.09944781  0.12473851  1
  Mo  Mo165  1  0.41500469  0.19580473  0.00744699  1
  Mo  Mo166  1  0.19796711  0.00178561  0.26354341  1
  Mo  Mo167  1  0.68963177  0.71017971  0.39981550  1
  Mo  Mo168  1  0.49790082  0.70823198  0.12556959  1
  Mo  Mo169  1  0.20180213  0.79710953  0.00862961  1
  Mo  Mo170  1  0.50911930  0.09750155  0.36480092  1
  Mo  Mo171  1  0.49753834  0.69565926  0.62175669  1
  Mo  Mo172  1  0.79790185  0.19384012  0.00360255  1
  Mo  Mo173  1  0.80355664  0.19897958  0.25324650  1
  Mo  Mo174  1  0.50461622  0.70972614  0.37804698  1
  Mo  Mo175  1  0.11273511  0.29148808  0.89068281  1
  Mo  Mo176  1  0.11104014  0.88816268  0.88075879  1
  Mo  Mo177  1  0.40112615  0.59153513  0.01941971  1
  Mo  Mo178  1  0.39769482  0.20701759  0.47696246  1
  Mo  Mo179  1  0.78223081  0.38647851  0.75606886  1
  Mo  Mo180  1  0.49548656  0.90161185  0.61787415  1
  Mo  Mo181  1  0.40548958  0.01771704  0.75528869  1
  Mo  Mo182  1  0.81005632  0.59215147  0.22223190  1
  Mo  Mo183  1  0.50670092  0.29840623  0.88074453  1
  Mo  Mo184  1  0.30470024  0.30563870  0.35485648  1
  Mo  Mo185  1  0.69713285  0.11161656  0.12111990  1
  Mo  Mo186  1  0.10127958  0.50232608  0.87064577  1
  Mo  Mo187  1  0.31978410  0.91344315  0.61252782  1
  Mo  Mo188  1  0.89403251  0.90427960  0.62295917  1
  Mo  Mo189  1  0.88774954  0.69543990  0.61958176  1
  Mo  Mo190  1  0.58978764  0.60582648  0.74766901  1
  Mo  Mo191  1  0.30429934  0.09734064  0.13559869  1
  Mo  Mo192  1  0.79894912  0.00557240  0.00066150  1
  Mo  Mo193  1  0.79855455  0.19705043  0.74461493  1
  Mo  Mo194  1  0.59418021  0.80622007  0.50659352  1
  Mo  Mo195  1  0.60679814  0.80910590  -0.00198923  1
  Mo  Mo196  1  0.50514731  0.31285395  0.37360734  1
  Mo  Mo197  1  0.39439804  0.39238680  0.75067838  1
  Mo  Mo198  1  0.29872153  0.10655756  0.36370094  1
  Mo  Mo199  1  0.80833866  0.40774163  0.50697864  1
