# generated using pymatgen
data_HfZrTaTiMo
_symmetry_space_group_name_H-M   'P 1'
_cell_length_a   15.21449693
_cell_length_b   15.20812152
_cell_length_c   16.85364609
_cell_angle_alpha   89.99120921
_cell_angle_beta   90.01292250
_cell_angle_gamma   90.00717749
_symmetry_Int_Tables_number   1
_chemical_formula_structural   HfZrTaTiMo
_chemical_formula_sum   'Hf40 Zr40 Ta40 Ti40 Mo40'
_cell_volume   3899.66249394
_cell_formula_units_Z   40
loop_
 _symmetry_equiv_pos_site_id
 _symmetry_equiv_pos_as_xyz
  1  'x, y, z'
loop_
 _atom_site_type_symbol
 _atom_site_label
 _atom_site_symmetry_multiplicity
 _atom_site_fract_x
 _atom_site_fract_y
 _atom_site_fract_z
 _atom_site_occupancy
  Hf  Hf0  1  0.29840196  0.07436160  0.61669053  1
  Hf  Hf1  1  0.70953058  0.92283660  0.39290931  1
  Hf  Hf2  1  0.20036702  0.80465915  0.76008752  1
  Hf  Hf3  1  0.08612972  0.89538902  0.37194191  1
  Hf  Hf4  1  0.28747452  0.90290887  0.37443931  1
  Hf  Hf5  1  0.00932404  0.21098277  0.75600205  1
  Hf  Hf6  1  0.90532522  0.68554370  0.62883003  1
  Hf  Hf7  1  0.09338776  0.09649393  0.37573609  1
  Hf  Hf8  1  0.19426188  -0.01189435  -0.00100482  1
  Hf  Hf9  1  0.90498276  0.70539296  0.12411638  1
  Hf  Hf10  1  0.90853811  0.71286690  0.36823226  1
  Hf  Hf11  1  0.41829240  0.39659336  0.75518692  1
  Hf  Hf12  1  0.79055375  -0.00245232  0.76949441  1
  Hf  Hf13  1  0.50083547  0.90462981  0.38746245  1
  Hf  Hf14  1  0.41383165  -0.00047405  0.24226133  1
  Hf  Hf15  1  0.79309343  0.39899925  0.25331103  1
  Hf  Hf16  1  0.59385227  0.19026502  0.24407876  1
  Hf  Hf17  1  0.39121446  0.78303273  0.25891213  1
  Hf  Hf18  1  -0.01932442  -0.00014081  0.23734160  1
  Hf  Hf19  1  0.68984336  0.49616201  0.12096791  1
  Hf  Hf20  1  0.49127029  0.29665209  0.11563550  1
  Hf  Hf21  1  0.19979070  0.59668323  0.74713458  1
  Hf  Hf22  1  0.20988525  0.18942806  0.76581220  1
  Hf  Hf23  1  0.30861328  0.10669190  0.12152886  1
  Hf  Hf24  1  0.59497323  0.59172158  0.25557477  1
  Hf  Hf25  1  0.68700057  0.29690078  0.37165101  1
  Hf  Hf26  1  0.80455609  0.19115404  -0.00958689  1
  Hf  Hf27  1  0.39211738  0.61004199  -0.01914655  1
  Hf  Hf28  1  0.30790541  0.69883821  0.63076020  1
  Hf  Hf29  1  0.89929043  0.28613214  0.37135024  1
  Hf  Hf30  1  0.11330989  0.90652728  0.62487496  1
  Hf  Hf31  1  0.29933518  0.31021640  0.12401235  1
  Hf  Hf32  1  0.19356046  0.21120436  0.25596933  1
  Hf  Hf33  1  0.09413930  0.11016346  0.11871832  1
  Hf  Hf34  1  0.00154882  0.59508808  0.48569149  1
  Hf  Hf35  1  0.30542791  0.88890121  0.12288812  1
  Hf  Hf36  1  0.69381325  0.90725629  0.62126160  1
  Hf  Hf37  1  0.90797443  0.89448315  0.64244857  1
  Hf  Hf38  1  0.61810978  -0.00330700  0.24018962  1
  Hf  Hf39  1  0.29644631  0.51241313  0.11020877  1
  Zr  Zr40  1  0.79222297  0.21690032  0.75137448  1
  Zr  Zr41  1  0.01674255  0.59787931  0.00687424  1
  Zr  Zr42  1  0.79457997  0.79469423  0.75458886  1
  Zr  Zr43  1  -0.01400980  0.00557757  -0.00020954  1
  Zr  Zr44  1  -0.01624140  -0.00497216  0.50115333  1
  Zr  Zr45  1  0.21026788  0.78081567  -0.01049329  1
  Zr  Zr46  1  0.17996575  0.40285050  -0.01124427  1
  Zr  Zr47  1  0.89816236  0.09802112  0.63877960  1
  Zr  Zr48  1  0.80367725  0.59776579  0.25757115  1
  Zr  Zr49  1  0.40350885  0.81902183  0.75114298  1
  Zr  Zr50  1  0.79546272  0.39685327  0.01044881  1
  Zr  Zr51  1  0.19514989  0.21000036  0.49382731  1
  Zr  Zr52  1  0.48615255  0.91928201  0.61408608  1
  Zr  Zr53  1  0.51044853  0.48555636  0.39020553  1
  Zr  Zr54  1  0.79247313  0.19578962  0.50702834  1
  Zr  Zr55  1  0.01089274  0.39719442  0.26587206  1
  Zr  Zr56  1  0.69453408  0.69713247  0.38567136  1
  Zr  Zr57  1  0.79489860  0.58213245  0.75009323  1
  Zr  Zr58  1  0.48959361  0.11771589  0.63008108  1
  Zr  Zr59  1  0.48347234  0.69305310  0.12326537  1
  Zr  Zr60  1  0.90452268  0.28953495  0.12956155  1
  Zr  Zr61  1  0.68544248  0.10382826  0.63688355  1
  Zr  Zr62  1  0.30711196  0.09950926  0.37209553  1
  Zr  Zr63  1  0.01400841  0.59918451  0.25558037  1
  Zr  Zr64  1  0.51119753  0.51973917  0.62187294  1
  Zr  Zr65  1  0.29509364  0.50229054  0.86729921  1
  Zr  Zr66  1  0.10060699  0.10374236  0.62412757  1
  Zr  Zr67  1  0.59449607  0.80317756  0.24831278  1
  Zr  Zr68  1  0.40655846  0.38984569  0.51662390  1
  Zr  Zr69  1  0.90491337  0.31592051  0.87388954  1
  Zr  Zr70  1  0.90705225  0.70200990  0.87512964  1
  Zr  Zr71  1  0.81141975  0.80306249  0.50294106  1
  Zr  Zr72  1  0.70478283  0.70385307  0.12534801  1
  Zr  Zr73  1  0.30802833  0.28516301  0.63634718  1
  Zr  Zr74  1  0.89315940  0.50577572  0.88429062  1
  Zr  Zr75  1  0.69160002  0.68424058  0.61558757  1
  Zr  Zr76  1  0.38662747  0.79653269  0.50184650  1
  Zr  Zr77  1  0.09546885  0.49942442  0.62113041  1
  Zr  Zr78  1  0.59971700  0.80485975  0.00874384  1
  Zr  Zr79  1  0.21483683  0.20385681  -0.02003448  1
  Ta  Ta80  1  0.79436903  0.17803550  0.24622689  1
  Ta  Ta81  1  0.57374247  0.00044988  0.76765708  1
  Ta  Ta82  1  0.08333658  0.49502152  0.86181159  1
  Ta  Ta83  1  0.69751739  0.69288041  0.88140024  1
  Ta  Ta84  1  0.01002632  0.21631321  -0.01131415  1
  Ta  Ta85  1  0.00426859  0.39136039  0.48639031  1
  Ta  Ta86  1  0.21616476  0.41651903  0.25609289  1
  Ta  Ta87  1  0.00416283  0.80708850  0.23308159  1
  Ta  Ta88  1  0.21510221  0.60790951  0.25577021  1
  Ta  Ta89  1  0.80453774  0.40328460  0.48759197  1
  Ta  Ta90  1  0.40058342  0.39122605  -0.02364157  1
  Ta  Ta91  1  0.21098017  -0.00475757  0.76838354  1
  Ta  Ta92  1  0.58990737  0.79409965  0.50640238  1
  Ta  Ta93  1  0.40407503  0.19812036  0.49368742  1
  Ta  Ta94  1  0.30284085  0.49705411  0.62967725  1
  Ta  Ta95  1  0.30330935  0.31670698  0.37330183  1
  Ta  Ta96  1  0.48340767  0.68238271  0.38850997  1
  Ta  Ta97  1  0.58593346  0.39532825  0.24438396  1
  Ta  Ta98  1  0.09646964  0.70407051  0.63126209  1
  Ta  Ta99  1  0.80209651  0.82620443  0.25029864  1
  Ta  Ta100  1  0.09863782  0.69562243  0.86700399  1
  Ta  Ta101  1  0.59295359  0.59502256  -0.00728583  1
  Ta  Ta102  1  0.18929385  -0.00508181  0.23469755  1
  Ta  Ta103  1  -0.00492827  0.19233550  0.25430532  1
  Ta  Ta104  1  0.50721725  0.09862982  0.10635409  1
  Ta  Ta105  1  0.69127953  0.28776809  0.12558544  1
  Ta  Ta106  1  0.79041323  -0.00716751  -0.02244749  1
  Ta  Ta107  1  0.59428374  0.79659568  0.74547536  1
  Ta  Ta108  1  0.39791144  0.57714809  0.25374054  1
  Ta  Ta109  1  0.19520045  0.79873628  0.24530003  1
  Ta  Ta110  1  0.71197442  0.08924867  0.10940854  1
  Ta  Ta111  1  0.12055584  0.69646233  0.12519306  1
  Ta  Ta112  1  0.00830378  0.79395770  0.50298476  1
  Ta  Ta113  1  0.19087861  0.38802436  0.75230106  1
  Ta  Ta114  1  0.40930480  0.19132093  0.78340962  1
  Ta  Ta115  1  0.69053155  0.49412936  0.87961218  1
  Ta  Ta116  1  0.80566270  0.80720756  -0.00826131  1
  Ta  Ta117  1  0.31100478  0.51225183  0.39088092  1
  Ta  Ta118  1  0.87791012  0.08062384  0.37691630  1
  Ta  Ta119  1  0.90623158  0.49738118  0.12305854  1
  Ti  Ti120  1  0.11871468  0.49605876  0.38083158  1
  Ti  Ti121  1  0.19460942  0.80041086  0.50313766  1
  Ti  Ti122  1  0.40816301  0.80835352  -0.00447685  1
  Ti  Ti123  1  0.20302845  0.40290397  0.50330589  1
  Ti  Ti124  1  0.90406123  0.10231229  0.86602555  1
  Ti  Ti125  1  0.61560307  0.40295191  0.74433672  1
  Ti  Ti126  1  -0.01228368  0.41029839  0.74113076  1
  Ti  Ti127  1  0.68665496  0.10346894  0.87318739  1
  Ti  Ti128  1  0.10414262  0.49749920  0.13096133  1
  Ti  Ti129  1  0.01259784  0.81074578  0.00977550  1
  Ti  Ti130  1  0.09962462  0.30825235  0.12814799  1
  Ti  Ti131  1  0.69864201  0.30902306  0.87470624  1
  Ti  Ti132  1  0.59112707  0.21451687  0.76053432  1
  Ti  Ti133  1  0.01608872  -0.00694577  0.76182403  1
  Ti  Ti134  1  0.89874409  0.49462922  0.61355468  1
  Ti  Ti135  1  0.40921128  0.61082444  0.76013215  1
  Ti  Ti136  1  0.87978740  0.91186443  0.11531341  1
  Ti  Ti137  1  0.59854086  0.20303799  -0.00820105  1
  Ti  Ti138  1  0.71207563  0.49321606  0.61293313  1
  Ti  Ti139  1  0.50385117  0.71239603  0.87483677  1
  Ti  Ti140  1  0.68385405  0.88857124  0.87216850  1
  Ti  Ti141  1  -0.00587290  0.20307113  0.49887583  1
  Ti  Ti142  1  0.49268091  0.29375551  0.37208518  1
  Ti  Ti143  1  0.48906956  0.48997355  0.11780123  1
  Ti  Ti144  1  0.09390516  0.30449067  0.62250529  1
  Ti  Ti145  1  0.61013738  0.39259149  0.51109586  1
  Ti  Ti146  1  0.59314183  0.20669605  0.50486871  1
  Ti  Ti147  1  0.59514455  0.60189547  0.76140024  1
  Ti  Ti148  1  0.31015347  0.90155574  0.88273493  1
  Ti  Ti149  1  0.79502788  0.60373969  0.00503818  1
  Ti  Ti150  1  0.40644358  0.00355840  -0.00401326  1
  Ti  Ti151  1  0.40040411  0.20834314  0.25198520  1
  Ti  Ti152  1  0.09774204  0.09386712  0.88046026  1
  Ti  Ti153  1  0.11633605  0.70202663  0.37507575  1
  Ti  Ti154  1  0.20887445  0.60667271  0.50534557  1
  Ti  Ti155  1  0.59872187  -0.00575050  -0.00344974  1
  Ti  Ti156  1  0.59179953  0.39886892  -0.00534170  1
  Ti  Ti157  1  0.91553145  0.89535969  0.86968112  1
  Ti  Ti158  1  0.51508732  0.09841017  0.38378359  1
  Ti  Ti159  1  0.89574040  0.30991529  0.62057906  1
  Mo  Mo160  1  0.69346283  0.10784421  0.38039810  1
  Mo  Mo161  1  0.50085713  0.90262603  0.87940190  1
  Mo  Mo162  1  0.79710869  0.00315979  0.51090675  1
  Mo  Mo163  1  0.39815607  0.59823223  0.51014797  1
  Mo  Mo164  1  0.69819361  0.31026456  0.62222571  1
  Mo  Mo165  1  0.30473172  0.09014752  0.88691174  1
  Mo  Mo166  1  0.09591100  0.89428787  0.12485859  1
  Mo  Mo167  1  0.00730269  0.79844666  0.75133715  1
  Mo  Mo168  1  0.38918398  0.00964462  0.76492702  1
  Mo  Mo169  1  0.51379173  0.29801094  0.63409025  1
  Mo  Mo170  1  0.30185951  0.69345906  0.12620504  1
  Mo  Mo171  1  0.90129270  0.89826884  0.37093846  1
  Mo  Mo172  1  0.79615687  0.00365344  0.24349532  1
  Mo  Mo173  1  0.70146165  0.49308134  0.38161376  1
  Mo  Mo174  1  0.79631973  0.40229423  0.74187349  1
  Mo  Mo175  1  0.80498766  0.58677472  0.48877592  1
  Mo  Mo176  1  0.09398550  0.89694073  0.87560644  1
  Mo  Mo177  1  0.51096407  0.50669313  0.87059182  1
  Mo  Mo178  1  0.29081199  0.90069613  0.62127250  1
  Mo  Mo179  1  0.19444297  0.60110426  -0.01224879  1
  Mo  Mo180  1  0.00199051  0.39979155  0.01077123  1
  Mo  Mo181  1  0.59767120  0.01455550  0.50068484  1
  Mo  Mo182  1  0.51842682  0.30772148  0.87754287  1
  Mo  Mo183  1  0.30507927  0.30259418  0.86390204  1
  Mo  Mo184  1  0.70507026  0.90220290  0.11234929  1
  Mo  Mo185  1  0.29120568  0.69431621  0.38162249  1
  Mo  Mo186  1  0.89509396  0.10461463  0.11520696  1
  Mo  Mo187  1  0.50620585  0.10070867  0.89522044  1
  Mo  Mo188  1  0.49567950  0.91149342  0.12119797  1
  Mo  Mo189  1  0.40102969  0.39972332  0.25094084  1
  Mo  Mo190  1  0.19879808  -0.01019465  0.49213893  1
  Mo  Mo191  1  0.60326765  0.59737086  0.49587817  1
  Mo  Mo192  1  0.40860196  0.20207190  -0.01437305  1
  Mo  Mo193  1  0.39768239  0.00844117  0.48748910  1
  Mo  Mo194  1  0.09802331  0.30504726  0.86536055  1
  Mo  Mo195  1  0.00356148  0.59918383  0.74733044  1
  Mo  Mo196  1  0.30734008  0.70211162  0.86217729  1
  Mo  Mo197  1  0.10700197  0.30241118  0.37899999  1
  Mo  Mo198  1  0.90022889  0.49895352  0.38106602  1
  Mo  Mo199  1  0.50511722  0.70614395  0.62961248  1
