# generated using pymatgen
data_HfZrTaTiMo
_symmetry_space_group_name_H-M   'P 1'
_cell_length_a   15.21219648
_cell_length_b   15.20950072
_cell_length_c   16.84279151
_cell_angle_alpha   89.97453050
_cell_angle_beta   89.97252407
_cell_angle_gamma   90.00845283
_symmetry_Int_Tables_number   1
_chemical_formula_structural   HfZrTaTiMo
_chemical_formula_sum   'Hf40 Zr40 Ta40 Ti40 Mo40'
_cell_volume   3896.91433608
_cell_formula_units_Z   40
loop_
 _symmetry_equiv_pos_site_id
 _symmetry_equiv_pos_as_xyz
  1  'x, y, z'
loop_
 _atom_site_type_symbol
 _atom_site_label
 _atom_site_symmetry_multiplicity
 _atom_site_fract_x
 _atom_site_fract_y
 _atom_site_fract_z
 _atom_site_occupancy
  Hf  Hf0  1  0.09621082  0.30226517  0.88470903  1
  Hf  Hf1  1  0.29422340  0.89403373  0.88063776  1
  Hf  Hf2  1  0.39895307  0.79952783  0.49953344  1
  Hf  Hf3  1  0.59864031  0.38758810  0.50408218  1
  Hf  Hf4  1  0.89844560  0.09822834  0.60430773  1
  Hf  Hf5  1  0.89579465  0.48945810  0.62464849  1
  Hf  Hf6  1  0.70243020  0.71119691  0.62984622  1
  Hf  Hf7  1  0.39121398  0.40105820  0.73763601  1
  Hf  Hf8  1  0.90943949  0.08889483  0.38577875  1
  Hf  Hf9  1  0.50457455  0.28263949  0.13861461  1
  Hf  Hf10  1  0.69177923  0.50108270  0.88673465  1
  Hf  Hf11  1  0.71381383  0.30035679  0.62931509  1
  Hf  Hf12  1  0.10648232  0.50313601  0.88517302  1
  Hf  Hf13  1  0.08914158  0.50229870  0.36916222  1
  Hf  Hf14  1  0.69636200  0.29110037  0.36658045  1
  Hf  Hf15  1  0.79398707  0.60348898  0.50441186  1
  Hf  Hf16  1  0.30456733  0.30252749  0.87541152  1
  Hf  Hf17  1  0.89049619  0.91293441  0.87362056  1
  Hf  Hf18  1  -0.00980504  0.01137186  0.74713648  1
  Hf  Hf19  1  0.39138594  -0.01477954  0.25214259  1
  Hf  Hf20  1  0.68943220  0.50092984  0.37755727  1
  Hf  Hf21  1  0.89271783  0.70831859  0.87871094  1
  Hf  Hf22  1  0.31040555  0.09700336  0.85894668  1
  Hf  Hf23  1  0.30165037  0.50418079  0.37813411  1
  Hf  Hf24  1  0.89912362  0.50393248  0.37341768  1
  Hf  Hf25  1  -0.00479232  0.01224390  0.02181191  1
  Hf  Hf26  1  0.59935137  -0.00674581  0.25171844  1
  Hf  Hf27  1  0.69868560  0.30378418  0.12798123  1
  Hf  Hf28  1  0.29414947  0.89428581  0.62860481  1
  Hf  Hf29  1  0.90166669  0.30388307  0.89380954  1
  Hf  Hf30  1  0.39937012  0.01904943  0.00613407  1
  Hf  Hf31  1  0.40581362  0.40110842  0.25144835  1
  Hf  Hf32  1  0.30459134  0.69619879  0.62540929  1
  Hf  Hf33  1  0.30249734  0.29933667  0.12456591  1
  Hf  Hf34  1  0.49819478  0.89166576  0.11631217  1
  Hf  Hf35  1  0.59969045  -0.00835807  0.49387753  1
  Hf  Hf36  1  0.09446197  0.10245216  0.87435880  1
  Hf  Hf37  1  0.50810074  0.10456236  0.36565574  1
  Hf  Hf38  1  0.19718051  -0.00713261  0.49502370  1
  Hf  Hf39  1  0.80055648  0.61084654  0.74997766  1
  Zr  Zr40  1  0.20578734  0.59289275  0.75157849  1
  Zr  Zr41  1  0.00348394  0.59618228  0.75176341  1
  Zr  Zr42  1  0.50791349  0.31154718  0.85514976  1
  Zr  Zr43  1  0.09483435  0.11066958  0.61405389  1
  Zr  Zr44  1  0.19940291  0.40208582  0.24826778  1
  Zr  Zr45  1  -0.00707157  0.61319839  0.50516494  1
  Zr  Zr46  1  0.79348655  0.60303141  0.24565496  1
  Zr  Zr47  1  0.20940453  0.18720720  0.00361227  1
  Zr  Zr48  1  0.00427270  0.20527203  0.23385749  1
  Zr  Zr49  1  0.79691017  0.80194506  0.49321278  1
  Zr  Zr50  1  0.50394189  0.69373001  0.88722078  1
  Zr  Zr51  1  0.19978363  0.21590053  0.73736234  1
  Zr  Zr52  1  0.59618993  0.19604600  -0.01126490  1
  Zr  Zr53  1  0.80154795  0.39622254  0.24849325  1
  Zr  Zr54  1  0.28804750  0.90396523  0.11716934  1
  Zr  Zr55  1  0.88960342  0.50479257  0.10511261  1
  Zr  Zr56  1  0.19812004  0.60858307  0.49217817  1
  Zr  Zr57  1  0.39050435  0.38047997  0.50291615  1
  Zr  Zr58  1  0.50297885  0.68732401  0.36493417  1
  Zr  Zr59  1  -0.00172357  0.81772902  0.02014047  1
  Zr  Zr60  1  0.80886602  -0.00871985  0.25102131  1
  Zr  Zr61  1  0.09913328  0.71193056  0.62465865  1
  Zr  Zr62  1  0.33040860  0.10128516  0.63335711  1
  Zr  Zr63  1  0.82440339  0.20338436  0.74779027  1
  Zr  Zr64  1  0.21251041  0.40950359  0.00921637  1
  Zr  Zr65  1  0.49275420  0.89826849  0.88525607  1
  Zr  Zr66  1  0.01126536  0.62326140  0.00190600  1
  Zr  Zr67  1  0.10141217  0.51443671  0.12450017  1
  Zr  Zr68  1  0.92078563  0.29714798  0.38068750  1
  Zr  Zr69  1  0.59577005  0.59314419  0.74994987  1
  Zr  Zr70  1  0.19700442  -0.00676559  0.74610345  1
  Zr  Zr71  1  0.49896280  0.49445468  0.62147414  1
  Zr  Zr72  1  0.21508144  0.21557758  0.50215172  1
  Zr  Zr73  1  0.89763878  0.49566599  0.89266148  1
  Zr  Zr74  1  0.79526065  0.18701770  0.00430274  1
  Zr  Zr75  1  0.88702808  0.88996305  0.63157054  1
  Zr  Zr76  1  0.30697771  0.10142444  0.37781509  1
  Zr  Zr77  1  0.61153457  0.00172818  -0.00300878  1
  Zr  Zr78  1  0.90311636  0.71528388  0.35672737  1
  Zr  Zr79  1  0.78929851  0.79729904  0.00520907  1
  Ta  Ta80  1  0.59451886  0.60609588  0.50890754  1
  Ta  Ta81  1  0.30072242  0.69395583  0.87787903  1
  Ta  Ta82  1  0.09532960  0.48911494  0.61873554  1
  Ta  Ta83  1  0.00149366  0.81549614  0.49290795  1
  Ta  Ta84  1  0.59457692  0.79938553  0.74815638  1
  Ta  Ta85  1  0.60255059  0.19347131  0.50376961  1
  Ta  Ta86  1  -0.00538739  0.79866480  0.75373420  1
  Ta  Ta87  1  0.08367851  0.91166498  0.36637166  1
  Ta  Ta88  1  0.59385693  0.79703507  0.50148201  1
  Ta  Ta89  1  0.89834996  0.10461642  0.88097236  1
  Ta  Ta90  1  0.69050099  0.49805834  0.11116271  1
  Ta  Ta91  1  0.69870593  0.09610743  0.62024163  1
  Ta  Ta92  1  0.49803372  0.69323286  0.12448521  1
  Ta  Ta93  1  0.09036428  0.89538754  0.87563386  1
  Ta  Ta94  1  0.40072339  0.79569898  0.75067417  1
  Ta  Ta95  1  0.49181991  0.88666036  0.36983974  1
  Ta  Ta96  1  0.00105490  0.40430958  0.23416917  1
  Ta  Ta97  1  0.61848061  0.18543210  0.75458878  1
  Ta  Ta98  1  0.20036874  0.81492099  0.25629979  1
  Ta  Ta99  1  0.68803407  0.10178053  0.13678533  1
  Ta  Ta100  1  0.00292378  0.00615507  0.23305612  1
  Ta  Ta101  1  0.40206209  0.60223125  0.74883851  1
  Ta  Ta102  1  0.80353216  0.39626714  0.49713066  1
  Ta  Ta103  1  0.69493207  0.88810236  0.86982595  1
  Ta  Ta104  1  0.30509672  0.71054535  0.36066935  1
  Ta  Ta105  1  0.39680439  0.59497323  0.23890934  1
  Ta  Ta106  1  0.50659678  0.27714273  0.64201632  1
  Ta  Ta107  1  0.40395473  0.60134986  0.50132694  1
  Ta  Ta108  1  0.20504074  0.20633773  0.25876008  1
  Ta  Ta109  1  0.09586912  0.11385235  0.37995941  1
  Ta  Ta110  1  0.59903693  0.79019927  0.24602467  1
  Ta  Ta111  1  0.50044131  0.49386270  0.38074635  1
  Ta  Ta112  1  0.18689459  0.79275177  0.00196973  1
  Ta  Ta113  1  0.21573748  0.61278845  0.00506769  1
  Ta  Ta114  1  0.40554923  0.57715741  0.01452138  1
  Ta  Ta115  1  0.69381232  0.69550962  0.12626744  1
  Ta  Ta116  1  0.29606850  0.70223206  0.13462788  1
  Ta  Ta117  1  0.57757101  0.40452475  0.00108163  1
  Ta  Ta118  1  0.70002576  0.89246692  0.13005214  1
  Ta  Ta119  1  -0.00068095  0.38282371  0.74711683  1
  Ti  Ti120  1  0.80111395  -0.00148730  0.01118050  1
  Ti  Ti121  1  0.19688693  0.60973355  0.24801932  1
  Ti  Ti122  1  -0.00347408  0.81536655  0.23533295  1
  Ti  Ti123  1  0.59384535  -0.00448426  0.75110268  1
  Ti  Ti124  1  0.18859897  -0.00658466  -0.00041786  1
  Ti  Ti125  1  0.31761072  0.10817973  0.13992866  1
  Ti  Ti126  1  0.19376379  0.40431761  0.74438618  1
  Ti  Ti127  1  0.09008856  0.90248615  0.62413409  1
  Ti  Ti128  1  0.49971379  0.29465189  0.36389442  1
  Ti  Ti129  1  0.69052362  0.90565955  0.63042900  1
  Ti  Ti130  1  0.19306917  0.79224209  0.76034202  1
  Ti  Ti131  1  0.80588753  0.19137181  0.24441565  1
  Ti  Ti132  1  0.69840352  0.49487873  0.62650495  1
  Ti  Ti133  1  0.28995262  0.49508592  0.61330386  1
  Ti  Ti134  1  0.09620434  0.70978185  0.35895813  1
  Ti  Ti135  1  0.00480927  0.20181619  0.01989497  1
  Ti  Ti136  1  0.78340001  0.00651295  0.75319635  1
  Ti  Ti137  1  0.79677516  0.20156035  0.49640042  1
  Ti  Ti138  1  0.89730503  0.70574203  0.13511412  1
  Ti  Ti139  1  0.18702446  0.39664925  0.49338883  1
  Ti  Ti140  1  0.92518204  0.29515347  0.60685032  1
  Ti  Ti141  1  0.19599580  0.80359138  0.48092855  1
  Ti  Ti142  1  0.79771136  -0.00996339  0.49100647  1
  Ti  Ti143  1  0.40505623  -0.00533237  0.49452042  1
  Ti  Ti144  1  0.38865924  0.78149111  0.00440159  1
  Ti  Ti145  1  0.41907197  0.19493199  0.50487085  1
  Ti  Ti146  1  0.49517768  0.90159089  0.62835211  1
  Ti  Ti147  1  0.60289745  0.60756481  0.00356544  1
  Ti  Ti148  1  0.50247484  0.10070897  0.85963327  1
  Ti  Ti149  1  0.11996854  0.10457407  0.12939947  1
  Ti  Ti150  1  0.70098992  0.88685618  0.36724825  1
  Ti  Ti151  1  0.70457027  0.30078710  0.87351639  1
  Ti  Ti152  1  0.19355911  0.00722213  0.25845825  1
  Ti  Ti153  1  0.69369928  0.69869806  0.37076432  1
  Ti  Ti154  1  0.59129739  0.57939077  0.23945205  1
  Ti  Ti155  1  0.31985435  0.49947905  0.87889776  1
  Ti  Ti156  1  0.89951394  0.30730697  0.11077174  1
  Ti  Ti157  1  0.40917644  0.20853420  -0.00265668  1
  Ti  Ti158  1  0.79707162  0.40529846  0.75689661  1
  Ti  Ti159  1  0.70442059  0.09821718  0.37321939  1
  Mo  Mo160  1  0.00412962  0.39442755  0.01550373  1
  Mo  Mo161  1  0.10575495  0.71284455  0.14319446  1
  Mo  Mo162  1  0.41235018  -0.01530733  0.75030522  1
  Mo  Mo163  1  0.10046101  0.31277575  0.62196770  1
  Mo  Mo164  1  0.39909696  0.79367468  0.24493713  1
  Mo  Mo165  1  0.90404027  0.90005895  0.37026554  1
  Mo  Mo166  1  0.00180954  0.40392699  0.49972357  1
  Mo  Mo167  1  0.88930894  0.10708295  0.12711591  1
  Mo  Mo168  1  0.89320091  0.90216303  0.12871395  1
  Mo  Mo169  1  0.00799188  0.20525467  0.49399800  1
  Mo  Mo170  1  0.69583904  0.70519415  0.87400244  1
  Mo  Mo171  1  0.61066974  0.39169533  0.74682079  1
  Mo  Mo172  1  0.30438922  0.30747778  0.62827718  1
  Mo  Mo173  1  0.10781184  0.71172114  0.87460205  1
  Mo  Mo174  1  0.49219402  0.49975162  0.87361008  1
  Mo  Mo175  1  0.50556296  0.49318630  0.12784121  1
  Mo  Mo176  1  0.30587220  0.50938679  0.13024883  1
  Mo  Mo177  1  0.78893669  0.79995661  0.24399833  1
  Mo  Mo178  1  0.49850694  0.70726433  0.62629080  1
  Mo  Mo179  1  0.51949958  0.08777757  0.62817797  1
  Mo  Mo180  1  0.90322831  0.70383246  0.63133352  1
  Mo  Mo181  1  0.79203059  0.60526717  0.00543943  1
  Mo  Mo182  1  0.59935341  0.40338770  0.25414269  1
  Mo  Mo183  1  0.29409300  0.89597101  0.37635935  1
  Mo  Mo184  1  0.00006692  0.20452284  0.75152941  1
  Mo  Mo185  1  0.49705484  0.09670190  0.13584368  1
  Mo  Mo186  1  0.10483226  0.91093415  0.13762659  1
  Mo  Mo187  1  0.79018547  0.80902588  0.75533047  1
  Mo  Mo188  1  0.00150680  -0.00631501  0.49884859  1
  Mo  Mo189  1  0.30560564  0.29829610  0.36904121  1
  Mo  Mo190  1  0.00641762  0.60811053  0.24187732  1
  Mo  Mo191  1  0.40488831  0.39411530  0.00280284  1
  Mo  Mo192  1  0.60911440  0.19597188  0.25366822  1
  Mo  Mo193  1  0.78213959  0.39571519  -0.00012321  1
  Mo  Mo194  1  0.70703792  0.08758707  0.86727158  1
  Mo  Mo195  1  0.09769372  0.30098224  0.11878541  1
  Mo  Mo196  1  0.41198227  0.19302489  0.74732837  1
  Mo  Mo197  1  0.39656593  0.19733685  0.25460983  1
  Mo  Mo198  1  0.10801489  0.30423183  0.37152583  1
  Mo  Mo199  1  0.59625042  0.79499195  0.00992629  1
