# generated using pymatgen
data_HfZrTaTiMo
_symmetry_space_group_name_H-M   'P 1'
_cell_length_a   15.21149999
_cell_length_b   15.20994665
_cell_length_c   16.85801435
_cell_angle_alpha   90.02321621
_cell_angle_beta   89.99789579
_cell_angle_gamma   90.06574796
_symmetry_Int_Tables_number   1
_chemical_formula_structural   HfZrTaTiMo
_chemical_formula_sum   'Hf40 Zr40 Ta40 Ti40 Mo40'
_cell_volume   3900.37019636
_cell_formula_units_Z   40
loop_
 _symmetry_equiv_pos_site_id
 _symmetry_equiv_pos_as_xyz
  1  'x, y, z'
loop_
 _atom_site_type_symbol
 _atom_site_label
 _atom_site_symmetry_multiplicity
 _atom_site_fract_x
 _atom_site_fract_y
 _atom_site_fract_z
 _atom_site_occupancy
  Hf  Hf0  1  0.09403142  0.30415275  0.60277920  1
  Hf  Hf1  1  0.30602025  0.10500594  0.37251869  1
  Hf  Hf2  1  0.91210805  0.90262674  0.89842061  1
  Hf  Hf3  1  0.29734373  0.29575928  0.88192213  1
  Hf  Hf4  1  0.29832279  0.70458255  0.38428362  1
  Hf  Hf5  1  0.10971375  0.70851487  0.86929795  1
  Hf  Hf6  1  0.39954141  0.59976308  0.23954051  1
  Hf  Hf7  1  0.39891115  0.40465508  0.74921609  1
  Hf  Hf8  1  0.39340158  0.80590056  0.24753855  1
  Hf  Hf9  1  0.09337314  0.09557044  0.87598944  1
  Hf  Hf10  1  0.30869688  0.90015474  0.11460631  1
  Hf  Hf11  1  0.20489638  0.18410213  0.50228321  1
  Hf  Hf12  1  0.91032572  0.30397735  0.13900800  1
  Hf  Hf13  1  0.29943972  0.28652849  0.11591770  1
  Hf  Hf14  1  0.49427821  0.71441241  0.11631020  1
  Hf  Hf15  1  0.38791749  0.80494146  0.74524372  1
  Hf  Hf16  1  0.70577799  0.29613973  0.62930546  1
  Hf  Hf17  1  0.30052082  0.31045451  0.38426137  1
  Hf  Hf18  1  0.51653233  0.50581019  0.10968350  1
  Hf  Hf19  1  0.28813340  0.91439090  0.61573201  1
  Hf  Hf20  1  0.00023971  0.00015153  0.26304515  1
  Hf  Hf21  1  -0.00570078  -0.00313051  0.74957611  1
  Hf  Hf22  1  0.79456048  0.60190669  0.50344794  1
  Hf  Hf23  1  0.61519538  0.21434474  0.00081127  1
  Hf  Hf24  1  0.60843320  0.00323817  0.23190704  1
  Hf  Hf25  1  0.60347320  0.40487721  0.24979502  1
  Hf  Hf26  1  0.58776946  0.59989892  0.50940184  1
  Hf  Hf27  1  0.09460349  0.50440344  0.60670881  1
  Hf  Hf28  1  0.10592296  0.08528730  0.62158336  1
  Hf  Hf29  1  0.79887870  0.18876171  0.24437866  1
  Hf  Hf30  1  0.50675125  0.90327407  0.37944000  1
  Hf  Hf31  1  0.18633792  0.61723070  0.24917220  1
  Hf  Hf32  1  0.00094933  0.58586218  0.75725883  1
  Hf  Hf33  1  0.71437194  0.09980635  0.62864736  1
  Hf  Hf34  1  0.07828712  0.50062943  0.13862131  1
  Hf  Hf35  1  0.40395566  0.61009608  -0.00799708  1
  Hf  Hf36  1  0.29591209  0.50784973  0.61799899  1
  Hf  Hf37  1  0.51346091  0.09770843  0.63208299  1
  Hf  Hf38  1  0.17704966  0.40245834  0.75147673  1
  Hf  Hf39  1  0.17913441  -0.00549246  0.00971374  1
  Zr  Zr40  1  0.02171770  -0.01296157  0.47784616  1
  Zr  Zr41  1  0.80757636  0.39917091  0.75375497  1
  Zr  Zr42  1  0.18732560  0.60200155  0.00509982  1
  Zr  Zr43  1  0.51077090  0.30244813  0.62841086  1
  Zr  Zr44  1  0.41232396  0.41470664  0.51352947  1
  Zr  Zr45  1  0.30585213  0.50690336  0.38386707  1
  Zr  Zr46  1  0.02465353  0.80052561  0.01198406  1
  Zr  Zr47  1  0.59707082  0.79706684  -0.01288988  1
  Zr  Zr48  1  0.50966821  0.09973495  0.37608304  1
  Zr  Zr49  1  0.90067982  0.49676988  0.61625952  1
  Zr  Zr50  1  0.28365081  0.50580402  0.87481078  1
  Zr  Zr51  1  0.79550319  0.79994284  0.51327930  1
  Zr  Zr52  1  0.30300589  0.90970582  0.38271032  1
  Zr  Zr53  1  0.91022715  0.08911083  0.12154892  1
  Zr  Zr54  1  0.50264986  0.69999495  0.37667342  1
  Zr  Zr55  1  -0.00646446  0.59413621  -0.00460498  1
  Zr  Zr56  1  0.17862288  0.39195903  0.00447014  1
  Zr  Zr57  1  0.00072826  0.79616154  0.74758338  1
  Zr  Zr58  1  0.00723144  0.78798697  0.24819372  1
  Zr  Zr59  1  0.39806903  0.20252510  0.24169524  1
  Zr  Zr60  1  0.80055055  0.80137930  0.74624838  1
  Zr  Zr61  1  0.91322352  0.30283993  0.87759468  1
  Zr  Zr62  1  0.39762765  0.00383036  0.75451118  1
  Zr  Zr63  1  0.80133674  0.00234256  0.75842534  1
  Zr  Zr64  1  0.10180634  0.49917406  0.38147010  1
  Zr  Zr65  1  0.61306866  -0.01047860  0.50598472  1
  Zr  Zr66  1  0.20248427  0.39516915  0.24153061  1
  Zr  Zr67  1  0.17449829  0.80895168  0.49006975  1
  Zr  Zr68  1  0.89707416  0.28760085  0.61299950  1
  Zr  Zr69  1  0.40132166  0.60488114  0.75220916  1
  Zr  Zr70  1  -0.00149008  0.20536158  0.74686708  1
  Zr  Zr71  1  0.61476312  0.40252925  0.49406362  1
  Zr  Zr72  1  0.40861079  0.20312381  0.75649007  1
  Zr  Zr73  1  0.60607402  0.20447971  0.22712967  1
  Zr  Zr74  1  0.70537277  0.68584472  0.11704451  1
  Zr  Zr75  1  0.80415318  0.20116197  0.00879819  1
  Zr  Zr76  1  0.49007472  0.10368948  0.10172077  1
  Zr  Zr77  1  0.20654984  0.19240887  0.74336466  1
  Zr  Zr78  1  0.60480981  0.80653915  0.23963113  1
  Zr  Zr79  1  0.49952337  0.29971551  0.37739548  1
  Ta  Ta80  1  0.79237513  0.59468172  -0.00635121  1
  Ta  Ta81  1  0.79934313  0.41074870  0.26187813  1
  Ta  Ta82  1  0.80050069  -0.01616081  0.24763681  1
  Ta  Ta83  1  -0.00631256  0.39929060  0.26679429  1
  Ta  Ta84  1  0.19606931  -0.01631570  0.75628710  1
  Ta  Ta85  1  0.30547461  0.50018777  0.11737650  1
  Ta  Ta86  1  0.50260257  0.10130949  0.89014746  1
  Ta  Ta87  1  0.40001763  0.01089659  0.51279055  1
  Ta  Ta88  1  0.89529848  0.89239010  0.11352375  1
  Ta  Ta89  1  0.40891528  0.00027967  0.23628998  1
  Ta  Ta90  1  0.30363266  0.71234469  0.87941277  1
  Ta  Ta91  1  0.90008630  0.88350055  0.37724801  1
  Ta  Ta92  1  -0.01404569  0.39892398  0.00657082  1
  Ta  Ta93  1  0.28558129  0.70700274  0.11760900  1
  Ta  Ta94  1  0.80568189  0.79058738  0.24691502  1
  Ta  Ta95  1  0.21096627  0.00117658  0.24396116  1
  Ta  Ta96  1  0.01867824  0.20530379  0.00627795  1
  Ta  Ta97  1  -0.02972774  0.59656455  0.26760513  1
  Ta  Ta98  1  0.69258259  0.50060494  0.63618823  1
  Ta  Ta99  1  0.60116717  0.60135906  0.75649005  1
  Ta  Ta100  1  0.59417942  0.80041431  0.76318842  1
  Ta  Ta101  1  0.28889670  0.70777810  0.61278894  1
  Ta  Ta102  1  0.60179189  -0.00334721  0.77087858  1
  Ta  Ta103  1  0.49852592  0.50561988  0.36979831  1
  Ta  Ta104  1  0.10417961  0.29129535  0.37851714  1
  Ta  Ta105  1  0.78362492  0.39924660  0.00022683  1
  Ta  Ta106  1  0.87497731  0.50222956  0.13060461  1
  Ta  Ta107  1  0.59853124  0.39958054  0.76104403  1
  Ta  Ta108  1  0.69874034  0.49961231  0.87200148  1
  Ta  Ta109  1  0.70858178  0.89717876  0.37224599  1
  Ta  Ta110  1  0.40843615  0.80271305  0.51280033  1
  Ta  Ta111  1  0.40501894  0.40503906  0.23904826  1
  Ta  Ta112  1  0.28183278  0.89568004  0.88355523  1
  Ta  Ta113  1  0.61321831  0.19634293  0.77245224  1
  Ta  Ta114  1  0.89287335  0.70208747  0.88311235  1
  Ta  Ta115  1  0.20445922  0.18852354  0.00164444  1
  Ta  Ta116  1  -0.00476405  0.18306314  0.47586767  1
  Ta  Ta117  1  0.10985593  0.11819036  0.14473606  1
  Ta  Ta118  1  0.89572766  0.29069283  0.36894006  1
  Ta  Ta119  1  0.61100354  0.19545537  0.49791497  1
  Ti  Ti120  1  0.70094695  0.70542293  0.37278249  1
  Ti  Ti121  1  0.89543940  0.09494226  0.89584568  1
  Ti  Ti122  1  0.80069528  0.39691998  0.48615094  1
  Ti  Ti123  1  0.40822980  0.20054974  0.51190839  1
  Ti  Ti124  1  -0.00869056  0.39648759  0.47872057  1
  Ti  Ti125  1  0.50467137  0.50465938  0.88289232  1
  Ti  Ti126  1  0.90162592  0.69370151  0.12025566  1
  Ti  Ti127  1  0.80107366  0.19366245  0.48744612  1
  Ti  Ti128  1  0.60776509  0.00154621  -0.00285903  1
  Ti  Ti129  1  0.90609923  0.90000275  0.61375999  1
  Ti  Ti130  1  0.80288528  0.60616697  0.74928856  1
  Ti  Ti131  1  0.08453628  0.69986019  0.61969194  1
  Ti  Ti132  1  0.50623447  0.30589331  0.88443845  1
  Ti  Ti133  1  0.39512382  -0.00071305  -0.00478670  1
  Ti  Ti134  1  0.80015943  0.19304758  0.76821365  1
  Ti  Ti135  1  0.70000488  0.29146185  0.37088534  1
  Ti  Ti136  1  0.40002322  0.40009328  -0.00360666  1
  Ti  Ti137  1  0.19196363  0.60801269  0.49599794  1
  Ti  Ti138  1  0.60254082  0.79642180  0.50798481  1
  Ti  Ti139  1  0.29598200  0.30041418  0.61910698  1
  Ti  Ti140  1  0.71073787  0.90113019  0.88654670  1
  Ti  Ti141  1  -0.01094692  0.61723631  0.48251080  1
  Ti  Ti142  1  0.49788163  0.69873490  0.62966156  1
  Ti  Ti143  1  0.89411877  0.50100901  0.87586510  1
  Ti  Ti144  1  0.69531472  0.69983069  0.63697827  1
  Ti  Ti145  1  0.81343267  0.00251865  0.49083470  1
  Ti  Ti146  1  0.50695632  0.89742484  0.63175442  1
  Ti  Ti147  1  0.09624994  0.89076297  0.62473677  1
  Ti  Ti148  1  0.30028401  0.09277896  0.88085501  1
  Ti  Ti149  1  0.70015384  0.51126620  0.37345855  1
  Ti  Ti150  1  0.19886335  0.61758803  0.74122890  1
  Ti  Ti151  1  0.10431708  0.89739727  0.14045795  1
  Ti  Ti152  1  0.70085763  0.69777802  0.87562820  1
  Ti  Ti153  1  0.69458609  0.90197579  0.63678380  1
  Ti  Ti154  1  0.60681356  0.60077542  0.24993271  1
  Ti  Ti155  1  0.90771941  0.09327103  0.61314954  1
  Ti  Ti156  1  0.48687247  0.89516834  0.88027144  1
  Ti  Ti157  1  0.50172416  0.31214611  0.10937064  1
  Ti  Ti158  1  0.70755084  0.89590447  0.10857732  1
  Ti  Ti159  1  0.70725762  0.09195534  0.37368335  1
  Mo  Mo160  1  0.20090376  0.20080190  0.25547684  1
  Mo  Mo161  1  0.00420000  0.00892413  0.01269889  1
  Mo  Mo162  1  0.08842667  0.70203582  0.37816382  1
  Mo  Mo163  1  0.39699264  0.80655035  -0.00913121  1
  Mo  Mo164  1  0.19950104  0.79609313  0.73936223  1
  Mo  Mo165  1  0.88873632  0.08975618  0.37308899  1
  Mo  Mo166  1  0.70040974  0.49750460  0.12463953  1
  Mo  Mo167  1  0.10893316  0.10210399  0.35684781  1
  Mo  Mo168  1  0.00173609  0.40095658  0.74844712  1
  Mo  Mo169  1  0.59842291  0.40487118  -0.01220519  1
  Mo  Mo170  1  0.50996195  0.50790155  0.63837981  1
  Mo  Mo171  1  0.70822705  0.08330739  0.11867987  1
  Mo  Mo172  1  0.88432406  0.70124722  0.37443148  1
  Mo  Mo173  1  -0.01051198  0.79228489  0.49840165  1
  Mo  Mo174  1  0.60425614  0.59670791  -0.01801333  1
  Mo  Mo175  1  0.70064938  0.30243351  0.87025978  1
  Mo  Mo176  1  0.50121078  0.70246966  0.86732224  1
  Mo  Mo177  1  0.50274486  0.90612382  0.11149267  1
  Mo  Mo178  1  0.79106277  0.60120858  0.25693786  1
  Mo  Mo179  1  0.19643389  0.39612717  0.50438658  1
  Mo  Mo180  1  0.40000512  0.20240626  -0.01326352  1
  Mo  Mo181  1  0.20167418  0.80696960  0.25347920  1
  Mo  Mo182  1  0.88957465  0.49459930  0.38599069  1
  Mo  Mo183  1  0.09480908  0.69667046  0.13293635  1
  Mo  Mo184  1  0.79486178  -0.00467323  0.00298910  1
  Mo  Mo185  1  0.20528316  0.00417279  0.49399459  1
  Mo  Mo186  1  0.10791449  0.89673145  0.35571451  1
  Mo  Mo187  1  0.70894616  0.32480374  0.12929359  1
  Mo  Mo188  1  0.80655108  0.79070950  -0.00132331  1
  Mo  Mo189  1  0.30564188  0.10453303  0.62597971  1
  Mo  Mo190  1  0.20390709  0.79736706  0.00361383  1
  Mo  Mo191  1  0.10152123  0.29607859  0.88016172  1
  Mo  Mo192  1  0.07790331  0.47897919  0.87680267  1
  Mo  Mo193  1  0.90188638  0.69681508  0.62604589  1
  Mo  Mo194  1  0.29641675  0.09507429  0.11989881  1
  Mo  Mo195  1  0.10222732  0.90197927  0.87282041  1
  Mo  Mo196  1  0.39900132  0.61501768  0.51136368  1
  Mo  Mo197  1  0.09332844  0.29780508  0.13508232  1
  Mo  Mo198  1  0.00390571  0.20142141  0.26878284  1
  Mo  Mo199  1  0.70021767  0.09500805  0.88276644  1
