# generated using pymatgen
data_HfZrTaTiMo
_symmetry_space_group_name_H-M   'P 1'
_cell_length_a   15.21455200
_cell_length_b   15.20669147
_cell_length_c   16.80588760
_cell_angle_alpha   90.05460914
_cell_angle_beta   89.97542310
_cell_angle_gamma   89.94488948
_symmetry_Int_Tables_number   1
_chemical_formula_structural   HfZrTaTiMo
_chemical_formula_sum   'Hf40 Zr40 Ta40 Ti40 Mo40'
_cell_volume   3888.25661456
_cell_formula_units_Z   40
loop_
 _symmetry_equiv_pos_site_id
 _symmetry_equiv_pos_as_xyz
  1  'x, y, z'
loop_
 _atom_site_type_symbol
 _atom_site_label
 _atom_site_symmetry_multiplicity
 _atom_site_fract_x
 _atom_site_fract_y
 _atom_site_fract_z
 _atom_site_occupancy
  Hf  Hf0  1  0.49896936  0.49727309  0.63650358  1
  Hf  Hf1  1  0.00958360  0.60036754  0.00043866  1
  Hf  Hf2  1  0.40697221  0.18997837  0.00268780  1
  Hf  Hf3  1  0.58478912  0.80281922  0.51843376  1
  Hf  Hf4  1  0.30150250  0.08940091  0.11561462  1
  Hf  Hf5  1  0.61343682  0.40377646  0.76341635  1
  Hf  Hf6  1  0.90264922  0.09384418  0.37511340  1
  Hf  Hf7  1  -0.00556133  0.79166180  0.23655329  1
  Hf  Hf8  1  0.39072987  0.60543355  -0.01666688  1
  Hf  Hf9  1  0.81310440  0.39669712  0.49911868  1
  Hf  Hf10  1  0.29249472  0.09341472  0.39742206  1
  Hf  Hf11  1  0.52582584  0.10035634  0.63693801  1
  Hf  Hf12  1  0.29348339  0.89031406  0.12958352  1
  Hf  Hf13  1  0.69551031  0.90507945  0.36694531  1
  Hf  Hf14  1  -0.00189883  -0.01024615  0.00259735  1
  Hf  Hf15  1  0.10489775  0.50467430  0.86479245  1
  Hf  Hf16  1  0.09567231  0.30174217  0.11857346  1
  Hf  Hf17  1  0.29495830  0.49414050  0.61984097  1
  Hf  Hf18  1  -0.00277681  0.39667686  0.74644132  1
  Hf  Hf19  1  0.89731456  0.30196239  0.88679232  1
  Hf  Hf20  1  0.29311118  0.71063184  0.38587212  1
  Hf  Hf21  1  0.88075045  0.68719241  0.11558180  1
  Hf  Hf22  1  0.60251432  0.43269226  0.26239850  1
  Hf  Hf23  1  0.81326990  0.00002083  0.76287484  1
  Hf  Hf24  1  0.30686982  0.49400782  0.12659376  1
  Hf  Hf25  1  0.70453101  0.32380051  0.12426464  1
  Hf  Hf26  1  0.09718859  0.09455175  0.39127067  1
  Hf  Hf27  1  0.78575166  0.79328176  0.23687256  1
  Hf  Hf28  1  0.68978482  0.71499978  0.88632195  1
  Hf  Hf29  1  0.80609289  0.59709876  0.75505292  1
  Hf  Hf30  1  0.19387616  0.18792129  0.25458207  1
  Hf  Hf31  1  0.60708394  0.39503136  0.48523612  1
  Hf  Hf32  1  0.29001377  0.29810784  0.39075333  1
  Hf  Hf33  1  0.10458689  0.09443862  0.85923095  1
  Hf  Hf34  1  0.59842438  0.60234380  0.51266074  1
  Hf  Hf35  1  0.39759193  0.39936432  -0.02011948  1
  Hf  Hf36  1  0.10619573  0.09402126  0.62711545  1
  Hf  Hf37  1  0.09978919  0.89243897  0.85818064  1
  Hf  Hf38  1  0.50282051  0.28889094  0.86391684  1
  Hf  Hf39  1  0.60133029  0.20357207  0.01358059  1
  Zr  Zr40  1  0.10570668  0.09647419  0.11557089  1
  Zr  Zr41  1  0.49770273  0.09726959  0.36910796  1
  Zr  Zr42  1  0.60322554  0.62135536  0.74423029  1
  Zr  Zr43  1  0.28741298  0.29875616  0.12097905  1
  Zr  Zr44  1  0.70290899  0.09931340  0.35347505  1
  Zr  Zr45  1  0.79023897  0.19992902  0.49432481  1
  Zr  Zr46  1  0.69839705  0.91701088  0.62282566  1
  Zr  Zr47  1  0.70884493  0.49534627  0.62608165  1
  Zr  Zr48  1  0.30410996  0.90386302  0.38020480  1
  Zr  Zr49  1  0.30732550  0.49806333  0.38743633  1
  Zr  Zr50  1  0.30823115  0.09384794  0.87223600  1
  Zr  Zr51  1  0.48787513  0.31799913  0.13621506  1
  Zr  Zr52  1  0.38890483  0.60517904  0.75483518  1
  Zr  Zr53  1  0.78295487  0.79994913  0.75263047  1
  Zr  Zr54  1  0.17931388  0.60607129  0.50209260  1
  Zr  Zr55  1  0.20382167  0.60023374  0.25736992  1
  Zr  Zr56  1  0.10302288  0.28915086  0.86970181  1
  Zr  Zr57  1  0.00305993  0.80085646  0.00697589  1
  Zr  Zr58  1  0.69426818  0.28575197  0.62863927  1
  Zr  Zr59  1  0.40224321  0.00730506  0.24528494  1
  Zr  Zr60  1  0.90839781  0.10354295  0.87677958  1
  Zr  Zr61  1  0.89713584  0.89162722  0.37431036  1
  Zr  Zr62  1  0.31202146  0.09717502  0.61954828  1
  Zr  Zr63  1  -0.00883622  0.77118526  0.49654368  1
  Zr  Zr64  1  0.42015108  0.58782461  0.25566457  1
  Zr  Zr65  1  0.59762873  0.00028729  -0.00009569  1
  Zr  Zr66  1  0.81109629  0.61043124  0.50976460  1
  Zr  Zr67  1  0.90927827  0.88891455  0.62544638  1
  Zr  Zr68  1  0.68843205  0.70762199  0.37607986  1
  Zr  Zr69  1  0.10841622  0.89255416  0.36050857  1
  Zr  Zr70  1  0.40745309  0.79193612  0.24808964  1
  Zr  Zr71  1  0.07193087  0.69608264  0.65057515  1
  Zr  Zr72  1  0.59480702  0.20761034  0.24254236  1
  Zr  Zr73  1  0.90042114  0.48116451  0.10889248  1
  Zr  Zr74  1  -0.00347905  0.58076782  0.23865918  1
  Zr  Zr75  1  0.89788271  0.09567096  0.61884161  1
  Zr  Zr76  1  0.41519064  0.20226719  0.50279294  1
  Zr  Zr77  1  0.51168292  0.51174247  0.11214989  1
  Zr  Zr78  1  0.09078043  0.30000584  0.38934138  1
  Zr  Zr79  1  0.48969871  0.29744675  0.64537928  1
  Ta  Ta80  1  0.18674733  0.81148941  0.51297110  1
  Ta  Ta81  1  0.59833182  0.00855261  0.49788542  1
  Ta  Ta82  1  0.39099397  0.81284507  -0.00459940  1
  Ta  Ta83  1  0.61284258  -0.00485345  0.76373508  1
  Ta  Ta84  1  0.09677309  0.69811876  0.85655489  1
  Ta  Ta85  1  0.70717185  0.29808267  0.88288432  1
  Ta  Ta86  1  0.20930059  0.39936704  0.75206170  1
  Ta  Ta87  1  0.80669959  0.40867592  0.25655407  1
  Ta  Ta88  1  0.79865182  0.19581226  0.01415857  1
  Ta  Ta89  1  0.80869847  0.39536930  0.75239711  1
  Ta  Ta90  1  0.19890103  0.39735209  0.25432731  1
  Ta  Ta91  1  -0.00175929  0.00068264  0.24091840  1
  Ta  Ta92  1  0.90112632  0.70452001  0.88034865  1
  Ta  Ta93  1  0.88803196  0.68312844  0.36009512  1
  Ta  Ta94  1  0.10736399  0.89788169  0.13488039  1
  Ta  Ta95  1  -0.00542694  0.19683686  0.24692839  1
  Ta  Ta96  1  0.79778225  0.81766110  -0.00201550  1
  Ta  Ta97  1  0.49190977  0.31695603  0.36372276  1
  Ta  Ta98  1  0.41191245  -0.00951592  0.74771945  1
  Ta  Ta99  1  0.80649668  0.20805716  0.24149391  1
  Ta  Ta100  1  0.40372717  0.61380913  0.51240779  1
  Ta  Ta101  1  0.48999169  0.71793213  0.87743305  1
  Ta  Ta102  1  0.71245827  0.52195810  0.11069615  1
  Ta  Ta103  1  0.11597011  0.69759377  0.12732304  1
  Ta  Ta104  1  0.50564255  0.50838684  0.86989282  1
  Ta  Ta105  1  0.30241897  0.69492818  0.12017259  1
  Ta  Ta106  1  0.40973180  0.40692768  0.50162108  1
  Ta  Ta107  1  0.89792581  0.29811081  0.36942996  1
  Ta  Ta108  1  0.50674663  0.09677921  0.86494800  1
  Ta  Ta109  1  0.10089944  0.50064569  0.63629120  1
  Ta  Ta110  1  0.91262879  0.49648912  0.37662813  1
  Ta  Ta111  1  0.79999676  0.00112306  -0.00207418  1
  Ta  Ta112  1  0.10546861  0.89561902  0.64804709  1
  Ta  Ta113  1  0.11240813  0.30075398  0.62170814  1
  Ta  Ta114  1  0.50110643  0.71334316  0.10669733  1
  Ta  Ta115  1  0.11418320  0.49325674  0.11795785  1
  Ta  Ta116  1  0.70109996  0.09257466  0.13720444  1
  Ta  Ta117  1  0.50555503  0.89361555  0.37551516  1
  Ta  Ta118  1  0.28341499  0.70752925  0.62999703  1
  Ta  Ta119  1  0.79824079  0.20355465  0.74823533  1
  Ti  Ti120  1  0.79072787  0.79821850  0.50641696  1
  Ti  Ti121  1  0.89915555  0.50068885  0.88577631  1
  Ti  Ti122  1  0.70221276  0.10830426  0.88016659  1
  Ti  Ti123  1  0.20567133  0.40301528  -0.01712186  1
  Ti  Ti124  1  0.49761587  0.90096957  0.87888956  1
  Ti  Ti125  1  -0.00925004  0.20979532  0.51274628  1
  Ti  Ti126  1  0.22338801  0.20893557  0.74269280  1
  Ti  Ti127  1  0.69716191  0.90183885  0.12750097  1
  Ti  Ti128  1  0.61139865  0.62769119  0.24076200  1
  Ti  Ti129  1  0.89633108  0.09192582  0.12766402  1
  Ti  Ti130  1  0.19809095  0.79140234  -0.00520405  1
  Ti  Ti131  1  0.79689177  -0.00068615  0.49836672  1
  Ti  Ti132  1  0.00990612  0.39677539  -0.00626069  1
  Ti  Ti133  1  0.20259036  0.59944685  -0.00606594  1
  Ti  Ti134  1  0.39062461  0.80867040  0.74198631  1
  Ti  Ti135  1  0.39321984  0.80884693  0.51769955  1
  Ti  Ti136  1  -0.00714120  0.19968999  0.73701422  1
  Ti  Ti137  1  0.71225143  0.50158801  0.88873838  1
  Ti  Ti138  1  0.60422315  0.20304329  0.48409048  1
  Ti  Ti139  1  0.20178570  0.19981708  -0.01103009  1
  Ti  Ti140  1  0.91426822  0.51032160  0.62887094  1
  Ti  Ti141  1  0.71460939  0.51426134  0.37681740  1
  Ti  Ti142  1  0.68652071  0.70927395  0.10240831  1
  Ti  Ti143  1  0.01284268  -0.02251344  0.50403872  1
  Ti  Ti144  1  -0.00049425  0.19350099  0.00271609  1
  Ti  Ti145  1  0.60247135  0.40655733  -0.01031888  1
  Ti  Ti146  1  0.90091802  0.29434396  0.11975862  1
  Ti  Ti147  1  0.00389108  0.38893581  0.24858977  1
  Ti  Ti148  1  0.39012800  0.20876473  0.25028493  1
  Ti  Ti149  1  0.10086971  0.49050978  0.38162430  1
  Ti  Ti150  1  0.57906921  0.81153542  0.73688652  1
  Ti  Ti151  1  0.50059650  0.90766368  0.11986690  1
  Ti  Ti152  1  0.08653870  0.69032081  0.36717311  1
  Ti  Ti153  1  0.21961396  -0.01321741  0.74926218  1
  Ti  Ti154  1  0.38829940  0.39311370  0.76452030  1
  Ti  Ti155  1  0.49673473  0.69885736  0.38096564  1
  Ti  Ti156  1  0.28585189  0.70922506  0.86450027  1
  Ti  Ti157  1  0.21141104  -0.01938538  -0.01212032  1
  Ti  Ti158  1  0.00490120  0.40580722  0.51341375  1
  Ti  Ti159  1  0.59642002  0.60537916  -0.01169395  1
  Mo  Mo160  1  0.48418398  0.70608838  0.62939670  1
  Mo  Mo161  1  -0.00297581  0.58696147  0.49637012  1
  Mo  Mo162  1  -0.01196870  0.59539223  0.76318602  1
  Mo  Mo163  1  0.41782838  -0.01373705  0.50610640  1
  Mo  Mo164  1  0.79640714  0.39775043  -0.00376579  1
  Mo  Mo165  1  -0.01742367  0.80439234  0.76113311  1
  Mo  Mo166  1  0.19785022  0.59680759  0.74705564  1
  Mo  Mo167  1  0.61593079  0.19145175  0.76331350  1
  Mo  Mo168  1  0.29541996  0.90278760  0.62164179  1
  Mo  Mo169  1  0.29815325  0.50141181  0.87006799  1
  Mo  Mo170  1  0.19931329  0.79023248  0.24763566  1
  Mo  Mo171  1  0.30842347  0.89019150  0.87387466  1
  Mo  Mo172  1  0.20601539  0.79525520  0.74777269  1
  Mo  Mo173  1  0.40176406  0.19491966  0.75091870  1
  Mo  Mo174  1  0.19787259  -0.01011035  0.51324870  1
  Mo  Mo175  1  0.78654616  0.58968123  0.24757207  1
  Mo  Mo176  1  0.59053571  0.80325454  0.23954990  1
  Mo  Mo177  1  0.00819667  0.00355889  0.74740144  1
  Mo  Mo178  1  0.90514231  0.30519311  0.62786386  1
  Mo  Mo179  1  0.49170137  0.91032097  0.62951140  1
  Mo  Mo180  1  0.88620249  0.69548189  0.63193576  1
  Mo  Mo181  1  0.80845970  -0.00141495  0.23704989  1
  Mo  Mo182  1  0.59098254  0.80776152  0.00006026  1
  Mo  Mo183  1  0.50620350  0.51176948  0.38760213  1
  Mo  Mo184  1  0.40112926  -0.00517980  -0.00039898  1
  Mo  Mo185  1  0.19159796  -0.00259045  0.24985198  1
  Mo  Mo186  1  0.19315094  0.19971678  0.51261147  1
  Mo  Mo187  1  0.69617591  0.70761817  0.62844798  1
  Mo  Mo188  1  0.50093144  0.09908414  0.13105514  1
  Mo  Mo189  1  0.29772710  0.29449360  0.87301199  1
  Mo  Mo190  1  0.89147094  0.90476697  0.12738205  1
  Mo  Mo191  1  0.69478916  0.91016132  0.87875913  1
  Mo  Mo192  1  0.89741252  0.89568345  0.87588688  1
  Mo  Mo193  1  0.19728989  0.40032845  0.50948550  1
  Mo  Mo194  1  0.29804945  0.30416581  0.61729962  1
  Mo  Mo195  1  0.70502946  0.09641449  0.62576813  1
  Mo  Mo196  1  0.70598644  0.30988093  0.36001893  1
  Mo  Mo197  1  0.79755675  0.60566406  -0.01425811  1
  Mo  Mo198  1  0.39342298  0.39825082  0.25997938  1
  Mo  Mo199  1  0.60013944  -0.01240382  0.23763662  1
