# generated using pymatgen
data_HfZrTaTiMo
_symmetry_space_group_name_H-M   'P 1'
_cell_length_a   15.21556577
_cell_length_b   15.21019186
_cell_length_c   16.82597957
_cell_angle_alpha   89.95150774
_cell_angle_beta   90.02079842
_cell_angle_gamma   90.10280530
_symmetry_Int_Tables_number   1
_chemical_formula_structural   HfZrTaTiMo
_chemical_formula_sum   'Hf40 Zr40 Ta40 Ti40 Mo40'
_cell_volume   3894.05671195
_cell_formula_units_Z   40
loop_
 _symmetry_equiv_pos_site_id
 _symmetry_equiv_pos_as_xyz
  1  'x, y, z'
loop_
 _atom_site_type_symbol
 _atom_site_label
 _atom_site_symmetry_multiplicity
 _atom_site_fract_x
 _atom_site_fract_y
 _atom_site_fract_z
 _atom_site_occupancy
  Hf  Hf0  1  0.39251976  0.78077093  0.26275829  1
  Hf  Hf1  1  0.10332149  0.28412739  0.63786009  1
  Hf  Hf2  1  0.89852703  0.28960714  0.87023280  1
  Hf  Hf3  1  0.19190820  0.58008158  0.50549276  1
  Hf  Hf4  1  0.38574273  0.20420348  0.24016861  1
  Hf  Hf5  1  0.49150446  0.69520911  0.87569957  1
  Hf  Hf6  1  0.49243693  0.09950532  0.61377981  1
  Hf  Hf7  1  0.10426908  0.29790019  0.86923285  1
  Hf  Hf8  1  0.31493783  0.31143002  0.86440976  1
  Hf  Hf9  1  0.79924288  0.00630768  0.74358609  1
  Hf  Hf10  1  0.80323597  0.40414105  0.73506027  1
  Hf  Hf11  1  0.60282119  0.19932444  0.49410309  1
  Hf  Hf12  1  -0.00861035  0.01407797  0.26187858  1
  Hf  Hf13  1  0.11261765  0.09146884  0.63924675  1
  Hf  Hf14  1  0.91600138  0.29532141  0.36926733  1
  Hf  Hf15  1  0.19851944  0.79581036  0.26032745  1
  Hf  Hf16  1  0.39306092  0.80554588  0.74417573  1
  Hf  Hf17  1  0.10304481  0.68846666  0.86333958  1
  Hf  Hf18  1  0.00321772  0.01582266  0.49072984  1
  Hf  Hf19  1  0.11011085  0.69954587  0.13237839  1
  Hf  Hf20  1  0.80849724  0.21009386  0.50633347  1
  Hf  Hf21  1  -0.00426661  0.79617330  -0.00756729  1
  Hf  Hf22  1  0.91777353  0.11100668  0.62847537  1
  Hf  Hf23  1  0.79120782  0.01104460  0.50388164  1
  Hf  Hf24  1  0.69660625  0.49642597  0.12671625  1
  Hf  Hf25  1  0.60764363  0.19600014  0.26293117  1
  Hf  Hf26  1  0.90638814  0.89409509  0.61815288  1
  Hf  Hf27  1  0.09131332  0.30225245  0.12818778  1
  Hf  Hf28  1  0.79269044  0.79681559  0.75041174  1
  Hf  Hf29  1  -0.01685952  -0.00634366  -0.00910013  1
  Hf  Hf30  1  0.59352386  0.39415995  -0.00071648  1
  Hf  Hf31  1  0.88818747  0.89537683  0.38281929  1
  Hf  Hf32  1  0.80844923  0.59721995  0.00517540  1
  Hf  Hf33  1  0.89835543  0.29296558  0.13008795  1
  Hf  Hf34  1  0.20805964  0.40920369  -0.00275746  1
  Hf  Hf35  1  0.69815580  0.93498310  0.12738387  1
  Hf  Hf36  1  0.29901428  0.90481811  0.61017740  1
  Hf  Hf37  1  0.49260035  0.49188086  0.85681081  1
  Hf  Hf38  1  0.70303070  0.50336925  0.86842055  1
  Hf  Hf39  1  0.81315435  0.40769419  0.25152326  1
  Zr  Zr40  1  0.39369837  0.38863870  0.49266549  1
  Zr  Zr41  1  0.71003299  0.50982479  0.37487540  1
  Zr  Zr42  1  0.40445489  0.21246857  0.01410386  1
  Zr  Zr43  1  0.59103827  0.59526436  0.00176445  1
  Zr  Zr44  1  0.19297012  0.79699814  -0.00099956  1
  Zr  Zr45  1  0.61372528  0.18920348  0.00643045  1
  Zr  Zr46  1  0.58678692  0.80339192  0.75121981  1
  Zr  Zr47  1  0.80579852  0.61096898  0.23964810  1
  Zr  Zr48  1  0.30141808  0.10421235  0.86950067  1
  Zr  Zr49  1  0.70138895  0.29311741  0.13520317  1
  Zr  Zr50  1  0.20413877  0.19839280  0.01913030  1
  Zr  Zr51  1  0.51135768  0.08887363  0.14025267  1
  Zr  Zr52  1  0.29070744  0.70775886  0.61095915  1
  Zr  Zr53  1  0.11324057  0.49721862  0.13248131  1
  Zr  Zr54  1  0.68159252  0.89414020  0.61525332  1
  Zr  Zr55  1  0.01541554  0.39559682  0.51180020  1
  Zr  Zr56  1  0.80536061  0.81580409  0.00249060  1
  Zr  Zr57  1  0.59026572  0.81149704  0.00827418  1
  Zr  Zr58  1  0.09483854  0.10227386  0.86535206  1
  Zr  Zr59  1  -0.01064703  0.79698825  0.25191613  1
  Zr  Zr60  1  0.60006265  0.80345514  0.24245953  1
  Zr  Zr61  1  0.29035313  0.09800500  0.36528754  1
  Zr  Zr62  1  0.10619407  0.90039408  0.38199759  1
  Zr  Zr63  1  0.08736648  0.69988224  0.62649118  1
  Zr  Zr64  1  0.39956178  0.00196021  0.00719380  1
  Zr  Zr65  1  0.60827829  0.20570484  0.73643898  1
  Zr  Zr66  1  0.59412455  0.00567552  0.74251900  1
  Zr  Zr67  1  0.19040899  0.00111866  0.01374915  1
  Zr  Zr68  1  0.11299543  0.29110365  0.36389798  1
  Zr  Zr69  1  0.01178182  0.59034618  0.00002541  1
  Zr  Zr70  1  0.61143917  0.40232289  0.50611130  1
  Zr  Zr71  1  0.09705287  0.68331689  0.37895205  1
  Zr  Zr72  1  0.47651334  0.69045750  0.12150798  1
  Zr  Zr73  1  0.50341503  0.70112686  0.39299003  1
  Zr  Zr74  1  0.29903493  0.88950956  0.13363753  1
  Zr  Zr75  1  0.30596498  0.29102524  0.63651665  1
  Zr  Zr76  1  0.70406147  0.70941993  0.37145831  1
  Zr  Zr77  1  0.69141573  0.91337098  0.88067088  1
  Zr  Zr78  1  0.50090976  0.50343660  0.38271118  1
  Zr  Zr79  1  0.81504510  0.41069830  0.51349543  1
  Ta  Ta80  1  0.29536194  0.89724392  0.87433259  1
  Ta  Ta81  1  0.89438937  0.69199504  0.86719927  1
  Ta  Ta82  1  0.79255996  0.79165209  0.50579602  1
  Ta  Ta83  1  0.49615688  0.31394421  0.13838223  1
  Ta  Ta84  1  0.30083098  0.10169103  0.62836066  1
  Ta  Ta85  1  0.50296881  0.71692815  0.60775769  1
  Ta  Ta86  1  0.90582475  0.49574678  0.86865182  1
  Ta  Ta87  1  -0.01030925  0.58896471  0.51136995  1
  Ta  Ta88  1  0.79392393  0.02627699  -0.00645494  1
  Ta  Ta89  1  0.69076937  0.91062243  0.37528460  1
  Ta  Ta90  1  0.18877171  0.18814922  0.22947518  1
  Ta  Ta91  1  0.38512772  0.78821391  -0.00333177  1
  Ta  Ta92  1  0.49828344  0.30338936  0.62404266  1
  Ta  Ta93  1  0.89773974  0.69073572  0.38116397  1
  Ta  Ta94  1  0.60543040  0.60954390  0.73848763  1
  Ta  Ta95  1  0.90450800  0.70146884  0.12320931  1
  Ta  Ta96  1  0.48529657  0.90539743  0.88132852  1
  Ta  Ta97  1  0.50925606  0.09801592  0.87678185  1
  Ta  Ta98  1  -0.00562720  0.79944811  0.75624073  1
  Ta  Ta99  1  0.10219574  0.89426029  0.61822300  1
  Ta  Ta100  1  0.71178137  0.11955656  0.86950015  1
  Ta  Ta101  1  0.22895292  0.59046455  0.25706618  1
  Ta  Ta102  1  0.70377682  0.30619290  0.87327288  1
  Ta  Ta103  1  0.00258294  0.39999969  0.74004844  1
  Ta  Ta104  1  0.49571722  0.09271501  0.36876527  1
  Ta  Ta105  1  0.88682540  0.08919391  0.13042237  1
  Ta  Ta106  1  -0.00179723  0.58593701  0.24411650  1
  Ta  Ta107  1  0.40048478  -0.00236848  0.74825264  1
  Ta  Ta108  1  0.80104418  0.20781566  0.72959261  1
  Ta  Ta109  1  -0.00128915  -0.01222679  0.75667207  1
  Ta  Ta110  1  0.59293661  0.59929739  0.24384252  1
  Ta  Ta111  1  0.50308642  0.50248995  0.62725613  1
  Ta  Ta112  1  0.40156674  0.60411571  0.73050417  1
  Ta  Ta113  1  0.20442280  0.19621657  0.49772067  1
  Ta  Ta114  1  0.69909742  0.70569712  0.12317306  1
  Ta  Ta115  1  0.69752207  0.69906168  0.87927082  1
  Ta  Ta116  1  0.39113693  0.41090316  0.26011545  1
  Ta  Ta117  1  0.49527369  0.90315562  0.37546191  1
  Ta  Ta118  1  0.39932680  0.59372762  0.51467875  1
  Ta  Ta119  1  0.20318599  0.40540521  0.75051757  1
  Ti  Ti120  1  0.30353890  0.89473319  0.38466087  1
  Ti  Ti121  1  0.30328120  0.48991285  0.63147198  1
  Ti  Ti122  1  0.91594770  0.50243125  0.37653324  1
  Ti  Ti123  1  0.59434445  0.00168672  0.49639483  1
  Ti  Ti124  1  0.80549663  0.60366625  0.50652157  1
  Ti  Ti125  1  0.80439884  0.39674230  0.00132649  1
  Ti  Ti126  1  0.30066309  0.69036899  0.39672497  1
  Ti  Ti127  1  -0.00312623  0.78942896  0.49910897  1
  Ti  Ti128  1  0.29862637  0.69771819  0.86424118  1
  Ti  Ti129  1  0.70856941  0.51671777  0.63236085  1
  Ti  Ti130  1  0.39614865  0.00801882  0.49314649  1
  Ti  Ti131  1  0.21516172  0.39073760  0.24757149  1
  Ti  Ti132  1  0.80236080  0.81688800  0.23741281  1
  Ti  Ti133  1  0.07717446  0.90530480  0.13068725  1
  Ti  Ti134  1  -0.00489328  0.39906457  -0.00274011  1
  Ti  Ti135  1  0.20634205  -0.01107521  0.75081241  1
  Ti  Ti136  1  0.09917362  0.89611827  0.87048835  1
  Ti  Ti137  1  -0.00718909  0.59147243  0.74312202  1
  Ti  Ti138  1  0.39894489  0.41389627  0.00625343  1
  Ti  Ti139  1  0.22531632  0.60387031  0.00204612  1
  Ti  Ti140  1  0.19834434  0.00413184  0.49696472  1
  Ti  Ti141  1  -0.01404059  0.18832704  0.00089347  1
  Ti  Ti142  1  0.61261766  0.61194708  0.51551199  1
  Ti  Ti143  1  0.19851624  0.59616870  0.73749244  1
  Ti  Ti144  1  0.88695272  0.69262904  0.63278219  1
  Ti  Ti145  1  0.19369687  0.80318265  0.74922193  1
  Ti  Ti146  1  0.60263886  0.40042431  0.73748018  1
  Ti  Ti147  1  0.48917875  0.49892693  0.13321662  1
  Ti  Ti148  1  0.10467348  0.48910276  0.36311761  1
  Ti  Ti149  1  0.41036513  0.19539009  0.75245859  1
  Ti  Ti150  1  0.50970886  0.29642604  0.86686569  1
  Ti  Ti151  1  0.80798027  0.18048250  0.26611932  1
  Ti  Ti152  1  0.19553809  0.00346390  0.23769508  1
  Ti  Ti153  1  0.59540725  0.40214028  0.25915824  1
  Ti  Ti154  1  0.49254352  0.90121231  0.13707337  1
  Ti  Ti155  1  0.20576115  0.39023863  0.49955757  1
  Ti  Ti156  1  0.30237893  0.51177902  0.86013772  1
  Ti  Ti157  1  0.10234324  0.49705891  0.86624281  1
  Ti  Ti158  1  0.70744472  0.30370504  0.37210343  1
  Ti  Ti159  1  0.48882016  0.29227229  0.37155789  1
  Mo  Mo160  1  0.29035652  0.49681633  0.38317363  1
  Mo  Mo161  1  0.79118850  0.00435683  0.26472856  1
  Mo  Mo162  1  0.21235751  0.19411850  0.75623967  1
  Mo  Mo163  1  0.80982510  0.20519801  -0.00211747  1
  Mo  Mo164  1  0.39055610  0.59193483  -0.01153273  1
  Mo  Mo165  1  0.60046700  0.80977902  0.49551859  1
  Mo  Mo166  1  0.80112137  0.60390350  0.75695925  1
  Mo  Mo167  1  0.59667066  0.00135301  0.26243941  1
  Mo  Mo168  1  0.00545896  0.40437351  0.25230904  1
  Mo  Mo169  1  0.89585479  0.90409000  0.12801564  1
  Mo  Mo170  1  0.70190893  0.10503040  0.61783170  1
  Mo  Mo171  1  0.70008978  0.10024467  0.38010323  1
  Mo  Mo172  1  0.29684344  0.68787939  0.12767765  1
  Mo  Mo173  1  0.89993080  0.10672307  0.38058309  1
  Mo  Mo174  1  0.40392564  0.59255679  0.26218524  1
  Mo  Mo175  1  0.09885734  0.10750701  0.37490964  1
  Mo  Mo176  1  0.39437812  -0.01213387  0.25828337  1
  Mo  Mo177  1  0.69939230  0.69780147  0.62252146  1
  Mo  Mo178  1  0.31415623  0.50161640  0.12559390  1
  Mo  Mo179  1  0.08158917  0.09716337  0.12316672  1
  Mo  Mo180  1  0.90895133  0.30112689  0.63072544  1
  Mo  Mo181  1  0.90929606  0.51125648  0.63184694  1
  Mo  Mo182  1  0.90784838  0.49228966  0.11890149  1
  Mo  Mo183  1  0.59931919  0.00645268  -0.00594550  1
  Mo  Mo184  1  0.39639032  0.19415103  0.49119673  1
  Mo  Mo185  1  0.89506524  0.09956116  0.86314833  1
  Mo  Mo186  1  0.71117079  0.10904061  0.13284438  1
  Mo  Mo187  1  0.29965180  0.29770875  0.37187914  1
  Mo  Mo188  1  0.19161726  0.80257043  0.49048358  1
  Mo  Mo189  1  0.69682890  0.30933444  0.61985801  1
  Mo  Mo190  1  0.40961127  0.40262949  0.74395328  1
  Mo  Mo191  1  -0.00231585  0.19543708  0.75620767  1
  Mo  Mo192  1  0.11013746  0.49568142  0.63600066  1
  Mo  Mo193  1  0.01677102  0.19809765  0.49820633  1
  Mo  Mo194  1  -0.00198314  0.19550735  0.24247078  1
  Mo  Mo195  1  0.90042006  0.89923288  0.86563527  1
  Mo  Mo196  1  0.39721671  0.80629526  0.48972998  1
  Mo  Mo197  1  0.29707224  0.09299754  0.13923960  1
  Mo  Mo198  1  0.30114569  0.31555570  0.12611510  1
  Mo  Mo199  1  0.48509559  0.90414485  0.60705761  1
