# generated using pymatgen
data_HfZrTaTiMo
_symmetry_space_group_name_H-M   'P 1'
_cell_length_a   15.20234760
_cell_length_b   15.21902582
_cell_length_c   16.85401299
_cell_angle_alpha   90.01179093
_cell_angle_beta   90.00329521
_cell_angle_gamma   90.02709689
_symmetry_Int_Tables_number   1
_chemical_formula_structural   HfZrTaTiMo
_chemical_formula_sum   'Hf40 Zr40 Ta40 Ti40 Mo40'
_cell_volume   3899.42685444
_cell_formula_units_Z   40
loop_
 _symmetry_equiv_pos_site_id
 _symmetry_equiv_pos_as_xyz
  1  'x, y, z'
loop_
 _atom_site_type_symbol
 _atom_site_label
 _atom_site_symmetry_multiplicity
 _atom_site_fract_x
 _atom_site_fract_y
 _atom_site_fract_z
 _atom_site_occupancy
  Hf  Hf0  1  0.40601977  0.38012289  0.50520469  1
  Hf  Hf1  1  0.59690385  0.21725295  0.24329616  1
  Hf  Hf2  1  0.11374821  0.51009998  0.35935172  1
  Hf  Hf3  1  0.79851170  0.81292332  0.24811818  1
  Hf  Hf4  1  0.51184194  0.49773242  0.62779819  1
  Hf  Hf5  1  0.88858232  0.10222731  0.62515309  1
  Hf  Hf6  1  0.19515059  0.19584516  -0.00146598  1
  Hf  Hf7  1  0.28200494  0.09396677  0.64622072  1
  Hf  Hf8  1  0.79660618  0.20488060  0.24970409  1
  Hf  Hf9  1  0.49784132  0.88763896  0.12120213  1
  Hf  Hf10  1  0.80672046  0.61779964  -0.01252029  1
  Hf  Hf11  1  0.30267727  0.49165406  0.61606920  1
  Hf  Hf12  1  0.19980714  0.59675192  0.74118904  1
  Hf  Hf13  1  0.19506952  0.79321817  -0.00421829  1
  Hf  Hf14  1  0.50772092  0.47893642  0.37280934  1
  Hf  Hf15  1  -0.00870705  0.80971366  -0.00175017  1
  Hf  Hf16  1  0.40715073  0.78727632  0.49036066  1
  Hf  Hf17  1  0.67997528  0.71035187  0.62416899  1
  Hf  Hf18  1  0.49884025  0.48327832  0.86978320  1
  Hf  Hf19  1  0.20909224  0.39118476  0.74532623  1
  Hf  Hf20  1  0.71062549  0.90546816  0.10094036  1
  Hf  Hf21  1  0.59042002  0.21214535  0.48543170  1
  Hf  Hf22  1  0.51364959  0.88254008  0.62838576  1
  Hf  Hf23  1  0.00721595  0.40693260  0.00700237  1
  Hf  Hf24  1  0.79668846  0.20548471  0.48609204  1
  Hf  Hf25  1  0.69916496  0.11195646  0.89841343  1
  Hf  Hf26  1  0.70620781  0.08666407  0.37245962  1
  Hf  Hf27  1  0.39317626  0.78489832  0.25585667  1
  Hf  Hf28  1  0.00376343  0.20524008  0.48916239  1
  Hf  Hf29  1  0.50515538  0.28484671  0.63806184  1
  Hf  Hf30  1  0.60023697  0.60961419  0.76536992  1
  Hf  Hf31  1  0.03189035  0.40383505  0.50008513  1
  Hf  Hf32  1  0.91072304  0.91125270  0.85482293  1
  Hf  Hf33  1  0.72112534  0.51266445  0.62169034  1
  Hf  Hf34  1  0.18907369  0.79181068  0.25519464  1
  Hf  Hf35  1  0.78818202  0.01204536  0.75437579  1
  Hf  Hf36  1  0.81500358  0.41563212  0.48889866  1
  Hf  Hf37  1  0.79983285  0.79213602  0.50592971  1
  Hf  Hf38  1  0.88911429  0.68809469  0.63991750  1
  Hf  Hf39  1  0.78797291  0.21394268  0.75680019  1
  Zr  Zr40  1  0.39137257  -0.00443485  -0.00223437  1
  Zr  Zr41  1  0.10557169  0.90755310  0.85787961  1
  Zr  Zr42  1  0.81505537  0.41187312  0.76171134  1
  Zr  Zr43  1  0.38238359  -0.01641501  0.51071864  1
  Zr  Zr44  1  0.91080239  0.50946489  0.35392402  1
  Zr  Zr45  1  0.10051494  0.90337440  0.38125794  1
  Zr  Zr46  1  0.00786440  0.79220320  0.51074533  1
  Zr  Zr47  1  -0.00066276  0.00389709  0.51047370  1
  Zr  Zr48  1  0.40325352  -0.01535598  0.76054003  1
  Zr  Zr49  1  0.31416793  0.29387667  0.37118973  1
  Zr  Zr50  1  0.59308807  0.59168404  -0.01328317  1
  Zr  Zr51  1  0.69730141  0.70578506  0.11195707  1
  Zr  Zr52  1  0.90580829  0.30689414  0.62213731  1
  Zr  Zr53  1  0.70081443  0.10683449  0.10520586  1
  Zr  Zr54  1  0.19890693  0.21790867  0.50708552  1
  Zr  Zr55  1  0.61593074  0.39286336  0.75576144  1
  Zr  Zr56  1  0.18143159  0.59792935  0.51125339  1
  Zr  Zr57  1  -0.00174326  0.19894116  0.25236241  1
  Zr  Zr58  1  0.10441643  0.29758214  0.13352136  1
  Zr  Zr59  1  0.77549791  0.80555347  0.74820414  1
  Zr  Zr60  1  0.61222332  -0.00492589  0.24183172  1
  Zr  Zr61  1  0.38365232  0.00087456  0.23898592  1
  Zr  Zr62  1  0.68144727  0.10975762  0.62465454  1
  Zr  Zr63  1  0.22377964  0.39701498  0.25175091  1
  Zr  Zr64  1  0.88907259  0.91067700  0.38184987  1
  Zr  Zr65  1  0.48527992  0.10771595  0.35856193  1
  Zr  Zr66  1  0.08474161  0.70311131  0.12668210  1
  Zr  Zr67  1  0.49857125  0.89852954  0.36800688  1
  Zr  Zr68  1  0.10162615  0.49457891  0.87286013  1
  Zr  Zr69  1  0.11033730  0.50905474  0.13990790  1
  Zr  Zr70  1  0.29009276  0.09905303  0.86796454  1
  Zr  Zr71  1  0.39707030  0.17907495  0.50994802  1
  Zr  Zr72  1  0.60378840  0.78337414  0.24950690  1
  Zr  Zr73  1  0.90458673  0.52174214  0.13654840  1
  Zr  Zr74  1  0.91139258  0.30600510  0.88276962  1
  Zr  Zr75  1  0.70414593  0.90031066  0.89744557  1
  Zr  Zr76  1  0.90692292  0.71363249  0.85675279  1
  Zr  Zr77  1  0.29661361  0.68439407  0.12603314  1
  Zr  Zr78  1  0.68179999  0.50087636  0.13202859  1
  Zr  Zr79  1  0.59162290  0.00040352  0.49788891  1
  Ta  Ta80  1  0.30591019  0.69954640  0.61977592  1
  Ta  Ta81  1  0.21205842  0.39700787  0.00032349  1
  Ta  Ta82  1  0.39744218  0.78876292  0.00032947  1
  Ta  Ta83  1  0.20658767  0.18883328  0.24813987  1
  Ta  Ta84  1  0.70074272  0.51407117  0.36232941  1
  Ta  Ta85  1  0.31347764  0.49195916  0.12119433  1
  Ta  Ta86  1  0.28143457  0.68624519  0.38196952  1
  Ta  Ta87  1  -0.00747624  0.80851498  0.25160400  1
  Ta  Ta88  1  0.80137988  0.41828327  -0.00248085  1
  Ta  Ta89  1  0.39447126  0.20929197  0.22380018  1
  Ta  Ta90  1  0.79174029  0.62029186  0.24888414  1
  Ta  Ta91  1  0.61203311  0.40356290  0.50112519  1
  Ta  Ta92  1  0.11477778  0.91225762  0.63539529  1
  Ta  Ta93  1  0.79757978  0.39931235  0.24595316  1
  Ta  Ta94  1  0.01692727  0.38682138  0.74523371  1
  Ta  Ta95  1  0.90657208  0.89851614  0.64093691  1
  Ta  Ta96  1  0.69251627  0.30706672  0.90251757  1
  Ta  Ta97  1  0.40178117  0.59027352  0.48897545  1
  Ta  Ta98  1  0.39649235  0.59522047  0.75066229  1
  Ta  Ta99  1  0.49262366  0.68896439  0.62302010  1
  Ta  Ta100  1  0.21409105  0.80241789  0.74029296  1
  Ta  Ta101  1  0.00463065  0.60946504  -0.01000104  1
  Ta  Ta102  1  0.16739482  0.20024669  0.75417555  1
  Ta  Ta103  1  0.19188975  -0.00700316  0.00498109  1
  Ta  Ta104  1  0.20684398  0.80750455  0.51120487  1
  Ta  Ta105  1  -0.01881356  0.59476108  0.50789329  1
  Ta  Ta106  1  -0.00024223  0.19654400  0.00457896  1
  Ta  Ta107  1  0.79175274  0.59748947  0.77403034  1
  Ta  Ta108  1  0.30517753  0.49673687  0.87540237  1
  Ta  Ta109  1  0.40320716  0.39507502  -0.00016919  1
  Ta  Ta110  1  0.40054999  0.19918778  0.00991224  1
  Ta  Ta111  1  0.90285648  0.10413347  0.11984264  1
  Ta  Ta112  1  0.39149250  0.58298216  0.26523252  1
  Ta  Ta113  1  0.10150390  0.70322761  0.85855929  1
  Ta  Ta114  1  0.10424712  0.10440830  0.36890918  1
  Ta  Ta115  1  0.90897349  0.10790027  0.87275791  1
  Ta  Ta116  1  0.28780443  0.89201504  0.12339995  1
  Ta  Ta117  1  0.70483979  0.30457054  0.10422002  1
  Ta  Ta118  1  0.60610589  0.60467747  0.49303618  1
  Ta  Ta119  1  0.70299281  0.30763684  0.61821388  1
  Ti  Ti120  1  0.70914650  0.91510848  0.61203051  1
  Ti  Ti121  1  0.81578498  0.00637464  0.23889785  1
  Ti  Ti122  1  0.49229577  0.09045181  0.64276590  1
  Ti  Ti123  1  0.18585805  -0.00697863  0.24473114  1
  Ti  Ti124  1  0.01590562  0.02633516  0.74027527  1
  Ti  Ti125  1  0.57731901  0.00565475  -0.00958148  1
  Ti  Ti126  1  0.58843993  0.18824039  0.76797403  1
  Ti  Ti127  1  0.59074446  0.79372862  -0.01047200  1
  Ti  Ti128  1  0.19845242  0.59265487  -0.00643541  1
  Ti  Ti129  1  0.69506992  0.88651018  0.39022824  1
  Ti  Ti130  1  0.09390966  0.08650160  0.13137744  1
  Ti  Ti131  1  0.29395134  0.89782239  0.37394528  1
  Ti  Ti132  1  0.01227661  0.00631824  -0.00350264  1
  Ti  Ti133  1  0.59594500  -0.00503644  0.77005548  1
  Ti  Ti134  1  0.09400330  0.70120740  0.63872270  1
  Ti  Ti135  1  0.19618537  0.00930985  0.50418305  1
  Ti  Ti136  1  0.89738683  0.30712619  0.12283771  1
  Ti  Ti137  1  0.40258097  0.38791249  0.74934675  1
  Ti  Ti138  1  0.39369790  0.59313048  -0.00402423  1
  Ti  Ti139  1  -0.00682122  0.58209563  0.74762792  1
  Ti  Ti140  1  0.49445936  0.67522042  0.12820765  1
  Ti  Ti141  1  0.42175791  0.39300028  0.23989269  1
  Ti  Ti142  1  0.51293936  0.68666926  0.37214722  1
  Ti  Ti143  1  0.29429423  0.69127226  0.87246368  1
  Ti  Ti144  1  0.89887187  0.70146696  0.37568254  1
  Ti  Ti145  1  0.50984897  0.31456689  0.11256427  1
  Ti  Ti146  1  0.82825744  0.00559365  -0.00350024  1
  Ti  Ti147  1  0.30232316  0.88542775  0.87648005  1
  Ti  Ti148  1  0.49580289  0.28334493  0.88165986  1
  Ti  Ti149  1  0.40039620  0.78722698  0.75095622  1
  Ti  Ti150  1  0.90321180  0.09602831  0.37388424  1
  Ti  Ti151  1  0.28902843  0.09798557  0.12159454  1
  Ti  Ti152  1  0.30148609  0.29813316  0.87305461  1
  Ti  Ti153  1  0.91489055  0.31131391  0.36388485  1
  Ti  Ti154  1  0.48268914  0.69914874  0.87805101  1
  Ti  Ti155  1  0.58537713  0.80447009  0.77425109  1
  Ti  Ti156  1  0.91551545  0.90701244  0.12508039  1
  Ti  Ti157  1  0.49936081  0.09947704  0.12427478  1
  Ti  Ti158  1  0.29160028  0.09156554  0.36967167  1
  Ti  Ti159  1  0.69249041  0.31847694  0.36918523  1
  Mo  Mo160  1  0.79951267  -0.00082712  0.50339080  1
  Mo  Mo161  1  0.89370191  0.71465922  0.12759466  1
  Mo  Mo162  1  0.30600841  0.88822249  0.62830990  1
  Mo  Mo163  1  0.19972803  -0.00313967  0.75193166  1
  Mo  Mo164  1  0.30645675  0.49763612  0.39068932  1
  Mo  Mo165  1  0.21190754  0.60522548  0.25485011  1
  Mo  Mo166  1  0.08849738  0.10287131  0.87914550  1
  Mo  Mo167  1  0.69215281  0.70699809  0.88343701  1
  Mo  Mo168  1  0.90985853  0.50693759  0.88163032  1
  Mo  Mo169  1  0.48846434  0.50356706  0.12595109  1
  Mo  Mo170  1  0.01041353  0.80171051  0.73399762  1
  Mo  Mo171  1  0.90827578  0.50294686  0.62724911  1
  Mo  Mo172  1  0.30628986  0.29297364  0.64140889  1
  Mo  Mo173  1  0.81150333  0.81258584  0.00022505  1
  Mo  Mo174  1  0.10843348  0.29727629  0.62638530  1
  Mo  Mo175  1  0.00297758  0.62586645  0.25707432  1
  Mo  Mo176  1  0.59645944  0.79219872  0.49594913  1
  Mo  Mo177  1  -0.00186866  -0.00051494  0.24975665  1
  Mo  Mo178  1  0.81158748  0.20999666  0.00338721  1
  Mo  Mo179  1  0.58599174  0.20199994  0.00643015  1
  Mo  Mo180  1  -0.00876965  0.20410881  0.75009224  1
  Mo  Mo181  1  0.60821066  0.39841623  0.24375119  1
  Mo  Mo182  1  0.10114197  0.90700207  0.12526679  1
  Mo  Mo183  1  -0.00317354  0.40030894  0.24412050  1
  Mo  Mo184  1  0.58853920  0.59765185  0.25452570  1
  Mo  Mo185  1  0.10225096  0.30047452  0.35899560  1
  Mo  Mo186  1  0.80037681  0.60227676  0.49210338  1
  Mo  Mo187  1  0.59263623  0.39835464  -0.00293260  1
  Mo  Mo188  1  0.49353528  0.89030777  0.88440036  1
  Mo  Mo189  1  0.30657332  0.29721407  0.11836171  1
  Mo  Mo190  1  0.49651906  0.10308087  0.87704482  1
  Mo  Mo191  1  0.08711965  0.70027087  0.37796902  1
  Mo  Mo192  1  0.09173420  0.10527810  0.62227255  1
  Mo  Mo193  1  0.10874600  0.29424003  0.88306983  1
  Mo  Mo194  1  0.50484633  0.29749798  0.36732493  1
  Mo  Mo195  1  0.70663304  0.69778054  0.37702912  1
  Mo  Mo196  1  0.39187774  0.20476599  0.75456580  1
  Mo  Mo197  1  0.20992825  0.40119994  0.49866504  1
  Mo  Mo198  1  0.70475459  0.49816604  0.88353493  1
  Mo  Mo199  1  0.09174001  0.49843606  0.63133165  1
