# generated using pymatgen
data_HfZrTaTiMo
_symmetry_space_group_name_H-M   'P 1'
_cell_length_a   15.18063545
_cell_length_b   15.19345918
_cell_length_c   16.78556749
_cell_angle_alpha   89.98797185
_cell_angle_beta   89.92692005
_cell_angle_gamma   90.07718023
_symmetry_Int_Tables_number   1
_chemical_formula_structural   HfZrTaTiMo
_chemical_formula_sum   'Hf40 Zr40 Ta40 Ti40 Mo40'
_cell_volume   3871.52337776
_cell_formula_units_Z   40
loop_
 _symmetry_equiv_pos_site_id
 _symmetry_equiv_pos_as_xyz
  1  'x, y, z'
loop_
 _atom_site_type_symbol
 _atom_site_label
 _atom_site_symmetry_multiplicity
 _atom_site_fract_x
 _atom_site_fract_y
 _atom_site_fract_z
 _atom_site_occupancy
  Hf  Hf0  1  0.89980424  0.50954051  0.87281633  1
  Hf  Hf1  1  0.79431986  -0.01165702  0.25825062  1
  Hf  Hf2  1  0.68945878  0.71084096  0.12157168  1
  Hf  Hf3  1  0.40289881  0.39410236  0.47784714  1
  Hf  Hf4  1  0.47908603  0.90423512  0.63586202  1
  Hf  Hf5  1  0.21736808  0.20382685  0.49901668  1
  Hf  Hf6  1  0.69242449  0.29165575  0.63506408  1
  Hf  Hf7  1  0.81017376  0.20646668  0.50514918  1
  Hf  Hf8  1  0.40690827  0.59957370  0.50167531  1
  Hf  Hf9  1  0.50380389  0.89787488  0.12748528  1
  Hf  Hf10  1  0.30087750  0.10523144  0.35708002  1
  Hf  Hf11  1  0.58522842  0.59997022  0.00128322  1
  Hf  Hf12  1  0.79290912  0.18999614  -0.01805968  1
  Hf  Hf13  1  0.81255411  0.19249214  0.25021172  1
  Hf  Hf14  1  0.20567197  0.00620172  -0.00008861  1
  Hf  Hf15  1  0.69323118  0.49345993  0.87589190  1
  Hf  Hf16  1  0.59788886  0.80292245  0.25861985  1
  Hf  Hf17  1  0.19356073  0.59608508  0.75169763  1
  Hf  Hf18  1  0.71357977  0.30606825  0.37296144  1
  Hf  Hf19  1  0.21002532  0.21187508  0.75533992  1
  Hf  Hf20  1  0.71286691  0.90394986  0.87403447  1
  Hf  Hf21  1  0.22874803  0.21204852  -0.00077246  1
  Hf  Hf22  1  0.68986674  0.50956159  0.37455142  1
  Hf  Hf23  1  0.69504293  0.10261180  0.37635364  1
  Hf  Hf24  1  0.01568978  0.40391552  0.26211790  1
  Hf  Hf25  1  0.18923927  0.79601763  0.00073005  1
  Hf  Hf26  1  0.31169333  0.10508312  0.63611324  1
  Hf  Hf27  1  0.89215013  0.50743067  0.37650395  1
  Hf  Hf28  1  0.90651587  0.29945112  0.63507730  1
  Hf  Hf29  1  0.11037833  0.31427502  0.12033469  1
  Hf  Hf30  1  0.10593723  0.10184410  0.86822344  1
  Hf  Hf31  1  0.90917780  0.09121388  0.38780713  1
  Hf  Hf32  1  0.29304800  0.69054871  0.13341911  1
  Hf  Hf33  1  0.59194291  0.80405202  -0.01477887  1
  Hf  Hf34  1  0.70565274  0.69514281  0.87222446  1
  Hf  Hf35  1  0.79716470  0.79477933  0.25611482  1
  Hf  Hf36  1  0.20195197  0.60312037  0.48235085  1
  Hf  Hf37  1  0.39235345  0.79215374  -0.00667464  1
  Hf  Hf38  1  0.67863484  0.89163568  0.61060840  1
  Hf  Hf39  1  0.48457957  0.68948378  0.85427726  1
  Zr  Zr40  1  0.41863098  0.19984964  0.48752633  1
  Zr  Zr41  1  0.08623844  0.70321426  0.86350168  1
  Zr  Zr42  1  0.91393468  0.50217247  0.63538627  1
  Zr  Zr43  1  0.00596879  0.39717862  0.48898963  1
  Zr  Zr44  1  0.80379499  0.40342442  0.24188688  1
  Zr  Zr45  1  0.08660235  0.91323295  0.38936042  1
  Zr  Zr46  1  0.30173392  0.90521989  0.13736749  1
  Zr  Zr47  1  0.60069575  0.40077564  0.50360808  1
  Zr  Zr48  1  0.68704139  0.89907049  0.39958467  1
  Zr  Zr49  1  0.79071974  0.59398911  0.01568989  1
  Zr  Zr50  1  0.00556796  0.19865270  -0.00608195  1
  Zr  Zr51  1  0.39390210  0.79353917  0.26821308  1
  Zr  Zr52  1  0.40201955  0.80108387  0.48712802  1
  Zr  Zr53  1  0.88560286  0.89892971  0.11424140  1
  Zr  Zr54  1  0.18572519  0.80252569  0.26279588  1
  Zr  Zr55  1  0.10246149  0.68616576  0.62048574  1
  Zr  Zr56  1  0.51031197  0.11316420  0.64345907  1
  Zr  Zr57  1  0.91198721  0.48731072  0.11818216  1
  Zr  Zr58  1  0.40347558  0.00245439  -0.00378202  1
  Zr  Zr59  1  -0.00172010  0.62343160  0.01179910  1
  Zr  Zr60  1  0.09851753  0.90339354  0.87037682  1
  Zr  Zr61  1  0.18698079  0.59780348  0.26221398  1
  Zr  Zr62  1  0.21630415  0.40412486  0.76964194  1
  Zr  Zr63  1  0.32548820  0.10644064  0.86256204  1
  Zr  Zr64  1  0.90329198  0.08489633  0.86327584  1
  Zr  Zr65  1  0.48816825  0.48893589  0.63662831  1
  Zr  Zr66  1  0.49127508  0.49310964  0.12123931  1
  Zr  Zr67  1  0.61367564  0.58952298  0.73736095  1
  Zr  Zr68  1  0.70019398  0.69874911  0.39178121  1
  Zr  Zr69  1  -0.01293839  0.80176699  0.25931464  1
  Zr  Zr70  1  0.47457941  0.48448174  0.87492192  1
  Zr  Zr71  1  0.50252740  0.28959851  0.12378966  1
  Zr  Zr72  1  0.90818981  0.28672398  0.11847944  1
  Zr  Zr73  1  0.01430675  0.40311164  0.76103927  1
  Zr  Zr74  1  0.79432275  0.79546206  0.72948548  1
  Zr  Zr75  1  0.08931612  0.89961444  0.12172805  1
  Zr  Zr76  1  0.28348163  0.49484932  0.61646395  1
  Zr  Zr77  1  0.70057754  0.09862557  0.12437807  1
  Zr  Zr78  1  0.90622605  0.88822098  0.87101776  1
  Zr  Zr79  1  0.11909954  0.31493182  0.61999975  1
  Ta  Ta80  1  0.20195660  0.60313715  0.00022901  1
  Ta  Ta81  1  0.30779575  0.70604133  0.63059422  1
  Ta  Ta82  1  0.49961134  0.67254915  0.36910898  1
  Ta  Ta83  1  0.01778325  0.18991378  0.24919636  1
  Ta  Ta84  1  0.70049889  0.30023980  0.11933165  1
  Ta  Ta85  1  0.79720659  0.19895238  0.75982534  1
  Ta  Ta86  1  0.79846519  0.39076248  -0.00448214  1
  Ta  Ta87  1  0.88700043  0.89472036  0.40486006  1
  Ta  Ta88  1  0.59484271  0.80227921  0.75481155  1
  Ta  Ta89  1  0.19926046  0.80626594  0.49545272  1
  Ta  Ta90  1  0.30787717  0.10958337  0.14034981  1
  Ta  Ta91  1  0.49991212  0.70791872  0.63628717  1
  Ta  Ta92  1  0.38407722  0.00617372  0.49697402  1
  Ta  Ta93  1  0.30927270  0.30394829  0.14538643  1
  Ta  Ta94  1  -0.00599155  0.79726688  0.51587037  1
  Ta  Ta95  1  0.48515566  0.90453444  0.85861839  1
  Ta  Ta96  1  0.57849233  0.00827450  0.50353665  1
  Ta  Ta97  1  0.10966387  0.09863825  0.62879771  1
  Ta  Ta98  1  0.59630174  0.19483387  -0.01673942  1
  Ta  Ta99  1  0.79302329  0.00858908  0.52107304  1
  Ta  Ta100  1  0.10383314  0.10030829  0.38161283  1
  Ta  Ta101  1  0.58603655  0.01095228  0.25607352  1
  Ta  Ta102  1  0.79416176  0.60138176  0.23473224  1
  Ta  Ta103  1  0.50320094  0.09456797  0.12422828  1
  Ta  Ta104  1  0.60978959  0.19698987  0.50239929  1
  Ta  Ta105  1  0.78794973  0.40211795  0.75313748  1
  Ta  Ta106  1  0.79916723  0.00133577  0.72608593  1
  Ta  Ta107  1  0.32104726  0.51678120  0.36134793  1
  Ta  Ta108  1  0.58523493  0.37703600  0.75802229  1
  Ta  Ta109  1  0.00058479  0.80488347  0.72250445  1
  Ta  Ta110  1  -0.01128767  0.60926963  0.24509980  1
  Ta  Ta111  1  -0.00966733  0.00467990  0.25117306  1
  Ta  Ta112  1  0.20709705  -0.00655041  0.74868954  1
  Ta  Ta113  1  0.60777739  0.00078883  0.75771869  1
  Ta  Ta114  1  0.01342820  0.19487298  0.50559645  1
  Ta  Ta115  1  0.60409983  0.00716736  -0.01800043  1
  Ta  Ta116  1  0.28708250  0.90381933  0.61875768  1
  Ta  Ta117  1  0.20781259  0.40441379  0.46602046  1
  Ta  Ta118  1  0.18235666  0.01618608  0.24554369  1
  Ta  Ta119  1  0.79351621  0.59450587  0.52105652  1
  Ti  Ti120  1  0.90335930  0.09112759  0.11900187  1
  Ti  Ti121  1  0.28671202  0.91366020  0.37293982  1
  Ti  Ti122  1  0.42220128  0.19167522  0.25631369  1
  Ti  Ti123  1  0.32567149  0.30549200  0.62484077  1
  Ti  Ti124  1  0.08288007  0.70093257  0.38531789  1
  Ti  Ti125  1  0.10472217  0.30783214  0.88968885  1
  Ti  Ti126  1  0.69370697  0.90803645  0.11294765  1
  Ti  Ti127  1  0.89529585  0.69564274  0.62503180  1
  Ti  Ti128  1  0.80116818  0.40440484  0.50949782  1
  Ti  Ti129  1  0.60031826  0.39078235  -0.00372848  1
  Ti  Ti130  1  0.00463589  -0.00615362  0.72858376  1
  Ti  Ti131  1  0.59819299  0.60149893  0.51718405  1
  Ti  Ti132  1  -0.00374963  -0.00444427  -0.00105160  1
  Ti  Ti133  1  0.38399900  0.59040420  0.00150950  1
  Ti  Ti134  1  0.10120410  0.10656360  0.12060579  1
  Ti  Ti135  1  0.90143550  0.30646231  0.87228451  1
  Ti  Ti136  1  0.48921218  0.69923897  0.13073959  1
  Ti  Ti137  1  -0.00077064  0.59266981  0.49882957  1
  Ti  Ti138  1  0.41349148  0.40190438  0.26384861  1
  Ti  Ti139  1  0.48908920  0.91568984  0.37396016  1
  Ti  Ti140  1  0.19958645  0.80598035  0.74357827  1
  Ti  Ti141  1  0.59734672  0.59291512  0.23795413  1
  Ti  Ti142  1  0.81097056  0.79031514  -0.00128879  1
  Ti  Ti143  1  0.20920918  0.39930495  0.26757665  1
  Ti  Ti144  1  0.89132400  0.69994283  0.39242129  1
  Ti  Ti145  1  0.48000859  0.28735236  0.88824076  1
  Ti  Ti146  1  0.29427257  0.70087760  0.86489635  1
  Ti  Ti147  1  0.11414529  0.28582403  0.37029395  1
  Ti  Ti148  1  0.00424777  0.00046207  0.52189022  1
  Ti  Ti149  1  0.90448165  0.10608281  0.63023647  1
  Ti  Ti150  1  0.21414006  0.41352384  -0.00293830  1
  Ti  Ti151  1  0.89732624  0.69907400  0.85752822  1
  Ti  Ti152  1  0.29738331  0.49177602  0.13660613  1
  Ti  Ti153  1  0.52202383  0.28996233  0.36052267  1
  Ti  Ti154  1  0.60645720  0.19693588  0.77628396  1
  Ti  Ti155  1  0.60712816  0.39924063  0.24275148  1
  Ti  Ti156  1  0.10762267  0.50845410  0.12026867  1
  Ti  Ti157  1  0.91440144  0.29085696  0.37378044  1
  Ti  Ti158  1  0.00553068  0.19997700  0.75143050  1
  Ti  Ti159  1  0.09858896  0.50561854  0.89044127  1
  Mo  Mo160  1  0.70244517  0.10116561  0.63020341  1
  Mo  Mo161  1  0.10562759  0.90081613  0.61937072  1
  Mo  Mo162  1  0.69264496  0.48965229  0.11793060  1
  Mo  Mo163  1  0.39749212  0.00007676  0.75049608  1
  Mo  Mo164  1  0.29699418  0.89177323  0.86819967  1
  Mo  Mo165  1  0.19834649  0.20648499  0.24193397  1
  Mo  Mo166  1  0.49952990  0.29637045  0.62717009  1
  Mo  Mo167  1  0.89833075  0.90362488  0.61106464  1
  Mo  Mo168  1  0.39701216  -0.00009253  0.24979448  1
  Mo  Mo169  1  0.31063787  0.30259168  0.35213702  1
  Mo  Mo170  1  0.50482483  0.09670818  0.37628127  1
  Mo  Mo171  1  0.50706388  0.09847137  0.86591523  1
  Mo  Mo172  1  0.29632068  0.70541757  0.37549239  1
  Mo  Mo173  1  0.89502033  0.70307222  0.13141763  1
  Mo  Mo174  1  -0.00337832  0.60687481  0.74926262  1
  Mo  Mo175  1  0.60956235  0.20393760  0.24831044  1
  Mo  Mo176  1  0.79879357  -0.00324672  -0.00013569  1
  Mo  Mo177  1  0.29801602  0.51657891  0.88266907  1
  Mo  Mo178  1  0.51331396  0.49552300  0.36662442  1
  Mo  Mo179  1  0.70329680  0.49046885  0.63028305  1
  Mo  Mo180  1  0.40358025  0.59487777  0.24410410  1
  Mo  Mo181  1  0.40745811  0.19492634  0.01128534  1
  Mo  Mo182  1  0.00665443  0.40380578  -0.01316239  1
  Mo  Mo183  1  0.10593655  0.49635141  0.61534826  1
  Mo  Mo184  1  0.31102365  0.31448999  0.88518259  1
  Mo  Mo185  1  0.79703179  0.79337119  0.51650988  1
  Mo  Mo186  1  0.38257984  0.80328451  0.75057096  1
  Mo  Mo187  1  0.80308457  0.59621472  0.73825837  1
  Mo  Mo188  1  0.09611809  0.69622227  0.12888283  1
  Mo  Mo189  1  0.38386140  0.38887382  0.00944091  1
  Mo  Mo190  1  0.57739344  0.79204592  0.49625473  1
  Mo  Mo191  1  0.09620440  0.50350079  0.37143223  1
  Mo  Mo192  1  0.70590759  0.09512039  0.86862707  1
  Mo  Mo193  1  0.69785813  0.30307047  0.87317722  1
  Mo  Mo194  1  0.39611998  0.39657689  0.75283237  1
  Mo  Mo195  1  -0.00610749  0.80106496  -0.00078459  1
  Mo  Mo196  1  0.38840841  0.60141154  0.74330736  1
  Mo  Mo197  1  0.41616532  0.22422055  0.75181040  1
  Mo  Mo198  1  0.69078258  0.69839387  0.61473932  1
  Mo  Mo199  1  0.20095879  0.00904980  0.50272820  1
