# generated using pymatgen
data_HfZrTaTiMo
_symmetry_space_group_name_H-M   'P 1'
_cell_length_a   15.17329823
_cell_length_b   15.17448523
_cell_length_c   16.84010841
_cell_angle_alpha   90.03511010
_cell_angle_beta   90.04372708
_cell_angle_gamma   90.06256982
_symmetry_Int_Tables_number   1
_chemical_formula_structural   HfZrTaTiMo
_chemical_formula_sum   'Hf40 Zr40 Ta40 Ti40 Mo40'
_cell_volume   3877.38009970
_cell_formula_units_Z   40
loop_
 _symmetry_equiv_pos_site_id
 _symmetry_equiv_pos_as_xyz
  1  'x, y, z'
loop_
 _atom_site_type_symbol
 _atom_site_label
 _atom_site_symmetry_multiplicity
 _atom_site_fract_x
 _atom_site_fract_y
 _atom_site_fract_z
 _atom_site_occupancy
  Hf  Hf0  1  -0.00840880  0.60136187  0.24590277  1
  Hf  Hf1  1  0.00096566  0.58535360  0.49693169  1
  Hf  Hf2  1  0.20814863  0.20155751  0.00803337  1
  Hf  Hf3  1  0.20838783  0.39565423  0.23321235  1
  Hf  Hf4  1  0.09516194  0.29529477  0.36573036  1
  Hf  Hf5  1  0.38916101  0.78388515  -0.01088476  1
  Hf  Hf6  1  0.92655961  0.29821820  0.88229665  1
  Hf  Hf7  1  0.20287768  0.00555755  0.76031807  1
  Hf  Hf8  1  0.50067527  0.29976604  0.87594229  1
  Hf  Hf9  1  0.39337768  0.41627319  0.51238071  1
  Hf  Hf10  1  0.88977971  0.08750087  0.37268752  1
  Hf  Hf11  1  0.70586399  0.70890579  0.87760041  1
  Hf  Hf12  1  0.81147538  0.79615987  0.00332127  1
  Hf  Hf13  1  0.69198284  0.50938451  0.86881591  1
  Hf  Hf14  1  0.70023819  0.48622428  0.63706231  1
  Hf  Hf15  1  -0.00810659  -0.01053566  0.50708761  1
  Hf  Hf16  1  0.52555138  0.69695282  0.37333890  1
  Hf  Hf17  1  0.30597386  0.51256101  0.88458337  1
  Hf  Hf18  1  0.50403652  0.68282329  0.87584576  1
  Hf  Hf19  1  0.00648155  0.78779758  0.00306253  1
  Hf  Hf20  1  0.68921857  0.70501361  0.61531176  1
  Hf  Hf21  1  0.09195200  0.90002810  0.37833413  1
  Hf  Hf22  1  -0.00341728  -0.00096984  0.24396595  1
  Hf  Hf23  1  0.70413590  0.91438100  0.88766613  1
  Hf  Hf24  1  0.68516878  0.10766346  0.11789093  1
  Hf  Hf25  1  0.79462068  0.21086142  0.00207968  1
  Hf  Hf26  1  0.88648992  0.08488887  0.89140312  1
  Hf  Hf27  1  0.18096168  0.20124716  0.51610107  1
  Hf  Hf28  1  0.09049108  0.48223877  0.88945658  1
  Hf  Hf29  1  0.10342079  0.69945231  0.61818650  1
  Hf  Hf30  1  0.29824236  0.89030226  0.12401454  1
  Hf  Hf31  1  0.80409114  0.41389337  -0.00164990  1
  Hf  Hf32  1  0.00802346  0.57897277  0.74474657  1
  Hf  Hf33  1  0.10477163  0.90818618  0.62816282  1
  Hf  Hf34  1  0.80237953  0.19143099  0.76304792  1
  Hf  Hf35  1  0.17562150  0.20716922  0.74759490  1
  Hf  Hf36  1  0.71558430  0.89368640  0.37373518  1
  Hf  Hf37  1  0.09200351  0.10165430  0.37368307  1
  Hf  Hf38  1  0.29115977  0.30859817  0.37741054  1
  Hf  Hf39  1  0.40804947  0.81440612  0.26164425  1
  Zr  Zr40  1  0.61838611  0.79465591  0.24500120  1
  Zr  Zr41  1  0.21558263  0.82047883  0.49368042  1
  Zr  Zr42  1  0.39790048  0.41012869  0.74475583  1
  Zr  Zr43  1  0.91001202  0.49144729  0.62068069  1
  Zr  Zr44  1  0.87917624  0.29734210  0.62898937  1
  Zr  Zr45  1  0.20403254  -0.00522507  -0.00590592  1
  Zr  Zr46  1  0.50121771  0.29406711  0.12258982  1
  Zr  Zr47  1  0.18765237  0.40701740  0.74461734  1
  Zr  Zr48  1  0.89959710  0.30043473  0.35884225  1
  Zr  Zr49  1  0.09981850  0.69434992  0.38150880  1
  Zr  Zr50  1  0.32319030  0.09430056  0.12879505  1
  Zr  Zr51  1  0.11188070  0.69011926  0.86669408  1
  Zr  Zr52  1  0.51595880  0.88935385  0.62793960  1
  Zr  Zr53  1  0.89326715  0.09295989  0.62512973  1
  Zr  Zr54  1  -0.00794429  0.00988413  0.74921549  1
  Zr  Zr55  1  0.28946364  0.10523201  0.37640447  1
  Zr  Zr56  1  0.31639370  0.69170886  0.37627908  1
  Zr  Zr57  1  0.49778539  0.69822062  0.12584234  1
  Zr  Zr58  1  0.79942416  0.40101923  0.48692928  1
  Zr  Zr59  1  0.58866179  -0.00447643  0.25572415  1
  Zr  Zr60  1  0.51882097  0.31342545  0.62893637  1
  Zr  Zr61  1  0.49959739  0.50346820  0.36626538  1
  Zr  Zr62  1  0.39374632  0.20369617  0.51259978  1
  Zr  Zr63  1  0.50277416  0.90428129  0.87982250  1
  Zr  Zr64  1  0.69205408  0.10283676  0.62355006  1
  Zr  Zr65  1  0.22018752  0.58509590  0.50801376  1
  Zr  Zr66  1  0.58628870  0.19889089  0.25687045  1
  Zr  Zr67  1  0.32138121  0.70742843  0.61757595  1
  Zr  Zr68  1  0.48876660  0.30546930  0.37059757  1
  Zr  Zr69  1  0.38783577  0.19821949  0.74666211  1
  Zr  Zr70  1  0.10306904  0.48835255  0.36740468  1
  Zr  Zr71  1  0.80195673  0.61373881  0.74550788  1
  Zr  Zr72  1  0.49043624  0.09057357  0.62523008  1
  Zr  Zr73  1  0.08580335  0.11996109  0.89018789  1
  Zr  Zr74  1  0.49001395  0.91894990  0.10970511  1
  Zr  Zr75  1  0.60305668  0.20536012  0.48993308  1
  Zr  Zr76  1  0.09324889  0.89445385  0.86932737  1
  Zr  Zr77  1  0.20394082  0.60738357  0.01123771  1
  Zr  Zr78  1  0.19766788  0.79481786  0.25603506  1
  Zr  Zr79  1  0.69970630  0.90638952  0.11210717  1
  Ta  Ta80  1  0.89229545  0.09334385  0.11611003  1
  Ta  Ta81  1  0.69802226  0.30912708  0.87150380  1
  Ta  Ta82  1  0.59475057  -0.01446297  0.49027598  1
  Ta  Ta83  1  0.20941687  0.59223881  0.23959625  1
  Ta  Ta84  1  0.41756794  0.18318904  -0.00924361  1
  Ta  Ta85  1  0.19858645  0.79608315  0.00129097  1
  Ta  Ta86  1  0.89375586  0.88658822  0.86692062  1
  Ta  Ta87  1  0.42674468  0.80825736  0.48972970  1
  Ta  Ta88  1  0.60426584  0.41274685  0.49596596  1
  Ta  Ta89  1  0.28092474  0.08833540  0.62331222  1
  Ta  Ta90  1  0.81371813  0.40364005  0.76770724  1
  Ta  Ta91  1  0.48403860  0.09103127  0.37958811  1
  Ta  Ta92  1  0.10014135  0.50218779  0.12491472  1
  Ta  Ta93  1  0.79135198  0.20086769  0.48855319  1
  Ta  Ta94  1  0.38636590  -0.01009363  0.49680145  1
  Ta  Ta95  1  0.70097434  0.31043637  0.13841836  1
  Ta  Ta96  1  0.60372651  0.59387690  0.01011106  1
  Ta  Ta97  1  0.90851828  0.68946787  0.87213326  1
  Ta  Ta98  1  -0.00372847  0.40072418  0.23000451  1
  Ta  Ta99  1  0.61287678  0.79953882  0.75256041  1
  Ta  Ta100  1  -0.00980555  0.79058865  0.74112188  1
  Ta  Ta101  1  0.21507285  0.59784707  0.73653807  1
  Ta  Ta102  1  0.40619336  0.79578467  0.75711708  1
  Ta  Ta103  1  0.31197741  0.90450976  0.63311453  1
  Ta  Ta104  1  0.10057937  0.29384259  0.12245142  1
  Ta  Ta105  1  -0.01461016  0.20420584  0.49956547  1
  Ta  Ta106  1  0.20216988  -0.00372687  0.24724780  1
  Ta  Ta107  1  0.89974609  0.70508708  0.61270296  1
  Ta  Ta108  1  0.69654942  0.31294717  0.35362397  1
  Ta  Ta109  1  -0.00254508  0.39628016  0.02169777  1
  Ta  Ta110  1  0.68341397  0.10985121  0.88224929  1
  Ta  Ta111  1  0.79688290  0.19284727  0.24422462  1
  Ta  Ta112  1  -0.01342021  0.59081988  0.01290164  1
  Ta  Ta113  1  0.09793199  0.89734541  0.12586147  1
  Ta  Ta114  1  0.71184712  0.69345863  0.12206290  1
  Ta  Ta115  1  0.60172491  0.20764923  0.75083098  1
  Ta  Ta116  1  0.90001386  0.89529146  0.12533449  1
  Ta  Ta117  1  0.29406028  0.30577415  0.88429508  1
  Ta  Ta118  1  -0.01378258  0.79878643  0.24827694  1
  Ta  Ta119  1  0.19977135  0.19404385  0.23526284  1
  Ti  Ti120  1  0.60081847  0.79247808  0.00384312  1
  Ti  Ti121  1  0.40217491  -0.00418610  0.75594024  1
  Ti  Ti122  1  0.57523323  0.03130185  -0.00648369  1
  Ti  Ti123  1  0.48670890  0.49727672  0.11603297  1
  Ti  Ti124  1  0.42946881  0.60646304  0.50844381  1
  Ti  Ti125  1  0.69928070  0.49961703  0.12711093  1
  Ti  Ti126  1  0.79911888  0.61416657  0.24968715  1
  Ti  Ti127  1  0.89449741  0.50570494  0.37057414  1
  Ti  Ti128  1  0.80407278  0.60103969  0.00260561  1
  Ti  Ti129  1  0.29069056  0.30511013  0.62662435  1
  Ti  Ti130  1  0.51446417  0.51989225  0.63143665  1
  Ti  Ti131  1  0.79398123  0.59846064  0.49871594  1
  Ti  Ti132  1  0.31403001  0.30135289  0.11814856  1
  Ti  Ti133  1  0.59937609  0.58902977  0.23533414  1
  Ti  Ti134  1  0.30816634  0.68766527  0.13234422  1
  Ti  Ti135  1  0.69517210  0.50833033  0.36448684  1
  Ti  Ti136  1  0.40238580  0.40775514  0.24122140  1
  Ti  Ti137  1  -0.00881031  -0.01210141  0.00469717  1
  Ti  Ti138  1  0.09987069  0.70290728  0.13155410  1
  Ti  Ti139  1  0.80860193  0.81619922  0.50872758  1
  Ti  Ti140  1  0.69496482  0.10121077  0.37228432  1
  Ti  Ti141  1  0.31106980  0.10096316  0.87722593  1
  Ti  Ti142  1  0.60864130  0.00334530  0.75330778  1
  Ti  Ti143  1  0.30566039  0.50086162  0.36753923  1
  Ti  Ti144  1  0.29798435  0.88977044  0.87098252  1
  Ti  Ti145  1  0.71478145  0.69746957  0.38420285  1
  Ti  Ti146  1  0.09655275  0.09282341  0.11751111  1
  Ti  Ti147  1  0.89405340  0.29828915  0.12970028  1
  Ti  Ti148  1  0.50083435  0.49256236  0.88395099  1
  Ti  Ti149  1  0.06950083  0.30953731  0.62471887  1
  Ti  Ti150  1  0.18412522  0.40126235  0.51456838  1
  Ti  Ti151  1  0.40534850  0.60478562  0.74400054  1
  Ti  Ti152  1  0.20812728  0.79570597  0.74619851  1
  Ti  Ti153  1  0.90047238  0.71808433  0.38880245  1
  Ti  Ti154  1  0.79859261  -0.00981068  0.24547252  1
  Ti  Ti155  1  0.79043074  0.00051928  0.50139593  1
  Ti  Ti156  1  0.80052770  0.41475287  0.24561613  1
  Ti  Ti157  1  0.60255955  0.39751489  0.00488593  1
  Ti  Ti158  1  0.20749687  0.40306777  0.01474795  1
  Ti  Ti159  1  -0.00321170  0.19512660  0.23314114  1
  Mo  Mo160  1  0.39710071  0.39322954  -0.00272819  1
  Mo  Mo161  1  0.78442502  -0.01035061  0.75375683  1
  Mo  Mo162  1  0.59155924  0.60507304  0.75074265  1
  Mo  Mo163  1  0.11149048  0.30427535  0.89807835  1
  Mo  Mo164  1  0.50646636  0.90109111  0.37977104  1
  Mo  Mo165  1  0.70070094  0.30189565  0.63341254  1
  Mo  Mo166  1  0.40754526  0.59121223  0.00062030  1
  Mo  Mo167  1  0.39250378  -0.00139518  -0.01661478  1
  Mo  Mo168  1  -0.00492675  0.79664716  0.50882521  1
  Mo  Mo169  1  0.38371058  0.21181323  0.25285004  1
  Mo  Mo170  1  0.61636732  0.79836864  0.49445562  1
  Mo  Mo171  1  0.89104822  0.89284120  0.63482529  1
  Mo  Mo172  1  0.50840084  0.70110697  0.62928728  1
  Mo  Mo173  1  0.31025228  0.50141448  0.62747901  1
  Mo  Mo174  1  0.61305170  0.59100674  0.49655466  1
  Mo  Mo175  1  0.39922209  0.59703884  0.24561691  1
  Mo  Mo176  1  0.30600570  0.91180300  0.37094152  1
  Mo  Mo177  1  0.10436335  0.49520909  0.62160704  1
  Mo  Mo178  1  0.79826892  0.00016445  0.00509665  1
  Mo  Mo179  1  0.80183670  0.80728554  0.74583111  1
  Mo  Mo180  1  -0.00317296  0.20869545  0.75204177  1
  Mo  Mo181  1  0.81086364  0.79232361  0.24763756  1
  Mo  Mo182  1  0.30312445  0.70172519  0.86194166  1
  Mo  Mo183  1  0.50070395  0.10252204  0.85949303  1
  Mo  Mo184  1  0.90083912  0.69593000  0.12621360  1
  Mo  Mo185  1  0.60330713  0.21346273  -0.00416506  1
  Mo  Mo186  1  0.00212319  0.38863729  0.49313780  1
  Mo  Mo187  1  0.49666641  0.10304736  0.12552078  1
  Mo  Mo188  1  0.09100333  0.10799049  0.62317272  1
  Mo  Mo189  1  -0.00198221  0.19681218  0.02374220  1
  Mo  Mo190  1  0.70935022  0.90717051  0.62522835  1
  Mo  Mo191  1  0.89859862  0.89363229  0.37449154  1
  Mo  Mo192  1  0.88759488  0.49995187  0.13221569  1
  Mo  Mo193  1  0.30926511  0.49729458  0.11929175  1
  Mo  Mo194  1  0.19771408  0.00356750  0.50510930  1
  Mo  Mo195  1  0.90065944  0.50425255  0.87891986  1
  Mo  Mo196  1  0.60400407  0.41057400  0.23889489  1
  Mo  Mo197  1  0.00236706  0.38427835  0.75557451  1
  Mo  Mo198  1  0.39328998  0.00526524  0.26143899  1
  Mo  Mo199  1  0.60342531  0.40686045  0.75831808  1
