# generated using pymatgen
data_HfZrTaTiMo
_symmetry_space_group_name_H-M   'P 1'
_cell_length_a   15.17496307
_cell_length_b   15.17546678
_cell_length_c   16.81844560
_cell_angle_alpha   89.98728844
_cell_angle_beta   90.04655338
_cell_angle_gamma   89.96723535
_symmetry_Int_Tables_number   1
_chemical_formula_structural   HfZrTaTiMo
_chemical_formula_sum   'Hf40 Zr40 Ta40 Ti40 Mo40'
_cell_volume   3873.06986197
_cell_formula_units_Z   40
loop_
 _symmetry_equiv_pos_site_id
 _symmetry_equiv_pos_as_xyz
  1  'x, y, z'
loop_
 _atom_site_type_symbol
 _atom_site_label
 _atom_site_symmetry_multiplicity
 _atom_site_fract_x
 _atom_site_fract_y
 _atom_site_fract_z
 _atom_site_occupancy
  Hf  Hf0  1  0.11223917  0.50253116  0.85987363  1
  Hf  Hf1  1  0.40368908  0.40103465  0.23712656  1
  Hf  Hf2  1  0.32769130  0.09035225  0.14265349  1
  Hf  Hf3  1  0.40911655  -0.00055683  0.75506529  1
  Hf  Hf4  1  0.88128362  0.70766649  0.12594478  1
  Hf  Hf5  1  0.28273981  0.89855117  0.86708811  1
  Hf  Hf6  1  -0.00895385  0.39381820  0.49533402  1
  Hf  Hf7  1  0.20398155  0.41025805  0.01342547  1
  Hf  Hf8  1  0.49713287  0.28948877  0.61657298  1
  Hf  Hf9  1  0.50415784  0.09509355  0.62341134  1
  Hf  Hf10  1  0.78850763  0.40784744  0.50306494  1
  Hf  Hf11  1  0.68541683  0.50614707  0.38119056  1
  Hf  Hf12  1  0.61124040  0.39619827  0.73895205  1
  Hf  Hf13  1  0.70764408  0.10827919  0.87883974  1
  Hf  Hf14  1  0.30003571  0.68617091  0.36527597  1
  Hf  Hf15  1  0.79397877  0.59738952  0.25368000  1
  Hf  Hf16  1  0.37637824  0.80483456  -0.00380469  1
  Hf  Hf17  1  0.49182131  0.70450333  0.13669022  1
  Hf  Hf18  1  0.48694133  0.30186624  0.38176765  1
  Hf  Hf19  1  0.69284045  0.88995647  0.11809569  1
  Hf  Hf20  1  0.79712655  0.80244852  0.49166025  1
  Hf  Hf21  1  0.40169034  0.80177940  0.49010227  1
  Hf  Hf22  1  0.89939647  0.30358197  0.62900347  1
  Hf  Hf23  1  0.19696590  0.19673284  0.00176022  1
  Hf  Hf24  1  0.20307346  0.39538548  0.23833553  1
  Hf  Hf25  1  0.89293534  0.71132642  0.62388543  1
  Hf  Hf26  1  0.91215179  0.10387060  0.88018378  1
  Hf  Hf27  1  0.48322530  0.90913711  0.13314393  1
  Hf  Hf28  1  0.21034143  0.19606956  0.73498114  1
  Hf  Hf29  1  0.31532586  0.90481457  0.61770425  1
  Hf  Hf30  1  0.20018133  0.60572705  0.01055214  1
  Hf  Hf31  1  0.80725809  0.00369127  0.01198597  1
  Hf  Hf32  1  0.70341777  0.10195714  0.62736566  1
  Hf  Hf33  1  0.60942054  -0.00105596  0.24768542  1
  Hf  Hf34  1  0.41064099  0.19367207  0.00428031  1
  Hf  Hf35  1  0.10351586  0.49998866  0.37236787  1
  Hf  Hf36  1  0.23067802  0.20084549  0.50511157  1
  Hf  Hf37  1  0.09194672  0.71923481  0.86940174  1
  Hf  Hf38  1  0.69073524  0.69652384  0.86994953  1
  Hf  Hf39  1  0.19753542  0.78894931  0.50807770  1
  Zr  Zr40  1  0.79634803  0.20809993  0.24446272  1
  Zr  Zr41  1  0.58678610  0.58794720  0.75126004  1
  Zr  Zr42  1  0.91237474  0.50703699  0.12556704  1
  Zr  Zr43  1  0.57527498  0.80041968  -0.01754700  1
  Zr  Zr44  1  0.80151298  0.79808784  -0.01152749  1
  Zr  Zr45  1  0.19300832  0.80412401  0.73079778  1
  Zr  Zr46  1  0.09335054  0.69555015  0.37356838  1
  Zr  Zr47  1  0.07411600  0.70067709  0.13039084  1
  Zr  Zr48  1  0.41057809  0.58829419  0.51050480  1
  Zr  Zr49  1  0.50724564  0.30376654  0.87779243  1
  Zr  Zr50  1  0.49587962  0.70638871  0.63118875  1
  Zr  Zr51  1  0.30501947  0.10389786  0.87421267  1
  Zr  Zr52  1  0.70738793  0.89865773  0.63332040  1
  Zr  Zr53  1  0.12065419  0.08207799  0.14031864  1
  Zr  Zr54  1  0.02379099  -0.00876662  0.00085817  1
  Zr  Zr55  1  0.18509908  0.81308225  0.25175760  1
  Zr  Zr56  1  0.19360435  0.39611737  0.50594419  1
  Zr  Zr57  1  0.60326650  0.79697543  0.49139223  1
  Zr  Zr58  1  0.50816774  0.68150177  0.36621006  1
  Zr  Zr59  1  0.20736279  0.59153112  0.51357071  1
  Zr  Zr60  1  0.60429978  0.38757549  0.24486963  1
  Zr  Zr61  1  0.40632786  0.40535024  0.00478918  1
  Zr  Zr62  1  -0.00555168  0.59885390  0.50807377  1
  Zr  Zr63  1  0.40687679  0.40680752  0.74332864  1
  Zr  Zr64  1  0.09030763  0.28515685  0.12853511  1
  Zr  Zr65  1  0.07419576  0.89362954  0.60513637  1
  Zr  Zr66  1  0.11842907  0.09232591  0.37292423  1
  Zr  Zr67  1  -0.00654296  0.39365292  0.26133244  1
  Zr  Zr68  1  0.01432793  -0.00285579  0.75024459  1
  Zr  Zr69  1  0.00237964  0.39324355  -0.00869354  1
  Zr  Zr70  1  0.78479637  0.40525854  0.00608083  1
  Zr  Zr71  1  0.68275723  0.68324116  0.11316642  1
  Zr  Zr72  1  0.28925328  0.91716934  0.38045105  1
  Zr  Zr73  1  0.39767487  0.60683136  0.00042753  1
  Zr  Zr74  1  0.19751561  0.58840802  0.23168234  1
  Zr  Zr75  1  -0.00615599  0.60671463  -0.01618611  1
  Zr  Zr76  1  0.90195813  0.09501643  0.62898738  1
  Zr  Zr77  1  0.89458475  0.91347769  0.36890685  1
  Zr  Zr78  1  0.00960261  0.20322510  0.74892071  1
  Zr  Zr79  1  0.76941179  0.80417969  0.26334604  1
  Ta  Ta80  1  0.80749453  0.00817010  0.23492991  1
  Ta  Ta81  1  0.79545075  0.59450702  -0.01806388  1
  Ta  Ta82  1  0.91406659  0.89941339  0.13251837  1
  Ta  Ta83  1  0.59742247  0.57399099  -0.01902136  1
  Ta  Ta84  1  0.80880558  0.20371751  0.01138248  1
  Ta  Ta85  1  0.39738919  0.80713047  0.26121585  1
  Ta  Ta86  1  0.89046697  0.50642226  0.63316168  1
  Ta  Ta87  1  0.79602057  0.00754146  0.49536134  1
  Ta  Ta88  1  0.79604214  0.20728405  0.75371043  1
  Ta  Ta89  1  0.79523800  0.59480096  0.75725901  1
  Ta  Ta90  1  0.92231435  0.10939416  0.12933853  1
  Ta  Ta91  1  0.70903585  0.09860276  0.37077068  1
  Ta  Ta92  1  0.89025794  0.69151062  0.38061346  1
  Ta  Ta93  1  0.61104982  0.19728211  0.49271637  1
  Ta  Ta94  1  0.61175125  0.20585473  0.01864662  1
  Ta  Ta95  1  0.50864873  0.90500345  0.62200255  1
  Ta  Ta96  1  0.17823287  0.81083499  0.00821478  1
  Ta  Ta97  1  0.91204841  0.89297991  0.87874977  1
  Ta  Ta98  1  0.59689365  0.00807307  0.00386327  1
  Ta  Ta99  1  -0.01548062  0.80391959  0.74742377  1
  Ta  Ta100  1  0.59081446  0.80987028  0.76164142  1
  Ta  Ta101  1  -0.01739271  0.79671248  0.26211733  1
  Ta  Ta102  1  0.91092844  0.11531660  0.36632981  1
  Ta  Ta103  1  0.01275150  0.19824032  0.50128525  1
  Ta  Ta104  1  0.51409674  0.50402996  0.12218320  1
  Ta  Ta105  1  0.40526925  0.01819081  0.49128304  1
  Ta  Ta106  1  0.89386004  0.29853597  0.87526493  1
  Ta  Ta107  1  0.08893030  0.49314502  0.64304932  1
  Ta  Ta108  1  0.51392602  0.09880879  0.87610377  1
  Ta  Ta109  1  -0.01027801  0.00716242  0.49713418  1
  Ta  Ta110  1  0.31653468  0.48675532  0.37170243  1
  Ta  Ta111  1  0.79439782  0.40303191  0.24725333  1
  Ta  Ta112  1  0.30708682  0.50694648  0.86259050  1
  Ta  Ta113  1  0.81227912  0.20296501  0.49050446  1
  Ta  Ta114  1  0.60268456  0.19850731  0.75137323  1
  Ta  Ta115  1  0.60347567  -0.00000791  0.48916901  1
  Ta  Ta116  1  0.38431763  0.39128372  0.51198115  1
  Ta  Ta117  1  0.29360524  0.30863019  0.87449269  1
  Ta  Ta118  1  0.90066078  0.29937962  0.12449421  1
  Ta  Ta119  1  0.28525189  0.69401403  0.86070579  1
  Ti  Ti120  1  0.80936506  -0.00499856  0.75948636  1
  Ti  Ti121  1  0.20096042  0.39150077  0.74532125  1
  Ti  Ti122  1  0.29823572  0.70939816  0.13650981  1
  Ti  Ti123  1  0.39903715  0.80122945  0.75245772  1
  Ti  Ti124  1  0.59574713  0.59023979  0.24945037  1
  Ti  Ti125  1  0.40327692  0.20268679  0.75218378  1
  Ti  Ti126  1  0.20275359  0.00668959  0.72696548  1
  Ti  Ti127  1  0.70178707  0.29695633  0.37804277  1
  Ti  Ti128  1  0.70247255  0.29530344  0.61883484  1
  Ti  Ti129  1  0.89345833  0.49673938  0.86722455  1
  Ti  Ti130  1  0.47914893  0.69048354  0.86475617  1
  Ti  Ti131  1  0.79719210  0.80285861  0.76128463  1
  Ti  Ti132  1  0.21441074  0.20305763  0.25500962  1
  Ti  Ti133  1  0.70168414  0.30294064  0.87932940  1
  Ti  Ti134  1  0.50280510  0.90671642  0.36676662  1
  Ti  Ti135  1  0.59677684  0.19458879  0.22752183  1
  Ti  Ti136  1  0.30657116  0.29058949  0.12466472  1
  Ti  Ti137  1  0.21846267  -0.00653175  0.00435854  1
  Ti  Ti138  1  0.61423701  0.59710988  0.51489700  1
  Ti  Ti139  1  0.40978820  -0.00432645  -0.00964943  1
  Ti  Ti140  1  -0.00922706  0.60403966  0.75448972  1
  Ti  Ti141  1  0.69575901  0.90921671  0.87893651  1
  Ti  Ti142  1  0.09359003  0.68855656  0.63247464  1
  Ti  Ti143  1  0.70192104  0.69469967  0.63701363  1
  Ti  Ti144  1  0.32436588  0.11881510  0.36097353  1
  Ti  Ti145  1  -0.00531386  0.39861698  0.75657042  1
  Ti  Ti146  1  0.11499308  0.09281277  0.87478173  1
  Ti  Ti147  1  0.58642386  0.40801542  0.50798314  1
  Ti  Ti148  1  0.28824652  0.90351434  0.13857333  1
  Ti  Ti149  1  0.10136310  0.28875622  0.37160808  1
  Ti  Ti150  1  0.79794599  0.40126816  0.74929822  1
  Ti  Ti151  1  0.51050844  0.10774371  0.36851293  1
  Ti  Ti152  1  0.29558763  0.50616525  0.64191727  1
  Ti  Ti153  1  0.60559702  -0.00048218  0.75819279  1
  Ti  Ti154  1  0.19941995  0.00955053  0.51711015  1
  Ti  Ti155  1  0.10117176  0.29288075  0.87451493  1
  Ti  Ti156  1  0.01263818  -0.00458380  0.25427550  1
  Ti  Ti157  1  0.89294313  0.49960048  0.37638264  1
  Ti  Ti158  1  0.09093969  0.89782681  0.39187603  1
  Ti  Ti159  1  0.10208107  0.29768135  0.62491872  1
  Mo  Mo160  1  -0.01225075  0.60031684  0.25846713  1
  Mo  Mo161  1  0.10438679  0.90546686  0.87119406  1
  Mo  Mo162  1  0.19123159  0.59613097  0.74334578  1
  Mo  Mo163  1  0.21007468  0.00293860  0.25993823  1
  Mo  Mo164  1  0.49914251  0.29321203  0.12197896  1
  Mo  Mo165  1  0.70451232  0.30288778  0.12510092  1
  Mo  Mo166  1  0.69809617  0.69456045  0.37778559  1
  Mo  Mo167  1  0.29791142  0.70088179  0.63737983  1
  Mo  Mo168  1  0.00387481  0.19556412  0.25682341  1
  Mo  Mo169  1  0.70400351  0.50186808  0.62302052  1
  Mo  Mo170  1  0.41442668  0.20728453  0.24462142  1
  Mo  Mo171  1  0.10513028  0.10186961  0.61064665  1
  Mo  Mo172  1  0.59944516  0.39566750  0.00674823  1
  Mo  Mo173  1  0.79216413  0.60187013  0.50505236  1
  Mo  Mo174  1  0.30914913  0.50962330  0.12628655  1
  Mo  Mo175  1  0.29330713  0.30144709  0.36741401  1
  Mo  Mo176  1  -0.00817234  0.80146541  0.48858810  1
  Mo  Mo177  1  0.89362574  0.69836315  0.86132974  1
  Mo  Mo178  1  0.49758072  0.90175447  0.87356911  1
  Mo  Mo179  1  0.30237155  0.30269604  0.63353879  1
  Mo  Mo180  1  0.41267563  0.19917720  0.49497017  1
  Mo  Mo181  1  0.69398428  0.91164027  0.37385768  1
  Mo  Mo182  1  0.39895112  0.59367948  0.24147736  1
  Mo  Mo183  1  0.88631886  0.90265917  0.62466214  1
  Mo  Mo184  1  0.09779778  0.89591289  0.13464944  1
  Mo  Mo185  1  0.49571437  0.49345027  0.37818493  1
  Mo  Mo186  1  0.40961940  0.00370493  0.26718126  1
  Mo  Mo187  1  0.50115248  0.49468597  0.61795207  1
  Mo  Mo188  1  0.09381543  0.49828331  0.12649645  1
  Mo  Mo189  1  0.31671342  0.10093615  0.62494316  1
  Mo  Mo190  1  -0.00567133  0.80459955  0.00023397  1
  Mo  Mo191  1  0.70095328  0.48698896  0.86850779  1
  Mo  Mo192  1  0.51081729  0.09485940  0.12377136  1
  Mo  Mo193  1  0.00069924  0.19653323  -0.00718494  1
  Mo  Mo194  1  0.89399386  0.30121406  0.37854749  1
  Mo  Mo195  1  0.38891746  0.60750856  0.74344931  1
  Mo  Mo196  1  0.69968418  0.50539902  0.12625513  1
  Mo  Mo197  1  0.58819590  0.79986892  0.25671221  1
  Mo  Mo198  1  0.71039116  0.09760198  0.11969201  1
  Mo  Mo199  1  0.49706880  0.50070968  0.87338669  1
