# generated using pymatgen
data_HfZrTaTiMo
_symmetry_space_group_name_H-M   'P 1'
_cell_length_a   15.21824145
_cell_length_b   15.21653428
_cell_length_c   16.85207501
_cell_angle_alpha   89.99622384
_cell_angle_beta   89.99936846
_cell_angle_gamma   89.90777516
_symmetry_Int_Tables_number   1
_chemical_formula_structural   HfZrTaTiMo
_chemical_formula_sum   'Hf40 Zr40 Ta40 Ti40 Mo40'
_cell_volume   3902.41128638
_cell_formula_units_Z   40
loop_
 _symmetry_equiv_pos_site_id
 _symmetry_equiv_pos_as_xyz
  1  'x, y, z'
loop_
 _atom_site_type_symbol
 _atom_site_label
 _atom_site_symmetry_multiplicity
 _atom_site_fract_x
 _atom_site_fract_y
 _atom_site_fract_z
 _atom_site_occupancy
  Hf  Hf0  1  0.40703886  0.60477366  0.48732834  1
  Hf  Hf1  1  0.51119592  0.47992110  0.14892172  1
  Hf  Hf2  1  0.50083170  0.90811145  0.36078281  1
  Hf  Hf3  1  0.79346517  0.20612035  0.02152712  1
  Hf  Hf4  1  0.30542975  0.92242997  0.63426322  1
  Hf  Hf5  1  0.50770242  0.90033654  0.13354013  1
  Hf  Hf6  1  -0.00650745  0.00235302  0.50179126  1
  Hf  Hf7  1  0.89182578  0.50287702  0.88262563  1
  Hf  Hf8  1  -0.00723863  -0.00324148  0.26571126  1
  Hf  Hf9  1  0.20751264  0.59847925  -0.00636963  1
  Hf  Hf10  1  0.70274161  0.50892669  0.37568204  1
  Hf  Hf11  1  0.72385229  0.90974495  0.14338595  1
  Hf  Hf12  1  0.30568085  0.71471645  0.85911394  1
  Hf  Hf13  1  0.20387080  0.38477063  0.50000517  1
  Hf  Hf14  1  -0.01121584  0.38571493  0.24987187  1
  Hf  Hf15  1  0.72513034  0.30602978  0.60403238  1
  Hf  Hf16  1  0.30184859  0.11287798  0.87385229  1
  Hf  Hf17  1  0.19040219  0.59314588  0.74809229  1
  Hf  Hf18  1  0.80038394  -0.00033165  0.74227577  1
  Hf  Hf19  1  0.69780890  0.90596343  0.88416046  1
  Hf  Hf20  1  0.68244782  0.11165635  0.62534084  1
  Hf  Hf21  1  0.10922242  0.69588304  0.12356081  1
  Hf  Hf22  1  -0.01984618  0.79458097  0.73368234  1
  Hf  Hf23  1  0.32085320  0.30391529  0.14417241  1
  Hf  Hf24  1  0.88332135  0.70023561  0.87989309  1
  Hf  Hf25  1  0.50195837  0.89013710  0.62821520  1
  Hf  Hf26  1  0.50472131  0.30096783  0.35856597  1
  Hf  Hf27  1  0.50488183  0.09474112  0.87710582  1
  Hf  Hf28  1  0.31177163  0.50000551  0.87021414  1
  Hf  Hf29  1  0.29337711  0.50200838  0.37147438  1
  Hf  Hf30  1  0.88795519  0.48951147  0.60662742  1
  Hf  Hf31  1  0.08762728  0.48050456  0.61114864  1
  Hf  Hf32  1  0.10715947  0.07906666  0.87475671  1
  Hf  Hf33  1  -0.00651959  0.59696798  0.01145492  1
  Hf  Hf34  1  0.08368289  0.69547865  0.87709047  1
  Hf  Hf35  1  0.90257151  0.50497190  0.38643875  1
  Hf  Hf36  1  0.31215143  0.50178260  0.62319636  1
  Hf  Hf37  1  0.69170360  0.71066168  0.62012553  1
  Hf  Hf38  1  0.51452354  0.29085596  0.61361724  1
  Hf  Hf39  1  0.59936882  -0.00779150  0.49693096  1
  Zr  Zr40  1  0.79313416  0.61074923  0.24193023  1
  Zr  Zr41  1  0.59325150  -0.00188385  0.74445941  1
  Zr  Zr42  1  0.20468739  0.60678117  0.50875438  1
  Zr  Zr43  1  0.20175641  0.78053462  0.26085723  1
  Zr  Zr44  1  0.20515948  0.38766183  0.74819951  1
  Zr  Zr45  1  0.07991597  0.89119207  0.13012435  1
  Zr  Zr46  1  0.38999765  0.80573765  0.49177777  1
  Zr  Zr47  1  0.49480485  0.69041560  0.62703171  1
  Zr  Zr48  1  0.21416505  0.39416384  -0.00296900  1
  Zr  Zr49  1  0.70605150  0.10281228  0.36353675  1
  Zr  Zr50  1  0.09341700  0.68481050  0.38435553  1
  Zr  Zr51  1  0.42084093  0.40219834  0.00197880  1
  Zr  Zr52  1  0.19224351  -0.00663207  0.26818346  1
  Zr  Zr53  1  0.38878424  0.78881872  0.01660741  1
  Zr  Zr54  1  0.78269921  0.80316371  0.74773039  1
  Zr  Zr55  1  0.00701778  0.22015394  0.51480663  1
  Zr  Zr56  1  0.10433980  0.88849909  0.60432167  1
  Zr  Zr57  1  0.47954172  0.88965319  0.86892099  1
  Zr  Zr58  1  0.40940171  0.20481339  0.00814257  1
  Zr  Zr59  1  0.39971219  0.80278422  0.24479614  1
  Zr  Zr60  1  -0.00083693  0.18790652  -0.00133805  1
  Zr  Zr61  1  0.00488214  0.39352015  0.76677081  1
  Zr  Zr62  1  0.41043595  0.39421994  0.74827837  1
  Zr  Zr63  1  0.20590474  0.19040759  0.25449132  1
  Zr  Zr64  1  0.61646617  0.39158125  0.74353225  1
  Zr  Zr65  1  0.38598818  0.00019582  0.01305667  1
  Zr  Zr66  1  0.01101575  0.20043136  0.74523354  1
  Zr  Zr67  1  0.38756476  0.61028962  0.24980059  1
  Zr  Zr68  1  0.49867716  0.67978237  0.88051840  1
  Zr  Zr69  1  0.17950126  0.81203716  0.75299063  1
  Zr  Zr70  1  0.88950265  0.11517431  0.62425944  1
  Zr  Zr71  1  0.89824729  0.09377961  0.87124177  1
  Zr  Zr72  1  0.00438920  0.39243113  -0.01272600  1
  Zr  Zr73  1  0.09827660  0.29270854  0.12627269  1
  Zr  Zr74  1  0.61047546  0.02351461  0.02104631  1
  Zr  Zr75  1  0.18721892  0.81817399  -0.01316905  1
  Zr  Zr76  1  0.69796449  0.12277699  0.87009796  1
  Zr  Zr77  1  0.60148523  0.79826596  0.00678508  1
  Zr  Zr78  1  -0.01265065  0.59317954  0.74177851  1
  Zr  Zr79  1  0.00186800  0.59167233  0.24033001  1
  Ta  Ta80  1  0.89771986  0.29990566  0.38256414  1
  Ta  Ta81  1  0.39012144  0.01078086  0.24129377  1
  Ta  Ta82  1  0.51158262  0.28926197  0.87233468  1
  Ta  Ta83  1  0.10551288  0.08366432  0.12212209  1
  Ta  Ta84  1  0.78481214  0.81327945  0.49914113  1
  Ta  Ta85  1  0.70162897  0.50723504  0.87734056  1
  Ta  Ta86  1  0.21371647  0.19468819  0.49771237  1
  Ta  Ta87  1  0.80854879  0.80850424  0.00485770  1
  Ta  Ta88  1  0.61207081  0.78501964  0.25610859  1
  Ta  Ta89  1  0.11736350  0.09382188  0.61729780  1
  Ta  Ta90  1  0.89163506  0.90363298  0.38391850  1
  Ta  Ta91  1  0.49802309  0.10376441  0.36684388  1
  Ta  Ta92  1  0.88512990  0.47796055  0.12286892  1
  Ta  Ta93  1  0.09484347  0.48723571  0.38387228  1
  Ta  Ta94  1  0.70724936  0.90007527  0.35871116  1
  Ta  Ta95  1  0.27994452  0.90698736  0.12972736  1
  Ta  Ta96  1  0.19497815  0.40455675  0.25388892  1
  Ta  Ta97  1  0.60752874  0.59190238  0.74937650  1
  Ta  Ta98  1  0.28278414  0.92367135  0.85848254  1
  Ta  Ta99  1  0.59604155  0.79348754  0.47973239  1
  Ta  Ta100  1  0.00018443  0.18745441  0.25225847  1
  Ta  Ta101  1  0.29464360  0.71715253  0.63667705  1
  Ta  Ta102  1  0.81279918  0.21241755  0.23765299  1
  Ta  Ta103  1  0.00659435  -0.01055215  0.73601904  1
  Ta  Ta104  1  -0.01868843  0.78576536  0.50135345  1
  Ta  Ta105  1  0.47791598  0.09499174  0.61287277  1
  Ta  Ta106  1  0.70351101  0.33298390  0.13942750  1
  Ta  Ta107  1  0.69508220  0.69286767  0.88419864  1
  Ta  Ta108  1  -0.01191533  0.79658698  0.26396723  1
  Ta  Ta109  1  0.40819701  0.39662137  0.49048906  1
  Ta  Ta110  1  0.71068376  0.30418427  0.37453239  1
  Ta  Ta111  1  0.10066769  0.10166730  0.39012064  1
  Ta  Ta112  1  0.21590162  0.19358624  0.73670316  1
  Ta  Ta113  1  0.69346697  0.50730568  0.60777996  1
  Ta  Ta114  1  0.90006630  0.08495016  0.13044692  1
  Ta  Ta115  1  0.50235165  0.50132372  0.35980822  1
  Ta  Ta116  1  0.60234789  0.58034849  0.01014175  1
  Ta  Ta117  1  0.21010419  0.18853380  0.01179989  1
  Ta  Ta118  1  0.41276632  0.19402720  0.74650968  1
  Ta  Ta119  1  0.21334078  -0.00345451  0.48913137  1
  Ti  Ti120  1  0.80044143  0.61849507  0.50149521  1
  Ti  Ti121  1  0.29932193  0.89916138  0.37498269  1
  Ti  Ti122  1  0.59060549  0.78765851  0.75948121  1
  Ti  Ti123  1  -0.00098545  -0.02122650  0.00030489  1
  Ti  Ti124  1  0.79275037  0.60388522  0.01617896  1
  Ti  Ti125  1  0.51728098  0.48960259  0.87480236  1
  Ti  Ti126  1  0.78640538  0.40627316  0.00241866  1
  Ti  Ti127  1  0.90029967  0.71971828  0.12627067  1
  Ti  Ti128  1  0.31475429  0.09979732  0.38298391  1
  Ti  Ti129  1  0.40644563  0.60126788  0.74717592  1
  Ti  Ti130  1  0.88410485  0.70630764  0.37487988  1
  Ti  Ti131  1  0.90777382  0.89786415  0.87346909  1
  Ti  Ti132  1  0.49378097  0.11429875  0.14021392  1
  Ti  Ti133  1  0.08916989  0.69301516  0.61370413  1
  Ti  Ti134  1  0.80772181  0.00390769  0.00401907  1
  Ti  Ti135  1  0.12892464  0.28479099  0.87919107  1
  Ti  Ti136  1  0.79095703  0.00800404  0.50319780  1
  Ti  Ti137  1  0.69807723  0.31215562  0.88093475  1
  Ti  Ti138  1  0.29404017  0.50752581  0.13725456  1
  Ti  Ti139  1  0.50666895  0.68736713  0.12994148  1
  Ti  Ti140  1  0.79561855  0.22139391  0.74775831  1
  Ti  Ti141  1  0.69799365  0.70515001  0.12343502  1
  Ti  Ti142  1  0.10011247  0.29440264  0.37223822  1
  Ti  Ti143  1  0.89773451  0.10980817  0.38221775  1
  Ti  Ti144  1  0.09470315  0.88871421  0.39266976  1
  Ti  Ti145  1  0.88645973  0.29385903  0.87829089  1
  Ti  Ti146  1  0.60142490  0.19886114  0.48699772  1
  Ti  Ti147  1  0.50723466  0.49616706  0.61758829  1
  Ti  Ti148  1  0.60057991  0.22370724  0.02401075  1
  Ti  Ti149  1  0.79195491  0.60275611  0.73957046  1
  Ti  Ti150  1  0.80587887  0.41017474  0.74931896  1
  Ti  Ti151  1  0.10193682  0.49121002  0.12460416  1
  Ti  Ti152  1  0.30712309  0.29575851  0.36863098  1
  Ti  Ti153  1  0.40265316  0.59322377  0.01539190  1
  Ti  Ti154  1  0.60103624  0.40524408  0.48944819  1
  Ti  Ti155  1  0.60337970  0.01045271  0.24240897  1
  Ti  Ti156  1  0.88473057  0.89695977  0.61433576  1
  Ti  Ti157  1  0.59814555  0.60634382  0.48791146  1
  Ti  Ti158  1  0.31698000  0.28689863  0.61343888  1
  Ti  Ti159  1  0.60889562  0.20839628  0.23993789  1
  Mo  Mo160  1  0.08074795  0.90153808  0.86952136  1
  Mo  Mo161  1  0.90218883  0.90131038  0.12790137  1
  Mo  Mo162  1  0.80954460  0.80565944  0.25572082  1
  Mo  Mo163  1  0.30508364  0.10683209  0.61408811  1
  Mo  Mo164  1  0.50444784  0.69804096  0.36883479  1
  Mo  Mo165  1  0.40620223  0.20601986  0.48855858  1
  Mo  Mo166  1  0.19867479  0.80123366  0.49663868  1
  Mo  Mo167  1  0.60094804  0.20457993  0.74521757  1
  Mo  Mo168  1  0.79916037  0.19956849  0.49173623  1
  Mo  Mo169  1  0.90777898  0.31241198  0.63056773  1
  Mo  Mo170  1  0.60868145  0.39487926  -0.00070884  1
  Mo  Mo171  1  0.40281728  0.00541246  0.48820125  1
  Mo  Mo172  1  0.70101450  0.11238558  0.14054017  1
  Mo  Mo173  1  0.29715225  0.69756738  0.11796682  1
  Mo  Mo174  1  0.29654513  0.70426408  0.37857038  1
  Mo  Mo175  1  0.70104782  0.51343618  0.12798116  1
  Mo  Mo176  1  0.70293297  0.70597304  0.38069010  1
  Mo  Mo177  1  0.19222348  0.00161611  0.00260517  1
  Mo  Mo178  1  0.61375216  0.40518676  0.26280733  1
  Mo  Mo179  1  0.31045748  0.29074761  0.87178716  1
  Mo  Mo180  1  0.88953096  0.69806536  0.61507295  1
  Mo  Mo181  1  0.19218244  0.58662825  0.24756238  1
  Mo  Mo182  1  0.51243877  0.29945188  0.14692523  1
  Mo  Mo183  1  0.80532117  0.40300995  0.25596786  1
  Mo  Mo184  1  0.11590271  0.29109007  0.62515294  1
  Mo  Mo185  1  0.69384726  0.90364169  0.61612571  1
  Mo  Mo186  1  0.00351837  0.39674969  0.49200645  1
  Mo  Mo187  1  0.39655546  0.80164709  0.75001695  1
  Mo  Mo188  1  0.10424727  0.49615821  0.88012734  1
  Mo  Mo189  1  0.39114208  0.01103933  0.74987459  1
  Mo  Mo190  1  0.80958623  0.01378963  0.25865575  1
  Mo  Mo191  1  0.89881591  0.29412314  0.12202214  1
  Mo  Mo192  1  0.29570873  0.09780831  0.12856085  1
  Mo  Mo193  1  0.39370688  0.39989953  0.26268446  1
  Mo  Mo194  1  0.79712658  0.40175780  0.48997779  1
  Mo  Mo195  1  -0.00638240  0.60140761  0.50327559  1
  Mo  Mo196  1  0.18960142  0.01207335  0.74184522  1
  Mo  Mo197  1  0.40496021  0.19250744  0.25521759  1
  Mo  Mo198  1  -0.01315211  0.79558344  -0.00244351  1
  Mo  Mo199  1  0.59757728  0.60901860  0.25195258  1
