# generated using pymatgen
data_HfZrTaTiMo
_symmetry_space_group_name_H-M   'P 1'
_cell_length_a   15.21438481
_cell_length_b   15.21223938
_cell_length_c   16.82561670
_cell_angle_alpha   89.98713523
_cell_angle_beta   89.93695428
_cell_angle_gamma   90.06287124
_symmetry_Int_Tables_number   1
_chemical_formula_structural   HfZrTaTiMo
_chemical_formula_sum   'Hf40 Zr40 Ta40 Ti40 Mo40'
_cell_volume   3894.19776439
_cell_formula_units_Z   40
loop_
 _symmetry_equiv_pos_site_id
 _symmetry_equiv_pos_as_xyz
  1  'x, y, z'
loop_
 _atom_site_type_symbol
 _atom_site_label
 _atom_site_symmetry_multiplicity
 _atom_site_fract_x
 _atom_site_fract_y
 _atom_site_fract_z
 _atom_site_occupancy
  Hf  Hf0  1  0.10629681  0.90338368  0.88757598  1
  Hf  Hf1  1  0.11877190  0.10799030  0.36574466  1
  Hf  Hf2  1  0.00583666  0.00771902  0.24221570  1
  Hf  Hf3  1  0.60546679  0.00934004  0.50067101  1
  Hf  Hf4  1  0.39501640  0.39883362  0.74571815  1
  Hf  Hf5  1  0.68950370  0.69290886  0.12794968  1
  Hf  Hf6  1  0.09804803  0.29679837  0.64307012  1
  Hf  Hf7  1  0.88470942  0.69818198  0.12108517  1
  Hf  Hf8  1  0.59966208  0.41414502  0.74099763  1
  Hf  Hf9  1  0.90929002  0.09498838  0.37221188  1
  Hf  Hf10  1  0.00010492  0.37784037  -0.00026532  1
  Hf  Hf11  1  -0.00941868  0.80234450  -0.00674703  1
  Hf  Hf12  1  0.00165372  0.41160170  0.75191903  1
  Hf  Hf13  1  0.50179037  0.30636496  0.87637859  1
  Hf  Hf14  1  0.40158077  0.60994257  0.26199826  1
  Hf  Hf15  1  0.19428515  0.38790407  0.49119969  1
  Hf  Hf16  1  0.89536464  0.29778769  0.37357573  1
  Hf  Hf17  1  0.69972383  0.08386195  0.11935197  1
  Hf  Hf18  1  0.11674178  0.09609417  0.64587941  1
  Hf  Hf19  1  0.68148651  0.49152852  0.13702944  1
  Hf  Hf20  1  0.49433517  0.10291775  0.86458778  1
  Hf  Hf21  1  0.30771833  0.49442269  0.39031407  1
  Hf  Hf22  1  0.50488818  0.90971905  0.38078053  1
  Hf  Hf23  1  0.22050618  0.01121012  0.22740562  1
  Hf  Hf24  1  0.80544087  0.19538319  0.24570427  1
  Hf  Hf25  1  0.49689952  0.91027133  0.62191071  1
  Hf  Hf26  1  0.19584517  0.79441164  0.74798589  1
  Hf  Hf27  1  0.49045187  0.89291760  0.88164141  1
  Hf  Hf28  1  0.58893470  0.77797700  -0.00590825  1
  Hf  Hf29  1  0.59609965  0.19992395  0.49529645  1
  Hf  Hf30  1  0.11153750  0.47724030  0.12170025  1
  Hf  Hf31  1  0.91130591  0.10029724  0.65093424  1
  Hf  Hf32  1  -0.00510881  0.57866291  0.24306785  1
  Hf  Hf33  1  -0.00412417  0.60692198  0.74471291  1
  Hf  Hf34  1  0.30191101  0.71788748  0.88127502  1
  Hf  Hf35  1  0.10728783  0.90349263  0.10968965  1
  Hf  Hf36  1  0.60136153  0.80269490  0.26193577  1
  Hf  Hf37  1  0.29776456  0.69996481  0.60664670  1
  Hf  Hf38  1  -0.00069595  0.39755751  0.50699893  1
  Hf  Hf39  1  0.91487235  0.09868727  0.86495750  1
  Zr  Zr40  1  0.67798806  0.68179587  0.86143236  1
  Zr  Zr41  1  0.50447948  0.50016570  0.38914880  1
  Zr  Zr42  1  0.28531471  0.31786778  0.11737230  1
  Zr  Zr43  1  0.48345560  0.30517602  0.36153116  1
  Zr  Zr44  1  0.31673214  0.51099502  0.12987686  1
  Zr  Zr45  1  0.42096837  0.00935022  0.23464816  1
  Zr  Zr46  1  0.89926920  0.89672191  0.62480736  1
  Zr  Zr47  1  -0.00149286  0.79593223  0.24556498  1
  Zr  Zr48  1  0.70804167  0.50011119  0.38212844  1
  Zr  Zr49  1  0.01104099  0.19614002  0.50589293  1
  Zr  Zr50  1  0.79777321  0.39534681  0.74448079  1
  Zr  Zr51  1  0.88803037  0.69016575  0.87866774  1
  Zr  Zr52  1  0.29667364  0.71358778  0.39382953  1
  Zr  Zr53  1  0.11037118  0.10184582  0.87604920  1
  Zr  Zr54  1  0.00494860  -0.00808139  0.49863975  1
  Zr  Zr55  1  0.30208058  0.90912021  0.38012814  1
  Zr  Zr56  1  0.29605422  0.90186002  0.61221466  1
  Zr  Zr57  1  0.79717897  0.18727261  0.49851418  1
  Zr  Zr58  1  0.79560047  -0.01554692  0.26166848  1
  Zr  Zr59  1  0.49572560  0.32083633  0.13330180  1
  Zr  Zr60  1  0.39677287  0.20004169  0.49721770  1
  Zr  Zr61  1  0.40112854  0.60718602  0.73630156  1
  Zr  Zr62  1  0.51272779  0.89924197  0.11966624  1
  Zr  Zr63  1  0.90778431  0.49570561  0.38311115  1
  Zr  Zr64  1  0.70650057  0.10618059  0.86827594  1
  Zr  Zr65  1  0.29633316  0.29763720  0.62657277  1
  Zr  Zr66  1  0.70437776  0.09569911  0.64258561  1
  Zr  Zr67  1  0.69437907  0.28845355  0.12573506  1
  Zr  Zr68  1  0.79878758  0.40511636  0.00660663  1
  Zr  Zr69  1  0.10642113  0.69583974  0.11741170  1
  Zr  Zr70  1  0.10177961  0.68692671  0.88306099  1
  Zr  Zr71  1  0.78882529  0.79823062  0.76014750  1
  Zr  Zr72  1  0.89704935  0.69776028  0.38171992  1
  Zr  Zr73  1  -0.00970644  0.57905175  0.00735372  1
  Zr  Zr74  1  0.10112684  0.89596049  0.36859179  1
  Zr  Zr75  1  0.70866092  0.88691482  0.11637982  1
  Zr  Zr76  1  0.69890033  0.89211305  0.62147986  1
  Zr  Zr77  1  0.89710983  0.90743651  0.11520358  1
  Zr  Zr78  1  0.19756589  0.60350796  0.26051454  1
  Zr  Zr79  1  0.30024476  0.50761111  0.87677119  1
  Ta  Ta80  1  0.58650515  0.18319903  0.25046586  1
  Ta  Ta81  1  0.39708190  0.81572326  0.74596365  1
  Ta  Ta82  1  0.79180653  0.58847513  0.73706605  1
  Ta  Ta83  1  0.49378853  0.50129219  0.60740906  1
  Ta  Ta84  1  0.22021737  0.20422822  0.76440022  1
  Ta  Ta85  1  0.09885032  0.11083608  0.10779241  1
  Ta  Ta86  1  -0.00553439  0.80969990  0.76109412  1
  Ta  Ta87  1  0.38447817  0.19871349  0.23555839  1
  Ta  Ta88  1  0.58745213  0.57402584  0.00246832  1
  Ta  Ta89  1  0.10269066  0.50546085  0.61905383  1
  Ta  Ta90  1  0.22129470  -0.00812040  0.75944614  1
  Ta  Ta91  1  0.29608066  0.49918356  0.60867865  1
  Ta  Ta92  1  0.41218320  0.01884862  0.01432005  1
  Ta  Ta93  1  0.20561279  0.01277259  0.50333525  1
  Ta  Ta94  1  0.40757312  0.61669161  0.00024712  1
  Ta  Ta95  1  0.49385494  0.68930851  0.13187417  1
  Ta  Ta96  1  0.80616196  0.40290092  0.24155176  1
  Ta  Ta97  1  0.30605283  0.30216746  0.88826504  1
  Ta  Ta98  1  0.69851542  0.29470181  0.62683400  1
  Ta  Ta99  1  0.60956272  -0.00389310  -0.01570568  1
  Ta  Ta100  1  0.69578723  0.69796783  0.62615806  1
  Ta  Ta101  1  0.41638473  0.41972604  -0.00193892  1
  Ta  Ta102  1  0.49752100  0.70784065  0.39698427  1
  Ta  Ta103  1  0.69199051  0.30204576  0.36251229  1
  Ta  Ta104  1  0.89703030  0.50353519  0.61547232  1
  Ta  Ta105  1  0.79375769  0.38976173  0.50959687  1
  Ta  Ta106  1  0.59911084  -0.01913865  0.76041840  1
  Ta  Ta107  1  0.60456911  0.60648202  0.50792300  1
  Ta  Ta108  1  0.69815339  0.30079812  0.88001840  1
  Ta  Ta109  1  0.20801596  0.59629977  0.00370254  1
  Ta  Ta110  1  0.50032576  0.29240670  0.62856700  1
  Ta  Ta111  1  0.58882046  0.19536236  0.00031858  1
  Ta  Ta112  1  0.90761346  0.11288206  0.11110700  1
  Ta  Ta113  1  0.10459591  0.30683708  0.86620017  1
  Ta  Ta114  1  0.19420947  0.21542080  -0.00291741  1
  Ta  Ta115  1  0.89451910  0.49703085  0.87255928  1
  Ta  Ta116  1  0.09652312  0.90062919  0.63304975  1
  Ta  Ta117  1  0.32288811  0.09801727  0.64090127  1
  Ta  Ta118  1  0.19484989  0.59392540  0.74173870  1
  Ta  Ta119  1  0.21427329  0.80448639  0.23638175  1
  Ti  Ti120  1  0.80172132  -0.01105963  0.48478429  1
  Ti  Ti121  1  0.30442916  0.91032944  0.89407330  1
  Ti  Ti122  1  0.89675007  0.29303730  0.86477266  1
  Ti  Ti123  1  0.18564123  0.59697751  0.49412202  1
  Ti  Ti124  1  0.80654548  -0.01403963  0.76638068  1
  Ti  Ti125  1  0.69805100  0.49964488  0.61241067  1
  Ti  Ti126  1  0.31048827  0.10546260  0.88283772  1
  Ti  Ti127  1  0.20432404  0.19285026  0.50150255  1
  Ti  Ti128  1  -0.00115618  0.60753178  0.50539356  1
  Ti  Ti129  1  0.17618051  0.80744159  0.50261900  1
  Ti  Ti130  1  0.79791933  0.79450196  0.26559532  1
  Ti  Ti131  1  0.40525329  0.01591258  0.49917395  1
  Ti  Ti132  1  0.78671996  0.80223718  -0.02067563  1
  Ti  Ti133  1  0.79634414  0.59851525  0.25008663  1
  Ti  Ti134  1  0.39717396  0.80529522  0.24465848  1
  Ti  Ti135  1  0.50223147  0.71244242  0.61312097  1
  Ti  Ti136  1  -0.00235103  0.37806719  0.23576618  1
  Ti  Ti137  1  0.18672520  0.21032873  0.23241752  1
  Ti  Ti138  1  0.19212404  0.40581184  0.26607663  1
  Ti  Ti139  1  0.31347714  0.10370689  0.36885900  1
  Ti  Ti140  1  0.09033904  0.70620627  0.62184996  1
  Ti  Ti141  1  0.20097563  0.41032956  0.75363582  1
  Ti  Ti142  1  0.81157808  -0.00540622  -0.01764264  1
  Ti  Ti143  1  0.09341927  0.69594814  0.37741043  1
  Ti  Ti144  1  0.69554967  0.69934448  0.38807549  1
  Ti  Ti145  1  0.28836356  0.29145547  0.36366802  1
  Ti  Ti146  1  0.69654482  0.49417337  0.87341154  1
  Ti  Ti147  1  0.59772765  0.60009165  0.26362918  1
  Ti  Ti148  1  0.21522820  0.01054138  0.00986037  1
  Ti  Ti149  1  0.09036550  0.30079559  0.36624300  1
  Ti  Ti150  1  0.68874048  0.09247392  0.36583549  1
  Ti  Ti151  1  0.49211817  0.69548598  0.86108706  1
  Ti  Ti152  1  0.59784127  0.39097926  0.50455168  1
  Ti  Ti153  1  0.60095906  0.20555552  0.74845360  1
  Ti  Ti154  1  0.89482261  0.70220392  0.62145002  1
  Ti  Ti155  1  0.80782919  0.20309399  -0.00188784  1
  Ti  Ti156  1  0.78573542  0.59617845  0.00138801  1
  Ti  Ti157  1  0.89543884  0.29248051  0.63422797  1
  Ti  Ti158  1  0.80196577  0.79310199  0.49620389  1
  Ti  Ti159  1  0.50697371  0.50950095  0.86697852  1
  Mo  Mo160  1  0.49820449  0.10356496  0.37065949  1
  Mo  Mo161  1  0.09174518  0.29080972  0.12423164  1
  Mo  Mo162  1  0.79980740  0.59928565  0.51653192  1
  Mo  Mo163  1  0.40019446  0.60417986  0.50790612  1
  Mo  Mo164  1  0.30318041  0.11622006  0.11078529  1
  Mo  Mo165  1  0.01500850  -0.01109160  0.75266637  1
  Mo  Mo166  1  0.50240177  0.50738363  0.13720309  1
  Mo  Mo167  1  0.00291776  0.19877297  0.24438850  1
  Mo  Mo168  1  0.39770686  -0.00155192  0.75852509  1
  Mo  Mo169  1  0.20854703  0.80117761  0.00779300  1
  Mo  Mo170  1  0.69313376  0.89670561  0.87793184  1
  Mo  Mo171  1  0.60189209  0.39914118  0.25991708  1
  Mo  Mo172  1  0.40306504  0.39408974  0.51081120  1
  Mo  Mo173  1  0.39747837  0.20614338  0.00598426  1
  Mo  Mo174  1  0.89722534  0.29567390  0.12500274  1
  Mo  Mo175  1  0.10070670  0.49773379  0.87577318  1
  Mo  Mo176  1  0.40348264  0.81032637  0.50257573  1
  Mo  Mo177  1  0.30484643  0.71107234  0.12121552  1
  Mo  Mo178  1  0.50507548  0.10336818  0.64426068  1
  Mo  Mo179  1  0.60596120  0.80075093  0.49497702  1
  Mo  Mo180  1  0.00795899  0.20815825  0.75552763  1
  Mo  Mo181  1  -0.00500393  0.20158709  -0.01253137  1
  Mo  Mo182  1  0.59852489  0.39888359  -0.00759849  1
  Mo  Mo183  1  0.09848159  0.50282215  0.38346685  1
  Mo  Mo184  1  0.70527646  0.89014097  0.38865108  1
  Mo  Mo185  1  0.60933145  -0.00011219  0.25438737  1
  Mo  Mo186  1  0.90076209  0.90367848  0.87769456  1
  Mo  Mo187  1  0.58106926  0.79280767  0.74839503  1
  Mo  Mo188  1  0.89887659  0.89220803  0.38197378  1
  Mo  Mo189  1  0.51244670  0.11351312  0.11680850  1
  Mo  Mo190  1  0.19974129  0.40695608  -0.01241992  1
  Mo  Mo191  1  0.40391827  0.20256414  0.75303759  1
  Mo  Mo192  1  0.38499717  0.39981438  0.25673350  1
  Mo  Mo193  1  0.30682533  0.90137771  0.11143425  1
  Mo  Mo194  1  0.00212849  0.00888021  0.00278500  1
  Mo  Mo195  1  0.89325907  0.49576992  0.13381291  1
  Mo  Mo196  1  0.00173164  0.79336217  0.50457353  1
  Mo  Mo197  1  0.39711561  0.80381443  0.00937284  1
  Mo  Mo198  1  0.79734002  0.20343429  0.75444986  1
  Mo  Mo199  1  0.59621221  0.59912237  0.72522695  1
