# generated using pymatgen
data_HfZrTaTiMo
_symmetry_space_group_name_H-M   'P 1'
_cell_length_a   15.21381640
_cell_length_b   15.20715607
_cell_length_c   16.83549032
_cell_angle_alpha   89.95656589
_cell_angle_beta   90.01055729
_cell_angle_gamma   89.96627636
_symmetry_Int_Tables_number   1
_chemical_formula_structural   HfZrTaTiMo
_chemical_formula_sum   'Hf40 Zr40 Ta40 Ti40 Mo40'
_cell_volume   3895.03833068
_cell_formula_units_Z   40
loop_
 _symmetry_equiv_pos_site_id
 _symmetry_equiv_pos_as_xyz
  1  'x, y, z'
loop_
 _atom_site_type_symbol
 _atom_site_label
 _atom_site_symmetry_multiplicity
 _atom_site_fract_x
 _atom_site_fract_y
 _atom_site_fract_z
 _atom_site_occupancy
  Hf  Hf0  1  0.61452127  0.77597836  0.74338101  1
  Hf  Hf1  1  0.50292472  0.29683769  0.64248347  1
  Hf  Hf2  1  0.51555878  0.89312598  0.13869687  1
  Hf  Hf3  1  0.20996604  0.80913219  0.75775576  1
  Hf  Hf4  1  0.49992935  0.09807989  0.61944933  1
  Hf  Hf5  1  0.79313530  0.60547062  0.24240725  1
  Hf  Hf6  1  0.57518402  0.40900324  0.25301097  1
  Hf  Hf7  1  0.69084259  0.71679001  0.37485490  1
  Hf  Hf8  1  0.59580595  -0.01494706  0.75854783  1
  Hf  Hf9  1  0.51656307  0.49432364  0.87666216  1
  Hf  Hf10  1  0.78411827  0.39714028  0.25226670  1
  Hf  Hf11  1  0.40746277  0.79880492  0.49424465  1
  Hf  Hf12  1  0.60650040  -0.01127112  -0.01031353  1
  Hf  Hf13  1  0.08799157  0.30653235  0.13951038  1
  Hf  Hf14  1  0.39729867  0.21045869  0.49524651  1
  Hf  Hf15  1  0.68393003  0.50865899  0.38032380  1
  Hf  Hf16  1  -0.01107619  0.19233618  0.26126261  1
  Hf  Hf17  1  0.61150171  0.79077231  0.00168584  1
  Hf  Hf18  1  0.09503568  0.90404535  0.12990222  1
  Hf  Hf19  1  0.62540356  -0.00226170  0.25872694  1
  Hf  Hf20  1  0.79269449  0.40230107  0.51068180  1
  Hf  Hf21  1  0.01006851  0.61598677  0.24893305  1
  Hf  Hf22  1  0.29332056  0.29414361  0.86159464  1
  Hf  Hf23  1  0.89490402  0.09488150  0.39934730  1
  Hf  Hf24  1  0.28424407  0.70252630  0.37514140  1
  Hf  Hf25  1  0.91230422  0.50015730  0.13376853  1
  Hf  Hf26  1  0.30750245  0.70356717  0.63228225  1
  Hf  Hf27  1  0.78759914  0.41396117  0.00059601  1
  Hf  Hf28  1  0.88530585  0.29584028  0.13244698  1
  Hf  Hf29  1  0.80210244  0.81242958  0.24133645  1
  Hf  Hf30  1  0.19529915  0.19683398  0.27113882  1
  Hf  Hf31  1  0.61338579  0.00327014  0.49164332  1
  Hf  Hf32  1  0.09850756  0.69770626  0.63039700  1
  Hf  Hf33  1  0.50768625  0.48924209  0.10003525  1
  Hf  Hf34  1  0.10990201  0.91019320  0.61604918  1
  Hf  Hf35  1  0.88954004  0.71552830  0.87160234  1
  Hf  Hf36  1  0.69962854  0.09592200  0.63030098  1
  Hf  Hf37  1  0.41483203  0.80284933  0.75982084  1
  Hf  Hf38  1  0.48822623  0.08722211  0.87982449  1
  Hf  Hf39  1  0.19633874  0.39096967  -0.00888467  1
  Zr  Zr40  1  0.38705212  0.78646273  0.24332270  1
  Zr  Zr41  1  0.47379494  0.29625349  0.10626999  1
  Zr  Zr42  1  -0.00167081  0.41479280  -0.01752161  1
  Zr  Zr43  1  0.38513331  0.59398766  0.50891930  1
  Zr  Zr44  1  0.49034244  0.29584263  0.87054776  1
  Zr  Zr45  1  0.29658551  0.10144819  0.61933356  1
  Zr  Zr46  1  0.51454642  0.11864196  0.38152355  1
  Zr  Zr47  1  0.90455407  0.49931053  0.37121028  1
  Zr  Zr48  1  0.81525389  -0.00793527  0.73711683  1
  Zr  Zr49  1  0.19827602  0.01107622  0.00153749  1
  Zr  Zr50  1  0.59478487  0.20673896  0.24350059  1
  Zr  Zr51  1  0.78389370  0.20974412  0.50734182  1
  Zr  Zr52  1  -0.00945666  0.81838266  0.74087438  1
  Zr  Zr53  1  0.49770595  0.67104483  0.35681808  1
  Zr  Zr54  1  0.58744448  0.61168517  0.51547974  1
  Zr  Zr55  1  0.20462424  0.59415259  0.76438381  1
  Zr  Zr56  1  0.31145448  0.49990935  0.37034251  1
  Zr  Zr57  1  0.08528309  0.11062416  0.86516672  1
  Zr  Zr58  1  0.82186561  0.00631565  0.25227172  1
  Zr  Zr59  1  0.18757795  0.20132462  0.00340464  1
  Zr  Zr60  1  0.50370046  0.89354738  0.61582090  1
  Zr  Zr61  1  0.31691051  0.90999314  0.88965440  1
  Zr  Zr62  1  -0.00146219  0.39381074  0.50814336  1
  Zr  Zr63  1  0.89457915  0.28811010  0.86834142  1
  Zr  Zr64  1  0.22040108  0.00078455  0.48150876  1
  Zr  Zr65  1  0.89838150  0.70539475  0.38292927  1
  Zr  Zr66  1  0.21520343  0.60426992  0.23337581  1
  Zr  Zr67  1  0.49373792  0.09124498  0.11742833  1
  Zr  Zr68  1  0.51973309  0.87979077  0.36440237  1
  Zr  Zr69  1  -0.00894654  0.20223237  0.00287899  1
  Zr  Zr70  1  -0.01035765  0.60022073  0.74626517  1
  Zr  Zr71  1  0.29654377  0.10860741  0.13887105  1
  Zr  Zr72  1  0.30791317  0.90455650  0.12549768  1
  Zr  Zr73  1  0.48358665  0.49526123  0.64304261  1
  Zr  Zr74  1  0.72009550  0.88522436  0.86905782  1
  Zr  Zr75  1  0.70742061  0.10105134  0.11619518  1
  Zr  Zr76  1  0.09083585  0.69962818  0.88097532  1
  Zr  Zr77  1  0.19920014  0.80136046  0.00006510  1
  Zr  Zr78  1  -0.00066817  0.40001882  0.75344583  1
  Zr  Zr79  1  0.69223326  0.30586729  0.86736650  1
  Ta  Ta80  1  0.68314335  0.31036614  0.11530844  1
  Ta  Ta81  1  0.79663349  0.40411668  0.73993807  1
  Ta  Ta82  1  0.09918059  0.10734798  0.60756925  1
  Ta  Ta83  1  0.08934007  0.69902372  0.11143445  1
  Ta  Ta84  1  0.91328425  0.10610010  0.60364919  1
  Ta  Ta85  1  0.10709260  0.50422369  0.37519735  1
  Ta  Ta86  1  0.50866152  0.69304463  0.88663894  1
  Ta  Ta87  1  0.20776092  0.79860708  0.50560041  1
  Ta  Ta88  1  0.50287537  0.68767883  0.12163568  1
  Ta  Ta89  1  0.81398353  0.61094919  0.01452994  1
  Ta  Ta90  1  0.10576245  0.50294297  0.12189384  1
  Ta  Ta91  1  0.20410976  0.40638715  0.50448667  1
  Ta  Ta92  1  0.19471014  0.58986334  -0.00617519  1
  Ta  Ta93  1  0.19704425  0.40196472  0.75598055  1
  Ta  Ta94  1  0.09631475  0.90914489  0.87343132  1
  Ta  Ta95  1  0.68887765  0.49878844  0.63183811  1
  Ta  Ta96  1  0.31435404  0.69490648  0.89071639  1
  Ta  Ta97  1  -0.00262455  0.59608504  0.50947801  1
  Ta  Ta98  1  -0.00363607  0.00283686  -0.00090299  1
  Ta  Ta99  1  0.19364094  0.21610946  0.48955939  1
  Ta  Ta100  1  0.70690395  0.67874820  0.87717859  1
  Ta  Ta101  1  0.91229539  0.89764369  0.39552378  1
  Ta  Ta102  1  0.10324883  0.88405966  0.38349503  1
  Ta  Ta103  1  0.17927156  0.79642444  0.24637416  1
  Ta  Ta104  1  0.39977681  0.00790533  0.27273646  1
  Ta  Ta105  1  0.40731023  0.60304805  0.75944176  1
  Ta  Ta106  1  0.39117353  -0.00678944  0.74382412  1
  Ta  Ta107  1  0.39441842  0.21874597  0.26228925  1
  Ta  Ta108  1  0.89189867  0.29990684  0.37243821  1
  Ta  Ta109  1  0.80424171  0.80593100  0.01629397  1
  Ta  Ta110  1  0.20294946  0.40189791  0.24561637  1
  Ta  Ta111  1  0.20469998  -0.00765464  0.27137137  1
  Ta  Ta112  1  0.78612016  0.19747170  0.26140451  1
  Ta  Ta113  1  0.19913157  0.00330201  0.74678580  1
  Ta  Ta114  1  0.30844975  0.48412199  0.10695925  1
  Ta  Ta115  1  0.59148118  0.39099660  0.50515596  1
  Ta  Ta116  1  0.29405121  0.10013692  0.86501108  1
  Ta  Ta117  1  0.62449230  0.58506497  0.00301620  1
  Ta  Ta118  1  0.29809576  0.31365808  0.63438187  1
  Ta  Ta119  1  0.10064381  0.29601780  0.62346851  1
  Ti  Ti120  1  0.90265215  0.90592578  0.59981296  1
  Ti  Ti121  1  0.90857200  0.91408926  0.87750001  1
  Ti  Ti122  1  0.41614731  0.80750006  0.00147497  1
  Ti  Ti123  1  -0.00515531  0.20077892  0.73829365  1
  Ti  Ti124  1  0.78547812  0.60839704  0.73932433  1
  Ti  Ti125  1  0.39740523  0.40190610  0.50600578  1
  Ti  Ti126  1  0.79528494  0.60419813  0.50785762  1
  Ti  Ti127  1  0.89466144  0.50516685  0.62584876  1
  Ti  Ti128  1  0.72583583  0.90726382  0.39069630  1
  Ti  Ti129  1  0.71705437  0.09826325  0.86905211  1
  Ti  Ti130  1  0.09340999  0.69770686  0.38496792  1
  Ti  Ti131  1  0.90592205  0.09839514  0.12633945  1
  Ti  Ti132  1  0.90670549  0.90266324  0.12293073  1
  Ti  Ti133  1  -0.00766005  0.80301406  -0.00037909  1
  Ti  Ti134  1  0.09266764  0.09722447  0.39137916  1
  Ti  Ti135  1  0.37870213  0.19309505  -0.00524392  1
  Ti  Ti136  1  0.30560235  0.68774501  0.10080872  1
  Ti  Ti137  1  0.29807475  0.31200926  0.37589970  1
  Ti  Ti138  1  0.79591915  0.19638762  -0.00510928  1
  Ti  Ti139  1  0.00361784  0.01261008  0.74095144  1
  Ti  Ti140  1  0.69723012  0.70112961  0.12923445  1
  Ti  Ti141  1  0.00514429  0.79184949  0.50870642  1
  Ti  Ti142  1  0.40500457  -0.00380157  0.47818362  1
  Ti  Ti143  1  0.60224236  0.19806431  -0.00789979  1
  Ti  Ti144  1  0.08902418  0.31510072  0.37129126  1
  Ti  Ti145  1  0.80950687  0.00200258  -0.00129790  1
  Ti  Ti146  1  0.60485193  0.19221776  0.75558369  1
  Ti  Ti147  1  0.10602984  0.49591866  0.62642365  1
  Ti  Ti148  1  0.01097209  -0.01282558  0.26534058  1
  Ti  Ti149  1  0.19132678  0.59814550  0.50699917  1
  Ti  Ti150  1  0.09312572  0.09638934  0.13811987  1
  Ti  Ti151  1  0.80721151  0.20077432  0.73561859  1
  Ti  Ti152  1  0.88610409  0.51834126  0.87238845  1
  Ti  Ti153  1  0.41276225  0.57106138  0.23511062  1
  Ti  Ti154  1  0.67873939  0.29374246  0.37959954  1
  Ti  Ti155  1  0.39223902  0.19013507  0.74631532  1
  Ti  Ti156  1  0.71091206  0.87992703  0.61202223  1
  Ti  Ti157  1  0.88651557  0.70852383  0.62066317  1
  Ti  Ti158  1  0.18823242  0.19955640  0.74120576  1
  Ti  Ti159  1  0.31516512  0.49684843  0.88616933  1
  Mo  Mo160  1  0.59755051  0.21210853  0.50712493  1
  Mo  Mo161  1  0.38707258  0.39821135  0.24275831  1
  Mo  Mo162  1  0.00341636  0.40385918  0.25992791  1
  Mo  Mo163  1  0.60669970  0.80168697  0.50279618  1
  Mo  Mo164  1  0.90690833  0.71026903  0.12470318  1
  Mo  Mo165  1  0.88883162  0.09320851  0.87098662  1
  Mo  Mo166  1  0.10091469  0.49974513  0.87715758  1
  Mo  Mo167  1  0.40663447  0.60307065  -0.00295164  1
  Mo  Mo168  1  0.80294769  -0.00223891  0.51233034  1
  Mo  Mo169  1  0.71078120  0.90358228  0.11858689  1
  Mo  Mo170  1  0.39105960  0.39270045  -0.01077564  1
  Mo  Mo171  1  0.01228260  -0.00348983  0.49704003  1
  Mo  Mo172  1  0.70177654  0.50205237  0.12910089  1
  Mo  Mo173  1  0.80687062  0.79372735  0.73761567  1
  Mo  Mo174  1  0.28702869  0.30096780  0.13149197  1
  Mo  Mo175  1  0.38893620  0.40450912  0.75609369  1
  Mo  Mo176  1  0.69429529  0.30277558  0.64200140  1
  Mo  Mo177  1  0.60136039  0.59675365  0.23656680  1
  Mo  Mo178  1  0.50038037  0.69656945  0.63262212  1
  Mo  Mo179  1  0.50779909  0.88782856  0.87560959  1
  Mo  Mo180  1  0.48941054  0.31906938  0.38058169  1
  Mo  Mo181  1  0.70616288  0.10493891  0.37807813  1
  Mo  Mo182  1  0.60524139  0.39922064  0.74718242  1
  Mo  Mo183  1  0.00368713  0.20909880  0.49297655  1
  Mo  Mo184  1  0.30272910  0.90251731  0.62654614  1
  Mo  Mo185  1  0.49863733  0.49011406  0.38186216  1
  Mo  Mo186  1  0.60416377  0.39076729  -0.00422653  1
  Mo  Mo187  1  0.89863715  0.29703440  0.63275725  1
  Mo  Mo188  1  0.09781717  0.30143094  0.85806299  1
  Mo  Mo189  1  0.80144696  0.79594049  0.50141835  1
  Mo  Mo190  1  0.71225241  0.50464143  0.86525171  1
  Mo  Mo191  1  0.70471566  0.69208766  0.61714038  1
  Mo  Mo192  1  0.60080318  0.59669318  0.74857379  1
  Mo  Mo193  1  0.30239816  0.10900447  0.37390455  1
  Mo  Mo194  1  0.60808440  0.78899904  0.23444570  1
  Mo  Mo195  1  0.40532852  0.00231974  0.00452756  1
  Mo  Mo196  1  -0.00297090  0.60509440  0.00083077  1
  Mo  Mo197  1  0.00055350  0.80894939  0.25441667  1
  Mo  Mo198  1  0.30345570  0.89311466  0.36599725  1
  Mo  Mo199  1  0.28542170  0.49718043  0.63085089  1
