# generated using pymatgen
data_HfZrTaTiMo
_symmetry_space_group_name_H-M   'P 1'
_cell_length_a   15.20556067
_cell_length_b   15.21078111
_cell_length_c   16.82745058
_cell_angle_alpha   89.97894648
_cell_angle_beta   90.05674389
_cell_angle_gamma   89.89829715
_symmetry_Int_Tables_number   1
_chemical_formula_structural   HfZrTaTiMo
_chemical_formula_sum   'Hf40 Zr40 Ta40 Ti40 Mo40'
_cell_volume   3891.98674074
_cell_formula_units_Z   40
loop_
 _symmetry_equiv_pos_site_id
 _symmetry_equiv_pos_as_xyz
  1  'x, y, z'
loop_
 _atom_site_type_symbol
 _atom_site_label
 _atom_site_symmetry_multiplicity
 _atom_site_fract_x
 _atom_site_fract_y
 _atom_site_fract_z
 _atom_site_occupancy
  Hf  Hf0  1  0.00432253  0.40473926  0.74743085  1
  Hf  Hf1  1  0.41224768  0.60455663  0.49152457  1
  Hf  Hf2  1  0.10024657  0.49553525  0.37164722  1
  Hf  Hf3  1  0.29890624  0.29374412  0.11583727  1
  Hf  Hf4  1  0.20972517  0.58134001  0.75083258  1
  Hf  Hf5  1  0.18605858  0.00304382  0.23211601  1
  Hf  Hf6  1  0.89656769  0.88703154  0.12005216  1
  Hf  Hf7  1  0.10651539  0.49653169  0.61432958  1
  Hf  Hf8  1  0.49552205  0.90205530  0.61135466  1
  Hf  Hf9  1  0.11718217  0.49270797  0.88561956  1
  Hf  Hf10  1  0.38846702  -0.00309173  0.23862112  1
  Hf  Hf11  1  0.68637386  0.89158549  0.12151866  1
  Hf  Hf12  1  0.70740234  0.68249478  0.36533366  1
  Hf  Hf13  1  0.61154700  0.59029332  0.50538415  1
  Hf  Hf14  1  0.50526607  0.68773514  0.13482809  1
  Hf  Hf15  1  0.09829772  0.50252968  0.12600115  1
  Hf  Hf16  1  0.50121862  0.49181374  0.62464786  1
  Hf  Hf17  1  0.78938445  -0.02224881  0.74990137  1
  Hf  Hf18  1  0.79466276  0.20435550  0.24992970  1
  Hf  Hf19  1  0.79006938  0.00355898  0.24422165  1
  Hf  Hf20  1  0.26681209  0.88948101  0.37954984  1
  Hf  Hf21  1  0.01445493  0.80888887  0.48420258  1
  Hf  Hf22  1  0.89332834  0.30596437  0.87709303  1
  Hf  Hf23  1  0.10544882  0.71098526  0.62491159  1
  Hf  Hf24  1  0.19439542  0.38357278  0.24635574  1
  Hf  Hf25  1  0.91020528  0.07480545  0.64032851  1
  Hf  Hf26  1  0.81393656  0.41265142  0.51680022  1
  Hf  Hf27  1  0.29407033  0.90129655  0.88737949  1
  Hf  Hf28  1  0.30635275  0.68547895  0.87460905  1
  Hf  Hf29  1  0.50254909  0.50302059  0.87399369  1
  Hf  Hf30  1  0.71741849  0.49020127  0.86047523  1
  Hf  Hf31  1  0.90319297  0.10426157  0.37533866  1
  Hf  Hf32  1  0.60542793  0.38326554  0.75376416  1
  Hf  Hf33  1  0.60046100  0.38069556  0.26452118  1
  Hf  Hf34  1  0.91163820  0.30898675  0.38123063  1
  Hf  Hf35  1  0.29080930  0.90974433  0.62209673  1
  Hf  Hf36  1  0.69506775  0.89739239  0.61072827  1
  Hf  Hf37  1  0.39848778  0.40532390  0.48164288  1
  Hf  Hf38  1  0.48162247  0.90063058  0.38418478  1
  Hf  Hf39  1  0.89527890  0.09746885  0.86920237  1
  Zr  Zr40  1  0.51373598  0.71209742  0.88112866  1
  Zr  Zr41  1  0.49917658  0.29516368  0.61509879  1
  Zr  Zr42  1  0.49670220  0.90201716  0.11340344  1
  Zr  Zr43  1  0.00616115  0.19883979  0.51546395  1
  Zr  Zr44  1  0.02371017  0.20546097  0.23074049  1
  Zr  Zr45  1  0.29776219  0.08952553  0.37492488  1
  Zr  Zr46  1  0.20532910  0.18891924  0.51045677  1
  Zr  Zr47  1  0.20888745  0.61006759  0.48936234  1
  Zr  Zr48  1  0.61115744  0.60319158  0.73558945  1
  Zr  Zr49  1  0.66996742  0.12101675  0.12698038  1
  Zr  Zr50  1  0.00933181  0.19989676  0.74354832  1
  Zr  Zr51  1  0.49044466  0.09873137  0.61816341  1
  Zr  Zr52  1  0.38940854  0.79209253  0.24193514  1
  Zr  Zr53  1  -0.01369307  0.81173988  0.75041732  1
  Zr  Zr54  1  0.40989311  0.80765779  0.75170746  1
  Zr  Zr55  1  0.68082002  0.89131170  0.89161364  1
  Zr  Zr56  1  0.29008958  0.10337302  0.88097501  1
  Zr  Zr57  1  0.71533562  0.69534672  0.86812525  1
  Zr  Zr58  1  0.79098058  0.21174747  0.73683601  1
  Zr  Zr59  1  0.70934275  0.69171921  0.14395169  1
  Zr  Zr60  1  0.79899373  0.40503039  0.25373897  1
  Zr  Zr61  1  0.80607517  0.19194269  0.52031498  1
  Zr  Zr62  1  0.09345164  0.10017359  0.88233055  1
  Zr  Zr63  1  -0.01090917  0.00545295  0.23093663  1
  Zr  Zr64  1  0.31117328  0.50075166  0.13503030  1
  Zr  Zr65  1  0.30253180  0.30447283  0.62558606  1
  Zr  Zr66  1  0.79084387  0.01238847  0.01417387  1
  Zr  Zr67  1  0.58679420  0.00859679  0.25636187  1
  Zr  Zr68  1  0.19709349  0.80367851  0.75733422  1
  Zr  Zr69  1  0.41063175  0.19563682  0.25202454  1
  Zr  Zr70  1  0.89627299  0.30807066  0.11948320  1
  Zr  Zr71  1  0.61485067  0.59107556  0.00334104  1
  Zr  Zr72  1  0.82123955  0.79598652  0.26302889  1
  Zr  Zr73  1  0.88829426  0.89724684  0.89031125  1
  Zr  Zr74  1  -0.00216922  0.61265579  0.25887114  1
  Zr  Zr75  1  0.90526927  0.69528613  0.87338553  1
  Zr  Zr76  1  0.38155421  0.40670298  0.76463941  1
  Zr  Zr77  1  0.50509043  0.29091648  0.12041162  1
  Zr  Zr78  1  0.90847046  0.50475047  0.87126925  1
  Zr  Zr79  1  -0.00189284  0.60496110  0.49385696  1
  Ta  Ta80  1  0.50113003  0.10206807  0.39188777  1
  Ta  Ta81  1  0.59644890  0.78770856  0.48550983  1
  Ta  Ta82  1  0.69457470  0.10142044  0.87049648  1
  Ta  Ta83  1  0.50989445  0.48903749  0.13455901  1
  Ta  Ta84  1  0.69925407  0.90037938  0.38338970  1
  Ta  Ta85  1  0.31016888  0.70057674  0.36961907  1
  Ta  Ta86  1  0.30173838  0.50072032  0.61840842  1
  Ta  Ta87  1  0.78335503  0.40474811  0.00203521  1
  Ta  Ta88  1  0.28939604  0.89404690  0.10845294  1
  Ta  Ta89  1  0.08975554  0.90222769  0.88839184  1
  Ta  Ta90  1  0.80584035  0.60639741  0.51417819  1
  Ta  Ta91  1  0.40201820  0.20296249  0.76668675  1
  Ta  Ta92  1  0.40397198  0.39709882  0.26295517  1
  Ta  Ta93  1  0.81396773  0.59266322  0.00897331  1
  Ta  Ta94  1  0.39192043  0.00671069  0.75416753  1
  Ta  Ta95  1  0.70267150  0.29560080  0.39975578  1
  Ta  Ta96  1  0.10060200  0.09714861  0.37205744  1
  Ta  Ta97  1  0.58571263  -0.00192865  0.75548084  1
  Ta  Ta98  1  0.20298900  0.62529303  0.24633701  1
  Ta  Ta99  1  0.68912729  0.30892486  0.60841358  1
  Ta  Ta100  1  0.20815105  0.60178075  0.00847537  1
  Ta  Ta101  1  0.50602989  0.70729137  0.62028846  1
  Ta  Ta102  1  0.69874531  0.10173607  0.38350577  1
  Ta  Ta103  1  0.80347282  -0.00610275  0.49966875  1
  Ta  Ta104  1  0.40503341  0.59246320  0.00597957  1
  Ta  Ta105  1  0.89125308  0.51326790  0.37503770  1
  Ta  Ta106  1  0.19272722  0.78878555  -0.00388055  1
  Ta  Ta107  1  0.79056918  0.20688227  -0.00244829  1
  Ta  Ta108  1  -0.00453500  0.19748208  0.01097450  1
  Ta  Ta109  1  0.10424482  0.30634886  0.62402457  1
  Ta  Ta110  1  0.59830245  0.21861369  -0.02445901  1
  Ta  Ta111  1  0.30873299  0.70008861  0.62574034  1
  Ta  Ta112  1  0.40805065  0.19092923  -0.01392879  1
  Ta  Ta113  1  0.39014721  0.79662689  0.49940320  1
  Ta  Ta114  1  0.57673836  0.02402395  -0.00483667  1
  Ta  Ta115  1  -0.00185065  0.40402954  0.24792496  1
  Ta  Ta116  1  0.02843237  0.80582109  0.26361457  1
  Ta  Ta117  1  0.39537900  0.78767230  0.00687689  1
  Ta  Ta118  1  0.09593228  0.88854745  0.11128993  1
  Ta  Ta119  1  0.29606358  0.29364695  0.37057475  1
  Ti  Ti120  1  -0.00016187  0.00353628  0.50025188  1
  Ti  Ti121  1  0.00021673  0.79001435  -0.00110433  1
  Ti  Ti122  1  0.10073885  0.69609529  0.87270253  1
  Ti  Ti123  1  0.81656586  0.59782495  0.72203805  1
  Ti  Ti124  1  0.70245362  0.49216006  0.37765222  1
  Ti  Ti125  1  0.00643949  0.60637787  0.73909449  1
  Ti  Ti126  1  0.69792636  0.49881281  0.13491735  1
  Ti  Ti127  1  0.89282589  0.88030399  0.61712768  1
  Ti  Ti128  1  0.90413686  0.90880940  0.37492486  1
  Ti  Ti129  1  0.89566040  0.50476189  0.12811507  1
  Ti  Ti130  1  0.40657775  0.60395879  0.74317821  1
  Ti  Ti131  1  0.50682018  0.29266366  0.39034342  1
  Ti  Ti132  1  0.60926427  0.80682434  0.74371171  1
  Ti  Ti133  1  0.20588505  0.20884944  0.74875163  1
  Ti  Ti134  1  0.80816119  0.79325748  0.48600697  1
  Ti  Ti135  1  0.50756213  0.51328962  0.36216112  1
  Ti  Ti136  1  0.00978237  0.60417743  0.00498757  1
  Ti  Ti137  1  0.19978233  0.39596270  0.48943587  1
  Ti  Ti138  1  -0.00159340  0.40303941  0.00431920  1
  Ti  Ti139  1  0.79139236  0.78270273  0.00802247  1
  Ti  Ti140  1  0.41097496  0.39733359  -0.00649374  1
  Ti  Ti141  1  0.10430880  0.29060886  0.37760231  1
  Ti  Ti142  1  0.18941546  0.00238233  0.00825885  1
  Ti  Ti143  1  0.71056941  0.70992274  0.62057772  1
  Ti  Ti144  1  0.28761023  0.31332314  0.89107347  1
  Ti  Ti145  1  0.18680449  0.00601384  0.75056091  1
  Ti  Ti146  1  0.08545497  0.91582740  0.63020998  1
  Ti  Ti147  1  0.59336525  0.19456337  0.76065801  1
  Ti  Ti148  1  0.48927551  0.90906118  0.89141428  1
  Ti  Ti149  1  0.60030593  0.00145174  0.49421100  1
  Ti  Ti150  1  0.18735143  -0.00277703  0.50789132  1
  Ti  Ti151  1  -0.00746469  0.00524324  0.01504119  1
  Ti  Ti152  1  0.69082897  0.31222605  0.11947876  1
  Ti  Ti153  1  0.91420032  0.69450354  0.12605080  1
  Ti  Ti154  1  0.30088721  0.50248625  0.35808231  1
  Ti  Ti155  1  0.29727576  0.10210256  0.11026452  1
  Ti  Ti156  1  0.59531457  0.79848331  0.26820146  1
  Ti  Ti157  1  0.10322417  0.29942066  0.88886019  1
  Ti  Ti158  1  0.68693649  0.09646286  0.62637919  1
  Ti  Ti159  1  0.39480493  0.19373200  0.49728216  1
  Mo  Mo160  1  0.19968541  0.80674300  0.23766782  1
  Mo  Mo161  1  0.91190082  0.50583502  0.62601417  1
  Mo  Mo162  1  0.49489687  0.30148555  0.87539182  1
  Mo  Mo163  1  0.90347927  0.70426060  0.37881308  1
  Mo  Mo164  1  0.80723977  0.59207327  0.24670999  1
  Mo  Mo165  1  0.80416294  0.40249307  0.72262880  1
  Mo  Mo166  1  0.70498382  0.29850171  0.87109647  1
  Mo  Mo167  1  0.38604313  0.00293425  0.49989788  1
  Mo  Mo168  1  0.60407179  0.20115087  0.27045477  1
  Mo  Mo169  1  0.48521909  0.10777778  0.11632849  1
  Mo  Mo170  1  0.11283398  0.09146408  0.63546280  1
  Mo  Mo171  1  0.12091947  0.71590809  0.37378066  1
  Mo  Mo172  1  0.60277678  0.58418503  0.25289094  1
  Mo  Mo173  1  0.49726060  0.09562869  0.86752552  1
  Mo  Mo174  1  0.19559597  0.20581869  0.00002197  1
  Mo  Mo175  1  0.60268644  0.19456120  0.49843915  1
  Mo  Mo176  1  0.59600054  0.79969903  0.00362748  1
  Mo  Mo177  1  0.38896262  0.00007545  0.00355511  1
  Mo  Mo178  1  0.60216334  0.40181275  -0.00331899  1
  Mo  Mo179  1  0.90284721  0.70691608  0.61955469  1
  Mo  Mo180  1  0.60097289  0.40362980  0.48764725  1
  Mo  Mo181  1  0.10481489  0.10184086  0.10634263  1
  Mo  Mo182  1  0.30471085  0.49911544  0.89093049  1
  Mo  Mo183  1  0.09460458  0.92174380  0.37436716  1
  Mo  Mo184  1  0.70339279  0.49885610  0.63095762  1
  Mo  Mo185  1  0.01152422  0.39883088  0.49598420  1
  Mo  Mo186  1  0.00062148  -0.00859609  0.75615886  1
  Mo  Mo187  1  0.50518679  0.70132936  0.36821409  1
  Mo  Mo188  1  0.20318679  0.19569079  0.24823464  1
  Mo  Mo189  1  0.30030775  0.69729052  0.11783594  1
  Mo  Mo190  1  0.29935205  0.10114525  0.64318562  1
  Mo  Mo191  1  0.88887459  0.10584910  0.11647684  1
  Mo  Mo192  1  0.78922275  0.79031722  0.73916282  1
  Mo  Mo193  1  0.40341480  0.59245356  0.25545893  1
  Mo  Mo194  1  0.90708098  0.30755492  0.62720399  1
  Mo  Mo195  1  0.20131889  0.80339780  0.50866298  1
  Mo  Mo196  1  0.10400390  0.30484714  0.10829970  1
  Mo  Mo197  1  0.10014051  0.70465455  0.12013352  1
  Mo  Mo198  1  0.19617393  0.38880651  0.75385726  1
  Mo  Mo199  1  0.20018245  0.40226315  0.01012513  1
