# generated using pymatgen
data_HfZrTaTiMo
_symmetry_space_group_name_H-M   'P 1'
_cell_length_a   15.22044325
_cell_length_b   15.20426607
_cell_length_c   16.85001785
_cell_angle_alpha   89.96380651
_cell_angle_beta   90.03676033
_cell_angle_gamma   90.05572743
_symmetry_Int_Tables_number   1
_chemical_formula_structural   HfZrTaTiMo
_chemical_formula_sum   'Hf40 Zr40 Ta40 Ti40 Mo40'
_cell_volume   3899.35472587
_cell_formula_units_Z   40
loop_
 _symmetry_equiv_pos_site_id
 _symmetry_equiv_pos_as_xyz
  1  'x, y, z'
loop_
 _atom_site_type_symbol
 _atom_site_label
 _atom_site_symmetry_multiplicity
 _atom_site_fract_x
 _atom_site_fract_y
 _atom_site_fract_z
 _atom_site_occupancy
  Hf  Hf0  1  -0.01014776  0.00296488  0.73866276  1
  Hf  Hf1  1  0.80379335  0.20038045  0.75653248  1
  Hf  Hf2  1  0.09501440  0.08966758  0.88395422  1
  Hf  Hf3  1  0.22229288  0.41503643  0.00601812  1
  Hf  Hf4  1  0.19993428  -0.00045656  0.74095245  1
  Hf  Hf5  1  0.39104022  0.19341543  0.74375013  1
  Hf  Hf6  1  0.60383131  0.79214371  0.74332100  1
  Hf  Hf7  1  0.30686498  0.67865443  0.11630739  1
  Hf  Hf8  1  0.20752695  0.41072425  0.49848562  1
  Hf  Hf9  1  -0.00117219  0.58227726  0.50016329  1
  Hf  Hf10  1  0.48065582  0.70587152  0.39159658  1
  Hf  Hf11  1  0.40063182  0.79262796  0.75286229  1
  Hf  Hf12  1  0.89165591  0.10196465  0.37981927  1
  Hf  Hf13  1  0.79140684  0.18447894  0.24193688  1
  Hf  Hf14  1  0.57607479  0.61067179  0.26378410  1
  Hf  Hf15  1  0.69849177  0.12475684  0.61120936  1
  Hf  Hf16  1  0.90058123  0.71029618  0.12977990  1
  Hf  Hf17  1  0.49606868  0.09719913  0.62104408  1
  Hf  Hf18  1  0.10434190  0.50548396  0.86555416  1
  Hf  Hf19  1  0.18986728  0.19591654  0.74202227  1
  Hf  Hf20  1  0.10572516  0.29369551  0.88948345  1
  Hf  Hf21  1  0.38016050  0.58782025  0.50632624  1
  Hf  Hf22  1  0.79489538  0.22733484  0.48965737  1
  Hf  Hf23  1  0.62297899  -0.00208759  0.73847106  1
  Hf  Hf24  1  -0.00485892  0.39397156  0.76003578  1
  Hf  Hf25  1  0.70765822  0.90637032  0.88020777  1
  Hf  Hf26  1  0.60372824  0.20838548  0.75464264  1
  Hf  Hf27  1  0.70471139  0.50483576  0.36478805  1
  Hf  Hf28  1  0.30029974  0.29646510  0.37569416  1
  Hf  Hf29  1  0.39991679  -0.00348519  0.50071750  1
  Hf  Hf30  1  0.09020220  0.29906498  0.62210969  1
  Hf  Hf31  1  0.61753409  0.41873459  0.74097880  1
  Hf  Hf32  1  0.39775167  0.57723336  -0.01156038  1
  Hf  Hf33  1  0.50608060  0.90196058  0.88246274  1
  Hf  Hf34  1  0.78288181  0.60159237  0.74247162  1
  Hf  Hf35  1  0.19893609  -0.01393000  0.24802801  1
  Hf  Hf36  1  0.09138645  0.29557696  0.37865880  1
  Hf  Hf37  1  0.00968596  0.41728649  0.00482916  1
  Hf  Hf38  1  0.41518207  0.79365257  0.24334383  1
  Hf  Hf39  1  0.71051241  0.90865065  0.39246939  1
  Zr  Zr40  1  0.09966115  0.68488628  0.12502142  1
  Zr  Zr41  1  0.49836725  0.91076036  0.11699076  1
  Zr  Zr42  1  0.90534066  0.90108857  0.38473250  1
  Zr  Zr43  1  0.32193304  0.28958508  0.12907299  1
  Zr  Zr44  1  0.91066595  0.52004791  0.12616765  1
  Zr  Zr45  1  0.00275663  0.00512965  0.51344945  1
  Zr  Zr46  1  0.01369675  0.39707378  0.23496984  1
  Zr  Zr47  1  0.81430300  0.39121925  0.23919651  1
  Zr  Zr48  1  0.59239495  0.42168016  0.00106726  1
  Zr  Zr49  1  0.62182632  0.38567820  0.50070912  1
  Zr  Zr50  1  0.30515207  0.08603658  0.12674870  1
  Zr  Zr51  1  0.90101240  0.69768194  0.61473584  1
  Zr  Zr52  1  0.81487518  0.79955400  0.00297579  1
  Zr  Zr53  1  0.09322066  0.09351424  0.11014482  1
  Zr  Zr54  1  0.90718635  0.90465854  0.87195637  1
  Zr  Zr55  1  0.70495917  0.70155773  0.87438132  1
  Zr  Zr56  1  0.29696927  0.09486944  0.37568087  1
  Zr  Zr57  1  0.20882680  0.78942599  0.25019320  1
  Zr  Zr58  1  -0.00235164  0.80616800  0.25364597  1
  Zr  Zr59  1  0.80031589  0.40844472  0.01226066  1
  Zr  Zr60  1  0.88474425  0.69711805  0.39012960  1
  Zr  Zr61  1  0.39948490  -0.00742729  0.75077759  1
  Zr  Zr62  1  0.69067526  0.70485002  0.13039351  1
  Zr  Zr63  1  0.68869793  0.50961748  0.14258894  1
  Zr  Zr64  1  0.10428559  0.49755533  0.63598137  1
  Zr  Zr65  1  0.69573444  0.10146758  0.89506630  1
  Zr  Zr66  1  0.60746762  0.00245906  0.25100421  1
  Zr  Zr67  1  0.30408306  0.31977003  0.62852670  1
  Zr  Zr68  1  0.69624676  0.70779296  0.60185675  1
  Zr  Zr69  1  0.19097240  0.19450379  0.25055523  1
  Zr  Zr70  1  0.30711967  0.29073647  0.87583290  1
  Zr  Zr71  1  0.67895753  0.29481808  0.13271677  1
  Zr  Zr72  1  0.51370555  0.29849974  0.62250688  1
  Zr  Zr73  1  0.31015269  0.88169392  0.38261792  1
  Zr  Zr74  1  0.58876039  0.58499144  0.49735975  1
  Zr  Zr75  1  0.10998651  0.29144897  0.10635255  1
  Zr  Zr76  1  0.70165670  0.30795551  0.88893306  1
  Zr  Zr77  1  0.09982555  0.70088463  0.37985855  1
  Zr  Zr78  1  0.49251453  0.10924100  0.88148251  1
  Zr  Zr79  1  0.40592825  0.41061703  0.26515717  1
  Ta  Ta80  1  0.89317890  0.30080349  0.62585910  1
  Ta  Ta81  1  0.20009243  0.79966023  0.74926878  1
  Ta  Ta82  1  0.19760070  0.19166264  0.51126282  1
  Ta  Ta83  1  0.10792038  0.90712676  0.38575037  1
  Ta  Ta84  1  0.79657503  0.00016575  0.01630511  1
  Ta  Ta85  1  0.29781402  0.69035311  0.87499310  1
  Ta  Ta86  1  0.80797771  -0.00426474  0.23852693  1
  Ta  Ta87  1  0.29283146  0.69506390  0.62929042  1
  Ta  Ta88  1  0.50422053  0.69226881  0.87919488  1
  Ta  Ta89  1  0.60045769  0.79896981  -0.00135286  1
  Ta  Ta90  1  0.88335623  0.48934581  0.62225464  1
  Ta  Ta91  1  0.20121667  0.60500716  0.75136996  1
  Ta  Ta92  1  0.30538855  0.89111204  0.62071377  1
  Ta  Ta93  1  0.48408141  0.50372005  0.13278933  1
  Ta  Ta94  1  0.69850639  0.30039203  0.35400591  1
  Ta  Ta95  1  0.39643231  0.79375695  -0.00701771  1
  Ta  Ta96  1  0.50203179  0.50469316  0.85800202  1
  Ta  Ta97  1  0.38668424  0.00658424  -0.00781769  1
  Ta  Ta98  1  0.90661049  0.48916659  0.36928591  1
  Ta  Ta99  1  0.89129697  0.50959200  0.87760007  1
  Ta  Ta100  1  0.41458714  0.40180097  0.48719241  1
  Ta  Ta101  1  0.10272165  0.89001498  0.62392752  1
  Ta  Ta102  1  -0.00895088  0.60193725  0.75140767  1
  Ta  Ta103  1  0.89241087  0.10448566  0.89278429  1
  Ta  Ta104  1  0.02362391  0.80562314  -0.00562161  1
  Ta  Ta105  1  0.51100468  0.89007775  0.61439959  1
  Ta  Ta106  1  0.89214111  0.10571944  0.61996801  1
  Ta  Ta107  1  0.68924843  0.71577027  0.38679062  1
  Ta  Ta108  1  0.90226931  0.29593249  0.89585953  1
  Ta  Ta109  1  0.51417241  0.89714245  0.38235402  1
  Ta  Ta110  1  0.19923627  0.00057670  0.51660591  1
  Ta  Ta111  1  0.00318417  0.79900472  0.74178064  1
  Ta  Ta112  1  0.19091338  -0.02594904  -0.00445341  1
  Ta  Ta113  1  0.00101712  0.00768492  0.24949902  1
  Ta  Ta114  1  0.28994638  0.89107327  0.87944272  1
  Ta  Ta115  1  0.80285736  0.82759430  0.72993434  1
  Ta  Ta116  1  0.20477197  0.40386363  0.24359155  1
  Ta  Ta117  1  0.21363548  0.58643567  0.25760506  1
  Ta  Ta118  1  -0.01284810  0.19730864  0.24735057  1
  Ta  Ta119  1  0.78455254  0.80896797  0.25329519  1
  Ti  Ti120  1  0.90530993  0.28504864  0.10510294  1
  Ti  Ti121  1  -0.00635781  -0.01005836  0.00107496  1
  Ti  Ti122  1  0.49964325  0.31247620  0.86661399  1
  Ti  Ti123  1  0.50262730  0.69650215  0.11312957  1
  Ti  Ti124  1  0.49084405  0.49717819  0.63354366  1
  Ti  Ti125  1  0.10055239  0.71095555  0.86892476  1
  Ti  Ti126  1  0.57896340  0.21331668  0.00383511  1
  Ti  Ti127  1  0.68647481  0.09673544  0.11326204  1
  Ti  Ti128  1  0.80583622  0.40132839  0.75971459  1
  Ti  Ti129  1  0.69802551  0.89944444  0.12240087  1
  Ti  Ti130  1  0.40384236  0.59829806  0.74540237  1
  Ti  Ti131  1  0.50855020  0.28619109  0.36926162  1
  Ti  Ti132  1  0.69360175  0.51472643  0.87831546  1
  Ti  Ti133  1  0.40111191  0.20157233  0.50035365  1
  Ti  Ti134  1  -0.00666279  0.19785069  0.75504981  1
  Ti  Ti135  1  0.09584959  0.09631073  0.37791076  1
  Ti  Ti136  1  0.29814182  0.88581926  0.11211580  1
  Ti  Ti137  1  0.20673453  0.79510817  0.50328168  1
  Ti  Ti138  1  0.19560233  0.60243773  0.49820424  1
  Ti  Ti139  1  0.89750772  0.10047775  0.11349111  1
  Ti  Ti140  1  0.00700665  0.80071075  0.50760135  1
  Ti  Ti141  1  -0.01393889  0.38918628  0.49487575  1
  Ti  Ti142  1  0.19037332  0.60274049  -0.00788335  1
  Ti  Ti143  1  0.10183391  0.69748062  0.62668416  1
  Ti  Ti144  1  0.41259616  0.00736284  0.26190602  1
  Ti  Ti145  1  -0.00272724  0.19884233  0.50122960  1
  Ti  Ti146  1  0.90170310  0.70546602  0.86424633  1
  Ti  Ti147  1  0.41370722  0.38446609  0.00334762  1
  Ti  Ti148  1  0.90650869  0.90453908  0.12705286  1
  Ti  Ti149  1  0.79046895  0.60346592  0.00142284  1
  Ti  Ti150  1  0.49537714  0.11862789  0.12349001  1
  Ti  Ti151  1  0.49103488  0.69969062  0.61498886  1
  Ti  Ti152  1  0.68605348  0.10802846  0.38124798  1
  Ti  Ti153  1  0.10539475  0.49271741  0.37358518  1
  Ti  Ti154  1  0.00916469  0.59566827  0.25873061  1
  Ti  Ti155  1  0.80458434  0.61206364  0.25629399  1
  Ti  Ti156  1  0.60298412  0.00698492  0.50191204  1
  Ti  Ti157  1  0.30562315  0.48685037  0.84949016  1
  Ti  Ti158  1  0.10035209  0.89143331  0.12458983  1
  Ti  Ti159  1  -0.00657695  0.61355512  -0.01259809  1
  Mo  Mo160  1  0.70459756  0.50152442  0.61889839  1
  Mo  Mo161  1  0.59083603  0.19760444  0.48468421  1
  Mo  Mo162  1  0.50028817  0.49284048  0.37928880  1
  Mo  Mo163  1  0.80420810  0.81034041  0.51235279  1
  Mo  Mo164  1  0.09425097  0.10481733  0.62577226  1
  Mo  Mo165  1  0.59284744  0.60745781  -0.00019753  1
  Mo  Mo166  1  0.49920196  0.09668347  0.38386555  1
  Mo  Mo167  1  -0.00301775  0.19561405  -0.00392696  1
  Mo  Mo168  1  0.40404032  0.19956052  -0.00144453  1
  Mo  Mo169  1  0.30340026  0.50349319  0.64198632  1
  Mo  Mo170  1  0.80028897  0.01198010  0.74420043  1
  Mo  Mo171  1  0.41093605  0.40052575  0.75112906  1
  Mo  Mo172  1  0.89846957  0.90104154  0.61806507  1
  Mo  Mo173  1  0.20407637  0.78979721  -0.00447179  1
  Mo  Mo174  1  0.58733614  0.60846721  0.73895037  1
  Mo  Mo175  1  0.70677832  0.91464615  0.60505466  1
  Mo  Mo176  1  0.39429399  0.79426416  0.51379201  1
  Mo  Mo177  1  0.79882538  0.59035879  0.49166489  1
  Mo  Mo178  1  0.58560609  0.19372111  0.25492866  1
  Mo  Mo179  1  0.39179807  0.60553975  0.25467163  1
  Mo  Mo180  1  0.59682434  0.40174232  0.25878149  1
  Mo  Mo181  1  0.79805458  0.01522025  0.50525404  1
  Mo  Mo182  1  0.90274461  0.29653530  0.36682263  1
  Mo  Mo183  1  0.60299753  0.80542569  0.25780650  1
  Mo  Mo184  1  0.41081310  0.19099456  0.25871200  1
  Mo  Mo185  1  0.20064950  0.40024194  0.75407304  1
  Mo  Mo186  1  0.79553448  0.19794577  0.01398750  1
  Mo  Mo187  1  0.81190616  0.41290478  0.48697786  1
  Mo  Mo188  1  0.59389182  0.00060671  0.01249279  1
  Mo  Mo189  1  0.72339325  0.32021988  0.63078861  1
  Mo  Mo190  1  0.50140338  0.30370747  0.13459087  1
  Mo  Mo191  1  0.21705654  0.17532404  -0.00648572  1
  Mo  Mo192  1  0.29273787  0.69243676  0.38022779  1
  Mo  Mo193  1  0.59367201  0.80654891  0.50187783  1
  Mo  Mo194  1  0.28925970  0.09209875  0.88288839  1
  Mo  Mo195  1  0.11546664  0.50951992  0.12480884  1
  Mo  Mo196  1  0.09956459  0.89183731  0.86487082  1
  Mo  Mo197  1  0.30254376  0.49745573  0.12424900  1
  Mo  Mo198  1  0.29831367  0.10225010  0.61505287  1
  Mo  Mo199  1  0.29538451  0.50000282  0.38038594  1
