# generated using pymatgen
data_HfZrTaTiMo
_symmetry_space_group_name_H-M   'P 1'
_cell_length_a   15.22728867
_cell_length_b   15.19601245
_cell_length_c   16.84492865
_cell_angle_alpha   90.03534316
_cell_angle_beta   89.99344072
_cell_angle_gamma   90.11852754
_symmetry_Int_Tables_number   1
_chemical_formula_structural   HfZrTaTiMo
_chemical_formula_sum   'Hf40 Zr40 Ta40 Ti40 Mo40'
_cell_volume   3897.80746020
_cell_formula_units_Z   40
loop_
 _symmetry_equiv_pos_site_id
 _symmetry_equiv_pos_as_xyz
  1  'x, y, z'
loop_
 _atom_site_type_symbol
 _atom_site_label
 _atom_site_symmetry_multiplicity
 _atom_site_fract_x
 _atom_site_fract_y
 _atom_site_fract_z
 _atom_site_occupancy
  Hf  Hf0  1  0.50576687  0.49683790  0.61485855  1
  Hf  Hf1  1  0.80812257  0.22565896  0.00124868  1
  Hf  Hf2  1  0.41039131  0.19975225  0.74138590  1
  Hf  Hf3  1  0.70370519  0.70569043  0.88044377  1
  Hf  Hf4  1  0.69782515  0.91079180  0.86284769  1
  Hf  Hf5  1  0.31222395  0.10085141  0.11799025  1
  Hf  Hf6  1  0.60649145  0.59220487  0.74898706  1
  Hf  Hf7  1  0.77613998  0.80216052  0.23048669  1
  Hf  Hf8  1  0.30358637  0.89880885  0.36730043  1
  Hf  Hf9  1  0.79019728  0.41960342  0.73837092  1
  Hf  Hf10  1  0.51635470  0.09073443  0.12396647  1
  Hf  Hf11  1  0.18467436  -0.01268400  0.74848573  1
  Hf  Hf12  1  0.59133583  0.62689197  0.24343664  1
  Hf  Hf13  1  0.91232890  0.31256991  0.38910401  1
  Hf  Hf14  1  0.20142936  -0.00331624  0.50800750  1
  Hf  Hf15  1  -0.01182743  0.18603335  0.74571125  1
  Hf  Hf16  1  0.89550844  0.69834255  0.36830206  1
  Hf  Hf17  1  0.80765136  0.02974434  0.73835741  1
  Hf  Hf18  1  0.38869972  0.39800540  -0.00222433  1
  Hf  Hf19  1  0.79338737  0.01251942  0.24175182  1
  Hf  Hf20  1  0.80042219  0.80866269  0.01533347  1
  Hf  Hf21  1  0.80565806  0.01139271  0.51322313  1
  Hf  Hf22  1  0.39642920  0.19003583  0.50687834  1
  Hf  Hf23  1  0.50350391  0.30279884  0.37935754  1
  Hf  Hf24  1  0.29951259  0.50458286  0.62812734  1
  Hf  Hf25  1  0.10590510  0.30814417  0.39761904  1
  Hf  Hf26  1  0.59014401  0.82323518  0.01252792  1
  Hf  Hf27  1  0.10400664  0.29962795  0.85529716  1
  Hf  Hf28  1  0.71599622  0.31136830  0.13940886  1
  Hf  Hf29  1  0.49063800  0.68950137  0.61276288  1
  Hf  Hf30  1  0.00280247  -0.01034131  0.49801576  1
  Hf  Hf31  1  0.90569756  0.48268837  0.12176830  1
  Hf  Hf32  1  0.30211266  0.68294891  0.14554219  1
  Hf  Hf33  1  0.89244451  0.90338365  0.36471016  1
  Hf  Hf34  1  0.51390763  0.29609095  0.60731516  1
  Hf  Hf35  1  0.59607593  0.39087624  -0.00137235  1
  Hf  Hf36  1  0.78661724  0.59388146  0.49077066  1
  Hf  Hf37  1  0.50414489  0.89390572  0.38085205  1
  Hf  Hf38  1  0.29086388  0.87017283  0.87484558  1
  Hf  Hf39  1  0.39579126  -0.00074463  0.73586671  1
  Zr  Zr40  1  0.19130145  0.77460024  0.01398579  1
  Zr  Zr41  1  0.49807797  0.09206082  0.37834248  1
  Zr  Zr42  1  0.20626742  0.20750616  -0.00131236  1
  Zr  Zr43  1  0.80277321  0.80382329  0.50972927  1
  Zr  Zr44  1  0.48268333  0.51033358  0.13444783  1
  Zr  Zr45  1  0.90108483  0.90844337  0.86670479  1
  Zr  Zr46  1  0.09107146  0.09663432  0.11444561  1
  Zr  Zr47  1  0.88876812  0.29969815  0.62623418  1
  Zr  Zr48  1  0.40980869  -0.01172261  -0.00141001  1
  Zr  Zr49  1  0.60771628  0.19512650  0.00006837  1
  Zr  Zr50  1  0.49762786  0.49873604  0.87826502  1
  Zr  Zr51  1  0.28755858  0.87789531  0.62781209  1
  Zr  Zr52  1  0.91529088  0.70913074  0.87944826  1
  Zr  Zr53  1  0.90166479  0.50816117  0.87785165  1
  Zr  Zr54  1  0.49519133  0.90438725  0.86193665  1
  Zr  Zr55  1  0.60704855  0.19595163  0.25470098  1
  Zr  Zr56  1  0.81737869  0.20744152  0.25323583  1
  Zr  Zr57  1  0.00004653  0.79250138  0.50049525  1
  Zr  Zr58  1  0.19493529  -0.01690522  0.00142772  1
  Zr  Zr59  1  0.19759223  0.20369019  0.24263213  1
  Zr  Zr60  1  -0.00371598  0.58117452  0.49631371  1
  Zr  Zr61  1  0.30004191  0.09730898  0.87290357  1
  Zr  Zr62  1  0.69985022  0.90607823  0.63427460  1
  Zr  Zr63  1  0.29649927  0.50262557  0.85969387  1
  Zr  Zr64  1  0.90649739  0.90860748  0.12783752  1
  Zr  Zr65  1  0.18886752  0.39861419  0.00083432  1
  Zr  Zr66  1  0.77919093  0.01517198  0.01070504  1
  Zr  Zr67  1  0.19501245  0.79022594  0.48649413  1
  Zr  Zr68  1  0.59532915  0.79720740  0.74188347  1
  Zr  Zr69  1  0.62331860  0.41498980  0.49071728  1
  Zr  Zr70  1  0.48728524  0.70101942  0.88590271  1
  Zr  Zr71  1  0.38012759  0.76323714  0.74246387  1
  Zr  Zr72  1  0.70300214  0.50345095  0.88910478  1
  Zr  Zr73  1  0.80580353  0.60823197  0.01878558  1
  Zr  Zr74  1  0.80350662  0.60230413  0.24306526  1
  Zr  Zr75  1  0.69003385  0.49911731  0.13012100  1
  Zr  Zr76  1  0.20559629  -0.00419646  0.23921013  1
  Zr  Zr77  1  0.10528981  0.10228455  0.37808499  1
  Zr  Zr78  1  0.10240614  0.30488132  0.62735352  1
  Zr  Zr79  1  0.49675528  0.30770000  0.14113283  1
  Ta  Ta80  1  0.02357394  0.60431645  0.00503197  1
  Ta  Ta81  1  0.70316436  0.10079368  0.38325363  1
  Ta  Ta82  1  0.60111235  0.79876674  0.50649231  1
  Ta  Ta83  1  0.60271442  0.00421564  0.50694101  1
  Ta  Ta84  1  0.70447741  0.11043684  0.86721056  1
  Ta  Ta85  1  0.89873036  0.10998813  0.88332006  1
  Ta  Ta86  1  -0.00459870  0.39524765  -0.00765316  1
  Ta  Ta87  1  0.59748229  0.39083846  0.74837790  1
  Ta  Ta88  1  0.69869989  0.68549273  0.62142140  1
  Ta  Ta89  1  0.39572212  0.79444572  0.49930597  1
  Ta  Ta90  1  0.41073606  0.20893841  -0.00916685  1
  Ta  Ta91  1  0.30156448  0.09858643  0.37687535  1
  Ta  Ta92  1  0.09949949  0.50407464  0.86118655  1
  Ta  Ta93  1  0.29585847  0.29331384  0.38367317  1
  Ta  Ta94  1  0.30763344  0.69302905  0.36535572  1
  Ta  Ta95  1  0.78859534  0.21448267  0.49406570  1
  Ta  Ta96  1  0.20332964  0.19399818  0.51770068  1
  Ta  Ta97  1  0.80767075  0.78824446  0.74095387  1
  Ta  Ta98  1  0.39384739  0.19923444  0.25591280  1
  Ta  Ta99  1  0.09078598  0.09073835  0.87717640  1
  Ta  Ta100  1  0.09419793  0.87981261  0.13415365  1
  Ta  Ta101  1  0.11134424  0.69716300  0.62852383  1
  Ta  Ta102  1  0.20005314  0.58084716  0.26989906  1
  Ta  Ta103  1  0.09581709  0.89457906  0.35738323  1
  Ta  Ta104  1  0.60459666  -0.01326036  0.25106871  1
  Ta  Ta105  1  0.38654616  0.40667794  0.26756030  1
  Ta  Ta106  1  0.30231646  0.30591236  0.62639551  1
  Ta  Ta107  1  0.11193889  0.69491485  0.86649257  1
  Ta  Ta108  1  0.19807500  0.58362402  0.48417965  1
  Ta  Ta109  1  0.00466664  0.20819863  -0.00720754  1
  Ta  Ta110  1  0.00637043  0.20719446  0.24886896  1
  Ta  Ta111  1  0.39672922  -0.00734526  0.51268121  1
  Ta  Ta112  1  -0.00193202  0.41058094  0.74395575  1
  Ta  Ta113  1  0.90271152  0.10664546  0.38021675  1
  Ta  Ta114  1  0.91818268  0.90502450  0.64286220  1
  Ta  Ta115  1  -0.00110601  0.01024904  0.25080720  1
  Ta  Ta116  1  0.19102123  0.39491188  0.25380935  1
  Ta  Ta117  1  0.60829109  0.20416731  0.74941220  1
  Ta  Ta118  1  -0.00636726  0.19098585  0.51309937  1
  Ta  Ta119  1  0.71213730  0.32024464  0.36452006  1
  Ti  Ti120  1  -0.00061268  0.79289857  0.25143714  1
  Ti  Ti121  1  0.21316279  0.61022987  0.74605319  1
  Ti  Ti122  1  0.00475778  0.58621858  0.25794349  1
  Ti  Ti123  1  0.41996722  0.79108754  0.24778802  1
  Ti  Ti124  1  0.29466685  0.49285067  0.13532092  1
  Ti  Ti125  1  0.40553118  -0.00244974  0.24518673  1
  Ti  Ti126  1  0.00051284  0.39651618  0.25245576  1
  Ti  Ti127  1  0.89438810  0.30664288  0.86255478  1
  Ti  Ti128  1  0.08719632  0.88457653  0.87321476  1
  Ti  Ti129  1  0.50109260  0.70119710  0.38412995  1
  Ti  Ti130  1  0.50464579  0.50877288  0.37064179  1
  Ti  Ti131  1  0.50767870  0.10606885  0.87267014  1
  Ti  Ti132  1  0.70051971  0.30558494  0.87158137  1
  Ti  Ti133  1  0.49878991  0.89673515  0.62074540  1
  Ti  Ti134  1  0.90123887  0.11455965  0.11801347  1
  Ti  Ti135  1  0.68865159  0.70831675  0.37690117  1
  Ti  Ti136  1  0.20411925  0.58693696  0.00106038  1
  Ti  Ti137  1  0.10279186  0.50122819  0.13096744  1
  Ti  Ti138  1  0.59308378  0.61580210  0.01741629  1
  Ti  Ti139  1  0.38754023  0.40260764  0.49080019  1
  Ti  Ti140  1  0.50805761  0.09722059  0.61702466  1
  Ti  Ti141  1  0.08796475  0.08413464  0.62988481  1
  Ti  Ti142  1  0.10247286  0.50110204  0.63271734  1
  Ti  Ti143  1  0.70031941  0.13143280  0.62005480  1
  Ti  Ti144  1  0.40680406  0.39795050  0.74668593  1
  Ti  Ti145  1  0.20674743  0.18976373  0.73581631  1
  Ti  Ti146  1  0.30723800  0.29831767  0.85887750  1
  Ti  Ti147  1  0.09965979  0.69186667  0.36622151  1
  Ti  Ti148  1  0.69749616  0.90188134  0.38136471  1
  Ti  Ti149  1  0.31132544  0.88357605  0.12760264  1
  Ti  Ti150  1  0.92831341  0.70302109  0.12444623  1
  Ti  Ti151  1  -0.00282316  0.60676722  0.74369637  1
  Ti  Ti152  1  0.59707696  0.01477166  0.74056917  1
  Ti  Ti153  1  0.39464238  0.59514584  0.48464872  1
  Ti  Ti154  1  0.19682650  0.78882887  0.25001233  1
  Ti  Ti155  1  0.39043038  0.60844436  0.00543055  1
  Ti  Ti156  1  0.30036894  0.30431590  0.13102892  1
  Ti  Ti157  1  0.90187071  0.69196981  0.62801138  1
  Ti  Ti158  1  -0.00508112  -0.00694062  -0.00218712  1
  Ti  Ti159  1  0.81528433  0.41386379  0.50930985  1
  Mo  Mo160  1  0.00840297  0.79611577  0.74186297  1
  Mo  Mo161  1  0.69080305  0.70800386  0.11582859  1
  Mo  Mo162  1  0.59985052  0.41269886  0.26789229  1
  Mo  Mo163  1  0.81269321  0.40716973  0.25686921  1
  Mo  Mo164  1  0.91981297  0.30108076  0.12439691  1
  Mo  Mo165  1  0.89740873  0.10299478  0.61803273  1
  Mo  Mo166  1  0.89280880  0.49026308  0.36896489  1
  Mo  Mo167  1  0.00972085  0.80002248  0.00557886  1
  Mo  Mo168  1  0.90630389  0.50888778  0.63125949  1
  Mo  Mo169  1  0.69524692  0.30792633  0.62191898  1
  Mo  Mo170  1  0.29664617  0.48602770  0.38092093  1
  Mo  Mo171  1  0.39136988  0.79154366  0.01273838  1
  Mo  Mo172  1  0.59788732  0.00853276  -0.01073469  1
  Mo  Mo173  1  0.18746174  0.78743469  0.75103474  1
  Mo  Mo174  1  0.59736115  0.80639283  0.25292569  1
  Mo  Mo175  1  0.69651520  0.51113350  0.35742002  1
  Mo  Mo176  1  0.59524424  0.60928586  0.48866653  1
  Mo  Mo177  1  0.00240962  0.40475538  0.51572712  1
  Mo  Mo178  1  0.29318201  0.68446426  0.88222625  1
  Mo  Mo179  1  0.70133923  0.50426797  0.62282441  1
  Mo  Mo180  1  0.29559043  0.10041117  0.62971232  1
  Mo  Mo181  1  0.80519507  0.39933970  -0.00555647  1
  Mo  Mo182  1  0.40732508  0.58910697  0.74471757  1
  Mo  Mo183  1  0.79165495  0.21543034  0.75721018  1
  Mo  Mo184  1  0.00058073  0.00144745  0.75952066  1
  Mo  Mo185  1  0.80476265  0.61151816  0.74544087  1
  Mo  Mo186  1  0.60894918  0.19783029  0.49059771  1
  Mo  Mo187  1  0.48725135  0.71079656  0.11916176  1
  Mo  Mo188  1  0.09013620  0.49041475  0.37134158  1
  Mo  Mo189  1  0.70535824  0.10745700  0.12924630  1
  Mo  Mo190  1  0.39710727  0.59858756  0.26657189  1
  Mo  Mo191  1  0.20256711  0.40237735  0.50660067  1
  Mo  Mo192  1  0.09062337  0.31194687  0.12539423  1
  Mo  Mo193  1  0.49123921  0.90264537  0.13562510  1
  Mo  Mo194  1  0.20050406  0.39717250  0.74752103  1
  Mo  Mo195  1  0.49859448  0.29567476  0.86795428  1
  Mo  Mo196  1  0.29196855  0.68126444  0.60615357  1
  Mo  Mo197  1  0.68254046  0.91807473  0.12542014  1
  Mo  Mo198  1  0.09975904  0.68317235  0.14496176  1
  Mo  Mo199  1  0.09366461  0.89126190  0.62824232  1
