# generated using pymatgen
data_HfZrTaTiMo
_symmetry_space_group_name_H-M   'P 1'
_cell_length_a   15.21653895
_cell_length_b   15.20584742
_cell_length_c   16.81078436
_cell_angle_alpha   90.01087757
_cell_angle_beta   89.95533020
_cell_angle_gamma   90.11525692
_symmetry_Int_Tables_number   1
_chemical_formula_structural   HfZrTaTiMo
_chemical_formula_sum   'Hf40 Zr40 Ta40 Ti40 Mo40'
_cell_volume   3889.67637552
_cell_formula_units_Z   40
loop_
 _symmetry_equiv_pos_site_id
 _symmetry_equiv_pos_as_xyz
  1  'x, y, z'
loop_
 _atom_site_type_symbol
 _atom_site_label
 _atom_site_symmetry_multiplicity
 _atom_site_fract_x
 _atom_site_fract_y
 _atom_site_fract_z
 _atom_site_occupancy
  Hf  Hf0  1  0.80578798  0.80469618  0.50627770  1
  Hf  Hf1  1  0.18207992  -0.00514747  0.00987167  1
  Hf  Hf2  1  0.68889483  0.10756712  0.36950278  1
  Hf  Hf3  1  0.49860865  0.32468745  0.63453772  1
  Hf  Hf4  1  -0.00646633  -0.01244713  0.49975193  1
  Hf  Hf5  1  0.40157562  -0.02148494  0.74194690  1
  Hf  Hf6  1  0.49188736  0.09919907  0.37122402  1
  Hf  Hf7  1  0.69549079  0.09735989  0.12528137  1
  Hf  Hf8  1  0.88304890  0.49092423  0.12402462  1
  Hf  Hf9  1  0.10571306  0.70142681  0.36665086  1
  Hf  Hf10  1  0.29473606  0.30647442  0.63000062  1
  Hf  Hf11  1  0.11476235  0.08843730  0.37520838  1
  Hf  Hf12  1  0.30416019  0.70043062  0.38527085  1
  Hf  Hf13  1  0.69603286  0.90336883  0.37716587  1
  Hf  Hf14  1  0.09273602  0.28918712  0.12866612  1
  Hf  Hf15  1  0.10551120  0.88793113  0.35120937  1
  Hf  Hf16  1  0.71121698  0.90289183  0.63738459  1
  Hf  Hf17  1  0.79012881  -0.00463010  0.24806105  1
  Hf  Hf18  1  0.59920995  0.01016570  0.74031501  1
  Hf  Hf19  1  0.79666333  0.40319780  -0.02186421  1
  Hf  Hf20  1  0.10543836  0.50101159  0.37580342  1
  Hf  Hf21  1  0.88853387  0.69424341  0.11339581  1
  Hf  Hf22  1  0.08857961  0.49883406  0.12575472  1
  Hf  Hf23  1  0.80699703  -0.00272526  -0.00866660  1
  Hf  Hf24  1  0.91341034  0.89326821  0.86254161  1
  Hf  Hf25  1  0.90598896  0.89948615  0.12762575  1
  Hf  Hf26  1  0.39567594  0.19075475  0.24066847  1
  Hf  Hf27  1  0.70182706  0.31553671  0.12668114  1
  Hf  Hf28  1  0.00311956  0.19528508  0.26606920  1
  Hf  Hf29  1  0.00152076  0.19935391  0.48865019  1
  Hf  Hf30  1  0.10522264  0.71416546  0.87553009  1
  Hf  Hf31  1  0.10375846  0.88485888  0.63778318  1
  Hf  Hf32  1  0.19900375  0.20220352  0.76155541  1
  Hf  Hf33  1  0.40181581  0.40812479  0.23092196  1
  Hf  Hf34  1  0.21089287  -0.01610214  0.50477349  1
  Hf  Hf35  1  0.59129095  0.59939706  0.76957539  1
  Hf  Hf36  1  0.30865437  0.50748853  0.88979178  1
  Hf  Hf37  1  0.50166375  0.09768203  0.87938062  1
  Hf  Hf38  1  0.19392879  0.19550067  -0.01569274  1
  Hf  Hf39  1  0.19832493  0.39409630  0.25251181  1
  Zr  Zr40  1  0.78627831  0.39283993  0.51215441  1
  Zr  Zr41  1  0.20910870  0.60353072  0.75689335  1
  Zr  Zr42  1  0.89255477  0.09127020  0.64045010  1
  Zr  Zr43  1  0.28763071  0.70568707  0.60392625  1
  Zr  Zr44  1  0.79946990  0.19860181  0.50701103  1
  Zr  Zr45  1  -0.00368841  0.60409171  0.75829596  1
  Zr  Zr46  1  0.79840340  0.19674218  -0.00938760  1
  Zr  Zr47  1  0.11246930  0.49881513  0.62462716  1
  Zr  Zr48  1  0.59388919  0.41650349  -0.01043500  1
  Zr  Zr49  1  0.50054945  0.90759185  0.36980017  1
  Zr  Zr50  1  0.30197791  0.08351786  0.87583340  1
  Zr  Zr51  1  0.09993368  0.09924753  0.62464452  1
  Zr  Zr52  1  0.40587918  0.20271793  0.50562108  1
  Zr  Zr53  1  0.18850421  0.60853805  0.01125787  1
  Zr  Zr54  1  -0.00588277  0.39578352  0.50095803  1
  Zr  Zr55  1  0.49267868  0.50165440  0.36608831  1
  Zr  Zr56  1  0.29681508  0.28972402  0.12079172  1
  Zr  Zr57  1  0.22023285  0.59673397  0.23927416  1
  Zr  Zr58  1  0.01487034  0.81392051  0.00398970  1
  Zr  Zr59  1  0.60766670  0.21192240  0.51569721  1
  Zr  Zr60  1  0.79750004  0.58956829  0.51552458  1
  Zr  Zr61  1  0.49789250  0.70560846  0.38246658  1
  Zr  Zr62  1  0.11107862  0.91533080  0.85948733  1
  Zr  Zr63  1  0.10746546  0.73610925  0.14714744  1
  Zr  Zr64  1  -0.01012671  0.60271219  0.24676357  1
  Zr  Zr65  1  0.79569070  0.78451007  0.76643670  1
  Zr  Zr66  1  0.88316247  0.49781126  0.37042900  1
  Zr  Zr67  1  -0.00032506  0.17655978  -0.01332028  1
  Zr  Zr68  1  0.57407559  0.80164020  0.75126491  1
  Zr  Zr69  1  0.31126095  0.29739097  0.37103967  1
  Zr  Zr70  1  0.90464559  0.70459088  0.62756747  1
  Zr  Zr71  1  -0.00294421  0.40014378  0.75405836  1
  Zr  Zr72  1  0.21564755  0.40514361  0.49034981  1
  Zr  Zr73  1  0.20034354  0.39940580  -0.00074944  1
  Zr  Zr74  1  0.89752446  0.29350781  0.13074111  1
  Zr  Zr75  1  -0.00061814  0.38800366  -0.01725651  1
  Zr  Zr76  1  0.59672941  0.81038410  0.51137713  1
  Zr  Zr77  1  0.89911043  0.70077558  0.38099160  1
  Zr  Zr78  1  0.79803681  0.58296081  0.76254695  1
  Zr  Zr79  1  0.48138280  0.69854335  0.61310227  1
  Ta  Ta80  1  0.49503285  0.09708056  0.11608662  1
  Ta  Ta81  1  0.41083958  0.60558754  0.22786384  1
  Ta  Ta82  1  0.30621526  0.90620753  0.36831041  1
  Ta  Ta83  1  0.88696388  0.29799114  0.36715747  1
  Ta  Ta84  1  0.51372859  0.30218909  0.36728602  1
  Ta  Ta85  1  0.89949054  0.89905457  0.36958140  1
  Ta  Ta86  1  0.59976722  0.20655455  0.74180857  1
  Ta  Ta87  1  0.78538903  0.59976019  -0.02410492  1
  Ta  Ta88  1  0.79431918  0.79029773  0.25022570  1
  Ta  Ta89  1  0.59803684  0.01436988  0.52190507  1
  Ta  Ta90  1  0.32103834  0.50151401  0.62931617  1
  Ta  Ta91  1  0.30409535  0.10114086  0.62877677  1
  Ta  Ta92  1  0.69649640  0.69573101  0.37947213  1
  Ta  Ta93  1  0.90330159  0.08862815  0.85280852  1
  Ta  Ta94  1  0.29870248  0.89894865  0.11873397  1
  Ta  Ta95  1  0.59941531  0.59462840  0.50570491  1
  Ta  Ta96  1  0.59854720  -0.00301173  -0.00164858  1
  Ta  Ta97  1  0.69053450  0.69239536  0.63009149  1
  Ta  Ta98  1  -0.00567250  0.39433302  0.25988907  1
  Ta  Ta99  1  0.31031468  0.30156701  0.87566358  1
  Ta  Ta100  1  0.40110643  0.19751963  0.00212337  1
  Ta  Ta101  1  0.31312364  0.70250136  0.10966818  1
  Ta  Ta102  1  0.79355734  0.79425160  -0.01401495  1
  Ta  Ta103  1  0.49689161  0.30044281  0.87347454  1
  Ta  Ta104  1  0.40185016  0.41378587  0.76090765  1
  Ta  Ta105  1  0.79320311  0.00101025  0.50157715  1
  Ta  Ta106  1  0.40827129  0.79544606  0.23423796  1
  Ta  Ta107  1  0.59777022  0.20445746  -0.00058839  1
  Ta  Ta108  1  0.51142197  0.90536479  0.12657245  1
  Ta  Ta109  1  0.10187149  0.29531098  0.62561914  1
  Ta  Ta110  1  0.40164250  0.61530797  0.75874088  1
  Ta  Ta111  1  0.59523732  0.20362030  0.24131605  1
  Ta  Ta112  1  0.60776566  0.80169239  0.24501392  1
  Ta  Ta113  1  0.68932394  0.52615485  0.11740405  1
  Ta  Ta114  1  0.58989085  0.40858442  0.50106695  1
  Ta  Ta115  1  0.41806565  0.80409229  0.01361384  1
  Ta  Ta116  1  0.31319429  0.70853398  0.89830367  1
  Ta  Ta117  1  0.40429226  0.19825125  0.74860889  1
  Ta  Ta118  1  0.20388186  0.19639121  0.49381118  1
  Ta  Ta119  1  0.00700758  0.59794581  0.50561876  1
  Ti  Ti120  1  0.79618379  0.20435036  0.25083651  1
  Ti  Ti121  1  0.39399025  0.57107589  0.49548393  1
  Ti  Ti122  1  0.69760673  0.31284415  0.36141340  1
  Ti  Ti123  1  0.20294564  0.19027738  0.25620339  1
  Ti  Ti124  1  0.20756705  0.00197869  0.73952467  1
  Ti  Ti125  1  0.69187626  0.90317089  0.87239854  1
  Ti  Ti126  1  -0.00244508  -0.00091485  0.25263209  1
  Ti  Ti127  1  0.89965569  0.30055181  0.63498773  1
  Ti  Ti128  1  0.90755400  0.89906938  0.64974130  1
  Ti  Ti129  1  0.49296796  0.89411750  0.88631636  1
  Ti  Ti130  1  0.78881358  0.19599581  0.74687311  1
  Ti  Ti131  1  0.00586128  0.19943588  0.75609236  1
  Ti  Ti132  1  0.68583449  0.49186153  0.63590569  1
  Ti  Ti133  1  0.39854448  -0.00290130  0.23741629  1
  Ti  Ti134  1  0.50748340  0.29913898  0.12050505  1
  Ti  Ti135  1  0.60015731  0.61069917  0.24698960  1
  Ti  Ti136  1  0.90274256  0.09832711  0.12904085  1
  Ti  Ti137  1  0.53073088  0.69872511  0.11266597  1
  Ti  Ti138  1  0.69004889  0.50133095  0.37262938  1
  Ti  Ti139  1  0.09651552  0.09154293  0.13347973  1
  Ti  Ti140  1  0.78365322  0.59884968  0.24854474  1
  Ti  Ti141  1  0.40575508  -0.00021378  0.51388984  1
  Ti  Ti142  1  0.69255326  0.29351797  0.86656273  1
  Ti  Ti143  1  0.69941683  0.88782416  0.11728644  1
  Ti  Ti144  1  0.22635553  0.80127347  0.75332942  1
  Ti  Ti145  1  0.40386557  0.39798637  0.00965093  1
  Ti  Ti146  1  0.30658853  0.89177572  0.89257364  1
  Ti  Ti147  1  0.59755428  0.40639944  0.76384929  1
  Ti  Ti148  1  0.60337383  0.41212157  0.24125904  1
  Ti  Ti149  1  0.88922128  0.09233175  0.37464123  1
  Ti  Ti150  1  0.20217286  0.40077886  0.76066357  1
  Ti  Ti151  1  0.10165553  0.69852451  0.62376438  1
  Ti  Ti152  1  0.09955828  0.49965249  0.87672466  1
  Ti  Ti153  1  0.21352485  0.00296688  0.23939701  1
  Ti  Ti154  1  -0.01469507  0.59498635  -0.01350988  1
  Ti  Ti155  1  0.41949754  0.59085002  0.01525537  1
  Ti  Ti156  1  0.79541736  0.39396943  0.75229702  1
  Ti  Ti157  1  0.89681068  0.28930307  0.86220503  1
  Ti  Ti158  1  0.69936182  0.09979317  0.87149759  1
  Ti  Ti159  1  0.01225830  0.79791984  0.49843987  1
  Mo  Mo160  1  0.30661988  0.50367795  0.11035384  1
  Mo  Mo161  1  0.23499022  0.80711635  0.24795733  1
  Mo  Mo162  1  0.19578835  0.59945979  0.49865226  1
  Mo  Mo163  1  0.30650119  0.50817150  0.36806046  1
  Mo  Mo164  1  0.00497008  0.00100610  0.74089666  1
  Mo  Mo165  1  0.49407121  0.10808454  0.63179990  1
  Mo  Mo166  1  0.29803232  0.09383745  0.11729556  1
  Mo  Mo167  1  0.90404177  0.69867124  0.89068172  1
  Mo  Mo168  1  0.78795867  0.40598311  0.25112738  1
  Mo  Mo169  1  0.10279716  0.91292091  0.14827385  1
  Mo  Mo170  1  0.18896272  0.80147760  0.49348133  1
  Mo  Mo171  1  -0.02395525  0.80649109  0.25054045  1
  Mo  Mo172  1  0.79399468  -0.00181452  0.76525064  1
  Mo  Mo173  1  0.70402351  0.70375095  0.12074183  1
  Mo  Mo174  1  0.01316377  0.79120336  0.75053944  1
  Mo  Mo175  1  0.50991152  0.50474969  0.12590562  1
  Mo  Mo176  1  0.30259537  0.89734946  0.62450170  1
  Mo  Mo177  1  0.40049939  -0.00102899  0.00865903  1
  Mo  Mo178  1  0.70147488  0.30849617  0.64528843  1
  Mo  Mo179  1  0.60164824  0.61288062  -0.01771675  1
  Mo  Mo180  1  0.10431184  0.29935026  0.86526521  1
  Mo  Mo181  1  0.49151688  0.70178686  0.89190873  1
  Mo  Mo182  1  0.69042705  0.70774256  0.87625617  1
  Mo  Mo183  1  0.30411939  0.08779502  0.37557088  1
  Mo  Mo184  1  0.21007390  0.80592155  0.00308354  1
  Mo  Mo185  1  -0.00551155  0.00551381  0.00379719  1
  Mo  Mo186  1  0.90090454  0.49452672  0.87935375  1
  Mo  Mo187  1  0.09900742  0.29405208  0.36992883  1
  Mo  Mo188  1  0.59331649  0.00194082  0.23796721  1
  Mo  Mo189  1  0.60815939  0.80953294  -0.00496193  1
  Mo  Mo190  1  0.49389871  0.90233344  0.62011904  1
  Mo  Mo191  1  0.70152841  0.10227117  0.63196790  1
  Mo  Mo192  1  0.41037788  0.39935552  0.49858834  1
  Mo  Mo193  1  0.39202174  0.79095534  0.76003194  1
  Mo  Mo194  1  0.50155406  0.50946898  0.62906025  1
  Mo  Mo195  1  0.38418408  0.82842156  0.49902608  1
  Mo  Mo196  1  0.69400400  0.49166448  0.86645795  1
  Mo  Mo197  1  0.48677919  0.49854235  0.87971244  1
  Mo  Mo198  1  0.09405803  0.09207794  0.85937012  1
  Mo  Mo199  1  0.89841881  0.49050658  0.62514226  1
