# generated using pymatgen
data_HfZrTaTiMo
_symmetry_space_group_name_H-M   'P 1'
_cell_length_a   15.20913772
_cell_length_b   15.20970722
_cell_length_c   16.86934014
_cell_angle_alpha   90.01477827
_cell_angle_beta   89.99209857
_cell_angle_gamma   89.95252445
_symmetry_Int_Tables_number   1
_chemical_formula_structural   HfZrTaTiMo
_chemical_formula_sum   'Hf40 Zr40 Ta40 Ti40 Mo40'
_cell_volume   3902.32443886
_cell_formula_units_Z   40
loop_
 _symmetry_equiv_pos_site_id
 _symmetry_equiv_pos_as_xyz
  1  'x, y, z'
loop_
 _atom_site_type_symbol
 _atom_site_label
 _atom_site_symmetry_multiplicity
 _atom_site_fract_x
 _atom_site_fract_y
 _atom_site_fract_z
 _atom_site_occupancy
  Hf  Hf0  1  0.29694572  0.89088582  0.12571906  1
  Hf  Hf1  1  0.60258112  0.39996223  0.48983389  1
  Hf  Hf2  1  0.31397175  0.88701695  0.63654017  1
  Hf  Hf3  1  0.90566396  0.69987422  0.38219467  1
  Hf  Hf4  1  0.90620716  0.90440564  0.38176099  1
  Hf  Hf5  1  0.29484668  0.49023290  0.38149650  1
  Hf  Hf6  1  0.60370815  0.79354592  0.25318398  1
  Hf  Hf7  1  0.80591467  0.58634100  0.74689196  1
  Hf  Hf8  1  0.81057722  0.78870914  0.00918848  1
  Hf  Hf9  1  0.39878866  0.19898774  0.00624794  1
  Hf  Hf10  1  0.48142132  0.10058124  0.36264912  1
  Hf  Hf11  1  0.89660304  0.30110031  0.87464324  1
  Hf  Hf12  1  0.40021065  -0.00004790  0.00034826  1
  Hf  Hf13  1  0.20182482  0.59233064  0.24982117  1
  Hf  Hf14  1  0.17446566  0.80237605  -0.01395016  1
  Hf  Hf15  1  0.40031731  0.40508228  0.51072049  1
  Hf  Hf16  1  0.50577245  0.08195400  0.62991330  1
  Hf  Hf17  1  0.29519702  0.28762812  0.38072265  1
  Hf  Hf18  1  0.39093406  0.18181926  0.50411154  1
  Hf  Hf19  1  0.59662258  0.56719135  0.00669215  1
  Hf  Hf20  1  0.51143721  0.70362605  0.89116485  1
  Hf  Hf21  1  0.71036127  0.90837140  0.37934300  1
  Hf  Hf22  1  0.30226132  0.29922551  0.87011943  1
  Hf  Hf23  1  0.08813553  0.91638735  0.84958612  1
  Hf  Hf24  1  0.59806604  0.58702247  0.26372902  1
  Hf  Hf25  1  0.59662809  0.60973241  0.74998734  1
  Hf  Hf26  1  0.79783454  -0.00168174  0.23272530  1
  Hf  Hf27  1  -0.00437486  0.62990197  -0.01853318  1
  Hf  Hf28  1  0.59886327  0.00120214  0.24649531  1
  Hf  Hf29  1  0.49642815  0.69098826  0.11944944  1
  Hf  Hf30  1  0.89177507  0.88687433  0.86934866  1
  Hf  Hf31  1  0.11154792  0.91945840  0.64356987  1
  Hf  Hf32  1  0.29872834  0.90031503  0.86404950  1
  Hf  Hf33  1  0.70542572  0.48972209  0.61986277  1
  Hf  Hf34  1  0.40081102  0.40028886  0.73492361  1
  Hf  Hf35  1  0.38913170  0.59824767  0.73858490  1
  Hf  Hf36  1  0.10822874  0.90596560  0.37279092  1
  Hf  Hf37  1  0.19448891  0.59952155  0.51692647  1
  Hf  Hf38  1  0.00572601  0.41999451  -0.01233563  1
  Hf  Hf39  1  0.60226439  0.20402958  0.48411914  1
  Zr  Zr40  1  0.80567100  -0.00900364  0.01505624  1
  Zr  Zr41  1  0.19105236  0.01158421  -0.01046288  1
  Zr  Zr42  1  0.19743756  0.41640892  0.73092168  1
  Zr  Zr43  1  0.69918242  0.08797058  0.88162453  1
  Zr  Zr44  1  0.78495186  -0.00687776  0.75057007  1
  Zr  Zr45  1  0.41095340  0.40833736  0.00593830  1
  Zr  Zr46  1  0.68983989  0.69642907  0.61116249  1
  Zr  Zr47  1  0.09585943  0.71014788  0.12891774  1
  Zr  Zr48  1  0.90858796  0.89418840  0.62955188  1
  Zr  Zr49  1  0.39561913  0.79585989  -0.00257035  1
  Zr  Zr50  1  0.39030228  0.20458218  0.23645606  1
  Zr  Zr51  1  0.10539921  0.31168738  0.86936228  1
  Zr  Zr52  1  0.79033344  0.78519376  0.74184263  1
  Zr  Zr53  1  -0.00355025  0.41754869  0.50860144  1
  Zr  Zr54  1  0.80770420  0.58998643  0.25862598  1
  Zr  Zr55  1  0.10478063  0.91798996  0.13913887  1
  Zr  Zr56  1  0.80089257  0.20105384  0.24392047  1
  Zr  Zr57  1  0.41196264  0.79170356  0.76282078  1
  Zr  Zr58  1  0.30453258  0.91264058  0.37152324  1
  Zr  Zr59  1  0.09015012  0.30098748  0.63221910  1
  Zr  Zr60  1  0.80251364  0.79832536  0.50746063  1
  Zr  Zr61  1  0.49962338  0.32112346  0.35099797  1
  Zr  Zr62  1  0.90944734  0.30704294  0.12175026  1
  Zr  Zr63  1  0.50326031  0.30221713  0.87125043  1
  Zr  Zr64  1  0.19546037  0.59775908  -0.00753373  1
  Zr  Zr65  1  0.59928800  0.00783495  0.48493318  1
  Zr  Zr66  1  0.71258818  0.68775725  0.89069636  1
  Zr  Zr67  1  0.80335216  0.19605472  0.00562663  1
  Zr  Zr68  1  0.50600859  0.29134155  0.62750130  1
  Zr  Zr69  1  0.19257452  0.19653025  0.24298970  1
  Zr  Zr70  1  0.90618637  0.29008861  0.36539359  1
  Zr  Zr71  1  0.09915836  0.11499706  0.38018464  1
  Zr  Zr72  1  0.58717888  0.59647714  0.48038797  1
  Zr  Zr73  1  0.60233981  -0.01288616  0.01420005  1
  Zr  Zr74  1  -0.00824292  0.03280524  0.25446886  1
  Zr  Zr75  1  0.52760863  0.30325432  0.13745891  1
  Zr  Zr76  1  0.30941517  0.70348264  0.38066616  1
  Zr  Zr77  1  0.88419132  0.30046372  0.63444340  1
  Zr  Zr78  1  -0.00824805  0.20210248  0.50482443  1
  Zr  Zr79  1  0.70570107  0.68136119  0.12126878  1
  Ta  Ta80  1  0.60419207  0.19008344  0.75440013  1
  Ta  Ta81  1  0.20342118  0.79659838  0.25370423  1
  Ta  Ta82  1  0.68150758  0.90837181  0.61553804  1
  Ta  Ta83  1  0.69745664  0.29074272  0.62843518  1
  Ta  Ta84  1  0.80792076  0.58181347  0.49473978  1
  Ta  Ta85  1  0.10521762  0.70150121  0.37781327  1
  Ta  Ta86  1  0.00102740  0.79992538  0.25870618  1
  Ta  Ta87  1  0.70264133  0.47180583  0.13244505  1
  Ta  Ta88  1  0.29393919  0.08688691  0.63531864  1
  Ta  Ta89  1  0.70382580  0.10425101  0.62521571  1
  Ta  Ta90  1  0.10503375  0.32490567  0.37929156  1
  Ta  Ta91  1  0.38945039  -0.00087024  0.23816081  1
  Ta  Ta92  1  0.19930707  0.20934378  0.00215467  1
  Ta  Ta93  1  0.10140999  0.71650979  0.64055023  1
  Ta  Ta94  1  0.79900154  0.38441944  0.49482531  1
  Ta  Ta95  1  0.00589498  0.41510775  0.24811980  1
  Ta  Ta96  1  0.49683490  0.09981813  0.13072455  1
  Ta  Ta97  1  0.80414277  0.79753140  0.24700746  1
  Ta  Ta98  1  0.19662377  0.40284924  0.51780028  1
  Ta  Ta99  1  0.91289512  0.68041417  0.62131889  1
  Ta  Ta100  1  0.49725905  0.09444870  0.87182372  1
  Ta  Ta101  1  0.91373879  0.09038700  0.86937992  1
  Ta  Ta102  1  0.91316691  0.89077041  0.12985739  1
  Ta  Ta103  1  0.90286630  0.09677414  0.63226927  1
  Ta  Ta104  1  0.20727218  0.80453155  0.50869437  1
  Ta  Ta105  1  0.29494488  0.49731292  0.86977839  1
  Ta  Ta106  1  0.19466270  0.19059485  0.74531282  1
  Ta  Ta107  1  -0.01037328  0.42325604  0.75347645  1
  Ta  Ta108  1  0.58147650  0.80342280  0.48660099  1
  Ta  Ta109  1  0.19543278  0.39803609  0.24345000  1
  Ta  Ta110  1  -0.00033574  0.19624707  0.75427133  1
  Ta  Ta111  1  0.70381434  0.70060573  0.38167046  1
  Ta  Ta112  1  0.48892607  0.71709034  0.61776877  1
  Ta  Ta113  1  0.08576459  0.11788567  0.11866366  1
  Ta  Ta114  1  0.39546687  0.18702786  0.74773518  1
  Ta  Ta115  1  0.20580921  0.00829097  0.50592941  1
  Ta  Ta116  1  0.09856517  0.50432345  0.12220262  1
  Ta  Ta117  1  0.60478621  0.40277465  0.74766096  1
  Ta  Ta118  1  0.69686430  0.29813129  0.87362801  1
  Ta  Ta119  1  0.90123261  0.51012015  0.11897036  1
  Ti  Ti120  1  -0.00238334  -0.00113357  0.00174709  1
  Ti  Ti121  1  0.49550987  0.49996030  0.86793709  1
  Ti  Ti122  1  0.29843327  0.29005621  0.62613936  1
  Ti  Ti123  1  0.19471869  0.19843971  0.51152904  1
  Ti  Ti124  1  0.29719882  0.69108235  0.12538158  1
  Ti  Ti125  1  0.00509167  0.19599934  -0.01095656  1
  Ti  Ti126  1  0.78989012  0.40311216  -0.00149616  1
  Ti  Ti127  1  0.19505897  0.60562804  0.74207480  1
  Ti  Ti128  1  0.79862755  0.19441771  0.75657770  1
  Ti  Ti129  1  0.20731499  0.40968074  0.00043262  1
  Ti  Ti130  1  0.68996573  0.11262857  0.12536273  1
  Ti  Ti131  1  0.69263882  0.48774587  0.87591687  1
  Ti  Ti132  1  0.60023486  0.81962656  0.75465101  1
  Ti  Ti133  1  0.79382451  0.18617056  0.49247673  1
  Ti  Ti134  1  0.88745743  0.51047859  0.88241890  1
  Ti  Ti135  1  0.29073337  0.69166309  0.87126339  1
  Ti  Ti136  1  0.00526421  0.60406395  0.50076164  1
  Ti  Ti137  1  0.41594415  -0.00703508  0.75651454  1
  Ti  Ti138  1  0.00848523  0.60111302  0.25698754  1
  Ti  Ti139  1  0.50347391  0.89193992  0.12928277  1
  Ti  Ti140  1  0.00107838  0.60898890  0.76342006  1
  Ti  Ti141  1  0.59909655  0.20145042  -0.00142558  1
  Ti  Ti142  1  0.40172034  -0.01807457  0.50421548  1
  Ti  Ti143  1  0.71038357  0.48418153  0.37174353  1
  Ti  Ti144  1  0.10357387  0.31151748  0.11340644  1
  Ti  Ti145  1  0.28679905  0.09513399  0.11998531  1
  Ti  Ti146  1  0.01676085  0.79989896  0.50568453  1
  Ti  Ti147  1  0.50559951  0.51041005  0.62398729  1
  Ti  Ti148  1  0.90958639  0.69686695  0.13253410  1
  Ti  Ti149  1  0.49236582  0.89114737  0.36534098  1
  Ti  Ti150  1  0.29991292  0.31449070  0.12143329  1
  Ti  Ti151  1  0.00012773  0.00622509  0.50462307  1
  Ti  Ti152  1  0.91124247  0.49264558  0.37390320  1
  Ti  Ti153  1  0.49550044  0.48829128  0.14817195  1
  Ti  Ti154  1  0.79475236  0.39476044  0.75547995  1
  Ti  Ti155  1  0.38975421  0.59121126  0.00037408  1
  Ti  Ti156  1  0.29381034  0.10163960  0.86812466  1
  Ti  Ti157  1  0.40119498  0.79267581  0.24505383  1
  Ti  Ti158  1  0.39752359  0.60737615  0.50586899  1
  Ti  Ti159  1  0.39813527  0.59646863  0.25394686  1
  Mo  Mo160  1  0.21314451  0.01130493  0.75563442  1
  Mo  Mo161  1  0.80403623  0.00750289  0.51121236  1
  Mo  Mo162  1  0.20268324  0.00398094  0.24481528  1
  Mo  Mo163  1  0.60727120  0.39089719  -0.00389484  1
  Mo  Mo164  1  0.50775139  0.89534388  0.62285606  1
  Mo  Mo165  1  0.09931761  0.10112371  0.62186748  1
  Mo  Mo166  1  0.01793066  0.23215951  0.23900833  1
  Mo  Mo167  1  0.09943866  0.50573761  0.37630896  1
  Mo  Mo168  1  0.59784202  -0.00191352  0.75381868  1
  Mo  Mo169  1  0.68114495  0.88051421  0.88386041  1
  Mo  Mo170  1  0.10009570  0.11425162  0.87805616  1
  Mo  Mo171  1  0.29894057  0.50238921  0.12574510  1
  Mo  Mo172  1  0.70590890  0.29686333  0.11834978  1
  Mo  Mo173  1  0.29209677  0.09474276  0.37952552  1
  Mo  Mo174  1  0.81126069  0.40354418  0.24986969  1
  Mo  Mo175  1  0.51245197  0.90423641  0.88196700  1
  Mo  Mo176  1  0.60556562  0.79625534  0.01427097  1
  Mo  Mo177  1  0.70181058  0.10482925  0.36669272  1
  Mo  Mo178  1  0.20368294  0.79339096  0.75530329  1
  Mo  Mo179  1  0.30077267  0.50187370  0.61640389  1
  Mo  Mo180  1  0.48935903  0.50225873  0.36242236  1
  Mo  Mo181  1  0.60683051  0.19194811  0.25592077  1
  Mo  Mo182  1  0.89745999  0.50041566  0.62656351  1
  Mo  Mo183  1  0.29742966  0.70159400  0.62153185  1
  Mo  Mo184  1  0.70879791  0.29710956  0.37438497  1
  Mo  Mo185  1  0.63226176  0.39197878  0.26072753  1
  Mo  Mo186  1  0.90154474  0.70059437  0.86725796  1
  Mo  Mo187  1  0.10000427  0.71350747  0.85163072  1
  Mo  Mo188  1  0.37829657  0.41230625  0.24108168  1
  Mo  Mo189  1  0.08093420  0.52188570  0.63481395  1
  Mo  Mo190  1  0.49723563  0.70229063  0.36885072  1
  Mo  Mo191  1  0.40016163  0.80048838  0.49696692  1
  Mo  Mo192  1  0.10300258  0.51170480  0.86353410  1
  Mo  Mo193  1  0.87717777  0.08307277  0.39066160  1
  Mo  Mo194  1  0.70197492  0.88682046  0.13501694  1
  Mo  Mo195  1  -0.00293991  0.01342710  0.74828653  1
  Mo  Mo196  1  0.91087486  0.10003850  0.11887122  1
  Mo  Mo197  1  -0.00609777  0.79616889  0.74284754  1
  Mo  Mo198  1  0.80794206  0.58114895  0.00390018  1
  Mo  Mo199  1  -0.00229296  0.81950605  -0.00205715  1
