# generated using pymatgen
data_HfZrTaTiMo
_symmetry_space_group_name_H-M   'P 1'
_cell_length_a   15.21836000
_cell_length_b   15.21155199
_cell_length_c   16.82226298
_cell_angle_alpha   89.93996563
_cell_angle_beta   89.98423226
_cell_angle_gamma   89.81961383
_symmetry_Int_Tables_number   1
_chemical_formula_structural   HfZrTaTiMo
_chemical_formula_sum   'Hf40 Zr40 Ta40 Ti40 Mo40'
_cell_volume   3894.24607257
_cell_formula_units_Z   40
loop_
 _symmetry_equiv_pos_site_id
 _symmetry_equiv_pos_as_xyz
  1  'x, y, z'
loop_
 _atom_site_type_symbol
 _atom_site_label
 _atom_site_symmetry_multiplicity
 _atom_site_fract_x
 _atom_site_fract_y
 _atom_site_fract_z
 _atom_site_occupancy
  Hf  Hf0  1  0.81129518  0.40310831  0.75770286  1
  Hf  Hf1  1  0.59856329  0.19279682  0.73043738  1
  Hf  Hf2  1  0.00283476  0.20562175  0.74122608  1
  Hf  Hf3  1  0.59740760  0.59871565  0.51393288  1
  Hf  Hf4  1  0.20708840  0.00835382  0.76334279  1
  Hf  Hf5  1  0.60509996  -0.00759386  0.23475440  1
  Hf  Hf6  1  0.20313777  0.79810896  0.76056412  1
  Hf  Hf7  1  0.29590451  0.09526878  0.10833865  1
  Hf  Hf8  1  0.80228419  0.61625888  0.24520833  1
  Hf  Hf9  1  0.50045584  0.70981184  0.87201365  1
  Hf  Hf10  1  0.29168677  0.29784699  0.89350961  1
  Hf  Hf11  1  0.90067267  0.89453014  0.11704612  1
  Hf  Hf12  1  0.39406313  0.78405409  0.48588154  1
  Hf  Hf13  1  0.48863223  0.91549157  0.89309532  1
  Hf  Hf14  1  0.30355560  0.30191211  0.38705352  1
  Hf  Hf15  1  0.00604865  0.59500547  0.00038856  1
  Hf  Hf16  1  0.08763006  0.90616924  0.63409239  1
  Hf  Hf17  1  0.19844965  0.58618815  0.76424897  1
  Hf  Hf18  1  0.30190052  0.10272676  0.39140169  1
  Hf  Hf19  1  0.89682667  0.49011211  0.11549024  1
  Hf  Hf20  1  0.39082505  -0.00758406  0.25466096  1
  Hf  Hf21  1  0.89470421  0.89452629  0.37191223  1
  Hf  Hf22  1  0.69904085  0.50279657  0.88075089  1
  Hf  Hf23  1  0.30972418  0.09507164  0.60517352  1
  Hf  Hf24  1  0.19566854  -0.00443357  -0.01347346  1
  Hf  Hf25  1  0.40115993  0.20461077  0.24150998  1
  Hf  Hf26  1  0.80481912  0.60258613  0.50628456  1
  Hf  Hf27  1  0.59401664  0.81414195  0.50493393  1
  Hf  Hf28  1  0.29374083  0.29274164  0.60790063  1
  Hf  Hf29  1  0.58393648  0.01850142  0.02291387  1
  Hf  Hf30  1  0.39670942  0.59166974  0.75402459  1
  Hf  Hf31  1  0.19787304  0.19826998  0.24807725  1
  Hf  Hf32  1  0.30664893  0.50009076  0.37602057  1
  Hf  Hf33  1  0.80649218  0.40398364  0.48482378  1
  Hf  Hf34  1  0.59803798  0.40361987  0.51416532  1
  Hf  Hf35  1  0.88345229  0.10028423  0.13534646  1
  Hf  Hf36  1  0.69914836  0.51445979  0.13335120  1
  Hf  Hf37  1  0.49621272  0.50844029  0.12431374  1
  Hf  Hf38  1  0.19035404  0.79472072  0.49804519  1
  Hf  Hf39  1  0.20159709  0.80576658  0.25274397  1
  Zr  Zr40  1  0.61203337  0.19897519  0.50462108  1
  Zr  Zr41  1  0.51056275  0.09888308  0.37395094  1
  Zr  Zr42  1  0.48839283  0.88865268  0.12325639  1
  Zr  Zr43  1  0.10293406  0.70731270  0.11384972  1
  Zr  Zr44  1  0.60059420  0.59194645  0.73664933  1
  Zr  Zr45  1  0.81035967  0.60364558  0.74344009  1
  Zr  Zr46  1  0.11516503  0.10703626  0.62074492  1
  Zr  Zr47  1  0.92450091  0.29740192  0.11538844  1
  Zr  Zr48  1  0.09299868  0.70160332  0.37110851  1
  Zr  Zr49  1  0.69868941  0.70861027  0.86969984  1
  Zr  Zr50  1  0.20682087  0.60174529  0.23733653  1
  Zr  Zr51  1  0.30778949  0.88918691  0.62409156  1
  Zr  Zr52  1  0.48175911  0.71212368  0.63662469  1
  Zr  Zr53  1  0.67481226  0.11310047  0.88364996  1
  Zr  Zr54  1  0.61096973  0.39871022  0.00767558  1
  Zr  Zr55  1  0.00241070  0.21337441  0.50650530  1
  Zr  Zr56  1  0.80113598  0.81195132  0.74735147  1
  Zr  Zr57  1  0.19436188  -0.00055459  0.25600530  1
  Zr  Zr58  1  0.50020206  0.49731236  0.37029458  1
  Zr  Zr59  1  0.00231097  0.59728208  0.50153815  1
  Zr  Zr60  1  0.72638838  0.30752498  0.13955807  1
  Zr  Zr61  1  0.78990217  0.00330654  0.76018951  1
  Zr  Zr62  1  -0.00119042  0.59459897  0.76307014  1
  Zr  Zr63  1  0.79320388  0.00842681  -0.00331957  1
  Zr  Zr64  1  0.51133319  0.07531357  0.61201748  1
  Zr  Zr65  1  0.18647549  0.40245439  0.49972733  1
  Zr  Zr66  1  0.09823140  0.50068945  0.36311230  1
  Zr  Zr67  1  0.59503495  0.39614587  0.73526174  1
  Zr  Zr68  1  0.69997986  0.71105745  0.37957712  1
  Zr  Zr69  1  0.60110892  0.20033903  0.23398437  1
  Zr  Zr70  1  0.50337513  0.28470806  0.88093966  1
  Zr  Zr71  1  0.29393153  0.30522521  0.11257711  1
  Zr  Zr72  1  0.70140123  0.71497113  0.62809098  1
  Zr  Zr73  1  0.90171479  0.08452959  0.63019690  1
  Zr  Zr74  1  0.80097296  0.20574445  0.75486207  1
  Zr  Zr75  1  0.69859721  0.30523332  0.36133464  1
  Zr  Zr76  1  0.38847141  0.38969054  0.74988486  1
  Zr  Zr77  1  0.41025265  -0.01139264  0.75207150  1
  Zr  Zr78  1  0.81059061  0.19674621  0.49002422  1
  Zr  Zr79  1  0.09812901  0.11389726  0.87382638  1
  Ta  Ta80  1  0.41106065  -0.02216125  0.48358662  1
  Ta  Ta81  1  0.40671208  0.40009632  0.00313848  1
  Ta  Ta82  1  0.28805548  0.68822697  0.62882795  1
  Ta  Ta83  1  0.31996775  0.10440766  0.89153215  1
  Ta  Ta84  1  0.09552973  0.90522284  0.11976940  1
  Ta  Ta85  1  0.20726145  0.59873091  -0.00242209  1
  Ta  Ta86  1  0.39783262  0.19047252  0.74551802  1
  Ta  Ta87  1  0.10254701  0.49591350  0.63013727  1
  Ta  Ta88  1  0.09952516  0.29441996  0.37071701  1
  Ta  Ta89  1  0.30276941  0.50586265  0.11411118  1
  Ta  Ta90  1  0.68376326  0.90237232  0.88757113  1
  Ta  Ta91  1  0.39717495  0.78894102  0.25528042  1
  Ta  Ta92  1  -0.00662185  0.79532093  0.24341834  1
  Ta  Ta93  1  -0.00080931  -0.00537936  0.25001391  1
  Ta  Ta94  1  -0.00429480  -0.00557281  0.49562142  1
  Ta  Ta95  1  0.30286443  0.70039756  0.88399704  1
  Ta  Ta96  1  0.90316574  0.70654843  0.89016347  1
  Ta  Ta97  1  0.58594627  0.83275958  0.74564692  1
  Ta  Ta98  1  0.91543904  0.29690162  0.89139961  1
  Ta  Ta99  1  -0.00539988  0.59803832  0.23660154  1
  Ta  Ta100  1  0.19871252  -0.01348297  0.49011940  1
  Ta  Ta101  1  0.00205221  0.19524396  0.25770012  1
  Ta  Ta102  1  0.90371255  0.48619916  0.62571071  1
  Ta  Ta103  1  0.20893505  0.21905604  0.75273649  1
  Ta  Ta104  1  0.70170278  0.90232686  0.36688475  1
  Ta  Ta105  1  0.72185432  0.30669249  0.62224910  1
  Ta  Ta106  1  0.71787551  0.09256780  0.35271658  1
  Ta  Ta107  1  0.09556195  0.09732422  0.38534635  1
  Ta  Ta108  1  0.28995080  0.88937964  0.11678869  1
  Ta  Ta109  1  -0.00837323  0.79833508  0.74968629  1
  Ta  Ta110  1  0.01365811  0.39630048  0.75628148  1
  Ta  Ta111  1  0.10182737  0.47969092  0.12186304  1
  Ta  Ta112  1  0.09826591  0.69710067  0.63207006  1
  Ta  Ta113  1  0.59977774  0.61669193  0.00201537  1
  Ta  Ta114  1  0.49303862  0.30372337  0.38194405  1
  Ta  Ta115  1  -0.00299541  0.00011841  -0.00408355  1
  Ta  Ta116  1  0.70014519  0.51072771  0.35985283  1
  Ta  Ta117  1  0.08553279  0.10351079  0.11900832  1
  Ta  Ta118  1  0.50729426  0.88507921  0.36145621  1
  Ta  Ta119  1  0.09732349  0.70255684  0.88392784  1
  Ti  Ti120  1  0.20282728  0.60112176  0.50394994  1
  Ti  Ti121  1  0.79737828  0.80706699  0.23983962  1
  Ti  Ti122  1  0.31354949  0.69957485  0.11386831  1
  Ti  Ti123  1  0.10994689  0.48007670  0.88704108  1
  Ti  Ti124  1  0.70719425  0.30588161  0.87970779  1
  Ti  Ti125  1  0.50692746  0.69981596  0.12047762  1
  Ti  Ti126  1  0.90186541  0.09872565  0.87370154  1
  Ti  Ti127  1  -0.01127137  0.79814410  0.51281766  1
  Ti  Ti128  1  0.59593780  0.20690767  0.03122228  1
  Ti  Ti129  1  0.80340243  0.81149604  0.51132348  1
  Ti  Ti130  1  0.39977736  0.58622617  0.51031125  1
  Ti  Ti131  1  0.61501288  -0.00049988  0.48426204  1
  Ti  Ti132  1  0.90384736  0.09516841  0.36660188  1
  Ti  Ti133  1  -0.00707328  0.40287883  0.49132913  1
  Ti  Ti134  1  0.90409221  0.49225798  0.89207740  1
  Ti  Ti135  1  0.16641561  0.21795779  0.00746065  1
  Ti  Ti136  1  0.29943036  0.69157522  0.37189579  1
  Ti  Ti137  1  0.29750506  0.49557656  0.62401935  1
  Ti  Ti138  1  0.89574694  0.70213361  0.11062827  1
  Ti  Ti139  1  0.80059129  -0.00032100  0.49788128  1
  Ti  Ti140  1  0.59329825  0.40501927  0.24480348  1
  Ti  Ti141  1  -0.00454517  0.39691619  0.25630455  1
  Ti  Ti142  1  0.30653159  0.49722363  0.89191224  1
  Ti  Ti143  1  0.40531788  0.60425547  0.24590695  1
  Ti  Ti144  1  0.39319980  0.79884785  -0.00257411  1
  Ti  Ti145  1  0.70007291  0.89293963  0.11813254  1
  Ti  Ti146  1  0.49924830  0.50311722  0.88668222  1
  Ti  Ti147  1  0.79422841  0.20665288  -0.00035305  1
  Ti  Ti148  1  0.78834198  0.79555383  0.00018554  1
  Ti  Ti149  1  0.39670131  0.40049042  0.24179243  1
  Ti  Ti150  1  0.50484786  0.68798225  0.36937634  1
  Ti  Ti151  1  0.08446172  0.89871949  0.86899875  1
  Ti  Ti152  1  0.69323329  0.92815659  0.62453566  1
  Ti  Ti153  1  0.60498306  0.78209993  0.24313288  1
  Ti  Ti154  1  0.09058734  0.89782006  0.37606416  1
  Ti  Ti155  1  0.20107988  0.39635059  0.24744866  1
  Ti  Ti156  1  0.89644103  0.89637927  0.88392758  1
  Ti  Ti157  1  0.19366699  0.80308093  -0.01061373  1
  Ti  Ti158  1  0.90073401  0.69879414  0.37250933  1
  Ti  Ti159  1  0.79555795  0.59947997  0.00125769  1
  Mo  Mo160  1  0.70900600  0.09930180  0.61806945  1
  Mo  Mo161  1  0.29338066  0.89483761  0.88363761  1
  Mo  Mo162  1  0.50210306  0.89794974  0.61590918  1
  Mo  Mo163  1  0.70342861  0.10100401  0.13679261  1
  Mo  Mo164  1  0.01627119  0.38982718  -0.00678622  1
  Mo  Mo165  1  0.90850395  0.30342491  0.36515214  1
  Mo  Mo166  1  0.19616355  0.19418060  0.49121599  1
  Mo  Mo167  1  0.81544497  0.20430601  0.26304664  1
  Mo  Mo168  1  0.38912659  -0.00274510  0.00706886  1
  Mo  Mo169  1  0.81151276  0.41318973  0.26265751  1
  Mo  Mo170  1  0.89578545  0.89680971  0.61806780  1
  Mo  Mo171  1  0.70734311  0.49406926  0.62384242  1
  Mo  Mo172  1  0.09888891  0.29690007  0.13796097  1
  Mo  Mo173  1  0.90584123  0.31177356  0.62652182  1
  Mo  Mo174  1  0.59502753  0.60842275  0.24810705  1
  Mo  Mo175  1  0.39328656  0.79689524  0.75961533  1
  Mo  Mo176  1  0.41937013  0.19417122  0.01365711  1
  Mo  Mo177  1  0.80605363  0.40191264  -0.01065450  1
  Mo  Mo178  1  0.49780870  0.31257799  0.12614024  1
  Mo  Mo179  1  0.41242574  0.20009123  0.49930672  1
  Mo  Mo180  1  0.91202386  0.70390954  0.62358298  1
  Mo  Mo181  1  0.49477856  0.10869095  0.87684514  1
  Mo  Mo182  1  0.10169523  0.30140984  0.87412553  1
  Mo  Mo183  1  0.59998210  0.80427116  0.00341770  1
  Mo  Mo184  1  0.48935720  0.28723155  0.61629844  1
  Mo  Mo185  1  0.19880233  0.40718689  0.00484679  1
  Mo  Mo186  1  0.80422269  -0.00879390  0.24767448  1
  Mo  Mo187  1  0.20078020  0.39985343  0.74999427  1
  Mo  Mo188  1  0.40383898  0.60292745  -0.00374618  1
  Mo  Mo189  1  0.30120662  0.89058151  0.37770604  1
  Mo  Mo190  1  -0.00126483  0.80643524  -0.00599721  1
  Mo  Mo191  1  0.89772999  0.50733042  0.36314372  1
  Mo  Mo192  1  0.40537179  0.40258486  0.51077916  1
  Mo  Mo193  1  -0.00700215  -0.01064420  0.76459154  1
  Mo  Mo194  1  0.48898823  0.10233611  0.13349233  1
  Mo  Mo195  1  -0.00929314  0.18532535  -0.00044979  1
  Mo  Mo196  1  0.48658799  0.49496622  0.62214529  1
  Mo  Mo197  1  0.09683059  0.31463753  0.62726086  1
  Mo  Mo198  1  0.60287754  0.00286751  0.75469796  1
  Mo  Mo199  1  0.70187242  0.70942365  0.11753431  1
