# generated using pymatgen
data_HfZrTaTiMo
_symmetry_space_group_name_H-M   'P 1'
_cell_length_a   15.19800849
_cell_length_b   15.18602225
_cell_length_c   16.79007418
_cell_angle_alpha   90.01292075
_cell_angle_beta   89.96190339
_cell_angle_gamma   89.93068941
_symmetry_Int_Tables_number   1
_chemical_formula_structural   HfZrTaTiMo
_chemical_formula_sum   'Hf40 Zr40 Ta40 Ti40 Mo40'
_cell_volume   3875.09991596
_cell_formula_units_Z   40
loop_
 _symmetry_equiv_pos_site_id
 _symmetry_equiv_pos_as_xyz
  1  'x, y, z'
loop_
 _atom_site_type_symbol
 _atom_site_label
 _atom_site_symmetry_multiplicity
 _atom_site_fract_x
 _atom_site_fract_y
 _atom_site_fract_z
 _atom_site_occupancy
  Hf  Hf0  1  0.41004944  0.19228461  0.25040672  1
  Hf  Hf1  1  0.18850762  0.78673504  0.00074400  1
  Hf  Hf2  1  0.10381356  0.49506345  0.12665206  1
  Hf  Hf3  1  0.11065954  0.29958795  0.13608339  1
  Hf  Hf4  1  0.09453320  0.49148672  0.61328551  1
  Hf  Hf5  1  0.09438342  0.70379722  0.13484779  1
  Hf  Hf6  1  0.12193596  0.51429501  0.87795006  1
  Hf  Hf7  1  0.61119986  0.59905432  0.22816928  1
  Hf  Hf8  1  0.88625534  0.69946932  0.38741191  1
  Hf  Hf9  1  0.49777009  0.70296826  0.87001798  1
  Hf  Hf10  1  0.69789250  0.70971522  0.37141204  1
  Hf  Hf11  1  0.22275844  0.20509660  0.73377197  1
  Hf  Hf12  1  0.21227108  0.40505388  0.74849840  1
  Hf  Hf13  1  0.78497665  0.60748166  0.75579089  1
  Hf  Hf14  1  0.61453227  0.20413822  0.01338742  1
  Hf  Hf15  1  0.20034336  0.20203380  0.00366994  1
  Hf  Hf16  1  -0.00454033  0.01076237  0.00081338  1
  Hf  Hf17  1  0.07464125  0.69990771  0.60782365  1
  Hf  Hf18  1  0.90487900  0.30605524  0.61873708  1
  Hf  Hf19  1  0.50013749  0.70454642  0.12317966  1
  Hf  Hf20  1  0.20735562  0.18135847  0.26448034  1
  Hf  Hf21  1  0.29437018  0.90433787  0.38039863  1
  Hf  Hf22  1  0.60765529  0.00107241  0.75036615  1
  Hf  Hf23  1  0.29783633  0.07974382  0.12495190  1
  Hf  Hf24  1  0.19773027  0.59506190  0.25716489  1
  Hf  Hf25  1  0.80055986  0.39110118  0.76020289  1
  Hf  Hf26  1  0.49690239  0.30106521  0.62364088  1
  Hf  Hf27  1  0.50627740  0.49837192  0.88968043  1
  Hf  Hf28  1  0.70466867  0.30403656  0.61563329  1
  Hf  Hf29  1  0.49787855  0.69185131  0.35719378  1
  Hf  Hf30  1  0.58754876  0.60462483  0.50401845  1
  Hf  Hf31  1  0.30334183  0.88410545  0.64292719  1
  Hf  Hf32  1  -0.00739795  0.60458979  0.75266846  1
  Hf  Hf33  1  0.89409370  0.10227753  0.39404134  1
  Hf  Hf34  1  0.90987437  0.30127143  0.12646177  1
  Hf  Hf35  1  0.69923811  0.70115927  0.89701529  1
  Hf  Hf36  1  -0.00192218  0.40020794  0.25979129  1
  Hf  Hf37  1  -0.01008833  0.00512387  0.73263862  1
  Hf  Hf38  1  -0.00104666  0.19140610  0.26088320  1
  Hf  Hf39  1  0.00809558  0.20284457  0.73980856  1
  Zr  Zr40  1  0.31325972  0.29070798  0.88261845  1
  Zr  Zr41  1  0.21796385  0.59814677  0.50056981  1
  Zr  Zr42  1  0.49856358  0.10644169  0.87800614  1
  Zr  Zr43  1  0.39045220  0.58353305  0.76536263  1
  Zr  Zr44  1  0.21682183  0.19195576  0.50080839  1
  Zr  Zr45  1  0.00146028  -0.00066130  0.25462631  1
  Zr  Zr46  1  0.88535276  0.90144119  0.87842581  1
  Zr  Zr47  1  0.30410089  0.69684785  0.36327945  1
  Zr  Zr48  1  0.71091767  0.30581007  0.37171166  1
  Zr  Zr49  1  0.19312122  0.01366084  0.73591554  1
  Zr  Zr50  1  0.58892099  0.80415377  0.50226399  1
  Zr  Zr51  1  0.90111739  0.50226196  0.88194652  1
  Zr  Zr52  1  0.20088331  -0.00791607  -0.01001160  1
  Zr  Zr53  1  -0.01506495  0.59866723  0.25208285  1
  Zr  Zr54  1  0.10184793  0.50047482  0.38017785  1
  Zr  Zr55  1  0.21925570  0.38919599  0.49025020  1
  Zr  Zr56  1  0.20223341  0.79959240  0.50836002  1
  Zr  Zr57  1  -0.01658498  0.80023356  0.25093749  1
  Zr  Zr58  1  0.79541089  0.00980129  0.73606919  1
  Zr  Zr59  1  0.68213930  0.91234115  0.11110380  1
  Zr  Zr60  1  0.09092090  0.88939335  0.85745026  1
  Zr  Zr61  1  0.50062051  0.89098081  0.64754488  1
  Zr  Zr62  1  0.88737542  0.89951569  0.39098809  1
  Zr  Zr63  1  0.69233714  0.50708540  0.36702753  1
  Zr  Zr64  1  0.59402445  0.00251990  0.26081739  1
  Zr  Zr65  1  0.50309721  0.10552073  0.62149063  1
  Zr  Zr66  1  0.41037330  0.38964015  0.01615167  1
  Zr  Zr67  1  0.51127804  0.49793226  0.63901979  1
  Zr  Zr68  1  0.88757613  0.90334553  0.11644588  1
  Zr  Zr69  1  0.80174290  0.38185264  -0.00327453  1
  Zr  Zr70  1  0.49962725  0.32275467  0.36247226  1
  Zr  Zr71  1  0.61248888  0.20135285  0.24124706  1
  Zr  Zr72  1  0.40194732  -0.00616947  0.50290179  1
  Zr  Zr73  1  0.62273782  0.20735610  0.75391332  1
  Zr  Zr74  1  0.30019489  0.89209101  0.85050847  1
  Zr  Zr75  1  0.19671591  0.61283451  0.72769378  1
  Zr  Zr76  1  0.89182946  0.11059324  0.87108785  1
  Zr  Zr77  1  0.47681102  0.89853856  0.13807067  1
  Zr  Zr78  1  0.01213424  0.61018256  -0.00378504  1
  Zr  Zr79  1  0.38368808  0.80093367  -0.00675210  1
  Ta  Ta80  1  0.00882339  0.40136394  0.75334452  1
  Ta  Ta81  1  0.00380324  0.20493729  -0.00018340  1
  Ta  Ta82  1  0.79506194  0.00919290  0.24992073  1
  Ta  Ta83  1  0.40776308  0.38157384  0.75903728  1
  Ta  Ta84  1  0.10779304  0.30164839  0.61856840  1
  Ta  Ta85  1  0.70480789  0.10086864  0.38942475  1
  Ta  Ta86  1  0.19284726  0.81387298  0.25524460  1
  Ta  Ta87  1  0.10598227  0.90626473  0.12630985  1
  Ta  Ta88  1  0.40456400  -0.00701150  -0.00620399  1
  Ta  Ta89  1  0.79387496  0.40907221  0.23319777  1
  Ta  Ta90  1  0.27200019  0.68643998  0.87402636  1
  Ta  Ta91  1  0.70279479  0.71113208  0.10257914  1
  Ta  Ta92  1  0.09129266  0.89356555  0.62926747  1
  Ta  Ta93  1  0.10146507  0.11106003  0.87220819  1
  Ta  Ta94  1  0.59644404  0.20644329  0.48902270  1
  Ta  Ta95  1  0.80544025  0.19684342  0.24103257  1
  Ta  Ta96  1  0.30237013  0.29801532  0.13927878  1
  Ta  Ta97  1  0.29901526  0.70551696  0.14030238  1
  Ta  Ta98  1  0.20030083  0.00225808  0.52168953  1
  Ta  Ta99  1  0.80728890  0.41738598  0.49977692  1
  Ta  Ta100  1  0.09270085  0.89796879  0.39083496  1
  Ta  Ta101  1  0.49936668  0.69684618  0.65129035  1
  Ta  Ta102  1  0.40157955  0.77544694  0.50696130  1
  Ta  Ta103  1  0.60505394  0.40757101  0.49826606  1
  Ta  Ta104  1  0.69834323  0.90609748  0.38177804  1
  Ta  Ta105  1  0.69061908  0.90441148  0.88719787  1
  Ta  Ta106  1  0.89751599  0.50280993  0.62884429  1
  Ta  Ta107  1  0.21157839  0.40928661  0.00078182  1
  Ta  Ta108  1  0.50774318  0.08943789  0.11712527  1
  Ta  Ta109  1  0.01553542  0.39306424  -0.00669081  1
  Ta  Ta110  1  0.32871715  0.48835119  0.36102687  1
  Ta  Ta111  1  0.38195718  0.59608932  0.00326859  1
  Ta  Ta112  1  0.08967639  0.70669752  0.38555522  1
  Ta  Ta113  1  0.70292066  0.89430455  0.61723918  1
  Ta  Ta114  1  0.10463925  0.29362328  0.37463165  1
  Ta  Ta115  1  0.70638669  0.50866367  0.62606848  1
  Ta  Ta116  1  -0.02364524  0.58866297  0.49603233  1
  Ta  Ta117  1  0.01067745  0.20238290  0.49888523  1
  Ta  Ta118  1  0.31716291  0.48921002  0.62055947  1
  Ta  Ta119  1  0.00342991  -0.00008599  0.51499221  1
  Ti  Ti120  1  0.61120371  0.40798236  0.76294265  1
  Ti  Ti121  1  0.00023110  0.39651113  0.48944645  1
  Ti  Ti122  1  0.41136202  0.58457995  0.23473525  1
  Ti  Ti123  1  0.52165226  0.29885682  0.87894516  1
  Ti  Ti124  1  0.89199359  0.11045454  0.60740482  1
  Ti  Ti125  1  0.80864318  0.18631225  0.01993242  1
  Ti  Ti126  1  0.60117485  0.00092827  0.49721840  1
  Ti  Ti127  1  0.88800278  0.70023582  0.10888941  1
  Ti  Ti128  1  0.80117147  0.60727562  0.23309051  1
  Ti  Ti129  1  0.58146843  0.81446437  -0.00545084  1
  Ti  Ti130  1  0.70502266  0.10716225  0.60395384  1
  Ti  Ti131  1  0.70414360  0.10275450  0.88543668  1
  Ti  Ti132  1  0.69714490  0.50018856  0.89342935  1
  Ti  Ti133  1  0.49737411  0.09550286  0.38202584  1
  Ti  Ti134  1  0.90804984  0.29415741  0.87308100  1
  Ti  Ti135  1  -0.01857946  0.79438584  0.74308226  1
  Ti  Ti136  1  0.49804638  0.90031351  0.85683638  1
  Ti  Ti137  1  0.87015554  0.69812488  0.61075944  1
  Ti  Ti138  1  0.89427856  0.88889399  0.60950721  1
  Ti  Ti139  1  0.77959151  0.80623944  0.24269395  1
  Ti  Ti140  1  0.10997187  0.08464686  0.38739065  1
  Ti  Ti141  1  0.90284556  0.50347296  0.11165557  1
  Ti  Ti142  1  0.30146083  0.09966843  0.87709250  1
  Ti  Ti143  1  0.29897209  0.49545915  0.13575407  1
  Ti  Ti144  1  0.39537747  0.02107498  0.74616129  1
  Ti  Ti145  1  0.41295176  0.40931575  0.49519029  1
  Ti  Ti146  1  0.49689554  0.88754209  0.36467075  1
  Ti  Ti147  1  0.78688200  0.80365529  0.74799386  1
  Ti  Ti148  1  0.89750214  0.30139921  0.37830542  1
  Ti  Ti149  1  0.89715940  0.70803410  0.88356977  1
  Ti  Ti150  1  0.59281294  0.40598522  0.21907428  1
  Ti  Ti151  1  0.39910239  0.21029069  0.48583522  1
  Ti  Ti152  1  0.38097175  -0.00340249  0.25927458  1
  Ti  Ti153  1  0.60627408  0.39570243  0.01500559  1
  Ti  Ti154  1  -0.00393644  0.80629739  -0.00067692  1
  Ti  Ti155  1  0.09502625  0.09963139  0.12747193  1
  Ti  Ti156  1  0.40594362  0.19228627  0.01548511  1
  Ti  Ti157  1  0.70822783  0.50952105  0.10332509  1
  Ti  Ti158  1  0.88347080  0.49898016  0.37117971  1
  Ti  Ti159  1  0.10717230  0.30232042  0.87248983  1
  Mo  Mo160  1  0.30673751  0.09382069  0.37834839  1
  Mo  Mo161  1  -0.00836397  0.79840758  0.50368829  1
  Mo  Mo162  1  0.70929412  0.30502835  0.13218713  1
  Mo  Mo163  1  0.40716048  0.40124767  0.22770230  1
  Mo  Mo164  1  0.09566553  0.10635934  0.61507438  1
  Mo  Mo165  1  0.30564683  0.30068717  0.35867618  1
  Mo  Mo166  1  0.30483639  0.49470348  0.88220857  1
  Mo  Mo167  1  0.50169125  0.29432934  0.12868072  1
  Mo  Mo168  1  0.50382674  0.50571829  0.10710764  1
  Mo  Mo169  1  0.18143744  0.79091651  0.73862420  1
  Mo  Mo170  1  0.80100807  0.21045184  0.49625843  1
  Mo  Mo171  1  0.41053878  0.20095783  0.75397849  1
  Mo  Mo172  1  0.80413491  0.59969649  0.00336767  1
  Mo  Mo173  1  0.58708141  0.00288537  -0.00979649  1
  Mo  Mo174  1  0.31420106  0.10234999  0.62187734  1
  Mo  Mo175  1  0.68608568  0.70344261  0.63440951  1
  Mo  Mo176  1  0.20960174  0.60013515  0.01444743  1
  Mo  Mo177  1  0.31463901  0.69247616  0.62591918  1
  Mo  Mo178  1  0.78765244  0.01214131  -0.00104677  1
  Mo  Mo179  1  0.60590956  0.80270991  0.25067733  1
  Mo  Mo180  1  0.39140098  0.78453989  0.76154561  1
  Mo  Mo181  1  0.31791979  0.30497290  0.62199848  1
  Mo  Mo182  1  0.28746870  0.89307015  0.13110364  1
  Mo  Mo183  1  0.59468143  0.60029197  0.01033105  1
  Mo  Mo184  1  0.19065773  -0.00462079  0.25598568  1
  Mo  Mo185  1  0.80024983  0.80642586  -0.00260082  1
  Mo  Mo186  1  0.40730255  0.59422697  0.50211906  1
  Mo  Mo187  1  0.61450445  0.79391165  0.75773531  1
  Mo  Mo188  1  0.79318718  0.00098677  0.51285274  1
  Mo  Mo189  1  0.71084419  0.29235105  0.87947329  1
  Mo  Mo190  1  0.39432846  0.80016230  0.25129087  1
  Mo  Mo191  1  0.90424058  0.10059309  0.12701995  1
  Mo  Mo192  1  0.70925116  0.09446572  0.12330962  1
  Mo  Mo193  1  0.60761194  0.59326851  0.76119367  1
  Mo  Mo194  1  0.50470556  0.50348236  0.36674620  1
  Mo  Mo195  1  0.80938964  0.20060678  0.74412976  1
  Mo  Mo196  1  0.78655094  0.59684613  0.50667438  1
  Mo  Mo197  1  0.78680673  0.79764488  0.50785261  1
  Mo  Mo198  1  0.21022804  0.39238513  0.26181427  1
  Mo  Mo199  1  0.08731272  0.70734512  0.86818840  1
