# generated using pymatgen
data_HfZrTaTiMo
_symmetry_space_group_name_H-M   'P 1'
_cell_length_a   15.21451960
_cell_length_b   15.22128890
_cell_length_c   16.81206229
_cell_angle_alpha   89.97692368
_cell_angle_beta   90.02459554
_cell_angle_gamma   90.02420056
_symmetry_Int_Tables_number   1
_chemical_formula_structural   HfZrTaTiMo
_chemical_formula_sum   'Hf40 Zr40 Ta40 Ti40 Mo40'
_cell_volume   3893.41367038
_cell_formula_units_Z   40
loop_
 _symmetry_equiv_pos_site_id
 _symmetry_equiv_pos_as_xyz
  1  'x, y, z'
loop_
 _atom_site_type_symbol
 _atom_site_label
 _atom_site_symmetry_multiplicity
 _atom_site_fract_x
 _atom_site_fract_y
 _atom_site_fract_z
 _atom_site_occupancy
  Hf  Hf0  1  0.90842205  0.51372901  0.63570637  1
  Hf  Hf1  1  0.79308570  0.00346936  0.01698894  1
  Hf  Hf2  1  0.90640801  0.51281059  0.85844685  1
  Hf  Hf3  1  0.50161188  0.49976375  0.61795064  1
  Hf  Hf4  1  0.39223285  0.39444197  0.74763383  1
  Hf  Hf5  1  0.50557830  0.10140198  0.88315164  1
  Hf  Hf6  1  0.89896497  0.30781244  0.87674948  1
  Hf  Hf7  1  0.21151662  0.20521076  0.25952556  1
  Hf  Hf8  1  0.30394701  0.69170158  0.62791509  1
  Hf  Hf9  1  0.80694786  0.40679597  0.50434538  1
  Hf  Hf10  1  0.40011036  0.80033729  0.75283025  1
  Hf  Hf11  1  0.60633547  0.59205196  0.01002876  1
  Hf  Hf12  1  0.09895216  0.09758035  0.37641222  1
  Hf  Hf13  1  0.49460129  0.28344602  0.11876893  1
  Hf  Hf14  1  0.58960837  0.00873611  0.73597899  1
  Hf  Hf15  1  0.11941204  0.50044007  0.87771168  1
  Hf  Hf16  1  0.38642706  0.58121384  0.00524659  1
  Hf  Hf17  1  -0.00256968  0.60611064  0.00256724  1
  Hf  Hf18  1  0.09090669  0.50016997  0.37178548  1
  Hf  Hf19  1  0.09485305  0.70830262  0.13786436  1
  Hf  Hf20  1  0.30154191  0.49624642  0.61164763  1
  Hf  Hf21  1  0.31898775  0.10797666  0.13185053  1
  Hf  Hf22  1  0.19166375  -0.00468458  0.50476505  1
  Hf  Hf23  1  0.69822435  0.90222674  0.87691441  1
  Hf  Hf24  1  0.89680057  0.90754128  0.87549395  1
  Hf  Hf25  1  0.79760616  0.60863301  0.49691656  1
  Hf  Hf26  1  0.11378933  0.32089402  0.11824721  1
  Hf  Hf27  1  0.30069195  0.10467610  0.62500301  1
  Hf  Hf28  1  0.70176047  0.09722764  0.87636151  1
  Hf  Hf29  1  0.90578522  0.90520016  0.62334867  1
  Hf  Hf30  1  0.28635766  0.69272879  0.87611095  1
  Hf  Hf31  1  0.49494403  0.48422093  0.88030661  1
  Hf  Hf32  1  0.29316177  0.91151612  0.86979976  1
  Hf  Hf33  1  0.39454717  -0.01742563  0.49989842  1
  Hf  Hf34  1  0.62642290  0.59533228  0.23476380  1
  Hf  Hf35  1  0.89485464  0.09825995  0.36618276  1
  Hf  Hf36  1  0.49436748  0.90762936  0.87720934  1
  Hf  Hf37  1  0.20495655  -0.00821297  0.23486698  1
  Hf  Hf38  1  0.69365747  0.89825474  0.13785384  1
  Hf  Hf39  1  0.51322653  0.48030435  0.36268525  1
  Zr  Zr40  1  0.88710333  0.68974779  0.13081179  1
  Zr  Zr41  1  0.59786390  0.37310278  0.74187779  1
  Zr  Zr42  1  0.59758504  0.79946779  0.00456342  1
  Zr  Zr43  1  0.49673631  0.09426728  0.37860840  1
  Zr  Zr44  1  0.90642097  0.10508379  0.87748334  1
  Zr  Zr45  1  0.58743201  0.22003551  0.26523130  1
  Zr  Zr46  1  0.79217514  0.78219604  0.25695437  1
  Zr  Zr47  1  0.01804768  0.39661790  0.74194391  1
  Zr  Zr48  1  0.69941090  0.90841601  0.36510037  1
  Zr  Zr49  1  0.68918852  0.29522133  0.88736109  1
  Zr  Zr50  1  0.09251041  0.68779402  0.63192213  1
  Zr  Zr51  1  0.41940276  0.19865926  0.74662781  1
  Zr  Zr52  1  0.70469315  0.49463563  0.86908154  1
  Zr  Zr53  1  0.10080797  0.90738021  0.87976070  1
  Zr  Zr54  1  0.49556440  0.89488108  0.35974360  1
  Zr  Zr55  1  0.49987594  0.69421223  0.61752568  1
  Zr  Zr56  1  0.78845328  0.20592129  0.74394819  1
  Zr  Zr57  1  0.59682712  0.79981489  0.74893399  1
  Zr  Zr58  1  0.70864872  0.29872433  0.13248024  1
  Zr  Zr59  1  0.40056214  0.59977546  0.25495948  1
  Zr  Zr60  1  0.49351116  0.69786159  0.12443722  1
  Zr  Zr61  1  0.00220183  0.00936135  0.01747963  1
  Zr  Zr62  1  0.80029501  0.00005735  0.49944399  1
  Zr  Zr63  1  0.08911039  0.89341067  0.36841636  1
  Zr  Zr64  1  -0.00018686  0.40962993  0.00790816  1
  Zr  Zr65  1  0.19824220  0.60221843  0.48408333  1
  Zr  Zr66  1  0.38725306  0.80232077  0.00140096  1
  Zr  Zr67  1  0.69154950  0.12221753  0.60935776  1
  Zr  Zr68  1  0.20584816  0.19798688  0.00508225  1
  Zr  Zr69  1  0.20487840  0.79909952  0.50822968  1
  Zr  Zr70  1  0.00406476  0.19914432  0.74339520  1
  Zr  Zr71  1  0.20148211  0.21410065  0.74806764  1
  Zr  Zr72  1  0.60127934  0.80576079  0.49856042  1
  Zr  Zr73  1  0.70137864  0.69930718  0.62911549  1
  Zr  Zr74  1  0.30415996  0.10492540  0.87314050  1
  Zr  Zr75  1  0.00051095  -0.00292236  0.23460108  1
  Zr  Zr76  1  0.50295305  0.28653905  0.59770896  1
  Zr  Zr77  1  0.29579392  0.88625935  0.36099025  1
  Zr  Zr78  1  -0.00163154  0.80073584  0.50350369  1
  Zr  Zr79  1  0.00455088  0.21394262  0.24465445  1
  Ta  Ta80  1  -0.00198285  0.20395670  0.49707510  1
  Ta  Ta81  1  0.79863216  0.80916723  0.74989767  1
  Ta  Ta82  1  0.69871208  0.50388598  0.63181172  1
  Ta  Ta83  1  0.49525210  0.47771369  0.13813315  1
  Ta  Ta84  1  0.19244469  0.80192634  0.74409164  1
  Ta  Ta85  1  0.30865130  0.48801785  0.37108354  1
  Ta  Ta86  1  0.39960220  0.59366182  0.75875889  1
  Ta  Ta87  1  0.51378449  0.69077068  0.37385216  1
  Ta  Ta88  1  0.70542369  0.69600778  0.87108003  1
  Ta  Ta89  1  0.88436264  0.11485124  0.14022119  1
  Ta  Ta90  1  0.90662739  0.69645466  0.36804125  1
  Ta  Ta91  1  0.10480349  0.10188781  0.87985756  1
  Ta  Ta92  1  0.80052830  0.79279364  0.00157975  1
  Ta  Ta93  1  0.89745836  0.49853753  0.36967115  1
  Ta  Ta94  1  0.69999388  0.10556943  0.36491211  1
  Ta  Ta95  1  0.31175591  0.31130080  0.12361865  1
  Ta  Ta96  1  0.89567458  0.70248862  0.64207670  1
  Ta  Ta97  1  0.49911688  0.09175934  0.60066445  1
  Ta  Ta98  1  0.90185111  0.29765877  0.61699238  1
  Ta  Ta99  1  -0.00126476  0.40762793  0.24197103  1
  Ta  Ta100  1  0.59132086  0.78939771  0.24680706  1
  Ta  Ta101  1  0.28830678  0.49396445  0.13896122  1
  Ta  Ta102  1  0.19933203  0.39706052  0.26404436  1
  Ta  Ta103  1  0.89991809  0.89202188  0.13229301  1
  Ta  Ta104  1  0.90332880  0.30733558  0.37267678  1
  Ta  Ta105  1  0.09227687  0.70148218  0.87042873  1
  Ta  Ta106  1  0.09147781  0.10041737  0.61339132  1
  Ta  Ta107  1  -0.00539824  0.80198742  0.00079638  1
  Ta  Ta108  1  0.40701757  0.59465105  0.48042409  1
  Ta  Ta109  1  0.00116439  0.80855730  0.74875931  1
  Ta  Ta110  1  0.20143650  0.38918107  0.48270459  1
  Ta  Ta111  1  0.00710959  0.39858051  0.50449715  1
  Ta  Ta112  1  0.79966723  0.00230454  0.73851474  1
  Ta  Ta113  1  0.40059552  0.00431597  0.01348875  1
  Ta  Ta114  1  0.61164380  0.40195333  0.49969361  1
  Ta  Ta115  1  0.89751655  0.70578107  0.86189326  1
  Ta  Ta116  1  0.80621880  0.20319490  0.00852637  1
  Ta  Ta117  1  0.30434982  0.32068863  0.89497346  1
  Ta  Ta118  1  0.10576179  0.29878585  0.88914275  1
  Ta  Ta119  1  0.80259476  0.39905377  0.73598225  1
  Ti  Ti120  1  0.79588578  0.40521461  0.24753635  1
  Ti  Ti121  1  0.20614653  0.39911714  0.74771962  1
  Ti  Ti122  1  -0.00600664  0.59933968  0.49622581  1
  Ti  Ti123  1  0.20509890  -0.00685313  0.01828503  1
  Ti  Ti124  1  0.19216590  0.59863407  0.01314887  1
  Ti  Ti125  1  0.38576550  0.19840843  0.48074912  1
  Ti  Ti126  1  0.60096643  0.39803232  0.01214270  1
  Ti  Ti127  1  0.50693910  0.09237101  0.14465154  1
  Ti  Ti128  1  0.60821001  0.18294715  0.01534059  1
  Ti  Ti129  1  0.70373510  0.51025817  0.37386042  1
  Ti  Ti130  1  0.19542910  0.20161769  0.48857445  1
  Ti  Ti131  1  0.10399012  0.10818638  0.12650792  1
  Ti  Ti132  1  0.69397436  0.90724046  0.61976120  1
  Ti  Ti133  1  0.30416544  0.90154743  0.63642497  1
  Ti  Ti134  1  0.80114742  0.40366436  0.00881811  1
  Ti  Ti135  1  0.59572760  0.59576802  0.75801379  1
  Ti  Ti136  1  0.80297543  0.79856744  0.49068652  1
  Ti  Ti137  1  0.89843182  0.10297916  0.61570182  1
  Ti  Ti138  1  0.49535707  0.28963003  0.89764460  1
  Ti  Ti139  1  0.00291059  0.00455851  0.74553836  1
  Ti  Ti140  1  0.89484575  0.49461840  0.13198490  1
  Ti  Ti141  1  -0.00315741  0.20695973  0.01224335  1
  Ti  Ti142  1  0.90091749  0.89841370  0.36603787  1
  Ti  Ti143  1  0.29563886  0.30190748  0.60717432  1
  Ti  Ti144  1  0.29252986  0.70493110  0.13311487  1
  Ti  Ti145  1  0.79538349  0.21290443  0.48925597  1
  Ti  Ti146  1  0.10311732  0.70764182  0.36002327  1
  Ti  Ti147  1  0.39735227  0.78766848  0.49474007  1
  Ti  Ti148  1  0.49923117  0.69251940  0.88062148  1
  Ti  Ti149  1  0.70012770  0.31553241  0.36921705  1
  Ti  Ti150  1  0.19200399  0.00353635  0.73965115  1
  Ti  Ti151  1  0.79936483  0.59701378  -0.00176696  1
  Ti  Ti152  1  0.48193383  0.90512829  0.14556308  1
  Ti  Ti153  1  -0.00424594  0.60002909  0.24983660  1
  Ti  Ti154  1  0.19054375  0.80171626  0.00866161  1
  Ti  Ti155  1  0.20134391  0.59201648  0.74857888  1
  Ti  Ti156  1  0.20043102  0.60091936  0.25763841  1
  Ti  Ti157  1  0.59316620  -0.00237292  0.01706537  1
  Ti  Ti158  1  0.10844853  0.49149823  0.61758162  1
  Ti  Ti159  1  0.69849249  0.10130533  0.15507200  1
  Mo  Mo160  1  0.39497270  0.79395048  0.24523423  1
  Mo  Mo161  1  0.49391270  0.90230442  0.62095534  1
  Mo  Mo162  1  0.10085375  0.89613308  0.11548079  1
  Mo  Mo163  1  0.70304009  0.69855518  0.11570595  1
  Mo  Mo164  1  0.30018649  0.89338706  0.12646814  1
  Mo  Mo165  1  0.60454429  0.40257102  0.24420953  1
  Mo  Mo166  1  0.39761390  -0.00351241  0.73493053  1
  Mo  Mo167  1  0.29685803  0.09284040  0.37416810  1
  Mo  Mo168  1  0.60500275  0.59205551  0.49226214  1
  Mo  Mo169  1  -0.00296432  0.79705628  0.25200854  1
  Mo  Mo170  1  0.69898460  0.69617788  0.37951544  1
  Mo  Mo171  1  0.30720250  0.69352026  0.36950072  1
  Mo  Mo172  1  0.39843541  0.37817831  0.25432455  1
  Mo  Mo173  1  0.70563842  0.31012721  0.61294858  1
  Mo  Mo174  1  0.59861847  0.00058688  0.24619977  1
  Mo  Mo175  1  0.40458097  0.40077385  0.00747619  1
  Mo  Mo176  1  0.21238774  0.41809425  0.00641214  1
  Mo  Mo177  1  0.10285861  0.51080620  0.14245079  1
  Mo  Mo178  1  0.01047297  0.60911669  0.75331441  1
  Mo  Mo179  1  -0.00201938  0.00877054  0.50167708  1
  Mo  Mo180  1  0.49874212  0.30364191  0.39301082  1
  Mo  Mo181  1  0.39710983  0.00484476  0.24711984  1
  Mo  Mo182  1  0.71008824  0.49742249  0.11790173  1
  Mo  Mo183  1  0.39842910  0.39876411  0.49469748  1
  Mo  Mo184  1  0.80973662  0.58549719  0.25720569  1
  Mo  Mo185  1  0.40897064  0.19496420  0.00127441  1
  Mo  Mo186  1  0.90017466  0.30595542  0.12583343  1
  Mo  Mo187  1  0.79549181  0.60467160  0.75184482  1
  Mo  Mo188  1  0.80065097  0.21052227  0.26445899  1
  Mo  Mo189  1  0.09247887  0.30299549  0.37780235  1
  Mo  Mo190  1  0.59527492  0.19850129  0.74765776  1
  Mo  Mo191  1  0.20137486  0.78986656  0.24358184  1
  Mo  Mo192  1  0.10838769  0.30016115  0.60936273  1
  Mo  Mo193  1  0.80126107  0.00188227  0.24388195  1
  Mo  Mo194  1  0.39364559  0.20376866  0.26728488  1
  Mo  Mo195  1  0.59922733  -0.00003504  0.50372467  1
  Mo  Mo196  1  0.30026358  0.50204562  0.87114422  1
  Mo  Mo197  1  0.60775736  0.20503207  0.47457677  1
  Mo  Mo198  1  0.10285671  0.90766526  0.63652643  1
  Mo  Mo199  1  0.30209135  0.29648745  0.38051961  1
