# generated using pymatgen
data_HfZrTaTiMo
_symmetry_space_group_name_H-M   'P 1'
_cell_length_a   15.21061409
_cell_length_b   15.22388491
_cell_length_c   16.85532549
_cell_angle_alpha   90.03600311
_cell_angle_beta   90.01456114
_cell_angle_gamma   90.00218164
_symmetry_Int_Tables_number   1
_chemical_formula_structural   HfZrTaTiMo
_chemical_formula_sum   'Hf40 Zr40 Ta40 Ti40 Mo40'
_cell_volume   3903.09645134
_cell_formula_units_Z   40
loop_
 _symmetry_equiv_pos_site_id
 _symmetry_equiv_pos_as_xyz
  1  'x, y, z'
loop_
 _atom_site_type_symbol
 _atom_site_label
 _atom_site_symmetry_multiplicity
 _atom_site_fract_x
 _atom_site_fract_y
 _atom_site_fract_z
 _atom_site_occupancy
  Hf  Hf0  1  0.38999803  0.80097045  0.75348521  1
  Hf  Hf1  1  0.41805136  0.79929866  0.00590853  1
  Hf  Hf2  1  0.39737535  0.20280761  0.01405786  1
  Hf  Hf3  1  0.49917294  0.28942634  0.60723284  1
  Hf  Hf4  1  0.78762807  0.59166143  -0.00386841  1
  Hf  Hf5  1  0.29724465  0.48680264  0.12891601  1
  Hf  Hf6  1  0.80221347  0.39554095  0.25756981  1
  Hf  Hf7  1  0.90387123  0.92783867  0.61704679  1
  Hf  Hf8  1  0.68230496  0.50418407  0.13256331  1
  Hf  Hf9  1  0.39019559  0.20500569  0.25469158  1
  Hf  Hf10  1  0.61623581  0.39307890  0.50528871  1
  Hf  Hf11  1  0.59230852  0.59022659  0.49750533  1
  Hf  Hf12  1  0.60109398  -0.00305897  0.26455313  1
  Hf  Hf13  1  0.38608128  0.79066557  0.49837723  1
  Hf  Hf14  1  0.48453805  0.68887991  0.62961790  1
  Hf  Hf15  1  0.40554032  0.41251546  0.26125713  1
  Hf  Hf16  1  0.81475858  0.40432403  0.50478191  1
  Hf  Hf17  1  0.21595596  0.40247737  0.74496226  1
  Hf  Hf18  1  -0.01175093  0.40096646  -0.00939313  1
  Hf  Hf19  1  0.29528903  0.31572621  0.39422192  1
  Hf  Hf20  1  0.70760943  0.49362963  0.85387190  1
  Hf  Hf21  1  0.89495961  0.70118800  0.39003686  1
  Hf  Hf22  1  0.42353856  0.58691630  0.01327508  1
  Hf  Hf23  1  0.00386353  0.20834071  -0.01223206  1
  Hf  Hf24  1  0.89090814  0.70849033  0.11674670  1
  Hf  Hf25  1  0.09437612  0.29658486  0.62799981  1
  Hf  Hf26  1  0.68853169  0.09681861  0.87150445  1
  Hf  Hf27  1  0.59988324  -0.00665207  0.49127347  1
  Hf  Hf28  1  0.79869228  0.21589060  -0.01938704  1
  Hf  Hf29  1  0.18481184  -0.00983882  0.49286320  1
  Hf  Hf30  1  0.50673847  0.31323712  0.13483400  1
  Hf  Hf31  1  0.20215420  0.58871430  0.00138351  1
  Hf  Hf32  1  0.78637461  0.82286602  0.72529095  1
  Hf  Hf33  1  0.00833335  0.81390348  -0.00658981  1
  Hf  Hf34  1  0.41106280  0.38465865  0.74429014  1
  Hf  Hf35  1  0.13076198  0.49964550  0.37158585  1
  Hf  Hf36  1  0.11128375  0.49609851  0.61985509  1
  Hf  Hf37  1  0.58749345  0.80069904  0.50143838  1
  Hf  Hf38  1  0.79192478  0.81545149  0.50688234  1
  Hf  Hf39  1  0.51558783  0.69660730  0.87033555  1
  Zr  Zr40  1  0.29075534  0.09420491  0.13691686  1
  Zr  Zr41  1  0.51025628  0.49755129  0.86438100  1
  Zr  Zr42  1  0.30333160  0.29799906  0.60294419  1
  Zr  Zr43  1  0.91485025  0.50894404  0.63191689  1
  Zr  Zr44  1  0.09765158  0.29479253  0.85046014  1
  Zr  Zr45  1  0.39928749  -0.01083801  0.26484985  1
  Zr  Zr46  1  0.19187473  0.38237301  -0.00330037  1
  Zr  Zr47  1  0.89353336  0.10922902  0.12034095  1
  Zr  Zr48  1  0.00107624  0.59495788  -0.00160757  1
  Zr  Zr49  1  0.27725498  0.90237837  0.89037458  1
  Zr  Zr50  1  0.50130396  0.30402247  0.38658804  1
  Zr  Zr51  1  0.70648519  0.71507331  0.86832688  1
  Zr  Zr52  1  0.51743625  0.29261061  0.87666184  1
  Zr  Zr53  1  0.39515610  0.00850181  -0.00194065  1
  Zr  Zr54  1  0.00198935  0.80589401  0.25616243  1
  Zr  Zr55  1  0.61706771  0.40393428  -0.00366248  1
  Zr  Zr56  1  0.48825487  0.08852908  0.61790740  1
  Zr  Zr57  1  -0.00224443  0.01556257  -0.01567771  1
  Zr  Zr58  1  0.10540297  0.69706338  0.12944924  1
  Zr  Zr59  1  0.09956316  0.29919668  0.39324227  1
  Zr  Zr60  1  0.70699969  0.29350348  0.12794345  1
  Zr  Zr61  1  0.79984196  0.60719550  0.25400665  1
  Zr  Zr62  1  -0.01226439  0.19008982  0.50818541  1
  Zr  Zr63  1  0.81170561  0.62074894  0.74525291  1
  Zr  Zr64  1  0.77878384  -0.00883348  0.00548754  1
  Zr  Zr65  1  0.09914329  0.90016848  0.63336532  1
  Zr  Zr66  1  0.01166529  0.59838661  0.48898086  1
  Zr  Zr67  1  0.40275305  0.60883250  0.23937910  1
  Zr  Zr68  1  0.31052614  0.28028961  0.87146378  1
  Zr  Zr69  1  0.10700276  0.70812535  0.87694344  1
  Zr  Zr70  1  0.30963724  0.69581262  0.89145421  1
  Zr  Zr71  1  0.79642305  0.80742654  0.25660439  1
  Zr  Zr72  1  0.87850718  0.90407934  0.87281066  1
  Zr  Zr73  1  0.20905371  0.60762230  0.74828853  1
  Zr  Zr74  1  0.00078185  0.20314448  0.25337796  1
  Zr  Zr75  1  -0.01066803  0.79716278  0.75359830  1
  Zr  Zr76  1  0.18653536  -0.00607483  0.26458341  1
  Zr  Zr77  1  0.79604312  0.00099325  0.24592760  1
  Zr  Zr78  1  0.29470123  0.89158614  0.11957563  1
  Zr  Zr79  1  0.90094607  0.49759989  0.13144850  1
  Ta  Ta80  1  0.79262164  0.20718779  0.50834412  1
  Ta  Ta81  1  0.90847007  0.50278400  0.85387654  1
  Ta  Ta82  1  0.59772541  0.79341754  0.25823078  1
  Ta  Ta83  1  0.01106732  0.39845387  0.25430348  1
  Ta  Ta84  1  0.49419735  0.10171327  0.38048848  1
  Ta  Ta85  1  0.70014800  0.09794684  0.62919098  1
  Ta  Ta86  1  0.60787859  0.18755110  0.49570878  1
  Ta  Ta87  1  0.09670057  0.69812850  0.62486805  1
  Ta  Ta88  1  0.59719185  0.80179251  0.73513899  1
  Ta  Ta89  1  0.50462165  0.10128501  0.13601956  1
  Ta  Ta90  1  0.59277553  0.19274477  0.74166087  1
  Ta  Ta91  1  0.39205777  -0.01012733  0.48377619  1
  Ta  Ta92  1  0.10034688  0.11065505  0.12868033  1
  Ta  Ta93  1  -0.00768013  0.00039375  0.24833205  1
  Ta  Ta94  1  0.48671624  0.10123682  0.86778157  1
  Ta  Ta95  1  0.70609526  0.50142574  0.63380074  1
  Ta  Ta96  1  0.62274958  0.80675793  0.00555786  1
  Ta  Ta97  1  0.89789123  0.30671385  0.64110868  1
  Ta  Ta98  1  0.32074186  0.50807945  0.61410405  1
  Ta  Ta99  1  0.19594280  0.17777705  -0.00615835  1
  Ta  Ta100  1  0.79398385  0.19628747  0.25571818  1
  Ta  Ta101  1  0.51024877  0.90183047  0.87023149  1
  Ta  Ta102  1  0.70665354  0.49844839  0.37744713  1
  Ta  Ta103  1  0.28814250  0.10986379  0.37950566  1
  Ta  Ta104  1  0.01107870  0.81315110  0.49407744  1
  Ta  Ta105  1  0.90908330  0.91752646  0.38779605  1
  Ta  Ta106  1  0.09229378  0.09348184  0.63984334  1
  Ta  Ta107  1  0.21950186  0.60914445  0.50562465  1
  Ta  Ta108  1  0.59596333  0.59289688  0.26515129  1
  Ta  Ta109  1  0.69597076  0.69434536  0.61632499  1
  Ta  Ta110  1  0.91308443  0.49409717  0.37649514  1
  Ta  Ta111  1  0.38998909  0.00407259  0.75669230  1
  Ta  Ta112  1  0.39949052  0.59078203  0.75281477  1
  Ta  Ta113  1  0.09754552  0.91161999  0.12122515  1
  Ta  Ta114  1  0.51240078  0.90044379  0.13023634  1
  Ta  Ta115  1  0.30777626  0.49022360  0.88012940  1
  Ta  Ta116  1  0.90424231  0.70889430  0.60578552  1
  Ta  Ta117  1  0.29252862  0.68665422  0.36563713  1
  Ta  Ta118  1  0.30238488  0.90218373  0.62304041  1
  Ta  Ta119  1  0.88822947  0.10562666  0.37704171  1
  Ti  Ti120  1  0.50992916  0.49586055  0.63289194  1
  Ti  Ti121  1  0.40632353  0.79903800  0.24850868  1
  Ti  Ti122  1  0.10383634  0.09220093  0.85635172  1
  Ti  Ti123  1  0.90035252  0.30110032  0.37907020  1
  Ti  Ti124  1  0.19871529  0.80389721  0.74804059  1
  Ti  Ti125  1  0.49309931  0.89970254  0.62858956  1
  Ti  Ti126  1  0.70507614  0.29338155  0.37457394  1
  Ti  Ti127  1  0.70402561  0.90026964  0.37856414  1
  Ti  Ti128  1  0.26953955  0.29136019  0.13656532  1
  Ti  Ti129  1  0.59969577  -0.00794163  0.74616966  1
  Ti  Ti130  1  0.79485027  0.01277690  0.75004763  1
  Ti  Ti131  1  0.19635801  0.79466715  0.49969308  1
  Ti  Ti132  1  0.21788226  0.18721606  0.74193418  1
  Ti  Ti133  1  0.29220129  0.88461483  0.37263131  1
  Ti  Ti134  1  0.79653704  0.02028378  0.49957019  1
  Ti  Ti135  1  0.60158408  0.20059046  0.25998148  1
  Ti  Ti136  1  0.10406883  0.48526127  0.13897380  1
  Ti  Ti137  1  0.40218808  0.39592040  0.00506147  1
  Ti  Ti138  1  0.10912455  0.70451916  0.36969169  1
  Ti  Ti139  1  0.89108517  0.31198971  0.85054028  1
  Ti  Ti140  1  0.58708971  -0.00175450  0.00185943  1
  Ti  Ti141  1  0.69682207  0.69679300  0.38837553  1
  Ti  Ti142  1  0.20164146  -0.00388707  0.75024931  1
  Ti  Ti143  1  0.61838402  0.38143437  0.73509024  1
  Ti  Ti144  1  0.30047511  0.69685249  0.11970486  1
  Ti  Ti145  1  0.59577549  0.19088182  0.00373732  1
  Ti  Ti146  1  0.09999937  0.50092688  0.86011620  1
  Ti  Ti147  1  0.00856386  0.59863448  0.25835708  1
  Ti  Ti148  1  0.49198089  0.69825005  0.37505403  1
  Ti  Ti149  1  0.20554765  0.79146541  0.24747860  1
  Ti  Ti150  1  0.90058523  0.69951890  0.88466439  1
  Ti  Ti151  1  0.89655470  0.90314095  0.11816626  1
  Ti  Ti152  1  0.78532323  0.21093792  0.75289951  1
  Ti  Ti153  1  0.29732361  0.09126420  0.61685248  1
  Ti  Ti154  1  0.52825142  0.69403412  0.12514201  1
  Ti  Ti155  1  0.68788899  0.09638981  0.12485885  1
  Ti  Ti156  1  0.90608117  0.30401793  0.12458063  1
  Ti  Ti157  1  0.08493009  0.09124170  0.37670305  1
  Ti  Ti158  1  0.19524300  0.18711443  0.50739714  1
  Ti  Ti159  1  0.89946953  0.11453486  0.64389987  1
  Mo  Mo160  1  0.39388263  0.18111353  0.49038159  1
  Mo  Mo161  1  0.29080960  0.70700944  0.62770327  1
  Mo  Mo162  1  0.69156995  0.89063060  0.13194780  1
  Mo  Mo163  1  0.70295549  0.28992757  0.62459827  1
  Mo  Mo164  1  0.41397141  0.42787303  0.49736493  1
  Mo  Mo165  1  0.20438871  0.40939225  0.51121856  1
  Mo  Mo166  1  0.79469175  0.60182123  0.50323092  1
  Mo  Mo167  1  0.89754236  0.11448145  0.85270496  1
  Mo  Mo168  1  0.60180829  0.60046234  0.73414812  1
  Mo  Mo169  1  0.09666954  0.90481370  0.86337613  1
  Mo  Mo170  1  -0.00559775  0.00662215  0.76214098  1
  Mo  Mo171  1  0.20099169  0.59852981  0.24453791  1
  Mo  Mo172  1  0.19849822  0.80217053  0.01283713  1
  Mo  Mo173  1  0.81102177  0.40154120  -0.00896374  1
  Mo  Mo174  1  0.19280749  0.20279582  0.25952670  1
  Mo  Mo175  1  0.17929226  0.00272352  -0.00014349  1
  Mo  Mo176  1  0.60593255  0.61054366  0.00086758  1
  Mo  Mo177  1  0.31176100  0.50742378  0.38332321  1
  Mo  Mo178  1  0.40006889  0.18703353  0.74298203  1
  Mo  Mo179  1  0.49401886  0.88879236  0.37226977  1
  Mo  Mo180  1  -0.00440329  0.19724097  0.74889186  1
  Mo  Mo181  1  0.60671778  0.40041845  0.26506099  1
  Mo  Mo182  1  0.40299238  0.60417819  0.49488559  1
  Mo  Mo183  1  0.68414497  0.90294282  0.86821004  1
  Mo  Mo184  1  0.80339119  0.79807255  0.00463577  1
  Mo  Mo185  1  0.00325810  0.39675461  0.49512828  1
  Mo  Mo186  1  -0.00610393  0.00739323  0.50135945  1
  Mo  Mo187  1  0.00864339  0.60804959  0.74835842  1
  Mo  Mo188  1  0.68798201  0.91119364  0.62064598  1
  Mo  Mo189  1  0.69959608  0.10615691  0.37857982  1
  Mo  Mo190  1  0.80305877  0.40151815  0.73823421  1
  Mo  Mo191  1  0.20182243  0.38997625  0.25035572  1
  Mo  Mo192  1  0.09495381  0.29930869  0.12558161  1
  Mo  Mo193  1  0.70186050  0.29738051  0.86584626  1
  Mo  Mo194  1  0.09803187  0.89348627  0.37484768  1
  Mo  Mo195  1  0.00658597  0.40542551  0.75219731  1
  Mo  Mo196  1  0.50335045  0.49757420  0.12834468  1
  Mo  Mo197  1  0.29327613  0.09864849  0.87005066  1
  Mo  Mo198  1  0.50866661  0.50527184  0.37753211  1
  Mo  Mo199  1  0.69643402  0.70488784  0.12988567  1
