# generated using pymatgen
data_HfZrTaTiMo
_symmetry_space_group_name_H-M   'P 1'
_cell_length_a   15.21110570
_cell_length_b   15.21165002
_cell_length_c   16.84704648
_cell_angle_alpha   90.03746376
_cell_angle_beta   90.01436521
_cell_angle_gamma   90.03101402
_symmetry_Int_Tables_number   1
_chemical_formula_structural   HfZrTaTiMo
_chemical_formula_sum   'Hf40 Zr40 Ta40 Ti40 Mo40'
_cell_volume   3898.16944566
_cell_formula_units_Z   40
loop_
 _symmetry_equiv_pos_site_id
 _symmetry_equiv_pos_as_xyz
  1  'x, y, z'
loop_
 _atom_site_type_symbol
 _atom_site_label
 _atom_site_symmetry_multiplicity
 _atom_site_fract_x
 _atom_site_fract_y
 _atom_site_fract_z
 _atom_site_occupancy
  Hf  Hf0  1  0.49264107  0.68808305  0.61619866  1
  Hf  Hf1  1  0.81351868  0.19275513  -0.01249095  1
  Hf  Hf2  1  0.20536117  -0.01671000  0.23545329  1
  Hf  Hf3  1  0.60274261  0.20110957  -0.00945142  1
  Hf  Hf4  1  0.09558405  0.11320720  0.12807832  1
  Hf  Hf5  1  0.09728950  0.09556611  0.36561567  1
  Hf  Hf6  1  -0.01154978  0.79672620  -0.01593287  1
  Hf  Hf7  1  0.40356459  0.59914910  0.75331667  1
  Hf  Hf8  1  0.00980534  0.78347182  0.24658852  1
  Hf  Hf9  1  0.71095340  0.08200086  0.86411011  1
  Hf  Hf10  1  0.41441696  -0.00134958  0.75338245  1
  Hf  Hf11  1  0.11830927  0.09787370  0.63687508  1
  Hf  Hf12  1  0.89366436  0.50595943  0.87531056  1
  Hf  Hf13  1  0.62164711  0.18980828  0.25134244  1
  Hf  Hf14  1  0.59565619  0.80024775  0.46890531  1
  Hf  Hf15  1  0.50425345  0.08778859  0.61820328  1
  Hf  Hf16  1  0.69555503  0.69726150  0.13860940  1
  Hf  Hf17  1  -0.01244795  0.39023241  0.51942955  1
  Hf  Hf18  1  0.01724278  0.41007863  -0.00320142  1
  Hf  Hf19  1  0.59971537  0.59760122  0.47861214  1
  Hf  Hf20  1  0.29100171  0.70437144  0.62274726  1
  Hf  Hf21  1  0.40642222  -0.00976959  0.48806295  1
  Hf  Hf22  1  0.71249686  0.30634983  0.86371741  1
  Hf  Hf23  1  0.58452228  0.78265893  0.01463163  1
  Hf  Hf24  1  0.70285412  0.87583685  0.89235460  1
  Hf  Hf25  1  0.89741707  0.90527496  0.63767589  1
  Hf  Hf26  1  0.30592042  0.28548706  0.87726661  1
  Hf  Hf27  1  0.91020705  0.11147829  0.65092300  1
  Hf  Hf28  1  0.49344253  0.48716683  0.36504880  1
  Hf  Hf29  1  0.49799366  0.51218488  0.87633443  1
  Hf  Hf30  1  0.30534637  0.50417147  0.61524747  1
  Hf  Hf31  1  0.39556521  0.78281207  0.47738468  1
  Hf  Hf32  1  0.39909183  0.40964295  0.00284571  1
  Hf  Hf33  1  0.70626019  0.08386964  0.63938554  1
  Hf  Hf34  1  0.10945832  0.50815032  0.63188273  1
  Hf  Hf35  1  0.69907457  0.29226833  0.63988445  1
  Hf  Hf36  1  0.51680375  0.88481147  0.62092728  1
  Hf  Hf37  1  0.31177340  0.90836702  0.88574849  1
  Hf  Hf38  1  0.90177611  0.11134122  0.37409807  1
  Hf  Hf39  1  0.09516055  0.89692694  0.37205886  1
  Zr  Zr40  1  0.51383674  0.28524919  0.37511277  1
  Zr  Zr41  1  0.30603790  0.30592953  0.37000793  1
  Zr  Zr42  1  0.50090813  0.28881428  0.62732192  1
  Zr  Zr43  1  -0.01041063  0.61143922  0.75081439  1
  Zr  Zr44  1  0.19427552  0.58720967  -0.01787768  1
  Zr  Zr45  1  0.47803358  0.89884750  0.13945821  1
  Zr  Zr46  1  0.58589577  0.18114349  0.76318180  1
  Zr  Zr47  1  0.30347110  0.90716217  0.62668728  1
  Zr  Zr48  1  0.29806922  0.10169206  0.36455762  1
  Zr  Zr49  1  0.89681813  0.90594568  0.37775093  1
  Zr  Zr50  1  0.08656221  0.50883480  0.38695752  1
  Zr  Zr51  1  0.79230382  0.80407025  0.50085477  1
  Zr  Zr52  1  0.88896636  0.90722087  0.86189296  1
  Zr  Zr53  1  0.49920281  0.50672698  0.14248500  1
  Zr  Zr54  1  -0.01209786  0.60054360  0.51796360  1
  Zr  Zr55  1  0.09342256  0.29555182  0.37871026  1
  Zr  Zr56  1  0.89349418  0.09846493  0.12211903  1
  Zr  Zr57  1  0.18005212  0.62182590  0.25896449  1
  Zr  Zr58  1  0.50047575  0.30399198  0.87331420  1
  Zr  Zr59  1  0.71342920  0.29301045  0.11631463  1
  Zr  Zr60  1  0.20295131  0.60932193  0.76794054  1
  Zr  Zr61  1  0.51290092  0.49467604  0.61891219  1
  Zr  Zr62  1  0.81744244  0.40124985  0.23768538  1
  Zr  Zr63  1  0.19328261  0.80625475  0.77100015  1
  Zr  Zr64  1  0.20645353  0.41167483  0.25325301  1
  Zr  Zr65  1  0.09490134  0.88517861  0.11977776  1
  Zr  Zr66  1  0.19331086  0.00422849  -0.00319345  1
  Zr  Zr67  1  0.51207543  0.09741226  0.12866657  1
  Zr  Zr68  1  0.73108567  0.30238674  0.38255520  1
  Zr  Zr69  1  0.59588049  -0.00434326  -0.00389167  1
  Zr  Zr70  1  0.10463497  0.29308322  0.63893124  1
  Zr  Zr71  1  0.40182719  0.39221236  0.50300279  1
  Zr  Zr72  1  0.29521436  0.71897049  0.11870228  1
  Zr  Zr73  1  0.31202510  0.09574853  0.12038325  1
  Zr  Zr74  1  -0.00811771  0.00565653  -0.00953040  1
  Zr  Zr75  1  0.50617775  0.30607496  0.12868570  1
  Zr  Zr76  1  0.80867569  0.80638330  0.24740900  1
  Zr  Zr77  1  0.00458938  0.40329304  0.23864220  1
  Zr  Zr78  1  0.28966147  0.50990905  0.12380124  1
  Zr  Zr79  1  0.79574577  0.41235570  0.52567365  1
  Ta  Ta80  1  0.40369059  0.20267592  0.24698927  1
  Ta  Ta81  1  0.91323122  0.30552045  0.86159715  1
  Ta  Ta82  1  0.61354036  -0.00770110  0.48712131  1
  Ta  Ta83  1  0.70415089  0.50036793  0.12302599  1
  Ta  Ta84  1  0.87877455  0.70023995  0.63334482  1
  Ta  Ta85  1  -0.00090450  0.19272885  0.50742075  1
  Ta  Ta86  1  -0.00269911  0.80086602  0.50769574  1
  Ta  Ta87  1  0.78287626  0.00906391  0.24670707  1
  Ta  Ta88  1  0.00349182  0.00229460  0.50981784  1
  Ta  Ta89  1  0.19145178  0.79557445  -0.02102720  1
  Ta  Ta90  1  0.81386455  0.20244618  0.24622989  1
  Ta  Ta91  1  0.77453063  0.80251249  0.74164454  1
  Ta  Ta92  1  0.90669459  0.10718835  0.85623531  1
  Ta  Ta93  1  0.71190364  0.69691807  0.36157666  1
  Ta  Ta94  1  0.40535265  0.79550153  0.75586554  1
  Ta  Ta95  1  0.69804539  0.50762330  0.86823290  1
  Ta  Ta96  1  0.59238149  0.59446021  0.00720157  1
  Ta  Ta97  1  0.01705171  0.20779514  -0.01977729  1
  Ta  Ta98  1  0.11574921  0.31108339  0.85865157  1
  Ta  Ta99  1  0.39717179  0.18782595  0.50174530  1
  Ta  Ta100  1  0.61911914  0.40318326  0.25608218  1
  Ta  Ta101  1  0.28967150  0.89871715  0.37410097  1
  Ta  Ta102  1  0.19950736  0.00344245  0.50127204  1
  Ta  Ta103  1  0.61278333  0.40925703  -0.00331181  1
  Ta  Ta104  1  0.39234463  0.39365505  0.74486565  1
  Ta  Ta105  1  -0.00225649  0.40427588  0.73947320  1
  Ta  Ta106  1  0.38462066  0.60523696  0.26854308  1
  Ta  Ta107  1  0.89746121  0.69999580  0.11410348  1
  Ta  Ta108  1  0.80496089  0.01115610  0.50647634  1
  Ta  Ta109  1  0.10144522  0.90016548  0.62892922  1
  Ta  Ta110  1  0.88530652  0.49118272  0.37986640  1
  Ta  Ta111  1  0.70212327  0.90938743  0.11926866  1
  Ta  Ta112  1  0.59904055  0.81006753  0.26230451  1
  Ta  Ta113  1  0.30524401  0.30212134  0.12438966  1
  Ta  Ta114  1  0.80440566  0.41286666  0.73907200  1
  Ta  Ta115  1  0.90720870  0.68825773  0.37782209  1
  Ta  Ta116  1  0.19581633  0.39899888  0.50258270  1
  Ta  Ta117  1  0.08997341  0.67943881  0.10477355  1
  Ta  Ta118  1  0.18977855  0.80594439  0.49947759  1
  Ta  Ta119  1  0.78634016  0.60721452  -0.00127415  1
  Ti  Ti120  1  -0.01595864  -0.00773089  0.23907104  1
  Ti  Ti121  1  0.80266628  0.59242200  0.25041481  1
  Ti  Ti122  1  0.47229352  0.09855889  0.89236853  1
  Ti  Ti123  1  0.29562185  0.29148674  0.62643932  1
  Ti  Ti124  1  0.38459141  0.18598945  0.74319363  1
  Ti  Ti125  1  0.50097399  0.88428462  0.88193869  1
  Ti  Ti126  1  0.61115031  0.18904045  0.49953772  1
  Ti  Ti127  1  0.29393208  0.48159783  0.87221163  1
  Ti  Ti128  1  0.70259688  0.52685691  0.64113289  1
  Ti  Ti129  1  0.09299873  0.71366766  0.62907977  1
  Ti  Ti130  1  0.11239429  0.31195303  0.11724518  1
  Ti  Ti131  1  0.79220540  0.60316907  0.49918597  1
  Ti  Ti132  1  0.60322315  0.59959352  0.26424130  1
  Ti  Ti133  1  0.61443449  -0.03722822  0.75561275  1
  Ti  Ti134  1  0.32598780  0.69615469  0.89293601  1
  Ti  Ti135  1  0.81374928  0.20605288  0.51375149  1
  Ti  Ti136  1  0.09699223  0.49522196  0.86004383  1
  Ti  Ti137  1  0.20550943  0.20858852  0.00089503  1
  Ti  Ti138  1  0.59692842  0.41122131  0.75086727  1
  Ti  Ti139  1  -0.00318003  0.79961144  0.76044021  1
  Ti  Ti140  1  0.67808209  0.69013816  0.86929202  1
  Ti  Ti141  1  0.19788552  0.61445137  0.49328279  1
  Ti  Ti142  1  0.80519776  0.40451688  -0.00113380  1
  Ti  Ti143  1  0.68076619  0.71001530  0.62653382  1
  Ti  Ti144  1  0.21829155  0.01058878  0.75856789  1
  Ti  Ti145  1  0.60952432  0.39432014  0.49514275  1
  Ti  Ti146  1  0.38105984  0.80306386  0.26435937  1
  Ti  Ti147  1  0.02016745  -0.00491032  0.76036126  1
  Ti  Ti148  1  0.87028750  0.70489621  0.87374093  1
  Ti  Ti149  1  -0.00225172  0.21107755  0.24670722  1
  Ti  Ti150  1  0.70763708  0.09760891  0.38119071  1
  Ti  Ti151  1  -0.01199446  0.59235729  0.24525727  1
  Ti  Ti152  1  0.48987553  0.69708259  0.14798497  1
  Ti  Ti153  1  0.90835253  0.51498178  0.10660123  1
  Ti  Ti154  1  0.20221692  0.19846205  0.50069947  1
  Ti  Ti155  1  0.11557749  0.11182159  0.86321853  1
  Ti  Ti156  1  0.19980970  0.20783394  0.24262443  1
  Ti  Ti157  1  0.50530914  0.09125732  0.36799571  1
  Ti  Ti158  1  0.91665263  0.29669455  0.10880817  1
  Ti  Ti159  1  0.29414659  0.50647064  0.38750721  1
  Mo  Mo160  1  0.08104948  0.69598201  0.88290368  1
  Mo  Mo161  1  0.60479985  -0.00199968  0.25978379  1
  Mo  Mo162  1  0.01298059  0.20133780  0.76772250  1
  Mo  Mo163  1  0.88956608  0.89350617  0.12223551  1
  Mo  Mo164  1  0.10069960  0.90489356  0.86954456  1
  Mo  Mo165  1  0.40107712  0.39894235  0.24849470  1
  Mo  Mo166  1  0.21444911  0.19923865  0.75129226  1
  Mo  Mo167  1  0.39438657  0.59862802  0.47842134  1
  Mo  Mo168  1  0.39737710  0.80124053  0.00396335  1
  Mo  Mo169  1  0.40245356  -0.00460173  -0.00104461  1
  Mo  Mo170  1  0.90825516  0.29821648  0.38286094  1
  Mo  Mo171  1  0.70264962  0.91066181  0.37083502  1
  Mo  Mo172  1  0.69743899  0.89519094  0.61842295  1
  Mo  Mo173  1  0.79143877  0.79375863  0.00893269  1
  Mo  Mo174  1  0.09382037  0.50619582  0.12011118  1
  Mo  Mo175  1  0.59887286  0.60401405  0.74893664  1
  Mo  Mo176  1  0.19727114  0.79750749  0.25037688  1
  Mo  Mo177  1  0.49354845  0.90554522  0.35818516  1
  Mo  Mo178  1  0.39970356  0.20098985  0.00960968  1
  Mo  Mo179  1  0.28415473  0.70237731  0.37882234  1
  Mo  Mo180  1  0.80052215  -0.00630515  0.74853140  1
  Mo  Mo181  1  0.80238478  0.20647204  0.75896070  1
  Mo  Mo182  1  0.30204641  0.10343612  0.88377723  1
  Mo  Mo183  1  0.30646875  0.10242113  0.61705073  1
  Mo  Mo184  1  0.21140538  0.40399915  0.74596754  1
  Mo  Mo185  1  0.58693151  0.79160110  0.75323521  1
  Mo  Mo186  1  0.89806981  0.29652627  0.64563263  1
  Mo  Mo187  1  0.89240280  0.50982180  0.63385728  1
  Mo  Mo188  1  0.78829816  0.61143069  0.75349198  1
  Mo  Mo189  1  0.39944196  -0.00006345  0.26137985  1
  Mo  Mo190  1  0.50152970  0.70335873  0.87894482  1
  Mo  Mo191  1  0.70541352  0.50275721  0.37244349  1
  Mo  Mo192  1  0.29672855  0.89690371  0.11212840  1
  Mo  Mo193  1  0.49724263  0.69691727  0.35218347  1
  Mo  Mo194  1  0.70356532  0.09588050  0.12000636  1
  Mo  Mo195  1  0.41261825  0.61490808  0.00726061  1
  Mo  Mo196  1  -0.01383932  0.60200303  -0.01513006  1
  Mo  Mo197  1  0.80151612  -0.00320342  0.00345642  1
  Mo  Mo198  1  0.19979863  0.39006160  -0.00262415  1
  Mo  Mo199  1  0.08653694  0.70699355  0.38839158  1
