# generated using pymatgen
data_HfZrTaTiMo
_symmetry_space_group_name_H-M   'P 1'
_cell_length_a   15.18467592
_cell_length_b   15.18336878
_cell_length_c   16.80833688
_cell_angle_alpha   89.98623305
_cell_angle_beta   90.01290937
_cell_angle_gamma   89.91569327
_symmetry_Int_Tables_number   1
_chemical_formula_structural   HfZrTaTiMo
_chemical_formula_sum   'Hf40 Zr40 Ta40 Ti40 Mo40'
_cell_volume   3875.23387586
_cell_formula_units_Z   40
loop_
 _symmetry_equiv_pos_site_id
 _symmetry_equiv_pos_as_xyz
  1  'x, y, z'
loop_
 _atom_site_type_symbol
 _atom_site_label
 _atom_site_symmetry_multiplicity
 _atom_site_fract_x
 _atom_site_fract_y
 _atom_site_fract_z
 _atom_site_occupancy
  Hf  Hf0  1  0.90061077  0.30779300  0.37415034  1
  Hf  Hf1  1  0.79992461  0.38801895  0.75022383  1
  Hf  Hf2  1  0.38986804  0.60596853  0.49602869  1
  Hf  Hf3  1  0.80220185  0.59708992  -0.00167491  1
  Hf  Hf4  1  0.48823572  0.30794662  0.12956550  1
  Hf  Hf5  1  0.40431619  0.60019499  0.00802433  1
  Hf  Hf6  1  0.70886540  0.29860158  0.12171049  1
  Hf  Hf7  1  0.81248673  0.41121583  0.24099936  1
  Hf  Hf8  1  0.89570463  0.69124056  0.37840244  1
  Hf  Hf9  1  -0.00912309  0.58829229  0.25518199  1
  Hf  Hf10  1  0.38788552  0.40653981  0.00346892  1
  Hf  Hf11  1  0.31284523  0.90541366  0.35958235  1
  Hf  Hf12  1  0.08986203  0.49806414  0.62959172  1
  Hf  Hf13  1  0.51388438  0.89735702  0.36171987  1
  Hf  Hf14  1  0.40089566  0.18986296  0.24577328  1
  Hf  Hf15  1  0.21907763  0.79583685  0.50583095  1
  Hf  Hf16  1  0.79115734  0.00783733  0.24380016  1
  Hf  Hf17  1  0.50458430  0.30020787  0.88037787  1
  Hf  Hf18  1  0.19919784  0.40810426  0.49474849  1
  Hf  Hf19  1  0.91060597  0.10527805  0.88132135  1
  Hf  Hf20  1  0.00483320  0.80245888  0.74651486  1
  Hf  Hf21  1  0.70612291  0.68426554  0.63317629  1
  Hf  Hf22  1  0.39504465  -0.00752620  0.50722385  1
  Hf  Hf23  1  0.20857996  0.58767461  -0.00347219  1
  Hf  Hf24  1  0.69019007  0.69947903  0.13080461  1
  Hf  Hf25  1  0.62029256  0.19954483  0.75450647  1
  Hf  Hf26  1  -0.01755724  0.59229872  0.51102208  1
  Hf  Hf27  1  0.30617605  0.30300726  0.36266777  1
  Hf  Hf28  1  -0.00377855  0.41759469  -0.00059140  1
  Hf  Hf29  1  0.89006909  0.11052065  0.37961004  1
  Hf  Hf30  1  0.50372014  0.51087836  0.62406506  1
  Hf  Hf31  1  -0.00905745  0.20474342  0.74758976  1
  Hf  Hf32  1  0.88407579  0.11162091  0.61617858  1
  Hf  Hf33  1  0.51279673  0.29324011  0.37085430  1
  Hf  Hf34  1  0.71060161  0.48804569  0.61455883  1
  Hf  Hf35  1  0.60320336  0.40193543  0.75240508  1
  Hf  Hf36  1  0.90616137  0.69676578  0.11971902  1
  Hf  Hf37  1  0.30128138  0.90451753  0.88220800  1
  Hf  Hf38  1  0.59934485  -0.01032128  -0.00652315  1
  Hf  Hf39  1  0.61062563  0.79441669  0.76365466  1
  Zr  Zr40  1  0.70111407  0.90420171  0.63569467  1
  Zr  Zr41  1  0.89817663  0.90391095  0.39041537  1
  Zr  Zr42  1  0.52085896  0.30137086  0.61775393  1
  Zr  Zr43  1  0.79935637  0.00865593  0.75293290  1
  Zr  Zr44  1  0.20285328  0.79783148  0.74220326  1
  Zr  Zr45  1  0.00166148  0.21095823  0.00615032  1
  Zr  Zr46  1  0.81057224  0.80497922  0.24704928  1
  Zr  Zr47  1  0.10738855  0.69801757  0.11935578  1
  Zr  Zr48  1  0.29903297  0.70447359  0.35688078  1
  Zr  Zr49  1  0.19169662  0.00581959  0.26032042  1
  Zr  Zr50  1  0.70652800  0.11257167  0.88835670  1
  Zr  Zr51  1  0.50190225  0.89048171  0.13521664  1
  Zr  Zr52  1  0.80660409  0.00103798  0.00953147  1
  Zr  Zr53  1  0.39918722  0.19673411  0.50564847  1
  Zr  Zr54  1  -0.01133251  -0.00212437  0.24687361  1
  Zr  Zr55  1  0.09507747  0.90159204  0.88632580  1
  Zr  Zr56  1  0.39651504  0.79532210  0.74164613  1
  Zr  Zr57  1  0.10114504  0.30489503  0.62623548  1
  Zr  Zr58  1  0.67791679  0.09752489  0.36559403  1
  Zr  Zr59  1  0.21414979  0.19586413  0.73788379  1
  Zr  Zr60  1  0.39875064  0.79292508  0.00543127  1
  Zr  Zr61  1  0.02051375  0.79564646  0.26120193  1
  Zr  Zr62  1  0.52176058  0.09022347  0.62282876  1
  Zr  Zr63  1  0.38851180  0.00571517  0.73822873  1
  Zr  Zr64  1  0.58654402  0.19795939  0.00889573  1
  Zr  Zr65  1  0.39302318  0.39490363  0.74213610  1
  Zr  Zr66  1  0.40313832  0.40340848  0.50270584  1
  Zr  Zr67  1  0.30249537  0.28054579  0.87459368  1
  Zr  Zr68  1  0.77053715  0.00039670  0.49877166  1
  Zr  Zr69  1  0.80008127  0.80300648  -0.01114869  1
  Zr  Zr70  1  0.10011489  0.89649839  0.11536468  1
  Zr  Zr71  1  0.60796616  0.80418122  0.49966629  1
  Zr  Zr72  1  0.20647085  0.19950562  0.49747251  1
  Zr  Zr73  1  0.60115000  0.40848725  0.25034211  1
  Zr  Zr74  1  0.10480299  0.49493776  0.12446945  1
  Zr  Zr75  1  0.09371936  0.10506468  0.12043826  1
  Zr  Zr76  1  0.29191065  0.10522600  0.12735693  1
  Zr  Zr77  1  0.08972105  0.09261491  0.61146561  1
  Zr  Zr78  1  0.60376661  0.78839889  -0.01575910  1
  Zr  Zr79  1  0.19382008  -0.00293842  0.74500956  1
  Ta  Ta80  1  0.90829768  0.90322913  0.61500210  1
  Ta  Ta81  1  0.41022913  0.79650991  0.50696860  1
  Ta  Ta82  1  0.47963831  0.10156913  0.87533112  1
  Ta  Ta83  1  0.10522052  0.89773538  0.39337376  1
  Ta  Ta84  1  0.89226070  0.50372905  0.86912258  1
  Ta  Ta85  1  0.69860622  0.70381528  0.37233527  1
  Ta  Ta86  1  0.80659515  0.78586411  0.50767102  1
  Ta  Ta87  1  0.09538048  0.30318059  0.87082294  1
  Ta  Ta88  1  0.71012676  0.50146065  0.38385079  1
  Ta  Ta89  1  0.10761952  0.69352957  0.62017288  1
  Ta  Ta90  1  0.29740217  0.89105439  0.14017915  1
  Ta  Ta91  1  0.50466662  0.89340611  0.62915728  1
  Ta  Ta92  1  0.18709700  0.59264503  0.26224495  1
  Ta  Ta93  1  -0.00433356  0.40697856  0.75766623  1
  Ta  Ta94  1  0.00714000  0.79034686  0.50268745  1
  Ta  Ta95  1  0.19917415  0.40762444  0.76106006  1
  Ta  Ta96  1  0.59792025  0.59874090  0.48896874  1
  Ta  Ta97  1  0.28674978  0.51072626  0.62592830  1
  Ta  Ta98  1  0.59684827  -0.00118902  0.76858272  1
  Ta  Ta99  1  0.49490210  0.90026277  0.87329187  1
  Ta  Ta100  1  0.70117459  0.89746070  0.12918820  1
  Ta  Ta101  1  0.19567162  0.60287053  0.75617701  1
  Ta  Ta102  1  0.09895216  0.89917012  0.60795055  1
  Ta  Ta103  1  0.09447262  0.51216804  0.87305767  1
  Ta  Ta104  1  0.50140969  0.68731070  0.86543456  1
  Ta  Ta105  1  0.40295724  0.00402434  0.01007134  1
  Ta  Ta106  1  0.11441098  0.10790656  0.88309323  1
  Ta  Ta107  1  0.50020305  0.69846732  0.36293784  1
  Ta  Ta108  1  -0.00982232  0.60738977  0.74319282  1
  Ta  Ta109  1  0.69261212  0.50525903  0.87486377  1
  Ta  Ta110  1  -0.00004543  0.00006946  0.74826438  1
  Ta  Ta111  1  0.49259893  0.50309037  0.87179236  1
  Ta  Ta112  1  0.19938878  0.38910222  -0.00724770  1
  Ta  Ta113  1  0.09675963  0.30786115  0.37430538  1
  Ta  Ta114  1  0.71034932  0.29854805  0.36447878  1
  Ta  Ta115  1  -0.00389822  0.20445938  0.25030137  1
  Ta  Ta116  1  0.89213684  0.30242903  0.88199629  1
  Ta  Ta117  1  0.29929446  0.68877763  0.87395301  1
  Ta  Ta118  1  0.29970840  0.69210827  0.14531317  1
  Ta  Ta119  1  -0.00400438  0.21022239  0.49704380  1
  Ti  Ti120  1  0.60457520  0.19691223  0.23819990  1
  Ti  Ti121  1  0.69825250  0.50425183  0.12062389  1
  Ti  Ti122  1  0.29610267  0.49667268  0.36297228  1
  Ti  Ti123  1  0.20530112  0.00362214  0.49549468  1
  Ti  Ti124  1  0.69471333  0.10168362  0.12006809  1
  Ti  Ti125  1  0.40731857  0.19880313  0.73414305  1
  Ti  Ti126  1  0.20492160  0.79143950  -0.00272097  1
  Ti  Ti127  1  0.20651174  0.00593038  0.00193928  1
  Ti  Ti128  1  0.80112365  0.40409108  0.00622848  1
  Ti  Ti129  1  0.38449713  0.19979282  0.01160372  1
  Ti  Ti130  1  0.49971878  0.69649426  0.14567817  1
  Ti  Ti131  1  0.61770834  0.38998448  0.49152091  1
  Ti  Ti132  1  0.78857441  0.21674184  0.49913677  1
  Ti  Ti133  1  0.19175619  0.20642131  0.26022549  1
  Ti  Ti134  1  0.59600126  0.41240433  0.00133568  1
  Ti  Ti135  1  0.47991653  0.08893313  0.37376736  1
  Ti  Ti136  1  0.79511159  0.59803789  0.24621566  1
  Ti  Ti137  1  0.89705561  0.90280780  0.87097196  1
  Ti  Ti138  1  0.58892509  0.00701202  0.23693568  1
  Ti  Ti139  1  0.01401108  0.40047191  0.24913867  1
  Ti  Ti140  1  0.88801998  0.11596588  0.12608897  1
  Ti  Ti141  1  0.49885688  0.49664497  0.37458750  1
  Ti  Ti142  1  0.50233132  0.50588998  0.12955828  1
  Ti  Ti143  1  0.70668755  0.30705108  0.89329136  1
  Ti  Ti144  1  -0.00378291  -0.00383884  0.00644269  1
  Ti  Ti145  1  0.18836503  0.60237526  0.48525020  1
  Ti  Ti146  1  0.90016106  0.49281445  0.38480444  1
  Ti  Ti147  1  -0.00230457  0.79593933  -0.00639717  1
  Ti  Ti148  1  0.59739816  0.59917168  -0.00314017  1
  Ti  Ti149  1  0.09180475  0.10195942  0.38306343  1
  Ti  Ti150  1  0.60855548  0.18808751  0.49714208  1
  Ti  Ti151  1  0.40151070  0.58400211  0.24850668  1
  Ti  Ti152  1  0.91056062  0.69333907  0.87503349  1
  Ti  Ti153  1  0.39193889  0.59588786  0.74877734  1
  Ti  Ti154  1  0.11450344  0.29950252  0.13085548  1
  Ti  Ti155  1  0.89798913  0.32408802  0.61140485  1
  Ti  Ti156  1  0.50348284  0.69656433  0.63046551  1
  Ti  Ti157  1  0.90858518  0.30731182  0.12809488  1
  Ti  Ti158  1  0.60341361  0.59858456  0.26082810  1
  Ti  Ti159  1  0.81213261  0.78956699  0.75512020  1
  Mo  Mo160  1  0.30563448  0.68680703  0.62239253  1
  Mo  Mo161  1  0.40119848  0.00109091  0.24097437  1
  Mo  Mo162  1  0.89404345  0.49942636  0.12425222  1
  Mo  Mo163  1  0.28668244  0.31126559  0.13619069  1
  Mo  Mo164  1  0.58830840  -0.00243657  0.49588589  1
  Mo  Mo165  1  0.09213077  0.49855443  0.37708883  1
  Mo  Mo166  1  0.29882207  0.49947332  0.86989162  1
  Mo  Mo167  1  0.79973459  0.59714472  0.75879317  1
  Mo  Mo168  1  -0.00138245  0.00109023  0.49529417  1
  Mo  Mo169  1  0.50057647  0.09824837  0.12183518  1
  Mo  Mo170  1  0.30040305  0.10120199  0.62123225  1
  Mo  Mo171  1  0.71141187  0.68481732  0.86427163  1
  Mo  Mo172  1  0.10014363  0.69850997  0.88143110  1
  Mo  Mo173  1  0.19955056  0.20811861  -0.00043116  1
  Mo  Mo174  1  0.00072373  0.39834441  0.49856250  1
  Mo  Mo175  1  0.71134091  0.28567389  0.61834379  1
  Mo  Mo176  1  0.59415998  0.59435529  0.75209685  1
  Mo  Mo177  1  0.30219111  0.31161794  0.62962765  1
  Mo  Mo178  1  0.80752200  0.20993387  0.75147489  1
  Mo  Mo179  1  0.19790865  0.40042698  0.25681906  1
  Mo  Mo180  1  0.29973626  0.89828174  0.61512140  1
  Mo  Mo181  1  0.30507855  0.49334639  0.14056347  1
  Mo  Mo182  1  0.29272162  0.09903052  0.36748782  1
  Mo  Mo183  1  0.70405955  0.89830346  0.86482938  1
  Mo  Mo184  1  0.90086810  0.70620117  0.62936914  1
  Mo  Mo185  1  0.80330823  0.21296036  0.01094197  1
  Mo  Mo186  1  0.80636193  0.40346579  0.49727400  1
  Mo  Mo187  1  0.19844485  0.79739156  0.25452564  1
  Mo  Mo188  1  0.90181134  0.90019683  0.11905333  1
  Mo  Mo189  1  0.00079628  0.60644810  -0.01150614  1
  Mo  Mo190  1  0.30223205  0.09388227  0.88816261  1
  Mo  Mo191  1  0.69891246  0.10861205  0.62571576  1
  Mo  Mo192  1  0.78945349  0.60281958  0.49693608  1
  Mo  Mo193  1  0.70023685  0.89313460  0.36557456  1
  Mo  Mo194  1  0.40072826  0.40630872  0.24897600  1
  Mo  Mo195  1  0.80242848  0.20393410  0.24198209  1
  Mo  Mo196  1  0.40476091  0.79179648  0.24335395  1
  Mo  Mo197  1  0.61067844  0.79562562  0.25430164  1
  Mo  Mo198  1  0.09830191  0.69722569  0.38574745  1
  Mo  Mo199  1  0.89478283  0.50718957  0.63518043  1
