# generated using pymatgen
data_HfZrTaTiMo
_symmetry_space_group_name_H-M   'P 1'
_cell_length_a   15.17544107
_cell_length_b   15.19112153
_cell_length_c   16.84419858
_cell_angle_alpha   89.95959634
_cell_angle_beta   90.00642760
_cell_angle_gamma   89.90056037
_symmetry_Int_Tables_number   1
_chemical_formula_structural   HfZrTaTiMo
_chemical_formula_sum   'Hf40 Zr40 Ta40 Ti40 Mo40'
_cell_volume   3883.11943579
_cell_formula_units_Z   40
loop_
 _symmetry_equiv_pos_site_id
 _symmetry_equiv_pos_as_xyz
  1  'x, y, z'
loop_
 _atom_site_type_symbol
 _atom_site_label
 _atom_site_symmetry_multiplicity
 _atom_site_fract_x
 _atom_site_fract_y
 _atom_site_fract_z
 _atom_site_occupancy
  Hf  Hf0  1  0.68647707  0.31659066  0.63160114  1
  Hf  Hf1  1  0.51320648  0.88434079  0.38927253  1
  Hf  Hf2  1  0.38650921  0.80844564  -0.00716510  1
  Hf  Hf3  1  0.20143297  0.57467892  0.23695837  1
  Hf  Hf4  1  0.89799160  0.70021319  0.62094491  1
  Hf  Hf5  1  0.00798196  -0.00139902  0.25448496  1
  Hf  Hf6  1  0.21918112  0.80063585  0.23715713  1
  Hf  Hf7  1  0.81333061  0.79373480  0.75960997  1
  Hf  Hf8  1  0.70979496  0.91815985  0.12825598  1
  Hf  Hf9  1  0.28492779  0.28372607  0.87793505  1
  Hf  Hf10  1  0.70915495  0.92157721  0.86813890  1
  Hf  Hf11  1  0.17775334  0.37582683  -0.00913554  1
  Hf  Hf12  1  0.69058606  0.51353524  0.36592450  1
  Hf  Hf13  1  0.79940129  0.20697400  0.51884413  1
  Hf  Hf14  1  0.52022399  0.10292290  0.86860860  1
  Hf  Hf15  1  0.90940035  0.90509720  0.12090501  1
  Hf  Hf16  1  0.91453107  0.31192973  0.86775852  1
  Hf  Hf17  1  0.50751675  0.68481057  0.38759405  1
  Hf  Hf18  1  0.71462445  0.89937522  0.39699662  1
  Hf  Hf19  1  -0.00875858  0.19727613  0.49952323  1
  Hf  Hf20  1  0.40380880  0.00076411  0.73635400  1
  Hf  Hf21  1  0.10176290  0.31458293  0.60975845  1
  Hf  Hf22  1  -0.00629301  0.20872081  0.73210804  1
  Hf  Hf23  1  0.60471892  0.81089685  -0.00901547  1
  Hf  Hf24  1  0.90908047  0.68396171  0.36746890  1
  Hf  Hf25  1  -0.00899174  0.19629030  0.25973482  1
  Hf  Hf26  1  0.58421440  0.41479371  0.50140572  1
  Hf  Hf27  1  0.49017971  0.31278156  0.37142607  1
  Hf  Hf28  1  -0.01514011  0.59730003  0.75621282  1
  Hf  Hf29  1  0.29335301  0.27878854  0.12239675  1
  Hf  Hf30  1  0.50299443  0.10161158  0.13032747  1
  Hf  Hf31  1  0.50373447  0.89020606  0.12997276  1
  Hf  Hf32  1  0.12517956  0.89596337  0.88158092  1
  Hf  Hf33  1  0.30693459  0.30356111  0.61421366  1
  Hf  Hf34  1  0.69756021  0.31234138  0.37105947  1
  Hf  Hf35  1  0.80894085  0.59121198  0.49592487  1
  Hf  Hf36  1  0.10350388  0.69049903  0.62961794  1
  Hf  Hf37  1  0.39889137  0.00277269  0.49064320  1
  Hf  Hf38  1  0.58732942  0.41832062  0.23779795  1
  Hf  Hf39  1  0.58695438  0.41261830  0.76202485  1
  Zr  Zr40  1  0.31781735  0.68617424  0.11587527  1
  Zr  Zr41  1  0.60717860  0.79002270  0.75267993  1
  Zr  Zr42  1  0.80817516  0.01325701  0.73443862  1
  Zr  Zr43  1  0.39796865  -0.00801566  0.26657350  1
  Zr  Zr44  1  0.40475037  0.59011958  0.76849240  1
  Zr  Zr45  1  0.60654202  0.21164769  0.00659579  1
  Zr  Zr46  1  0.09434250  0.30620121  0.38062049  1
  Zr  Zr47  1  0.88164798  0.51798004  0.88775298  1
  Zr  Zr48  1  0.50136009  0.90793422  0.86938040  1
  Zr  Zr49  1  0.58561858  0.20886431  0.50458951  1
  Zr  Zr50  1  0.01065003  0.20963747  0.00350638  1
  Zr  Zr51  1  0.60505748  -0.00149706  0.26411222  1
  Zr  Zr52  1  0.70868837  0.10963734  0.38399089  1
  Zr  Zr53  1  0.10126310  0.08956660  0.61498293  1
  Zr  Zr54  1  0.01028482  0.01020833  -0.00156534  1
  Zr  Zr55  1  0.11098821  0.70168700  0.36445425  1
  Zr  Zr56  1  0.79880048  0.20005052  -0.00278037  1
  Zr  Zr57  1  0.01346711  0.00059903  0.75918527  1
  Zr  Zr58  1  0.20391661  0.79551886  0.50278639  1
  Zr  Zr59  1  -0.00672641  0.42322138  0.24810885  1
  Zr  Zr60  1  0.69370394  0.71061183  0.12085144  1
  Zr  Zr61  1  0.28760507  0.48015180  0.09971647  1
  Zr  Zr62  1  0.30094814  0.07856317  0.86974909  1
  Zr  Zr63  1  0.79771281  0.41380190  0.75089072  1
  Zr  Zr64  1  0.90154647  0.70088933  0.12133533  1
  Zr  Zr65  1  0.91929544  0.89841142  0.62131775  1
  Zr  Zr66  1  0.09924698  0.50916336  0.37670238  1
  Zr  Zr67  1  0.60143246  0.20422980  0.24589888  1
  Zr  Zr68  1  0.28375788  0.30338797  0.38799110  1
  Zr  Zr69  1  0.39685393  0.18728240  -0.00200598  1
  Zr  Zr70  1  0.48726093  0.52117711  0.10264240  1
  Zr  Zr71  1  0.37829006  0.41070326  0.24888946  1
  Zr  Zr72  1  0.39582016  0.57411926  0.50261296  1
  Zr  Zr73  1  0.71390456  0.88585511  0.60712317  1
  Zr  Zr74  1  0.50033427  0.88417429  0.61337509  1
  Zr  Zr75  1  0.19799244  0.58846360  0.76984108  1
  Zr  Zr76  1  0.39663956  0.79314745  0.75825252  1
  Zr  Zr77  1  0.22178054  -0.01214701  0.01506040  1
  Zr  Zr78  1  0.80381954  0.80676008  0.25616921  1
  Zr  Zr79  1  0.78257770  0.39790261  -0.00436362  1
  Ta  Ta80  1  0.30779509  0.68046262  0.36801680  1
  Ta  Ta81  1  0.40038465  0.20532692  0.74811456  1
  Ta  Ta82  1  0.58575137  0.62380030  0.24099088  1
  Ta  Ta83  1  0.49489226  0.30271057  0.87578286  1
  Ta  Ta84  1  0.09321523  0.69778397  0.88297417  1
  Ta  Ta85  1  0.48919738  0.48657166  0.63456031  1
  Ta  Ta86  1  0.70261132  0.68877236  0.62355460  1
  Ta  Ta87  1  0.42384309  0.77793423  0.25021427  1
  Ta  Ta88  1  0.88936375  0.50531106  0.11602612  1
  Ta  Ta89  1  -0.02112097  0.41050645  0.49815556  1
  Ta  Ta90  1  0.89357812  0.30244915  0.13350899  1
  Ta  Ta91  1  0.88617506  0.30388236  0.37261315  1
  Ta  Ta92  1  0.89213178  0.10456253  0.12848774  1
  Ta  Ta93  1  0.60206383  0.00887366  0.50965283  1
  Ta  Ta94  1  0.10350043  0.69084371  0.12038874  1
  Ta  Ta95  1  0.51171511  0.68380189  0.88975855  1
  Ta  Ta96  1  0.61489860  0.01587034  0.00358575  1
  Ta  Ta97  1  0.80399077  0.00946070  -0.00522898  1
  Ta  Ta98  1  0.38126973  0.39876547  0.76493970  1
  Ta  Ta99  1  0.29878367  0.10116974  0.61957011  1
  Ta  Ta100  1  0.89495251  0.10679593  0.86899896  1
  Ta  Ta101  1  0.69889283  0.70897411  0.38122592  1
  Ta  Ta102  1  0.11166226  0.09976663  0.38168021  1
  Ta  Ta103  1  0.08243680  0.48216356  0.87701127  1
  Ta  Ta104  1  0.00023170  0.79567131  0.49151592  1
  Ta  Ta105  1  0.20231322  0.79666592  0.74861490  1
  Ta  Ta106  1  0.69732589  0.50979433  0.11999099  1
  Ta  Ta107  1  0.10904787  0.89923829  0.36989961  1
  Ta  Ta108  1  0.19114979  0.59198129  -0.01129176  1
  Ta  Ta109  1  0.30501155  0.69158218  0.62973710  1
  Ta  Ta110  1  0.00651114  -0.00650083  0.48639772  1
  Ta  Ta111  1  0.79165613  0.40553456  0.50576820  1
  Ta  Ta112  1  0.59913539  0.20120121  0.74027132  1
  Ta  Ta113  1  0.09983912  0.30643241  0.14069029  1
  Ta  Ta114  1  0.81202144  0.01998843  0.26008776  1
  Ta  Ta115  1  0.20048260  0.19648191  0.73939305  1
  Ta  Ta116  1  0.28468851  0.49941847  0.63367082  1
  Ta  Ta117  1  0.60820870  0.00919308  0.72532760  1
  Ta  Ta118  1  0.30252577  0.88213457  0.37554574  1
  Ta  Ta119  1  0.39555686  0.19161379  0.26533369  1
  Ti  Ti120  1  -0.00892755  0.40326089  0.01348855  1
  Ti  Ti121  1  0.58964408  0.40430344  -0.00236182  1
  Ti  Ti122  1  0.90898038  0.89733022  0.37696453  1
  Ti  Ti123  1  0.20157484  0.19492431  0.25589345  1
  Ti  Ti124  1  0.71061794  0.69516962  0.88200811  1
  Ti  Ti125  1  0.69986031  0.30253147  0.13136159  1
  Ti  Ti126  1  0.48642492  0.30926517  0.12100907  1
  Ti  Ti127  1  0.80095522  0.59520438  0.24917949  1
  Ti  Ti128  1  0.00958528  0.80003843  0.75939111  1
  Ti  Ti129  1  0.20660192  -0.00013968  0.25258546  1
  Ti  Ti130  1  0.30480915  0.08769549  0.13443737  1
  Ti  Ti131  1  0.29794722  0.89619640  0.62006851  1
  Ti  Ti132  1  0.10751901  0.11854278  0.87292503  1
  Ti  Ti133  1  0.39253337  0.19528702  0.48771254  1
  Ti  Ti134  1  0.01520756  0.80227388  0.00192460  1
  Ti  Ti135  1  0.18542858  0.39181754  0.75356300  1
  Ti  Ti136  1  0.20159894  0.42986050  0.50305072  1
  Ti  Ti137  1  0.69713960  0.28880781  0.86270578  1
  Ti  Ti138  1  0.79631743  0.20119571  0.73174661  1
  Ti  Ti139  1  0.10690600  0.89182832  0.62318814  1
  Ti  Ti140  1  0.90135569  0.70780496  0.89048951  1
  Ti  Ti141  1  0.80493562  0.81078763  -0.00613732  1
  Ti  Ti142  1  0.89827081  0.49679097  0.63029617  1
  Ti  Ti143  1  0.49393890  0.11392470  0.62152746  1
  Ti  Ti144  1  0.20563229  -0.00162306  0.49300903  1
  Ti  Ti145  1  0.28854530  0.70455712  0.88572102  1
  Ti  Ti146  1  0.91249318  0.90347570  0.88165462  1
  Ti  Ti147  1  0.11264941  0.89637621  0.12616673  1
  Ti  Ti148  1  0.79519954  0.40388120  0.24446392  1
  Ti  Ti149  1  0.01041492  0.79696047  0.24540348  1
  Ti  Ti150  1  0.50378790  0.68442217  0.62605039  1
  Ti  Ti151  1  0.41605195  -0.00483712  0.00386201  1
  Ti  Ti152  1  0.60445461  0.59777252  0.51017255  1
  Ti  Ti153  1  0.81899342  0.01052380  0.50716019  1
  Ti  Ti154  1  0.20716769  -0.00786104  0.74316116  1
  Ti  Ti155  1  0.39808263  0.78369805  0.50223178  1
  Ti  Ti156  1  -0.00043653  0.59743476  0.00172026  1
  Ti  Ti157  1  0.01333755  0.59313791  0.50713018  1
  Ti  Ti158  1  0.10802404  0.10763535  0.13045211  1
  Ti  Ti159  1  0.67865248  0.51900201  0.88383541  1
  Mo  Mo160  1  0.60466083  0.80082881  0.25592369  1
  Mo  Mo161  1  0.00442047  0.40899000  0.74118100  1
  Mo  Mo162  1  0.20154899  0.18892457  0.50425919  1
  Mo  Mo163  1  0.20415252  0.60408016  0.50640862  1
  Mo  Mo164  1  0.29667197  0.49959567  0.37487894  1
  Mo  Mo165  1  0.80256600  0.21112778  0.24913695  1
  Mo  Mo166  1  0.49536045  0.50549828  0.36742051  1
  Mo  Mo167  1  0.49702766  0.10287365  0.38266977  1
  Mo  Mo168  1  0.19461291  0.79013587  0.01229193  1
  Mo  Mo169  1  0.39643099  0.39611971  0.50253618  1
  Mo  Mo170  1  0.19138782  0.38825092  0.24634031  1
  Mo  Mo171  1  -0.00682421  0.60618791  0.23569625  1
  Mo  Mo172  1  0.60241616  0.59895701  0.75038098  1
  Mo  Mo173  1  0.09443434  0.29167648  0.86124471  1
  Mo  Mo174  1  0.18819423  0.18155774  0.00973778  1
  Mo  Mo175  1  0.60297044  0.78687586  0.51158096  1
  Mo  Mo176  1  0.49313247  0.49325029  0.89188951  1
  Mo  Mo177  1  0.60591049  0.60224550  0.00049269  1
  Mo  Mo178  1  0.50127196  0.70274981  0.10594015  1
  Mo  Mo179  1  0.39282806  0.59883476  -0.02434606  1
  Mo  Mo180  1  0.79577836  0.60966886  0.00315493  1
  Mo  Mo181  1  0.70622859  0.11069067  0.86227583  1
  Mo  Mo182  1  0.39646004  0.38906287  -0.01296800  1
  Mo  Mo183  1  0.69376129  0.10066666  0.61578994  1
  Mo  Mo184  1  0.48786882  0.30407967  0.63626382  1
  Mo  Mo185  1  0.29295659  0.09475838  0.37513500  1
  Mo  Mo186  1  0.40442774  0.59616831  0.25085244  1
  Mo  Mo187  1  0.09466122  0.50031434  0.62677876  1
  Mo  Mo188  1  0.30011278  0.89264663  0.86813531  1
  Mo  Mo189  1  0.89699635  0.31096420  0.62404070  1
  Mo  Mo190  1  0.29076679  0.48825800  0.88970589  1
  Mo  Mo191  1  0.78162255  0.60763705  0.75301782  1
  Mo  Mo192  1  0.81326151  0.79197088  0.48923067  1
  Mo  Mo193  1  0.08868118  0.50124158  0.11200023  1
  Mo  Mo194  1  0.71012796  0.10441865  0.13038245  1
  Mo  Mo195  1  0.88884019  0.49222475  0.37212213  1
  Mo  Mo196  1  0.31035374  0.89890028  0.13575554  1
  Mo  Mo197  1  0.90123024  0.09921694  0.62116236  1
  Mo  Mo198  1  0.90327379  0.09591488  0.37984388  1
  Mo  Mo199  1  0.69315185  0.51028481  0.62585131  1
