# generated using pymatgen
data_HfZrTaTiMo
_symmetry_space_group_name_H-M   'P 1'
_cell_length_a   15.19588820
_cell_length_b   15.18292741
_cell_length_c   16.79517421
_cell_angle_alpha   89.99994067
_cell_angle_beta   90.03584227
_cell_angle_gamma   89.95225540
_symmetry_Int_Tables_number   1
_chemical_formula_structural   HfZrTaTiMo
_chemical_formula_sum   'Hf40 Zr40 Ta40 Ti40 Mo40'
_cell_volume   3874.94803335
_cell_formula_units_Z   40
loop_
 _symmetry_equiv_pos_site_id
 _symmetry_equiv_pos_as_xyz
  1  'x, y, z'
loop_
 _atom_site_type_symbol
 _atom_site_label
 _atom_site_symmetry_multiplicity
 _atom_site_fract_x
 _atom_site_fract_y
 _atom_site_fract_z
 _atom_site_occupancy
  Hf  Hf0  1  0.60349961  0.18908117  0.26767749  1
  Hf  Hf1  1  0.79330730  0.79260844  0.00294565  1
  Hf  Hf2  1  0.01267503  0.18795109  0.76645660  1
  Hf  Hf3  1  0.80987239  0.20332869  0.26360813  1
  Hf  Hf4  1  -0.00021044  0.80888915  0.74376675  1
  Hf  Hf5  1  0.80527040  -0.00671034  0.49722353  1
  Hf  Hf6  1  0.89747631  0.09738826  0.12466548  1
  Hf  Hf7  1  0.89347912  0.51040486  0.86633319  1
  Hf  Hf8  1  -0.00833811  -0.00205561  -0.01220346  1
  Hf  Hf9  1  0.70627184  0.30110959  0.87316589  1
  Hf  Hf10  1  0.20823113  0.81922791  0.01512785  1
  Hf  Hf11  1  0.09581058  0.89107064  0.37753190  1
  Hf  Hf12  1  0.81438930  0.18811805  0.49989928  1
  Hf  Hf13  1  0.91551341  0.32479253  0.39377135  1
  Hf  Hf14  1  0.38969539  0.00850482  0.49397772  1
  Hf  Hf15  1  0.38489864  0.80309900  0.74397454  1
  Hf  Hf16  1  0.58672334  0.39163684  0.50388047  1
  Hf  Hf17  1  0.09672415  0.71153054  0.87702688  1
  Hf  Hf18  1  0.39313100  0.39201946  -0.00555910  1
  Hf  Hf19  1  0.91660461  0.29085318  0.12142855  1
  Hf  Hf20  1  0.10171005  0.69246626  0.37350150  1
  Hf  Hf21  1  0.69137853  0.89278269  0.37799893  1
  Hf  Hf22  1  0.40753665  0.18494495  0.00298728  1
  Hf  Hf23  1  0.00492347  0.38701111  0.76352564  1
  Hf  Hf24  1  0.48544905  0.90398901  0.62319475  1
  Hf  Hf25  1  0.68596851  0.89819320  0.86662591  1
  Hf  Hf26  1  0.21780775  0.60819077  0.50455532  1
  Hf  Hf27  1  0.68285573  0.10501580  0.87881911  1
  Hf  Hf28  1  -0.00035218  0.58339871  0.25679035  1
  Hf  Hf29  1  0.10769979  0.49853203  0.11841288  1
  Hf  Hf30  1  0.19194325  0.80568655  0.50939085  1
  Hf  Hf31  1  0.29748727  0.11570348  0.87219135  1
  Hf  Hf32  1  0.60356895  0.39351216  0.00475551  1
  Hf  Hf33  1  0.31418400  0.52011087  0.63422705  1
  Hf  Hf34  1  0.39790356  0.81273954  0.22996298  1
  Hf  Hf35  1  0.68887281  0.11061249  0.11863219  1
  Hf  Hf36  1  0.59457636  0.59376090  0.74452775  1
  Hf  Hf37  1  0.91022095  0.48651809  0.62944715  1
  Hf  Hf38  1  0.09235887  0.11266386  0.12702878  1
  Hf  Hf39  1  0.59591718  0.00261662  0.49716230  1
  Zr  Zr40  1  0.30110955  0.32113056  0.38315810  1
  Zr  Zr41  1  0.69676335  0.89791773  0.62986694  1
  Zr  Zr42  1  0.29328162  0.10724958  0.13055993  1
  Zr  Zr43  1  0.58979765  0.38700472  0.74156221  1
  Zr  Zr44  1  0.21578471  0.39831900  0.74944393  1
  Zr  Zr45  1  0.80784726  0.78520483  0.74453559  1
  Zr  Zr46  1  -0.01172583  0.00349952  0.26945975  1
  Zr  Zr47  1  0.78457445  -0.00224312  0.25955584  1
  Zr  Zr48  1  0.29888939  0.72206946  0.88224078  1
  Zr  Zr49  1  0.80959688  0.59471072  0.49822521  1
  Zr  Zr50  1  0.19609697  0.40686164  0.52029953  1
  Zr  Zr51  1  0.00796554  0.39271498  -0.02414662  1
  Zr  Zr52  1  0.60252256  0.59991688  0.24962259  1
  Zr  Zr53  1  0.69847194  0.49732588  0.87157332  1
  Zr  Zr54  1  0.80573296  -0.00206488  0.75056087  1
  Zr  Zr55  1  -0.01159978  0.78793746  0.24641783  1
  Zr  Zr56  1  0.70673417  0.68976975  0.86923204  1
  Zr  Zr57  1  0.19401960  0.01127977  0.74146516  1
  Zr  Zr58  1  0.01192646  0.59143477  0.49890711  1
  Zr  Zr59  1  0.58263450  0.79072993  0.74947682  1
  Zr  Zr60  1  0.59713816  0.18813323  0.74004276  1
  Zr  Zr61  1  0.40443281  0.60899778  -0.00755183  1
  Zr  Zr62  1  0.50050994  0.49676781  0.11869867  1
  Zr  Zr63  1  0.60307433  0.39511095  0.24923560  1
  Zr  Zr64  1  0.58264990  0.59033942  0.49753225  1
  Zr  Zr65  1  0.58632941  0.79935604  0.00659825  1
  Zr  Zr66  1  0.90822392  0.49232776  0.11492502  1
  Zr  Zr67  1  0.57481746  0.00628770  0.00586649  1
  Zr  Zr68  1  0.49428062  0.70189776  0.37099564  1
  Zr  Zr69  1  0.70749263  0.70728379  0.37985326  1
  Zr  Zr70  1  0.70953375  0.30082200  0.38646001  1
  Zr  Zr71  1  0.38982251  0.60217279  0.24474529  1
  Zr  Zr72  1  0.19763583  0.22012750  0.26148900  1
  Zr  Zr73  1  0.08987365  0.90858323  0.12752833  1
  Zr  Zr74  1  0.78988478  -0.00437639  -0.00556788  1
  Zr  Zr75  1  0.70891297  0.49429443  0.37797882  1
  Zr  Zr76  1  0.70877720  0.29405808  0.61314647  1
  Zr  Zr77  1  0.49054066  0.89839429  0.37415631  1
  Zr  Zr78  1  0.20769938  0.20003240  0.50935162  1
  Zr  Zr79  1  0.81738073  0.19653370  0.74619854  1
  Ta  Ta80  1  0.58441368  -0.00147420  0.24342944  1
  Ta  Ta81  1  0.29194496  0.50012113  0.12376831  1
  Ta  Ta82  1  0.69585512  0.69049259  0.62182260  1
  Ta  Ta83  1  -0.00265295  -0.00005888  0.76341124  1
  Ta  Ta84  1  0.70359314  0.49747481  0.62383318  1
  Ta  Ta85  1  0.40184064  0.60113660  0.76895576  1
  Ta  Ta86  1  0.19766379  0.00244415  0.25947635  1
  Ta  Ta87  1  0.80439672  0.39524470  0.74230865  1
  Ta  Ta88  1  0.08119004  0.91685855  0.61585082  1
  Ta  Ta89  1  0.71176456  0.50635410  0.12513877  1
  Ta  Ta90  1  0.01900867  0.38454614  0.24955455  1
  Ta  Ta91  1  0.89746764  0.69284755  0.12057461  1
  Ta  Ta92  1  -0.00300043  0.60896842  0.75278551  1
  Ta  Ta93  1  0.61228849  0.80555200  0.22895280  1
  Ta  Ta94  1  0.19219297  0.00958062  0.49833555  1
  Ta  Ta95  1  0.71400219  0.30398311  0.12516085  1
  Ta  Ta96  1  0.19966536  0.79652525  0.24024718  1
  Ta  Ta97  1  0.11082581  0.51022561  0.86488748  1
  Ta  Ta98  1  0.11346515  0.30288442  0.11314531  1
  Ta  Ta99  1  0.47824100  0.68373816  0.61997973  1
  Ta  Ta100  1  0.39646151  0.39708025  0.24436591  1
  Ta  Ta101  1  0.80907853  0.20353867  -0.00866854  1
  Ta  Ta102  1  0.10828032  0.47786674  0.37337781  1
  Ta  Ta103  1  0.81899328  0.41010080  0.24834974  1
  Ta  Ta104  1  0.59189345  0.79390325  0.51277756  1
  Ta  Ta105  1  0.00947760  0.19348353  -0.02188915  1
  Ta  Ta106  1  0.50717572  0.28257979  0.12647063  1
  Ta  Ta107  1  0.38267050  -0.01981243  0.01178542  1
  Ta  Ta108  1  0.59593240  0.18820267  0.49038234  1
  Ta  Ta109  1  0.38650302  0.78963157  0.50609754  1
  Ta  Ta110  1  0.50203139  0.27934195  0.87898024  1
  Ta  Ta111  1  0.10617209  0.90410515  0.87879654  1
  Ta  Ta112  1  0.40638954  0.20192636  0.25472437  1
  Ta  Ta113  1  0.00206244  0.60511775  -0.00963507  1
  Ta  Ta114  1  0.29214325  0.89878573  0.37205971  1
  Ta  Ta115  1  -0.00318912  0.00383078  0.48495730  1
  Ta  Ta116  1  0.80855864  0.61172430  0.25218820  1
  Ta  Ta117  1  0.49543285  0.49078291  0.87610730  1
  Ta  Ta118  1  0.88367236  0.89381396  0.12792261  1
  Ta  Ta119  1  0.00460665  0.20004317  0.27178161  1
  Ti  Ti120  1  0.50185588  0.69984695  0.12458959  1
  Ti  Ti121  1  0.47816878  0.89521612  0.87562175  1
  Ti  Ti122  1  0.69819695  0.09245864  0.62454284  1
  Ti  Ti123  1  0.40282657  0.20731552  0.74933968  1
  Ti  Ti124  1  0.30131967  0.51221166  0.36980683  1
  Ti  Ti125  1  0.10432826  0.50758900  0.64316095  1
  Ti  Ti126  1  0.49066652  0.48428527  0.62883811  1
  Ti  Ti127  1  0.30885760  0.10393564  0.62851470  1
  Ti  Ti128  1  0.80620629  0.79644220  0.51279088  1
  Ti  Ti129  1  0.89170746  0.87372478  0.37812629  1
  Ti  Ti130  1  0.29989335  0.30765858  0.12619553  1
  Ti  Ti131  1  0.49409250  0.10464673  0.62311286  1
  Ti  Ti132  1  0.20525464  0.61786704  0.75301683  1
  Ti  Ti133  1  0.49457295  0.30579570  0.37515570  1
  Ti  Ti134  1  0.57624750  -0.00092727  0.75324294  1
  Ti  Ti135  1  0.20797886  0.40328205  -0.01649777  1
  Ti  Ti136  1  0.41030018  0.20902709  0.49692078  1
  Ti  Ti137  1  0.20154341  0.59880771  -0.00821012  1
  Ti  Ti138  1  0.80255517  0.59973643  0.00245270  1
  Ti  Ti139  1  0.32929893  0.31200566  0.62224001  1
  Ti  Ti140  1  0.39586071  0.00759062  0.24851390  1
  Ti  Ti141  1  0.29633413  0.70885226  0.36752772  1
  Ti  Ti142  1  0.29353667  0.69708547  0.11985698  1
  Ti  Ti143  1  0.60686206  0.60266144  0.00038429  1
  Ti  Ti144  1  -0.00468809  0.79708638  0.00498021  1
  Ti  Ti145  1  0.90538374  0.69641946  0.62137229  1
  Ti  Ti146  1  0.29101615  0.90914539  0.62281686  1
  Ti  Ti147  1  0.89978892  0.88504803  0.87741938  1
  Ti  Ti148  1  0.13246433  0.28331223  0.87640525  1
  Ti  Ti149  1  0.08520994  0.29481826  0.62710377  1
  Ti  Ti150  1  0.19112645  0.81212124  0.73978504  1
  Ti  Ti151  1  0.20617569  0.20611112  0.73323566  1
  Ti  Ti152  1  0.92695620  0.09250039  0.62211562  1
  Ti  Ti153  1  0.80492372  0.39952664  -0.00163540  1
  Ti  Ti154  1  0.30177951  0.10434316  0.37185933  1
  Ti  Ti155  1  0.19361140  0.02223510  -0.00184048  1
  Ti  Ti156  1  0.10028455  0.69140892  0.12205821  1
  Ti  Ti157  1  0.10060493  0.70238643  0.62779490  1
  Ti  Ti158  1  0.29496044  0.91831774  0.87037543  1
  Ti  Ti159  1  0.01600831  0.19487392  0.48933659  1
  Mo  Mo160  1  0.29442622  0.71037612  0.63388566  1
  Mo  Mo161  1  0.91010835  0.50305759  0.37269405  1
  Mo  Mo162  1  -0.01050711  0.80041945  0.50937691  1
  Mo  Mo163  1  0.11031429  0.09778518  0.37688003  1
  Mo  Mo164  1  0.49406944  0.28877879  0.61613390  1
  Mo  Mo165  1  0.80550094  0.39962667  0.51531338  1
  Mo  Mo166  1  0.90567024  0.90110267  0.61757535  1
  Mo  Mo167  1  0.10706732  0.30146803  0.38283942  1
  Mo  Mo168  1  0.89967841  0.30019600  0.87911232  1
  Mo  Mo169  1  0.39914594  0.00966053  0.74884213  1
  Mo  Mo170  1  0.90584432  0.69879545  0.88007470  1
  Mo  Mo171  1  0.19838464  0.60513003  0.24664848  1
  Mo  Mo172  1  0.09797963  0.10411672  0.62134109  1
  Mo  Mo173  1  0.40152637  0.41737049  0.49600521  1
  Mo  Mo174  1  0.79767075  0.79547002  0.24238711  1
  Mo  Mo175  1  0.48233850  0.48582455  0.37139216  1
  Mo  Mo176  1  0.39427256  0.60107830  0.49230363  1
  Mo  Mo177  1  0.00988959  0.39623291  0.51201970  1
  Mo  Mo178  1  0.31439571  0.30621296  0.86982546  1
  Mo  Mo179  1  0.48546768  0.08445996  0.86941339  1
  Mo  Mo180  1  0.49246474  0.10245519  0.13506677  1
  Mo  Mo181  1  0.20599835  0.41410127  0.24620853  1
  Mo  Mo182  1  0.89669511  0.09606096  0.87888907  1
  Mo  Mo183  1  0.28755970  0.90888301  0.13706078  1
  Mo  Mo184  1  0.69556284  0.09263227  0.37967828  1
  Mo  Mo185  1  0.40735737  0.39703956  0.76044755  1
  Mo  Mo186  1  0.80340405  0.59376111  0.73290399  1
  Mo  Mo187  1  0.60212585  0.20444495  0.00169120  1
  Mo  Mo188  1  0.10916392  0.09404673  0.87917436  1
  Mo  Mo189  1  0.91605818  0.29017729  0.61498791  1
  Mo  Mo190  1  0.69778695  0.90180641  0.12664305  1
  Mo  Mo191  1  0.49915405  0.69862714  0.87843306  1
  Mo  Mo192  1  0.70405711  0.69228153  0.12275694  1
  Mo  Mo193  1  0.90235114  0.70159789  0.38080184  1
  Mo  Mo194  1  0.29765071  0.50723900  0.87050962  1
  Mo  Mo195  1  0.90156811  0.10391368  0.38178540  1
  Mo  Mo196  1  0.39966588  0.80658736  0.01475168  1
  Mo  Mo197  1  0.49416531  0.90681574  0.13076197  1
  Mo  Mo198  1  0.48921441  0.10486998  0.37376062  1
  Mo  Mo199  1  0.20569814  0.21602428  0.00251010  1
