# generated using pymatgen
data_HfZrTaTiMo
_symmetry_space_group_name_H-M   'P 1'
_cell_length_a   15.21587341
_cell_length_b   15.20671826
_cell_length_c   16.81544661
_cell_angle_alpha   90.02063942
_cell_angle_beta   90.02827139
_cell_angle_gamma   89.99782185
_symmetry_Int_Tables_number   1
_chemical_formula_structural   HfZrTaTiMo
_chemical_formula_sum   'Hf40 Zr40 Ta40 Ti40 Mo40'
_cell_volume   3890.81616356
_cell_formula_units_Z   40
loop_
 _symmetry_equiv_pos_site_id
 _symmetry_equiv_pos_as_xyz
  1  'x, y, z'
loop_
 _atom_site_type_symbol
 _atom_site_label
 _atom_site_symmetry_multiplicity
 _atom_site_fract_x
 _atom_site_fract_y
 _atom_site_fract_z
 _atom_site_occupancy
  Hf  Hf0  1  0.71162384  0.68920663  0.62536950  1
  Hf  Hf1  1  0.10327022  0.50027041  0.63976922  1
  Hf  Hf2  1  0.10349004  0.51208586  0.36834124  1
  Hf  Hf3  1  0.09427602  0.30206421  0.86368279  1
  Hf  Hf4  1  0.60273684  0.40264966  0.01435623  1
  Hf  Hf5  1  0.08587130  0.71601207  0.11171218  1
  Hf  Hf6  1  0.11407625  0.11644268  0.12799586  1
  Hf  Hf7  1  0.70058381  0.49864188  0.87729512  1
  Hf  Hf8  1  0.00731390  0.39747848  0.24787269  1
  Hf  Hf9  1  0.39996181  0.78765856  0.52572807  1
  Hf  Hf10  1  0.79927134  0.38472297  0.49114569  1
  Hf  Hf11  1  0.01187129  0.21495814  0.00739343  1
  Hf  Hf12  1  0.40812629  0.59770350  0.00240056  1
  Hf  Hf13  1  0.80786649  0.40533848  0.25055861  1
  Hf  Hf14  1  0.19635271  0.80870778  0.24759399  1
  Hf  Hf15  1  0.60995529  -0.01006036  0.47735306  1
  Hf  Hf16  1  0.59638980  0.18672257  0.02178090  1
  Hf  Hf17  1  0.10511035  0.71400301  0.89084112  1
  Hf  Hf18  1  0.09926637  0.90877852  0.62056799  1
  Hf  Hf19  1  -0.02584082  0.61213972  0.23487929  1
  Hf  Hf20  1  0.79651711  0.81190950  0.48868251  1
  Hf  Hf21  1  0.30896295  0.09580891  0.85746632  1
  Hf  Hf22  1  0.89316301  0.10631504  0.88249481  1
  Hf  Hf23  1  0.10347517  0.90927798  0.11100056  1
  Hf  Hf24  1  0.80458839  0.01243032  0.47323153  1
  Hf  Hf25  1  0.29911783  0.48839460  0.13270649  1
  Hf  Hf26  1  0.50860842  0.90931719  0.12646856  1
  Hf  Hf27  1  0.09910043  0.49211345  0.87174396  1
  Hf  Hf28  1  0.79580605  0.59191798  0.49467500  1
  Hf  Hf29  1  0.70593556  0.51756962  0.13762136  1
  Hf  Hf30  1  0.19973149  0.41291058  0.49364019  1
  Hf  Hf31  1  -0.00316181  0.81187244  0.76423227  1
  Hf  Hf32  1  0.59849192  0.76910182  0.24097822  1
  Hf  Hf33  1  0.90326157  0.88855766  0.13932281  1
  Hf  Hf34  1  0.40881615  0.40670947  0.50266374  1
  Hf  Hf35  1  0.79558808  0.79816644  0.76056387  1
  Hf  Hf36  1  0.58936909  0.58282113  0.51972635  1
  Hf  Hf37  1  0.39499051  0.39449488  0.00024264  1
  Hf  Hf38  1  0.58649153  0.19837610  0.24413853  1
  Hf  Hf39  1  0.29642598  0.30456700  0.62138443  1
  Zr  Zr40  1  -0.00900579  0.59763827  0.00267879  1
  Zr  Zr41  1  0.09298980  0.71464167  0.37577372  1
  Zr  Zr42  1  0.29469934  0.90317262  0.87566768  1
  Zr  Zr43  1  0.19284857  0.60662751  0.23565983  1
  Zr  Zr44  1  0.52066209  0.10359282  0.86958437  1
  Zr  Zr45  1  0.30024853  0.28293142  0.13729823  1
  Zr  Zr46  1  0.52222927  0.10382838  0.61264543  1
  Zr  Zr47  1  0.20861619  0.61242992  0.75898211  1
  Zr  Zr48  1  0.41206048  0.60575719  0.74019041  1
  Zr  Zr49  1  0.87845715  0.10264078  0.61971374  1
  Zr  Zr50  1  0.88938662  0.49434447  0.63342255  1
  Zr  Zr51  1  0.51633328  0.70370263  0.87357581  1
  Zr  Zr52  1  -0.00842150  0.60549870  0.75791807  1
  Zr  Zr53  1  0.69741898  0.08028267  0.14160125  1
  Zr  Zr54  1  0.40506470  0.61240154  0.24093026  1
  Zr  Zr55  1  -0.02361864  0.21579248  0.74141778  1
  Zr  Zr56  1  0.60023026  0.38341480  0.49479538  1
  Zr  Zr57  1  0.20550344  0.59264854  0.00323410  1
  Zr  Zr58  1  0.18878326  0.19315102  0.73727875  1
  Zr  Zr59  1  0.68742588  0.50889814  0.36206577  1
  Zr  Zr60  1  0.00573005  0.00879541  0.75742778  1
  Zr  Zr61  1  0.50069255  0.86504684  0.38179865  1
  Zr  Zr62  1  0.29964703  0.09401937  0.61631431  1
  Zr  Zr63  1  0.70604711  0.91866354  0.62356283  1
  Zr  Zr64  1  0.58256671  -0.00865956  0.27240613  1
  Zr  Zr65  1  0.90535848  0.70802307  0.62421149  1
  Zr  Zr66  1  0.30870825  0.30479226  0.37585413  1
  Zr  Zr67  1  0.50824232  0.30736784  0.87360231  1
  Zr  Zr68  1  0.30481277  0.91011790  0.11388529  1
  Zr  Zr69  1  0.79213142  -0.01004277  0.00369807  1
  Zr  Zr70  1  0.39063357  0.80449509  0.73770743  1
  Zr  Zr71  1  0.22025983  0.01096717  0.25459338  1
  Zr  Zr72  1  -0.00288488  0.01025114  -0.00117176  1
  Zr  Zr73  1  0.59291770  0.80488318  0.73454743  1
  Zr  Zr74  1  0.77112478  0.18970708  0.75854782  1
  Zr  Zr75  1  0.30206594  0.70056521  0.37980061  1
  Zr  Zr76  1  0.00534836  0.59940042  0.50283330  1
  Zr  Zr77  1  -0.00210522  0.39124485  0.49539458  1
  Zr  Zr78  1  0.29285562  0.10095396  0.40038713  1
  Zr  Zr79  1  0.41078101  0.19985971  0.74091707  1
  Ta  Ta80  1  0.40785020  -0.00997073  0.50047029  1
  Ta  Ta81  1  0.30573703  0.70541960  0.88692157  1
  Ta  Ta82  1  0.80402242  0.78116213  0.25308049  1
  Ta  Ta83  1  0.90797499  0.10383985  0.34847670  1
  Ta  Ta84  1  0.29930454  0.50149551  0.63261812  1
  Ta  Ta85  1  0.70891280  0.30251597  0.13209997  1
  Ta  Ta86  1  0.41484944  0.01142528  -0.00196489  1
  Ta  Ta87  1  0.90398207  0.10021214  0.14688152  1
  Ta  Ta88  1  0.70281437  0.29399298  0.35385069  1
  Ta  Ta89  1  0.89469833  0.70032415  0.37787795  1
  Ta  Ta90  1  0.91287548  0.89657073  0.35648902  1
  Ta  Ta91  1  0.49893885  0.90917576  0.87162778  1
  Ta  Ta92  1  0.39830026  0.59380672  0.51558176  1
  Ta  Ta93  1  0.09043402  0.10061822  0.60954819  1
  Ta  Ta94  1  0.39673935  0.81061742  0.24525688  1
  Ta  Ta95  1  0.68769419  0.90535518  0.87634655  1
  Ta  Ta96  1  0.80339343  0.19907992  0.01804627  1
  Ta  Ta97  1  0.29497313  0.30298334  0.86618222  1
  Ta  Ta98  1  0.09459450  0.29342853  0.37415234  1
  Ta  Ta99  1  0.39923444  0.17552567  0.25884923  1
  Ta  Ta100  1  0.89549007  0.48952067  0.87840434  1
  Ta  Ta101  1  0.41080881  0.80499511  -0.00190162  1
  Ta  Ta102  1  0.50038699  0.50070163  0.13389792  1
  Ta  Ta103  1  0.20277047  0.39859064  0.25785797  1
  Ta  Ta104  1  0.10718762  0.91048849  0.38386464  1
  Ta  Ta105  1  0.10667299  0.70910337  0.62658410  1
  Ta  Ta106  1  0.60270353  0.61219941  0.01060556  1
  Ta  Ta107  1  0.17856083  0.21073647  0.50585587  1
  Ta  Ta108  1  0.90226776  0.90737904  0.62251097  1
  Ta  Ta109  1  0.58992862  0.39364433  0.24136737  1
  Ta  Ta110  1  0.61319825  0.01759633  0.74755941  1
  Ta  Ta111  1  -0.00377752  0.00298330  0.49053582  1
  Ta  Ta112  1  0.39727700  0.19737628  0.00021189  1
  Ta  Ta113  1  0.61169766  0.58777863  0.73703059  1
  Ta  Ta114  1  0.18983659  0.38551607  0.00293654  1
  Ta  Ta115  1  0.40115780  0.40369579  0.74820848  1
  Ta  Ta116  1  0.30042534  0.89657087  0.38753196  1
  Ta  Ta117  1  0.80170207  0.38896768  0.75066566  1
  Ta  Ta118  1  0.88202371  0.69177250  0.87907593  1
  Ta  Ta119  1  0.89122911  0.30967279  0.89138200  1
  Ti  Ti120  1  0.91075011  0.30143642  0.12515950  1
  Ti  Ti121  1  0.90102017  0.50437979  0.37103729  1
  Ti  Ti122  1  0.60843248  0.39271271  0.74429931  1
  Ti  Ti123  1  0.21297881  0.01712425  -0.00165945  1
  Ti  Ti124  1  0.19349232  0.20372084  0.26124202  1
  Ti  Ti125  1  0.59557294  0.79096070  0.51784670  1
  Ti  Ti126  1  0.50391651  0.50135254  0.87195201  1
  Ti  Ti127  1  0.89493119  0.49332105  0.11234517  1
  Ti  Ti128  1  0.41839318  0.20595490  0.49538610  1
  Ti  Ti129  1  0.19961532  0.80468421  0.50730519  1
  Ti  Ti130  1  0.89871959  0.28509725  0.36020838  1
  Ti  Ti131  1  0.01766614  -0.00185838  0.25217330  1
  Ti  Ti132  1  0.61893363  0.19107155  0.47598137  1
  Ti  Ti133  1  0.71422194  0.10226387  0.34733943  1
  Ti  Ti134  1  0.21186005  0.20263076  -0.00603806  1
  Ti  Ti135  1  0.20898586  0.60934880  0.50838943  1
  Ti  Ti136  1  0.09442425  0.48884962  0.12115995  1
  Ti  Ti137  1  0.08540658  0.30754765  0.63027915  1
  Ti  Ti138  1  0.79118013  0.60166376  -0.00119125  1
  Ti  Ti139  1  0.11167072  0.10164083  0.87459281  1
  Ti  Ti140  1  0.80434654  -0.00642087  0.76308273  1
  Ti  Ti141  1  -0.02325836  0.20179036  0.49947439  1
  Ti  Ti142  1  0.70228576  0.29091434  0.89239954  1
  Ti  Ti143  1  0.30149422  0.49349202  0.86912888  1
  Ti  Ti144  1  0.49050219  0.48651053  0.35864164  1
  Ti  Ti145  1  0.79036819  0.79189238  -0.00540733  1
  Ti  Ti146  1  0.49971350  0.67502442  0.38293154  1
  Ti  Ti147  1  0.29373813  0.90864835  0.62617259  1
  Ti  Ti148  1  -0.00238277  0.80809002  0.49959061  1
  Ti  Ti149  1  -0.02193530  0.80991863  -0.01235574  1
  Ti  Ti150  1  0.30089655  0.71318590  0.11019466  1
  Ti  Ti151  1  0.09281844  0.10508538  0.38338506  1
  Ti  Ti152  1  0.10405325  0.91105140  0.88636481  1
  Ti  Ti153  1  0.19526179  0.81027819  0.74928491  1
  Ti  Ti154  1  0.60681091  0.80452405  0.00630396  1
  Ti  Ti155  1  0.50925184  0.30353140  0.62780114  1
  Ti  Ti156  1  0.70625480  0.88853819  0.13942319  1
  Ti  Ti157  1  0.70685346  0.28264614  0.61785727  1
  Ti  Ti158  1  0.30615214  0.50892231  0.36783065  1
  Ti  Ti159  1  0.68820668  0.70329658  0.38317679  1
  Mo  Mo160  1  0.49681482  0.70567743  0.11282639  1
  Mo  Mo161  1  0.48194033  0.09830597  0.12820909  1
  Mo  Mo162  1  0.10884774  0.30901374  0.13166677  1
  Mo  Mo163  1  0.71067179  0.88614373  0.36071531  1
  Mo  Mo164  1  0.69910487  0.10101724  0.88870023  1
  Mo  Mo165  1  -0.00708780  0.39829505  0.75098015  1
  Mo  Mo166  1  0.50447577  0.29416199  0.37159618  1
  Mo  Mo167  1  0.20123194  0.80612928  -0.00319531  1
  Mo  Mo168  1  0.69583727  0.69773838  0.87841685  1
  Mo  Mo169  1  0.39860925  -0.00708342  0.26793443  1
  Mo  Mo170  1  0.00839022  0.20101908  0.24788251  1
  Mo  Mo171  1  0.19562362  -0.00012482  0.49843933  1
  Mo  Mo172  1  0.28743721  0.69875244  0.62299977  1
  Mo  Mo173  1  0.79137277  0.59191382  0.76076320  1
  Mo  Mo174  1  0.41609177  -0.00997273  0.73535329  1
  Mo  Mo175  1  -0.00023045  0.40120778  0.00674693  1
  Mo  Mo176  1  0.00276258  0.80347971  0.24897001  1
  Mo  Mo177  1  0.70564979  0.70642965  0.11934708  1
  Mo  Mo178  1  0.20589708  0.39970780  0.74886105  1
  Mo  Mo179  1  0.50001167  0.48543350  0.63471385  1
  Mo  Mo180  1  0.88029143  0.69726074  0.11383140  1
  Mo  Mo181  1  0.80378027  0.20379541  0.23331188  1
  Mo  Mo182  1  0.40537082  0.38958595  0.25094168  1
  Mo  Mo183  1  0.89352928  0.89573337  0.88014744  1
  Mo  Mo184  1  0.70013803  0.10264466  0.61168393  1
  Mo  Mo185  1  0.79461512  0.20169734  0.48025755  1
  Mo  Mo186  1  0.49833848  0.91054964  0.62176318  1
  Mo  Mo187  1  0.70131477  0.47649826  0.63436235  1
  Mo  Mo188  1  0.19842662  -0.00435549  0.74866778  1
  Mo  Mo189  1  0.49482339  0.30085531  0.12478957  1
  Mo  Mo190  1  0.30915587  0.09882308  0.12279213  1
  Mo  Mo191  1  0.59406274  0.59553433  0.24854674  1
  Mo  Mo192  1  0.59825330  -0.01302523  0.00125034  1
  Mo  Mo193  1  0.80129335  0.39632482  0.00914890  1
  Mo  Mo194  1  0.49626376  0.10264080  0.39017792  1
  Mo  Mo195  1  0.79020894  0.60847719  0.26191441  1
  Mo  Mo196  1  0.80399723  -0.01078587  0.25971461  1
  Mo  Mo197  1  0.88929478  0.30051494  0.62149285  1
  Mo  Mo198  1  0.60284716  0.21233868  0.74618327  1
  Mo  Mo199  1  0.50436910  0.69395175  0.62705353  1
