# generated using pymatgen
data_HfZrTaTiMo
_symmetry_space_group_name_H-M   'P 1'
_cell_length_a   15.21223595
_cell_length_b   15.20979578
_cell_length_c   16.86556420
_cell_angle_alpha   89.99785880
_cell_angle_beta   89.99741438
_cell_angle_gamma   90.03313094
_symmetry_Int_Tables_number   1
_chemical_formula_structural   HfZrTaTiMo
_chemical_formula_sum   'Hf40 Zr40 Ta40 Ti40 Mo40'
_cell_volume   3902.26929582
_cell_formula_units_Z   40
loop_
 _symmetry_equiv_pos_site_id
 _symmetry_equiv_pos_as_xyz
  1  'x, y, z'
loop_
 _atom_site_type_symbol
 _atom_site_label
 _atom_site_symmetry_multiplicity
 _atom_site_fract_x
 _atom_site_fract_y
 _atom_site_fract_z
 _atom_site_occupancy
  Hf  Hf0  1  0.30154705  0.11257941  0.62854250  1
  Hf  Hf1  1  0.59384209  0.01723398  0.74135251  1
  Hf  Hf2  1  0.78773333  0.79284435  0.25447501  1
  Hf  Hf3  1  0.70938761  0.09708096  0.12642646  1
  Hf  Hf4  1  0.22146267  0.20991257  0.76637685  1
  Hf  Hf5  1  0.39750769  -0.00765857  0.73855863  1
  Hf  Hf6  1  0.90528486  0.33096947  0.10370930  1
  Hf  Hf7  1  0.58795451  0.81342647  0.25117576  1
  Hf  Hf8  1  0.01182293  0.79139322  0.48847138  1
  Hf  Hf9  1  0.49062912  0.70014223  0.13926585  1
  Hf  Hf10  1  0.08236163  0.70013803  0.13585280  1
  Hf  Hf11  1  0.28968453  0.89553931  0.13302129  1
  Hf  Hf12  1  0.49486983  0.69033424  0.36999962  1
  Hf  Hf13  1  0.49646813  0.50201574  0.62042377  1
  Hf  Hf14  1  0.10322267  0.91615322  0.37575920  1
  Hf  Hf15  1  0.39378983  0.59653926  0.75251017  1
  Hf  Hf16  1  0.50273574  0.10625733  0.12222714  1
  Hf  Hf17  1  0.01548489  0.01851923  0.51645545  1
  Hf  Hf18  1  0.69363053  0.29103051  0.87285782  1
  Hf  Hf19  1  0.69647476  0.52071889  0.38810492  1
  Hf  Hf20  1  0.90378417  0.89734796  0.87216355  1
  Hf  Hf21  1  0.20099172  -0.00207234  0.76031920  1
  Hf  Hf22  1  0.60048839  0.60845661  0.00228810  1
  Hf  Hf23  1  0.09946502  0.68610702  0.62658220  1
  Hf  Hf24  1  0.00675689  0.19684255  -0.00496510  1
  Hf  Hf25  1  0.27510113  0.29280033  0.38012766  1
  Hf  Hf26  1  0.57716812  0.42171849  0.24486072  1
  Hf  Hf27  1  0.28520264  0.50395749  0.61634927  1
  Hf  Hf28  1  0.68882155  0.89581491  0.62490180  1
  Hf  Hf29  1  0.59711445  0.40111586  0.75659796  1
  Hf  Hf30  1  0.58722235  0.81411312  0.00891540  1
  Hf  Hf31  1  0.48343460  0.30558766  0.37017461  1
  Hf  Hf32  1  0.49396244  0.90053302  0.87153619  1
  Hf  Hf33  1  0.20199274  0.59158478  0.00253640  1
  Hf  Hf34  1  0.80104464  0.19964781  0.00022835  1
  Hf  Hf35  1  0.69835227  0.31028980  0.36720687  1
  Hf  Hf36  1  0.18895849  0.59295160  0.47443855  1
  Hf  Hf37  1  0.68986653  0.30570344  0.12509814  1
  Hf  Hf38  1  0.48283216  0.27996770  0.86905310  1
  Hf  Hf39  1  0.21455476  -0.00268528  0.50702138  1
  Zr  Zr40  1  0.81117335  -0.00473944  0.25269909  1
  Zr  Zr41  1  0.32832897  0.10143744  0.88232059  1
  Zr  Zr42  1  0.71684630  0.51038082  0.11884791  1
  Zr  Zr43  1  0.01402255  0.38886650  0.49463342  1
  Zr  Zr44  1  0.09275747  0.28674172  0.63658811  1
  Zr  Zr45  1  0.11959609  0.88782669  0.62602867  1
  Zr  Zr46  1  0.70029071  0.30414168  0.63511044  1
  Zr  Zr47  1  0.29496679  0.71386627  0.62345372  1
  Zr  Zr48  1  0.59600242  0.19985879  0.49931052  1
  Zr  Zr49  1  0.50092028  0.09691378  0.37279166  1
  Zr  Zr50  1  0.41031506  -0.00854910  0.24165196  1
  Zr  Zr51  1  0.28858404  0.68596272  0.15311145  1
  Zr  Zr52  1  0.01479820  0.00988191  0.23293509  1
  Zr  Zr53  1  0.81545798  0.21000795  0.50936833  1
  Zr  Zr54  1  0.31699907  0.49546331  0.35563004  1
  Zr  Zr55  1  0.80121480  0.42098202  0.25135968  1
  Zr  Zr56  1  0.59359418  0.40452173  -0.00194648  1
  Zr  Zr57  1  0.90408353  0.89894106  0.11928945  1
  Zr  Zr58  1  0.09498547  0.69353571  0.87000851  1
  Zr  Zr59  1  0.80813223  0.80023567  0.50390985  1
  Zr  Zr60  1  0.59939585  0.60876470  0.75326452  1
  Zr  Zr61  1  0.00567726  0.39134929  0.25603440  1
  Zr  Zr62  1  0.81032746  0.60220687  -0.00845872  1
  Zr  Zr63  1  0.80085903  0.00301244  0.74754232  1
  Zr  Zr64  1  0.82786305  0.20533698  0.23243414  1
  Zr  Zr65  1  0.38907106  0.39289259  -0.00224688  1
  Zr  Zr66  1  0.38519634  0.79724387  0.00160796  1
  Zr  Zr67  1  0.90074261  0.30939700  0.87061345  1
  Zr  Zr68  1  0.91020668  0.89586286  0.63143238  1
  Zr  Zr69  1  0.79203861  0.80183668  -0.00181907  1
  Zr  Zr70  1  0.37868912  0.39036206  0.75576692  1
  Zr  Zr71  1  0.69262909  0.71462240  0.86581569  1
  Zr  Zr72  1  0.80773656  0.00984072  0.50840182  1
  Zr  Zr73  1  0.39909386  0.59279226  -0.00055927  1
  Zr  Zr74  1  0.18407568  0.79952445  -0.00185591  1
  Zr  Zr75  1  0.71329782  0.11033148  0.36998493  1
  Zr  Zr76  1  0.48403304  0.28406847  0.63224398  1
  Zr  Zr77  1  0.69176573  0.70012070  0.61329140  1
  Zr  Zr78  1  0.93380974  0.10868667  0.37393800  1
  Zr  Zr79  1  0.70601124  0.50436347  0.61861479  1
  Ta  Ta80  1  0.29644062  0.09363126  0.37661272  1
  Ta  Ta81  1  -0.00838499  0.79114937  -0.00242427  1
  Ta  Ta82  1  0.09698291  0.49353390  0.12572894  1
  Ta  Ta83  1  0.80652383  0.40580949  0.49933388  1
  Ta  Ta84  1  0.88841851  0.69175398  0.37685342  1
  Ta  Ta85  1  0.90315235  0.09683595  0.87164276  1
  Ta  Ta86  1  0.40976903  -0.00408263  0.01209892  1
  Ta  Ta87  1  0.90087937  0.69549368  0.86172787  1
  Ta  Ta88  1  0.79672093  0.79437333  0.74703103  1
  Ta  Ta89  1  0.20848533  -0.00954442  -0.01223822  1
  Ta  Ta90  1  0.91883134  0.11961000  0.64345464  1
  Ta  Ta91  1  0.38093986  0.19653119  0.24456854  1
  Ta  Ta92  1  0.59272826  0.40392745  0.49689606  1
  Ta  Ta93  1  0.90901466  0.49816612  0.86706840  1
  Ta  Ta94  1  0.20873651  0.00959795  0.24722853  1
  Ta  Ta95  1  0.30812504  0.89611995  0.36710893  1
  Ta  Ta96  1  0.40532226  -0.00379410  0.50632808  1
  Ta  Ta97  1  -0.00893140  0.79995045  0.26262838  1
  Ta  Ta98  1  0.30133873  0.70005990  0.86938031  1
  Ta  Ta99  1  0.39219024  0.40015821  0.49877127  1
  Ta  Ta100  1  0.90635512  0.49676637  0.62993551  1
  Ta  Ta101  1  0.61883094  0.61266678  0.24546143  1
  Ta  Ta102  1  0.29612053  0.28409644  0.12106313  1
  Ta  Ta103  1  0.69263404  0.90511054  0.38620619  1
  Ta  Ta104  1  0.38540504  0.19388571  0.49667803  1
  Ta  Ta105  1  -0.00689631  0.59481778  0.49430256  1
  Ta  Ta106  1  0.19742705  0.38352234  0.24439711  1
  Ta  Ta107  1  0.10471844  0.29510469  0.11403929  1
  Ta  Ta108  1  0.90200669  0.29866604  0.37462090  1
  Ta  Ta109  1  0.52705379  0.09363017  0.89001562  1
  Ta  Ta110  1  0.18933451  0.40905662  0.75976667  1
  Ta  Ta111  1  0.11861163  0.09395664  0.10695586  1
  Ta  Ta112  1  -0.01180542  0.59535336  0.25950542  1
  Ta  Ta113  1  0.68977708  0.71059049  0.39432285  1
  Ta  Ta114  1  0.60820399  0.00253795  0.25221129  1
  Ta  Ta115  1  0.69204287  0.90342072  0.12455232  1
  Ta  Ta116  1  0.30479264  0.48769154  0.14275858  1
  Ta  Ta117  1  0.89877210  0.49930048  0.38200450  1
  Ta  Ta118  1  0.39806123  0.60193094  0.49523481  1
  Ta  Ta119  1  0.00466649  0.79657378  0.75216625  1
  Ti  Ti120  1  0.19977389  0.59783109  0.75583829  1
  Ti  Ti121  1  0.17369697  0.19401022  0.50032255  1
  Ti  Ti122  1  0.59011033  0.20655957  0.24602763  1
  Ti  Ti123  1  0.10334242  0.09098429  0.88304664  1
  Ti  Ti124  1  0.80361415  0.00430028  -0.00438430  1
  Ti  Ti125  1  0.69116814  0.91627169  0.87103777  1
  Ti  Ti126  1  0.40074529  0.79787813  0.74636261  1
  Ti  Ti127  1  0.18400203  0.19086863  0.24602326  1
  Ti  Ti128  1  0.71221822  0.49443639  0.87537714  1
  Ti  Ti129  1  0.88493370  0.69075889  0.13326682  1
  Ti  Ti130  1  0.09778185  0.49034398  0.62328045  1
  Ti  Ti131  1  0.01234114  0.19499304  0.76778494  1
  Ti  Ti132  1  0.79425260  0.19686678  0.75620441  1
  Ti  Ti133  1  0.30010381  0.69881326  0.35327340  1
  Ti  Ti134  1  0.80320741  0.59509315  0.75191476  1
  Ti  Ti135  1  0.20703904  0.79082621  0.48035339  1
  Ti  Ti136  1  0.28197689  0.30981606  0.60892024  1
  Ti  Ti137  1  0.50077668  0.89628191  0.38414299  1
  Ti  Ti138  1  0.01008199  -0.00146733  0.75143863  1
  Ti  Ti139  1  0.49646525  0.70386237  0.87170914  1
  Ti  Ti140  1  0.18445962  0.80562989  0.25824948  1
  Ti  Ti141  1  0.89888124  0.31212744  0.64785514  1
  Ti  Ti142  1  0.49469071  0.50188290  0.87266586  1
  Ti  Ti143  1  0.00431291  0.58807505  0.74762378  1
  Ti  Ti144  1  0.59580778  0.20024518  0.00589346  1
  Ti  Ti145  1  0.10164306  0.30746533  0.87923783  1
  Ti  Ti146  1  0.17896142  0.58452475  0.26367592  1
  Ti  Ti147  1  0.19699737  0.39886450  -0.00107940  1
  Ti  Ti148  1  0.69915098  0.10863303  0.62449812  1
  Ti  Ti149  1  0.90102682  0.68944646  0.63158793  1
  Ti  Ti150  1  0.50015287  0.70652503  0.61805296  1
  Ti  Ti151  1  0.20723738  0.80725507  0.76470673  1
  Ti  Ti152  1  -0.00044100  0.59620135  0.00200413  1
  Ti  Ti153  1  0.09662665  0.49563303  0.87875185  1
  Ti  Ti154  1  0.49568697  0.89298498  0.61985662  1
  Ti  Ti155  1  0.89893773  0.90278609  0.38056130  1
  Ti  Ti156  1  0.00977538  -0.01059046  0.00097348  1
  Ti  Ti157  1  0.39562349  0.80135851  0.49717253  1
  Ti  Ti158  1  0.21534829  0.19946955  -0.01067533  1
  Ti  Ti159  1  0.59795237  0.00038409  0.50676187  1
  Mo  Mo160  1  0.91823015  0.51897430  0.12336232  1
  Mo  Mo161  1  0.58462171  0.80871227  0.74699734  1
  Mo  Mo162  1  0.49678207  0.50260861  0.12477125  1
  Mo  Mo163  1  0.42298446  0.17939128  0.75066260  1
  Mo  Mo164  1  0.58775762  0.60391278  0.50154023  1
  Mo  Mo165  1  0.30828809  0.89309885  0.62095289  1
  Mo  Mo166  1  0.00575545  0.40466658  0.75113647  1
  Mo  Mo167  1  0.50289112  0.49987730  0.38659553  1
  Mo  Mo168  1  0.70955162  0.09816211  0.87973424  1
  Mo  Mo169  1  0.09091368  0.28021404  0.37121060  1
  Mo  Mo170  1  0.28546754  0.50394038  0.87292918  1
  Mo  Mo171  1  0.09301044  0.69939732  0.36133367  1
  Mo  Mo172  1  0.30130220  0.89463206  0.87751628  1
  Mo  Mo173  1  0.91628942  0.10557868  0.10648810  1
  Mo  Mo174  1  0.39088410  0.79740554  0.25816021  1
  Mo  Mo175  1  0.29623950  0.09917190  0.11433346  1
  Mo  Mo176  1  0.61336442  0.00345235  0.00209021  1
  Mo  Mo177  1  0.60397358  0.19291149  0.75022154  1
  Mo  Mo178  1  0.49002601  0.30231818  0.13222878  1
  Mo  Mo179  1  0.81034750  0.59923891  0.50495688  1
  Mo  Mo180  1  0.11639980  0.10932767  0.37370473  1
  Mo  Mo181  1  0.42156906  0.58249223  0.24640321  1
  Mo  Mo182  1  0.01372362  0.41148170  -0.00402755  1
  Mo  Mo183  1  0.58470292  0.80915410  0.49476281  1
  Mo  Mo184  1  0.80200188  0.40933852  0.75230671  1
  Mo  Mo185  1  0.29031617  0.30300152  0.88393902  1
  Mo  Mo186  1  0.09460296  0.90109254  0.87284463  1
  Mo  Mo187  1  0.10386413  0.10219594  0.64227087  1
  Mo  Mo188  1  0.40496059  0.19645482  0.01048109  1
  Mo  Mo189  1  0.79980248  0.61049492  0.25552956  1
  Mo  Mo190  1  0.20077905  0.39714803  0.49625260  1
  Mo  Mo191  1  0.80378206  0.40925885  -0.01033177  1
  Mo  Mo192  1  0.69785786  0.70960783  0.12606791  1
  Mo  Mo193  1  -0.00565974  0.20034320  0.50907255  1
  Mo  Mo194  1  0.50344587  0.09395426  0.61087332  1
  Mo  Mo195  1  0.39298813  0.38322163  0.24095408  1
  Mo  Mo196  1  0.10137871  0.48888093  0.36973233  1
  Mo  Mo197  1  0.50009575  0.90614324  0.12591944  1
  Mo  Mo198  1  0.01301375  0.20299952  0.22793080  1
  Mo  Mo199  1  0.09923575  0.89570727  0.12762869  1
