# generated using pymatgen
data_HfZrTaTiMo
_symmetry_space_group_name_H-M   'P 1'
_cell_length_a   15.21464794
_cell_length_b   15.21586817
_cell_length_c   16.81800567
_cell_angle_alpha   89.99522133
_cell_angle_beta   89.97942375
_cell_angle_gamma   89.96120663
_symmetry_Int_Tables_number   1
_chemical_formula_structural   HfZrTaTiMo
_chemical_formula_sum   'Hf40 Zr40 Ta40 Ti40 Mo40'
_cell_volume   3893.43572824
_cell_formula_units_Z   40
loop_
 _symmetry_equiv_pos_site_id
 _symmetry_equiv_pos_as_xyz
  1  'x, y, z'
loop_
 _atom_site_type_symbol
 _atom_site_label
 _atom_site_symmetry_multiplicity
 _atom_site_fract_x
 _atom_site_fract_y
 _atom_site_fract_z
 _atom_site_occupancy
  Hf  Hf0  1  0.71845682  0.09118167  0.62502807  1
  Hf  Hf1  1  0.08347176  0.49792026  0.37619361  1
  Hf  Hf2  1  0.63868414  -0.00545448  0.48682728  1
  Hf  Hf3  1  0.01413554  0.21426060  0.47929693  1
  Hf  Hf4  1  0.69351091  0.90489407  0.89593093  1
  Hf  Hf5  1  0.80041151  0.78611714  0.00076022  1
  Hf  Hf6  1  0.81165732  0.59609963  0.50896449  1
  Hf  Hf7  1  0.28328409  0.28990636  0.38524605  1
  Hf  Hf8  1  0.09062856  0.10600917  0.11979135  1
  Hf  Hf9  1  0.19012415  0.23236305  0.23743883  1
  Hf  Hf10  1  0.00621432  0.79757261  0.75876616  1
  Hf  Hf11  1  0.79440895  0.40933332  0.25196713  1
  Hf  Hf12  1  0.89866540  0.91123542  0.88665295  1
  Hf  Hf13  1  0.79716750  0.60311440  0.24712826  1
  Hf  Hf14  1  0.32557417  0.70219845  0.87978109  1
  Hf  Hf15  1  0.80165186  0.57993420  0.00689237  1
  Hf  Hf16  1  0.10033214  0.69999187  0.13137606  1
  Hf  Hf17  1  0.29442803  0.69622615  0.39222564  1
  Hf  Hf18  1  0.49612966  0.68454952  0.12184515  1
  Hf  Hf19  1  0.89263129  0.10148324  0.12228446  1
  Hf  Hf20  1  0.21781736  0.01881746  0.49766759  1
  Hf  Hf21  1  0.30199242  0.70216866  0.11661159  1
  Hf  Hf22  1  0.90675983  0.90379146  0.12263484  1
  Hf  Hf23  1  0.78381330  0.81321635  0.75488877  1
  Hf  Hf24  1  0.28638122  0.50264676  0.61410370  1
  Hf  Hf25  1  0.39762085  -0.01700890  0.00127742  1
  Hf  Hf26  1  0.01033629  -0.00136201  0.48059328  1
  Hf  Hf27  1  0.18773355  0.81261841  0.50120475  1
  Hf  Hf28  1  0.51290706  0.08678374  0.87157791  1
  Hf  Hf29  1  0.29165982  0.29383664  0.63023398  1
  Hf  Hf30  1  0.29113263  0.30127385  0.88172167  1
  Hf  Hf31  1  0.41378541  0.20620537  0.75513474  1
  Hf  Hf32  1  0.29693629  0.08983610  0.86127031  1
  Hf  Hf33  1  0.53268254  0.88981875  0.61681212  1
  Hf  Hf34  1  0.40234137  0.59252767  0.25564728  1
  Hf  Hf35  1  0.89590729  0.31910000  0.37316692  1
  Hf  Hf36  1  0.11253880  0.10223226  0.62657123  1
  Hf  Hf37  1  0.01189492  0.79614134  -0.00713691  1
  Hf  Hf38  1  0.20842894  0.80744186  -0.00792501  1
  Hf  Hf39  1  0.49723339  0.67951300  0.40308125  1
  Zr  Zr40  1  0.69720408  0.69496317  0.38579430  1
  Zr  Zr41  1  -0.00092754  0.01578445  0.75474058  1
  Zr  Zr42  1  0.09700056  0.11660268  0.89251823  1
  Zr  Zr43  1  0.89029026  0.91715600  0.62459413  1
  Zr  Zr44  1  0.90696122  0.31485196  0.89237468  1
  Zr  Zr45  1  0.19843839  0.60836245  0.76037350  1
  Zr  Zr46  1  0.89383815  0.71132508  0.63045435  1
  Zr  Zr47  1  0.40403490  -0.00131962  0.24805199  1
  Zr  Zr48  1  0.50769337  0.88430340  0.38399874  1
  Zr  Zr49  1  0.49992599  0.10314128  0.37951343  1
  Zr  Zr50  1  0.38925105  0.39510809  0.25355140  1
  Zr  Zr51  1  0.91159798  0.11097588  0.61611404  1
  Zr  Zr52  1  0.29445039  0.31507672  0.10217306  1
  Zr  Zr53  1  0.59914106  0.78348610  0.25279030  1
  Zr  Zr54  1  0.59719625  0.20548102  0.25448700  1
  Zr  Zr55  1  0.29886235  0.10467185  0.12262677  1
  Zr  Zr56  1  -0.00464305  0.79923441  0.49539281  1
  Zr  Zr57  1  0.08124744  0.49853301  0.88674023  1
  Zr  Zr58  1  0.89795295  0.10575813  0.89720235  1
  Zr  Zr59  1  0.29820268  0.90546566  0.37367876  1
  Zr  Zr60  1  0.49872120  0.30125808  0.12104689  1
  Zr  Zr61  1  0.69984234  0.30353499  0.87065388  1
  Zr  Zr62  1  0.20042644  0.58837169  0.24810686  1
  Zr  Zr63  1  0.29407707  0.49753909  0.39661268  1
  Zr  Zr64  1  0.50887871  0.48252830  0.39793691  1
  Zr  Zr65  1  0.69577020  0.29803883  0.12217718  1
  Zr  Zr66  1  -0.01300243  0.39758872  0.74822188  1
  Zr  Zr67  1  0.90544591  0.30959140  0.12283888  1
  Zr  Zr68  1  0.40549658  0.19391935  -0.01265333  1
  Zr  Zr69  1  0.88307334  0.29626966  0.61882529  1
  Zr  Zr70  1  0.50114813  0.89031024  0.12464617  1
  Zr  Zr71  1  0.08815391  0.29792291  0.63003416  1
  Zr  Zr72  1  0.40395649  0.78996233  0.72798685  1
  Zr  Zr73  1  0.51327225  0.51094944  0.86940371  1
  Zr  Zr74  1  0.12340230  0.11127138  0.36344686  1
  Zr  Zr75  1  0.19355834  0.40724434  0.75780334  1
  Zr  Zr76  1  0.89538589  0.68322141  0.86628934  1
  Zr  Zr77  1  0.41331606  -0.00120484  0.51467140  1
  Zr  Zr78  1  0.49718462  0.88157434  0.87164613  1
  Zr  Zr79  1  0.61835736  -0.00301751  0.25689327  1
  Ta  Ta80  1  0.68756579  0.71192222  0.61011806  1
  Ta  Ta81  1  0.79976793  0.80652939  0.24893327  1
  Ta  Ta82  1  0.40660671  0.59592895  0.73349886  1
  Ta  Ta83  1  0.10468229  0.90309144  0.13375069  1
  Ta  Ta84  1  0.49755223  0.49338538  0.61172474  1
  Ta  Ta85  1  0.19938854  0.80219140  0.75278339  1
  Ta  Ta86  1  0.39273225  0.78827078  0.25630079  1
  Ta  Ta87  1  0.10445705  0.49274558  0.11045702  1
  Ta  Ta88  1  0.30647727  0.10042841  0.64754729  1
  Ta  Ta89  1  0.68399078  0.30821939  0.38184708  1
  Ta  Ta90  1  -0.00202628  0.79803755  0.25473119  1
  Ta  Ta91  1  0.69608775  0.69685227  0.12462789  1
  Ta  Ta92  1  0.59475401  0.39858105  0.73279079  1
  Ta  Ta93  1  0.59185124  0.78649220  0.00039883  1
  Ta  Ta94  1  0.09514542  0.69956855  0.37091797  1
  Ta  Ta95  1  0.90292193  0.69258554  0.37161695  1
  Ta  Ta96  1  0.30185877  0.90269736  0.86032624  1
  Ta  Ta97  1  0.17283175  0.39411615  0.50446859  1
  Ta  Ta98  1  0.62165396  -0.01093015  0.74741694  1
  Ta  Ta99  1  -0.00240571  0.59207590  0.73920477  1
  Ta  Ta100  1  0.40126942  0.40637059  0.74882863  1
  Ta  Ta101  1  0.68503555  0.68717421  0.87289767  1
  Ta  Ta102  1  0.60069899  0.59813407  0.72736913  1
  Ta  Ta103  1  0.69065838  0.28872600  0.62385578  1
  Ta  Ta104  1  0.79103664  0.82090484  0.48952605  1
  Ta  Ta105  1  0.30441893  0.50685264  0.10121619  1
  Ta  Ta106  1  -0.00585111  0.60237326  0.00714791  1
  Ta  Ta107  1  0.30951574  0.50298469  0.88530505  1
  Ta  Ta108  1  0.78125439  0.40243430  0.50574829  1
  Ta  Ta109  1  0.39604274  0.79795776  0.51808719  1
  Ta  Ta110  1  0.89954979  0.69956258  0.13012018  1
  Ta  Ta111  1  0.38927510  0.18779800  0.50822130  1
  Ta  Ta112  1  0.50221992  0.48982659  0.12121920  1
  Ta  Ta113  1  -0.02133050  0.41896893  0.50785398  1
  Ta  Ta114  1  0.50897056  0.09843529  0.11940978  1
  Ta  Ta115  1  0.70595174  0.09592180  0.88324662  1
  Ta  Ta116  1  0.60104523  0.57694238  0.25104746  1
  Ta  Ta117  1  0.70370447  0.89941013  0.11461745  1
  Ta  Ta118  1  0.10882105  0.91152909  0.87234134  1
  Ta  Ta119  1  0.19797060  -0.00282056  0.00375689  1
  Ti  Ti120  1  0.79633334  0.19851037  0.26055519  1
  Ti  Ti121  1  0.49717675  0.29227182  0.62130600  1
  Ti  Ti122  1  0.81286327  0.19648048  0.75696850  1
  Ti  Ti123  1  0.69722706  0.09294486  0.11241748  1
  Ti  Ti124  1  0.19485027  0.60742031  -0.01191592  1
  Ti  Ti125  1  0.79100062  0.59751765  0.73709195  1
  Ti  Ti126  1  0.00626132  0.60065319  0.51003209  1
  Ti  Ti127  1  0.29090749  0.90737352  0.63603646  1
  Ti  Ti128  1  0.01850626  0.39812044  0.24065663  1
  Ti  Ti129  1  0.70002847  0.49734474  0.38473034  1
  Ti  Ti130  1  0.80712719  0.00702160  0.26090512  1
  Ti  Ti131  1  0.39132673  0.38516781  0.50826427  1
  Ti  Ti132  1  0.10039943  0.30670945  0.08796144  1
  Ti  Ti133  1  -0.00741711  0.59020692  0.24399527  1
  Ti  Ti134  1  0.70815858  0.49602660  0.86951568  1
  Ti  Ti135  1  0.19767724  0.80265341  0.25740372  1
  Ti  Ti136  1  0.50888693  0.30904885  0.87150447  1
  Ti  Ti137  1  0.61175675  0.19356934  0.75116670  1
  Ti  Ti138  1  0.00495636  -0.00052643  0.26098475  1
  Ti  Ti139  1  0.10378918  0.69785870  0.62546045  1
  Ti  Ti140  1  0.20363557  0.00392536  0.24835928  1
  Ti  Ti141  1  0.39286014  0.19613390  0.25157816  1
  Ti  Ti142  1  0.78975572  0.40842652  0.73680034  1
  Ti  Ti143  1  0.41613577  -0.00689088  0.73884616  1
  Ti  Ti144  1  0.59972777  0.19700068  0.49937134  1
  Ti  Ti145  1  0.90182322  0.89895623  0.36735818  1
  Ti  Ti146  1  0.69229042  0.49094033  0.12376338  1
  Ti  Ti147  1  0.60070176  0.58947246  0.00195499  1
  Ti  Ti148  1  0.59753034  0.78656977  0.74963857  1
  Ti  Ti149  1  0.29781976  0.89411221  0.13271464  1
  Ti  Ti150  1  0.29130771  0.69745770  0.61446138  1
  Ti  Ti151  1  0.18214591  0.20379885  0.76087362  1
  Ti  Ti152  1  0.51518364  0.10198860  0.63009994  1
  Ti  Ti153  1  -0.00747152  0.20397391  0.26094771  1
  Ti  Ti154  1  0.59980058  0.20051772  -0.00594986  1
  Ti  Ti155  1  0.79608056  0.19287603  0.48159911  1
  Ti  Ti156  1  0.09913206  0.90387512  0.63369307  1
  Ti  Ti157  1  0.49056988  0.29619713  0.38575545  1
  Ti  Ti158  1  0.41636161  0.40804347  -0.01070341  1
  Ti  Ti159  1  0.79438305  0.20734337  0.00326075  1
  Mo  Mo160  1  0.59819363  0.40567590  0.25674084  1
  Mo  Mo161  1  0.89649885  0.50274113  0.62944425  1
  Mo  Mo162  1  0.90496765  0.10621177  0.36421132  1
  Mo  Mo163  1  0.60776809  0.40294836  -0.00546941  1
  Mo  Mo164  1  0.49809023  0.69011491  0.60766190  1
  Mo  Mo165  1  0.51173113  0.69012358  0.87091126  1
  Mo  Mo166  1  0.30904420  0.10805186  0.36611964  1
  Mo  Mo167  1  0.59817994  0.00356815  0.00678569  1
  Mo  Mo168  1  0.81894888  0.00643051  0.47778462  1
  Mo  Mo169  1  0.00941781  -0.00957661  0.00736631  1
  Mo  Mo170  1  0.89211969  0.50978330  0.37708325  1
  Mo  Mo171  1  0.19920353  0.41204113  -0.01386966  1
  Mo  Mo172  1  0.71076537  0.11314522  0.37306064  1
  Mo  Mo173  1  -0.00230719  0.20658373  0.75648322  1
  Mo  Mo174  1  0.20098340  0.19940103  -0.00068366  1
  Mo  Mo175  1  0.20140687  -0.00360662  0.74800255  1
  Mo  Mo176  1  0.71403511  0.89799788  0.36099116  1
  Mo  Mo177  1  0.78835182  0.40490196  0.00387895  1
  Mo  Mo178  1  0.09785350  0.30138687  0.89503054  1
  Mo  Mo179  1  -0.00658272  0.20553906  0.01133142  1
  Mo  Mo180  1  0.10054129  0.89762677  0.35570409  1
  Mo  Mo181  1  -0.01600261  0.41900608  0.00557283  1
  Mo  Mo182  1  0.09271569  0.50850676  0.62093781  1
  Mo  Mo183  1  0.39211244  0.59586825  0.51810548  1
  Mo  Mo184  1  0.19567658  0.41078001  0.24151075  1
  Mo  Mo185  1  0.70076539  0.49485075  0.62715901  1
  Mo  Mo186  1  0.60369289  0.79717340  0.49339809  1
  Mo  Mo187  1  0.40185874  0.79611926  -0.00061209  1
  Mo  Mo188  1  0.10525750  0.70286684  0.87287447  1
  Mo  Mo189  1  0.88204058  0.50594357  0.86407137  1
  Mo  Mo190  1  0.40764321  0.59704944  0.00021639  1
  Mo  Mo191  1  0.61105114  0.58362330  0.51887232  1
  Mo  Mo192  1  0.71479677  0.89739806  0.62407241  1
  Mo  Mo193  1  0.59505835  0.38067533  0.51687810  1
  Mo  Mo194  1  0.20715371  0.20476854  0.50758636  1
  Mo  Mo195  1  0.18085882  0.60586254  0.50377249  1
  Mo  Mo196  1  0.79577968  0.00073912  0.01136132  1
  Mo  Mo197  1  0.79396755  0.01016038  0.75975885  1
  Mo  Mo198  1  0.90827818  0.50488313  0.13134946  1
  Mo  Mo199  1  0.09468833  0.31489601  0.37251144  1
