# generated using pymatgen
data_HfZrTaTiMo
_symmetry_space_group_name_H-M   'P 1'
_cell_length_a   15.21434912
_cell_length_b   15.21681416
_cell_length_c   16.86572372
_cell_angle_alpha   90.02314962
_cell_angle_beta   89.99546268
_cell_angle_gamma   90.10414857
_symmetry_Int_Tables_number   1
_chemical_formula_structural   HfZrTaTiMo
_chemical_formula_sum   'Hf40 Zr40 Ta40 Ti40 Mo40'
_cell_volume   3904.64308455
_cell_formula_units_Z   40
loop_
 _symmetry_equiv_pos_site_id
 _symmetry_equiv_pos_as_xyz
  1  'x, y, z'
loop_
 _atom_site_type_symbol
 _atom_site_label
 _atom_site_symmetry_multiplicity
 _atom_site_fract_x
 _atom_site_fract_y
 _atom_site_fract_z
 _atom_site_occupancy
  Hf  Hf0  1  0.70354697  0.70566811  0.36155142  1
  Hf  Hf1  1  0.21324880  0.80968691  0.76651384  1
  Hf  Hf2  1  0.38825164  0.61112596  0.24428145  1
  Hf  Hf3  1  0.38856835  -0.00728484  0.74753452  1
  Hf  Hf4  1  0.50553103  0.49343826  0.87032904  1
  Hf  Hf5  1  -0.00354510  0.80654546  -0.00847972  1
  Hf  Hf6  1  0.20381221  0.61856137  0.50595882  1
  Hf  Hf7  1  0.60352844  0.01520570  0.01504904  1
  Hf  Hf8  1  0.01700240  0.79631392  0.24008144  1
  Hf  Hf9  1  0.49563768  0.49520051  0.37189438  1
  Hf  Hf10  1  0.09245542  0.29559416  0.89605705  1
  Hf  Hf11  1  0.79617108  0.38688209  0.48434510  1
  Hf  Hf12  1  0.49849780  0.27819322  0.35660158  1
  Hf  Hf13  1  0.40433806  0.60046743  0.75523973  1
  Hf  Hf14  1  0.59868049  0.80228489  0.49813060  1
  Hf  Hf15  1  0.70239529  0.90682931  0.14201194  1
  Hf  Hf16  1  0.09204049  0.10403279  0.10591108  1
  Hf  Hf17  1  0.08804227  0.11106794  0.38636786  1
  Hf  Hf18  1  0.50416475  0.09378029  0.87513555  1
  Hf  Hf19  1  0.30325630  0.11009840  0.38517025  1
  Hf  Hf20  1  0.20894367  0.18797097  0.75665945  1
  Hf  Hf21  1  0.29932054  0.50194329  0.62907281  1
  Hf  Hf22  1  0.29191796  0.51806684  0.37304142  1
  Hf  Hf23  1  0.10417049  0.10774782  0.89871824  1
  Hf  Hf24  1  0.28053131  0.29861419  0.61948345  1
  Hf  Hf25  1  0.20199185  0.40115247  -0.00122990  1
  Hf  Hf26  1  0.29533935  0.50472571  0.12333974  1
  Hf  Hf27  1  0.79948542  0.58455224  0.73822104  1
  Hf  Hf28  1  0.70455770  0.30469740  0.62283313  1
  Hf  Hf29  1  0.79573199  0.59921643  0.50887275  1
  Hf  Hf30  1  0.31031466  0.88820235  0.12825180  1
  Hf  Hf31  1  -0.02842368  0.39925794  0.76062056  1
  Hf  Hf32  1  0.50568793  0.29451206  0.87282309  1
  Hf  Hf33  1  -0.01928284  0.59763679  -0.00005044  1
  Hf  Hf34  1  0.59868025  0.19504751  0.50037404  1
  Hf  Hf35  1  0.09862469  0.91901155  0.86738642  1
  Hf  Hf36  1  0.91146929  0.69982860  0.37719277  1
  Hf  Hf37  1  0.71148493  0.90641394  0.36005642  1
  Hf  Hf38  1  0.50763066  0.11534323  0.14737387  1
  Hf  Hf39  1  0.00984020  0.20637234  0.75033936  1
  Zr  Zr40  1  0.18841740  0.40759009  0.48165101  1
  Zr  Zr41  1  0.69383802  0.90685651  0.87126723  1
  Zr  Zr42  1  -0.00104431  0.38590418  0.25845233  1
  Zr  Zr43  1  0.50533087  0.30930944  0.14398882  1
  Zr  Zr44  1  0.69289613  0.50374064  0.36340648  1
  Zr  Zr45  1  0.19838680  0.00441524  0.24745048  1
  Zr  Zr46  1  0.11043769  0.70285066  0.11081057  1
  Zr  Zr47  1  0.09780707  0.48421912  0.63373428  1
  Zr  Zr48  1  0.09304165  0.29577235  0.11042019  1
  Zr  Zr49  1  -0.00384085  0.59873101  0.74798980  1
  Zr  Zr50  1  0.80392192  0.79819941  0.00251848  1
  Zr  Zr51  1  0.10125281  0.90142337  0.37255778  1
  Zr  Zr52  1  0.41962810  -0.00503670  0.48189601  1
  Zr  Zr53  1  0.20139413  0.60030506  -0.01575227  1
  Zr  Zr54  1  0.89840303  0.10291006  0.62786866  1
  Zr  Zr55  1  0.78845560  0.36653905  0.26101521  1
  Zr  Zr56  1  0.39273936  0.78634867  0.48631901  1
  Zr  Zr57  1  0.01386583  0.80312174  0.51396866  1
  Zr  Zr58  1  0.20244512  0.59836893  0.76527843  1
  Zr  Zr59  1  0.80007372  0.81088117  0.51048041  1
  Zr  Zr60  1  0.00122318  0.38913909  0.48257498  1
  Zr  Zr61  1  0.39956548  0.37905583  0.49800214  1
  Zr  Zr62  1  0.21972454  -0.00189600  0.00312026  1
  Zr  Zr63  1  0.90671557  0.09331366  0.86774443  1
  Zr  Zr64  1  0.19208688  0.40649952  0.25462191  1
  Zr  Zr65  1  -0.00427373  0.79943851  0.75477189  1
  Zr  Zr66  1  0.51239356  0.69988247  0.88384867  1
  Zr  Zr67  1  0.69126438  0.48859480  0.14162267  1
  Zr  Zr68  1  0.89825061  0.50772961  0.36419276  1
  Zr  Zr69  1  0.60110849  0.80774344  0.00245508  1
  Zr  Zr70  1  0.70340694  0.69498278  0.13477767  1
  Zr  Zr71  1  0.70147384  0.11280755  0.87300086  1
  Zr  Zr72  1  0.79052156  0.39140329  0.00453259  1
  Zr  Zr73  1  0.90353899  0.90469969  0.37137781  1
  Zr  Zr74  1  0.50694611  0.49188093  0.62474328  1
  Zr  Zr75  1  0.49150085  0.71467214  0.11830650  1
  Zr  Zr76  1  0.41083022  0.19815986  0.73648343  1
  Zr  Zr77  1  0.10732258  0.11897153  0.60713693  1
  Zr  Zr78  1  0.29307873  0.89140109  0.61595996  1
  Zr  Zr79  1  0.30817143  0.09685181  0.60107590  1
  Ta  Ta80  1  0.39411086  0.39101475  0.74764451  1
  Ta  Ta81  1  0.30996678  0.10100349  0.12730869  1
  Ta  Ta82  1  0.19005323  0.61545375  0.24465809  1
  Ta  Ta83  1  0.88455801  0.68975255  0.87125095  1
  Ta  Ta84  1  0.49937099  0.69923748  0.62527715  1
  Ta  Ta85  1  0.59487684  0.40956208  0.00088497  1
  Ta  Ta86  1  0.40408013  0.00399563  0.26428511  1
  Ta  Ta87  1  0.58886122  0.60809929  0.24968677  1
  Ta  Ta88  1  0.39805714  0.80239466  0.26116999  1
  Ta  Ta89  1  0.09898503  0.91931484  0.64270745  1
  Ta  Ta90  1  0.10368431  0.90416646  0.11864772  1
  Ta  Ta91  1  0.90803246  0.90622775  0.12806372  1
  Ta  Ta92  1  0.49860073  0.50686830  0.12550924  1
  Ta  Ta93  1  0.59919083  0.39697427  0.49755984  1
  Ta  Ta94  1  0.11469104  0.70172447  0.37501482  1
  Ta  Ta95  1  0.00675525  0.59677735  0.50680489  1
  Ta  Ta96  1  0.11284334  0.71098489  0.63333560  1
  Ta  Ta97  1  0.80355185  0.21588153  0.74691527  1
  Ta  Ta98  1  0.70350580  0.50306662  0.87388893  1
  Ta  Ta99  1  0.40093615  0.39244817  0.00302253  1
  Ta  Ta100  1  0.60969099  0.21690953  0.00822602  1
  Ta  Ta101  1  0.61151560  0.01758674  0.25797570  1
  Ta  Ta102  1  0.20912112  0.80355333  -0.01484592  1
  Ta  Ta103  1  0.89601713  0.90464652  0.63884914  1
  Ta  Ta104  1  0.69218885  0.70223293  0.62611039  1
  Ta  Ta105  1  0.60777979  0.60152324  0.74288149  1
  Ta  Ta106  1  0.61244945  0.00041456  0.48560227  1
  Ta  Ta107  1  0.08442820  0.49475292  0.87854352  1
  Ta  Ta108  1  0.08877223  0.50065498  0.12029312  1
  Ta  Ta109  1  0.79099113  0.79458592  0.74350065  1
  Ta  Ta110  1  0.68561398  0.91549717  0.63073509  1
  Ta  Ta111  1  0.89281189  0.49837578  0.13761513  1
  Ta  Ta112  1  0.30592094  0.29133970  0.88080073  1
  Ta  Ta113  1  0.81310287  0.00777259  0.00658768  1
  Ta  Ta114  1  0.59531642  0.80236165  0.74650549  1
  Ta  Ta115  1  0.52063865  0.08063471  0.62496194  1
  Ta  Ta116  1  0.78801029  0.00498880  0.74312421  1
  Ta  Ta117  1  0.88490006  0.27874206  0.12198654  1
  Ta  Ta118  1  0.40637382  0.59395184  -0.00094444  1
  Ta  Ta119  1  0.30214650  0.29306571  0.12807993  1
  Ti  Ti120  1  0.51291855  0.89711614  0.36082861  1
  Ti  Ti121  1  -0.01688314  0.40223544  0.00235896  1
  Ti  Ti122  1  0.90316629  0.69953646  0.62459737  1
  Ti  Ti123  1  0.31049332  0.09181265  0.88391461  1
  Ti  Ti124  1  0.30450512  0.48835425  0.87382561  1
  Ti  Ti125  1  0.89186253  0.90196941  0.86197120  1
  Ti  Ti126  1  0.60822220  0.19286420  0.73535003  1
  Ti  Ti127  1  0.79508619  0.01173062  0.50791421  1
  Ti  Ti128  1  0.30633127  0.70194611  0.63233860  1
  Ti  Ti129  1  0.29045581  0.88855922  0.37156328  1
  Ti  Ti130  1  0.88960669  0.48521659  0.61640855  1
  Ti  Ti131  1  0.78868789  0.59369884  0.00352688  1
  Ti  Ti132  1  0.71688505  0.11383486  0.37189744  1
  Ti  Ti133  1  0.49741144  0.89355450  0.62327861  1
  Ti  Ti134  1  0.40836489  0.19198452  0.00544101  1
  Ti  Ti135  1  0.48833372  0.90159897  0.88124834  1
  Ti  Ti136  1  0.50085770  0.91305701  0.13849364  1
  Ti  Ti137  1  0.09300305  0.70001940  0.87742606  1
  Ti  Ti138  1  0.69607825  0.30844973  0.86584727  1
  Ti  Ti139  1  0.50039192  0.69699013  0.37164589  1
  Ti  Ti140  1  0.39233616  0.40107043  0.25109854  1
  Ti  Ti141  1  0.40503518  0.59610707  0.50176263  1
  Ti  Ti142  1  0.89837051  0.25864661  0.38267768  1
  Ti  Ti143  1  0.31831893  0.70849020  0.88430517  1
  Ti  Ti144  1  -0.00874599  0.00121743  0.50672156  1
  Ti  Ti145  1  0.19311118  -0.00993240  0.49489762  1
  Ti  Ti146  1  0.60558570  0.39913583  0.74141378  1
  Ti  Ti147  1  0.59827280  0.59969078  0.50182213  1
  Ti  Ti148  1  0.81820995  0.79363322  0.23955024  1
  Ti  Ti149  1  -0.00775982  0.00860523  0.24578253  1
  Ti  Ti150  1  0.18982138  0.20359059  0.24882670  1
  Ti  Ti151  1  0.91074463  0.29762928  0.61568216  1
  Ti  Ti152  1  0.71903395  0.11659446  0.13334576  1
  Ti  Ti153  1  0.19031750  0.38863614  0.76524306  1
  Ti  Ti154  1  0.88574679  0.29669744  0.88382056  1
  Ti  Ti155  1  0.70002425  0.69532290  0.87197646  1
  Ti  Ti156  1  -0.00192458  0.60195047  0.24014958  1
  Ti  Ti157  1  -0.00922772  0.19180101  0.24809168  1
  Ti  Ti158  1  0.29334837  0.29589272  0.37090163  1
  Ti  Ti159  1  0.40698095  0.79900875  0.75306394  1
  Mo  Mo160  1  0.51038618  0.09606724  0.36235819  1
  Mo  Mo161  1  0.37583895  0.19610250  0.24894892  1
  Mo  Mo162  1  0.21050188  0.79536987  0.24459124  1
  Mo  Mo163  1  0.88761227  0.49932642  0.88275353  1
  Mo  Mo164  1  0.80663553  0.60510461  0.24310757  1
  Mo  Mo165  1  0.59156631  0.80516467  0.25250755  1
  Mo  Mo166  1  -0.00023975  0.00542701  0.74576683  1
  Mo  Mo167  1  0.49894096  0.29122910  0.62832911  1
  Mo  Mo168  1  0.80095342  0.19376748  0.50297351  1
  Mo  Mo169  1  0.40934952  0.19883595  0.50756696  1
  Mo  Mo170  1  0.23064756  0.20491419  0.00121764  1
  Mo  Mo171  1  0.39625635  0.81071455  -0.00412912  1
  Mo  Mo172  1  0.60492936  0.58945385  -0.00018608  1
  Mo  Mo173  1  0.19921451  0.00947046  0.75442531  1
  Mo  Mo174  1  0.08847131  0.52634000  0.37116193  1
  Mo  Mo175  1  0.69451352  0.29206973  0.12768178  1
  Mo  Mo176  1  0.79201492  0.39543233  0.75180562  1
  Mo  Mo177  1  -0.00395668  -0.00936265  0.00258568  1
  Mo  Mo178  1  -0.00638164  0.19991474  0.50265892  1
  Mo  Mo179  1  0.41574468  0.00324223  0.00958934  1
  Mo  Mo180  1  0.90106759  0.69325518  0.12765980  1
  Mo  Mo181  1  0.58807194  -0.00626804  0.74980287  1
  Mo  Mo182  1  0.58880441  0.40561711  0.25631328  1
  Mo  Mo183  1  0.19823651  0.21677039  0.48873811  1
  Mo  Mo184  1  0.30368427  0.70150906  0.11028728  1
  Mo  Mo185  1  -0.03410210  0.19675090  0.00047375  1
  Mo  Mo186  1  0.69831500  0.50038924  0.61626761  1
  Mo  Mo187  1  0.80933543  0.00443650  0.24380857  1
  Mo  Mo188  1  0.80934801  0.18076101  0.25368313  1
  Mo  Mo189  1  0.89704109  0.08467403  0.38358540  1
  Mo  Mo190  1  0.30076679  0.70475136  0.37380321  1
  Mo  Mo191  1  0.19553635  0.80593736  0.50678966  1
  Mo  Mo192  1  0.62976902  0.21060961  0.25645673  1
  Mo  Mo193  1  0.70068949  0.10048724  0.62913472  1
  Mo  Mo194  1  0.78954592  0.19509574  -0.00419537  1
  Mo  Mo195  1  0.09548997  0.30761833  0.63076526  1
  Mo  Mo196  1  0.31323671  0.90226959  0.87881030  1
  Mo  Mo197  1  0.69677536  0.29421446  0.38402453  1
  Mo  Mo198  1  0.90286666  0.09514180  0.12230822  1
  Mo  Mo199  1  0.10070065  0.28875153  0.36579768  1
