# generated using pymatgen
data_HfZrTaTiMo
_symmetry_space_group_name_H-M   'P 1'
_cell_length_a   15.18815083
_cell_length_b   15.20481528
_cell_length_c   16.83616497
_cell_angle_alpha   90.02529203
_cell_angle_beta   89.96540236
_cell_angle_gamma   89.99713943
_symmetry_Int_Tables_number   1
_chemical_formula_structural   HfZrTaTiMo
_chemical_formula_sum   'Hf40 Zr40 Ta40 Ti40 Mo40'
_cell_volume   3888.02546028
_cell_formula_units_Z   40
loop_
 _symmetry_equiv_pos_site_id
 _symmetry_equiv_pos_as_xyz
  1  'x, y, z'
loop_
 _atom_site_type_symbol
 _atom_site_label
 _atom_site_symmetry_multiplicity
 _atom_site_fract_x
 _atom_site_fract_y
 _atom_site_fract_z
 _atom_site_occupancy
  Hf  Hf0  1  0.79454596  0.80245251  0.50562467  1
  Hf  Hf1  1  0.60085346  0.01474972  0.73877029  1
  Hf  Hf2  1  0.10186896  0.29659670  0.61453056  1
  Hf  Hf3  1  0.10001260  0.48731531  0.38387117  1
  Hf  Hf4  1  0.67863882  0.31177996  0.37168422  1
  Hf  Hf5  1  0.10578566  0.29443355  0.38910615  1
  Hf  Hf6  1  0.38674950  -0.00298454  -0.00106834  1
  Hf  Hf7  1  0.00006632  0.80219989  0.25566072  1
  Hf  Hf8  1  0.49606388  0.29414546  0.12471369  1
  Hf  Hf9  1  0.80420183  0.41035799  0.24473555  1
  Hf  Hf10  1  0.60009513  0.00262118  0.52072687  1
  Hf  Hf11  1  0.57508141  0.20878662  0.50703610  1
  Hf  Hf12  1  0.10600596  0.70379976  0.11587468  1
  Hf  Hf13  1  0.80784871  0.00413509  0.50694525  1
  Hf  Hf14  1  0.68807001  0.30729406  0.63528539  1
  Hf  Hf15  1  0.20992586  0.81566037  0.48698892  1
  Hf  Hf16  1  0.41984939  0.59085110  0.49125514  1
  Hf  Hf17  1  0.21094106  0.81621311  0.00814651  1
  Hf  Hf18  1  0.70934108  0.89256345  0.37168311  1
  Hf  Hf19  1  0.01028344  0.39606575  0.23423656  1
  Hf  Hf20  1  0.10373498  0.69295027  0.37997154  1
  Hf  Hf21  1  0.59218222  0.00485476  -0.01308980  1
  Hf  Hf22  1  0.40448992  0.79319631  -0.00805882  1
  Hf  Hf23  1  0.39400643  0.00108348  0.50911146  1
  Hf  Hf24  1  0.70385325  0.90593257  0.12210956  1
  Hf  Hf25  1  0.20724790  0.59916787  0.25188120  1
  Hf  Hf26  1  0.09942541  0.69896958  0.60884729  1
  Hf  Hf27  1  0.51004487  0.91234894  0.36488627  1
  Hf  Hf28  1  0.11235777  0.50723217  0.89453756  1
  Hf  Hf29  1  0.40098215  0.58775254  -0.01309674  1
  Hf  Hf30  1  0.10887925  0.10294102  0.12962228  1
  Hf  Hf31  1  0.09799716  0.70505375  0.89942587  1
  Hf  Hf32  1  0.30391599  0.90018312  0.14909475  1
  Hf  Hf33  1  -0.00514585  0.80922176  0.48454923  1
  Hf  Hf34  1  0.79629053  0.01584824  -0.00526909  1
  Hf  Hf35  1  0.50213814  0.88151062  0.63676982  1
  Hf  Hf36  1  0.00397737  0.61054975  0.75387990  1
  Hf  Hf37  1  0.00278552  0.20005401  0.24987623  1
  Hf  Hf38  1  0.01870778  0.00475781  0.48093085  1
  Hf  Hf39  1  0.60372227  0.39846680  -0.00892151  1
  Zr  Zr40  1  0.19356056  0.79178855  0.74868549  1
  Zr  Zr41  1  -0.01783614  0.40396712  0.00866846  1
  Zr  Zr42  1  0.31024932  0.11442729  0.36764595  1
  Zr  Zr43  1  0.90237410  0.49119359  0.86874870  1
  Zr  Zr44  1  0.10795485  0.90937060  0.62348199  1
  Zr  Zr45  1  0.31618799  0.89703060  0.35828878  1
  Zr  Zr46  1  0.40617312  0.77532357  0.75884032  1
  Zr  Zr47  1  0.01074090  0.00702734  -0.00445822  1
  Zr  Zr48  1  0.49893087  0.89784952  0.13764984  1
  Zr  Zr49  1  0.89615131  0.70760676  0.62851417  1
  Zr  Zr50  1  0.88333017  0.69381583  0.37485451  1
  Zr  Zr51  1  0.10109420  0.90977519  0.87776883  1
  Zr  Zr52  1  0.90273619  0.50075290  0.63759743  1
  Zr  Zr53  1  0.31087373  0.69609056  0.61775977  1
  Zr  Zr54  1  0.08605276  0.29564523  0.87490859  1
  Zr  Zr55  1  0.20941563  0.39647102  0.75290607  1
  Zr  Zr56  1  -0.00827310  0.01712974  0.75712959  1
  Zr  Zr57  1  0.31440412  0.48591016  0.62097890  1
  Zr  Zr58  1  0.60564087  0.79557267  -0.01551560  1
  Zr  Zr59  1  0.67892934  0.09272533  0.37192233  1
  Zr  Zr60  1  0.49349829  0.91372592  0.85691771  1
  Zr  Zr61  1  0.59847505  0.42400751  0.50974991  1
  Zr  Zr62  1  -0.00743715  0.59447130  0.23990117  1
  Zr  Zr63  1  0.78544618  0.19924424  0.50672520  1
  Zr  Zr64  1  0.60929586  0.19842283  -0.00949278  1
  Zr  Zr65  1  0.51387486  0.48896152  0.35737253  1
  Zr  Zr66  1  0.90299252  0.12823402  0.87713465  1
  Zr  Zr67  1  0.59011695  0.60775588  0.77558235  1
  Zr  Zr68  1  0.30950295  0.09320362  0.86013459  1
  Zr  Zr69  1  0.30818005  0.10405568  0.13573198  1
  Zr  Zr70  1  0.71002434  0.51053207  0.36830938  1
  Zr  Zr71  1  0.89458058  0.09813339  0.12845337  1
  Zr  Zr72  1  0.81152906  0.81095122  0.76549288  1
  Zr  Zr73  1  0.60464032  0.78645077  0.24488735  1
  Zr  Zr74  1  0.19974876  0.59381347  0.74643093  1
  Zr  Zr75  1  0.79501312  0.58625135  -0.00126476  1
  Zr  Zr76  1  0.30341110  0.50190107  0.11687421  1
  Zr  Zr77  1  0.78701669  0.20241574  0.25615918  1
  Zr  Zr78  1  0.89964512  0.30980951  0.38377566  1
  Zr  Zr79  1  0.69192734  0.51314578  0.64558435  1
  Ta  Ta80  1  0.50464282  0.09565574  0.12738147  1
  Ta  Ta81  1  0.20868077  0.59341955  0.49369934  1
  Ta  Ta82  1  0.90808842  0.91408036  0.62769749  1
  Ta  Ta83  1  0.40061842  0.60093430  0.25293047  1
  Ta  Ta84  1  0.90484953  0.29758328  0.62014344  1
  Ta  Ta85  1  0.00309215  0.20948041  0.01189471  1
  Ta  Ta86  1  0.40948312  0.38647194  0.49996372  1
  Ta  Ta87  1  0.41105362  0.79529924  0.49651225  1
  Ta  Ta88  1  0.59831352  0.79397033  0.50144089  1
  Ta  Ta89  1  0.38273364  0.20461072  0.50813573  1
  Ta  Ta90  1  0.10347758  0.90840192  0.13408631  1
  Ta  Ta91  1  0.20285032  0.21931513  0.25142215  1
  Ta  Ta92  1  0.10413021  0.50103266  0.10759453  1
  Ta  Ta93  1  0.78591036  0.60034723  0.50872057  1
  Ta  Ta94  1  0.39467250  0.57551172  0.76729755  1
  Ta  Ta95  1  0.79650288  0.61440218  0.76964659  1
  Ta  Ta96  1  0.70084609  0.10910391  0.85823799  1
  Ta  Ta97  1  0.30511372  0.49007519  0.37611168  1
  Ta  Ta98  1  0.90704396  0.70671962  0.89469635  1
  Ta  Ta99  1  0.80666708  0.40917989  0.50895129  1
  Ta  Ta100  1  0.19092932  0.00728967  0.26685615  1
  Ta  Ta101  1  0.80343026  0.19141576  0.73278201  1
  Ta  Ta102  1  0.90758678  0.89853638  0.12100157  1
  Ta  Ta103  1  0.88894242  0.29997915  0.12289839  1
  Ta  Ta104  1  0.50463799  0.49290507  0.12791327  1
  Ta  Ta105  1  0.58311459  0.21864697  0.75606188  1
  Ta  Ta106  1  -0.00862012  0.59109951  0.50127867  1
  Ta  Ta107  1  0.39090546  0.39184769  0.24666658  1
  Ta  Ta108  1  0.18496192  0.19208850  0.75170877  1
  Ta  Ta109  1  0.69080236  0.70985852  0.63441913  1
  Ta  Ta110  1  0.69515129  0.49257306  0.12428844  1
  Ta  Ta111  1  0.49127363  0.68704641  0.12236531  1
  Ta  Ta112  1  0.29690014  0.89434487  0.86244505  1
  Ta  Ta113  1  0.89918189  0.70494308  0.10592201  1
  Ta  Ta114  1  0.20295873  0.18844321  -0.00860327  1
  Ta  Ta115  1  0.89615892  0.09624811  0.37004514  1
  Ta  Ta116  1  0.70840898  0.90061344  0.63769732  1
  Ta  Ta117  1  0.80612531  0.79686805  0.23974173  1
  Ta  Ta118  1  0.79457821  0.61038063  0.22865119  1
  Ta  Ta119  1  0.80397917  -0.00732211  0.25007867  1
  Ti  Ti120  1  0.00471043  0.39310538  0.74754663  1
  Ti  Ti121  1  0.30500765  0.29533222  0.87133940  1
  Ti  Ti122  1  0.69288629  0.10434620  0.13314435  1
  Ti  Ti123  1  0.50749289  0.67819156  0.62609155  1
  Ti  Ti124  1  0.10103000  0.49346150  0.61098456  1
  Ti  Ti125  1  0.30305853  0.89842161  0.63198178  1
  Ti  Ti126  1  0.61174920  0.79517314  0.76987603  1
  Ti  Ti127  1  0.49831508  0.70310607  0.37034587  1
  Ti  Ti128  1  0.59514179  0.59781907  -0.01071423  1
  Ti  Ti129  1  -0.01060473  0.19412320  0.49674922  1
  Ti  Ti130  1  0.28430114  0.09252284  0.63006864  1
  Ti  Ti131  1  0.19615807  -0.00023205  0.75010071  1
  Ti  Ti132  1  0.69132832  0.69506577  0.37383293  1
  Ti  Ti133  1  0.90234434  0.50210112  0.38046864  1
  Ti  Ti134  1  0.19389019  0.17634908  0.49935026  1
  Ti  Ti135  1  0.48043559  0.11647145  0.63860681  1
  Ti  Ti136  1  0.20153942  0.40016517  0.24299501  1
  Ti  Ti137  1  0.57383075  0.18916617  0.25583266  1
  Ti  Ti138  1  0.20349276  0.38803056  -0.00218902  1
  Ti  Ti139  1  0.40663467  0.19362192  -0.00921003  1
  Ti  Ti140  1  0.80399506  0.39307195  0.74835066  1
  Ti  Ti141  1  0.00088509  0.80834748  0.75683505  1
  Ti  Ti142  1  -0.00055785  -0.00496855  0.26332608  1
  Ti  Ti143  1  0.20406497  0.79391663  0.25699027  1
  Ti  Ti144  1  0.49557959  0.47883882  0.87361911  1
  Ti  Ti145  1  0.21676027  0.38661025  0.50210999  1
  Ti  Ti146  1  0.47673460  0.28817560  0.36645317  1
  Ti  Ti147  1  0.69628813  0.69902926  0.11097811  1
  Ti  Ti148  1  0.39865601  0.38602585  -0.00580535  1
  Ti  Ti149  1  0.80546407  0.81388426  -0.01149752  1
  Ti  Ti150  1  0.08727935  0.10130803  0.62385623  1
  Ti  Ti151  1  0.70325745  0.49132358  0.86864183  1
  Ti  Ti152  1  0.41852598  0.38001192  0.75193122  1
  Ti  Ti153  1  0.60248204  0.59438186  0.23795602  1
  Ti  Ti154  1  0.71604039  0.29847008  0.86748243  1
  Ti  Ti155  1  0.30276790  0.28405590  0.63406939  1
  Ti  Ti156  1  0.70979112  0.91487777  0.86567172  1
  Ti  Ti157  1  0.69386134  0.29787592  0.12948348  1
  Ti  Ti158  1  0.29073810  0.68475097  0.87937856  1
  Ti  Ti159  1  0.29245850  0.29550976  0.11703207  1
  Mo  Mo160  1  0.38695528  0.19988330  0.74459507  1
  Mo  Mo161  1  0.00055215  0.40228292  0.50669920  1
  Mo  Mo162  1  0.20808470  0.60121482  0.00448208  1
  Mo  Mo163  1  0.78678017  0.38565174  0.00364730  1
  Mo  Mo164  1  0.30895071  0.69071594  0.38297259  1
  Mo  Mo165  1  0.69311323  0.10705340  0.63444782  1
  Mo  Mo166  1  0.30844316  0.70219220  0.12840216  1
  Mo  Mo167  1  0.48715157  0.31037241  0.62805200  1
  Mo  Mo168  1  0.49438830  0.69313409  0.88029926  1
  Mo  Mo169  1  0.49389815  0.10340077  0.38222840  1
  Mo  Mo170  1  0.41813641  0.01986013  0.25406697  1
  Mo  Mo171  1  0.30351787  0.48134628  0.88125297  1
  Mo  Mo172  1  0.89952895  0.90465244  0.88321571  1
  Mo  Mo173  1  0.10888125  0.10953350  0.87608012  1
  Mo  Mo174  1  0.11014181  0.30094076  0.11567786  1
  Mo  Mo175  1  -0.00165671  0.60200661  0.00979419  1
  Mo  Mo176  1  0.61067619  0.00646837  0.24502020  1
  Mo  Mo177  1  0.70833026  0.70094247  0.88705959  1
  Mo  Mo178  1  0.59663771  0.39202941  0.24033182  1
  Mo  Mo179  1  0.60102082  0.40017549  0.76787886  1
  Mo  Mo180  1  0.39668347  0.77739742  0.25003892  1
  Mo  Mo181  1  0.49930418  0.10742888  0.86143727  1
  Mo  Mo182  1  -0.00208502  0.21176385  0.73816763  1
  Mo  Mo183  1  0.10541732  0.89922578  0.36306527  1
  Mo  Mo184  1  0.20836662  0.00435729  0.00317510  1
  Mo  Mo185  1  0.39032390  -0.00276476  0.72983168  1
  Mo  Mo186  1  0.89582650  0.90394459  0.36704412  1
  Mo  Mo187  1  0.90529396  0.10300713  0.61860239  1
  Mo  Mo188  1  0.89383720  0.50222065  0.12384015  1
  Mo  Mo189  1  -0.00256748  0.81013853  0.00898555  1
  Mo  Mo190  1  0.09808296  0.10625673  0.36858498  1
  Mo  Mo191  1  0.49762002  0.50027247  0.63835959  1
  Mo  Mo192  1  0.20921176  0.00670313  0.49399568  1
  Mo  Mo193  1  0.39396398  0.21110386  0.24451597  1
  Mo  Mo194  1  0.29492196  0.31221792  0.37704841  1
  Mo  Mo195  1  0.89117532  0.30364076  0.86806241  1
  Mo  Mo196  1  0.79885179  0.21411091  0.00364033  1
  Mo  Mo197  1  0.49285706  0.29033411  0.87985538  1
  Mo  Mo198  1  0.80025656  0.00645053  0.74512543  1
  Mo  Mo199  1  0.60313857  0.61701975  0.50187197  1
