# generated using pymatgen
data_HfZrTaTiMo
_symmetry_space_group_name_H-M   'P 1'
_cell_length_a   15.21179251
_cell_length_b   15.20704370
_cell_length_c   16.85329005
_cell_angle_alpha   89.97089412
_cell_angle_beta   90.00868912
_cell_angle_gamma   90.02706042
_symmetry_Int_Tables_number   1
_chemical_formula_structural   HfZrTaTiMo
_chemical_formula_sum   'Hf40 Zr40 Ta40 Ti40 Mo40'
_cell_volume   3898.60982278
_cell_formula_units_Z   40
loop_
 _symmetry_equiv_pos_site_id
 _symmetry_equiv_pos_as_xyz
  1  'x, y, z'
loop_
 _atom_site_type_symbol
 _atom_site_label
 _atom_site_symmetry_multiplicity
 _atom_site_fract_x
 _atom_site_fract_y
 _atom_site_fract_z
 _atom_site_occupancy
  Hf  Hf0  1  0.62657898  0.78799827  -0.00640109  1
  Hf  Hf1  1  0.49513494  0.09168367  0.11069826  1
  Hf  Hf2  1  0.49311282  0.09350102  0.63075415  1
  Hf  Hf3  1  0.59886419  0.39818951  0.49524221  1
  Hf  Hf4  1  0.60383626  -0.00372374  0.75508118  1
  Hf  Hf5  1  0.81075587  0.01787611  0.73782415  1
  Hf  Hf6  1  0.28641604  0.50625089  0.10299570  1
  Hf  Hf7  1  0.29867025  0.11253298  0.39298581  1
  Hf  Hf8  1  0.71734776  0.88300633  0.86202689  1
  Hf  Hf9  1  0.00628156  0.41445379  0.26375495  1
  Hf  Hf10  1  0.11934152  0.89793433  0.85943580  1
  Hf  Hf11  1  0.48957837  0.48563546  0.10598859  1
  Hf  Hf12  1  0.39743277  0.59527668  0.23652248  1
  Hf  Hf13  1  0.19341321  0.19689592  -0.00890463  1
  Hf  Hf14  1  0.79431549  0.40444762  0.26690305  1
  Hf  Hf15  1  0.00468403  -0.00408161  0.25424977  1
  Hf  Hf16  1  0.00160746  0.19557569  0.25375665  1
  Hf  Hf17  1  0.01400954  0.80108634  0.50292144  1
  Hf  Hf18  1  0.09840138  0.70428053  0.12228186  1
  Hf  Hf19  1  0.48728105  0.09076692  0.87193781  1
  Hf  Hf20  1  0.50333746  0.70148327  0.37806111  1
  Hf  Hf21  1  0.10270962  0.70125883  0.87025786  1
  Hf  Hf22  1  0.39882150  0.19927855  0.24972726  1
  Hf  Hf23  1  0.30013842  0.30139335  0.11469193  1
  Hf  Hf24  1  0.48100194  0.29458579  0.38122862  1
  Hf  Hf25  1  0.02813502  -0.00331122  -0.00266924  1
  Hf  Hf26  1  0.58926465  -0.00877070  0.50865467  1
  Hf  Hf27  1  0.88347154  0.10720008  0.38980053  1
  Hf  Hf28  1  0.39271025  0.40838956  0.51896127  1
  Hf  Hf29  1  0.50167106  0.69269383  0.88267002  1
  Hf  Hf30  1  0.38216388  0.61270501  0.75555590  1
  Hf  Hf31  1  0.11881025  0.69036154  0.63741941  1
  Hf  Hf32  1  -0.01353665  0.20014170  0.73165630  1
  Hf  Hf33  1  0.08411381  0.49643390  0.62609902  1
  Hf  Hf34  1  0.90340549  0.90531583  0.38448075  1
  Hf  Hf35  1  0.69870591  0.68295717  0.61935923  1
  Hf  Hf36  1  0.29167762  0.29886752  0.86392462  1
  Hf  Hf37  1  0.89661473  0.30763157  0.13419905  1
  Hf  Hf38  1  0.30116816  0.91224265  0.12493503  1
  Hf  Hf39  1  0.48996827  0.68277702  0.61966441  1
  Zr  Zr40  1  0.90460479  0.09809205  0.87625811  1
  Zr  Zr41  1  0.60593418  0.20305950  0.75696241  1
  Zr  Zr42  1  0.59665491  0.79627699  0.50442990  1
  Zr  Zr43  1  0.09426676  0.49674487  0.87109702  1
  Zr  Zr44  1  0.79354846  0.60610582  0.25873269  1
  Zr  Zr45  1  0.29561424  0.72256248  0.89774754  1
  Zr  Zr46  1  0.79295251  0.40347948  0.00231879  1
  Zr  Zr47  1  0.00093241  0.00432356  0.51990933  1
  Zr  Zr48  1  0.91362001  0.29844127  0.37990048  1
  Zr  Zr49  1  0.11116495  0.10522730  0.85289248  1
  Zr  Zr50  1  0.61127997  0.18254197  0.26004124  1
  Zr  Zr51  1  0.12566561  0.09558982  0.13042390  1
  Zr  Zr52  1  0.20697886  0.79481220  0.49893012  1
  Zr  Zr53  1  0.08545587  0.50206871  0.11957405  1
  Zr  Zr54  1  0.89614214  0.10224892  0.11749155  1
  Zr  Zr55  1  0.50494379  0.69198150  0.11056236  1
  Zr  Zr56  1  0.90755047  0.69025587  0.61358991  1
  Zr  Zr57  1  0.59061033  0.40280409  0.26099003  1
  Zr  Zr58  1  0.81548320  0.79733984  0.73581130  1
  Zr  Zr59  1  0.70074813  0.90266482  0.38226923  1
  Zr  Zr60  1  0.81401093  -0.02309213  -0.00610408  1
  Zr  Zr61  1  0.69612866  0.49001224  0.62275580  1
  Zr  Zr62  1  0.69775610  0.89632863  0.63362447  1
  Zr  Zr63  1  -0.00411476  0.21076218  -0.00067419  1
  Zr  Zr64  1  0.40481788  0.80270715  0.24434909  1
  Zr  Zr65  1  0.48985981  0.51047380  0.37846828  1
  Zr  Zr66  1  0.60897503  0.19356881  0.50233204  1
  Zr  Zr67  1  0.79532484  0.01430665  0.24693020  1
  Zr  Zr68  1  0.30195178  0.68934157  0.37563617  1
  Zr  Zr69  1  0.59614235  -0.01656570  0.25193821  1
  Zr  Zr70  1  0.89514033  0.31784287  0.61530963  1
  Zr  Zr71  1  0.39897781  0.00496235  0.25213282  1
  Zr  Zr72  1  -0.01740757  0.60298768  0.75536573  1
  Zr  Zr73  1  0.40412959  0.40899820  0.74446718  1
  Zr  Zr74  1  0.10427690  0.30708844  0.13357936  1
  Zr  Zr75  1  0.78801640  0.61654700  -0.00022390  1
  Zr  Zr76  1  -0.01462031  0.60503001  -0.00571104  1
  Zr  Zr77  1  0.69875247  0.29350552  0.12481014  1
  Zr  Zr78  1  0.50031067  0.29536296  0.11218941  1
  Zr  Zr79  1  0.29523622  0.51159313  0.89392822  1
  Ta  Ta80  1  -0.00140408  0.61049569  0.26519046  1
  Ta  Ta81  1  0.31302529  0.90636368  0.38301170  1
  Ta  Ta82  1  -0.00544408  0.80907219  -0.00632362  1
  Ta  Ta83  1  0.00926898  0.20755100  0.51317683  1
  Ta  Ta84  1  0.00403420  0.79768506  0.25932886  1
  Ta  Ta85  1  0.29836856  0.09839343  0.61987176  1
  Ta  Ta86  1  0.88914559  0.29853474  0.86955352  1
  Ta  Ta87  1  0.79803405  0.40869790  0.47999552  1
  Ta  Ta88  1  0.70179257  0.69037509  0.39027471  1
  Ta  Ta89  1  0.51594194  0.89567009  0.11444680  1
  Ta  Ta90  1  0.19560681  0.59455063  0.24971841  1
  Ta  Ta91  1  0.23330660  0.00227572  -0.01410742  1
  Ta  Ta92  1  0.19601072  0.39779485  0.51106037  1
  Ta  Ta93  1  0.10830733  0.89436021  0.12987864  1
  Ta  Ta94  1  0.58770314  0.58883602  0.75490875  1
  Ta  Ta95  1  0.08830874  0.30197304  0.85752594  1
  Ta  Ta96  1  0.59738725  0.39846331  0.75511504  1
  Ta  Ta97  1  0.80712753  0.80570053  0.50864635  1
  Ta  Ta98  1  0.49515307  0.08399066  0.38958063  1
  Ta  Ta99  1  0.19598681  0.20793112  0.51315757  1
  Ta  Ta100  1  0.20104420  -0.00056448  0.50366652  1
  Ta  Ta101  1  0.49769552  0.88736254  0.86352901  1
  Ta  Ta102  1  0.29244904  0.48416607  0.37689621  1
  Ta  Ta103  1  0.61371290  0.78059154  0.24808437  1
  Ta  Ta104  1  0.09848008  0.10540299  0.38417987  1
  Ta  Ta105  1  0.20333755  0.00242696  0.26538068  1
  Ta  Ta106  1  0.28994626  0.52209157  0.62741625  1
  Ta  Ta107  1  0.80613982  0.80314363  0.25466810  1
  Ta  Ta108  1  0.71203709  0.88546980  0.12327375  1
  Ta  Ta109  1  0.00546243  0.59774782  0.48163425  1
  Ta  Ta110  1  0.88380377  0.49653897  0.87210869  1
  Ta  Ta111  1  0.38589370  0.18442486  -0.00898086  1
  Ta  Ta112  1  0.60142080  0.19591785  -0.01336663  1
  Ta  Ta113  1  0.60260522  -0.01303229  -0.01388971  1
  Ta  Ta114  1  0.68604057  0.50872125  0.13004646  1
  Ta  Ta115  1  0.11863200  0.90025120  0.63740538  1
  Ta  Ta116  1  0.68851174  0.49728703  0.87197792  1
  Ta  Ta117  1  0.31258744  0.90196651  0.62517632  1
  Ta  Ta118  1  0.00067372  -0.00536826  0.73175436  1
  Ta  Ta119  1  0.69547489  0.09140727  0.10412963  1
  Ti  Ti120  1  0.37830064  0.39727338  0.25008500  1
  Ti  Ti121  1  0.60314590  0.58694896  -0.00603133  1
  Ti  Ti122  1  0.49542057  0.88592193  0.64564344  1
  Ti  Ti123  1  0.20966353  0.20583383  0.25792107  1
  Ti  Ti124  1  0.49650860  0.30287296  0.88465112  1
  Ti  Ti125  1  0.29179827  0.29966306  0.63637202  1
  Ti  Ti126  1  0.91115500  0.89365825  0.12916653  1
  Ti  Ti127  1  0.28972394  0.70748037  0.10472499  1
  Ti  Ti128  1  0.40375041  0.80776310  0.50101868  1
  Ti  Ti129  1  0.18376755  0.39402338  -0.00994462  1
  Ti  Ti130  1  0.23105477  0.79320796  0.74473569  1
  Ti  Ti131  1  0.49178382  0.49009748  0.89344591  1
  Ti  Ti132  1  0.90026074  0.70521721  0.38446788  1
  Ti  Ti133  1  0.38947173  0.19391380  0.74804169  1
  Ti  Ti134  1  0.40175710  0.82241084  0.00128448  1
  Ti  Ti135  1  0.12429646  0.30446402  0.37499341  1
  Ti  Ti136  1  -0.01042389  0.40133052  -0.00848038  1
  Ti  Ti137  1  0.10988676  0.50444948  0.37533730  1
  Ti  Ti138  1  0.70059689  0.30135540  0.88115267  1
  Ti  Ti139  1  0.88631429  0.71675013  0.87390788  1
  Ti  Ti140  1  0.71068549  0.27977923  0.37682676  1
  Ti  Ti141  1  0.20239273  0.59397829  0.49681722  1
  Ti  Ti142  1  0.20086996  0.79989598  0.25784931  1
  Ti  Ti143  1  0.88734614  0.50624110  0.61244405  1
  Ti  Ti144  1  0.78999186  0.01556110  0.52082478  1
  Ti  Ti145  1  0.10949822  0.90006010  0.37535016  1
  Ti  Ti146  1  0.79178882  0.39401607  0.75344738  1
  Ti  Ti147  1  0.00752142  0.40501632  0.48947909  1
  Ti  Ti148  1  0.70571720  0.29069905  0.62538606  1
  Ti  Ti149  1  0.88936333  0.50907103  0.13080587  1
  Ti  Ti150  1  0.00340052  0.80720026  0.74236992  1
  Ti  Ti151  1  0.39750698  0.20458565  0.51292637  1
  Ti  Ti152  1  0.78933955  0.59331492  0.75606112  1
  Ti  Ti153  1  0.71128979  0.10522814  0.88351499  1
  Ti  Ti154  1  0.22167875  0.00671990  0.74689390  1
  Ti  Ti155  1  0.89449002  0.70931053  0.12972632  1
  Ti  Ti156  1  0.50421128  0.30257913  0.62982409  1
  Ti  Ti157  1  -0.01479621  0.40202898  0.74935111  1
  Ti  Ti158  1  0.11011536  0.10600858  0.63323756  1
  Ti  Ti159  1  0.19285667  0.40557512  0.74224272  1
  Mo  Mo160  1  0.90258200  0.50837467  0.38120948  1
  Mo  Mo161  1  0.18824132  0.82125307  0.00387687  1
  Mo  Mo162  1  0.79566745  0.19884918  0.24912261  1
  Mo  Mo163  1  0.40045465  0.60630954  0.00290488  1
  Mo  Mo164  1  0.41236195  -0.00425523  -0.00275478  1
  Mo  Mo165  1  0.69896453  0.10815403  0.63130413  1
  Mo  Mo166  1  0.59917189  0.59836653  0.24639423  1
  Mo  Mo167  1  0.49525533  0.89250627  0.37469793  1
  Mo  Mo168  1  0.70504793  0.69862700  0.13103433  1
  Mo  Mo169  1  0.31492619  0.91174301  0.86585532  1
  Mo  Mo170  1  0.39897575  -0.00301748  0.74449765  1
  Mo  Mo171  1  0.40669717  0.80003795  0.75023264  1
  Mo  Mo172  1  0.30342961  0.70799545  0.61766157  1
  Mo  Mo173  1  0.69630793  0.09706033  0.38398797  1
  Mo  Mo174  1  0.92342993  0.89562390  0.86522173  1
  Mo  Mo175  1  0.29581197  0.30309297  0.38574193  1
  Mo  Mo176  1  0.59863506  0.78090476  0.75352265  1
  Mo  Mo177  1  0.90884773  0.90199762  0.61640125  1
  Mo  Mo178  1  0.80169591  0.20483718  0.50547304  1
  Mo  Mo179  1  0.59682372  0.58907687  0.50038083  1
  Mo  Mo180  1  0.20537976  0.40444892  0.25300279  1
  Mo  Mo181  1  0.79431766  0.21294849  0.75340208  1
  Mo  Mo182  1  0.69266500  0.50376991  0.38117808  1
  Mo  Mo183  1  0.30336921  0.10391540  0.86154287  1
  Mo  Mo184  1  0.10029937  0.30768837  0.62960370  1
  Mo  Mo185  1  0.81558613  0.79644488  0.00132420  1
  Mo  Mo186  1  0.39634266  -0.00499261  0.50464357  1
  Mo  Mo187  1  0.18985459  0.61318381  0.00693249  1
  Mo  Mo188  1  0.10216785  0.69924985  0.36749004  1
  Mo  Mo189  1  0.89197181  0.11202821  0.61385300  1
  Mo  Mo190  1  0.49842867  0.49524902  0.63058009  1
  Mo  Mo191  1  0.39179614  0.38758501  -0.01269597  1
  Mo  Mo192  1  0.38796964  0.60145758  0.50359910  1
  Mo  Mo193  1  0.30008654  0.10579243  0.12467482  1
  Mo  Mo194  1  0.59796327  0.39683658  -0.01229487  1
  Mo  Mo195  1  0.19843598  0.59876388  0.75064962  1
  Mo  Mo196  1  0.79205333  0.19569751  -0.00437499  1
  Mo  Mo197  1  0.19912121  0.20733652  0.73293331  1
  Mo  Mo198  1  0.70012304  0.68902981  0.85907046  1
  Mo  Mo199  1  0.80239625  0.59825101  0.48737694  1
