# generated using pymatgen
data_HfZrTaTiMo
_symmetry_space_group_name_H-M   'P 1'
_cell_length_a   15.18718313
_cell_length_b   15.20512505
_cell_length_c   16.78976710
_cell_angle_alpha   89.98123246
_cell_angle_beta   89.97286325
_cell_angle_gamma   89.98303859
_symmetry_Int_Tables_number   1
_chemical_formula_structural   HfZrTaTiMo
_chemical_formula_sum   'Hf40 Zr40 Ta40 Ti40 Mo40'
_cell_volume   3877.14288894
_cell_formula_units_Z   40
loop_
 _symmetry_equiv_pos_site_id
 _symmetry_equiv_pos_as_xyz
  1  'x, y, z'
loop_
 _atom_site_type_symbol
 _atom_site_label
 _atom_site_symmetry_multiplicity
 _atom_site_fract_x
 _atom_site_fract_y
 _atom_site_fract_z
 _atom_site_occupancy
  Hf  Hf0  1  0.80878776  0.00419628  0.50918412  1
  Hf  Hf1  1  0.10950594  0.10856683  0.12782992  1
  Hf  Hf2  1  0.60452039  0.78567062  0.74591015  1
  Hf  Hf3  1  0.39244139  0.60223115  0.22689489  1
  Hf  Hf4  1  0.48879820  0.89638042  0.87210825  1
  Hf  Hf5  1  -0.00891874  0.61050829  0.73461775  1
  Hf  Hf6  1  0.51204501  0.48331719  0.11825708  1
  Hf  Hf7  1  0.30680293  0.50602991  0.37303402  1
  Hf  Hf8  1  0.19080212  0.58529122  0.75863119  1
  Hf  Hf9  1  0.28833145  0.47924907  0.12067143  1
  Hf  Hf10  1  0.89797327  0.09647743  0.86026450  1
  Hf  Hf11  1  0.21089524  0.01089904  -0.00147242  1
  Hf  Hf12  1  0.70312025  0.89091323  0.38903188  1
  Hf  Hf13  1  0.59747731  0.19940085  0.76300605  1
  Hf  Hf14  1  0.90428183  0.50339719  0.86975589  1
  Hf  Hf15  1  0.39102499  0.80482272  0.01984233  1
  Hf  Hf16  1  0.80476212  0.60680014  0.00251032  1
  Hf  Hf17  1  0.70229659  0.31041477  0.86886241  1
  Hf  Hf18  1  0.20461322  0.80645505  0.49600435  1
  Hf  Hf19  1  0.40001493  0.80185486  0.23037923  1
  Hf  Hf20  1  0.70492669  0.49825307  0.12750932  1
  Hf  Hf21  1  0.61086444  -0.00093313  0.75624681  1
  Hf  Hf22  1  0.40066068  0.21110191  0.74023825  1
  Hf  Hf23  1  0.09460171  0.90246163  0.13396408  1
  Hf  Hf24  1  0.01022574  0.20144986  -0.00640856  1
  Hf  Hf25  1  0.29408515  0.30713145  0.60682419  1
  Hf  Hf26  1  0.00055032  0.20614106  0.73001193  1
  Hf  Hf27  1  0.48812250  0.69389855  0.36660970  1
  Hf  Hf28  1  0.49465588  0.69260755  0.88958529  1
  Hf  Hf29  1  0.39809050  0.00006996  0.50966322  1
  Hf  Hf30  1  0.68660585  0.30584420  0.63111262  1
  Hf  Hf31  1  0.79090675  0.60762524  0.74533427  1
  Hf  Hf32  1  0.10784187  0.09593442  0.85649185  1
  Hf  Hf33  1  0.59460013  0.58921075  0.75715844  1
  Hf  Hf34  1  0.79926498  0.20137237  -0.00862401  1
  Hf  Hf35  1  0.89878305  0.09911040  0.12909144  1
  Hf  Hf36  1  0.18882698  0.39360835  0.26947924  1
  Hf  Hf37  1  0.28280488  0.89853378  0.86442446  1
  Hf  Hf38  1  0.01349518  0.40798316  -0.00886776  1
  Hf  Hf39  1  0.39794249  0.59549229  0.75663224  1
  Zr  Zr40  1  0.29480985  0.48877592  0.88970020  1
  Zr  Zr41  1  0.92631554  0.10269359  0.39295904  1
  Zr  Zr42  1  0.49755806  0.89904999  0.37928791  1
  Zr  Zr43  1  0.80174102  0.00505945  0.26964847  1
  Zr  Zr44  1  0.50796103  0.48813286  0.36189569  1
  Zr  Zr45  1  0.59363800  0.77916318  0.50650101  1
  Zr  Zr46  1  0.19750167  0.79591322  0.25280211  1
  Zr  Zr47  1  0.69882718  0.12514562  0.39194029  1
  Zr  Zr48  1  0.29912956  0.28833404  0.88088223  1
  Zr  Zr49  1  0.10456801  0.48956616  0.59484464  1
  Zr  Zr50  1  0.59799269  0.80404527  0.00739998  1
  Zr  Zr51  1  0.49786944  0.89099744  0.62684935  1
  Zr  Zr52  1  0.02300517  0.40740531  0.74655312  1
  Zr  Zr53  1  0.90701479  0.30568579  0.13380378  1
  Zr  Zr54  1  0.01455624  0.20915408  0.25637520  1
  Zr  Zr55  1  0.18691138  0.59890680  -0.00050060  1
  Zr  Zr56  1  0.92440088  0.89578200  0.86252530  1
  Zr  Zr57  1  0.20322575  0.00722253  0.26196389  1
  Zr  Zr58  1  -0.01116812  0.79036583  0.25606982  1
  Zr  Zr59  1  0.10127174  0.69503607  0.61018686  1
  Zr  Zr60  1  0.39744958  0.00511121  0.73615111  1
  Zr  Zr61  1  0.68921863  0.91558232  0.13049070  1
  Zr  Zr62  1  0.90104859  0.50213210  0.13845478  1
  Zr  Zr63  1  0.19514854  0.01615771  0.50707281  1
  Zr  Zr64  1  0.69224365  0.11301071  0.12571939  1
  Zr  Zr65  1  0.00359937  -0.01026243  -0.00326138  1
  Zr  Zr66  1  0.69451722  0.10196725  0.61745455  1
  Zr  Zr67  1  0.58979026  0.01389041  0.26365822  1
  Zr  Zr68  1  0.89105357  0.71096766  0.87146046  1
  Zr  Zr69  1  0.69227617  0.50977976  0.62138956  1
  Zr  Zr70  1  0.79183009  0.40915379  0.49535668  1
  Zr  Zr71  1  0.40327694  0.37468243  0.24559617  1
  Zr  Zr72  1  0.29683193  0.50595186  0.61756036  1
  Zr  Zr73  1  0.88741785  0.89571153  0.13075753  1
  Zr  Zr74  1  0.50776410  0.48456575  0.89930749  1
  Zr  Zr75  1  0.18751850  0.80130236  0.01121411  1
  Zr  Zr76  1  0.09114684  0.49872719  0.14126391  1
  Zr  Zr77  1  0.09191347  0.72077845  0.86685260  1
  Zr  Zr78  1  0.71721764  0.89476575  0.86730363  1
  Zr  Zr79  1  0.70821956  0.70617409  0.12824381  1
  Ta  Ta80  1  0.80653842  0.40207773  0.74382563  1
  Ta  Ta81  1  0.30341171  0.89722082  0.37562800  1
  Ta  Ta82  1  0.89904823  0.49922535  0.61520451  1
  Ta  Ta83  1  0.11717986  0.30454439  0.12250438  1
  Ta  Ta84  1  0.09032971  0.91000135  0.38590365  1
  Ta  Ta85  1  0.88598152  0.70253859  0.39490594  1
  Ta  Ta86  1  0.50670650  0.27863566  0.11770781  1
  Ta  Ta87  1  0.60077612  0.60381030  0.24349098  1
  Ta  Ta88  1  0.69859382  0.30760821  0.12226834  1
  Ta  Ta89  1  0.80580309  0.79777762  0.71933295  1
  Ta  Ta90  1  0.49559494  0.48652745  0.62296077  1
  Ta  Ta91  1  0.40927075  0.40258446  0.49502614  1
  Ta  Ta92  1  0.39756071  0.17874036  -0.00111079  1
  Ta  Ta93  1  0.90545184  0.30203555  0.86573846  1
  Ta  Ta94  1  0.09173168  0.49908517  0.38774756  1
  Ta  Ta95  1  0.30922034  0.10397425  0.12966877  1
  Ta  Ta96  1  0.30221204  0.70346109  0.62890966  1
  Ta  Ta97  1  0.69957234  0.89589132  0.61496386  1
  Ta  Ta98  1  0.89746631  0.30017624  0.37929717  1
  Ta  Ta99  1  0.90573081  0.89250422  0.39791689  1
  Ta  Ta100  1  0.19270903  0.60799101  0.26023512  1
  Ta  Ta101  1  0.59731141  0.00939336  -0.01446108  1
  Ta  Ta102  1  0.01471866  -0.00411049  0.71956046  1
  Ta  Ta103  1  0.09826362  0.28965320  0.40216602  1
  Ta  Ta104  1  0.80256821  0.60854317  0.26274278  1
  Ta  Ta105  1  0.39839928  0.60466067  0.02219526  1
  Ta  Ta106  1  0.81571981  -0.00355018  0.72723715  1
  Ta  Ta107  1  0.31174173  0.10475439  0.38193944  1
  Ta  Ta108  1  0.79500967  0.00352059  -0.00757662  1
  Ta  Ta109  1  0.49125072  0.09968622  0.87495823  1
  Ta  Ta110  1  0.21696134  0.20566596  0.26190276  1
  Ta  Ta111  1  0.40588120  0.60491298  0.50110849  1
  Ta  Ta112  1  0.80783777  0.39910606  -0.00371232  1
  Ta  Ta113  1  0.80285504  0.20114013  0.73987525  1
  Ta  Ta114  1  0.59553163  0.20424341  -0.01660657  1
  Ta  Ta115  1  0.81475389  0.21673313  0.51773463  1
  Ta  Ta116  1  0.00128841  -0.00060800  0.25973191  1
  Ta  Ta117  1  0.30847793  0.29520763  0.38955909  1
  Ta  Ta118  1  0.59971411  0.21710245  0.25393400  1
  Ta  Ta119  1  0.08984442  0.70205777  0.38944724  1
  Ti  Ti120  1  0.41357239  0.20009837  0.50681971  1
  Ti  Ti121  1  0.09815997  0.30070089  0.59871676  1
  Ti  Ti122  1  0.49798888  0.08535399  0.11632966  1
  Ti  Ti123  1  0.89679245  0.50121458  0.37624778  1
  Ti  Ti124  1  0.49679670  0.68301752  0.62702137  1
  Ti  Ti125  1  0.11250091  0.30762395  0.87239305  1
  Ti  Ti126  1  -0.00672060  0.80600665  0.71852274  1
  Ti  Ti127  1  0.29910117  0.09593855  0.86496451  1
  Ti  Ti128  1  0.40864798  0.37686514  0.00555460  1
  Ti  Ti129  1  -0.01678949  0.59893538  0.49841632  1
  Ti  Ti130  1  0.39267781  0.79149858  0.50263561  1
  Ti  Ti131  1  0.59658804  0.58627466  0.49526235  1
  Ti  Ti132  1  0.21305243  0.61062512  0.48333682  1
  Ti  Ti133  1  0.39273598  0.79147963  0.74870083  1
  Ti  Ti134  1  0.41033746  0.18572739  0.25287355  1
  Ti  Ti135  1  0.50879438  0.28520873  0.37970346  1
  Ti  Ti136  1  0.79529728  0.79854464  0.25993577  1
  Ti  Ti137  1  0.79528626  0.39715607  0.26173068  1
  Ti  Ti138  1  0.69466535  0.69676856  0.88467917  1
  Ti  Ti139  1  -0.00071879  0.60566010  0.00386920  1
  Ti  Ti140  1  0.29283645  0.89964584  0.63056117  1
  Ti  Ti141  1  0.30200831  0.91714915  0.12779139  1
  Ti  Ti142  1  0.50573712  0.11314101  0.62224882  1
  Ti  Ti143  1  0.80538479  0.80782503  0.00250446  1
  Ti  Ti144  1  0.58282956  0.39547218  0.75433806  1
  Ti  Ti145  1  0.18515971  0.81110948  0.73741187  1
  Ti  Ti146  1  0.29834661  0.70130881  0.87882262  1
  Ti  Ti147  1  0.59461851  0.80126760  0.24327084  1
  Ti  Ti148  1  0.69614365  0.50051621  0.36572463  1
  Ti  Ti149  1  -0.00713992  0.78511607  0.01951267  1
  Ti  Ti150  1  0.39194537  0.40017806  0.75074733  1
  Ti  Ti151  1  -0.00258646  0.60068326  0.26574928  1
  Ti  Ti152  1  0.20181721  0.20721718  0.73481691  1
  Ti  Ti153  1  0.69250398  0.69454374  0.37410499  1
  Ti  Ti154  1  0.79665387  0.20763844  0.25618899  1
  Ti  Ti155  1  0.59255595  0.00946930  0.49618605  1
  Ti  Ti156  1  0.70190282  0.50234322  0.88554282  1
  Ti  Ti157  1  0.59457484  0.38777145  0.49645525  1
  Ti  Ti158  1  0.40191078  0.00068261  0.25467632  1
  Ti  Ti159  1  0.29996615  0.28356348  0.11570287  1
  Mo  Mo160  1  -0.01287323  0.39384588  0.49044843  1
  Mo  Mo161  1  0.10923002  0.10298036  0.37632695  1
  Mo  Mo162  1  -0.00375342  0.40117343  0.27854940  1
  Mo  Mo163  1  0.10502207  0.89863925  0.61662365  1
  Mo  Mo164  1  0.10384382  0.90801882  0.85741051  1
  Mo  Mo165  1  0.20438549  0.40489854  0.47923880  1
  Mo  Mo166  1  0.09799483  0.50348807  0.87461382  1
  Mo  Mo167  1  0.20281823  0.38689885  0.74477979  1
  Mo  Mo168  1  0.11329051  0.11091142  0.63180844  1
  Mo  Mo169  1  0.78513354  0.60191574  0.48434901  1
  Mo  Mo170  1  0.70025685  0.31070530  0.37437225  1
  Mo  Mo171  1  0.50611802  0.69586929  0.12353726  1
  Mo  Mo172  1  0.40209165  -0.00271400  -0.00296857  1
  Mo  Mo173  1  0.90494992  0.10530405  0.62328487  1
  Mo  Mo174  1  0.20395304  0.00885804  0.73129780  1
  Mo  Mo175  1  0.00515040  0.19249768  0.51907538  1
  Mo  Mo176  1  0.49714606  0.30661383  0.62242752  1
  Mo  Mo177  1  0.20095629  0.19919319  -0.00205006  1
  Mo  Mo178  1  0.68972338  0.69729547  0.61966268  1
  Mo  Mo179  1  0.89923603  0.31210956  0.62717311  1
  Mo  Mo180  1  0.08732135  0.68963927  0.13550019  1
  Mo  Mo181  1  0.21005789  0.20046687  0.49780340  1
  Mo  Mo182  1  0.90243799  0.69345056  0.13323781  1
  Mo  Mo183  1  0.61449963  0.38893426  0.00105874  1
  Mo  Mo184  1  0.00787637  -0.00145225  0.51897157  1
  Mo  Mo185  1  0.30002384  0.70324305  0.37435072  1
  Mo  Mo186  1  0.60294204  0.59741937  0.00351086  1
  Mo  Mo187  1  0.00004924  0.79846288  0.50271665  1
  Mo  Mo188  1  0.20030953  0.38856146  0.00488094  1
  Mo  Mo189  1  0.90511697  0.89569849  0.60700794  1
  Mo  Mo190  1  0.49613840  0.91268224  0.12686602  1
  Mo  Mo191  1  0.59989216  0.20825816  0.50164462  1
  Mo  Mo192  1  0.30832298  0.11007978  0.62150872  1
  Mo  Mo193  1  0.28764623  0.69302935  0.12516259  1
  Mo  Mo194  1  0.70587241  0.09798288  0.86953580  1
  Mo  Mo195  1  0.49191698  0.10836292  0.38136207  1
  Mo  Mo196  1  0.88882285  0.69067218  0.60200682  1
  Mo  Mo197  1  0.79554837  0.79348905  0.51335045  1
  Mo  Mo198  1  0.60767429  0.39369564  0.24886400  1
  Mo  Mo199  1  0.49385807  0.29659874  0.88123077  1
