# generated using pymatgen
data_HfZrTaTiMo
_symmetry_space_group_name_H-M   'P 1'
_cell_length_a   15.20451851
_cell_length_b   15.21802813
_cell_length_c   16.83771050
_cell_angle_alpha   90.02660214
_cell_angle_beta   90.01464500
_cell_angle_gamma   90.02465150
_symmetry_Int_Tables_number   1
_chemical_formula_structural   HfZrTaTiMo
_chemical_formula_sum   'Hf40 Zr40 Ta40 Ti40 Mo40'
_cell_volume   3895.95553149
_cell_formula_units_Z   40
loop_
 _symmetry_equiv_pos_site_id
 _symmetry_equiv_pos_as_xyz
  1  'x, y, z'
loop_
 _atom_site_type_symbol
 _atom_site_label
 _atom_site_symmetry_multiplicity
 _atom_site_fract_x
 _atom_site_fract_y
 _atom_site_fract_z
 _atom_site_occupancy
  Hf  Hf0  1  0.91530130  0.88760735  0.61356967  1
  Hf  Hf1  1  0.62330196  0.00441907  0.75375261  1
  Hf  Hf2  1  0.20607700  -0.00526829  0.74602092  1
  Hf  Hf3  1  0.71145404  0.89444895  0.09994383  1
  Hf  Hf4  1  0.68918448  0.49899459  0.61736390  1
  Hf  Hf5  1  0.89670376  0.69107340  0.37032929  1
  Hf  Hf6  1  -0.00071066  0.41008579  0.74056956  1
  Hf  Hf7  1  0.91187700  0.90062363  0.88428724  1
  Hf  Hf8  1  0.39844639  0.20951684  0.00970922  1
  Hf  Hf9  1  0.50603315  0.30289782  0.13348904  1
  Hf  Hf10  1  0.81371458  0.79744665  0.74185851  1
  Hf  Hf11  1  0.71191469  0.91316241  0.89376108  1
  Hf  Hf12  1  -0.00339236  0.39354192  -0.00105140  1
  Hf  Hf13  1  0.48597319  0.69612222  0.63984553  1
  Hf  Hf14  1  0.49848499  0.50350165  0.86752323  1
  Hf  Hf15  1  0.09214819  0.10952754  0.38550248  1
  Hf  Hf16  1  0.10351517  0.29850478  0.86627045  1
  Hf  Hf17  1  0.69729843  0.50197001  0.14677376  1
  Hf  Hf18  1  0.81502461  0.00150948  0.73938644  1
  Hf  Hf19  1  0.51717044  0.89115864  0.63774851  1
  Hf  Hf20  1  0.09747235  0.49523857  0.12408865  1
  Hf  Hf21  1  0.29348667  0.30130434  0.38701817  1
  Hf  Hf22  1  0.60468121  0.39193108  -0.00725840  1
  Hf  Hf23  1  0.49901468  0.09601777  0.64398645  1
  Hf  Hf24  1  0.49058723  0.30477124  0.37123674  1
  Hf  Hf25  1  0.11467539  0.89696971  0.12980468  1
  Hf  Hf26  1  -0.00925959  0.18866132  -0.00668156  1
  Hf  Hf27  1  0.77247227  0.19948487  0.73243285  1
  Hf  Hf28  1  0.40389539  0.00227240  0.00289379  1
  Hf  Hf29  1  0.59814687  0.18493910  0.50163547  1
  Hf  Hf30  1  0.88492955  0.29544916  0.86318041  1
  Hf  Hf31  1  0.80717666  0.39600024  0.50942101  1
  Hf  Hf32  1  0.91553642  0.70536457  0.88256817  1
  Hf  Hf33  1  0.80472339  0.19351615  0.25439914  1
  Hf  Hf34  1  -0.01288928  0.18818908  0.74160453  1
  Hf  Hf35  1  0.40259340  0.60909771  -0.00424326  1
  Hf  Hf36  1  0.59075834  0.17369830  0.25759243  1
  Hf  Hf37  1  0.59327509  0.78767347  -0.00904887  1
  Hf  Hf38  1  0.40969343  0.79582870  0.49696855  1
  Hf  Hf39  1  0.20850865  0.20924074  0.74396905  1
  Zr  Zr40  1  0.78245316  -0.00293801  0.24976531  1
  Zr  Zr41  1  0.20636604  0.00254863  0.25110827  1
  Zr  Zr42  1  0.09964275  0.09031727  0.61617563  1
  Zr  Zr43  1  0.31154438  0.89911346  0.62692679  1
  Zr  Zr44  1  0.09299185  0.08334063  0.87070297  1
  Zr  Zr45  1  0.67402958  0.09589949  0.10388618  1
  Zr  Zr46  1  0.61200296  0.39181067  0.76013864  1
  Zr  Zr47  1  0.40397748  0.40626793  0.00082479  1
  Zr  Zr48  1  0.19549013  0.19624582  0.00934936  1
  Zr  Zr49  1  0.30358599  0.10249209  0.37411920  1
  Zr  Zr50  1  0.20706609  0.39461548  0.00654887  1
  Zr  Zr51  1  0.30938802  0.31493419  0.61496152  1
  Zr  Zr52  1  0.88923120  0.50912007  0.86766740  1
  Zr  Zr53  1  0.79657515  0.60793273  0.01614913  1
  Zr  Zr54  1  0.89689362  0.89992618  0.38320638  1
  Zr  Zr55  1  0.19309084  0.60309886  0.25799136  1
  Zr  Zr56  1  0.19830773  0.39317734  0.24530712  1
  Zr  Zr57  1  0.71170742  0.50254542  0.36349767  1
  Zr  Zr58  1  0.70825135  0.29213605  0.37921784  1
  Zr  Zr59  1  0.90635899  0.28856050  0.12940366  1
  Zr  Zr60  1  0.30549068  0.49644496  0.36761080  1
  Zr  Zr61  1  0.18303979  0.79428456  0.75161870  1
  Zr  Zr62  1  0.10499383  0.89814412  0.37744190  1
  Zr  Zr63  1  0.39432801  0.59517071  0.48980735  1
  Zr  Zr64  1  0.29630913  0.70749409  0.11647629  1
  Zr  Zr65  1  0.59224284  0.60801400  0.49395422  1
  Zr  Zr66  1  0.38280493  0.20793824  0.23824513  1
  Zr  Zr67  1  -0.01124657  0.00650197  0.25087662  1
  Zr  Zr68  1  0.69029203  0.70980590  0.62437742  1
  Zr  Zr69  1  0.08740646  0.30549824  0.38697052  1
  Zr  Zr70  1  0.69265021  0.70250216  0.37070699  1
  Zr  Zr71  1  0.48653419  0.49434081  0.63542864  1
  Zr  Zr72  1  0.71283230  0.69177451  0.87595800  1
  Zr  Zr73  1  0.79526893  0.40604681  0.00025241  1
  Zr  Zr74  1  0.41973983  0.00554152  0.49624242  1
  Zr  Zr75  1  0.80271957  0.79582488  0.23849402  1
  Zr  Zr76  1  0.10086014  0.30954805  0.62167837  1
  Zr  Zr77  1  0.09675702  0.51071499  0.87878032  1
  Zr  Zr78  1  0.51775570  0.10457003  0.87293540  1
  Zr  Zr79  1  0.30893915  0.10790239  0.86778440  1
  Ta  Ta80  1  0.42347654  0.00437729  0.24465301  1
  Ta  Ta81  1  0.59776810  0.81050524  0.23640122  1
  Ta  Ta82  1  0.17737636  0.20320018  0.23835014  1
  Ta  Ta83  1  0.48915132  0.29116608  0.86344777  1
  Ta  Ta84  1  0.32015815  0.89395441  0.36765684  1
  Ta  Ta85  1  0.60336365  0.79840713  0.76876415  1
  Ta  Ta86  1  0.00141950  0.79733131  0.02106652  1
  Ta  Ta87  1  0.49651043  0.90527127  0.86771042  1
  Ta  Ta88  1  0.70238893  0.29828504  0.13571399  1
  Ta  Ta89  1  0.19675228  0.42319215  0.49930674  1
  Ta  Ta90  1  0.39101824  0.79555554  0.76908890  1
  Ta  Ta91  1  0.51850917  0.91042392  0.37011460  1
  Ta  Ta92  1  0.10659748  0.52135716  0.62487937  1
  Ta  Ta93  1  0.39598374  0.80391956  -0.01713790  1
  Ta  Ta94  1  0.80142610  0.59542432  0.73670016  1
  Ta  Ta95  1  0.59928737  0.59034926  0.00128325  1
  Ta  Ta96  1  0.11172758  0.70241448  0.89833592  1
  Ta  Ta97  1  0.29442660  0.51117940  0.62647807  1
  Ta  Ta98  1  0.79185876  0.79823307  0.50662060  1
  Ta  Ta99  1  0.79949811  0.39849808  0.73176764  1
  Ta  Ta100  1  -0.00295158  0.41239691  0.50731327  1
  Ta  Ta101  1  0.01000200  0.79157166  0.23969838  1
  Ta  Ta102  1  0.50542950  0.29709336  0.63205802  1
  Ta  Ta103  1  0.21190446  -0.00315757  0.49683690  1
  Ta  Ta104  1  0.50189101  0.51217874  0.14212926  1
  Ta  Ta105  1  0.88856123  0.11237974  0.39368873  1
  Ta  Ta106  1  0.78515362  0.20513036  -0.00319608  1
  Ta  Ta107  1  0.81048190  0.60063626  0.50603172  1
  Ta  Ta108  1  0.40545104  0.20532404  0.50428144  1
  Ta  Ta109  1  0.50692742  0.50841183  0.35145964  1
  Ta  Ta110  1  0.39853245  0.62118122  0.25207624  1
  Ta  Ta111  1  0.20255263  -0.00619558  0.00526215  1
  Ta  Ta112  1  0.30875675  0.50241144  0.13427643  1
  Ta  Ta113  1  0.00312063  0.62599947  0.74404224  1
  Ta  Ta114  1  0.19302472  0.60974984  0.48916210  1
  Ta  Ta115  1  -0.00225444  0.59387644  0.25209885  1
  Ta  Ta116  1  0.89703201  0.49325518  0.14434902  1
  Ta  Ta117  1  0.28568515  0.69560995  0.62424537  1
  Ta  Ta118  1  0.60314658  0.60136925  0.75901210  1
  Ta  Ta119  1  0.21510401  0.79466875  0.25820674  1
  Ti  Ti120  1  0.51055208  0.91089635  0.11605913  1
  Ti  Ti121  1  0.28896234  0.50618367  0.87965100  1
  Ti  Ti122  1  0.68640239  0.07706168  0.38426868  1
  Ti  Ti123  1  0.09863589  0.69945886  0.37257717  1
  Ti  Ti124  1  0.00009309  -0.00041003  0.49712352  1
  Ti  Ti125  1  0.60320007  0.39215551  0.25621045  1
  Ti  Ti126  1  0.69697847  0.89164142  0.38136954  1
  Ti  Ti127  1  0.58552536  0.39796864  0.49476592  1
  Ti  Ti128  1  0.20953076  0.79631771  0.48832017  1
  Ti  Ti129  1  0.29588855  0.09437075  0.12766247  1
  Ti  Ti130  1  0.20118180  0.19819466  0.51001611  1
  Ti  Ti131  1  0.78967021  -0.00088548  0.51016120  1
  Ti  Ti132  1  0.00973897  -0.02385104  0.74303931  1
  Ti  Ti133  1  0.90732953  0.51251142  0.62486307  1
  Ti  Ti134  1  0.30716398  0.10178837  0.62697243  1
  Ti  Ti135  1  0.89897788  0.69593763  0.13098971  1
  Ti  Ti136  1  -0.00231667  0.59662079  0.01186351  1
  Ti  Ti137  1  0.19828862  0.60681997  0.75526225  1
  Ti  Ti138  1  -0.01756200  0.21506287  0.51176879  1
  Ti  Ti139  1  0.38519385  0.60367262  0.76352861  1
  Ti  Ti140  1  0.88564733  0.09262560  0.87703958  1
  Ti  Ti141  1  0.38697183  0.39485465  0.75887248  1
  Ti  Ti142  1  0.89854040  0.09674526  0.61289592  1
  Ti  Ti143  1  0.20276383  0.41453186  0.75062758  1
  Ti  Ti144  1  0.11068380  0.89248945  0.60787528  1
  Ti  Ti145  1  -0.00315397  0.38038479  0.25470839  1
  Ti  Ti146  1  0.08559294  0.10354112  0.12739219  1
  Ti  Ti147  1  0.31517719  0.89661944  0.12847925  1
  Ti  Ti148  1  0.90442350  0.48489167  0.36493052  1
  Ti  Ti149  1  0.88589282  0.08801062  0.11833224  1
  Ti  Ti150  1  0.49569316  0.71732084  0.36039361  1
  Ti  Ti151  1  0.00126128  -0.00588391  0.01211967  1
  Ti  Ti152  1  0.10039494  0.88949954  0.88901442  1
  Ti  Ti153  1  0.00003235  0.78708046  0.49239362  1
  Ti  Ti154  1  0.79425825  0.20260301  0.52069859  1
  Ti  Ti155  1  0.29156475  0.89886366  0.87738020  1
  Ti  Ti156  1  0.50064285  0.70874514  0.12767511  1
  Ti  Ti157  1  0.08963413  0.70611186  0.61473808  1
  Ti  Ti158  1  0.10548630  0.69438003  0.11930859  1
  Ti  Ti159  1  0.00266676  0.59410996  0.49119736  1
  Mo  Mo160  1  0.61028595  -0.01465089  0.50744063  1
  Mo  Mo161  1  0.20469252  0.80714835  0.00187270  1
  Mo  Mo162  1  0.30127829  0.70879291  0.37320113  1
  Mo  Mo163  1  0.81505369  0.01148968  -0.00017037  1
  Mo  Mo164  1  0.81490471  0.79843686  0.01048302  1
  Mo  Mo165  1  0.19886232  0.59694111  0.00618036  1
  Mo  Mo166  1  0.29367553  0.69848649  0.88152201  1
  Mo  Mo167  1  0.89918258  0.30232242  0.62987391  1
  Mo  Mo168  1  0.00695917  0.80157815  0.75095980  1
  Mo  Mo169  1  0.30050423  0.31244941  0.86680617  1
  Mo  Mo170  1  0.40824135  0.40129474  0.49965654  1
  Mo  Mo171  1  -0.00328183  0.19023591  0.25536290  1
  Mo  Mo172  1  0.40798474  0.81374691  0.24373756  1
  Mo  Mo173  1  0.09168151  0.29353359  0.12681514  1
  Mo  Mo174  1  0.70991962  0.11255122  0.88360664  1
  Mo  Mo175  1  0.80422317  0.39254144  0.25347490  1
  Mo  Mo176  1  0.39866755  -0.00889644  0.75661160  1
  Mo  Mo177  1  0.39974225  0.20527817  0.74514874  1
  Mo  Mo178  1  0.50068657  0.09852818  0.37660242  1
  Mo  Mo179  1  0.29364399  0.30423734  0.13033744  1
  Mo  Mo180  1  0.60457510  -0.01106472  0.24529525  1
  Mo  Mo181  1  0.68616973  0.69497001  0.12480197  1
  Mo  Mo182  1  0.70737708  0.89902903  0.62530841  1
  Mo  Mo183  1  0.80774041  0.59901099  0.24395260  1
  Mo  Mo184  1  0.59692472  -0.00206857  -0.01327214  1
  Mo  Mo185  1  0.59633369  0.61601096  0.24663872  1
  Mo  Mo186  1  0.90131245  0.29393182  0.38061504  1
  Mo  Mo187  1  0.69355146  0.29234165  0.87229895  1
  Mo  Mo188  1  0.08753707  0.50451888  0.37811960  1
  Mo  Mo189  1  0.48983382  0.09509552  0.11680273  1
  Mo  Mo190  1  0.70500842  0.49765151  0.86777489  1
  Mo  Mo191  1  0.59583188  0.80570452  0.49617454  1
  Mo  Mo192  1  0.59439337  0.21038827  0.00045193  1
  Mo  Mo193  1  0.91056254  0.89830972  0.12158958  1
  Mo  Mo194  1  0.59777595  0.20144319  0.74329189  1
  Mo  Mo195  1  0.40491681  0.40959605  0.24374668  1
  Mo  Mo196  1  0.90592580  0.69325215  0.61306517  1
  Mo  Mo197  1  0.69912516  0.09070363  0.61453804  1
  Mo  Mo198  1  0.49817300  0.69962027  0.86750862  1
  Mo  Mo199  1  0.68849310  0.30383134  0.61018477  1
