# generated using pymatgen
data_HfZrTaTiMo
_symmetry_space_group_name_H-M   'P 1'
_cell_length_a   15.20028767
_cell_length_b   15.20407157
_cell_length_c   16.85824449
_cell_angle_alpha   89.96729257
_cell_angle_beta   90.03066663
_cell_angle_gamma   89.97773693
_symmetry_Int_Tables_number   1
_chemical_formula_structural   HfZrTaTiMo
_chemical_formula_sum   'Hf40 Zr40 Ta40 Ti40 Mo40'
_cell_volume   3896.04437343
_cell_formula_units_Z   40
loop_
 _symmetry_equiv_pos_site_id
 _symmetry_equiv_pos_as_xyz
  1  'x, y, z'
loop_
 _atom_site_type_symbol
 _atom_site_label
 _atom_site_symmetry_multiplicity
 _atom_site_fract_x
 _atom_site_fract_y
 _atom_site_fract_z
 _atom_site_occupancy
  Hf  Hf0  1  0.59386545  0.81128317  0.49643784  1
  Hf  Hf1  1  0.61625668  0.00935131  0.48398005  1
  Hf  Hf2  1  0.59736343  0.61084567  -0.00005952  1
  Hf  Hf3  1  0.18843793  0.59296406  0.50367778  1
  Hf  Hf4  1  0.31098863  0.29462471  0.11533003  1
  Hf  Hf5  1  0.92061812  0.28869252  0.62162480  1
  Hf  Hf6  1  0.08581603  0.91772663  0.88610884  1
  Hf  Hf7  1  0.19952947  0.59712942  -0.00978849  1
  Hf  Hf8  1  0.21809848  -0.01573598  0.26265846  1
  Hf  Hf9  1  0.49299017  0.50406713  0.36729581  1
  Hf  Hf10  1  0.10070527  0.90031764  0.12466877  1
  Hf  Hf11  1  0.30555006  0.91051457  0.86712794  1
  Hf  Hf12  1  0.80928895  0.40883033  0.25303027  1
  Hf  Hf13  1  0.81325007  0.79526540  0.73406197  1
  Hf  Hf14  1  0.07256675  0.69254074  0.63465316  1
  Hf  Hf15  1  0.79795543  0.57663584  0.01793001  1
  Hf  Hf16  1  0.49383578  0.50855575  0.62739328  1
  Hf  Hf17  1  0.11158445  0.10144282  0.14097607  1
  Hf  Hf18  1  0.70845027  0.51402234  0.37187715  1
  Hf  Hf19  1  0.49669600  0.30066758  0.36812554  1
  Hf  Hf20  1  0.90515512  0.49793017  0.63557170  1
  Hf  Hf21  1  0.51047351  0.90943617  0.63569031  1
  Hf  Hf22  1  0.09584795  0.10525090  0.61787254  1
  Hf  Hf23  1  0.78972144  0.79605592  0.50005970  1
  Hf  Hf24  1  0.08913418  0.50309888  0.87793483  1
  Hf  Hf25  1  0.79885568  0.18693079  -0.00284679  1
  Hf  Hf26  1  0.69396955  0.29746190  0.37236740  1
  Hf  Hf27  1  0.79235417  -0.01661489  0.01320780  1
  Hf  Hf28  1  0.90040200  0.88611491  0.13378075  1
  Hf  Hf29  1  0.40686417  -0.00119111  0.49593885  1
  Hf  Hf30  1  0.59756663  0.61414912  0.49330517  1
  Hf  Hf31  1  0.81621441  0.19502067  0.26354586  1
  Hf  Hf32  1  0.59305151  0.02669284  0.00466115  1
  Hf  Hf33  1  0.19498457  0.01693005  0.74927963  1
  Hf  Hf34  1  0.69659908  0.49469513  0.62335354  1
  Hf  Hf35  1  0.29064621  0.70650588  0.12869772  1
  Hf  Hf36  1  0.59839396  0.60215326  0.75985659  1
  Hf  Hf37  1  0.20686477  0.01204528  0.49589834  1
  Hf  Hf38  1  0.60358057  0.82162504  0.00001396  1
  Hf  Hf39  1  0.39632532  0.60635839  -0.00818603  1
  Zr  Zr40  1  0.91244396  0.28733013  0.12321173  1
  Zr  Zr41  1  0.80334827  0.18420769  0.75475676  1
  Zr  Zr42  1  0.39608724  0.19864374  0.49378059  1
  Zr  Zr43  1  0.08419222  0.71170629  0.86661401  1
  Zr  Zr44  1  0.69705829  0.28292441  0.60772023  1
  Zr  Zr45  1  0.10082225  0.50073069  0.11919823  1
  Zr  Zr46  1  0.20146703  0.80296438  -0.00708362  1
  Zr  Zr47  1  0.01198046  0.18607150  0.76298016  1
  Zr  Zr48  1  0.60191687  0.61203334  0.24725618  1
  Zr  Zr49  1  0.29709797  0.49158468  0.62474750  1
  Zr  Zr50  1  0.48313657  0.30420489  0.62552070  1
  Zr  Zr51  1  0.28129107  0.72035549  0.37868543  1
  Zr  Zr52  1  0.79193658  0.38170073  0.75270250  1
  Zr  Zr53  1  0.82783408  0.39669676  0.48533914  1
  Zr  Zr54  1  0.59583546  0.40251939  0.49578581  1
  Zr  Zr55  1  0.19610741  0.59404298  0.75544012  1
  Zr  Zr56  1  0.39598183  0.01580949  -0.00190267  1
  Zr  Zr57  1  0.29930485  0.70198430  0.62867840  1
  Zr  Zr58  1  0.18789623  0.81580772  0.74078868  1
  Zr  Zr59  1  0.61304097  0.81095736  0.75121490  1
  Zr  Zr60  1  0.50026573  0.28456064  0.89587488  1
  Zr  Zr61  1  0.81727112  -0.00191773  0.48197219  1
  Zr  Zr62  1  -0.01517841  0.40377613  0.00230428  1
  Zr  Zr63  1  0.60362999  0.20558119  0.75563913  1
  Zr  Zr64  1  0.38703402  0.60238222  0.25283024  1
  Zr  Zr65  1  -0.00130502  0.19224507  0.48144236  1
  Zr  Zr66  1  0.51101797  0.10501525  0.63022673  1
  Zr  Zr67  1  0.49653573  0.72005703  0.87213798  1
  Zr  Zr68  1  0.89778859  0.88038525  0.88192665  1
  Zr  Zr69  1  0.37676834  0.40212729  0.49139114  1
  Zr  Zr70  1  0.10539079  0.29791189  0.89280113  1
  Zr  Zr71  1  0.70996136  0.30305225  0.11895246  1
  Zr  Zr72  1  0.49910201  0.91586149  0.13688469  1
  Zr  Zr73  1  0.07871338  0.69198527  0.37862058  1
  Zr  Zr74  1  0.11132117  0.29339554  0.12155840  1
  Zr  Zr75  1  0.20846004  0.40510537  0.24756329  1
  Zr  Zr76  1  0.90625306  0.07494936  0.87791414  1
  Zr  Zr77  1  0.90823325  0.87966341  0.37004162  1
  Zr  Zr78  1  0.89805669  0.68229385  0.87569016  1
  Zr  Zr79  1  0.79225026  -0.00850196  0.26028784  1
  Ta  Ta80  1  0.30857656  0.11437121  0.63495426  1
  Ta  Ta81  1  0.91110855  0.08943491  0.12967407  1
  Ta  Ta82  1  0.49067835  0.71397540  0.12671246  1
  Ta  Ta83  1  0.60338204  0.40908722  0.01188518  1
  Ta  Ta84  1  0.08636327  0.48972960  0.37364279  1
  Ta  Ta85  1  0.78734756  0.78554035  0.25214985  1
  Ta  Ta86  1  0.59109601  0.40257673  0.75821379  1
  Ta  Ta87  1  0.40212129  0.81020759  -0.00007167  1
  Ta  Ta88  1  -0.01376029  0.58780379  0.23996159  1
  Ta  Ta89  1  0.49495994  0.70327616  0.63008837  1
  Ta  Ta90  1  0.18283516  0.60864556  0.25179298  1
  Ta  Ta91  1  0.69234797  0.71150688  0.12459052  1
  Ta  Ta92  1  0.39727532  0.61101141  0.49191505  1
  Ta  Ta93  1  0.69339670  0.69947871  0.62543923  1
  Ta  Ta94  1  0.80227520  0.78213282  0.01248441  1
  Ta  Ta95  1  0.39805403  0.59464483  0.76423446  1
  Ta  Ta96  1  0.10408574  0.29622245  0.36392714  1
  Ta  Ta97  1  0.79740838  0.18744836  0.47835859  1
  Ta  Ta98  1  0.79525375  0.59681696  0.74580487  1
  Ta  Ta99  1  0.59893907  0.40407602  0.23511360  1
  Ta  Ta100  1  0.30403004  0.30690172  0.89315572  1
  Ta  Ta101  1  0.89025419  0.49014496  0.86625362  1
  Ta  Ta102  1  0.09522433  0.47656931  0.62543804  1
  Ta  Ta103  1  0.91475734  0.89819552  0.61501112  1
  Ta  Ta104  1  0.39101776  0.39325463  0.76247478  1
  Ta  Ta105  1  0.60205585  0.20321135  0.23523665  1
  Ta  Ta106  1  0.00351962  0.00057506  0.26321021  1
  Ta  Ta107  1  0.11159241  0.88997228  0.37985511  1
  Ta  Ta108  1  0.39700384  0.80523804  0.50531136  1
  Ta  Ta109  1  0.19978095  0.39605901  0.75815785  1
  Ta  Ta110  1  0.49551410  0.50500943  0.12350621  1
  Ta  Ta111  1  -0.00515860  0.79119160  0.50313520  1
  Ta  Ta112  1  0.29946949  0.90361210  0.12302919  1
  Ta  Ta113  1  0.01217320  0.17235336  -0.00494249  1
  Ta  Ta114  1  0.80039535  0.60254184  0.50491878  1
  Ta  Ta115  1  0.49188951  0.71534408  0.37147429  1
  Ta  Ta116  1  0.69783878  0.49748732  0.87670873  1
  Ta  Ta117  1  0.38490892  0.81793527  0.25456609  1
  Ta  Ta118  1  0.21150217  0.21446174  0.75421458  1
  Ta  Ta119  1  0.51062152  0.10909995  0.36455847  1
  Ti  Ti120  1  0.19328551  0.81186752  0.51829856  1
  Ti  Ti121  1  0.31053129  0.09632356  0.13615213  1
  Ti  Ti122  1  0.21943553  0.18983351  -0.00353108  1
  Ti  Ti123  1  0.88242133  0.67836480  0.37013764  1
  Ti  Ti124  1  0.30918336  0.10512089  0.36398437  1
  Ti  Ti125  1  0.40504436  0.39865656  0.23936524  1
  Ti  Ti126  1  0.20279410  0.22062186  0.50287013  1
  Ti  Ti127  1  0.50469593  0.92578402  0.86109521  1
  Ti  Ti128  1  0.49066517  0.90773746  0.36496018  1
  Ti  Ti129  1  0.89965298  0.08996762  0.61889647  1
  Ti  Ti130  1  -0.00048268  -0.01826098  0.74089241  1
  Ti  Ti131  1  0.29443756  0.29777828  0.36237567  1
  Ti  Ti132  1  0.70502524  0.90374455  0.87350887  1
  Ti  Ti133  1  0.70183635  0.09535172  0.13245666  1
  Ti  Ti134  1  0.19516395  0.01141008  -0.00039812  1
  Ti  Ti135  1  0.28485536  0.50439148  0.37501806  1
  Ti  Ti136  1  -0.01148654  0.61063982  0.01555880  1
  Ti  Ti137  1  0.60021081  0.00631858  0.25472302  1
  Ti  Ti138  1  -0.00242084  0.39285742  0.24864329  1
  Ti  Ti139  1  0.00311703  0.78666926  0.24991668  1
  Ti  Ti140  1  0.10988019  0.10168176  0.36488575  1
  Ti  Ti141  1  0.29840702  0.50212308  0.12134153  1
  Ti  Ti142  1  0.39937574  0.40659179  0.00342551  1
  Ti  Ti143  1  0.00494956  0.38876328  0.75692892  1
  Ti  Ti144  1  0.70744499  0.08553864  0.62165624  1
  Ti  Ti145  1  0.30408196  0.91494646  0.63157580  1
  Ti  Ti146  1  0.70842343  0.70256183  0.87825863  1
  Ti  Ti147  1  0.40540121  0.20041218  0.24326557  1
  Ti  Ti148  1  0.29915552  0.70701810  0.86648032  1
  Ti  Ti149  1  0.79774724  -0.01168100  0.74106279  1
  Ti  Ti150  1  0.39933606  0.80670221  0.74624149  1
  Ti  Ti151  1  0.89883057  0.29272086  0.88213278  1
  Ti  Ti152  1  0.69762791  0.30216534  0.89193311  1
  Ti  Ti153  1  0.59880700  0.80954184  0.25536566  1
  Ti  Ti154  1  0.32003278  0.11496813  0.86474533  1
  Ti  Ti155  1  -0.01426226  0.58443147  0.50048592  1
  Ti  Ti156  1  0.79979665  0.59866008  0.22899327  1
  Ti  Ti157  1  0.09160111  0.70567039  0.12488357  1
  Ti  Ti158  1  0.69022611  0.09629892  0.87361562  1
  Ti  Ti159  1  0.49667150  0.49227038  0.88017037  1
  Mo  Mo160  1  0.10731823  0.29893046  0.62876242  1
  Mo  Mo161  1  0.19148684  0.79685970  0.24761434  1
  Mo  Mo162  1  0.60363895  0.20021613  0.01282838  1
  Mo  Mo163  1  0.89038841  0.69106429  0.61840941  1
  Mo  Mo164  1  0.91346781  0.30699792  0.37051579  1
  Mo  Mo165  1  0.21023571  0.40422856  0.00059887  1
  Mo  Mo166  1  0.50084841  0.09786114  0.86418675  1
  Mo  Mo167  1  0.50188382  0.30700348  0.11836425  1
  Mo  Mo168  1  0.69556451  0.89876777  0.13379460  1
  Mo  Mo169  1  0.89758407  0.48952543  0.12791230  1
  Mo  Mo170  1  0.69713649  0.70572287  0.37070880  1
  Mo  Mo171  1  0.90066578  0.69523893  0.13270428  1
  Mo  Mo172  1  0.69686383  0.10384291  0.36300309  1
  Mo  Mo173  1  0.09870312  0.90612733  0.61184959  1
  Mo  Mo174  1  0.60688439  0.19739976  0.49695867  1
  Mo  Mo175  1  0.90806666  0.50866050  0.37082464  1
  Mo  Mo176  1  0.00866624  0.19381678  0.26175493  1
  Mo  Mo177  1  0.30232025  0.89836174  0.38757552  1
  Mo  Mo178  1  0.69117136  0.50179826  0.12734975  1
  Mo  Mo179  1  -0.01234880  0.58579222  0.74922348  1
  Mo  Mo180  1  0.40280421  0.00665730  0.74933473  1
  Mo  Mo181  1  0.39413978  0.20783046  0.75249663  1
  Mo  Mo182  1  0.18972398  0.39491422  0.48884715  1
  Mo  Mo183  1  -0.00599872  0.79369111  0.01238243  1
  Mo  Mo184  1  0.40885514  0.19213388  0.00890054  1
  Mo  Mo185  1  0.68829353  0.89250029  0.36472204  1
  Mo  Mo186  1  0.21533041  0.19600474  0.25548053  1
  Mo  Mo187  1  0.28309799  0.30169544  0.62788588  1
  Mo  Mo188  1  0.40497932  0.00781259  0.25992808  1
  Mo  Mo189  1  0.79493777  0.39400648  -0.01171722  1
  Mo  Mo190  1  0.12200686  0.09837902  0.88108509  1
  Mo  Mo191  1  0.61899400  0.00741269  0.75365233  1
  Mo  Mo192  1  0.00094283  -0.00063004  0.01355970  1
  Mo  Mo193  1  0.01654566  -0.01336664  0.48776205  1
  Mo  Mo194  1  0.91341632  0.09595412  0.36842066  1
  Mo  Mo195  1  0.30350064  0.49566289  0.87593927  1
  Mo  Mo196  1  -0.00464958  0.80465727  0.73986606  1
  Mo  Mo197  1  0.50033125  0.11323493  0.13951031  1
  Mo  Mo198  1  0.01600651  0.39671246  0.49664233  1
  Mo  Mo199  1  0.71135865  0.91021561  0.62323663  1
