# generated using pymatgen
data_HfZrTaTiMo
_symmetry_space_group_name_H-M   'P 1'
_cell_length_a   15.20685452
_cell_length_b   15.20644153
_cell_length_c   16.83833893
_cell_angle_alpha   89.99025264
_cell_angle_beta   90.03118307
_cell_angle_gamma   90.03223624
_symmetry_Int_Tables_number   1
_chemical_formula_structural   HfZrTaTiMo
_chemical_formula_sum   'Hf40 Zr40 Ta40 Ti40 Mo40'
_cell_volume   3893.73234985
_cell_formula_units_Z   40
loop_
 _symmetry_equiv_pos_site_id
 _symmetry_equiv_pos_as_xyz
  1  'x, y, z'
loop_
 _atom_site_type_symbol
 _atom_site_label
 _atom_site_symmetry_multiplicity
 _atom_site_fract_x
 _atom_site_fract_y
 _atom_site_fract_z
 _atom_site_occupancy
  Hf  Hf0  1  0.40583851  0.40037262  0.25070109  1
  Hf  Hf1  1  0.40206270  -0.00117568  0.50937526  1
  Hf  Hf2  1  0.49994513  0.71326923  0.11446853  1
  Hf  Hf3  1  0.60978072  -0.01133951  0.24624325  1
  Hf  Hf4  1  0.21415989  0.79704229  0.26278946  1
  Hf  Hf5  1  0.60693901  0.78663150  0.75299153  1
  Hf  Hf6  1  0.49655670  0.68815072  0.86760050  1
  Hf  Hf7  1  0.50298898  0.48120179  0.87389754  1
  Hf  Hf8  1  0.11086816  0.51124990  0.61285773  1
  Hf  Hf9  1  0.19346862  0.59384512  0.27480283  1
  Hf  Hf10  1  0.40517981  0.00841608  -0.00780532  1
  Hf  Hf11  1  0.29628372  0.50092149  0.87705327  1
  Hf  Hf12  1  0.76494865  0.79696732  0.24861467  1
  Hf  Hf13  1  0.09972265  0.10481026  0.88457834  1
  Hf  Hf14  1  -0.00262194  0.20805758  0.01246931  1
  Hf  Hf15  1  0.29425911  0.71317528  0.87102160  1
  Hf  Hf16  1  0.89067881  0.69896197  0.13553325  1
  Hf  Hf17  1  0.31395102  0.32345013  0.62017294  1
  Hf  Hf18  1  0.00390263  0.40837498  0.74231022  1
  Hf  Hf19  1  0.19528276  0.80382488  0.74094554  1
  Hf  Hf20  1  0.39812472  0.61325237  0.25266162  1
  Hf  Hf21  1  0.92235527  0.08113325  0.62852259  1
  Hf  Hf22  1  0.09757996  0.69307673  0.13858145  1
  Hf  Hf23  1  0.78890821  0.39706547  0.51160102  1
  Hf  Hf24  1  0.10847827  0.29474651  0.62545472  1
  Hf  Hf25  1  0.59063895  0.20200366  -0.01666553  1
  Hf  Hf26  1  0.61830239  0.40479013  0.01939958  1
  Hf  Hf27  1  0.51239853  0.29755870  0.61073399  1
  Hf  Hf28  1  0.40780557  0.39106898  0.01345558  1
  Hf  Hf29  1  0.79472871  0.57707886  0.01094094  1
  Hf  Hf30  1  0.39425052  0.58633961  0.73263102  1
  Hf  Hf31  1  0.80822113  0.19883183  0.51227125  1
  Hf  Hf32  1  0.19498402  0.80198038  0.49443344  1
  Hf  Hf33  1  0.20025505  0.39827310  0.48046135  1
  Hf  Hf34  1  0.61662110  0.18865357  0.50212229  1
  Hf  Hf35  1  0.49982302  0.88022611  0.38807969  1
  Hf  Hf36  1  0.10581985  0.89786304  0.13306316  1
  Hf  Hf37  1  0.77874464  0.40447419  0.72758940  1
  Hf  Hf38  1  0.88695253  0.49091344  0.36665436  1
  Hf  Hf39  1  0.79984111  0.00164044  0.50808237  1
  Zr  Zr40  1  0.70395924  0.89266154  0.62663293  1
  Zr  Zr41  1  0.18745864  0.01380746  0.74314711  1
  Zr  Zr42  1  0.40028496  0.19604653  0.49490631  1
  Zr  Zr43  1  0.73932345  0.09739747  0.88354800  1
  Zr  Zr44  1  -0.00165561  0.00097604  0.01431976  1
  Zr  Zr45  1  -0.00580300  0.81214286  0.75778653  1
  Zr  Zr46  1  0.50158850  0.49417601  0.60734567  1
  Zr  Zr47  1  0.30423181  0.10181336  0.12827100  1
  Zr  Zr48  1  0.89667649  0.52100915  0.62142336  1
  Zr  Zr49  1  0.08548685  0.91423508  0.61853493  1
  Zr  Zr50  1  0.90430997  0.49513933  0.14421482  1
  Zr  Zr51  1  -0.00349254  0.61361142  0.47591883  1
  Zr  Zr52  1  0.89466598  0.09536495  0.35651578  1
  Zr  Zr53  1  0.60223229  -0.00394828  -0.02632259  1
  Zr  Zr54  1  0.10168357  0.89854354  0.88504492  1
  Zr  Zr55  1  0.70696821  0.31859907  0.87768840  1
  Zr  Zr56  1  0.01084673  0.19572651  0.49152265  1
  Zr  Zr57  1  0.39511967  0.59990154  0.00401643  1
  Zr  Zr58  1  0.28698640  0.50232763  0.13398721  1
  Zr  Zr59  1  0.18030451  0.60657291  0.75302485  1
  Zr  Zr60  1  0.89422462  0.90268583  0.35893785  1
  Zr  Zr61  1  0.60474607  0.62387213  0.25522728  1
  Zr  Zr62  1  0.69533991  0.10368808  0.11159323  1
  Zr  Zr63  1  0.87142101  0.49292632  0.87055753  1
  Zr  Zr64  1  0.61156027  0.19780907  0.75888994  1
  Zr  Zr65  1  0.90054294  0.28748327  0.87344308  1
  Zr  Zr66  1  0.10757867  0.30748925  0.13722171  1
  Zr  Zr67  1  0.19830883  0.39778083  0.00288352  1
  Zr  Zr68  1  0.41170893  -0.00465985  0.24866427  1
  Zr  Zr69  1  0.21214475  0.21653662  0.75650563  1
  Zr  Zr70  1  0.10392240  0.31312562  0.87608463  1
  Zr  Zr71  1  0.19897366  0.01181100  0.50061025  1
  Zr  Zr72  1  0.10620137  0.10186891  0.35438209  1
  Zr  Zr73  1  0.07044799  0.51676049  0.88823460  1
  Zr  Zr74  1  0.50520500  0.50789604  0.38441823  1
  Zr  Zr75  1  0.59720952  0.19527905  0.25702511  1
  Zr  Zr76  1  0.18405334  0.61804528  -0.00102589  1
  Zr  Zr77  1  0.87604667  0.90030116  0.89399762  1
  Zr  Zr78  1  0.69261705  0.89440380  0.38908210  1
  Zr  Zr79  1  -0.00388943  0.39464896  0.49067805  1
  Ta  Ta80  1  0.00779865  0.18775251  0.74872442  1
  Ta  Ta81  1  0.89630252  0.09395450  0.13970348  1
  Ta  Ta82  1  0.50890017  0.90542199  0.11295575  1
  Ta  Ta83  1  0.29778985  0.71310924  0.12464474  1
  Ta  Ta84  1  0.40117963  0.81057278  -0.00764817  1
  Ta  Ta85  1  0.39750973  0.60629423  0.50717974  1
  Ta  Ta86  1  0.60365009  0.79786797  -0.02183578  1
  Ta  Ta87  1  0.00070958  0.20327287  0.24520521  1
  Ta  Ta88  1  0.30377796  0.91088918  0.86820063  1
  Ta  Ta89  1  0.61616405  0.58305969  0.74719294  1
  Ta  Ta90  1  0.78736673  0.60367824  0.49242976  1
  Ta  Ta91  1  0.07725787  0.70774064  0.61474142  1
  Ta  Ta92  1  0.50820926  0.09265772  0.63777284  1
  Ta  Ta93  1  0.00255366  0.78586084  0.00690141  1
  Ta  Ta94  1  0.59995678  0.59669425  -0.00131963  1
  Ta  Ta95  1  0.70370370  0.30326766  0.37491279  1
  Ta  Ta96  1  0.09805306  0.90352689  0.36356884  1
  Ta  Ta97  1  0.60966317  -0.00258940  0.76192339  1
  Ta  Ta98  1  0.60441430  0.39966005  0.24369405  1
  Ta  Ta99  1  0.41304271  0.20968712  0.75131593  1
  Ta  Ta100  1  0.70223154  0.89231021  0.10692490  1
  Ta  Ta101  1  -0.00199929  0.60458014  0.27196927  1
  Ta  Ta102  1  0.89396983  0.29650039  0.13401661  1
  Ta  Ta103  1  0.30416952  0.29499413  0.14066268  1
  Ta  Ta104  1  0.80605857  0.77765401  0.74991650  1
  Ta  Ta105  1  0.71412854  0.68952747  0.88119878  1
  Ta  Ta106  1  0.39477554  0.79554036  0.73361808  1
  Ta  Ta107  1  0.30762525  0.09828813  0.36586291  1
  Ta  Ta108  1  0.30250917  0.11386786  0.63013540  1
  Ta  Ta109  1  0.80837537  0.19012968  0.73248677  1
  Ta  Ta110  1  0.69675829  0.50160448  0.37322031  1
  Ta  Ta111  1  0.50505790  0.30399590  0.38380282  1
  Ta  Ta112  1  0.90578430  0.69084019  0.89088313  1
  Ta  Ta113  1  -0.02146465  0.62087702  0.74626244  1
  Ta  Ta114  1  0.50826567  0.50577548  0.13139146  1
  Ta  Ta115  1  0.49086999  0.89375955  0.85548131  1
  Ta  Ta116  1  0.50496820  0.28447055  0.12848354  1
  Ta  Ta117  1  0.28517046  0.69203682  0.61771380  1
  Ta  Ta118  1  0.50277572  0.89773442  0.63736491  1
  Ta  Ta119  1  0.29770494  0.29327228  0.35923567  1
  Ti  Ti120  1  -0.01103842  0.80410515  0.48401278  1
  Ti  Ti121  1  0.90785944  0.29733009  0.63130393  1
  Ti  Ti122  1  0.21309873  0.20289528  0.00028846  1
  Ti  Ti123  1  0.01515476  0.40199830  0.26656620  1
  Ti  Ti124  1  0.79471857  0.78895172  0.49819507  1
  Ti  Ti125  1  0.87352034  0.70038410  0.36036521  1
  Ti  Ti126  1  0.89255053  0.89609182  0.12882848  1
  Ti  Ti127  1  0.80975956  -0.01083388  0.74809081  1
  Ti  Ti128  1  0.32025209  0.30959989  0.87212995  1
  Ti  Ti129  1  0.31822509  0.70945952  0.38761644  1
  Ti  Ti130  1  0.20786215  0.00465038  0.00363994  1
  Ti  Ti131  1  0.30383088  0.90507724  0.38012161  1
  Ti  Ti132  1  0.90057078  0.88292016  0.62142546  1
  Ti  Ti133  1  0.30877452  0.49806909  0.37999145  1
  Ti  Ti134  1  0.39812158  0.00498213  0.74696235  1
  Ti  Ti135  1  0.78908125  0.19948951  0.24672382  1
  Ti  Ti136  1  0.69947438  0.68459867  0.62068131  1
  Ti  Ti137  1  0.19811939  0.60704779  0.48153983  1
  Ti  Ti138  1  0.70588548  0.09390756  0.37144328  1
  Ti  Ti139  1  0.59972738  -0.00461015  0.51308686  1
  Ti  Ti140  1  0.20517170  0.20171123  0.49285948  1
  Ti  Ti141  1  0.89711723  0.29364767  0.36242401  1
  Ti  Ti142  1  0.58493847  0.39189752  0.74505929  1
  Ti  Ti143  1  0.09200569  0.49999843  0.12904112  1
  Ti  Ti144  1  0.40642181  0.79383633  0.52400126  1
  Ti  Ti145  1  0.20884014  -0.00338647  0.24838545  1
  Ti  Ti146  1  0.78770795  0.39590361  0.24398619  1
  Ti  Ti147  1  0.31049553  0.89679136  0.12175647  1
  Ti  Ti148  1  0.00084473  -0.00172085  0.48689114  1
  Ti  Ti149  1  0.40203902  0.20009850  -0.00474956  1
  Ti  Ti150  1  0.41179491  0.80354668  0.24902093  1
  Ti  Ti151  1  -0.00031430  0.79988908  0.25611042  1
  Ti  Ti152  1  0.50737206  0.09024779  0.38190097  1
  Ti  Ti153  1  0.29960152  0.90614395  0.62745558  1
  Ti  Ti154  1  0.10391156  0.10212262  0.13703749  1
  Ti  Ti155  1  0.20549051  0.81025779  0.00192469  1
  Ti  Ti156  1  0.40892602  0.19379076  0.25472661  1
  Ti  Ti157  1  0.30691299  0.10630895  0.87096125  1
  Ti  Ti158  1  0.69348249  0.69810580  0.11216919  1
  Ti  Ti159  1  0.21437909  0.41688810  0.74424651  1
  Mo  Mo160  1  0.39885187  0.39502129  0.74784528  1
  Mo  Mo161  1  0.60766674  0.39585364  0.49018565  1
  Mo  Mo162  1  0.70150227  0.88854634  0.86772516  1
  Mo  Mo163  1  0.20174568  0.40040831  0.26575708  1
  Mo  Mo164  1  0.08844837  0.70917812  0.88038209  1
  Mo  Mo165  1  0.20941631  0.19663626  0.24824214  1
  Mo  Mo166  1  0.69973511  0.50633462  0.14183491  1
  Mo  Mo167  1  0.49200637  0.70657116  0.38508705  1
  Mo  Mo168  1  0.80964494  0.38305717  0.01691104  1
  Mo  Mo169  1  -0.00918933  0.00646056  0.75986574  1
  Mo  Mo170  1  0.49701217  0.29857930  0.87741979  1
  Mo  Mo171  1  0.50203798  0.69917360  0.63292664  1
  Mo  Mo172  1  0.49747008  0.10348541  0.11928763  1
  Mo  Mo173  1  0.00513320  -0.00627531  0.23201041  1
  Mo  Mo174  1  0.79266563  0.59784242  0.25597492  1
  Mo  Mo175  1  -0.01610621  0.40694116  0.01308814  1
  Mo  Mo176  1  0.70379183  0.09102675  0.63642315  1
  Mo  Mo177  1  0.70019284  0.29382485  0.62821004  1
  Mo  Mo178  1  0.48654147  0.09266000  0.85502806  1
  Mo  Mo179  1  0.70285725  0.29984611  0.12895178  1
  Mo  Mo180  1  0.10223480  0.29894794  0.35914927  1
  Mo  Mo181  1  0.58421097  0.80729381  0.24253797  1
  Mo  Mo182  1  0.80607390  -0.00391404  0.01512286  1
  Mo  Mo183  1  0.29218906  0.50750282  0.60634820  1
  Mo  Mo184  1  0.60240676  0.60926144  0.49910335  1
  Mo  Mo185  1  0.09473318  0.71358941  0.37316773  1
  Mo  Mo186  1  0.68986132  0.50044867  0.61372141  1
  Mo  Mo187  1  0.79374285  -0.00111943  0.23524331  1
  Mo  Mo188  1  0.09941144  0.50114340  0.38129119  1
  Mo  Mo189  1  -0.00780635  0.59831948  0.01230465  1
  Mo  Mo190  1  0.68414003  0.70076934  0.38724160  1
  Mo  Mo191  1  0.39775087  0.39926365  0.48064329  1
  Mo  Mo192  1  0.10857759  0.10973446  0.62137466  1
  Mo  Mo193  1  0.89150981  0.71214728  0.61350519  1
  Mo  Mo194  1  0.79823964  0.79071367  0.00804006  1
  Mo  Mo195  1  0.79162719  0.60608817  0.74778934  1
  Mo  Mo196  1  0.91159447  0.09818351  0.87294601  1
  Mo  Mo197  1  0.59335926  0.78738999  0.52000220  1
  Mo  Mo198  1  0.80640151  0.20066470  0.01256820  1
  Mo  Mo199  1  0.69132233  0.50303450  0.87599246  1
