# generated using pymatgen
data_HfZrTaTiMo
_symmetry_space_group_name_H-M   'P 1'
_cell_length_a   15.20250486
_cell_length_b   15.21391719
_cell_length_c   16.82483369
_cell_angle_alpha   90.03767724
_cell_angle_beta   89.98628013
_cell_angle_gamma   89.94863626
_symmetry_Int_Tables_number   1
_chemical_formula_structural   HfZrTaTiMo
_chemical_formula_sum   'Hf40 Zr40 Ta40 Ti40 Mo40'
_cell_volume   3891.40737640
_cell_formula_units_Z   40
loop_
 _symmetry_equiv_pos_site_id
 _symmetry_equiv_pos_as_xyz
  1  'x, y, z'
loop_
 _atom_site_type_symbol
 _atom_site_label
 _atom_site_symmetry_multiplicity
 _atom_site_fract_x
 _atom_site_fract_y
 _atom_site_fract_z
 _atom_site_occupancy
  Hf  Hf0  1  0.59549364  0.20618594  0.49914757  1
  Hf  Hf1  1  0.48925427  0.69861583  0.63942293  1
  Hf  Hf2  1  0.89715691  0.30436385  0.13148161  1
  Hf  Hf3  1  0.00714045  0.19247483  0.23886345  1
  Hf  Hf4  1  0.79341743  0.79345405  -0.00407771  1
  Hf  Hf5  1  0.20056382  0.61316402  0.26201845  1
  Hf  Hf6  1  0.30535576  0.10930048  0.36892087  1
  Hf  Hf7  1  0.59584011  0.19958275  0.75683647  1
  Hf  Hf8  1  0.82262735  -0.00830210  0.26971689  1
  Hf  Hf9  1  0.88576953  0.09502938  0.62212500  1
  Hf  Hf10  1  -0.00448753  0.79514667  0.24786653  1
  Hf  Hf11  1  0.79935941  -0.00849751  -0.00606764  1
  Hf  Hf12  1  0.68680495  0.69528887  0.86910760  1
  Hf  Hf13  1  0.31560145  0.29837645  0.87190306  1
  Hf  Hf14  1  0.10818710  0.49506395  0.61656557  1
  Hf  Hf15  1  0.69956310  0.50094491  0.86877827  1
  Hf  Hf16  1  0.90525886  0.30148546  0.64073296  1
  Hf  Hf17  1  0.29682927  0.30407560  0.63976760  1
  Hf  Hf18  1  -0.00450727  -0.01653004  0.48390409  1
  Hf  Hf19  1  0.60360343  -0.00296815  0.48792815  1
  Hf  Hf20  1  0.90891328  0.50131395  0.87991062  1
  Hf  Hf21  1  0.40750274  -0.00107774  0.49815011  1
  Hf  Hf22  1  0.29975717  0.09758363  0.62685806  1
  Hf  Hf23  1  -0.01231491  0.20449351  0.49386172  1
  Hf  Hf24  1  0.09951593  0.88704952  0.61918539  1
  Hf  Hf25  1  0.69468089  0.89864289  0.13415307  1
  Hf  Hf26  1  -0.00476820  0.59305646  0.24164082  1
  Hf  Hf27  1  0.40771505  -0.00717175  0.25037581  1
  Hf  Hf28  1  0.90681554  0.70246418  0.61671143  1
  Hf  Hf29  1  0.09646460  0.30354231  0.37452456  1
  Hf  Hf30  1  0.90989221  0.08854740  0.88525011  1
  Hf  Hf31  1  0.80033823  0.59419515  0.74018204  1
  Hf  Hf32  1  0.67927385  0.69918617  0.12636711  1
  Hf  Hf33  1  0.20054817  0.19625602  0.76209708  1
  Hf  Hf34  1  0.19874723  0.40981249  0.25618157  1
  Hf  Hf35  1  0.30987030  0.89404339  0.36798641  1
  Hf  Hf36  1  0.29290756  0.70288261  0.63004934  1
  Hf  Hf37  1  0.08889042  0.89600935  0.88657766  1
  Hf  Hf38  1  0.39356252  0.21163505  0.49850208  1
  Hf  Hf39  1  0.39427478  0.00238643  -0.00898005  1
  Zr  Zr40  1  0.70830543  0.29319417  0.63045441  1
  Zr  Zr41  1  0.79667655  0.19269819  0.25740434  1
  Zr  Zr42  1  0.70261515  0.87618911  0.36778648  1
  Zr  Zr43  1  0.90415715  0.30565879  0.87373422  1
  Zr  Zr44  1  0.20969374  0.20883749  0.24264748  1
  Zr  Zr45  1  0.50624006  0.50935778  0.37076936  1
  Zr  Zr46  1  0.20425982  0.58910899  0.75943756  1
  Zr  Zr47  1  0.79091147  0.40114979  0.00685105  1
  Zr  Zr48  1  0.69501637  0.09015828  0.62486829  1
  Zr  Zr49  1  0.01003033  0.59623931  0.75050809  1
  Zr  Zr50  1  0.10563578  0.69307633  0.89310734  1
  Zr  Zr51  1  0.19571910  -0.00873683  0.75573009  1
  Zr  Zr52  1  0.68274810  0.30839038  0.13459871  1
  Zr  Zr53  1  0.49184856  0.50844918  0.87041755  1
  Zr  Zr54  1  0.00805425  0.19808367  0.75926010  1
  Zr  Zr55  1  0.80876236  0.38611644  0.49373534  1
  Zr  Zr56  1  0.90389977  0.70334448  0.88191176  1
  Zr  Zr57  1  0.09389459  0.09985025  0.61646067  1
  Zr  Zr58  1  0.69447498  0.49053224  0.61938312  1
  Zr  Zr59  1  0.58791824  0.22349904  -0.01200934  1
  Zr  Zr60  1  0.20181116  0.80039992  0.48886454  1
  Zr  Zr61  1  -0.01158613  -0.00897122  0.75165329  1
  Zr  Zr62  1  0.21753069  0.39719050  0.48342300  1
  Zr  Zr63  1  0.70017580  0.09631477  0.12072258  1
  Zr  Zr64  1  0.89438925  0.89147770  0.12976415  1
  Zr  Zr65  1  0.51751924  0.50298342  0.12141482  1
  Zr  Zr66  1  0.28735010  0.90326389  0.12583471  1
  Zr  Zr67  1  0.10500467  0.09411228  0.37511205  1
  Zr  Zr68  1  0.49191786  0.71232773  0.85218424  1
  Zr  Zr69  1  0.81004617  0.80623692  0.75357231  1
  Zr  Zr70  1  0.49120811  0.30279012  0.35602327  1
  Zr  Zr71  1  0.50676151  0.10163002  0.12517937  1
  Zr  Zr72  1  0.50044349  0.89394055  0.11821384  1
  Zr  Zr73  1  0.41431975  0.39076015  0.00197788  1
  Zr  Zr74  1  0.31903960  0.50247978  0.62387559  1
  Zr  Zr75  1  0.69355416  0.30317450  0.36710166  1
  Zr  Zr76  1  0.79842404  0.19959442  -0.00564885  1
  Zr  Zr77  1  0.49640140  0.31883538  0.63047021  1
  Zr  Zr78  1  0.68978408  0.68622014  0.38117048  1
  Zr  Zr79  1  0.29882477  0.50086032  0.11754390  1
  Ta  Ta80  1  0.78816412  0.59417996  0.00984972  1
  Ta  Ta81  1  0.02771427  -0.01068564  0.24069538  1
  Ta  Ta82  1  0.70692609  0.90071395  0.61849699  1
  Ta  Ta83  1  0.68764755  0.89882301  0.87638445  1
  Ta  Ta84  1  0.50147590  0.91133551  0.63831610  1
  Ta  Ta85  1  0.89556212  0.90015676  0.61726508  1
  Ta  Ta86  1  0.48609298  0.10975447  0.86934066  1
  Ta  Ta87  1  0.50598628  0.10552219  0.36436497  1
  Ta  Ta88  1  0.49413460  0.10411147  0.63542542  1
  Ta  Ta89  1  -0.00690872  0.60106175  0.01993767  1
  Ta  Ta90  1  0.20661073  -0.00173187  0.49898687  1
  Ta  Ta91  1  0.11539162  0.30650641  0.11176478  1
  Ta  Ta92  1  0.40576093  0.61185493  0.00218281  1
  Ta  Ta93  1  0.39492568  0.79808076  -0.00661096  1
  Ta  Ta94  1  0.19042557  0.81242701  0.25516616  1
  Ta  Ta95  1  0.20214113  0.59904061  0.48101632  1
  Ta  Ta96  1  0.88842027  0.69521376  0.37248163  1
  Ta  Ta97  1  0.10658624  0.30361690  0.89746068  1
  Ta  Ta98  1  0.00827099  0.79721336  0.74854542  1
  Ta  Ta99  1  0.90626802  0.09409235  0.12347791  1
  Ta  Ta100  1  0.60604356  0.81293527  0.73813470  1
  Ta  Ta101  1  0.40078182  0.61181820  0.24925539  1
  Ta  Ta102  1  0.30002386  0.89096124  0.87227703  1
  Ta  Ta103  1  0.80329509  0.59559093  0.50473677  1
  Ta  Ta104  1  0.58628767  0.59642423  0.51109906  1
  Ta  Ta105  1  0.79961454  0.19106886  0.76559911  1
  Ta  Ta106  1  0.48815687  0.71707049  0.38035566  1
  Ta  Ta107  1  0.01424443  -0.00253775  0.01777292  1
  Ta  Ta108  1  0.69864057  0.70272419  0.61955337  1
  Ta  Ta109  1  0.10364699  0.50239463  0.11402566  1
  Ta  Ta110  1  0.59499297  0.41015095  0.75138471  1
  Ta  Ta111  1  0.59213446  0.80113492  0.51148964  1
  Ta  Ta112  1  0.30106581  0.10458114  0.12850050  1
  Ta  Ta113  1  0.59417971  0.60919412  0.25167375  1
  Ta  Ta114  1  0.90648526  0.49323628  0.62535500  1
  Ta  Ta115  1  0.10264213  0.30427777  0.62325323  1
  Ta  Ta116  1  0.10036285  0.69381200  0.61303793  1
  Ta  Ta117  1  0.61037149  0.00403144  0.26496994  1
  Ta  Ta118  1  0.78646536  -0.00394053  0.76141048  1
  Ta  Ta119  1  0.00906634  0.19732216  0.01298100  1
  Ti  Ti120  1  0.40442097  0.80484396  0.50594784  1
  Ti  Ti121  1  0.30296170  0.68973951  0.87449084  1
  Ti  Ti122  1  0.01530132  0.40219822  0.75676707  1
  Ti  Ti123  1  0.11296280  0.49646269  0.90577380  1
  Ti  Ti124  1  0.21081386  0.19253835  0.00411433  1
  Ti  Ti125  1  -0.00258374  0.59808007  0.49492167  1
  Ti  Ti126  1  0.89711071  0.49843028  0.37306721  1
  Ti  Ti127  1  0.20119830  0.40267563  0.76662327  1
  Ti  Ti128  1  -0.00391187  0.79981633  0.01542864  1
  Ti  Ti129  1  0.19793561  0.20222109  0.49937271  1
  Ti  Ti130  1  -0.00113842  0.40430091  0.24023525  1
  Ti  Ti131  1  0.08578682  0.70946411  0.38163464  1
  Ti  Ti132  1  0.88281395  0.69273766  0.13154181  1
  Ti  Ti133  1  0.58577492  0.79707635  -0.00518590  1
  Ti  Ti134  1  0.11005213  0.70319807  0.11977472  1
  Ti  Ti135  1  0.00098399  0.40280064  0.49851510  1
  Ti  Ti136  1  0.39615918  0.00783706  0.75883020  1
  Ti  Ti137  1  0.79757928  0.18195418  0.47659545  1
  Ti  Ti138  1  0.57328280  0.80066880  0.25145231  1
  Ti  Ti139  1  0.00013739  0.40137485  0.01187745  1
  Ti  Ti140  1  0.30255256  0.70586265  0.12456215  1
  Ti  Ti141  1  0.70428897  0.49836648  0.38495719  1
  Ti  Ti142  1  0.38778507  0.40398430  0.24904081  1
  Ti  Ti143  1  0.30651663  0.89792608  0.63318222  1
  Ti  Ti144  1  0.09112681  0.50521853  0.37693697  1
  Ti  Ti145  1  0.39233136  0.60877513  0.49087674  1
  Ti  Ti146  1  0.48885700  0.29726723  0.14517292  1
  Ti  Ti147  1  0.69788508  0.30921982  0.86537719  1
  Ti  Ti148  1  0.11011053  0.09855005  0.89230131  1
  Ti  Ti149  1  0.41614486  0.41347833  0.49033384  1
  Ti  Ti150  1  0.90121317  0.30507293  0.35982869  1
  Ti  Ti151  1  0.50089732  0.90818816  0.86485433  1
  Ti  Ti152  1  0.80474376  -0.00559330  0.47557433  1
  Ti  Ti153  1  0.61392072  0.41602067  0.25107055  1
  Ti  Ti154  1  0.78986424  0.58471141  0.24430602  1
  Ti  Ti155  1  0.68497339  0.09325911  0.88005630  1
  Ti  Ti156  1  0.20320006  0.80301611  0.00130085  1
  Ti  Ti157  1  0.19688342  0.79232952  0.75473348  1
  Ti  Ti158  1  0.80704555  0.80155232  0.49660069  1
  Ti  Ti159  1  0.39661666  0.20011584  0.00389160  1
  Mo  Mo160  1  0.59474731  -0.00424242  -0.01668070  1
  Mo  Mo161  1  0.40103948  0.20095529  0.24410297  1
  Mo  Mo162  1  0.49757608  0.50597989  0.62794926  1
  Mo  Mo163  1  -0.00672157  0.79017213  0.49130387  1
  Mo  Mo164  1  0.50313961  0.89711905  0.37607396  1
  Mo  Mo165  1  0.60092227  0.60408256  0.73210448  1
  Mo  Mo166  1  0.48808501  0.70167153  0.12137991  1
  Mo  Mo167  1  0.70230618  0.50761263  0.12900725  1
  Mo  Mo168  1  0.91123270  0.88171101  0.37018120  1
  Mo  Mo169  1  0.90797529  0.09959927  0.37039347  1
  Mo  Mo170  1  0.30614854  0.29773987  0.12003844  1
  Mo  Mo171  1  0.39203994  0.78813176  0.24719437  1
  Mo  Mo172  1  0.20221968  0.00223248  0.24758959  1
  Mo  Mo173  1  0.29870488  0.09655567  0.87915407  1
  Mo  Mo174  1  0.60890771  0.41504805  -0.00899623  1
  Mo  Mo175  1  0.30241180  0.30649180  0.37367564  1
  Mo  Mo176  1  0.39442341  0.59885524  0.75390110  1
  Mo  Mo177  1  0.69889016  0.09658585  0.37613491  1
  Mo  Mo178  1  0.10694438  0.89722050  0.37266631  1
  Mo  Mo179  1  0.11170437  0.09566344  0.11794947  1
  Mo  Mo180  1  0.20510228  0.39479555  -0.00122326  1
  Mo  Mo181  1  0.39949656  0.19739364  0.74928184  1
  Mo  Mo182  1  0.30127316  0.69896925  0.37370547  1
  Mo  Mo183  1  0.20325919  0.00159131  -0.00955018  1
  Mo  Mo184  1  0.59593591  -0.00008811  0.75568761  1
  Mo  Mo185  1  0.10323299  0.89090357  0.11674466  1
  Mo  Mo186  1  0.79426089  0.77737284  0.25137454  1
  Mo  Mo187  1  0.50747912  0.30630795  0.86370284  1
  Mo  Mo188  1  0.39214886  0.40884604  0.75989207  1
  Mo  Mo189  1  0.30883491  0.50643064  0.36971886  1
  Mo  Mo190  1  0.38704939  0.81515237  0.75052453  1
  Mo  Mo191  1  0.20855464  0.60815066  0.00640088  1
  Mo  Mo192  1  0.80704737  0.39806720  0.75201299  1
  Mo  Mo193  1  0.29403001  0.50389048  0.89274601  1
  Mo  Mo194  1  0.80818440  0.41198614  0.25559577  1
  Mo  Mo195  1  0.59585772  0.40638879  0.49485731  1
  Mo  Mo196  1  0.59804560  0.60634626  -0.00361233  1
  Mo  Mo197  1  0.89983086  0.89780261  0.88534620  1
  Mo  Mo198  1  0.59732288  0.19663578  0.24900832  1
  Mo  Mo199  1  0.90045808  0.50266844  0.12447572  1
