# generated using pymatgen
data_HfZrTaTiMo
_symmetry_space_group_name_H-M   'P 1'
_cell_length_a   15.19833762
_cell_length_b   15.21965707
_cell_length_c   16.85268328
_cell_angle_alpha   90.03143635
_cell_angle_beta   90.05398651
_cell_angle_gamma   89.86741667
_symmetry_Int_Tables_number   1
_chemical_formula_structural   HfZrTaTiMo
_chemical_formula_sum   'Hf40 Zr40 Ta40 Ti40 Mo40'
_cell_volume   3898.24017981
_cell_formula_units_Z   40
loop_
 _symmetry_equiv_pos_site_id
 _symmetry_equiv_pos_as_xyz
  1  'x, y, z'
loop_
 _atom_site_type_symbol
 _atom_site_label
 _atom_site_symmetry_multiplicity
 _atom_site_fract_x
 _atom_site_fract_y
 _atom_site_fract_z
 _atom_site_occupancy
  Hf  Hf0  1  0.50090589  0.70856025  0.38622942  1
  Hf  Hf1  1  0.89797387  0.30629220  0.63837257  1
  Hf  Hf2  1  0.38467856  0.61443205  0.73264212  1
  Hf  Hf3  1  0.50919544  0.71331483  0.61368963  1
  Hf  Hf4  1  0.30208744  0.50617037  0.38392148  1
  Hf  Hf5  1  0.09597696  0.89273551  0.63261658  1
  Hf  Hf6  1  0.59889488  0.00249581  0.26689844  1
  Hf  Hf7  1  0.50488330  0.91792281  0.60759108  1
  Hf  Hf8  1  0.42123017  0.20468525  0.75972451  1
  Hf  Hf9  1  0.10141526  0.49933347  0.37331210  1
  Hf  Hf10  1  0.39935261  0.59973125  -0.00127186  1
  Hf  Hf11  1  0.41988132  0.39797294  0.25543108  1
  Hf  Hf12  1  0.88852982  0.89086795  0.61823950  1
  Hf  Hf13  1  0.68974535  0.09302437  0.61884444  1
  Hf  Hf14  1  0.70082604  0.90915028  0.12996303  1
  Hf  Hf15  1  0.38172744  0.40183018  0.75374243  1
  Hf  Hf16  1  0.80276446  0.20549279  0.24603055  1
  Hf  Hf17  1  0.91953801  0.10875736  0.37168217  1
  Hf  Hf18  1  0.72362452  0.68933907  0.88245942  1
  Hf  Hf19  1  0.19298588  0.81987564  0.24329033  1
  Hf  Hf20  1  0.20156481  0.40238423  0.24319097  1
  Hf  Hf21  1  0.29167133  0.91080233  0.62479850  1
  Hf  Hf22  1  0.39944784  0.39609739  -0.02098481  1
  Hf  Hf23  1  0.69508065  0.49585074  0.12396504  1
  Hf  Hf24  1  0.90532042  0.30937057  0.87090196  1
  Hf  Hf25  1  0.01488264  0.19987855  0.51679550  1
  Hf  Hf26  1  0.88946683  0.51349176  0.63353913  1
  Hf  Hf27  1  0.30373262  0.71273787  0.12967480  1
  Hf  Hf28  1  0.12377503  0.09118868  0.64486255  1
  Hf  Hf29  1  0.08346744  0.69518775  0.88979427  1
  Hf  Hf30  1  0.89543588  0.49741713  0.36845434  1
  Hf  Hf31  1  0.68910762  0.08875177  0.87408724  1
  Hf  Hf32  1  0.89954470  0.09522123  0.62571095  1
  Hf  Hf33  1  0.09518794  0.28158785  0.37287209  1
  Hf  Hf34  1  0.60095398  0.80340876  0.00004148  1
  Hf  Hf35  1  0.90524749  0.69963671  0.36365322  1
  Hf  Hf36  1  0.19909738  0.40188065  -0.00659665  1
  Hf  Hf37  1  0.10455633  0.89278306  0.88575653  1
  Hf  Hf38  1  0.50039244  0.11018001  0.38596377  1
  Hf  Hf39  1  0.59217503  0.19418834  -0.00794658  1
  Zr  Zr40  1  0.39451648  0.60085576  0.51050816  1
  Zr  Zr41  1  0.20035764  0.39128097  0.51465454  1
  Zr  Zr42  1  -0.00083152  0.79622255  0.48757857  1
  Zr  Zr43  1  0.61364775  0.81666897  0.74121344  1
  Zr  Zr44  1  0.79693600  -0.00342252  0.47986998  1
  Zr  Zr45  1  0.81145747  -0.00241805  0.26080664  1
  Zr  Zr46  1  0.61541157  0.60032457  0.74101666  1
  Zr  Zr47  1  0.10420193  0.09621564  0.86678285  1
  Zr  Zr48  1  0.49813867  0.50852237  0.85996486  1
  Zr  Zr49  1  0.01321825  -0.00508822  0.49296512  1
  Zr  Zr50  1  0.41447177  0.00231975  -0.00486526  1
  Zr  Zr51  1  0.39870391  0.60114376  0.25899930  1
  Zr  Zr52  1  0.68642681  0.70586603  0.14053915  1
  Zr  Zr53  1  0.89162657  0.29973174  0.37739014  1
  Zr  Zr54  1  0.50620539  0.71395885  0.86166531  1
  Zr  Zr55  1  0.39539262  0.20000158  -0.02083847  1
  Zr  Zr56  1  0.77828710  0.40068696  0.50473554  1
  Zr  Zr57  1  0.81115296  0.78235215  0.75289269  1
  Zr  Zr58  1  -0.00817397  -0.00898486  0.75709330  1
  Zr  Zr59  1  0.29452559  0.11002828  0.37510095  1
  Zr  Zr60  1  0.20041820  0.20010344  -0.00456801  1
  Zr  Zr61  1  0.00565216  0.60127322  0.23252054  1
  Zr  Zr62  1  0.50892339  0.09866417  0.13010734  1
  Zr  Zr63  1  0.60010037  0.59605208  -0.00173997  1
  Zr  Zr64  1  0.39880816  0.80708109  -0.00315770  1
  Zr  Zr65  1  0.59645875  0.57783380  0.26865034  1
  Zr  Zr66  1  -0.00350891  0.40070751  0.50903336  1
  Zr  Zr67  1  0.10308528  0.30337335  0.85692575  1
  Zr  Zr68  1  0.40283948  0.20222476  0.24640203  1
  Zr  Zr69  1  0.69010115  0.29905592  0.11398911  1
  Zr  Zr70  1  0.80786145  0.40610526  -0.00425001  1
  Zr  Zr71  1  0.29369659  0.70287053  0.87786648  1
  Zr  Zr72  1  0.60888311  0.58255456  0.49485303  1
  Zr  Zr73  1  0.30278395  0.30608757  0.38267585  1
  Zr  Zr74  1  0.30083873  0.50356154  0.12520886  1
  Zr  Zr75  1  0.78637959  -0.01401285  0.75031979  1
  Zr  Zr76  1  0.49814080  0.88721681  0.13875106  1
  Zr  Zr77  1  0.10464302  0.69058208  0.62569391  1
  Zr  Zr78  1  0.18356945  0.19477906  0.23533011  1
  Zr  Zr79  1  -0.00932841  0.38607063  0.23448458  1
  Ta  Ta80  1  0.38502014  0.01626653  0.50307999  1
  Ta  Ta81  1  0.80074618  0.20394325  0.50524216  1
  Ta  Ta82  1  0.21269008  -0.00212772  -0.00169066  1
  Ta  Ta83  1  0.79230061  0.40352217  0.75642235  1
  Ta  Ta84  1  0.39957175  0.01068814  0.74937344  1
  Ta  Ta85  1  0.60784520  0.21495255  0.50366062  1
  Ta  Ta86  1  -0.00751460  0.81302659  0.23800546  1
  Ta  Ta87  1  0.20416567  0.79180449  0.75208298  1
  Ta  Ta88  1  0.29093578  0.71303520  0.37491456  1
  Ta  Ta89  1  0.70994414  0.10204242  0.11747050  1
  Ta  Ta90  1  0.70664277  0.89486402  0.88857824  1
  Ta  Ta91  1  -0.01257402  0.58942802  0.01638990  1
  Ta  Ta92  1  0.09072495  0.91155008  0.10727859  1
  Ta  Ta93  1  0.79824428  0.80168683  0.25390725  1
  Ta  Ta94  1  0.90924370  0.09293346  0.11881869  1
  Ta  Ta95  1  0.19216301  0.59022123  0.75797211  1
  Ta  Ta96  1  0.28398355  0.91064112  0.38246121  1
  Ta  Ta97  1  0.10980401  0.30053509  0.65212516  1
  Ta  Ta98  1  0.80672364  -0.00126167  0.00191324  1
  Ta  Ta99  1  0.81449897  0.79464732  0.01734679  1
  Ta  Ta100  1  0.71682327  0.69752626  0.61070541  1
  Ta  Ta101  1  0.80246593  0.59568722  0.24107161  1
  Ta  Ta102  1  0.89602906  0.51826993  0.87137157  1
  Ta  Ta103  1  0.90600108  0.88660806  0.89309116  1
  Ta  Ta104  1  0.31073916  0.29996429  0.12119390  1
  Ta  Ta105  1  0.08498112  0.49696547  0.87547153  1
  Ta  Ta106  1  0.00341936  0.59680225  0.49732771  1
  Ta  Ta107  1  0.00073226  0.79151684  0.75640073  1
  Ta  Ta108  1  0.89227126  0.10100627  0.88069674  1
  Ta  Ta109  1  0.01783019  0.00002513  0.24958214  1
  Ta  Ta110  1  0.60094355  0.21396017  0.25338930  1
  Ta  Ta111  1  0.80746563  0.60102352  0.49217466  1
  Ta  Ta112  1  0.29835939  0.09178826  0.12518936  1
  Ta  Ta113  1  0.51456445  0.91940376  0.86569948  1
  Ta  Ta114  1  0.38526315  -0.00700459  0.25426274  1
  Ta  Ta115  1  0.40500922  0.22088728  0.51518126  1
  Ta  Ta116  1  0.79176201  0.19967275  0.74982784  1
  Ta  Ta117  1  0.50292619  0.48107002  0.12004806  1
  Ta  Ta118  1  0.39851001  0.81464730  0.74094858  1
  Ta  Ta119  1  0.19840691  0.60995046  0.24815841  1
  Ti  Ti120  1  0.70199036  0.11625103  0.38103590  1
  Ti  Ti121  1  0.09687825  0.70417973  0.11558306  1
  Ti  Ti122  1  0.51146108  0.30505419  0.63121165  1
  Ti  Ti123  1  0.78552687  0.40134699  0.24752862  1
  Ti  Ti124  1  0.70460303  0.28982534  0.87801997  1
  Ti  Ti125  1  0.68071173  0.31632624  0.37452275  1
  Ti  Ti126  1  0.30456936  0.90532865  0.86679033  1
  Ti  Ti127  1  0.19533120  0.80730334  0.49634144  1
  Ti  Ti128  1  0.80737218  0.60369154  0.02128290  1
  Ti  Ti129  1  0.10563418  0.70283180  0.36955353  1
  Ti  Ti130  1  0.69269399  0.48703142  0.63166447  1
  Ti  Ti131  1  0.08974872  0.49544545  0.63806897  1
  Ti  Ti132  1  0.89775131  0.29065242  0.10994191  1
  Ti  Ti133  1  0.40006310  0.80686001  0.26284102  1
  Ti  Ti134  1  0.49737704  0.49322034  0.62955757  1
  Ti  Ti135  1  0.19735531  0.61073119  0.50069924  1
  Ti  Ti136  1  -0.00699183  0.19631855  0.75013238  1
  Ti  Ti137  1  0.21336151  0.18600220  0.51948698  1
  Ti  Ti138  1  0.49942364  0.69006610  0.13894832  1
  Ti  Ti139  1  0.50086866  0.10739837  0.61882188  1
  Ti  Ti140  1  0.28540967  0.50142278  0.62320455  1
  Ti  Ti141  1  0.09735474  0.49450000  0.11679122  1
  Ti  Ti142  1  0.19645165  0.59805608  -0.00106118  1
  Ti  Ti143  1  0.70160301  0.69435590  0.36943627  1
  Ti  Ti144  1  -0.01077270  0.60636201  0.75418246  1
  Ti  Ti145  1  0.11573812  0.08080332  0.37340711  1
  Ti  Ti146  1  0.23058969  0.19979709  0.75332453  1
  Ti  Ti147  1  0.09532442  0.09802524  0.11198144  1
  Ti  Ti148  1  0.60028579  0.38223646  0.75771672  1
  Ti  Ti149  1  0.49004186  0.90430771  0.39063889  1
  Ti  Ti150  1  0.79809133  0.79462999  0.48244060  1
  Ti  Ti151  1  0.69235334  0.89329377  0.59824417  1
  Ti  Ti152  1  0.59220460  0.39451764  -0.01579309  1
  Ti  Ti153  1  0.70276374  0.49424873  0.87254584  1
  Ti  Ti154  1  0.38649027  0.80612025  0.50202718  1
  Ti  Ti155  1  0.90464308  0.69995996  0.61710788  1
  Ti  Ti156  1  0.20218612  0.80289109  0.00929024  1
  Ti  Ti157  1  0.09186706  0.29582354  0.11333264  1
  Ti  Ti158  1  -0.00825249  0.19787968  -0.00716280  1
  Ti  Ti159  1  0.68412177  0.88689785  0.37778197  1
  Mo  Mo160  1  0.59250434  0.80102489  0.26741860  1
  Mo  Mo161  1  0.49714612  0.30373993  0.11768937  1
  Mo  Mo162  1  0.90737973  0.69586545  0.88710263  1
  Mo  Mo163  1  0.51410184  0.30305525  0.86672375  1
  Mo  Mo164  1  0.59553088  0.00673724  0.48216746  1
  Mo  Mo165  1  0.89606731  0.48987949  0.12927558  1
  Mo  Mo166  1  0.89630879  0.70038923  0.13860955  1
  Mo  Mo167  1  0.19838772  0.00173879  0.23647423  1
  Mo  Mo168  1  0.29301542  0.71001212  0.62469818  1
  Mo  Mo169  1  0.00144655  0.00488462  -0.00685190  1
  Mo  Mo170  1  0.61153652  0.20070875  0.74655426  1
  Mo  Mo171  1  0.29606530  0.90789520  0.12426970  1
  Mo  Mo172  1  -0.00236568  0.41360170  0.74869002  1
  Mo  Mo173  1  -0.00442206  0.19051029  0.23279110  1
  Mo  Mo174  1  0.31329334  0.10510746  0.62779742  1
  Mo  Mo175  1  0.40521603  0.40493566  0.52087535  1
  Mo  Mo176  1  0.60637374  0.79950853  0.49273289  1
  Mo  Mo177  1  0.00199125  0.40048659  0.00622944  1
  Mo  Mo178  1  0.28114901  0.50561024  0.87338818  1
  Mo  Mo179  1  0.30082515  0.09090527  0.86905350  1
  Mo  Mo180  1  0.29667149  0.30116284  0.86736915  1
  Mo  Mo181  1  0.10197737  0.89351611  0.36827375  1
  Mo  Mo182  1  0.50415053  0.47623869  0.39056960  1
  Mo  Mo183  1  0.21253441  -0.00994602  0.76169058  1
  Mo  Mo184  1  0.80398766  0.19352541  -0.00434658  1
  Mo  Mo185  1  0.19775626  0.40677509  0.74552584  1
  Mo  Mo186  1  0.70716079  0.49807508  0.37140651  1
  Mo  Mo187  1  0.79859949  0.59496963  0.74727972  1
  Mo  Mo188  1  0.58651096  0.39488135  0.50891848  1
  Mo  Mo189  1  0.19952103  0.00054443  0.50198158  1
  Mo  Mo190  1  0.50169963  0.30197274  0.38680306  1
  Mo  Mo191  1  0.59146945  0.00578739  0.74214786  1
  Mo  Mo192  1  0.69880527  0.29637406  0.63502339  1
  Mo  Mo193  1  0.90273573  0.90391752  0.12091233  1
  Mo  Mo194  1  0.30331080  0.29762545  0.62818411  1
  Mo  Mo195  1  0.61008322  -0.00570380  0.00405307  1
  Mo  Mo196  1  0.60128477  0.38910088  0.24916751  1
  Mo  Mo197  1  0.50653924  0.09558861  0.86710438  1
  Mo  Mo198  1  -0.00164030  0.79625243  0.01940561  1
  Mo  Mo199  1  0.89905822  0.89610107  0.36511325  1
