# generated using pymatgen
data_HfZrTaTiMo
_symmetry_space_group_name_H-M   'P 1'
_cell_length_a   15.20355574
_cell_length_b   15.20665786
_cell_length_c   16.82871271
_cell_angle_alpha   89.99036463
_cell_angle_beta   89.99792854
_cell_angle_gamma   90.14196566
_symmetry_Int_Tables_number   1
_chemical_formula_structural   HfZrTaTiMo
_chemical_formula_sum   'Hf40 Zr40 Ta40 Ti40 Mo40'
_cell_volume   3890.70678156
_cell_formula_units_Z   40
loop_
 _symmetry_equiv_pos_site_id
 _symmetry_equiv_pos_as_xyz
  1  'x, y, z'
loop_
 _atom_site_type_symbol
 _atom_site_label
 _atom_site_symmetry_multiplicity
 _atom_site_fract_x
 _atom_site_fract_y
 _atom_site_fract_z
 _atom_site_occupancy
  Hf  Hf0  1  0.70467431  0.08243652  0.12196678  1
  Hf  Hf1  1  0.51144558  0.69961108  0.38267974  1
  Hf  Hf2  1  0.40716629  0.40659486  0.49447257  1
  Hf  Hf3  1  0.48600999  0.89065991  0.39470267  1
  Hf  Hf4  1  0.17960088  -0.01055030  -0.00718025  1
  Hf  Hf5  1  0.20547231  0.18891184  0.50230045  1
  Hf  Hf6  1  0.90924505  0.91372000  0.62668617  1
  Hf  Hf7  1  0.79543561  0.79592300  0.74989754  1
  Hf  Hf8  1  0.39389945  -0.01031094  -0.01390164  1
  Hf  Hf9  1  0.20294702  0.78995367  0.00200235  1
  Hf  Hf10  1  0.81269400  0.60982619  -0.00997887  1
  Hf  Hf11  1  0.21938243  0.80109853  0.51614018  1
  Hf  Hf12  1  -0.00527266  0.60449684  0.24993052  1
  Hf  Hf13  1  0.30374753  0.50120041  0.12487336  1
  Hf  Hf14  1  0.49918881  0.29328846  0.62050357  1
  Hf  Hf15  1  0.78620337  0.20775925  0.76039530  1
  Hf  Hf16  1  0.29194979  0.88969635  0.86104372  1
  Hf  Hf17  1  0.61154095  0.39605135  0.50877314  1
  Hf  Hf18  1  0.00097613  0.40008925  0.74637887  1
  Hf  Hf19  1  0.70317572  0.89032675  0.39077863  1
  Hf  Hf20  1  0.20307478  0.20769279  0.74626580  1
  Hf  Hf21  1  0.30586736  0.09480518  0.63666027  1
  Hf  Hf22  1  0.00067022  0.80348917  0.01399933  1
  Hf  Hf23  1  0.18056899  0.20779676  0.24204564  1
  Hf  Hf24  1  0.42513768  0.79890730  0.75563688  1
  Hf  Hf25  1  0.50055536  0.30002444  0.37266872  1
  Hf  Hf26  1  0.20223506  0.80508168  0.23653068  1
  Hf  Hf27  1  0.60001525  0.20241935  0.23403564  1
  Hf  Hf28  1  0.69251879  0.31837636  0.89517266  1
  Hf  Hf29  1  0.58789029  -0.00763308  0.26113992  1
  Hf  Hf30  1  0.80360925  0.42288817  0.48357668  1
  Hf  Hf31  1  0.59790147  0.40200324  0.22704710  1
  Hf  Hf32  1  0.70605798  0.68350479  0.37815252  1
  Hf  Hf33  1  0.79568113  0.20583618  0.25415690  1
  Hf  Hf34  1  0.28804445  0.11283306  0.88180851  1
  Hf  Hf35  1  0.90487631  0.50528848  0.11983704  1
  Hf  Hf36  1  0.49828522  0.90488688  0.61934561  1
  Hf  Hf37  1  0.41794779  0.60475200  0.24950542  1
  Hf  Hf38  1  0.79769415  0.00502090  0.76436076  1
  Hf  Hf39  1  0.00881104  0.39939974  0.00309034  1
  Zr  Zr40  1  0.48054886  0.10302434  0.37569525  1
  Zr  Zr41  1  0.87635665  0.90337218  0.12255499  1
  Zr  Zr42  1  0.59209838  0.20517599  0.01815784  1
  Zr  Zr43  1  0.30109662  0.47864396  0.86927814  1
  Zr  Zr44  1  0.71300022  0.50643173  0.63246605  1
  Zr  Zr45  1  0.19901363  0.59703613  0.49491963  1
  Zr  Zr46  1  0.78769690  -0.01053663  -0.02349696  1
  Zr  Zr47  1  0.17565160  -0.01067429  0.50285778  1
  Zr  Zr48  1  0.20330942  0.40287493  0.50004976  1
  Zr  Zr49  1  0.40161009  0.60130643  0.49651246  1
  Zr  Zr50  1  0.09745245  0.70990084  0.37312501  1
  Zr  Zr51  1  0.39157335  0.20670535  0.23036870  1
  Zr  Zr52  1  0.28284081  0.09704089  0.11437551  1
  Zr  Zr53  1  0.61430969  0.78918243  0.52127055  1
  Zr  Zr54  1  0.60241083  0.60402264  0.01184912  1
  Zr  Zr55  1  0.80559160  0.19825679  -0.00337711  1
  Zr  Zr56  1  0.11903248  0.30176354  0.87913403  1
  Zr  Zr57  1  0.79874434  0.00485501  0.26897100  1
  Zr  Zr58  1  0.31430507  0.49933758  0.64176008  1
  Zr  Zr59  1  0.00512092  0.40128176  0.50607024  1
  Zr  Zr60  1  0.21000651  0.59199577  0.26094083  1
  Zr  Zr61  1  0.59041252  0.20171975  0.75741964  1
  Zr  Zr62  1  0.81211059  0.79626015  0.25579977  1
  Zr  Zr63  1  -0.00439819  0.18541753  0.49804023  1
  Zr  Zr64  1  0.87785384  0.30355333  0.62022314  1
  Zr  Zr65  1  0.48712646  0.08530655  0.12412359  1
  Zr  Zr66  1  0.10487444  0.51193854  0.86400543  1
  Zr  Zr67  1  0.01458843  0.80575286  0.51485619  1
  Zr  Zr68  1  0.08490213  0.07916298  0.63502132  1
  Zr  Zr69  1  -0.01151250  0.19368538  0.75297345  1
  Zr  Zr70  1  0.31052391  0.71603053  0.37562724  1
  Zr  Zr71  1  0.29884358  0.29506660  0.37372420  1
  Zr  Zr72  1  -0.01618594  0.00278370  -0.01449791  1
  Zr  Zr73  1  0.37768224  -0.00232824  0.50243164  1
  Zr  Zr74  1  0.30382879  0.68318070  0.86073487  1
  Zr  Zr75  1  0.78573566  0.19644231  0.48054833  1
  Zr  Zr76  1  0.90773575  0.31038856  0.36827546  1
  Zr  Zr77  1  0.60257923  0.40679473  0.74605142  1
  Zr  Zr78  1  0.60478628  0.79339875  0.24265362  1
  Zr  Zr79  1  0.81486024  0.60089368  0.76407321  1
  Ta  Ta80  1  0.50277030  0.68334349  0.63111472  1
  Ta  Ta81  1  -0.00399285  0.59462779  0.49820354  1
  Ta  Ta82  1  0.01557107  0.60779978  0.00282989  1
  Ta  Ta83  1  0.10721423  0.50697819  0.63677191  1
  Ta  Ta84  1  0.30626130  0.29452241  0.62027998  1
  Ta  Ta85  1  0.49483507  0.89194285  0.11972478  1
  Ta  Ta86  1  0.59249841  -0.01137352  -0.00901209  1
  Ta  Ta87  1  0.69331492  0.10294506  0.62500918  1
  Ta  Ta88  1  0.92725293  0.71187104  0.87200159  1
  Ta  Ta89  1  0.00895724  0.39435142  0.24276393  1
  Ta  Ta90  1  0.40351716  0.38493661  0.75302692  1
  Ta  Ta91  1  0.60448200  0.58479885  0.50768649  1
  Ta  Ta92  1  0.79939065  0.59549097  0.24949224  1
  Ta  Ta93  1  0.91076835  0.51187190  0.62998128  1
  Ta  Ta94  1  0.89261930  0.30584031  0.12520802  1
  Ta  Ta95  1  0.30261715  0.69662578  0.64538503  1
  Ta  Ta96  1  0.29487815  0.89643687  0.65259134  1
  Ta  Ta97  1  0.50306466  0.50503454  0.87567513  1
  Ta  Ta98  1  0.40716758  0.60207684  0.00050771  1
  Ta  Ta99  1  0.10813591  0.69001401  0.12780714  1
  Ta  Ta100  1  0.60782079  0.01168491  0.49520584  1
  Ta  Ta101  1  0.69050651  0.31172972  0.36597074  1
  Ta  Ta102  1  0.59320979  -0.00530239  0.75517524  1
  Ta  Ta103  1  0.40474961  0.81033571  0.24497507  1
  Ta  Ta104  1  0.00488694  0.80874932  0.23301364  1
  Ta  Ta105  1  0.72295355  0.70778122  0.12136260  1
  Ta  Ta106  1  0.90314846  0.10752117  0.12781732  1
  Ta  Ta107  1  0.60889591  0.80227362  0.00782293  1
  Ta  Ta108  1  0.50016360  0.09939937  0.62085238  1
  Ta  Ta109  1  0.18708967  -0.00075088  0.24220993  1
  Ta  Ta110  1  0.11145295  0.48717296  0.12835001  1
  Ta  Ta111  1  0.09354400  0.48908712  0.36763343  1
  Ta  Ta112  1  0.90118597  0.30587076  0.88119401  1
  Ta  Ta113  1  0.08211856  0.87560294  0.85587255  1
  Ta  Ta114  1  0.61117674  0.59543878  0.22891813  1
  Ta  Ta115  1  0.80310349  0.40111549  0.76116946  1
  Ta  Ta116  1  0.48824367  0.30843041  0.88882969  1
  Ta  Ta117  1  0.38518956  0.21377999  0.00721602  1
  Ta  Ta118  1  0.31696766  0.70400361  0.12069375  1
  Ta  Ta119  1  0.61073326  0.62019965  0.75548356  1
  Ti  Ti120  1  0.41300330  0.79412474  -0.00930040  1
  Ti  Ti121  1  0.30119677  0.90296275  0.12172018  1
  Ti  Ti122  1  0.18665292  -0.00334075  0.75945729  1
  Ti  Ti123  1  0.70896696  0.90799969  0.62107356  1
  Ti  Ti124  1  0.08991625  0.09336279  0.36908516  1
  Ti  Ti125  1  0.49601191  0.10462288  0.88494039  1
  Ti  Ti126  1  0.51773471  0.49867827  0.36751770  1
  Ti  Ti127  1  0.89966826  0.70225254  0.62068703  1
  Ti  Ti128  1  0.20602608  0.59177427  0.00167236  1
  Ti  Ti129  1  -0.00772459  0.19461714  0.24927010  1
  Ti  Ti130  1  0.71568347  0.49120176  0.11359429  1
  Ti  Ti131  1  0.39293838  0.40680710  0.24910080  1
  Ti  Ti132  1  0.90232337  0.70707143  0.38523365  1
  Ti  Ti133  1  0.39692179  0.40515935  0.00542205  1
  Ti  Ti134  1  0.08821142  0.10027303  0.11906786  1
  Ti  Ti135  1  0.67706918  0.87935633  0.86313662  1
  Ti  Ti136  1  0.91124968  0.90100283  0.38615286  1
  Ti  Ti137  1  0.88486155  0.10009308  0.62498341  1
  Ti  Ti138  1  0.10343816  0.29875446  0.62459382  1
  Ti  Ti139  1  0.58934427  0.40560950  0.01968959  1
  Ti  Ti140  1  0.01883246  0.62281496  0.74509164  1
  Ti  Ti141  1  0.00258387  0.19901929  -0.00175194  1
  Ti  Ti142  1  0.40212771  0.19916155  0.75952965  1
  Ti  Ti143  1  0.80274681  0.61232161  0.50183985  1
  Ti  Ti144  1  0.09532531  0.90305753  0.36826344  1
  Ti  Ti145  1  0.29108344  0.90773050  0.36619515  1
  Ti  Ti146  1  0.79992098  0.80064609  -0.01708100  1
  Ti  Ti147  1  0.40633899  0.00626450  0.76356654  1
  Ti  Ti148  1  0.68558628  0.10369612  0.87972776  1
  Ti  Ti149  1  0.80180211  0.41173577  0.25535178  1
  Ti  Ti150  1  0.08868667  0.09819687  0.87120611  1
  Ti  Ti151  1  0.10096232  0.29494150  0.37575839  1
  Ti  Ti152  1  -0.00311029  -0.00053173  0.24573776  1
  Ti  Ti153  1  0.28755982  0.09517395  0.36267401  1
  Ti  Ti154  1  0.26892565  0.31222593  0.11755337  1
  Ti  Ti155  1  0.90602855  0.49871856  0.88088072  1
  Ti  Ti156  1  0.69929062  0.50784781  0.88250157  1
  Ti  Ti157  1  0.59734257  0.19862679  0.49675411  1
  Ti  Ti158  1  0.52288286  0.70764762  0.87485473  1
  Ti  Ti159  1  0.80369494  0.00590031  0.49089063  1
  Mo  Mo160  1  0.09986357  0.68825195  0.62021058  1
  Mo  Mo161  1  0.19800132  0.39725016  0.25468014  1
  Mo  Mo162  1  0.20294555  0.40131498  0.00389252  1
  Mo  Mo163  1  0.50577328  0.50156574  0.63621175  1
  Mo  Mo164  1  0.70294176  0.29205514  0.62231795  1
  Mo  Mo165  1  0.68785729  0.10559530  0.37534119  1
  Mo  Mo166  1  0.18494838  0.20293734  0.00548043  1
  Mo  Mo167  1  0.20611630  0.59614818  0.74665543  1
  Mo  Mo168  1  0.71093503  0.69871699  0.62225178  1
  Mo  Mo169  1  0.10527188  0.88990217  0.65162405  1
  Mo  Mo170  1  0.31107877  0.49612516  0.36279209  1
  Mo  Mo171  1  0.81281743  0.80311305  0.50598509  1
  Mo  Mo172  1  0.20407844  0.39024729  0.73484775  1
  Mo  Mo173  1  0.40126124  0.19579060  0.50155731  1
  Mo  Mo174  1  0.30800000  0.29801487  0.88017270  1
  Mo  Mo175  1  0.60902872  0.80589357  0.73322081  1
  Mo  Mo176  1  0.89648522  0.89337435  0.86592384  1
  Mo  Mo177  1  0.10100685  0.90791851  0.12737205  1
  Mo  Mo178  1  0.42268685  0.59085440  0.75797480  1
  Mo  Mo179  1  0.90538143  0.09269099  0.36824980  1
  Mo  Mo180  1  0.50249344  0.70476481  0.11947948  1
  Mo  Mo181  1  0.40009913  0.79446049  0.52674616  1
  Mo  Mo182  1  -0.01006581  0.00285975  0.49079510  1
  Mo  Mo183  1  0.90556866  0.69811757  0.12158833  1
  Mo  Mo184  1  -0.00447830  0.79351295  0.73484039  1
  Mo  Mo185  1  0.89931523  0.51861891  0.36954888  1
  Mo  Mo186  1  0.68900195  0.89989966  0.12056965  1
  Mo  Mo187  1  0.47720697  0.31365497  0.11748682  1
  Mo  Mo188  1  0.69301860  0.50169108  0.36681599  1
  Mo  Mo189  1  0.38056245  -0.01411798  0.25104451  1
  Mo  Mo190  1  -0.00913250  -0.00370147  0.76796649  1
  Mo  Mo191  1  0.10789374  0.69824700  0.87989296  1
  Mo  Mo192  1  0.49473703  0.50534834  0.12236839  1
  Mo  Mo193  1  0.50200752  0.90011295  0.87518480  1
  Mo  Mo194  1  0.19216959  0.78440033  0.74436867  1
  Mo  Mo195  1  0.70494494  0.70040459  0.87979807  1
  Mo  Mo196  1  0.70993929  0.30849550  0.11798809  1
  Mo  Mo197  1  0.08351872  0.29218613  0.12280652  1
  Mo  Mo198  1  0.80143092  0.40734465  -0.00545703  1
  Mo  Mo199  1  0.89767638  0.10949948  0.87287905  1
