# generated using pymatgen
data_HfZrTaTiMo
_symmetry_space_group_name_H-M   'P 1'
_cell_length_a   15.19594410
_cell_length_b   15.22571529
_cell_length_c   16.81697886
_cell_angle_alpha   89.95695838
_cell_angle_beta   90.02749076
_cell_angle_gamma   89.93978018
_symmetry_Int_Tables_number   1
_chemical_formula_structural   HfZrTaTiMo
_chemical_formula_sum   'Hf40 Zr40 Ta40 Ti40 Mo40'
_cell_volume   3890.92587704
_cell_formula_units_Z   40
loop_
 _symmetry_equiv_pos_site_id
 _symmetry_equiv_pos_as_xyz
  1  'x, y, z'
loop_
 _atom_site_type_symbol
 _atom_site_label
 _atom_site_symmetry_multiplicity
 _atom_site_fract_x
 _atom_site_fract_y
 _atom_site_fract_z
 _atom_site_occupancy
  Hf  Hf0  1  0.29789522  0.49230811  0.61654661  1
  Hf  Hf1  1  0.80387327  0.80702209  0.50979549  1
  Hf  Hf2  1  0.80510935  0.59697952  0.00953619  1
  Hf  Hf3  1  0.31555912  0.08551356  0.37146907  1
  Hf  Hf4  1  0.10726166  0.11297255  0.36520457  1
  Hf  Hf5  1  0.78199480  0.39735337  0.75064499  1
  Hf  Hf6  1  0.58764902  0.00680181  0.51454099  1
  Hf  Hf7  1  0.59653830  0.82325770  0.24789099  1
  Hf  Hf8  1  0.40039237  0.58513714  0.74702569  1
  Hf  Hf9  1  0.20604717  0.00334611  0.00788543  1
  Hf  Hf10  1  0.08854928  0.30709944  0.62903599  1
  Hf  Hf11  1  -0.00100552  0.60373452  0.47929478  1
  Hf  Hf12  1  0.60302787  0.00283744  0.75000830  1
  Hf  Hf13  1  0.50456789  0.69503860  0.86934549  1
  Hf  Hf14  1  0.49926272  0.28946979  0.12596588  1
  Hf  Hf15  1  0.19450926  0.80920364  0.49951074  1
  Hf  Hf16  1  0.00044768  -0.00659026  0.76401066  1
  Hf  Hf17  1  0.42626688  -0.01213639  0.23570127  1
  Hf  Hf18  1  0.20885885  0.00154310  0.50454465  1
  Hf  Hf19  1  0.10454857  0.89890172  0.12080937  1
  Hf  Hf20  1  0.39866903  0.79311233  0.24666780  1
  Hf  Hf21  1  0.49972414  0.70420547  0.12296237  1
  Hf  Hf22  1  0.30000334  0.49622671  0.37722224  1
  Hf  Hf23  1  0.18788249  0.39543521  0.49389010  1
  Hf  Hf24  1  0.29538126  0.28630254  0.37332283  1
  Hf  Hf25  1  0.41442074  0.38367213  0.49116025  1
  Hf  Hf26  1  0.80423155  0.00671052  0.74715436  1
  Hf  Hf27  1  0.38166110  0.39530320  0.00847090  1
  Hf  Hf28  1  0.80164528  0.60063078  0.24168946  1
  Hf  Hf29  1  0.29239132  0.69503666  0.63459828  1
  Hf  Hf30  1  0.00340294  0.20585709  0.49631601  1
  Hf  Hf31  1  0.89740077  0.49851753  0.62934115  1
  Hf  Hf32  1  0.50050261  0.09918492  0.87403570  1
  Hf  Hf33  1  0.50047541  0.49536287  0.13545629  1
  Hf  Hf34  1  0.49361050  0.29896510  0.87769818  1
  Hf  Hf35  1  0.21071467  0.60700575  0.00459658  1
  Hf  Hf36  1  0.19129938  0.60568302  0.49667425  1
  Hf  Hf37  1  0.68351695  0.31413204  0.61075033  1
  Hf  Hf38  1  0.00826965  0.59134495  0.77623279  1
  Hf  Hf39  1  -0.00465205  0.41050806  0.48469493  1
  Zr  Zr40  1  0.69606033  0.91954339  0.37695461  1
  Zr  Zr41  1  0.69606733  0.91114721  0.11156780  1
  Zr  Zr42  1  0.09864830  0.71655006  0.64897662  1
  Zr  Zr43  1  0.69967799  0.29383136  0.14290862  1
  Zr  Zr44  1  0.70419588  0.70035759  0.87510659  1
  Zr  Zr45  1  0.00953505  0.59115710  -0.00543934  1
  Zr  Zr46  1  0.90627517  0.72692800  0.88590799  1
  Zr  Zr47  1  0.00756778  -0.00657130  0.49884779  1
  Zr  Zr48  1  0.30131631  0.28641608  0.62454634  1
  Zr  Zr49  1  0.80554048  0.60644433  0.48647381  1
  Zr  Zr50  1  0.40267944  0.18623841  0.23882291  1
  Zr  Zr51  1  0.10090781  0.09689755  0.63198810  1
  Zr  Zr52  1  0.40425841  0.81023675  0.74472702  1
  Zr  Zr53  1  0.90395701  0.88546359  0.36093966  1
  Zr  Zr54  1  -0.00520964  0.01895734  0.22971951  1
  Zr  Zr55  1  0.40384684  0.59327025  0.00126142  1
  Zr  Zr56  1  0.50677211  0.69324992  0.62653737  1
  Zr  Zr57  1  -0.01082839  0.61297204  0.24788644  1
  Zr  Zr58  1  0.19138313  0.40924493  0.75476939  1
  Zr  Zr59  1  0.70017003  0.49258685  0.88145197  1
  Zr  Zr60  1  0.81115384  0.38694633  0.00555152  1
  Zr  Zr61  1  0.79057609  0.40791323  0.49320363  1
  Zr  Zr62  1  0.19906325  0.19399907  0.22339381  1
  Zr  Zr63  1  -0.02379889  0.19488832  0.00552026  1
  Zr  Zr64  1  0.51875338  0.48082312  0.62283395  1
  Zr  Zr65  1  0.39977540  0.80696281  0.50478762  1
  Zr  Zr66  1  0.72119913  0.89927768  0.88446606  1
  Zr  Zr67  1  0.07947465  0.31329976  0.13137028  1
  Zr  Zr68  1  0.00405869  0.79475533  0.49685373  1
  Zr  Zr69  1  0.30286854  0.10075765  0.88090329  1
  Zr  Zr70  1  0.90504677  0.69632698  0.64184753  1
  Zr  Zr71  1  0.29604898  0.69849664  0.37146694  1
  Zr  Zr72  1  0.59733928  0.80092358  0.50541416  1
  Zr  Zr73  1  0.89040624  0.09150697  0.38121318  1
  Zr  Zr74  1  0.18700445  0.19840786  0.76460285  1
  Zr  Zr75  1  0.59943297  0.40112792  0.00540942  1
  Zr  Zr76  1  0.11443942  0.91078965  0.34850235  1
  Zr  Zr77  1  0.89052487  0.29374390  0.36534156  1
  Zr  Zr78  1  0.70408747  0.71190409  0.36554008  1
  Zr  Zr79  1  0.19584649  0.21168435  0.01159294  1
  Ta  Ta80  1  0.49769215  0.49316615  0.86977594  1
  Ta  Ta81  1  0.59536613  0.79949143  -0.00106152  1
  Ta  Ta82  1  -0.01367887  0.39526053  0.76050997  1
  Ta  Ta83  1  0.39033498  0.59056309  0.24362774  1
  Ta  Ta84  1  0.59314144  0.60829762  0.25147410  1
  Ta  Ta85  1  0.81514337  0.79820254  0.22449818  1
  Ta  Ta86  1  0.60572661  0.20018222  -0.00477172  1
  Ta  Ta87  1  0.11071339  0.70750349  0.13357656  1
  Ta  Ta88  1  0.60508684  0.21243746  0.75318131  1
  Ta  Ta89  1  0.10305086  0.50838181  0.13665194  1
  Ta  Ta90  1  0.09335619  0.51156238  0.62884940  1
  Ta  Ta91  1  0.39585118  0.39008317  0.24983647  1
  Ta  Ta92  1  0.89105240  0.29516592  0.62223724  1
  Ta  Ta93  1  0.89813867  0.10490436  0.62062630  1
  Ta  Ta94  1  0.69851349  0.49812853  0.13848618  1
  Ta  Ta95  1  0.79585099  0.20205488  0.74210419  1
  Ta  Ta96  1  0.69129002  0.29851144  0.37254329  1
  Ta  Ta97  1  0.60683497  0.00381024  -0.01542313  1
  Ta  Ta98  1  0.52007510  0.08678599  0.11180966  1
  Ta  Ta99  1  0.69126303  0.11446967  0.39299815  1
  Ta  Ta100  1  0.20722783  0.40571665  0.24286954  1
  Ta  Ta101  1  0.40983545  0.59547436  0.49755388  1
  Ta  Ta102  1  0.29743856  0.69801655  0.86225107  1
  Ta  Ta103  1  0.71453294  0.11521034  0.87761763  1
  Ta  Ta104  1  0.70715727  0.69023688  0.63405565  1
  Ta  Ta105  1  0.09671669  0.71686922  0.34700488  1
  Ta  Ta106  1  0.69888779  0.49623713  0.35475691  1
  Ta  Ta107  1  0.19797136  -0.01299456  0.76254969  1
  Ta  Ta108  1  0.61241077  0.58668728  0.74859294  1
  Ta  Ta109  1  0.29091895  0.30657320  0.87818581  1
  Ta  Ta110  1  0.50183532  0.89651636  0.87946436  1
  Ta  Ta111  1  0.49455776  0.10572685  0.63757644  1
  Ta  Ta112  1  -0.01566990  0.19977669  0.75998662  1
  Ta  Ta113  1  0.29743989  0.89214592  0.88211375  1
  Ta  Ta114  1  0.90003727  0.90637154  0.09961676  1
  Ta  Ta115  1  0.39211626  0.79163992  -0.00354308  1
  Ta  Ta116  1  0.60756896  0.58794541  0.49110336  1
  Ta  Ta117  1  0.61018025  0.80286797  0.74503977  1
  Ta  Ta118  1  0.91677428  0.90133317  0.63111197  1
  Ta  Ta119  1  0.50094351  0.49933376  0.36537353  1
  Ti  Ti120  1  0.30581159  0.88040761  0.11630524  1
  Ti  Ti121  1  0.50499448  0.27788330  0.37315731  1
  Ti  Ti122  1  0.11354012  0.70992338  0.87214722  1
  Ti  Ti123  1  0.89117302  0.29009999  0.14487886  1
  Ti  Ti124  1  0.22342252  0.00296513  0.22371757  1
  Ti  Ti125  1  0.09981672  0.30507390  0.35635638  1
  Ti  Ti126  1  0.69942327  0.70181188  0.12147218  1
  Ti  Ti127  1  0.10495254  0.50978176  0.35507691  1
  Ti  Ti128  1  0.49837510  0.70038639  0.37502973  1
  Ti  Ti129  1  0.20576669  0.19504947  0.50181836  1
  Ti  Ti130  1  0.60248216  0.59822060  0.00359757  1
  Ti  Ti131  1  0.71156018  0.10305897  0.11465859  1
  Ti  Ti132  1  0.59430331  0.39303772  0.25727171  1
  Ti  Ti133  1  0.39510065  0.19927116  0.75429826  1
  Ti  Ti134  1  0.59978335  0.17736717  0.25417977  1
  Ti  Ti135  1  0.49655464  0.28890491  0.62732562  1
  Ti  Ti136  1  0.40199126  -0.00830998  0.51236544  1
  Ti  Ti137  1  0.39742638  -0.00185663  0.75132554  1
  Ti  Ti138  1  0.30212345  0.09578653  0.63479239  1
  Ti  Ti139  1  0.70098401  0.89971735  0.62929807  1
  Ti  Ti140  1  0.28909455  0.90064837  0.63715438  1
  Ti  Ti141  1  0.30931703  0.89776373  0.36733882  1
  Ti  Ti142  1  0.79767057  0.18374994  0.25439326  1
  Ti  Ti143  1  0.39463647  0.19149051  0.01068387  1
  Ti  Ti144  1  0.09268967  0.89234968  0.89629939  1
  Ti  Ti145  1  0.18801788  0.41173675  0.00675259  1
  Ti  Ti146  1  -0.01208446  0.40888264  0.26141279  1
  Ti  Ti147  1  0.29392185  0.49867714  0.87195565  1
  Ti  Ti148  1  0.80724441  0.59402789  0.76289036  1
  Ti  Ti149  1  0.69714431  0.11884177  0.61471017  1
  Ti  Ti150  1  0.90654743  0.48617683  0.12714795  1
  Ti  Ti151  1  0.78961363  -0.00197089  0.24412577  1
  Ti  Ti152  1  0.08292139  0.31334705  0.88614998  1
  Ti  Ti153  1  0.79872938  0.00416854  0.51477231  1
  Ti  Ti154  1  0.39882668  0.38970889  0.75142733  1
  Ti  Ti155  1  0.40916399  -0.01030765  0.00701938  1
  Ti  Ti156  1  0.08771324  0.09771607  0.88653186  1
  Ti  Ti157  1  0.81251245  0.81063193  0.74755188  1
  Ti  Ti158  1  0.40878929  0.17861793  0.50071220  1
  Ti  Ti159  1  0.88112751  0.28979249  0.87477791  1
  Mo  Mo160  1  0.89631684  0.50184784  0.36364597  1
  Mo  Mo161  1  0.90559017  0.70463646  0.10691669  1
  Mo  Mo162  1  0.69302623  0.29523429  0.87284737  1
  Mo  Mo163  1  0.58736019  0.39784129  0.75209278  1
  Mo  Mo164  1  0.70258332  0.51122500  0.62547767  1
  Mo  Mo165  1  0.81148174  0.01769853  -0.00378326  1
  Mo  Mo166  1  0.09569533  0.09990491  0.11925538  1
  Mo  Mo167  1  -0.00351973  0.80732637  0.22505621  1
  Mo  Mo168  1  0.20170237  0.60352405  0.24521572  1
  Mo  Mo169  1  0.78960276  0.20210725  0.00394431  1
  Mo  Mo170  1  0.00067743  0.81316342  0.76429044  1
  Mo  Mo171  1  0.61185091  0.01254813  0.24625773  1
  Mo  Mo172  1  0.59574574  0.40498365  0.47677528  1
  Mo  Mo173  1  0.10554874  0.90377814  0.63408424  1
  Mo  Mo174  1  0.79959957  0.79819289  0.01597993  1
  Mo  Mo175  1  0.01047426  0.79617222  0.01219270  1
  Mo  Mo176  1  0.20694177  0.80878313  0.24591183  1
  Mo  Mo177  1  0.90919708  0.91460268  0.90109264  1
  Mo  Mo178  1  0.58331875  0.20879914  0.50056882  1
  Mo  Mo179  1  0.50699487  0.08662925  0.37875317  1
  Mo  Mo180  1  0.50244788  0.89720922  0.10418856  1
  Mo  Mo181  1  0.49086538  0.91207532  0.37763868  1
  Mo  Mo182  1  0.20141903  0.59881045  0.75685436  1
  Mo  Mo183  1  0.29531995  0.69736587  0.12998011  1
  Mo  Mo184  1  0.79295923  0.19661619  0.50773457  1
  Mo  Mo185  1  0.89620498  0.10100240  0.87281519  1
  Mo  Mo186  1  0.79619970  0.40074719  0.24951757  1
  Mo  Mo187  1  0.90826276  0.48152122  0.87870490  1
  Mo  Mo188  1  0.10851605  0.49347031  0.88116030  1
  Mo  Mo189  1  0.20551002  0.79482405  -0.00647654  1
  Mo  Mo190  1  0.29380928  0.49757252  0.13178846  1
  Mo  Mo191  1  0.00054274  0.40006473  -0.00028306  1
  Mo  Mo192  1  0.29974495  0.30573901  0.12326442  1
  Mo  Mo193  1  0.19773190  0.80995783  0.76511378  1
  Mo  Mo194  1  0.00535224  0.00663306  0.00406511  1
  Mo  Mo195  1  0.88554799  0.10337380  0.12949422  1
  Mo  Mo196  1  0.31247710  0.09017079  0.11250518  1
  Mo  Mo197  1  0.50017022  0.90833192  0.63870435  1
  Mo  Mo198  1  0.89817928  0.71204054  0.36412156  1
  Mo  Mo199  1  -0.00634320  0.20575001  0.24936863  1
