# generated using pymatgen
data_HfZrTaTiMo
_symmetry_space_group_name_H-M   'P 1'
_cell_length_a   15.20343921
_cell_length_b   15.19562863
_cell_length_c   16.83525362
_cell_angle_alpha   89.99136543
_cell_angle_beta   90.01615228
_cell_angle_gamma   90.13777154
_symmetry_Int_Tables_number   1
_chemical_formula_structural   HfZrTaTiMo
_chemical_formula_sum   'Hf40 Zr40 Ta40 Ti40 Mo40'
_cell_volume   3889.36676597
_cell_formula_units_Z   40
loop_
 _symmetry_equiv_pos_site_id
 _symmetry_equiv_pos_as_xyz
  1  'x, y, z'
loop_
 _atom_site_type_symbol
 _atom_site_label
 _atom_site_symmetry_multiplicity
 _atom_site_fract_x
 _atom_site_fract_y
 _atom_site_fract_z
 _atom_site_occupancy
  Hf  Hf0  1  0.31111574  0.69462334  0.85283634  1
  Hf  Hf1  1  0.51396719  0.68140504  0.13494691  1
  Hf  Hf2  1  0.10381843  0.89384248  0.85618674  1
  Hf  Hf3  1  0.91383154  0.90410814  0.86939693  1
  Hf  Hf4  1  0.70984616  0.30723096  0.61795839  1
  Hf  Hf5  1  0.28970285  0.49403979  0.63854342  1
  Hf  Hf6  1  0.50398694  0.90184240  0.88438085  1
  Hf  Hf7  1  0.60526498  0.60077172  0.49679092  1
  Hf  Hf8  1  0.29611954  0.10800738  0.12075029  1
  Hf  Hf9  1  0.00884941  0.60311444  0.24981123  1
  Hf  Hf10  1  0.09826343  0.69619232  0.86386914  1
  Hf  Hf11  1  0.80379411  0.80091998  0.00931689  1
  Hf  Hf12  1  0.61050786  0.80472107  0.49232731  1
  Hf  Hf13  1  0.81334086  0.01557060  -0.00500708  1
  Hf  Hf14  1  0.20744100  0.60257574  -0.00229163  1
  Hf  Hf15  1  0.60940630  0.21319622  0.00506423  1
  Hf  Hf16  1  0.38689108  0.21406946  0.24104357  1
  Hf  Hf17  1  0.90577739  0.10585846  0.37203313  1
  Hf  Hf18  1  0.70588152  0.90327853  0.61918284  1
  Hf  Hf19  1  0.51431539  0.70008328  0.62753350  1
  Hf  Hf20  1  0.89243128  0.48744894  0.13579675  1
  Hf  Hf21  1  0.89118859  0.09643259  0.14386511  1
  Hf  Hf22  1  0.30336414  0.29964832  0.88486039  1
  Hf  Hf23  1  0.10177432  0.10951521  0.63164492  1
  Hf  Hf24  1  0.10451976  0.49312297  0.37568955  1
  Hf  Hf25  1  0.59457865  0.00336181  0.47744080  1
  Hf  Hf26  1  0.08572171  0.29018919  0.36968309  1
  Hf  Hf27  1  0.40134709  0.79531643  0.25364916  1
  Hf  Hf28  1  0.31279087  0.49492182  0.11685324  1
  Hf  Hf29  1  0.20588197  -0.00105469  0.49781072  1
  Hf  Hf30  1  0.59727589  0.00861771  0.75297351  1
  Hf  Hf31  1  0.40146332  0.59440346  0.49678835  1
  Hf  Hf32  1  0.42047947  0.00711522  0.26166068  1
  Hf  Hf33  1  0.88976540  0.49625207  0.36076114  1
  Hf  Hf34  1  0.60091725  0.40077028  0.74193878  1
  Hf  Hf35  1  0.19679565  0.20422343  0.49650197  1
  Hf  Hf36  1  0.58831896  0.39946547  0.50523357  1
  Hf  Hf37  1  0.09947828  0.50234898  0.12228586  1
  Hf  Hf38  1  0.89156854  0.67618474  0.60490703  1
  Hf  Hf39  1  0.08814217  0.09021464  0.12312425  1
  Zr  Zr40  1  0.08670913  0.29401493  0.12451681  1
  Zr  Zr41  1  0.40955669  0.80369404  0.49496440  1
  Zr  Zr42  1  0.41719420  0.81010472  0.74523849  1
  Zr  Zr43  1  0.90132026  0.68693082  0.87807879  1
  Zr  Zr44  1  0.30454801  0.29816099  0.62613555  1
  Zr  Zr45  1  0.18105493  0.39504775  0.75853538  1
  Zr  Zr46  1  0.49468623  0.10065577  0.61650793  1
  Zr  Zr47  1  0.40858597  0.79015301  0.00496035  1
  Zr  Zr48  1  0.30260514  0.89388327  0.13597294  1
  Zr  Zr49  1  0.20436782  -0.00344652  0.26192559  1
  Zr  Zr50  1  0.69765297  0.30573601  0.36331148  1
  Zr  Zr51  1  0.69258881  0.09444885  0.13633241  1
  Zr  Zr52  1  0.30766834  0.68894847  0.63812550  1
  Zr  Zr53  1  0.67631247  0.30843448  0.15144831  1
  Zr  Zr54  1  0.61614609  0.79982791  0.74874092  1
  Zr  Zr55  1  0.61561747  0.80455992  0.25148857  1
  Zr  Zr56  1  0.00446312  0.00500732  0.50707943  1
  Zr  Zr57  1  0.49167472  0.29960569  0.37163604  1
  Zr  Zr58  1  0.21308633  0.79432944  -0.00366725  1
  Zr  Zr59  1  0.91333513  0.70264256  0.12589826  1
  Zr  Zr60  1  0.40471708  0.00105996  0.00463789  1
  Zr  Zr61  1  0.70010310  0.10906180  0.61853327  1
  Zr  Zr62  1  0.08872723  0.31233647  0.62143290  1
  Zr  Zr63  1  0.00001865  -0.00835095  0.26685205  1
  Zr  Zr64  1  0.19788065  0.59385232  0.50404714  1
  Zr  Zr65  1  0.81381121  0.79469988  0.73896891  1
  Zr  Zr66  1  0.30454885  0.10003277  0.87911867  1
  Zr  Zr67  1  -0.03394999  0.39966194  0.75246625  1
  Zr  Zr68  1  0.01310420  0.80385645  0.00297629  1
  Zr  Zr69  1  0.70920176  0.89987461  0.87508185  1
  Zr  Zr70  1  0.32189782  0.91367456  0.62277931  1
  Zr  Zr71  1  0.50415445  0.30850120  0.88789061  1
  Zr  Zr72  1  0.08336994  0.09186054  0.86852402  1
  Zr  Zr73  1  0.90964352  0.69505504  0.38748780  1
  Zr  Zr74  1  0.30140828  0.50188826  0.86270476  1
  Zr  Zr75  1  0.18891254  -0.00914429  -0.00191170  1
  Zr  Zr76  1  0.80827439  0.21870705  0.75075574  1
  Zr  Zr77  1  0.07720002  0.49799682  0.88341551  1
  Zr  Zr78  1  0.20178622  0.39008862  0.24102348  1
  Zr  Zr79  1  -0.03126428  0.19185196  -0.00725963  1
  Ta  Ta80  1  0.78151912  0.59187052  0.01929819  1
  Ta  Ta81  1  0.80614194  0.01000251  0.74834916  1
  Ta  Ta82  1  0.20120813  0.19943768  0.75706343  1
  Ta  Ta83  1  0.19268699  0.20232439  -0.00322155  1
  Ta  Ta84  1  0.70464571  0.11485849  0.87675888  1
  Ta  Ta85  1  0.40987889  0.20281360  0.75039319  1
  Ta  Ta86  1  0.71169235  0.31884512  0.87847624  1
  Ta  Ta87  1  0.19957521  0.80332439  0.73030134  1
  Ta  Ta88  1  0.01078472  0.79731882  0.51956341  1
  Ta  Ta89  1  0.78379211  0.61019861  0.23532102  1
  Ta  Ta90  1  0.20416845  0.00128462  0.74205425  1
  Ta  Ta91  1  0.78318350  0.38694963  0.01884009  1
  Ta  Ta92  1  0.69155176  0.50375150  0.36174852  1
  Ta  Ta93  1  0.90126552  0.88840041  0.39140607  1
  Ta  Ta94  1  0.60972960  0.79761289  0.01098022  1
  Ta  Ta95  1  0.52081185  0.91132538  0.12789847  1
  Ta  Ta96  1  0.41728360  0.58956518  -0.00286356  1
  Ta  Ta97  1  0.29055200  0.31713181  0.38172551  1
  Ta  Ta98  1  0.60924223  0.00245374  -0.00047201  1
  Ta  Ta99  1  0.80026855  0.00110471  0.49178919  1
  Ta  Ta100  1  0.71786800  0.69970591  0.37708913  1
  Ta  Ta101  1  0.10316085  0.88697563  0.38656260  1
  Ta  Ta102  1  0.61147908  0.59682475  0.74760137  1
  Ta  Ta103  1  -0.00625907  -0.01059461  0.72474132  1
  Ta  Ta104  1  0.00714516  0.78711540  0.72082972  1
  Ta  Ta105  1  0.49258267  0.50145693  0.36911475  1
  Ta  Ta106  1  0.30311149  0.11383294  0.37558110  1
  Ta  Ta107  1  0.51535832  0.69120637  0.87371949  1
  Ta  Ta108  1  0.29881641  0.89013568  0.37550231  1
  Ta  Ta109  1  0.30117187  0.89866837  0.86187303  1
  Ta  Ta110  1  0.50990876  0.69489157  0.36564941  1
  Ta  Ta111  1  0.39680245  0.41043158  0.24786557  1
  Ta  Ta112  1  0.11015595  0.70223766  0.38294438  1
  Ta  Ta113  1  0.21559192  0.59960667  0.25490031  1
  Ta  Ta114  1  0.87078030  0.48677481  0.89081399  1
  Ta  Ta115  1  0.80387232  0.58540401  0.75114907  1
  Ta  Ta116  1  0.70722744  0.51204599  0.61818642  1
  Ta  Ta117  1  0.10044713  0.88955909  0.13519150  1
  Ta  Ta118  1  0.81793280  0.80695033  0.24904839  1
  Ta  Ta119  1  0.88531440  0.29123133  0.14801950  1
  Ti  Ti120  1  0.80041854  0.20354529  0.48733957  1
  Ti  Ti121  1  0.71259786  0.90211479  0.37146249  1
  Ti  Ti122  1  0.01312496  0.79914051  0.25707419  1
  Ti  Ti123  1  0.40456301  0.20597128  0.49933113  1
  Ti  Ti124  1  -0.01857481  0.39241693  0.00229158  1
  Ti  Ti125  1  0.11812189  0.70318617  0.13337417  1
  Ti  Ti126  1  0.08756903  0.29466592  0.88134612  1
  Ti  Ti127  1  0.50231238  0.10871428  0.12068632  1
  Ti  Ti128  1  0.48031259  0.32005844  0.11028532  1
  Ti  Ti129  1  -0.00778085  0.59519407  0.00696612  1
  Ti  Ti130  1  0.89325163  0.10841321  0.61879629  1
  Ti  Ti131  1  -0.00673055  0.40185942  0.49509785  1
  Ti  Ti132  1  0.68838444  0.50404639  0.88432247  1
  Ti  Ti133  1  0.20540852  0.79761125  0.51545645  1
  Ti  Ti134  1  -0.01181539  0.20791856  0.50133970  1
  Ti  Ti135  1  0.38663879  0.40212481  0.50133783  1
  Ti  Ti136  1  0.19532258  0.39696287  -0.00188666  1
  Ti  Ti137  1  0.89726174  0.30661683  0.34873783  1
  Ti  Ti138  1  0.59800223  0.20701531  0.75257953  1
  Ti  Ti139  1  0.50151363  0.50163913  0.87328064  1
  Ti  Ti140  1  0.79871332  0.39972191  0.48917028  1
  Ti  Ti141  1  0.30232842  0.69265433  0.37356299  1
  Ti  Ti142  1  0.30720374  0.69122505  0.13325566  1
  Ti  Ti143  1  0.07480158  0.51165111  0.61774529  1
  Ti  Ti144  1  0.19009108  0.19238188  0.25578851  1
  Ti  Ti145  1  0.49252792  0.49692460  0.62871426  1
  Ti  Ti146  1  0.40423731  0.01108044  0.75449944  1
  Ti  Ti147  1  0.16966159  0.60166540  0.73853422  1
  Ti  Ti148  1  0.91104651  0.90756621  0.12762811  1
  Ti  Ti149  1  0.40738878  0.39404452  0.74707603  1
  Ti  Ti150  1  0.40377878  0.00453861  0.48043356  1
  Ti  Ti151  1  0.30217220  0.10819700  0.62829609  1
  Ti  Ti152  1  0.88950612  0.48257112  0.61440301  1
  Ti  Ti153  1  -0.00573485  0.19881430  0.75395074  1
  Ti  Ti154  1  0.60015075  0.20120164  0.49001205  1
  Ti  Ti155  1  0.70607747  0.69134757  0.88224335  1
  Ti  Ti156  1  0.71435482  0.90789209  0.13274095  1
  Ti  Ti157  1  0.50272068  0.11142907  0.88586681  1
  Ti  Ti158  1  0.58383487  0.17744260  0.26478890  1
  Ti  Ti159  1  0.78720241  0.18632138  0.26414322  1
  Mo  Mo160  1  0.49947115  0.89476921  0.36859631  1
  Mo  Mo161  1  0.70512401  0.69226311  0.62160448  1
  Mo  Mo162  1  0.39634131  0.40818670  -0.00484868  1
  Mo  Mo163  1  0.89512278  0.29901613  0.60957940  1
  Mo  Mo164  1  0.68125396  0.51113864  0.12986801  1
  Mo  Mo165  1  0.58339792  0.40866352  0.25104628  1
  Mo  Mo166  1  -0.01588692  0.59545219  0.74743713  1
  Mo  Mo167  1  0.19619178  0.78892246  0.25929974  1
  Mo  Mo168  1  0.79522413  0.58545686  0.49056533  1
  Mo  Mo169  1  0.89240029  0.09677725  0.86054579  1
  Mo  Mo170  1  0.10883313  0.90072190  0.62555622  1
  Mo  Mo171  1  0.49302383  0.10696056  0.38097664  1
  Mo  Mo172  1  0.39924965  0.20467592  0.01127787  1
  Mo  Mo173  1  0.78529426  0.41227767  0.75013349  1
  Mo  Mo174  1  0.19571891  0.40006546  0.50140099  1
  Mo  Mo175  1  0.79195509  0.20683106  0.00316448  1
  Mo  Mo176  1  0.30237030  0.49869575  0.37476241  1
  Mo  Mo177  1  0.70314009  0.10108151  0.37671089  1
  Mo  Mo178  1  0.70501550  0.71120123  0.12561686  1
  Mo  Mo179  1  0.80190607  0.80207944  0.50001306  1
  Mo  Mo180  1  0.29609748  0.29945685  0.10661617  1
  Mo  Mo181  1  0.60760738  -0.00009310  0.26582265  1
  Mo  Mo182  1  0.59989035  0.60863265  -0.00469416  1
  Mo  Mo183  1  -0.00348649  -0.00970811  0.00404743  1
  Mo  Mo184  1  0.40022303  0.59621008  0.25599708  1
  Mo  Mo185  1  0.50773516  0.49492034  0.12727204  1
  Mo  Mo186  1  0.10791265  0.09873517  0.37908056  1
  Mo  Mo187  1  0.42664081  0.58721788  0.75024691  1
  Mo  Mo188  1  0.60091467  0.60287810  0.25958955  1
  Mo  Mo189  1  0.89904307  0.90256492  0.61070929  1
  Mo  Mo190  1  0.50095753  0.29855038  0.62331676  1
  Mo  Mo191  1  0.59738843  0.42476980  0.00320797  1
  Mo  Mo192  1  -0.00032178  0.19809357  0.25007175  1
  Mo  Mo193  1  -0.00377877  0.39694108  0.24839731  1
  Mo  Mo194  1  0.79895525  -0.01199383  0.26573984  1
  Mo  Mo195  1  0.51048649  0.91217733  0.62298266  1
  Mo  Mo196  1  -0.00140383  0.58803026  0.49263267  1
  Mo  Mo197  1  0.89512971  0.30483285  0.88325611  1
  Mo  Mo198  1  0.09895346  0.69206999  0.62051459  1
  Mo  Mo199  1  0.78884742  0.40430214  0.24312252  1
