# generated using pymatgen
data_HfZrTaTiMo
_symmetry_space_group_name_H-M   'P 1'
_cell_length_a   15.21650511
_cell_length_b   15.20734985
_cell_length_c   16.84524803
_cell_angle_alpha   89.98534848
_cell_angle_beta   90.10851493
_cell_angle_gamma   89.96941504
_symmetry_Int_Tables_number   1
_chemical_formula_structural   HfZrTaTiMo
_chemical_formula_sum   'Hf40 Zr40 Ta40 Ti40 Mo40'
_cell_volume   3898.02848425
_cell_formula_units_Z   40
loop_
 _symmetry_equiv_pos_site_id
 _symmetry_equiv_pos_as_xyz
  1  'x, y, z'
loop_
 _atom_site_type_symbol
 _atom_site_label
 _atom_site_symmetry_multiplicity
 _atom_site_fract_x
 _atom_site_fract_y
 _atom_site_fract_z
 _atom_site_occupancy
  Hf  Hf0  1  0.38844577  0.21146345  0.48627470  1
  Hf  Hf1  1  0.29349051  0.30085717  0.14069419  1
  Hf  Hf2  1  0.59982704  0.19582627  0.74671690  1
  Hf  Hf3  1  0.78751239  -0.00251106  0.25307293  1
  Hf  Hf4  1  0.19975685  0.60443964  0.24320620  1
  Hf  Hf5  1  0.40687862  0.60561320  0.75629112  1
  Hf  Hf6  1  0.09945047  0.49888393  0.36139168  1
  Hf  Hf7  1  0.10103805  0.50110867  0.87174736  1
  Hf  Hf8  1  0.19409917  0.80942585  0.49610912  1
  Hf  Hf9  1  0.00293991  -0.01086923  0.49355110  1
  Hf  Hf10  1  0.90506956  0.49549167  0.87206976  1
  Hf  Hf11  1  0.19490757  0.40641254  0.01527306  1
  Hf  Hf12  1  0.30562159  0.08622398  0.11758790  1
  Hf  Hf13  1  0.29371050  0.51064423  0.88243042  1
  Hf  Hf14  1  0.29884125  0.70271865  0.36544041  1
  Hf  Hf15  1  0.70861736  0.51566724  0.62936401  1
  Hf  Hf16  1  0.81799861  0.00493930  0.00156403  1
  Hf  Hf17  1  0.50884548  0.69945919  0.62845527  1
  Hf  Hf18  1  0.00532831  0.79209397  0.74521496  1
  Hf  Hf19  1  0.78998120  0.78762172  0.76386091  1
  Hf  Hf20  1  0.39552921  0.80509975  0.50095229  1
  Hf  Hf21  1  0.00888421  0.59990529  0.01417367  1
  Hf  Hf22  1  0.40499846  0.18593119  0.24374122  1
  Hf  Hf23  1  0.50732161  0.73445171  0.11804454  1
  Hf  Hf24  1  0.89131950  0.29661921  0.87025957  1
  Hf  Hf25  1  0.08165322  0.10865445  0.64432476  1
  Hf  Hf26  1  0.00500892  -0.00556041  0.24179667  1
  Hf  Hf27  1  0.79256509  0.79863201  0.48092475  1
  Hf  Hf28  1  0.61623744  0.61611029  0.76292033  1
  Hf  Hf29  1  -0.00899962  0.38094907  0.24726559  1
  Hf  Hf30  1  0.31517629  0.48013051  0.35047266  1
  Hf  Hf31  1  0.11228885  0.90673495  0.63031081  1
  Hf  Hf32  1  0.70244559  0.50501278  0.12603014  1
  Hf  Hf33  1  0.39295208  0.61586303  0.01618480  1
  Hf  Hf34  1  0.80267931  0.40532986  0.49696408  1
  Hf  Hf35  1  0.68161783  0.90453280  0.10979592  1
  Hf  Hf36  1  0.60288310  0.60440537  0.00218875  1
  Hf  Hf37  1  0.40895799  -0.00272819  0.76247619  1
  Hf  Hf38  1  0.41440124  0.57734853  0.49545327  1
  Hf  Hf39  1  0.09348405  0.89100984  0.87977548  1
  Zr  Zr40  1  0.01279181  0.39274142  0.49686486  1
  Zr  Zr41  1  0.18875214  0.18780798  0.49664973  1
  Zr  Zr42  1  0.50277091  0.70827540  0.36695540  1
  Zr  Zr43  1  0.90605091  0.29268154  0.62492529  1
  Zr  Zr44  1  0.79092884  0.20328029  0.74889522  1
  Zr  Zr45  1  0.08384165  0.26944165  0.13314633  1
  Zr  Zr46  1  0.61549263  0.61385537  0.49556457  1
  Zr  Zr47  1  0.89283951  0.88755653  0.62790960  1
  Zr  Zr48  1  -0.01471590  0.39024014  0.01784030  1
  Zr  Zr49  1  -0.01271502  0.19316196  0.47983660  1
  Zr  Zr50  1  -0.00770512  0.78488043  0.49601437  1
  Zr  Zr51  1  0.68880995  0.31080166  0.36653178  1
  Zr  Zr52  1  0.59824436  0.81940651  0.49343584  1
  Zr  Zr53  1  0.19705297  0.59876962  0.48913120  1
  Zr  Zr54  1  0.61644094  0.62335327  0.24019158  1
  Zr  Zr55  1  0.40234287  0.19893609  0.75809054  1
  Zr  Zr56  1  0.21908915  0.38876466  0.48582872  1
  Zr  Zr57  1  0.29153578  0.07809865  0.62503494  1
  Zr  Zr58  1  0.29349857  0.70286581  0.62333481  1
  Zr  Zr59  1  0.71170825  0.49853631  0.87685583  1
  Zr  Zr60  1  0.91011036  0.69848844  0.87693412  1
  Zr  Zr61  1  0.69185989  0.92691545  0.63045332  1
  Zr  Zr62  1  0.89326457  0.88289341  0.13098549  1
  Zr  Zr63  1  0.70747392  0.29270670  0.13054797  1
  Zr  Zr64  1  0.19277774  0.19011384  -0.00031515  1
  Zr  Zr65  1  0.40589125  0.39894723  0.75748307  1
  Zr  Zr66  1  0.10883644  0.07947475  0.36661782  1
  Zr  Zr67  1  0.50288005  0.49388500  0.88422935  1
  Zr  Zr68  1  0.41199632  0.20868592  0.00980406  1
  Zr  Zr69  1  0.80368620  0.40555099  0.24922258  1
  Zr  Zr70  1  0.50724398  0.09837277  0.62187400  1
  Zr  Zr71  1  0.28774876  0.29784384  0.62997086  1
  Zr  Zr72  1  0.30622162  0.31008767  0.88642085  1
  Zr  Zr73  1  0.19661483  0.20398225  0.76204187  1
  Zr  Zr74  1  0.39901987  0.80512999  0.75852726  1
  Zr  Zr75  1  0.59257484  0.21182794  0.49281604  1
  Zr  Zr76  1  0.88100774  0.08525927  0.63056241  1
  Zr  Zr77  1  0.31360324  0.49590109  0.62736081  1
  Zr  Zr78  1  0.09202617  0.29828493  0.87940605  1
  Zr  Zr79  1  0.19649140  0.78703644  0.01363764  1
  Ta  Ta80  1  0.29952501  0.89908918  0.89438117  1
  Ta  Ta81  1  0.70032243  0.89905826  0.89280839  1
  Ta  Ta82  1  0.78577023  0.79053929  0.26123355  1
  Ta  Ta83  1  0.50890133  0.31027784  0.14257773  1
  Ta  Ta84  1  0.29663209  0.90926650  0.36760585  1
  Ta  Ta85  1  0.29899254  0.08850865  0.88912457  1
  Ta  Ta86  1  0.50853721  0.10671012  0.88331590  1
  Ta  Ta87  1  0.68686782  0.30005230  0.88231422  1
  Ta  Ta88  1  0.48424738  0.31321675  0.35492697  1
  Ta  Ta89  1  0.08257871  0.70909609  0.14379271  1
  Ta  Ta90  1  0.10934802  0.49078002  0.62654492  1
  Ta  Ta91  1  0.70726067  0.51777944  0.36765493  1
  Ta  Ta92  1  0.39816208  0.81797585  0.24370517  1
  Ta  Ta93  1  0.60180514  0.01087823  0.48868414  1
  Ta  Ta94  1  0.60554671  0.39748554  0.74644256  1
  Ta  Ta95  1  0.49491599  0.31716023  0.61874552  1
  Ta  Ta96  1  0.71624965  0.71706163  0.10914221  1
  Ta  Ta97  1  0.30062687  0.50055813  0.13748377  1
  Ta  Ta98  1  0.59809501  0.81921522  0.76428603  1
  Ta  Ta99  1  0.51349490  0.49930366  0.35283808  1
  Ta  Ta100  1  0.81155212  0.60067097  0.00649556  1
  Ta  Ta101  1  -0.00560122  0.59024021  0.50497439  1
  Ta  Ta102  1  0.70050692  0.09948375  0.88590809  1
  Ta  Ta103  1  0.00885425  0.39006522  0.73900115  1
  Ta  Ta104  1  0.20492857  -0.01076542  0.76423745  1
  Ta  Ta105  1  -0.01095722  0.17228834  -0.00414189  1
  Ta  Ta106  1  0.20546738  0.79764577  0.75509090  1
  Ta  Ta107  1  -0.00267150  0.58831539  0.73560333  1
  Ta  Ta108  1  0.40732040  0.41098534  0.02240314  1
  Ta  Ta109  1  0.41015642  0.60945372  0.23173405  1
  Ta  Ta110  1  0.08739489  0.08480152  0.86636999  1
  Ta  Ta111  1  0.79646993  0.00166272  0.47930941  1
  Ta  Ta112  1  0.90349250  0.11096285  0.13405333  1
  Ta  Ta113  1  0.19720389  0.80965038  0.23881046  1
  Ta  Ta114  1  0.79216627  0.19526299  0.48923262  1
  Ta  Ta115  1  0.70206273  0.10088422  0.12234959  1
  Ta  Ta116  1  0.39808752  -0.00019472  0.49575965  1
  Ta  Ta117  1  0.58888785  0.41781093  0.49784207  1
  Ta  Ta118  1  0.69369280  0.30515630  0.61686773  1
  Ta  Ta119  1  0.49731368  0.10095825  0.37265072  1
  Ti  Ti120  1  0.49331933  0.91510796  0.36902990  1
  Ti  Ti121  1  0.10792633  0.69235458  0.87518026  1
  Ti  Ti122  1  0.88861084  0.68078433  0.62951900  1
  Ti  Ti123  1  0.50482002  0.71483573  0.88804717  1
  Ti  Ti124  1  0.79649835  0.39810129  0.00812504  1
  Ti  Ti125  1  0.58024815  0.00873075  0.24360658  1
  Ti  Ti126  1  0.09376975  0.49586352  0.14314795  1
  Ti  Ti127  1  0.29776583  0.70509196  0.87989998  1
  Ti  Ti128  1  0.08570991  0.69936112  0.35783267  1
  Ti  Ti129  1  0.90377819  0.49920708  0.37107452  1
  Ti  Ti130  1  0.90259457  0.09289196  0.86130588  1
  Ti  Ti131  1  0.90246861  0.90398190  0.87457956  1
  Ti  Ti132  1  0.78438728  -0.00393805  0.76223423  1
  Ti  Ti133  1  0.49445310  0.90603919  0.62757660  1
  Ti  Ti134  1  0.19868156  0.60091939  0.02535067  1
  Ti  Ti135  1  0.60208088  0.82295167  0.25468336  1
  Ti  Ti136  1  0.30210989  0.09312311  0.36785186  1
  Ti  Ti137  1  0.81767301  0.20081696  0.26592388  1
  Ti  Ti138  1  0.31150977  0.89025162  0.11006809  1
  Ti  Ti139  1  0.59516465  0.39452878  0.00725239  1
  Ti  Ti140  1  0.10949460  0.29256541  0.35760896  1
  Ti  Ti141  1  0.09607537  0.69292832  0.62238687  1
  Ti  Ti142  1  0.50557814  0.90808517  0.89112570  1
  Ti  Ti143  1  0.89697286  0.68787997  0.14072419  1
  Ti  Ti144  1  0.80127222  0.20350965  -0.00076694  1
  Ti  Ti145  1  0.89721692  0.68451855  0.35870454  1
  Ti  Ti146  1  0.60464021  0.19617087  0.24840522  1
  Ti  Ti147  1  -0.00691929  0.80549291  0.00841077  1
  Ti  Ti148  1  0.19672402  0.60298154  0.74712362  1
  Ti  Ti149  1  0.10244588  0.88767182  0.36589143  1
  Ti  Ti150  1  0.21045178  -0.00991850  0.23216125  1
  Ti  Ti151  1  0.60105485  0.20120654  0.00746269  1
  Ti  Ti152  1  0.80392586  0.40904949  0.74065714  1
  Ti  Ti153  1  0.90158176  0.89450674  0.36324002  1
  Ti  Ti154  1  0.69409811  0.09964822  0.36714323  1
  Ti  Ti155  1  0.81017608  0.60433531  0.49412575  1
  Ti  Ti156  1  0.41522234  0.00128606  0.00239642  1
  Ti  Ti157  1  0.70385552  0.71974657  0.62669292  1
  Ti  Ti158  1  0.19388796  0.18379208  0.24792345  1
  Ti  Ti159  1  0.18165063  -0.00496717  0.00747188  1
  Mo  Mo160  1  0.80796391  0.60055745  0.74963986  1
  Mo  Mo161  1  0.51294505  0.30112290  0.88456565  1
  Mo  Mo162  1  0.39885249  0.80760086  -0.00711085  1
  Mo  Mo163  1  0.29493083  0.28716699  0.34910510  1
  Mo  Mo164  1  0.68851280  0.91119048  0.36510731  1
  Mo  Mo165  1  0.39693041  -0.00351168  0.24705843  1
  Mo  Mo166  1  -0.00829901  -0.00908761  0.75578880  1
  Mo  Mo167  1  0.00194073  -0.00333788  0.00724025  1
  Mo  Mo168  1  0.60358154  0.01420222  -0.00410051  1
  Mo  Mo169  1  0.51654223  0.49687192  0.63008104  1
  Mo  Mo170  1  0.90478194  0.50134897  0.62310680  1
  Mo  Mo171  1  0.19515151  0.41519252  0.75005293  1
  Mo  Mo172  1  0.20901011  -0.01075102  0.49308219  1
  Mo  Mo173  1  0.49258276  0.92035532  0.12059165  1
  Mo  Mo174  1  0.70263880  0.70555480  0.89478550  1
  Mo  Mo175  1  0.60326572  0.00089075  0.76749147  1
  Mo  Mo176  1  -0.00477246  0.19592436  0.75932441  1
  Mo  Mo177  1  -0.00826215  0.18893035  0.26816625  1
  Mo  Mo178  1  0.41256040  0.39602866  0.48878992  1
  Mo  Mo179  1  -0.00760801  0.58950421  0.24472189  1
  Mo  Mo180  1  0.30437101  0.90297691  0.62958010  1
  Mo  Mo181  1  0.80659693  0.60250201  0.24641104  1
  Mo  Mo182  1  0.80641986  0.79574360  -0.00663345  1
  Mo  Mo183  1  -0.00584121  0.79519343  0.25857627  1
  Mo  Mo184  1  0.90020050  0.49811041  0.12188277  1
  Mo  Mo185  1  0.10226008  0.30057667  0.63035744  1
  Mo  Mo186  1  0.51576944  0.10222876  0.12298850  1
  Mo  Mo187  1  0.29935220  0.70615736  0.13759135  1
  Mo  Mo188  1  0.60126225  0.40758951  0.24781536  1
  Mo  Mo189  1  0.40536792  0.40472399  0.23216952  1
  Mo  Mo190  1  0.89224151  0.09063366  0.36845513  1
  Mo  Mo191  1  0.70648364  0.70417282  0.37293417  1
  Mo  Mo192  1  0.88883034  0.28485440  0.12246779  1
  Mo  Mo193  1  0.70121964  0.10773774  0.61385318  1
  Mo  Mo194  1  0.09808624  0.08753894  0.12930387  1
  Mo  Mo195  1  0.09910333  0.89789343  0.12198213  1
  Mo  Mo196  1  0.89732023  0.29995012  0.38108096  1
  Mo  Mo197  1  0.50454642  0.50807017  0.12649395  1
  Mo  Mo198  1  0.19572786  0.39206484  0.24515090  1
  Mo  Mo199  1  0.59809947  0.80589497  -0.00927730  1
