# generated using pymatgen
data_HfZrTaTiMo
_symmetry_space_group_name_H-M   'P 1'
_cell_length_a   15.21549569
_cell_length_b   15.20455716
_cell_length_c   16.83223431
_cell_angle_alpha   89.97563366
_cell_angle_beta   90.02056866
_cell_angle_gamma   90.01361578
_symmetry_Int_Tables_number   1
_chemical_formula_structural   HfZrTaTiMo
_chemical_formula_sum   'Hf40 Zr40 Ta40 Ti40 Mo40'
_cell_volume   3894.05041185
_cell_formula_units_Z   40
loop_
 _symmetry_equiv_pos_site_id
 _symmetry_equiv_pos_as_xyz
  1  'x, y, z'
loop_
 _atom_site_type_symbol
 _atom_site_label
 _atom_site_symmetry_multiplicity
 _atom_site_fract_x
 _atom_site_fract_y
 _atom_site_fract_z
 _atom_site_occupancy
  Hf  Hf0  1  -0.02022222  0.39059253  0.00738527  1
  Hf  Hf1  1  0.40628882  0.60406468  0.24845102  1
  Hf  Hf2  1  0.69455054  0.71235432  0.62491413  1
  Hf  Hf3  1  0.81585236  0.22772143  -0.00472045  1
  Hf  Hf4  1  0.59332453  0.80224511  0.24116150  1
  Hf  Hf5  1  0.90544173  0.70445291  0.62362234  1
  Hf  Hf6  1  0.30520689  0.68725239  0.38196799  1
  Hf  Hf7  1  0.29683701  0.30692423  0.13767172  1
  Hf  Hf8  1  0.79559122  0.37931544  0.50599173  1
  Hf  Hf9  1  0.88962996  0.47800867  0.86941489  1
  Hf  Hf10  1  0.01536786  0.19675345  0.74016167  1
  Hf  Hf11  1  0.50907077  0.89606385  0.63193221  1
  Hf  Hf12  1  0.78970815  -0.00453534  0.50771969  1
  Hf  Hf13  1  0.09144706  0.29775898  0.14056290  1
  Hf  Hf14  1  0.39534949  0.79985779  0.73523644  1
  Hf  Hf15  1  0.70224671  0.30240963  0.13709531  1
  Hf  Hf16  1  0.70101476  0.08703606  0.37179403  1
  Hf  Hf17  1  0.70166242  0.51047325  0.37659081  1
  Hf  Hf18  1  0.37879578  0.40348951  0.49620750  1
  Hf  Hf19  1  0.19081742  0.60215629  -0.00740406  1
  Hf  Hf20  1  0.10766444  0.89971049  0.38517783  1
  Hf  Hf21  1  0.91003569  0.67924586  0.38763508  1
  Hf  Hf22  1  0.81406816  0.79047999  -0.01842803  1
  Hf  Hf23  1  0.79965283  0.80194805  0.24392854  1
  Hf  Hf24  1  0.58603059  0.59851843  0.00462903  1
  Hf  Hf25  1  0.09108483  0.68381703  0.13025421  1
  Hf  Hf26  1  0.11643305  0.88610907  0.88477536  1
  Hf  Hf27  1  0.78424777  0.39794447  0.73290063  1
  Hf  Hf28  1  0.70265002  0.09725935  0.12138360  1
  Hf  Hf29  1  0.49423073  0.30078552  0.13186278  1
  Hf  Hf30  1  0.39129634  0.39775033  -0.00958610  1
  Hf  Hf31  1  0.80380008  0.58512383  0.51550104  1
  Hf  Hf32  1  0.48868347  0.70593180  0.87252103  1
  Hf  Hf33  1  0.29643811  0.70202166  0.12405510  1
  Hf  Hf34  1  0.40536249  -0.00035169  0.26585567  1
  Hf  Hf35  1  0.57945947  0.00176406  -0.00290910  1
  Hf  Hf36  1  0.08805278  0.50345182  0.37067160  1
  Hf  Hf37  1  0.10518016  0.11109392  0.38312504  1
  Hf  Hf38  1  0.58887607  0.00469352  0.50696933  1
  Hf  Hf39  1  0.40105257  0.81609331  0.00855351  1
  Zr  Zr40  1  0.69811782  0.11031912  0.87667413  1
  Zr  Zr41  1  0.00357784  0.21252169  0.50996244  1
  Zr  Zr42  1  0.10516369  0.89011780  0.11744416  1
  Zr  Zr43  1  0.20361443  0.20999069  -0.00089987  1
  Zr  Zr44  1  0.89813270  0.10534700  0.37906574  1
  Zr  Zr45  1  0.31070936  0.90951283  0.86747501  1
  Zr  Zr46  1  -0.00895919  0.41088055  0.50650585  1
  Zr  Zr47  1  0.38637148  0.60486711  0.73668927  1
  Zr  Zr48  1  0.70778797  0.70683990  0.38097280  1
  Zr  Zr49  1  0.79731420  0.59793452  0.74251117  1
  Zr  Zr50  1  0.58165769  0.40551675  0.26703903  1
  Zr  Zr51  1  0.18572801  0.40243691  -0.01105680  1
  Zr  Zr52  1  0.40865865  0.20796097  0.50717086  1
  Zr  Zr53  1  -0.00347907  0.79311484  0.25352253  1
  Zr  Zr54  1  0.40382764  0.20190744  0.26837248  1
  Zr  Zr55  1  0.88438661  0.89071503  0.38743145  1
  Zr  Zr56  1  0.59732472  0.80600016  0.00847808  1
  Zr  Zr57  1  0.31863840  0.09605642  0.12455008  1
  Zr  Zr58  1  0.71128851  0.69873001  0.11875620  1
  Zr  Zr59  1  0.91081757  0.10371542  0.11158973  1
  Zr  Zr60  1  0.00688557  -0.00952281  0.75004706  1
  Zr  Zr61  1  -0.00014018  0.00256523  0.24820759  1
  Zr  Zr62  1  0.30970768  0.11380427  0.86864469  1
  Zr  Zr63  1  0.00202294  -0.00044868  0.50942490  1
  Zr  Zr64  1  0.69690467  0.49790234  0.12925321  1
  Zr  Zr65  1  0.58841472  0.59204341  0.74285842  1
  Zr  Zr66  1  0.70745067  0.28640732  0.36376380  1
  Zr  Zr67  1  0.11236907  0.09662903  0.87954097  1
  Zr  Zr68  1  0.91502654  0.30435917  0.35682598  1
  Zr  Zr69  1  0.00987600  0.78745194  0.76338545  1
  Zr  Zr70  1  0.41218994  0.80571943  0.49802194  1
  Zr  Zr71  1  0.39188582  0.39393259  0.74179036  1
  Zr  Zr72  1  0.58798518  0.38996676  0.48616904  1
  Zr  Zr73  1  0.60178496  0.20595569  0.00135121  1
  Zr  Zr74  1  0.40420369  0.80580047  0.25551565  1
  Zr  Zr75  1  0.91408164  0.10747773  0.88432362  1
  Zr  Zr76  1  0.69369822  0.69308161  0.87256935  1
  Zr  Zr77  1  0.71188119  0.90556691  0.64536108  1
  Zr  Zr78  1  0.60303553  0.01625391  0.74827716  1
  Zr  Zr79  1  0.50269516  0.29594242  0.85977582  1
  Ta  Ta80  1  0.29641377  0.91089038  0.61008504  1
  Ta  Ta81  1  0.48444105  0.49977424  0.12508351  1
  Ta  Ta82  1  0.48429190  0.52217078  0.39461881  1
  Ta  Ta83  1  0.89894598  0.29590129  0.63571778  1
  Ta  Ta84  1  -0.00186213  0.58983211  0.74836444  1
  Ta  Ta85  1  0.82503870  0.60026338  0.24367242  1
  Ta  Ta86  1  0.29507936  0.09489867  0.39817879  1
  Ta  Ta87  1  0.19239422  0.60493280  0.75574759  1
  Ta  Ta88  1  0.48967523  0.50177867  0.60745117  1
  Ta  Ta89  1  0.28816223  0.71057033  0.88085780  1
  Ta  Ta90  1  0.21751173  -0.00723622  0.00468443  1
  Ta  Ta91  1  0.10964350  0.09570518  0.11931598  1
  Ta  Ta92  1  0.20611134  -0.00522563  0.25551674  1
  Ta  Ta93  1  0.89509368  0.09642806  0.62929299  1
  Ta  Ta94  1  0.59587332  0.18875609  0.25163644  1
  Ta  Ta95  1  0.59707951  0.40041316  0.00068480  1
  Ta  Ta96  1  0.19153712  0.39586398  0.76207164  1
  Ta  Ta97  1  0.28678989  0.49926601  0.12822218  1
  Ta  Ta98  1  0.80594623  0.41166853  0.25255826  1
  Ta  Ta99  1  0.40944029  0.19440771  -0.00042467  1
  Ta  Ta100  1  0.69606428  0.90002724  0.86684426  1
  Ta  Ta101  1  0.11124538  0.69095860  0.62398430  1
  Ta  Ta102  1  0.90289595  0.89425862  0.62679866  1
  Ta  Ta103  1  0.10565902  0.88896995  0.61990360  1
  Ta  Ta104  1  0.79823995  -0.00842722  -0.01102346  1
  Ta  Ta105  1  0.59621739  -0.00518669  0.24658664  1
  Ta  Ta106  1  0.20088191  0.58893166  0.50187599  1
  Ta  Ta107  1  0.19806556  0.18675533  0.25116442  1
  Ta  Ta108  1  0.81438299  0.80290287  0.77057099  1
  Ta  Ta109  1  0.80145629  0.19795193  0.75142662  1
  Ta  Ta110  1  0.38322102  0.41229324  0.27197657  1
  Ta  Ta111  1  0.18617871  0.39379964  0.49754368  1
  Ta  Ta112  1  0.28291442  0.29575308  0.37431302  1
  Ta  Ta113  1  0.39186481  0.01414608  0.72871066  1
  Ta  Ta114  1  0.27803414  0.49806885  0.62812072  1
  Ta  Ta115  1  0.20412033  0.79801658  0.25944369  1
  Ta  Ta116  1  0.29594453  0.50581840  0.86826623  1
  Ta  Ta117  1  0.89758380  0.89125262  0.11064816  1
  Ta  Ta118  1  -0.00872645  0.59412667  -0.00678003  1
  Ta  Ta119  1  0.68741938  0.49045231  0.87781391  1
  Ti  Ti120  1  0.50247593  0.11272779  0.62940119  1
  Ti  Ti121  1  0.67848773  0.49131977  0.61421486  1
  Ti  Ti122  1  0.81543093  -0.00035253  0.76581051  1
  Ti  Ti123  1  0.00629090  0.78176808  -0.01219240  1
  Ti  Ti124  1  0.08712203  0.49747079  0.86616640  1
  Ti  Ti125  1  0.00337480  -0.01012813  -0.00237068  1
  Ti  Ti126  1  0.61602901  0.20301400  0.50009082  1
  Ti  Ti127  1  0.70206665  0.90508906  0.11723205  1
  Ti  Ti128  1  0.20589909  0.79816713  0.73986475  1
  Ti  Ti129  1  0.20230674  0.00265577  0.73687449  1
  Ti  Ti130  1  0.79712753  -0.00809447  0.24458089  1
  Ti  Ti131  1  0.49430251  0.10186191  0.85970153  1
  Ti  Ti132  1  0.51339121  0.70305770  0.38737189  1
  Ti  Ti133  1  -0.00274373  0.43287136  0.23448937  1
  Ti  Ti134  1  0.09274729  0.49337166  0.63679344  1
  Ti  Ti135  1  0.70581690  0.31124702  0.86921662  1
  Ti  Ti136  1  0.20327473  0.79189944  0.50309607  1
  Ti  Ti137  1  0.49535599  0.49907842  0.87268398  1
  Ti  Ti138  1  0.39319933  0.60011494  0.00196259  1
  Ti  Ti139  1  0.30026058  0.90275186  0.13037056  1
  Ti  Ti140  1  0.81009385  0.18848994  0.24316825  1
  Ti  Ti141  1  0.00428018  0.79349601  0.50207183  1
  Ti  Ti142  1  0.50138357  0.10151295  0.38574986  1
  Ti  Ti143  1  0.70363560  0.11811962  0.62893079  1
  Ti  Ti144  1  0.11350637  0.30489138  0.62951957  1
  Ti  Ti145  1  0.50141507  0.90365257  0.85649602  1
  Ti  Ti146  1  0.10687014  0.69757496  0.37622900  1
  Ti  Ti147  1  0.30376921  0.90374132  0.39119439  1
  Ti  Ti148  1  0.10064135  0.30516224  0.35424707  1
  Ti  Ti149  1  0.51442851  0.30580200  0.63491709  1
  Ti  Ti150  1  0.22523807  0.20452982  0.73803539  1
  Ti  Ti151  1  0.89784866  0.30648671  0.14154996  1
  Ti  Ti152  1  0.19707748  0.58711437  0.25150258  1
  Ti  Ti153  1  0.62034590  0.81369177  0.49256120  1
  Ti  Ti154  1  0.80515862  0.58615308  -0.00181349  1
  Ti  Ti155  1  0.00829918  0.59538650  0.51422811  1
  Ti  Ti156  1  0.59929617  0.60690118  0.24605966  1
  Ti  Ti157  1  0.50233960  0.69612713  0.61009490  1
  Ti  Ti158  1  0.08050473  0.29726373  0.87214361  1
  Ti  Ti159  1  0.12158910  0.09878588  0.61256929  1
  Mo  Mo160  1  0.69134655  0.90163584  0.37084253  1
  Mo  Mo161  1  0.89983996  0.50956581  0.11881690  1
  Mo  Mo162  1  0.90488976  0.89909031  0.88608381  1
  Mo  Mo163  1  0.81001441  0.79983956  0.50537009  1
  Mo  Mo164  1  0.78645382  0.40153174  0.00015366  1
  Mo  Mo165  1  0.38982650  0.60312262  0.51480990  1
  Mo  Mo166  1  0.49637146  0.69214221  0.12367780  1
  Mo  Mo167  1  0.60051920  0.79779317  0.75512082  1
  Mo  Mo168  1  0.49176004  0.91623394  0.12829326  1
  Mo  Mo169  1  0.49440022  0.30143471  0.37275965  1
  Mo  Mo170  1  0.20229761  0.79927076  0.00410279  1
  Mo  Mo171  1  0.40520668  0.00739722  -0.00553515  1
  Mo  Mo172  1  0.59524582  0.40946791  0.74544031  1
  Mo  Mo173  1  0.50617838  0.09936007  0.13090720  1
  Mo  Mo174  1  0.00703453  0.19422562  0.24563844  1
  Mo  Mo175  1  0.00081673  0.39488846  0.74382613  1
  Mo  Mo176  1  0.20078227  -0.00172693  0.50534744  1
  Mo  Mo177  1  0.80260227  0.19293452  0.51156224  1
  Mo  Mo178  1  0.29955928  0.10314667  0.61140112  1
  Mo  Mo179  1  0.90315639  0.69977137  0.11409821  1
  Mo  Mo180  1  0.19756255  0.40081233  0.25360554  1
  Mo  Mo181  1  0.51454279  0.90507272  0.38042843  1
  Mo  Mo182  1  0.20217941  0.21331557  0.50222467  1
  Mo  Mo183  1  0.40495076  0.19814911  0.72999354  1
  Mo  Mo184  1  0.40306736  0.00480851  0.50427580  1
  Mo  Mo185  1  0.10269486  0.49755323  0.12515688  1
  Mo  Mo186  1  0.89402903  0.49967890  0.37314828  1
  Mo  Mo187  1  0.90668258  0.68122318  0.87383049  1
  Mo  Mo188  1  0.10434788  0.68669255  0.87385793  1
  Mo  Mo189  1  0.89873394  0.29820730  0.85638623  1
  Mo  Mo190  1  0.59477320  0.60663660  0.50560342  1
  Mo  Mo191  1  0.60936217  0.21625824  0.74437917  1
  Mo  Mo192  1  0.00930617  0.20208895  0.00417712  1
  Mo  Mo193  1  0.90355237  0.49614309  0.63254839  1
  Mo  Mo194  1  0.28748807  0.50113293  0.37751425  1
  Mo  Mo195  1  0.29070648  0.70390827  0.61599018  1
  Mo  Mo196  1  0.00341683  0.60475813  0.25012564  1
  Mo  Mo197  1  0.69358796  0.29364131  0.62496785  1
  Mo  Mo198  1  0.28972972  0.30458283  0.62194196  1
  Mo  Mo199  1  0.29485728  0.30434675  0.86879390  1
