# generated using pymatgen
data_HfZrTaTiMo
_symmetry_space_group_name_H-M   'P 1'
_cell_length_a   15.21263111
_cell_length_b   15.19922805
_cell_length_c   16.85312508
_cell_angle_alpha   90.03573120
_cell_angle_beta   89.98797476
_cell_angle_gamma   90.02911533
_symmetry_Int_Tables_number   1
_chemical_formula_structural   HfZrTaTiMo
_chemical_formula_sum   'Hf40 Zr40 Ta40 Ti40 Mo40'
_cell_volume   3896.78243821
_cell_formula_units_Z   40
loop_
 _symmetry_equiv_pos_site_id
 _symmetry_equiv_pos_as_xyz
  1  'x, y, z'
loop_
 _atom_site_type_symbol
 _atom_site_label
 _atom_site_symmetry_multiplicity
 _atom_site_fract_x
 _atom_site_fract_y
 _atom_site_fract_z
 _atom_site_occupancy
  Hf  Hf0  1  0.68485424  0.08596115  0.61741207  1
  Hf  Hf1  1  0.20521901  0.59654974  0.49164549  1
  Hf  Hf2  1  0.58267787  0.19027381  0.50087026  1
  Hf  Hf3  1  0.09613189  0.51395775  0.89203803  1
  Hf  Hf4  1  0.09870203  0.51533586  0.10790506  1
  Hf  Hf5  1  0.79811539  0.38515141  0.24695684  1
  Hf  Hf6  1  0.80476425  0.58512516  0.24773982  1
  Hf  Hf7  1  0.70039343  0.49446312  0.87566150  1
  Hf  Hf8  1  0.71162880  0.69771643  0.11348624  1
  Hf  Hf9  1  0.19215962  0.40539970  0.23889285  1
  Hf  Hf10  1  0.49749879  0.49370456  0.87880603  1
  Hf  Hf11  1  0.81282075  0.59761933  0.00161913  1
  Hf  Hf12  1  0.09590112  0.30780280  0.89196285  1
  Hf  Hf13  1  0.40796015  0.60335477  0.49533601  1
  Hf  Hf14  1  0.30463887  0.49687647  0.63025731  1
  Hf  Hf15  1  0.70775275  0.49537295  0.38831703  1
  Hf  Hf16  1  0.60881497  0.60343069  0.24651140  1
  Hf  Hf17  1  0.38298779  0.79720987  0.75739287  1
  Hf  Hf18  1  0.29964652  0.11496737  0.35394417  1
  Hf  Hf19  1  0.48873433  0.30430474  0.35893200  1
  Hf  Hf20  1  0.79602977  0.20475113  0.74102796  1
  Hf  Hf21  1  0.80300099  0.39845192  0.74149276  1
  Hf  Hf22  1  0.00771904  -0.00037779  0.49438967  1
  Hf  Hf23  1  0.50311339  0.90309003  0.64510583  1
  Hf  Hf24  1  0.90022577  0.89855819  0.37296033  1
  Hf  Hf25  1  0.69927600  0.88967535  0.63363062  1
  Hf  Hf26  1  0.39654900  0.80791527  0.00208450  1
  Hf  Hf27  1  0.89864030  0.30355772  0.38522569  1
  Hf  Hf28  1  0.70078460  0.29723044  0.39600593  1
  Hf  Hf29  1  0.21527407  0.00454317  0.76346187  1
  Hf  Hf30  1  0.10443691  0.71336948  0.37486517  1
  Hf  Hf31  1  0.89225172  0.91193346  0.12628452  1
  Hf  Hf32  1  0.09649319  0.08893249  0.12376214  1
  Hf  Hf33  1  0.51132088  0.11882324  0.12553751  1
  Hf  Hf34  1  0.41045335  -0.00652091  0.23719410  1
  Hf  Hf35  1  0.59015833  0.19216881  0.74183585  1
  Hf  Hf36  1  0.29693651  0.50115073  0.87812346  1
  Hf  Hf37  1  0.20164020  0.60938940  0.25364831  1
  Hf  Hf38  1  0.09238679  0.09729177  0.87996234  1
  Hf  Hf39  1  0.59900189  0.00251886  -0.00336703  1
  Zr  Zr40  1  0.01049058  0.20970783  0.51199400  1
  Zr  Zr41  1  0.30172255  0.29483658  0.87990829  1
  Zr  Zr42  1  0.60213891  0.38568688  0.01079586  1
  Zr  Zr43  1  0.69912501  0.50920527  0.61706976  1
  Zr  Zr44  1  0.50009503  0.90643686  0.86283318  1
  Zr  Zr45  1  0.49829572  0.50818209  0.36895210  1
  Zr  Zr46  1  0.41464487  0.60485439  0.75445560  1
  Zr  Zr47  1  0.30136062  0.89879790  0.36633358  1
  Zr  Zr48  1  0.81236266  0.59886063  0.50260518  1
  Zr  Zr49  1  0.60608684  0.79773683  -0.00483969  1
  Zr  Zr50  1  0.17773561  0.20867053  0.75127882  1
  Zr  Zr51  1  0.92050023  0.69532921  0.86858138  1
  Zr  Zr52  1  0.78914966  0.79277180  0.50701432  1
  Zr  Zr53  1  0.78964740  0.79687213  0.24922004  1
  Zr  Zr54  1  0.69459560  0.30438392  0.60601246  1
  Zr  Zr55  1  0.79904631  0.00491636  0.74603512  1
  Zr  Zr56  1  0.90741532  0.49089054  0.87311900  1
  Zr  Zr57  1  0.72386893  0.09601738  0.11416899  1
  Zr  Zr58  1  0.29290818  0.11294428  0.12961740  1
  Zr  Zr59  1  0.29739566  0.91833663  0.62460626  1
  Zr  Zr60  1  0.79658328  0.01091389  0.26230502  1
  Zr  Zr61  1  0.10494489  0.08684466  0.63205185  1
  Zr  Zr62  1  -0.01291863  0.19377672  0.01129705  1
  Zr  Zr63  1  -0.00045253  0.79950518  0.50457621  1
  Zr  Zr64  1  0.41749523  0.80979416  0.50111755  1
  Zr  Zr65  1  0.00733729  0.79068465  0.01245129  1
  Zr  Zr66  1  0.49098841  0.69088896  0.11257209  1
  Zr  Zr67  1  0.60011416  0.76669894  0.75642674  1
  Zr  Zr68  1  0.39262862  0.21309948  0.50022336  1
  Zr  Zr69  1  0.89470365  0.29438077  0.87671118  1
  Zr  Zr70  1  0.62303936  0.19294077  0.26336840  1
  Zr  Zr71  1  0.89875324  0.69235061  0.36908566  1
  Zr  Zr72  1  0.20256091  0.61305592  0.75319890  1
  Zr  Zr73  1  0.40308149  0.39762060  0.01511488  1
  Zr  Zr74  1  -0.01047610  0.20138292  0.23948921  1
  Zr  Zr75  1  0.58371044  0.80786738  0.23315206  1
  Zr  Zr76  1  0.10020292  0.30555792  0.36683528  1
  Zr  Zr77  1  0.91385521  0.90065860  0.85933069  1
  Zr  Zr78  1  0.59288477  0.39872097  0.74519000  1
  Zr  Zr79  1  0.38145529  0.18842597  0.74542060  1
  Ta  Ta80  1  0.89824351  0.10732395  0.38237632  1
  Ta  Ta81  1  0.80741439  0.78958149  0.74556009  1
  Ta  Ta82  1  0.92037227  0.90119995  0.63915460  1
  Ta  Ta83  1  0.31064927  0.70372774  0.37358379  1
  Ta  Ta84  1  0.50535663  0.29263404  0.87294028  1
  Ta  Ta85  1  0.48533149  0.10450885  0.88015881  1
  Ta  Ta86  1  0.20110302  0.78818183  0.00787552  1
  Ta  Ta87  1  0.01281032  0.59083739  0.50361891  1
  Ta  Ta88  1  0.00720287  0.59296406  0.25120837  1
  Ta  Ta89  1  0.57800748  0.40765594  0.50220726  1
  Ta  Ta90  1  0.80828521  0.19073387  0.51500965  1
  Ta  Ta91  1  0.50103115  0.51088265  0.62428696  1
  Ta  Ta92  1  0.60508701  -0.00630570  0.24935228  1
  Ta  Ta93  1  0.29343078  0.90161274  0.88469145  1
  Ta  Ta94  1  0.20223663  0.80848386  0.50132424  1
  Ta  Ta95  1  0.28273163  0.30552737  0.62690813  1
  Ta  Ta96  1  0.40042380  0.60933257  0.25133089  1
  Ta  Ta97  1  0.80510429  -0.00522783  0.50542860  1
  Ta  Ta98  1  0.39920908  0.01456638  0.49262305  1
  Ta  Ta99  1  0.60391823  0.40190626  0.23928878  1
  Ta  Ta100  1  0.69243507  0.28840306  0.12384616  1
  Ta  Ta101  1  0.00228278  -0.00296634  0.25669376  1
  Ta  Ta102  1  0.01016966  0.80384129  0.23967172  1
  Ta  Ta103  1  0.10559294  0.70277186  0.61969369  1
  Ta  Ta104  1  0.69013950  0.10501234  0.87488439  1
  Ta  Ta105  1  0.28978056  0.90365695  0.12175152  1
  Ta  Ta106  1  0.20345976  0.19872275  0.50114242  1
  Ta  Ta107  1  0.00605844  0.59570518  0.73853804  1
  Ta  Ta108  1  0.79735912  0.60212737  0.74518051  1
  Ta  Ta109  1  0.20152257  0.00520044  0.48741479  1
  Ta  Ta110  1  0.30447389  0.51444511  0.12709869  1
  Ta  Ta111  1  0.30444479  0.70585117  0.61813495  1
  Ta  Ta112  1  0.60437210  0.62677733  0.49764207  1
  Ta  Ta113  1  -0.01136006  -0.00798012  -0.00030632  1
  Ta  Ta114  1  0.68096823  0.88782865  0.38226029  1
  Ta  Ta115  1  0.91326220  0.48828633  0.62261930  1
  Ta  Ta116  1  0.70714011  0.90046536  0.86567097  1
  Ta  Ta117  1  0.19252204  0.39636533  0.49520592  1
  Ta  Ta118  1  0.19269574  -0.00724622  -0.00166100  1
  Ta  Ta119  1  -0.00465349  0.40470118  0.23320808  1
  Ti  Ti120  1  0.49858556  0.49444471  0.13354117  1
  Ti  Ti121  1  0.29639243  0.30544690  0.35603730  1
  Ti  Ti122  1  0.50070514  0.68828302  0.89044520  1
  Ti  Ti123  1  0.70905986  0.69377970  0.88107112  1
  Ti  Ti124  1  0.89532656  0.49638406  0.12168243  1
  Ti  Ti125  1  0.40203943  0.20618033  0.00530823  1
  Ti  Ti126  1  0.19007517  0.80323702  0.74835077  1
  Ti  Ti127  1  0.88397280  0.28778626  0.12232161  1
  Ti  Ti128  1  0.39160683  0.79820389  0.23545956  1
  Ti  Ti129  1  0.47764602  0.31585140  0.62922952  1
  Ti  Ti130  1  0.10733275  0.49262827  0.62585016  1
  Ti  Ti131  1  0.70413465  0.08921334  0.39462269  1
  Ti  Ti132  1  0.38618717  0.40574505  0.49633385  1
  Ti  Ti133  1  0.69687050  0.90333967  0.11532122  1
  Ti  Ti134  1  0.91904868  0.48911467  0.37995961  1
  Ti  Ti135  1  0.60363287  0.58571012  0.00912630  1
  Ti  Ti136  1  0.37921863  0.60764068  -0.00163087  1
  Ti  Ti137  1  0.31363722  0.30068580  0.14332631  1
  Ti  Ti138  1  0.89724602  0.09672354  0.86698658  1
  Ti  Ti139  1  0.11195361  0.29218815  0.11758728  1
  Ti  Ti140  1  -0.00891782  0.39839853  0.01628498  1
  Ti  Ti141  1  0.90487820  0.69482085  0.63203917  1
  Ti  Ti142  1  0.78495582  0.19988245  -0.01248042  1
  Ti  Ti143  1  0.10122669  0.10434059  0.36582607  1
  Ti  Ti144  1  0.18935083  -0.00695929  0.25115082  1
  Ti  Ti145  1  0.47984795  0.08849881  0.62851417  1
  Ti  Ti146  1  0.39447938  0.00631220  0.00806046  1
  Ti  Ti147  1  0.19781719  0.40472115  0.75432900  1
  Ti  Ti148  1  0.00834034  0.38376552  0.74309907  1
  Ti  Ti149  1  0.79465260  0.39347909  0.00624703  1
  Ti  Ti150  1  0.58773752  -0.01827489  0.49577227  1
  Ti  Ti151  1  0.91456243  0.69036441  0.12968385  1
  Ti  Ti152  1  0.51140370  0.72346882  0.36953134  1
  Ti  Ti153  1  0.09930082  0.88762615  0.87351037  1
  Ti  Ti154  1  0.21076584  0.39740748  0.01342317  1
  Ti  Ti155  1  0.29673732  0.49463411  0.36540850  1
  Ti  Ti156  1  0.80713361  0.81430731  -0.00798313  1
  Ti  Ti157  1  0.19778691  0.80449612  0.23732625  1
  Ti  Ti158  1  0.50297909  0.09196475  0.36756071  1
  Ti  Ti159  1  0.90737208  0.09810286  0.63253735  1
  Mo  Mo160  1  0.59605794  0.80108485  0.50684373  1
  Mo  Mo161  1  0.60860449  0.59247430  0.75755361  1
  Mo  Mo162  1  0.49946654  0.29754678  0.14434590  1
  Mo  Mo163  1  0.10341816  0.90741171  0.36810341  1
  Mo  Mo164  1  0.59671520  0.00446518  0.76118494  1
  Mo  Mo165  1  0.89889860  0.09676773  0.12028124  1
  Mo  Mo166  1  0.20555578  0.20402643  0.00217986  1
  Mo  Mo167  1  0.69188989  0.69894954  0.37144962  1
  Mo  Mo168  1  0.40776712  0.20441216  0.25191739  1
  Mo  Mo169  1  0.10899339  0.70669051  0.87394889  1
  Mo  Mo170  1  0.10096792  0.90348254  0.12437569  1
  Mo  Mo171  1  0.90455315  0.30013059  0.62272801  1
  Mo  Mo172  1  0.01028495  0.00095337  0.75223087  1
  Mo  Mo173  1  0.81006364  0.39614041  0.50834406  1
  Mo  Mo174  1  0.70280020  0.69617584  0.63167185  1
  Mo  Mo175  1  -0.01224085  0.19918749  0.74680883  1
  Mo  Mo176  1  0.20375254  0.60971435  0.00087481  1
  Mo  Mo177  1  0.39255207  0.39578987  0.74717149  1
  Mo  Mo178  1  0.09714253  0.50246488  0.37055801  1
  Mo  Mo179  1  0.01323167  0.79056460  0.73825956  1
  Mo  Mo180  1  0.80385846  0.20032182  0.25787688  1
  Mo  Mo181  1  0.39692680  0.41297334  0.24145700  1
  Mo  Mo182  1  -0.00131275  0.60009568  0.00525236  1
  Mo  Mo183  1  0.10020726  0.31355351  0.62649067  1
  Mo  Mo184  1  0.00788467  0.41001852  0.50286583  1
  Mo  Mo185  1  0.29681296  0.70153940  0.12915264  1
  Mo  Mo186  1  0.80229402  -0.00094699  -0.01958362  1
  Mo  Mo187  1  0.19654275  0.20382440  0.24534786  1
  Mo  Mo188  1  0.10572720  0.89367702  0.62714399  1
  Mo  Mo189  1  0.29833633  0.10395530  0.61596893  1
  Mo  Mo190  1  0.49967803  0.91012256  0.37154049  1
  Mo  Mo191  1  0.29715618  0.09684692  0.90030412  1
  Mo  Mo192  1  0.50077797  0.69389337  0.62565988  1
  Mo  Mo193  1  0.70370783  0.49249013  0.12275124  1
  Mo  Mo194  1  0.29199178  0.70915009  0.88006397  1
  Mo  Mo195  1  0.10137973  0.70274373  0.13507744  1
  Mo  Mo196  1  0.49720343  0.91069811  0.11658054  1
  Mo  Mo197  1  0.59444315  0.20015828  -0.00701533  1
  Mo  Mo198  1  0.69319152  0.29333581  0.87480716  1
  Mo  Mo199  1  0.39884752  0.00543838  0.76043907  1
