# generated using pymatgen
data_HfZrTaTiMo
_symmetry_space_group_name_H-M   'P 1'
_cell_length_a   15.21449943
_cell_length_b   15.22130475
_cell_length_c   16.83159150
_cell_angle_alpha   89.94349146
_cell_angle_beta   89.96368660
_cell_angle_gamma   89.98857129
_symmetry_Int_Tables_number   1
_chemical_formula_structural   HfZrTaTiMo
_chemical_formula_sum   'Hf40 Zr40 Ta40 Ti40 Mo40'
_cell_volume   3897.93349205
_cell_formula_units_Z   40
loop_
 _symmetry_equiv_pos_site_id
 _symmetry_equiv_pos_as_xyz
  1  'x, y, z'
loop_
 _atom_site_type_symbol
 _atom_site_label
 _atom_site_symmetry_multiplicity
 _atom_site_fract_x
 _atom_site_fract_y
 _atom_site_fract_z
 _atom_site_occupancy
  Hf  Hf0  1  0.19359754  0.38543422  0.49788538  1
  Hf  Hf1  1  0.10933033  0.50472174  0.13418857  1
  Hf  Hf2  1  0.80022098  0.60135730  0.50603807  1
  Hf  Hf3  1  0.79799064  0.20867353  0.72715989  1
  Hf  Hf4  1  0.40629259  0.20162600  -0.00639583  1
  Hf  Hf5  1  0.80900961  0.60440709  0.73975001  1
  Hf  Hf6  1  0.90281833  0.30852525  0.38758553  1
  Hf  Hf7  1  0.10814623  0.49531127  0.87739895  1
  Hf  Hf8  1  0.70300637  0.47191819  0.88335880  1
  Hf  Hf9  1  0.18916943  0.39187843  0.73717859  1
  Hf  Hf10  1  0.49999589  0.31294714  0.11993729  1
  Hf  Hf11  1  0.39328722  0.61234983  0.50200496  1
  Hf  Hf12  1  0.80225205  0.78985748  -0.00196734  1
  Hf  Hf13  1  0.30140794  0.09471570  0.11829828  1
  Hf  Hf14  1  0.09914767  0.69756366  0.62280372  1
  Hf  Hf15  1  0.40273682  0.39456353  0.73857683  1
  Hf  Hf16  1  0.31427630  0.89189345  0.88521923  1
  Hf  Hf17  1  0.79628736  0.20004015  -0.00149369  1
  Hf  Hf18  1  0.60365594  0.00312224  0.00025344  1
  Hf  Hf19  1  0.41160585  -0.00959551  0.74036049  1
  Hf  Hf20  1  0.91602848  0.10048919  0.38876651  1
  Hf  Hf21  1  0.29627694  0.68996009  0.85165280  1
  Hf  Hf22  1  0.79785370  0.80231107  0.49558737  1
  Hf  Hf23  1  -0.00516890  0.80887661  0.48232979  1
  Hf  Hf24  1  -0.01022338  0.19380589  0.00538806  1
  Hf  Hf25  1  0.69375749  0.30108594  0.39182720  1
  Hf  Hf26  1  0.68853429  0.68785939  0.38051270  1
  Hf  Hf27  1  0.79978051  0.19694924  0.51781754  1
  Hf  Hf28  1  0.60807148  0.60864514  -0.00579124  1
  Hf  Hf29  1  0.39608184  0.40039135  0.50998778  1
  Hf  Hf30  1  0.49611315  0.50065480  0.87145648  1
  Hf  Hf31  1  0.29766051  0.69849393  0.64206418  1
  Hf  Hf32  1  0.60332138  0.20799624  0.25765349  1
  Hf  Hf33  1  0.80647235  0.80061073  0.27176118  1
  Hf  Hf34  1  0.50584681  0.50550963  0.38358901  1
  Hf  Hf35  1  0.20499239  -0.00845301  0.74744659  1
  Hf  Hf36  1  0.00570652  -0.00826395  -0.01609598  1
  Hf  Hf37  1  0.90908457  0.90929739  0.13292939  1
  Hf  Hf38  1  0.20264156  0.79502446  0.49155456  1
  Hf  Hf39  1  0.10737666  0.87940259  0.12699345  1
  Zr  Zr40  1  0.49394518  0.71624055  0.85465113  1
  Zr  Zr41  1  0.08151957  0.48930107  0.61199685  1
  Zr  Zr42  1  0.30257546  0.09402211  0.88054122  1
  Zr  Zr43  1  -0.01376546  0.80164098  0.75281760  1
  Zr  Zr44  1  0.30055886  0.91588196  0.37257159  1
  Zr  Zr45  1  0.60496220  0.37723368  0.72987618  1
  Zr  Zr46  1  -0.01054721  0.39324600  0.75310705  1
  Zr  Zr47  1  0.39297600  0.21158533  0.25524311  1
  Zr  Zr48  1  0.49224120  0.50613260  0.11478104  1
  Zr  Zr49  1  0.80254580  0.59291180  0.25162759  1
  Zr  Zr50  1  0.00834576  0.61821110  0.01069622  1
  Zr  Zr51  1  0.00878231  0.00443608  0.76000373  1
  Zr  Zr52  1  0.29600954  0.29853868  0.86864650  1
  Zr  Zr53  1  0.80308491  0.00343801  -0.00207834  1
  Zr  Zr54  1  0.60820825  0.20603453  -0.00675211  1
  Zr  Zr55  1  0.70561820  0.71467722  0.86512349  1
  Zr  Zr56  1  0.00824214  0.79839123  0.27585587  1
  Zr  Zr57  1  0.28831751  0.70062647  0.13111782  1
  Zr  Zr58  1  0.81014354  -0.00701604  0.51640027  1
  Zr  Zr59  1  0.59751644  0.79662801  0.25162489  1
  Zr  Zr60  1  -0.00054304  0.20029184  0.25073649  1
  Zr  Zr61  1  0.09316052  0.69234309  0.86285432  1
  Zr  Zr62  1  -0.00550109  0.40169971  0.00604486  1
  Zr  Zr63  1  0.10218040  0.07999726  0.12433497  1
  Zr  Zr64  1  0.89539149  0.51915118  0.88682807  1
  Zr  Zr65  1  0.70298086  0.89470921  0.13204649  1
  Zr  Zr66  1  0.60510228  0.59549213  0.74445664  1
  Zr  Zr67  1  0.20295881  0.38862794  0.26494739  1
  Zr  Zr68  1  0.39514511  0.61855902  -0.00305368  1
  Zr  Zr69  1  0.59266674  0.80819932  0.50371171  1
  Zr  Zr70  1  0.10332071  0.29610793  0.12591149  1
  Zr  Zr71  1  0.80025454  0.00111586  0.72734227  1
  Zr  Zr72  1  0.60165548  0.59363976  0.24141447  1
  Zr  Zr73  1  0.39565954  0.60756014  0.25400458  1
  Zr  Zr74  1  0.49811908  0.10182929  0.38086066  1
  Zr  Zr75  1  0.49995954  0.10069471  0.13135888  1
  Zr  Zr76  1  0.09009789  0.28870033  0.88101552  1
  Zr  Zr77  1  0.79305195  0.39983725  0.25262142  1
  Zr  Zr78  1  0.91231636  0.70629818  0.13259254  1
  Zr  Zr79  1  0.19650181  0.78660991  -0.00594153  1
  Ta  Ta80  1  0.30437102  0.90648718  0.11691129  1
  Ta  Ta81  1  0.08744680  0.90641298  0.61634579  1
  Ta  Ta82  1  0.38528121  0.40831505  -0.00733015  1
  Ta  Ta83  1  0.70714430  0.10214752  0.13746307  1
  Ta  Ta84  1  0.20073901  0.18311282  0.25657918  1
  Ta  Ta85  1  0.91969064  0.30966656  0.61037629  1
  Ta  Ta86  1  0.51814909  0.90538615  0.86995088  1
  Ta  Ta87  1  0.29738099  0.50123421  0.85729166  1
  Ta  Ta88  1  0.30470471  0.09953062  0.62510004  1
  Ta  Ta89  1  0.89955670  0.11383412  0.86282113  1
  Ta  Ta90  1  0.49223285  0.90655690  0.12809620  1
  Ta  Ta91  1  0.50636117  0.10590325  0.62801767  1
  Ta  Ta92  1  0.69642555  0.49193577  0.39246093  1
  Ta  Ta93  1  0.59577980  0.40225686  0.25426530  1
  Ta  Ta94  1  0.79868037  0.19842704  0.25795029  1
  Ta  Ta95  1  0.49302750  0.71701994  0.64122910  1
  Ta  Ta96  1  0.90309605  0.70552085  0.61754519  1
  Ta  Ta97  1  0.29427429  0.28889798  0.62742045  1
  Ta  Ta98  1  0.19851818  0.18999411  0.50214120  1
  Ta  Ta99  1  0.29834251  0.49958468  0.38054819  1
  Ta  Ta100  1  0.59281344  0.60250405  0.51577834  1
  Ta  Ta101  1  0.40493996  -0.00011686  0.51185822  1
  Ta  Ta102  1  0.50011875  0.90915940  0.37238327  1
  Ta  Ta103  1  0.87577265  0.30849613  0.87237081  1
  Ta  Ta104  1  0.60418190  0.00252483  0.25492342  1
  Ta  Ta105  1  0.59527308  0.39974667  0.51986567  1
  Ta  Ta106  1  0.69805921  0.48386247  0.10468913  1
  Ta  Ta107  1  0.39810102  0.40689493  0.25606188  1
  Ta  Ta108  1  0.79977490  0.40467701  0.72917316  1
  Ta  Ta109  1  0.50824388  0.09866557  0.86241172  1
  Ta  Ta110  1  0.87975346  0.89849166  0.86900686  1
  Ta  Ta111  1  0.39440097  0.81323704  0.25235471  1
  Ta  Ta112  1  0.28960082  0.50417058  0.63114437  1
  Ta  Ta113  1  0.70406836  0.09785299  0.38220842  1
  Ta  Ta114  1  0.20022641  0.00009009  0.50713985  1
  Ta  Ta115  1  0.88692840  0.30312382  0.12933830  1
  Ta  Ta116  1  0.39794205  0.80633957  0.49937718  1
  Ta  Ta117  1  0.18588347  0.18999236  0.74162594  1
  Ta  Ta118  1  0.80717960  0.00633379  0.26139791  1
  Ta  Ta119  1  0.93978737  0.10559295  0.61778054  1
  Ti  Ti120  1  0.29741917  0.30996494  0.12001099  1
  Ti  Ti121  1  0.10841048  0.09780575  0.88130134  1
  Ti  Ti122  1  0.18896724  0.80731991  0.75126470  1
  Ti  Ti123  1  0.29994070  0.89221860  0.62283996  1
  Ti  Ti124  1  0.48865242  0.70904931  0.37577763  1
  Ti  Ti125  1  0.39530006  0.20268284  0.50267093  1
  Ti  Ti126  1  0.70577584  0.69028210  0.12177523  1
  Ti  Ti127  1  0.59630341  0.80672384  0.00101029  1
  Ti  Ti128  1  -0.00323818  0.80448842  -0.01776336  1
  Ti  Ti129  1  0.20069766  0.59251563  0.49352939  1
  Ti  Ti130  1  0.89764583  0.50425421  0.37885576  1
  Ti  Ti131  1  0.49248741  0.30899707  0.38354431  1
  Ti  Ti132  1  0.10567016  0.68555224  0.37894970  1
  Ti  Ti133  1  0.69334382  0.70787408  0.62806810  1
  Ti  Ti134  1  0.80531522  0.40615189  0.51495475  1
  Ti  Ti135  1  0.70031225  0.50239602  0.61918950  1
  Ti  Ti136  1  0.40581241  0.20008603  0.74712896  1
  Ti  Ti137  1  0.89824190  0.10190356  0.13551065  1
  Ti  Ti138  1  0.01740992  -0.00439041  0.26915450  1
  Ti  Ti139  1  0.49057106  0.51216170  0.62936976  1
  Ti  Ti140  1  0.79099690  0.80973000  0.73510903  1
  Ti  Ti141  1  0.59388819  0.20209447  0.51068740  1
  Ti  Ti142  1  0.20101473  0.79914381  0.26540074  1
  Ti  Ti143  1  0.60508316  0.00435476  0.50994907  1
  Ti  Ti144  1  -0.00761826  0.40509391  0.24826866  1
  Ti  Ti145  1  0.69750941  0.29974314  0.12683257  1
  Ti  Ti146  1  0.20124024  0.59704580  0.26209017  1
  Ti  Ti147  1  0.29830748  0.10572676  0.37861253  1
  Ti  Ti148  1  0.70045632  0.09625499  0.85833339  1
  Ti  Ti149  1  0.00292407  0.60006005  0.25851636  1
  Ti  Ti150  1  -0.00450625  0.59914362  0.49335779  1
  Ti  Ti151  1  0.49804664  0.71532767  0.12234541  1
  Ti  Ti152  1  0.09080045  0.48991010  0.37839375  1
  Ti  Ti153  1  0.69694565  0.91089874  0.37662062  1
  Ti  Ti154  1  0.19949900  0.20062806  0.00332363  1
  Ti  Ti155  1  0.21156010  0.57753226  0.00481089  1
  Ti  Ti156  1  -0.00227487  0.59431450  0.74220589  1
  Ti  Ti157  1  0.09982748  0.28225017  0.37767612  1
  Ti  Ti158  1  0.89012883  0.50203719  0.11661555  1
  Ti  Ti159  1  0.51359723  0.30062516  0.87242457  1
  Mo  Mo160  1  0.11276683  0.09568310  0.62585059  1
  Mo  Mo161  1  0.69099263  0.10176456  0.62137981  1
  Mo  Mo162  1  0.10749446  0.69348113  0.14444380  1
  Mo  Mo163  1  0.39902623  0.59313311  0.74151565  1
  Mo  Mo164  1  0.30040785  0.48660283  0.12801549  1
  Mo  Mo165  1  0.80005230  0.59801825  0.00784274  1
  Mo  Mo166  1  0.29895799  0.69969999  0.37263190  1
  Mo  Mo167  1  0.48912197  0.28990875  0.61824879  1
  Mo  Mo168  1  0.20817498  0.39730178  0.00063438  1
  Mo  Mo169  1  0.30356796  0.29530132  0.38206960  1
  Mo  Mo170  1  0.20179322  -0.00336399  -0.00574664  1
  Mo  Mo171  1  -0.00030638  0.40408123  0.48689263  1
  Mo  Mo172  1  -0.00373286  0.20003307  0.75332899  1
  Mo  Mo173  1  0.89364413  0.70784219  0.86918030  1
  Mo  Mo174  1  0.40110247  0.00084858  0.25091957  1
  Mo  Mo175  1  0.60063974  0.82171919  0.73471249  1
  Mo  Mo176  1  0.69280759  0.89719180  0.62125022  1
  Mo  Mo177  1  0.10636583  0.90280282  0.87807604  1
  Mo  Mo178  1  0.89404323  0.90954659  0.37149455  1
  Mo  Mo179  1  0.09143195  0.27868531  0.61955759  1
  Mo  Mo180  1  0.49437232  0.90564821  0.61831242  1
  Mo  Mo181  1  0.59070500  0.39375850  -0.00795784  1
  Mo  Mo182  1  0.90551754  0.89580532  0.62267886  1
  Mo  Mo183  1  0.70105363  0.30162019  0.60903189  1
  Mo  Mo184  1  0.41511563  0.80986251  0.00644299  1
  Mo  Mo185  1  0.20947997  -0.00902417  0.24834329  1
  Mo  Mo186  1  0.60695778  0.00283504  0.74205604  1
  Mo  Mo187  1  0.59739859  0.19209908  0.74710646  1
  Mo  Mo188  1  0.10485451  0.91081292  0.38137983  1
  Mo  Mo189  1  0.70378088  0.28636037  0.86372409  1
  Mo  Mo190  1  0.01445115  0.00147687  0.49355269  1
  Mo  Mo191  1  0.18798273  0.59053667  0.74304117  1
  Mo  Mo192  1  0.41172219  -0.00721034  -0.00458354  1
  Mo  Mo193  1  0.11795395  0.09234382  0.37215472  1
  Mo  Mo194  1  0.01590986  0.20404846  0.49577470  1
  Mo  Mo195  1  0.90332633  0.68735753  0.38181946  1
  Mo  Mo196  1  0.89907510  0.50647390  0.61931137  1
  Mo  Mo197  1  0.39350407  0.80834902  0.74500919  1
  Mo  Mo198  1  0.69664769  0.90760787  0.87103543  1
  Mo  Mo199  1  0.79491855  0.38955714  0.00716639  1
