# generated using pymatgen
data_HfZrTaTiMo
_symmetry_space_group_name_H-M   'P 1'
_cell_length_a   15.19856311
_cell_length_b   15.19806277
_cell_length_c   16.87403756
_cell_angle_alpha   90.00653695
_cell_angle_beta   89.92357290
_cell_angle_gamma   89.98345172
_symmetry_Int_Tables_number   1
_chemical_formula_structural   HfZrTaTiMo
_chemical_formula_sum   'Hf40 Zr40 Ta40 Ti40 Mo40'
_cell_volume   3897.70861879
_cell_formula_units_Z   40
loop_
 _symmetry_equiv_pos_site_id
 _symmetry_equiv_pos_as_xyz
  1  'x, y, z'
loop_
 _atom_site_type_symbol
 _atom_site_label
 _atom_site_symmetry_multiplicity
 _atom_site_fract_x
 _atom_site_fract_y
 _atom_site_fract_z
 _atom_site_occupancy
  Hf  Hf0  1  0.50205621  0.11345229  0.11854067  1
  Hf  Hf1  1  0.80880435  0.60980690  0.74124817  1
  Hf  Hf2  1  0.78545050  0.17925469  0.25940351  1
  Hf  Hf3  1  0.57397562  -0.00475589  0.76142290  1
  Hf  Hf4  1  0.00721709  0.39162571  0.74913464  1
  Hf  Hf5  1  0.39960183  0.01049866  0.48980381  1
  Hf  Hf6  1  0.61336665  0.18752652  0.75440985  1
  Hf  Hf7  1  0.81164524  0.59773350  0.01219746  1
  Hf  Hf8  1  0.30652200  0.29012005  0.88574205  1
  Hf  Hf9  1  0.90670137  0.48155136  0.36178599  1
  Hf  Hf10  1  -0.00096741  0.79394851  0.51352933  1
  Hf  Hf11  1  0.52113725  0.70303066  0.61710055  1
  Hf  Hf12  1  0.10187900  0.50167637  0.13677264  1
  Hf  Hf13  1  0.01336252  0.59798557  0.74353935  1
  Hf  Hf14  1  0.40488134  0.40638436  0.00450291  1
  Hf  Hf15  1  0.80419645  0.39178100  0.73361194  1
  Hf  Hf16  1  0.39945079  0.61648140  0.01112130  1
  Hf  Hf17  1  0.12045195  0.48660494  0.61634504  1
  Hf  Hf18  1  0.69486073  0.28811438  0.13626454  1
  Hf  Hf19  1  0.00533552  0.17498665  0.23929044  1
  Hf  Hf20  1  0.89509520  0.90673267  0.62577551  1
  Hf  Hf21  1  0.91904231  0.28802241  0.61338637  1
  Hf  Hf22  1  0.50759002  0.50753629  0.88468185  1
  Hf  Hf23  1  0.19269440  0.03433131  0.74013868  1
  Hf  Hf24  1  0.39550874  0.01041172  0.24920232  1
  Hf  Hf25  1  0.39838588  0.19496295  0.75132937  1
  Hf  Hf26  1  0.50065283  0.90003388  0.35941677  1
  Hf  Hf27  1  0.78067041  0.02339829  0.75260458  1
  Hf  Hf28  1  0.29823986  0.12578192  0.61417991  1
  Hf  Hf29  1  0.40873249  0.60509691  0.49480947  1
  Hf  Hf30  1  0.59670778  0.39521341  0.74140753  1
  Hf  Hf31  1  -0.00680925  0.78511931  0.74768951  1
  Hf  Hf32  1  0.78790719  0.00765634  0.50049614  1
  Hf  Hf33  1  0.90437040  0.29241826  0.87615480  1
  Hf  Hf34  1  0.49481989  0.29271863  0.38440954  1
  Hf  Hf35  1  0.59452386  0.79115965  0.76467688  1
  Hf  Hf36  1  0.67670802  0.89879493  0.62466141  1
  Hf  Hf37  1  -0.00563775  0.40624400  0.01000552  1
  Hf  Hf38  1  0.28908502  0.89784485  0.36980892  1
  Hf  Hf39  1  0.89610594  0.29924318  0.14235855  1
  Zr  Zr40  1  0.69207391  0.51327006  0.62231906  1
  Zr  Zr41  1  0.40217859  0.41073725  0.75410741  1
  Zr  Zr42  1  0.29182925  0.12115179  0.37960540  1
  Zr  Zr43  1  0.71265240  0.29183762  0.87539634  1
  Zr  Zr44  1  0.10549046  0.29293494  0.12419248  1
  Zr  Zr45  1  0.10240429  0.29758957  0.35527387  1
  Zr  Zr46  1  0.39868236  0.20874786  0.25154522  1
  Zr  Zr47  1  -0.01192625  0.01105174  0.75416636  1
  Zr  Zr48  1  0.17921407  0.01202849  0.50856849  1
  Zr  Zr49  1  0.30544899  0.29422734  0.11594095  1
  Zr  Zr50  1  0.78704345  0.78859653  0.51091390  1
  Zr  Zr51  1  0.60093224  0.79043479  0.01200603  1
  Zr  Zr52  1  0.28141357  0.90609609  0.13517407  1
  Zr  Zr53  1  0.29840975  0.90991022  0.62991376  1
  Zr  Zr54  1  0.79549565  0.60543662  0.26252115  1
  Zr  Zr55  1  0.37960274  0.40582172  0.49533603  1
  Zr  Zr56  1  0.51337386  0.50095444  0.36496596  1
  Zr  Zr57  1  0.70065108  0.49904792  0.87710879  1
  Zr  Zr58  1  0.80138816  0.59670656  0.48723333  1
  Zr  Zr59  1  0.10003113  0.50752505  0.88350599  1
  Zr  Zr60  1  0.69649236  0.30170517  0.37486908  1
  Zr  Zr61  1  0.19873486  0.79449853  0.74757831  1
  Zr  Zr62  1  0.50027247  0.70644434  0.36146389  1
  Zr  Zr63  1  0.10733397  0.08113799  0.10756972  1
  Zr  Zr64  1  0.81000871  0.39721518  0.49949152  1
  Zr  Zr65  1  0.20425469  0.39926176  0.76493631  1
  Zr  Zr66  1  0.70041309  0.89172527  0.36797684  1
  Zr  Zr67  1  0.47703600  0.88800186  0.89524501  1
  Zr  Zr68  1  0.79070314  0.79927258  0.74522418  1
  Zr  Zr69  1  0.10237253  0.89858660  0.87112064  1
  Zr  Zr70  1  -0.01681292  -0.01218850  -0.00679363  1
  Zr  Zr71  1  0.89638998  0.50402330  0.87658378  1
  Zr  Zr72  1  0.37407280  0.00700303  0.01096450  1
  Zr  Zr73  1  0.90507932  0.08865538  0.38159950  1
  Zr  Zr74  1  0.70722805  0.27046926  0.60661160  1
  Zr  Zr75  1  0.88550203  0.89486261  0.87385768  1
  Zr  Zr76  1  0.21919630  0.80551871  -0.00974505  1
  Zr  Zr77  1  0.49473474  0.28874869  0.60782136  1
  Zr  Zr78  1  0.00325242  0.61892281  0.26325187  1
  Zr  Zr79  1  0.20778527  0.59805558  0.48878157  1
  Ta  Ta80  1  0.70933416  0.90989040  0.12302263  1
  Ta  Ta81  1  0.18145138  0.00934235  0.25526547  1
  Ta  Ta82  1  0.19814040  0.22945973  0.49517194  1
  Ta  Ta83  1  0.10373204  0.70098305  0.12581671  1
  Ta  Ta84  1  0.60006210  0.41338883  0.50106607  1
  Ta  Ta85  1  0.71079732  0.70053942  0.12515286  1
  Ta  Ta86  1  0.21767256  0.60088986  0.74859622  1
  Ta  Ta87  1  0.20691894  0.60633364  0.25798288  1
  Ta  Ta88  1  0.61274386  0.19557331  -0.00410557  1
  Ta  Ta89  1  0.00427618  0.76939506  -0.01473588  1
  Ta  Ta90  1  0.28986859  0.32034624  0.62629947  1
  Ta  Ta91  1  0.68999029  0.90268935  0.88638677  1
  Ta  Ta92  1  0.18064811  0.80138337  0.25271388  1
  Ta  Ta93  1  0.39302105  0.79679257  0.23627073  1
  Ta  Ta94  1  0.48539147  0.10302301  0.88748474  1
  Ta  Ta95  1  0.50305567  0.90300883  0.13189683  1
  Ta  Ta96  1  0.70867854  0.69674928  0.88983244  1
  Ta  Ta97  1  0.40936004  0.61391800  0.75261221  1
  Ta  Ta98  1  0.20347625  0.40726545  -0.00076401  1
  Ta  Ta99  1  0.40041178  0.80510404  0.49709022  1
  Ta  Ta100  1  0.59664940  0.00190635  0.00241894  1
  Ta  Ta101  1  0.59190799  -0.00511741  0.49341731  1
  Ta  Ta102  1  0.89939658  0.49748709  0.14637640  1
  Ta  Ta103  1  0.40567517  0.40773441  0.24335925  1
  Ta  Ta104  1  0.31210390  0.69915011  0.62373511  1
  Ta  Ta105  1  0.60930301  0.01839643  0.24644587  1
  Ta  Ta106  1  0.08987991  0.90559143  0.38028713  1
  Ta  Ta107  1  0.48796870  0.89968505  0.62174056  1
  Ta  Ta108  1  0.10442711  0.10616038  0.88805758  1
  Ta  Ta109  1  0.60357750  0.59762376  0.23528452  1
  Ta  Ta110  1  0.10354402  0.29234558  0.89307716  1
  Ta  Ta111  1  0.60733069  0.40155652  0.00814205  1
  Ta  Ta112  1  0.08667729  0.88292806  0.11599159  1
  Ta  Ta113  1  0.90621374  0.88571074  0.38113708  1
  Ta  Ta114  1  0.20319611  0.80117848  0.50450089  1
  Ta  Ta115  1  -0.01450107  0.19227091  0.00516624  1
  Ta  Ta116  1  0.50956892  0.29862537  0.88447736  1
  Ta  Ta117  1  0.09807680  0.71462532  0.38142981  1
  Ta  Ta118  1  0.40365969  0.80559066  0.74949856  1
  Ta  Ta119  1  0.19310717  0.60847079  0.00092373  1
  Ti  Ti120  1  0.70437131  0.48918558  0.13612767  1
  Ti  Ti121  1  0.49154009  0.50505867  0.62318955  1
  Ti  Ti122  1  0.10798588  0.69177364  0.61692786  1
  Ti  Ti123  1  0.50318961  0.69976195  0.13261914  1
  Ti  Ti124  1  0.02091302  0.38932780  0.49370076  1
  Ti  Ti125  1  0.21236046  0.39527757  0.24668050  1
  Ti  Ti126  1  0.50780399  0.30703930  0.12450797  1
  Ti  Ti127  1  0.09352358  0.90769792  0.62863349  1
  Ti  Ti128  1  0.80270956  -0.01177188  0.25281370  1
  Ti  Ti129  1  0.80655824  0.80228631  0.00073447  1
  Ti  Ti130  1  0.87928519  0.08721529  0.12371495  1
  Ti  Ti131  1  -0.00562324  -0.02114757  0.24318505  1
  Ti  Ti132  1  0.10713110  0.49590565  0.36629251  1
  Ti  Ti133  1  0.00912778  0.19373271  0.75649101  1
  Ti  Ti134  1  0.29764768  0.50511472  0.12635995  1
  Ti  Ti135  1  0.09288762  0.10024015  0.38030039  1
  Ti  Ti136  1  0.30156067  0.49793779  0.36197518  1
  Ti  Ti137  1  0.81343336  0.79685943  0.25038144  1
  Ti  Ti138  1  0.89661644  0.89051981  0.12116762  1
  Ti  Ti139  1  0.60508950  0.60354209  0.75376826  1
  Ti  Ti140  1  0.79969538  0.39034005  0.01020819  1
  Ti  Ti141  1  0.78750319  0.02247912  -0.00993000  1
  Ti  Ti142  1  0.68487800  0.69312882  0.37627415  1
  Ti  Ti143  1  0.29773292  0.92753572  0.85603506  1
  Ti  Ti144  1  0.30041630  0.70570969  0.36793394  1
  Ti  Ti145  1  0.29157860  0.70052902  0.13188560  1
  Ti  Ti146  1  0.90710406  0.28812103  0.37047572  1
  Ti  Ti147  1  0.39792862  0.60073408  0.24159685  1
  Ti  Ti148  1  0.21846918  0.18190452  0.00021433  1
  Ti  Ti149  1  0.91207425  0.70377897  0.12679873  1
  Ti  Ti150  1  0.10975742  0.28531893  0.62694742  1
  Ti  Ti151  1  0.30494111  0.51531828  0.88349879  1
  Ti  Ti152  1  0.89422975  0.10761449  0.61094634  1
  Ti  Ti153  1  0.91498791  0.50284109  0.61446572  1
  Ti  Ti154  1  0.50515853  0.69531338  0.88863043  1
  Ti  Ti155  1  0.50639355  0.09456435  0.61892055  1
  Ti  Ti156  1  0.61257587  0.80132728  0.23551177  1
  Ti  Ti157  1  0.50817763  0.50146597  0.12655933  1
  Ti  Ti158  1  0.00205228  0.59680310  0.48973190  1
  Ti  Ti159  1  0.31075632  0.70914266  0.87427079  1
  Mo  Mo160  1  0.59873800  0.17908915  0.49396847  1
  Mo  Mo161  1  0.69896386  0.70010774  0.62406482  1
  Mo  Mo162  1  0.69144517  0.09747539  0.88176875  1
  Mo  Mo163  1  0.19218855  -0.00362760  -0.00903299  1
  Mo  Mo164  1  0.00949942  0.19490222  0.49594178  1
  Mo  Mo165  1  0.29321823  0.10476036  0.13354983  1
  Mo  Mo166  1  0.00280091  0.59818608  0.01487189  1
  Mo  Mo167  1  0.89888299  0.69283495  0.88013550  1
  Mo  Mo168  1  0.30705869  0.51209534  0.62965887  1
  Mo  Mo169  1  0.41252233  0.20180489  -0.00101819  1
  Mo  Mo170  1  -0.00327879  -0.00515418  0.50606317  1
  Mo  Mo171  1  0.80411842  0.19593519  0.48389730  1
  Mo  Mo172  1  0.29575440  0.10240315  0.87070178  1
  Mo  Mo173  1  -0.00484276  0.80815967  0.24975199  1
  Mo  Mo174  1  0.69300054  0.49712615  0.36730077  1
  Mo  Mo175  1  0.80412176  0.19879050  0.00886310  1
  Mo  Mo176  1  0.82025167  0.19375593  0.74548285  1
  Mo  Mo177  1  0.69210187  0.09360152  0.61867836  1
  Mo  Mo178  1  0.50858503  0.10218035  0.37455468  1
  Mo  Mo179  1  0.60785345  0.59387139  0.02574763  1
  Mo  Mo180  1  0.70031317  0.09227921  0.12255697  1
  Mo  Mo181  1  0.11311028  0.68923166  0.87301786  1
  Mo  Mo182  1  0.91081213  0.68629719  0.61871070  1
  Mo  Mo183  1  0.59127050  0.19836045  0.25228357  1
  Mo  Mo184  1  0.59719573  0.39920406  0.24255307  1
  Mo  Mo185  1  0.89481271  0.11231459  0.87719265  1
  Mo  Mo186  1  0.00119328  0.39809880  0.24857723  1
  Mo  Mo187  1  0.29605204  0.31600198  0.36379749  1
  Mo  Mo188  1  0.39962723  0.00612204  0.74605314  1
  Mo  Mo189  1  0.18991726  0.21227892  0.75609671  1
  Mo  Mo190  1  0.20094417  0.18931508  0.24359939  1
  Mo  Mo191  1  0.40475095  0.79602743  0.03051062  1
  Mo  Mo192  1  0.08107214  0.11803803  0.61846973  1
  Mo  Mo193  1  0.90056930  0.70755940  0.37992936  1
  Mo  Mo194  1  0.68846164  0.09629187  0.37719050  1
  Mo  Mo195  1  0.60390754  0.60164729  0.49288072  1
  Mo  Mo196  1  0.58781339  0.80168270  0.49359337  1
  Mo  Mo197  1  0.79817755  0.39646780  0.25557204  1
  Mo  Mo198  1  0.39587854  0.20459496  0.50013903  1
  Mo  Mo199  1  0.19505886  0.40580971  0.49209070  1
