# generated using pymatgen
data_HfZrTaTiMo
_symmetry_space_group_name_H-M   'P 1'
_cell_length_a   15.20423139
_cell_length_b   15.19690397
_cell_length_c   16.87480220
_cell_angle_alpha   89.97979200
_cell_angle_beta   89.99173486
_cell_angle_gamma   90.00491215
_symmetry_Int_Tables_number   1
_chemical_formula_structural   HfZrTaTiMo
_chemical_formula_sum   'Hf40 Zr40 Ta40 Ti40 Mo40'
_cell_volume   3899.04499847
_cell_formula_units_Z   40
loop_
 _symmetry_equiv_pos_site_id
 _symmetry_equiv_pos_as_xyz
  1  'x, y, z'
loop_
 _atom_site_type_symbol
 _atom_site_label
 _atom_site_symmetry_multiplicity
 _atom_site_fract_x
 _atom_site_fract_y
 _atom_site_fract_z
 _atom_site_occupancy
  Hf  Hf0  1  -0.00066387  0.80507555  0.75209102  1
  Hf  Hf1  1  0.50715636  0.91153102  0.63065645  1
  Hf  Hf2  1  0.58044864  0.59707570  0.00721790  1
  Hf  Hf3  1  0.50314523  0.90392985  0.37204305  1
  Hf  Hf4  1  0.29150919  0.30961791  0.61085643  1
  Hf  Hf5  1  0.39666390  0.40519258  0.74452888  1
  Hf  Hf6  1  0.68484052  0.09597662  0.63487457  1
  Hf  Hf7  1  0.12545561  0.91095398  0.86553673  1
  Hf  Hf8  1  0.90528440  0.89839827  0.88331138  1
  Hf  Hf9  1  0.70470830  0.89852219  0.62491383  1
  Hf  Hf10  1  0.67606863  0.08624789  0.12121155  1
  Hf  Hf11  1  0.58719627  0.19502804  -0.00166791  1
  Hf  Hf12  1  0.18745116  0.40510032  0.26584303  1
  Hf  Hf13  1  0.88882902  0.88676818  0.11592489  1
  Hf  Hf14  1  0.78016886  -0.01139473  -0.00654897  1
  Hf  Hf15  1  0.59485881  0.40934418  0.26052288  1
  Hf  Hf16  1  0.89339725  0.47210063  0.12463667  1
  Hf  Hf17  1  0.78422612  0.21546729  -0.01109932  1
  Hf  Hf18  1  0.29333445  0.50642081  0.40212166  1
  Hf  Hf19  1  0.70054482  0.29229222  0.62232425  1
  Hf  Hf20  1  0.01143652  0.80033531  0.00250016  1
  Hf  Hf21  1  0.39275005  0.40365734  0.25788630  1
  Hf  Hf22  1  0.70592665  0.09912390  0.37524544  1
  Hf  Hf23  1  0.11634039  0.69378920  0.12000887  1
  Hf  Hf24  1  0.29242344  0.89567285  0.64285727  1
  Hf  Hf25  1  0.10213493  0.69204630  0.63061983  1
  Hf  Hf26  1  0.81189824  0.81227356  0.49385770  1
  Hf  Hf27  1  0.39310040  0.20137992  0.25882776  1
  Hf  Hf28  1  -0.02459466  0.00584233  0.50242071  1
  Hf  Hf29  1  0.01079102  0.79228550  0.23871951  1
  Hf  Hf30  1  -0.01827586  0.59437760  0.75812250  1
  Hf  Hf31  1  0.09528187  0.28782246  0.87326010  1
  Hf  Hf32  1  0.19900511  0.57784774  0.75048995  1
  Hf  Hf33  1  0.20274885  0.60095859  0.25476214  1
  Hf  Hf34  1  -0.00479546  0.21123034  0.00824096  1
  Hf  Hf35  1  0.91635771  0.70486695  0.36922479  1
  Hf  Hf36  1  0.59249609  0.19858220  0.24490223  1
  Hf  Hf37  1  0.30453866  0.50873975  0.60477108  1
  Hf  Hf38  1  0.40408563  -0.00798830  0.00068846  1
  Hf  Hf39  1  0.69604627  0.71471126  0.12960624  1
  Zr  Zr40  1  0.70304387  0.69475026  0.61391592  1
  Zr  Zr41  1  0.09101068  0.89112517  0.36947590  1
  Zr  Zr42  1  0.29809381  0.50452109  0.11763498  1
  Zr  Zr43  1  0.80075603  -0.00333008  0.76022808  1
  Zr  Zr44  1  0.38368769  0.20416163  -0.00292448  1
  Zr  Zr45  1  0.88695998  0.10125358  0.11306956  1
  Zr  Zr46  1  0.09157744  0.31184270  0.12996856  1
  Zr  Zr47  1  0.40278084  0.80174371  0.50231619  1
  Zr  Zr48  1  0.10562550  0.69733460  0.87210354  1
  Zr  Zr49  1  0.80765768  0.40937724  0.73892832  1
  Zr  Zr50  1  0.40885741  0.59713167  0.26087291  1
  Zr  Zr51  1  -0.00418887  0.58327043  -0.00461295  1
  Zr  Zr52  1  0.60051556  0.39473253  0.75071340  1
  Zr  Zr53  1  0.29224888  0.10154397  0.62845636  1
  Zr  Zr54  1  0.50118209  0.31333794  0.12345866  1
  Zr  Zr55  1  0.22945414  0.80421802  -0.00030178  1
  Zr  Zr56  1  0.68979430  0.50022435  0.13047241  1
  Zr  Zr57  1  0.20219451  0.79701465  0.50174909  1
  Zr  Zr58  1  0.50288632  0.69944832  0.87179483  1
  Zr  Zr59  1  0.30864180  0.50909201  0.88001307  1
  Zr  Zr60  1  0.40281047  0.00147327  0.75665966  1
  Zr  Zr61  1  0.41592871  0.41450100  0.00059661  1
  Zr  Zr62  1  0.87500250  0.69371423  0.88481266  1
  Zr  Zr63  1  0.80618520  0.60257336  0.48154402  1
  Zr  Zr64  1  0.90644867  0.50547573  0.61066350  1
  Zr  Zr65  1  0.90484247  0.10922671  0.87799100  1
  Zr  Zr66  1  0.19551286  0.18872101  0.48092930  1
  Zr  Zr67  1  -0.00785950  0.00176095  0.23924061  1
  Zr  Zr68  1  0.50553596  0.69761618  0.62284245  1
  Zr  Zr69  1  0.19118964  -0.00446709  0.49043811  1
  Zr  Zr70  1  0.89439403  0.28466304  0.38143863  1
  Zr  Zr71  1  0.20171698  0.01035624  0.26329738  1
  Zr  Zr72  1  0.01901359  0.40116581  0.73739957  1
  Zr  Zr73  1  0.60297045  0.61859868  0.27102486  1
  Zr  Zr74  1  0.70234952  0.90293076  0.37232279  1
  Zr  Zr75  1  0.29544277  0.09998029  0.12821945  1
  Zr  Zr76  1  -0.00194960  0.20439277  0.24483789  1
  Zr  Zr77  1  0.39746349  0.20765187  0.74844030  1
  Zr  Zr78  1  0.41376186  0.19432312  0.49811500  1
  Zr  Zr79  1  0.89777032  0.68164236  0.12999184  1
  Ta  Ta80  1  0.39474499  0.00189571  0.49909019  1
  Ta  Ta81  1  -0.01255774  0.20678496  0.74119205  1
  Ta  Ta82  1  0.49400646  0.09602760  0.87717299  1
  Ta  Ta83  1  0.69373258  0.49941986  0.60814100  1
  Ta  Ta84  1  0.30282802  0.69963243  0.64191784  1
  Ta  Ta85  1  0.41808879  0.79686035  0.24647661  1
  Ta  Ta86  1  0.21652642  0.79852251  0.24669895  1
  Ta  Ta87  1  0.50461286  0.49750263  0.60672818  1
  Ta  Ta88  1  0.10075188  0.48160307  0.88069926  1
  Ta  Ta89  1  0.30643763  0.71800243  0.85204563  1
  Ta  Ta90  1  0.09638283  0.29326662  0.61057583  1
  Ta  Ta91  1  0.89480881  0.32411733  0.87600614  1
  Ta  Ta92  1  0.01644148  0.00505339  0.00347521  1
  Ta  Ta93  1  0.28796887  0.30638184  0.87004147  1
  Ta  Ta94  1  0.41370209  0.59749169  0.74395346  1
  Ta  Ta95  1  0.52644696  0.90468623  0.12828963  1
  Ta  Ta96  1  0.28692621  0.30151977  0.13068415  1
  Ta  Ta97  1  0.79548052  0.20072179  0.24431554  1
  Ta  Ta98  1  0.30847804  0.90178401  0.36404947  1
  Ta  Ta99  1  0.70461555  0.48498675  0.38225332  1
  Ta  Ta100  1  0.19801635  0.39291592  0.00020245  1
  Ta  Ta101  1  0.71187656  0.30661634  0.12761274  1
  Ta  Ta102  1  0.00344390  0.80211603  0.50781162  1
  Ta  Ta103  1  0.27908044  0.09515803  0.86907862  1
  Ta  Ta104  1  0.80556822  0.18111504  0.50660916  1
  Ta  Ta105  1  0.11689252  0.90624155  0.12441962  1
  Ta  Ta106  1  0.80937539  0.57918240  0.26832196  1
  Ta  Ta107  1  0.60442284  0.80021942  0.75351782  1
  Ta  Ta108  1  0.61638105  0.59596466  0.74895269  1
  Ta  Ta109  1  0.20457499  0.00323802  0.00119696  1
  Ta  Ta110  1  0.71540476  0.50610626  0.87522463  1
  Ta  Ta111  1  0.79697907  0.78284078  0.74991239  1
  Ta  Ta112  1  0.90207184  0.70662949  0.62313433  1
  Ta  Ta113  1  0.41594160  0.00364821  0.24358136  1
  Ta  Ta114  1  -0.01779174  0.40841637  0.26659975  1
  Ta  Ta115  1  0.80017738  0.38871582  0.50312587  1
  Ta  Ta116  1  0.08803086  0.10070769  0.62464887  1
  Ta  Ta117  1  0.19890834  0.20582741  0.27121314  1
  Ta  Ta118  1  0.59594784  0.60081534  0.47743272  1
  Ta  Ta119  1  0.59403680  0.01208110  0.50211342  1
  Ti  Ti120  1  0.78543692  0.59559860  0.00387749  1
  Ti  Ti121  1  0.60530327  0.79690021  0.48896483  1
  Ti  Ti122  1  0.68425019  0.09367278  0.87044786  1
  Ti  Ti123  1  0.11521205  0.69347781  0.37825124  1
  Ti  Ti124  1  0.50566380  0.29305162  0.61658603  1
  Ti  Ti125  1  0.00888353  0.58658224  0.25874208  1
  Ti  Ti126  1  0.79391844  0.79163620  0.25905442  1
  Ti  Ti127  1  0.09325483  0.30723450  0.38740872  1
  Ti  Ti128  1  0.50236905  0.89729372  0.87103543  1
  Ti  Ti129  1  0.01210225  0.60285268  0.49253205  1
  Ti  Ti130  1  0.50533879  0.10094619  0.37572224  1
  Ti  Ti131  1  0.61484117  0.80906604  -0.00193102  1
  Ti  Ti132  1  0.42081188  0.79534706  0.00699704  1
  Ti  Ti133  1  0.50301591  0.30459478  0.38342419  1
  Ti  Ti134  1  0.10617402  0.10494017  0.12912278  1
  Ti  Ti135  1  0.11509263  0.49032426  0.60120613  1
  Ti  Ti136  1  0.79217924  0.20968207  0.76155434  1
  Ti  Ti137  1  0.69650856  0.29073634  0.38104212  1
  Ti  Ti138  1  0.18522795  0.20079431  0.74688539  1
  Ti  Ti139  1  0.32161691  0.69725674  0.12434942  1
  Ti  Ti140  1  0.49963469  0.30043509  0.87576067  1
  Ti  Ti141  1  0.00859074  0.01302092  0.75347132  1
  Ti  Ti142  1  0.31053340  0.70723034  0.37688929  1
  Ti  Ti143  1  0.90161686  0.90399534  0.63237549  1
  Ti  Ti144  1  0.20673859  0.60113887  -0.00860926  1
  Ti  Ti145  1  0.62267522  0.39288238  -0.01415359  1
  Ti  Ti146  1  0.09754241  0.49908347  0.12036293  1
  Ti  Ti147  1  0.19168114  0.19532716  -0.00179258  1
  Ti  Ti148  1  0.69792928  0.88493221  0.86999069  1
  Ti  Ti149  1  0.31225304  0.89750127  0.13436659  1
  Ti  Ti150  1  0.51051591  0.50026156  0.87031196  1
  Ti  Ti151  1  0.06789436  0.10700841  0.37732808  1
  Ti  Ti152  1  0.78974594  -0.00268163  0.23968621  1
  Ti  Ti153  1  0.09679804  0.90460801  0.63461443  1
  Ti  Ti154  1  0.89114926  0.10368276  0.63531684  1
  Ti  Ti155  1  -0.00391712  0.39578448  0.49869102  1
  Ti  Ti156  1  0.89739980  0.91341571  0.36676942  1
  Ti  Ti157  1  0.59058930  0.19189662  0.75729301  1
  Ti  Ti158  1  0.30237644  0.30394829  0.38948609  1
  Ti  Ti159  1  0.59917949  0.39181905  0.49603116  1
  Mo  Mo160  1  0.09728199  0.10205252  0.87541928  1
  Mo  Mo161  1  0.49085654  0.52045252  0.13156184  1
  Mo  Mo162  1  0.50125096  0.70914875  0.12364334  1
  Mo  Mo163  1  0.79188866  0.59950723  0.74252779  1
  Mo  Mo164  1  0.19969815  0.61338597  0.50212105  1
  Mo  Mo165  1  0.40897909  0.79760553  0.74747266  1
  Mo  Mo166  1  0.09085085  0.50346309  0.38804760  1
  Mo  Mo167  1  0.40905585  0.39683893  0.49987823  1
  Mo  Mo168  1  0.59780336  0.00566105  0.25287172  1
  Mo  Mo169  1  0.60240639  0.80943692  0.25244280  1
  Mo  Mo170  1  0.50552876  0.10375009  0.62363833  1
  Mo  Mo171  1  0.69136521  0.69732289  0.87742357  1
  Mo  Mo172  1  0.79697132  0.40587511  -0.00599510  1
  Mo  Mo173  1  0.70357161  0.89661219  0.13186993  1
  Mo  Mo174  1  0.69412049  0.29862164  0.86555076  1
  Mo  Mo175  1  0.31491041  0.09325546  0.37217251  1
  Mo  Mo176  1  0.79638666  0.00173473  0.50981556  1
  Mo  Mo177  1  0.31344725  0.90168364  0.86796383  1
  Mo  Mo178  1  0.19114159  0.00981139  0.74581329  1
  Mo  Mo179  1  0.20439589  0.38980013  0.74623686  1
  Mo  Mo180  1  0.60065494  -0.00150887  0.76507402  1
  Mo  Mo181  1  0.49744075  0.49354413  0.39678240  1
  Mo  Mo182  1  0.49218606  0.09664696  0.12313266  1
  Mo  Mo183  1  0.59246445  -0.00973850  -0.01423399  1
  Mo  Mo184  1  0.88765191  0.29921356  0.12902797  1
  Mo  Mo185  1  0.90053607  0.49827601  0.87660262  1
  Mo  Mo186  1  0.88816047  0.09083147  0.36850654  1
  Mo  Mo187  1  0.40579301  0.60912645  0.49709639  1
  Mo  Mo188  1  0.19950923  0.79840620  0.74506292  1
  Mo  Mo189  1  0.79392013  0.79155107  -0.00283078  1
  Mo  Mo190  1  0.49838798  0.70976799  0.38325469  1
  Mo  Mo191  1  0.60693704  0.20177237  0.49628394  1
  Mo  Mo192  1  0.79220259  0.39157234  0.26289054  1
  Mo  Mo193  1  -0.00770280  0.19894892  0.51024841  1
  Mo  Mo194  1  0.38994202  0.62166395  -0.00255505  1
  Mo  Mo195  1  0.00070304  0.39838115  -0.00256617  1
  Mo  Mo196  1  0.90512050  0.49282435  0.38482136  1
  Mo  Mo197  1  0.90214773  0.29010176  0.61775907  1
  Mo  Mo198  1  0.70835079  0.70228015  0.37310764  1
  Mo  Mo199  1  0.19016311  0.39792587  0.48963021  1
