# generated using pymatgen
data_HfZrTaTiMo
_symmetry_space_group_name_H-M   'P 1'
_cell_length_a   15.22981106
_cell_length_b   15.20862911
_cell_length_c   16.84311704
_cell_angle_alpha   89.98623146
_cell_angle_beta   89.96322014
_cell_angle_gamma   89.98985290
_symmetry_Int_Tables_number   1
_chemical_formula_structural   HfZrTaTiMo
_chemical_formula_sum   'Hf40 Zr40 Ta40 Ti40 Mo40'
_cell_volume   3901.27839089
_cell_formula_units_Z   40
loop_
 _symmetry_equiv_pos_site_id
 _symmetry_equiv_pos_as_xyz
  1  'x, y, z'
loop_
 _atom_site_type_symbol
 _atom_site_label
 _atom_site_symmetry_multiplicity
 _atom_site_fract_x
 _atom_site_fract_y
 _atom_site_fract_z
 _atom_site_occupancy
  Hf  Hf0  1  0.90947577  0.11567537  0.38383133  1
  Hf  Hf1  1  0.70719895  0.90932735  0.12719430  1
  Hf  Hf2  1  0.09472852  0.70435592  0.61882732  1
  Hf  Hf3  1  0.60782756  0.20102428  0.23936463  1
  Hf  Hf4  1  0.09676042  0.30819756  0.13493973  1
  Hf  Hf5  1  0.80210269  0.18842394  -0.01251169  1
  Hf  Hf6  1  0.90014621  0.67544811  0.87824565  1
  Hf  Hf7  1  0.49671313  0.28481393  0.87129163  1
  Hf  Hf8  1  0.78331391  0.39882417  0.24355964  1
  Hf  Hf9  1  0.49729126  0.09709207  0.64028023  1
  Hf  Hf10  1  0.40401249  0.80429639  -0.01570114  1
  Hf  Hf11  1  -0.01713237  0.39474696  0.26068653  1
  Hf  Hf12  1  0.40974398  -0.00067988  0.24963787  1
  Hf  Hf13  1  0.48644619  0.50593573  0.12281264  1
  Hf  Hf14  1  0.27426708  0.51105151  0.13384396  1
  Hf  Hf15  1  0.59303486  0.39556946  0.00482453  1
  Hf  Hf16  1  0.89355262  0.71262110  0.38659314  1
  Hf  Hf17  1  0.38491301  0.38571206  0.01547157  1
  Hf  Hf18  1  0.41049181  0.17677196  0.01730253  1
  Hf  Hf19  1  0.22112867  0.22424152  0.73334032  1
  Hf  Hf20  1  0.49163031  0.70190770  0.38363721  1
  Hf  Hf21  1  0.21705383  0.20557519  0.01597126  1
  Hf  Hf22  1  0.70402691  0.89835186  0.38153494  1
  Hf  Hf23  1  0.48351113  0.49617954  0.88238532  1
  Hf  Hf24  1  0.47436472  0.48833740  0.62529633  1
  Hf  Hf25  1  0.09827111  0.91187728  0.87431676  1
  Hf  Hf26  1  0.19623046  0.58875709  0.50006733  1
  Hf  Hf27  1  0.69183885  0.70283074  0.36659967  1
  Hf  Hf28  1  0.88451584  0.71256985  0.61070457  1
  Hf  Hf29  1  0.00161953  0.59590821  0.26798266  1
  Hf  Hf30  1  0.09470347  0.92004994  0.62688972  1
  Hf  Hf31  1  0.60304455  0.79492577  0.74920519  1
  Hf  Hf32  1  0.80743412  0.22019706  0.51840309  1
  Hf  Hf33  1  0.80795460  0.19945944  0.25667044  1
  Hf  Hf34  1  0.38927584  0.39037527  0.24340323  1
  Hf  Hf35  1  0.11770448  0.10173587  0.37396789  1
  Hf  Hf36  1  0.90785758  0.29866639  0.87065561  1
  Hf  Hf37  1  0.20791817  0.80556919  0.74810611  1
  Hf  Hf38  1  0.19141548  0.38932025  0.48416266  1
  Hf  Hf39  1  0.88559622  0.49387755  0.61059673  1
  Zr  Zr40  1  -0.01348159  0.41792221  0.00238409  1
  Zr  Zr41  1  0.18929049  0.41456762  0.00507785  1
  Zr  Zr42  1  0.89374628  0.29131733  0.12027518  1
  Zr  Zr43  1  0.60381885  0.80699980  -0.00635965  1
  Zr  Zr44  1  0.77039654  0.60646054  0.50631343  1
  Zr  Zr45  1  0.20366571  0.02170956  0.75014505  1
  Zr  Zr46  1  0.11187462  0.30661572  0.87555153  1
  Zr  Zr47  1  0.10577887  0.08727791  0.12041207  1
  Zr  Zr48  1  0.80706539  0.60339321  0.24385449  1
  Zr  Zr49  1  0.81105045  -0.00793023  0.75706830  1
  Zr  Zr50  1  0.02470865  0.20251592  0.51881624  1
  Zr  Zr51  1  0.70005690  0.51253882  0.88362745  1
  Zr  Zr52  1  0.59280719  0.40387940  0.74843419  1
  Zr  Zr53  1  -0.01755092  0.59690377  0.73702970  1
  Zr  Zr54  1  0.80954420  0.19970174  0.74157954  1
  Zr  Zr55  1  0.57605090  0.59416587  0.51352221  1
  Zr  Zr56  1  0.50405095  0.28453321  0.37476191  1
  Zr  Zr57  1  0.39580717  0.59177731  0.75104971  1
  Zr  Zr58  1  0.87365512  0.49178813  0.38959882  1
  Zr  Zr59  1  0.79955301  0.79116340  0.76099315  1
  Zr  Zr60  1  0.59509954  0.60209370  0.24100961  1
  Zr  Zr61  1  0.29814186  0.71165179  0.39071055  1
  Zr  Zr62  1  -0.00140315  -0.00812163  0.25571021  1
  Zr  Zr63  1  0.60554627  0.00258779  0.25677121  1
  Zr  Zr64  1  0.59177503  0.00819960  -0.00763091  1
  Zr  Zr65  1  0.79826256  0.40567614  0.74659711  1
  Zr  Zr66  1  0.21585398  0.20378948  0.24136184  1
  Zr  Zr67  1  0.50732368  0.90567119  0.63017677  1
  Zr  Zr68  1  0.20631124  -0.01121305  0.25176736  1
  Zr  Zr69  1  0.71183795  0.71330069  0.12143510  1
  Zr  Zr70  1  0.90257828  0.08509301  0.12313206  1
  Zr  Zr71  1  -0.00751417  0.81301931  0.75575819  1
  Zr  Zr72  1  0.70101660  0.50214420  0.11368900  1
  Zr  Zr73  1  -0.01057408  0.39039311  0.49583702  1
  Zr  Zr74  1  0.02165268  0.18573419  0.73716602  1
  Zr  Zr75  1  0.69613900  0.09352129  0.62213475  1
  Zr  Zr76  1  0.30359372  0.88049387  0.12676399  1
  Zr  Zr77  1  0.90672842  0.88296905  0.11749552  1
  Zr  Zr78  1  0.31224177  0.69338471  0.61610463  1
  Zr  Zr79  1  0.39100306  0.62692761  0.23985138  1
  Ta  Ta80  1  0.48602654  0.08438722  0.85772072  1
  Ta  Ta81  1  0.58089783  0.61421590  0.00854423  1
  Ta  Ta82  1  0.09899913  0.70707749  0.39174388  1
  Ta  Ta83  1  0.37979121  0.60710777  0.00239693  1
  Ta  Ta84  1  0.91627526  0.08593701  0.61989276  1
  Ta  Ta85  1  0.11691387  0.10594877  0.88704330  1
  Ta  Ta86  1  0.39312041  0.39627027  0.49016285  1
  Ta  Ta87  1  -0.00006830  0.81200433  0.49868528  1
  Ta  Ta88  1  0.00855851  0.19660017  -0.00284885  1
  Ta  Ta89  1  0.29812943  0.50429812  0.36682124  1
  Ta  Ta90  1  0.40377487  0.80116562  0.75418963  1
  Ta  Ta91  1  0.29714346  0.69566656  0.86865175  1
  Ta  Ta92  1  0.08227372  0.50939344  0.86478646  1
  Ta  Ta93  1  0.30660491  0.91197495  0.62328185  1
  Ta  Ta94  1  0.18775701  0.62143365  0.25825306  1
  Ta  Ta95  1  0.02011346  0.79083803  0.25498555  1
  Ta  Ta96  1  0.60700051  0.79553861  0.51025450  1
  Ta  Ta97  1  0.92241215  0.08392573  0.87671654  1
  Ta  Ta98  1  0.69278456  0.11414609  0.39397626  1
  Ta  Ta99  1  0.01409698  0.78249375  -0.00832019  1
  Ta  Ta100  1  0.30761572  0.90347440  0.38438619  1
  Ta  Ta101  1  0.71073781  0.89497766  0.61835911  1
  Ta  Ta102  1  0.59260338  0.39455464  0.24181035  1
  Ta  Ta103  1  0.59879283  0.38729484  0.51175276  1
  Ta  Ta104  1  0.41112664  0.19037504  0.22683011  1
  Ta  Ta105  1  0.19245743  0.59606492  0.74326533  1
  Ta  Ta106  1  0.20501940  0.80179466  -0.01566325  1
  Ta  Ta107  1  0.49055053  0.49413972  0.37284497  1
  Ta  Ta108  1  0.70894338  0.10278950  0.12006657  1
  Ta  Ta109  1  0.79456647  0.39333101  -0.00376543  1
  Ta  Ta110  1  0.60450467  0.20230205  0.00816407  1
  Ta  Ta111  1  0.28186162  0.49635715  0.87225603  1
  Ta  Ta112  1  0.70591606  0.30768445  0.38401524  1
  Ta  Ta113  1  0.80606484  0.00255941  0.49770312  1
  Ta  Ta114  1  0.28315705  0.47335385  0.62866980  1
  Ta  Ta115  1  0.21158676  0.00862768  0.50014669  1
  Ta  Ta116  1  0.00537793  0.39138190  0.73611394  1
  Ta  Ta117  1  0.69848705  0.29777472  0.87609326  1
  Ta  Ta118  1  0.18256525  0.61628581  -0.00449357  1
  Ta  Ta119  1  0.49939312  0.69370421  0.87243662  1
  Ti  Ti120  1  0.82100550  0.58994736  0.01018428  1
  Ti  Ti121  1  0.00608236  -0.00990333  0.00090442  1
  Ti  Ti122  1  0.69491536  0.10216133  0.86718995  1
  Ti  Ti123  1  0.60523508  0.19939222  0.75011249  1
  Ti  Ti124  1  0.57672336  0.80086744  0.24319318  1
  Ti  Ti125  1  0.67729219  0.49522195  0.37675020  1
  Ti  Ti126  1  0.30760424  0.29692834  0.87453490  1
  Ti  Ti127  1  0.18370595  0.41576100  0.26441870  1
  Ti  Ti128  1  0.22157480  0.20476592  0.50764207  1
  Ti  Ti129  1  0.10269985  0.69854122  0.86176430  1
  Ti  Ti130  1  0.08703274  0.28916295  0.36234721  1
  Ti  Ti131  1  0.89959519  0.90469867  0.61730027  1
  Ti  Ti132  1  0.31286650  0.10541518  0.61970177  1
  Ti  Ti133  1  0.10688011  0.87970141  0.12001094  1
  Ti  Ti134  1  0.19982846  0.81332076  0.51069211  1
  Ti  Ti135  1  0.22607725  0.00286350  -0.00166526  1
  Ti  Ti136  1  0.77883929  0.60029447  0.73835800  1
  Ti  Ti137  1  0.81521672  0.80820996  0.24990349  1
  Ti  Ti138  1  0.69656310  0.90399910  0.87155588  1
  Ti  Ti139  1  0.41668992  0.19217962  0.49993179  1
  Ti  Ti140  1  0.49891626  0.90028054  0.12218249  1
  Ti  Ti141  1  0.31456953  0.92054667  0.86921121  1
  Ti  Ti142  1  0.30165843  0.29339993  0.36976804  1
  Ti  Ti143  1  0.79948509  0.00449848  0.26287433  1
  Ti  Ti144  1  0.01014946  0.00215915  0.49323045  1
  Ti  Ti145  1  0.59356380  0.60473447  0.73405811  1
  Ti  Ti146  1  -0.00160264  0.59727422  0.49357479  1
  Ti  Ti147  1  0.80225067  -0.00898365  -0.01397706  1
  Ti  Ti148  1  0.11007499  0.89436323  0.38072914  1
  Ti  Ti149  1  0.07905687  0.52145510  0.12996802  1
  Ti  Ti150  1  0.81047956  0.79576009  -0.01097712  1
  Ti  Ti151  1  0.92741973  0.68757113  0.12148977  1
  Ti  Ti152  1  0.69454591  0.69561208  0.88329316  1
  Ti  Ti153  1  0.40859444  0.80761954  0.51097234  1
  Ti  Ti154  1  0.49239669  0.29076753  0.63089370  1
  Ti  Ti155  1  0.09380114  0.49386736  0.62387133  1
  Ti  Ti156  1  0.59081461  0.00641513  0.49444558  1
  Ti  Ti157  1  0.32500308  0.10143967  0.37997858  1
  Ti  Ti158  1  0.90553585  0.90322751  0.37927055  1
  Ti  Ti159  1  0.49770477  0.90132705  0.38372968  1
  Mo  Mo160  1  0.00108712  0.00648290  0.75242959  1
  Mo  Mo161  1  0.90073085  0.50236279  0.12843694  1
  Mo  Mo162  1  0.19707251  0.40999637  0.75204752  1
  Mo  Mo163  1  0.90272249  0.89384401  0.89392881  1
  Mo  Mo164  1  0.89136682  0.29492441  0.37658775  1
  Mo  Mo165  1  0.50212904  0.89749251  0.85858178  1
  Mo  Mo166  1  0.79769567  0.81343566  0.49768241  1
  Mo  Mo167  1  0.38198368  0.38212271  0.75454810  1
  Mo  Mo168  1  0.90594511  0.29852195  0.63639456  1
  Mo  Mo169  1  0.60791167  -0.00125321  0.76089859  1
  Mo  Mo170  1  0.77941981  0.40023791  0.51235976  1
  Mo  Mo171  1  0.38825016  0.58230439  0.49514260  1
  Mo  Mo172  1  0.68909232  0.70577216  0.62675644  1
  Mo  Mo173  1  0.48616117  0.71619189  0.11779567  1
  Mo  Mo174  1  0.40249640  0.19860523  0.75011047  1
  Mo  Mo175  1  0.00699247  0.19955945  0.25449615  1
  Mo  Mo176  1  0.49298362  0.70357646  0.62230481  1
  Mo  Mo177  1  0.11994910  0.09942830  0.61358911  1
  Mo  Mo178  1  0.09934132  0.50376815  0.37391900  1
  Mo  Mo179  1  0.68926276  0.30156043  0.62853822  1
  Mo  Mo180  1  0.20285623  0.79714696  0.26051159  1
  Mo  Mo181  1  0.28823092  0.70592755  0.11686485  1
  Mo  Mo182  1  0.70065135  0.29458619  0.11644728  1
  Mo  Mo183  1  0.40097602  0.00120354  0.49783348  1
  Mo  Mo184  1  0.39267529  -0.00553447  0.74785260  1
  Mo  Mo185  1  0.30919482  0.08655099  0.12667819  1
  Mo  Mo186  1  0.89409184  0.49404573  0.87014891  1
  Mo  Mo187  1  0.10967468  0.70622086  0.12564870  1
  Mo  Mo188  1  0.68451566  0.49721109  0.63027020  1
  Mo  Mo189  1  0.29762195  0.30451023  0.13438290  1
  Mo  Mo190  1  0.51544357  0.08739807  0.12221591  1
  Mo  Mo191  1  0.00681130  0.60135312  -0.00322343  1
  Mo  Mo192  1  0.32078474  0.30261644  0.61248748  1
  Mo  Mo193  1  0.50373016  0.09702439  0.37842188  1
  Mo  Mo194  1  0.50499172  0.29867670  0.12800454  1
  Mo  Mo195  1  0.60040865  0.20163724  0.50881685  1
  Mo  Mo196  1  0.12171584  0.31593704  0.62259989  1
  Mo  Mo197  1  0.30469711  0.11051255  0.87639925  1
  Mo  Mo198  1  0.39944855  -0.00669746  -0.00157462  1
  Mo  Mo199  1  0.40461884  0.81008502  0.25694981  1
