# generated using pymatgen
data_HfZrTaTiMo
_symmetry_space_group_name_H-M   'P 1'
_cell_length_a   15.21601942
_cell_length_b   15.21329331
_cell_length_c   16.86917234
_cell_angle_alpha   89.95451295
_cell_angle_beta   89.95151776
_cell_angle_gamma   89.90922085
_symmetry_Int_Tables_number   1
_chemical_formula_structural   HfZrTaTiMo
_chemical_formula_sum   'Hf40 Zr40 Ta40 Ti40 Mo40'
_cell_volume   3904.96576128
_cell_formula_units_Z   40
loop_
 _symmetry_equiv_pos_site_id
 _symmetry_equiv_pos_as_xyz
  1  'x, y, z'
loop_
 _atom_site_type_symbol
 _atom_site_label
 _atom_site_symmetry_multiplicity
 _atom_site_fract_x
 _atom_site_fract_y
 _atom_site_fract_z
 _atom_site_occupancy
  Hf  Hf0  1  0.81243163  0.81233094  0.76291348  1
  Hf  Hf1  1  0.39012420  0.59462787  0.75925509  1
  Hf  Hf2  1  0.41858474  0.79715272  0.24823062  1
  Hf  Hf3  1  0.90546602  0.30635235  0.37816790  1
  Hf  Hf4  1  0.60712018  0.78904653  0.01150283  1
  Hf  Hf5  1  -0.01085314  -0.01186947  0.74064428  1
  Hf  Hf6  1  0.88251780  0.70549927  0.12627764  1
  Hf  Hf7  1  0.20373690  0.79957067  0.26169717  1
  Hf  Hf8  1  0.00724080  0.39966138  0.23858732  1
  Hf  Hf9  1  0.10832239  0.51023900  0.11567024  1
  Hf  Hf10  1  0.20189458  0.59476396  0.25494955  1
  Hf  Hf11  1  0.19894071  0.77776095  0.75646404  1
  Hf  Hf12  1  0.30045518  0.91230125  0.61941999  1
  Hf  Hf13  1  0.00678773  0.39799100  0.00575476  1
  Hf  Hf14  1  0.61285811  0.79720962  0.75407308  1
  Hf  Hf15  1  0.20069572  0.59617628  0.48936008  1
  Hf  Hf16  1  0.51383394  0.70542693  0.37513134  1
  Hf  Hf17  1  0.47792055  0.10548557  0.86376280  1
  Hf  Hf18  1  0.90104659  0.51034803  0.11977695  1
  Hf  Hf19  1  0.09703282  0.08683947  0.86754342  1
  Hf  Hf20  1  0.92235225  0.90177988  0.11173646  1
  Hf  Hf21  1  0.51161618  0.29902858  0.86587348  1
  Hf  Hf22  1  0.29517899  0.89046279  0.12604393  1
  Hf  Hf23  1  0.69354399  0.30062518  0.36985361  1
  Hf  Hf24  1  0.40236520  0.38024666  0.47640663  1
  Hf  Hf25  1  0.49197507  0.30341231  0.62458072  1
  Hf  Hf26  1  0.79356417  0.39836898  0.00664790  1
  Hf  Hf27  1  0.60195173  0.41323647  0.50430186  1
  Hf  Hf28  1  0.50625282  0.68168322  0.62595319  1
  Hf  Hf29  1  0.11210430  0.29931416  0.62848856  1
  Hf  Hf30  1  0.70037763  0.90992072  0.88634584  1
  Hf  Hf31  1  0.89483252  0.29781447  0.87686004  1
  Hf  Hf32  1  0.20610835  0.38502899  0.25218962  1
  Hf  Hf33  1  0.39973485  0.80109483  0.75699508  1
  Hf  Hf34  1  0.68985327  0.29542894  0.13402523  1
  Hf  Hf35  1  0.40209411  -0.00479359  0.25319624  1
  Hf  Hf36  1  0.46908430  0.09550712  0.61750782  1
  Hf  Hf37  1  0.59565518  0.20389269  0.50639971  1
  Hf  Hf38  1  -0.00400145  0.40293200  0.74104126  1
  Hf  Hf39  1  0.09447546  0.71671372  0.12192110  1
  Zr  Zr40  1  0.11048600  0.51948552  0.63687908  1
  Zr  Zr41  1  0.70075049  0.30410722  0.87134761  1
  Zr  Zr42  1  0.68351323  0.11237809  0.88961226  1
  Zr  Zr43  1  0.31490759  0.48679517  0.61717184  1
  Zr  Zr44  1  0.21528992  0.18966465  -0.00525042  1
  Zr  Zr45  1  0.28953046  0.10505531  0.14331838  1
  Zr  Zr46  1  -0.01721288  0.79534443  0.48618064  1
  Zr  Zr47  1  0.49902576  0.09964419  0.38212193  1
  Zr  Zr48  1  0.10868010  0.30071511  0.86538418  1
  Zr  Zr49  1  0.19463345  0.79989799  0.49167331  1
  Zr  Zr50  1  0.50451640  0.89078958  0.61660143  1
  Zr  Zr51  1  0.68756221  0.51185622  0.87121904  1
  Zr  Zr52  1  0.89562930  0.10356661  0.12807410  1
  Zr  Zr53  1  0.80449726  0.40523580  0.24807651  1
  Zr  Zr54  1  0.77855382  0.01222593  0.74603418  1
  Zr  Zr55  1  0.00551515  0.19353674  0.00252325  1
  Zr  Zr56  1  0.29219296  0.69427544  0.61921543  1
  Zr  Zr57  1  0.49901526  0.90294681  0.87665979  1
  Zr  Zr58  1  0.30622967  0.69227145  0.11809688  1
  Zr  Zr59  1  -0.00216129  0.59802733  0.49786105  1
  Zr  Zr60  1  0.88895431  0.09687547  0.61362956  1
  Zr  Zr61  1  0.59508705  0.41685261  0.73134024  1
  Zr  Zr62  1  0.61321861  0.61020966  0.49372133  1
  Zr  Zr63  1  0.22432344  0.18364482  0.74976499  1
  Zr  Zr64  1  0.70213993  0.08568047  0.37383444  1
  Zr  Zr65  1  0.88533012  0.09735554  0.88387976  1
  Zr  Zr66  1  -0.00607034  0.19610897  0.73807053  1
  Zr  Zr67  1  -0.01617126  0.80559669  0.26503059  1
  Zr  Zr68  1  0.58753372  -0.00075718  0.02517730  1
  Zr  Zr69  1  0.00133837  -0.00143399  0.49772794  1
  Zr  Zr70  1  0.17692769  -0.01480263  0.00792061  1
  Zr  Zr71  1  0.39059687  0.00922370  0.00992651  1
  Zr  Zr72  1  0.31247475  0.49663358  0.12307455  1
  Zr  Zr73  1  0.69605567  0.52415745  0.12943289  1
  Zr  Zr74  1  0.80327416  0.41543805  0.50432221  1
  Zr  Zr75  1  0.89700872  0.50950033  0.87547557  1
  Zr  Zr76  1  0.60102460  -0.01512264  0.23710551  1
  Zr  Zr77  1  0.90085630  0.10177840  0.37735993  1
  Zr  Zr78  1  0.40672035  0.38707930  0.00276037  1
  Zr  Zr79  1  0.10557604  0.50616085  0.87441341  1
  Ta  Ta80  1  0.09490644  0.48994342  0.37364315  1
  Ta  Ta81  1  0.00665446  0.20882875  0.50840822  1
  Ta  Ta82  1  0.19682693  0.39250296  0.49173222  1
  Ta  Ta83  1  0.51348486  0.68830559  0.87665500  1
  Ta  Ta84  1  0.09444985  0.89139086  0.87155643  1
  Ta  Ta85  1  0.39161786  0.21003106  0.27578739  1
  Ta  Ta86  1  0.49686922  0.49731437  0.87401289  1
  Ta  Ta87  1  0.09786275  0.90515495  0.37518672  1
  Ta  Ta88  1  0.20665198  0.19568601  0.49222778  1
  Ta  Ta89  1  -0.00004294  0.79630100  0.74957078  1
  Ta  Ta90  1  0.60421686  0.19148908  0.73137165  1
  Ta  Ta91  1  0.40345244  0.39867194  0.26217140  1
  Ta  Ta92  1  0.59078818  0.40705650  0.24769189  1
  Ta  Ta93  1  0.31479417  0.28821408  0.13178384  1
  Ta  Ta94  1  0.19553906  -0.00206896  0.26202796  1
  Ta  Ta95  1  0.79523544  0.61883953  0.75691621  1
  Ta  Ta96  1  0.31663211  0.28417535  0.87516536  1
  Ta  Ta97  1  0.51341161  0.89929844  0.38990338  1
  Ta  Ta98  1  0.90168536  0.70173922  0.62860530  1
  Ta  Ta99  1  0.09563121  0.88588809  0.62414944  1
  Ta  Ta100  1  0.09489280  0.69110466  0.36761120  1
  Ta  Ta101  1  0.70154525  0.52962450  0.63145990  1
  Ta  Ta102  1  0.59076685  0.41323912  0.01378179  1
  Ta  Ta103  1  0.00366405  0.40135131  0.51152389  1
  Ta  Ta104  1  0.49381830  0.12859436  0.14233175  1
  Ta  Ta105  1  0.11302389  0.08802489  0.61977586  1
  Ta  Ta106  1  0.20656210  0.39028600  0.00279056  1
  Ta  Ta107  1  0.30699273  0.28029765  0.61507014  1
  Ta  Ta108  1  0.89612701  0.51302065  0.63156258  1
  Ta  Ta109  1  0.39304563  0.38979024  0.75342091  1
  Ta  Ta110  1  0.69845239  0.10471386  0.12972506  1
  Ta  Ta111  1  0.89642557  0.29383381  0.12349205  1
  Ta  Ta112  1  0.70870405  0.51663983  0.36338420  1
  Ta  Ta113  1  0.80144514  0.40667153  0.73679155  1
  Ta  Ta114  1  0.29479270  0.90369557  0.87509068  1
  Ta  Ta115  1  0.79791759  0.20293869  0.50627781  1
  Ta  Ta116  1  0.80262151  -0.02020953  0.24381080  1
  Ta  Ta117  1  0.31102661  0.69416747  0.37567300  1
  Ta  Ta118  1  0.71126457  0.72344589  0.62150134  1
  Ta  Ta119  1  0.09094763  0.08644002  0.13832648  1
  Ti  Ti120  1  -0.00894796  0.61718568  -0.00467710  1
  Ti  Ti121  1  0.41117709  0.59305070  0.25339627  1
  Ti  Ti122  1  0.78249257  0.61658453  -0.01146168  1
  Ti  Ti123  1  0.80686087  0.79845494  -0.00844365  1
  Ti  Ti124  1  0.79756840  0.20913313  0.73374598  1
  Ti  Ti125  1  0.00461831  0.20324405  0.24783658  1
  Ti  Ti126  1  0.50928212  0.68446770  0.12412008  1
  Ti  Ti127  1  0.88352931  0.89109722  0.61472939  1
  Ti  Ti128  1  0.20069340  -0.01404861  0.74726518  1
  Ti  Ti129  1  0.30116862  0.49168356  0.88173828  1
  Ti  Ti130  1  0.20258175  0.79281813  -0.01022242  1
  Ti  Ti131  1  0.40798311  0.58925027  0.49166716  1
  Ti  Ti132  1  0.70774370  0.30583917  0.62269645  1
  Ti  Ti133  1  0.80651967  0.61922351  0.49305883  1
  Ti  Ti134  1  0.70616686  0.88413075  0.38115446  1
  Ti  Ti135  1  0.09840891  0.29675876  0.37733489  1
  Ti  Ti136  1  0.40453515  0.79446220  0.49662286  1
  Ti  Ti137  1  0.40408849  0.79691314  -0.00262655  1
  Ti  Ti138  1  0.20772750  0.00350387  0.48862933  1
  Ti  Ti139  1  0.90451819  0.50877205  0.37079292  1
  Ti  Ti140  1  0.30049282  0.49657926  0.37350369  1
  Ti  Ti141  1  0.91265380  0.90141912  0.89279528  1
  Ti  Ti142  1  0.61223140  -0.00530640  0.51203381  1
  Ti  Ti143  1  0.31098118  0.89977832  0.38119124  1
  Ti  Ti144  1  0.21255385  0.40491679  0.75224866  1
  Ti  Ti145  1  0.58212044  0.21207001  0.01104641  1
  Ti  Ti146  1  -0.00136998  -0.00074155  0.26110720  1
  Ti  Ti147  1  0.41345270  0.59701667  -0.00586561  1
  Ti  Ti148  1  0.11158477  0.28615108  0.12554485  1
  Ti  Ti149  1  0.61652975  0.79993032  0.23284085  1
  Ti  Ti150  1  0.79780862  0.19488145  0.25304382  1
  Ti  Ti151  1  0.50923896  0.49899308  0.37007699  1
  Ti  Ti152  1  0.60717122  0.61134243  0.25310133  1
  Ti  Ti153  1  0.09500328  0.70046633  0.88158218  1
  Ti  Ti154  1  0.10373311  0.10713528  0.37145395  1
  Ti  Ti155  1  0.79638519  0.00246001  0.01226678  1
  Ti  Ti156  1  0.20881945  0.60229168  -0.01021535  1
  Ti  Ti157  1  -0.00406869  0.60178539  0.25225145  1
  Ti  Ti158  1  0.58838102  0.00075135  0.73700449  1
  Ti  Ti159  1  0.00228431  0.61433137  0.75444112  1
  Mo  Mo160  1  0.78961724  0.80754570  0.24600882  1
  Mo  Mo161  1  0.38905425  0.19050216  0.48113372  1
  Mo  Mo162  1  0.29131310  0.09204711  0.36856283  1
  Mo  Mo163  1  0.59098103  0.59789433  0.00042865  1
  Mo  Mo164  1  0.01234801  0.80233510  -0.00413923  1
  Mo  Mo165  1  0.29627443  0.08612880  0.87372641  1
  Mo  Mo166  1  0.10396887  0.90313577  0.14131422  1
  Mo  Mo167  1  0.78637986  0.19939036  0.01191454  1
  Mo  Mo168  1  0.28999564  0.29565780  0.37491445  1
  Mo  Mo169  1  0.90603898  0.70728973  0.87994096  1
  Mo  Mo170  1  0.71741300  0.89506278  0.11662951  1
  Mo  Mo171  1  0.70373641  0.90893497  0.62236745  1
  Mo  Mo172  1  0.70269045  0.70274417  0.12392207  1
  Mo  Mo173  1  0.20148213  0.59687373  0.76902662  1
  Mo  Mo174  1  0.29061190  0.09475280  0.61454175  1
  Mo  Mo175  1  0.18697657  0.19671807  0.25587301  1
  Mo  Mo176  1  0.80343441  0.61152380  0.25769185  1
  Mo  Mo177  1  0.88563320  0.90825491  0.37704403  1
  Mo  Mo178  1  0.70342436  0.70622043  0.87689782  1
  Mo  Mo179  1  0.79427812  -0.00684334  0.49973411  1
  Mo  Mo180  1  0.38118627  0.00130087  0.75145476  1
  Mo  Mo181  1  0.49447024  0.50112957  0.61868925  1
  Mo  Mo182  1  0.79227856  0.79987194  0.49824514  1
  Mo  Mo183  1  0.40297352  0.20016883  0.74454082  1
  Mo  Mo184  1  0.39652795  -0.01044451  0.48716779  1
  Mo  Mo185  1  0.59793879  0.20068292  0.25237301  1
  Mo  Mo186  1  0.50643558  0.30329633  0.36888934  1
  Mo  Mo187  1  0.49806351  0.50602731  0.13706249  1
  Mo  Mo188  1  0.49428185  0.88852350  0.12152385  1
  Mo  Mo189  1  0.30700142  0.69768657  0.89183396  1
  Mo  Mo190  1  0.60472682  0.80412885  0.50104576  1
  Mo  Mo191  1  0.88371792  0.69488410  0.36659987  1
  Mo  Mo192  1  0.00018983  -0.00182021  -0.00265836  1
  Mo  Mo193  1  0.49478259  0.30615831  0.13834917  1
  Mo  Mo194  1  0.09137044  0.70316083  0.62950322  1
  Mo  Mo195  1  0.70499030  0.70779572  0.36779893  1
  Mo  Mo196  1  0.40702144  0.19647708  0.00409284  1
  Mo  Mo197  1  0.59840064  0.61015503  0.74567697  1
  Mo  Mo198  1  0.89846935  0.30657281  0.61789728  1
  Mo  Mo199  1  0.68748328  0.10625408  0.61928181  1
