# generated using pymatgen
data_HfZrTaTiMo
_symmetry_space_group_name_H-M   'P 1'
_cell_length_a   15.22348990
_cell_length_b   15.21895346
_cell_length_c   16.79013260
_cell_angle_alpha   90.02481676
_cell_angle_beta   90.02102661
_cell_angle_gamma   90.00592632
_symmetry_Int_Tables_number   1
_chemical_formula_structural   HfZrTaTiMo
_chemical_formula_sum   'Hf40 Zr40 Ta40 Ti40 Mo40'
_cell_volume   3890.03103403
_cell_formula_units_Z   40
loop_
 _symmetry_equiv_pos_site_id
 _symmetry_equiv_pos_as_xyz
  1  'x, y, z'
loop_
 _atom_site_type_symbol
 _atom_site_label
 _atom_site_symmetry_multiplicity
 _atom_site_fract_x
 _atom_site_fract_y
 _atom_site_fract_z
 _atom_site_occupancy
  Hf  Hf0  1  0.39836933  0.60479179  0.51522228  1
  Hf  Hf1  1  0.41195674  0.00167185  0.51000339  1
  Hf  Hf2  1  0.00608565  0.79959028  0.26009673  1
  Hf  Hf3  1  0.19803234  -0.00151465  -0.01659762  1
  Hf  Hf4  1  -0.01838903  0.19054147  0.74937349  1
  Hf  Hf5  1  0.41034915  0.39593527  0.75011887  1
  Hf  Hf6  1  0.41049435  0.40927564  0.24772144  1
  Hf  Hf7  1  0.81304409  0.40088408  0.22972571  1
  Hf  Hf8  1  0.50194870  0.50960023  0.87325103  1
  Hf  Hf9  1  0.88767274  0.08284926  0.37648510  1
  Hf  Hf10  1  0.50133706  0.10907049  0.63938767  1
  Hf  Hf11  1  0.90258777  0.29163838  0.88919777  1
  Hf  Hf12  1  0.88564952  0.29132046  0.61787822  1
  Hf  Hf13  1  0.90975612  0.49584990  0.87514863  1
  Hf  Hf14  1  0.09494859  0.09357081  0.62651661  1
  Hf  Hf15  1  0.09645574  0.30716694  0.64287011  1
  Hf  Hf16  1  0.80919083  0.00824693  0.75916751  1
  Hf  Hf17  1  0.70008771  0.50430639  0.88628409  1
  Hf  Hf18  1  0.69575331  0.71444625  0.12911348  1
  Hf  Hf19  1  0.58738317  0.61751172  0.25624893  1
  Hf  Hf20  1  0.39643414  0.60650519  0.00517766  1
  Hf  Hf21  1  0.69629620  0.29316523  0.89573771  1
  Hf  Hf22  1  0.28071816  0.89848126  0.12957682  1
  Hf  Hf23  1  0.09408096  0.10471077  0.36524392  1
  Hf  Hf24  1  0.10126170  0.51435717  0.85570261  1
  Hf  Hf25  1  0.11432827  0.69987358  0.14056329  1
  Hf  Hf26  1  0.09760207  0.30590195  0.86289702  1
  Hf  Hf27  1  0.90740529  0.29330063  0.37535572  1
  Hf  Hf28  1  0.00536266  0.59285340  0.01349645  1
  Hf  Hf29  1  0.80192621  0.38389982  0.75210148  1
  Hf  Hf30  1  0.19390020  0.78351342  0.72978337  1
  Hf  Hf31  1  -0.00246617  0.78854665  0.00612123  1
  Hf  Hf32  1  0.80857342  0.59932493  0.75015589  1
  Hf  Hf33  1  -0.00013953  -0.01126523  0.00340332  1
  Hf  Hf34  1  0.01173190  0.19166555  0.01463114  1
  Hf  Hf35  1  0.11341212  0.08079703  0.13960997  1
  Hf  Hf36  1  0.41079230  0.18793109  0.25312384  1
  Hf  Hf37  1  0.39157796  0.39795866  0.50833675  1
  Hf  Hf38  1  0.29251373  0.08544898  0.37470849  1
  Hf  Hf39  1  0.40281056  0.00131513  -0.01088105  1
  Zr  Zr40  1  0.90386057  0.49979924  0.61337474  1
  Zr  Zr41  1  0.61895673  -0.00249558  0.50500934  1
  Zr  Zr42  1  0.71128713  0.31584192  0.37333902  1
  Zr  Zr43  1  0.30372886  0.70401703  0.86042135  1
  Zr  Zr44  1  0.29500835  0.30268002  0.13165610  1
  Zr  Zr45  1  0.19600528  0.40242343  -0.00484438  1
  Zr  Zr46  1  0.28998126  0.29779659  0.36559708  1
  Zr  Zr47  1  0.86880234  0.49559410  0.39617065  1
  Zr  Zr48  1  0.71227036  0.50431401  0.60790187  1
  Zr  Zr49  1  0.70651741  0.91217176  0.13309956  1
  Zr  Zr50  1  0.18818202  0.59617935  0.50711672  1
  Zr  Zr51  1  -0.02969786  0.59749870  0.24848164  1
  Zr  Zr52  1  0.19674976  0.20179140  0.50642124  1
  Zr  Zr53  1  0.68684234  0.50781935  0.11731687  1
  Zr  Zr54  1  0.60932337  0.40291506  0.74428220  1
  Zr  Zr55  1  0.39503119  0.40372175  -0.00527954  1
  Zr  Zr56  1  0.20181212  -0.01572466  0.74901473  1
  Zr  Zr57  1  0.79332604  0.18324258  0.22677126  1
  Zr  Zr58  1  0.60058533  0.81096591  -0.01064864  1
  Zr  Zr59  1  -0.01317053  0.19683763  0.23012321  1
  Zr  Zr60  1  0.79157776  -0.00644707  -0.01195105  1
  Zr  Zr61  1  0.08934211  0.49146998  0.36195589  1
  Zr  Zr62  1  0.39900810  0.79727406  0.00583636  1
  Zr  Zr63  1  0.39843492  -0.01154165  0.25618707  1
  Zr  Zr64  1  0.59193735  0.19552283  0.49235605  1
  Zr  Zr65  1  0.60230287  0.40923882  0.50004761  1
  Zr  Zr66  1  0.00045276  0.79333837  0.48924031  1
  Zr  Zr67  1  0.49505178  0.30785308  0.37891647  1
  Zr  Zr68  1  0.60034337  0.21384494  0.25099658  1
  Zr  Zr69  1  0.19576660  0.79661849  -0.00746491  1
  Zr  Zr70  1  0.30711498  0.10266648  0.12243627  1
  Zr  Zr71  1  0.11484354  0.90621299  0.38188533  1
  Zr  Zr72  1  0.48558847  0.89899584  0.85425009  1
  Zr  Zr73  1  0.50736604  0.30019216  0.11030304  1
  Zr  Zr74  1  0.29000651  0.49206816  0.64280888  1
  Zr  Zr75  1  0.38423601  0.61043250  0.24492051  1
  Zr  Zr76  1  0.10656478  0.49135132  0.15024068  1
  Zr  Zr77  1  0.51132327  0.91220048  0.12235337  1
  Zr  Zr78  1  0.49249685  0.71605233  0.38745742  1
  Zr  Zr79  1  0.80792579  0.40605361  0.01423344  1
  Ta  Ta80  1  0.89714938  0.90041335  0.62711292  1
  Ta  Ta81  1  0.80851327  0.61492554  0.00368645  1
  Ta  Ta82  1  0.60293461  0.00809384  0.75575887  1
  Ta  Ta83  1  0.00487730  0.39409221  0.02180702  1
  Ta  Ta84  1  0.20901408  0.79374609  0.51652145  1
  Ta  Ta85  1  0.89921968  0.88791355  0.12794904  1
  Ta  Ta86  1  0.09150906  0.50313811  0.64551493  1
  Ta  Ta87  1  0.70879306  0.11277603  0.63565387  1
  Ta  Ta88  1  0.79536114  0.82069620  0.49819344  1
  Ta  Ta89  1  0.39572943  0.80941092  0.72292656  1
  Ta  Ta90  1  -0.00117431  0.79339461  0.74431823  1
  Ta  Ta91  1  0.70489842  0.70253496  0.86990878  1
  Ta  Ta92  1  0.69765950  0.89508903  0.85909759  1
  Ta  Ta93  1  0.31717841  0.88246061  0.38875012  1
  Ta  Ta94  1  0.22223643  0.79395381  0.25999834  1
  Ta  Ta95  1  0.09885917  0.30035182  0.35720809  1
  Ta  Ta96  1  0.40692609  0.80759366  0.52664488  1
  Ta  Ta97  1  0.30834783  0.09886607  0.86609967  1
  Ta  Ta98  1  0.60538645  0.80687728  0.51424806  1
  Ta  Ta99  1  0.20347949  0.60176789  -0.00254928  1
  Ta  Ta100  1  0.19302055  0.39681219  0.50308869  1
  Ta  Ta101  1  -0.01537037  -0.01010619  0.24555354  1
  Ta  Ta102  1  0.09673606  0.09960722  0.86903137  1
  Ta  Ta103  1  0.29696438  0.50184947  0.85758183  1
  Ta  Ta104  1  0.08776368  0.89383077  0.61651403  1
  Ta  Ta105  1  0.29420425  0.50160278  0.37566189  1
  Ta  Ta106  1  0.59755492  0.01364604  0.25932917  1
  Ta  Ta107  1  -0.00266967  0.19790364  0.50101531  1
  Ta  Ta108  1  0.80296948  0.79749248  -0.00916414  1
  Ta  Ta109  1  0.90121307  0.70439299  0.61795660  1
  Ta  Ta110  1  0.30317256  0.29560655  0.86258195  1
  Ta  Ta111  1  0.20548305  0.18819464  0.75049402  1
  Ta  Ta112  1  0.79294525  0.18881816  0.49806832  1
  Ta  Ta113  1  0.41755398  0.79524826  0.23949454  1
  Ta  Ta114  1  0.80056630  0.18595966  0.01739780  1
  Ta  Ta115  1  0.50366703  0.29913970  0.62550311  1
  Ta  Ta116  1  0.30435403  0.28518869  0.63903010  1
  Ta  Ta117  1  0.00905438  0.39271309  0.50157870  1
  Ta  Ta118  1  0.80608201  0.79824938  0.75308462  1
  Ta  Ta119  1  0.80642198  0.79877359  0.25974402  1
  Ti  Ti120  1  0.11083431  0.29422914  0.14504070  1
  Ti  Ti121  1  0.59537631  0.02136897  -0.02979850  1
  Ti  Ti122  1  0.49759431  0.51266966  0.38227771  1
  Ti  Ti123  1  0.40108645  0.61034145  0.73682971  1
  Ti  Ti124  1  0.30055645  0.69946025  0.38699928  1
  Ti  Ti125  1  0.51446854  0.70608735  0.63243845  1
  Ti  Ti126  1  0.09812696  0.88438142  0.86738695  1
  Ti  Ti127  1  0.71399231  0.90786133  0.36665833  1
  Ti  Ti128  1  0.11007393  0.69236522  0.36966424  1
  Ti  Ti129  1  0.70831565  0.71029558  0.62754456  1
  Ti  Ti130  1  0.91369272  0.69500684  0.87152117  1
  Ti  Ti131  1  0.60830444  0.42155688  0.25871782  1
  Ti  Ti132  1  0.39429995  0.19558186  0.50074525  1
  Ti  Ti133  1  0.69657789  0.09935640  0.37085502  1
  Ti  Ti134  1  0.50635238  0.50524108  0.62661380  1
  Ti  Ti135  1  0.40962607  0.19324066  -0.01205894  1
  Ti  Ti136  1  0.69246742  0.30070767  0.10648990  1
  Ti  Ti137  1  0.69438636  0.71231852  0.37787045  1
  Ti  Ti138  1  0.90035110  0.09905380  0.88294796  1
  Ti  Ti139  1  0.88513141  0.70054147  0.38391211  1
  Ti  Ti140  1  0.60885485  0.60607190  0.74541410  1
  Ti  Ti141  1  0.60836350  0.20692617  0.75835669  1
  Ti  Ti142  1  0.20923534  -0.00434739  0.51466658  1
  Ti  Ti143  1  0.50294212  0.29694450  0.88022105  1
  Ti  Ti144  1  0.51501584  0.90150684  0.37620591  1
  Ti  Ti145  1  -0.00316920  0.59760017  0.49467141  1
  Ti  Ti146  1  0.50912513  0.70441641  0.85643553  1
  Ti  Ti147  1  0.67207902  0.09903217  0.11554055  1
  Ti  Ti148  1  0.50095445  0.50809248  0.11936699  1
  Ti  Ti149  1  -0.01059591  -0.00515875  0.49706547  1
  Ti  Ti150  1  0.90338865  0.89024863  0.87183459  1
  Ti  Ti151  1  0.89702002  0.08955488  0.61748396  1
  Ti  Ti152  1  0.00151302  -0.01030114  0.75394194  1
  Ti  Ti153  1  0.20786739  0.19877807  -0.01177109  1
  Ti  Ti154  1  0.39098266  0.00574847  0.73666380  1
  Ti  Ti155  1  0.60592211  0.61389088  0.49969492  1
  Ti  Ti156  1  0.59663192  0.61580005  -0.00232370  1
  Ti  Ti157  1  0.70211971  0.90386138  0.64148166  1
  Ti  Ti158  1  0.29099693  0.50899264  0.13144828  1
  Ti  Ti159  1  0.78265222  0.59976470  0.25355293  1
  Mo  Mo160  1  0.20241353  0.60229763  0.74286827  1
  Mo  Mo161  1  0.80056102  -0.00061194  0.50944091  1
  Mo  Mo162  1  0.20072569  0.60576357  0.26643865  1
  Mo  Mo163  1  0.79375366  0.19491726  0.75748689  1
  Mo  Mo164  1  0.69108402  0.52126721  0.38239924  1
  Mo  Mo165  1  0.70460726  0.10457817  0.86907460  1
  Mo  Mo166  1  0.29768303  0.90462520  0.61566935  1
  Mo  Mo167  1  0.80204464  0.37979767  0.50085286  1
  Mo  Mo168  1  0.09415373  0.69795168  0.87409733  1
  Mo  Mo169  1  0.08867315  0.69202392  0.61681766  1
  Mo  Mo170  1  0.49943211  0.10916733  0.85504093  1
  Mo  Mo171  1  0.60278158  0.81322066  0.26000671  1
  Mo  Mo172  1  0.20941175  0.40117845  0.25461242  1
  Mo  Mo173  1  0.69291382  0.28807927  0.62201627  1
  Mo  Mo174  1  0.90354689  0.29381948  0.11170294  1
  Mo  Mo175  1  -0.00005749  0.61515715  0.74432404  1
  Mo  Mo176  1  0.51124057  0.90385272  0.63987614  1
  Mo  Mo177  1  0.59643036  0.19405082  -0.00843428  1
  Mo  Mo178  1  0.79297608  0.63493988  0.50063204  1
  Mo  Mo179  1  0.79488734  -0.00322406  0.24659738  1
  Mo  Mo180  1  0.50649283  0.69983197  0.12456345  1
  Mo  Mo181  1  0.88783456  0.70311793  0.12881914  1
  Mo  Mo182  1  0.59126366  0.40832509  -0.00342977  1
  Mo  Mo183  1  0.20229915  0.39332902  0.75661453  1
  Mo  Mo184  1  0.20098730  0.19258975  0.25346816  1
  Mo  Mo185  1  0.40735386  0.20069079  0.75607314  1
  Mo  Mo186  1  -0.00508578  0.39141561  0.23752997  1
  Mo  Mo187  1  0.50174506  0.09154055  0.37910084  1
  Mo  Mo188  1  0.30487914  0.69493098  0.62579867  1
  Mo  Mo189  1  0.89576379  0.89626602  0.37250427  1
  Mo  Mo190  1  0.89831719  0.50753451  0.12397891  1
  Mo  Mo191  1  0.50252522  0.09986314  0.11522387  1
  Mo  Mo192  1  -0.00768926  0.40206670  0.74831877  1
  Mo  Mo193  1  0.29887615  0.69784886  0.12611642  1
  Mo  Mo194  1  0.29653088  0.90226966  0.86237431  1
  Mo  Mo195  1  0.60644443  0.79733255  0.74164997  1
  Mo  Mo196  1  0.30076511  0.10388052  0.62741087  1
  Mo  Mo197  1  0.19460308  -0.01751762  0.25980452  1
  Mo  Mo198  1  0.89098900  0.07885057  0.11765763  1
  Mo  Mo199  1  0.09581981  0.89504807  0.13550643  1
