# generated using pymatgen
data_HfZrTaTiMo
_symmetry_space_group_name_H-M   'P 1'
_cell_length_a   15.20326165
_cell_length_b   15.20503986
_cell_length_c   16.86871625
_cell_angle_alpha   89.99441773
_cell_angle_beta   90.01177418
_cell_angle_gamma   89.95736306
_symmetry_Int_Tables_number   1
_chemical_formula_structural   HfZrTaTiMo
_chemical_formula_sum   'Hf40 Zr40 Ta40 Ti40 Mo40'
_cell_volume   3899.47584320
_cell_formula_units_Z   40
loop_
 _symmetry_equiv_pos_site_id
 _symmetry_equiv_pos_as_xyz
  1  'x, y, z'
loop_
 _atom_site_type_symbol
 _atom_site_label
 _atom_site_symmetry_multiplicity
 _atom_site_fract_x
 _atom_site_fract_y
 _atom_site_fract_z
 _atom_site_occupancy
  Hf  Hf0  1  0.10320342  0.69158979  0.11970387  1
  Hf  Hf1  1  0.10370037  0.31326128  0.12477224  1
  Hf  Hf2  1  0.01439682  0.79565205  0.24592512  1
  Hf  Hf3  1  0.50181863  0.90671070  0.61987527  1
  Hf  Hf4  1  0.80297715  -0.01035374  0.00187857  1
  Hf  Hf5  1  0.89539708  0.28370783  0.13228632  1
  Hf  Hf6  1  0.58614255  0.79856634  0.24927386  1
  Hf  Hf7  1  0.60886949  0.40479849  0.51421033  1
  Hf  Hf8  1  0.40853866  0.80260921  -0.00200651  1
  Hf  Hf9  1  0.69128982  0.48438983  0.86925309  1
  Hf  Hf10  1  0.80561328  0.38127430  -0.00823309  1
  Hf  Hf11  1  0.60395433  -0.00613554  0.01333213  1
  Hf  Hf12  1  0.39240941  0.79460350  0.74393073  1
  Hf  Hf13  1  0.00927951  0.38818711  0.26800553  1
  Hf  Hf14  1  -0.00160461  0.81412361  0.00366490  1
  Hf  Hf15  1  0.38563608  0.80301473  0.50175110  1
  Hf  Hf16  1  0.40163819  0.19798170  0.50966487  1
  Hf  Hf17  1  0.69302325  0.70143977  0.86901236  1
  Hf  Hf18  1  0.51153236  0.90331935  0.86774798  1
  Hf  Hf19  1  0.79120860  0.58899014  0.50125244  1
  Hf  Hf20  1  0.70707697  0.70284836  0.63077280  1
  Hf  Hf21  1  0.19304588  0.00285976  -0.00624950  1
  Hf  Hf22  1  0.70317208  0.90476942  0.63018278  1
  Hf  Hf23  1  0.39947107  0.23767384  0.00664065  1
  Hf  Hf24  1  0.30302588  0.90185253  0.12456872  1
  Hf  Hf25  1  0.08449467  0.70402869  0.62164990  1
  Hf  Hf26  1  0.19154064  0.20703681  0.51663315  1
  Hf  Hf27  1  0.40031252  0.20144697  0.74031452  1
  Hf  Hf28  1  0.70597133  0.89509102  0.14517479  1
  Hf  Hf29  1  0.89980975  0.88735892  0.37174183  1
  Hf  Hf30  1  0.29829720  0.69832601  0.12208775  1
  Hf  Hf31  1  0.29832523  0.90007919  0.87195916  1
  Hf  Hf32  1  0.29548286  0.69077620  0.88036427  1
  Hf  Hf33  1  0.09199574  0.10985695  0.12624608  1
  Hf  Hf34  1  0.92017854  0.48414020  0.12490687  1
  Hf  Hf35  1  0.78770198  0.38687478  0.24870731  1
  Hf  Hf36  1  0.20477242  0.22293071  0.73656460  1
  Hf  Hf37  1  0.08913395  0.92083413  0.62089243  1
  Hf  Hf38  1  0.11780313  0.89788200  0.37814241  1
  Hf  Hf39  1  0.50666561  0.11089922  0.88393522  1
  Zr  Zr40  1  0.39523208  0.60271938  0.25750850  1
  Zr  Zr41  1  0.79785649  -0.00285417  0.49230239  1
  Zr  Zr42  1  0.89870120  0.09845508  0.11750215  1
  Zr  Zr43  1  0.90779895  0.07847226  0.62635788  1
  Zr  Zr44  1  0.49328262  0.70053562  0.38214127  1
  Zr  Zr45  1  0.11789014  0.50095302  0.38526541  1
  Zr  Zr46  1  -0.01163521  0.59762571  0.49957987  1
  Zr  Zr47  1  0.39305348  0.20532550  0.24518332  1
  Zr  Zr48  1  0.59687602  0.58311503  0.24634699  1
  Zr  Zr49  1  0.90529035  0.10492454  0.87779475  1
  Zr  Zr50  1  0.48981484  0.69523907  0.61784734  1
  Zr  Zr51  1  0.08844245  0.31519589  0.86217574  1
  Zr  Zr52  1  0.51116718  0.29754984  0.38388994  1
  Zr  Zr53  1  0.01009262  0.37981150  0.49259962  1
  Zr  Zr54  1  0.01589472  0.58172359  -0.00712025  1
  Zr  Zr55  1  0.79097075  0.79661548  0.00089415  1
  Zr  Zr56  1  0.70967868  0.30342971  0.38710674  1
  Zr  Zr57  1  0.59721307  0.59598445  0.00425549  1
  Zr  Zr58  1  0.30140463  0.30403217  0.38084179  1
  Zr  Zr59  1  0.19551145  0.01728864  0.75767410  1
  Zr  Zr60  1  0.48746080  0.91380751  0.38229906  1
  Zr  Zr61  1  0.80374051  0.19105184  0.74555836  1
  Zr  Zr62  1  0.80101067  0.59241108  0.24801633  1
  Zr  Zr63  1  0.10173111  0.49109833  0.62953519  1
  Zr  Zr64  1  0.59581171  0.60232215  0.50274675  1
  Zr  Zr65  1  0.19581129  0.80028461  0.51269720  1
  Zr  Zr66  1  0.20874616  -0.00186499  0.24863846  1
  Zr  Zr67  1  0.50626189  0.11460992  0.11887567  1
  Zr  Zr68  1  0.69474398  0.08445477  0.86363528  1
  Zr  Zr69  1  -0.01815560  0.80610728  0.75190508  1
  Zr  Zr70  1  0.69631277  0.11065719  0.37418217  1
  Zr  Zr71  1  0.80442136  0.60209710  0.75351643  1
  Zr  Zr72  1  0.29748290  0.49057893  0.12739401  1
  Zr  Zr73  1  0.29372213  0.11501509  0.11936010  1
  Zr  Zr74  1  0.09860018  0.71042570  0.87324791  1
  Zr  Zr75  1  0.30435378  0.11971202  0.87970782  1
  Zr  Zr76  1  0.00082124  0.01109906  0.26277793  1
  Zr  Zr77  1  0.20335190  0.41227145  -0.00550955  1
  Zr  Zr78  1  0.89343779  0.69896471  0.13003169  1
  Zr  Zr79  1  0.80297136  0.58830953  -0.00281485  1
  Ta  Ta80  1  0.30605714  0.08726576  0.37770661  1
  Ta  Ta81  1  0.19347218  0.80764034  0.74065417  1
  Ta  Ta82  1  0.19236221  0.60150150  0.25415608  1
  Ta  Ta83  1  0.18910375  0.21225448  -0.00978556  1
  Ta  Ta84  1  0.22214823  0.40952007  0.50716792  1
  Ta  Ta85  1  0.81103686  0.39765815  0.51165331  1
  Ta  Ta86  1  0.19429388  0.80683309  0.00138318  1
  Ta  Ta87  1  0.69491404  0.89703350  0.36411494  1
  Ta  Ta88  1  0.80227412  0.78718761  0.49342175  1
  Ta  Ta89  1  0.70664174  0.10818339  0.13577544  1
  Ta  Ta90  1  0.20721748  0.61119478  0.73979237  1
  Ta  Ta91  1  0.49936221  0.69463469  0.86943817  1
  Ta  Ta92  1  0.40812792  0.00424505  0.74875947  1
  Ta  Ta93  1  0.10440574  0.12045131  0.37497252  1
  Ta  Ta94  1  0.39400343  0.39637174  0.74210192  1
  Ta  Ta95  1  0.59667176  0.20086274  0.73839711  1
  Ta  Ta96  1  0.40392527  0.00149994  0.00089376  1
  Ta  Ta97  1  0.90795783  0.90292205  0.13826801  1
  Ta  Ta98  1  0.49383798  0.70389120  0.12565918  1
  Ta  Ta99  1  0.49564239  0.49674262  0.86889768  1
  Ta  Ta100  1  0.79905283  0.00643411  0.25995401  1
  Ta  Ta101  1  0.49958355  0.30932718  0.86422086  1
  Ta  Ta102  1  0.58780858  0.00771447  0.24586733  1
  Ta  Ta103  1  0.90995560  0.30147368  0.63141601  1
  Ta  Ta104  1  0.39747548  0.59126630  -0.00276049  1
  Ta  Ta105  1  0.11311680  0.50696408  0.85451341  1
  Ta  Ta106  1  -0.00130628  0.59923215  0.75071792  1
  Ta  Ta107  1  0.91569736  0.47731482  0.86576935  1
  Ta  Ta108  1  0.00641930  0.00419213  0.48467816  1
  Ta  Ta109  1  0.59874251  0.79753768  0.74612198  1
  Ta  Ta110  1  0.49017560  0.48882385  0.38350509  1
  Ta  Ta111  1  0.88976140  0.48497568  0.37534123  1
  Ta  Ta112  1  0.39823027  0.59428361  0.74937189  1
  Ta  Ta113  1  0.59412433  0.59042716  0.74368538  1
  Ta  Ta114  1  0.09436812  0.70111723  0.38236837  1
  Ta  Ta115  1  0.70422540  0.70434860  0.36892120  1
  Ta  Ta116  1  0.01176561  0.19491902  0.74058573  1
  Ta  Ta117  1  0.79788145  0.39435876  0.74637184  1
  Ta  Ta118  1  0.49645282  0.10525626  0.37533002  1
  Ta  Ta119  1  0.70326262  0.29867833  0.62578081  1
  Ti  Ti120  1  0.68621647  0.29285499  0.11991021  1
  Ti  Ti121  1  0.59813104  0.79943189  0.00981130  1
  Ti  Ti122  1  0.89879307  0.89679474  0.87577523  1
  Ti  Ti123  1  -0.00869058  0.22181216  -0.01128696  1
  Ti  Ti124  1  0.90500232  0.27242796  0.37348754  1
  Ti  Ti125  1  0.50538523  0.09587704  0.62285891  1
  Ti  Ti126  1  0.29897059  0.90784437  0.63111081  1
  Ti  Ti127  1  0.30185179  0.09374005  0.62351318  1
  Ti  Ti128  1  0.89633322  0.50137451  0.63299856  1
  Ti  Ti129  1  0.69131255  0.28918865  0.86636336  1
  Ti  Ti130  1  0.37453127  0.59001090  0.49389668  1
  Ti  Ti131  1  0.00807652  0.00392078  -0.00851975  1
  Ti  Ti132  1  0.21045152  0.39686114  0.25572053  1
  Ti  Ti133  1  0.59479591  0.01008327  0.49612979  1
  Ti  Ti134  1  0.41062149  0.40043510  0.24920790  1
  Ti  Ti135  1  0.30610581  0.50554785  0.62767194  1
  Ti  Ti136  1  0.89695140  0.69599577  0.87894076  1
  Ti  Ti137  1  0.00003243  0.19059897  0.51089879  1
  Ti  Ti138  1  0.69280215  0.49614895  0.37371728  1
  Ti  Ti139  1  0.00941858  0.00333566  0.76701182  1
  Ti  Ti140  1  0.58796288  0.38227201  -0.00210420  1
  Ti  Ti141  1  0.69454844  0.69378281  0.13179824  1
  Ti  Ti142  1  0.50105872  0.49091684  0.11999247  1
  Ti  Ti143  1  0.89942459  0.87501417  0.60963011  1
  Ti  Ti144  1  0.30267589  0.49284470  0.86801264  1
  Ti  Ti145  1  0.70330244  0.89451364  0.85972914  1
  Ti  Ti146  1  0.89839371  0.69129139  0.36781659  1
  Ti  Ti147  1  0.69703096  0.48373339  0.11904175  1
  Ti  Ti148  1  0.81288509  -0.01864349  0.74815155  1
  Ti  Ti149  1  0.60877781  0.80714584  0.49547447  1
  Ti  Ti150  1  0.60388818  0.21605200  0.24797302  1
  Ti  Ti151  1  0.28026524  0.70355702  0.37346025  1
  Ti  Ti152  1  0.69433990  0.09822219  0.62457317  1
  Ti  Ti153  1  0.49997354  0.49392780  0.62926093  1
  Ti  Ti154  1  0.21021091  0.00630706  0.49861247  1
  Ti  Ti155  1  0.00389418  0.58817558  0.25716676  1
  Ti  Ti156  1  0.50251696  0.30073163  0.62256657  1
  Ti  Ti157  1  0.38540420  0.81516511  0.25630378  1
  Ti  Ti158  1  0.78351758  0.19319062  -0.00844811  1
  Ti  Ti159  1  0.80610896  0.19921420  0.51150355  1
  Mo  Mo160  1  0.20554413  0.60366859  0.50453570  1
  Mo  Mo161  1  0.60998633  0.20914447  -0.00145367  1
  Mo  Mo162  1  0.20766375  0.60380170  -0.00513241  1
  Mo  Mo163  1  0.09768334  0.11423264  0.88123576  1
  Mo  Mo164  1  0.59601190  0.40112723  0.24703162  1
  Mo  Mo165  1  0.09723934  0.90623364  0.87333403  1
  Mo  Mo166  1  0.30540160  0.31610753  0.86982634  1
  Mo  Mo167  1  0.10859800  0.29693556  0.37801687  1
  Mo  Mo168  1  0.59891890  0.00373725  0.74385996  1
  Mo  Mo169  1  0.60710445  0.19398955  0.52041317  1
  Mo  Mo170  1  0.29363306  0.69528520  0.62736558  1
  Mo  Mo171  1  0.79887138  0.79918641  0.25570693  1
  Mo  Mo172  1  0.89715951  0.69701286  0.62163310  1
  Mo  Mo173  1  0.09906641  0.30133705  0.63107042  1
  Mo  Mo174  1  0.39176735  0.00623483  0.50903030  1
  Mo  Mo175  1  0.09816651  0.90189909  0.12241316  1
  Mo  Mo176  1  -0.01031652  0.80217085  0.49233310  1
  Mo  Mo177  1  0.88757439  0.29902324  0.86305172  1
  Mo  Mo178  1  0.30805885  0.31385523  0.61689986  1
  Mo  Mo179  1  0.40677481  0.40711626  0.51302417  1
  Mo  Mo180  1  0.30729885  0.50271320  0.37213807  1
  Mo  Mo181  1  0.70224509  0.49239168  0.63651618  1
  Mo  Mo182  1  -0.00298425  0.39962267  0.74060419  1
  Mo  Mo183  1  0.40731713  0.00214989  0.24917329  1
  Mo  Mo184  1  0.20448644  0.78932124  0.25249517  1
  Mo  Mo185  1  0.49588107  0.89923973  0.12800918  1
  Mo  Mo186  1  0.00217742  0.20084218  0.25613334  1
  Mo  Mo187  1  0.79882230  0.80252752  0.75466069  1
  Mo  Mo188  1  0.40779545  0.41300312  -0.00616369  1
  Mo  Mo189  1  0.00108920  0.39590248  -0.00411825  1
  Mo  Mo190  1  0.50462815  0.31656525  0.13106327  1
  Mo  Mo191  1  0.10224007  0.09827198  0.61957487  1
  Mo  Mo192  1  0.18828443  0.21051818  0.25645629  1
  Mo  Mo193  1  0.10387728  0.50257200  0.13793312  1
  Mo  Mo194  1  0.29926227  0.89909006  0.37451520  1
  Mo  Mo195  1  0.29813332  0.30611152  0.13250637  1
  Mo  Mo196  1  0.59637011  0.39335240  0.74122420  1
  Mo  Mo197  1  0.90052556  0.10272669  0.38568497  1
  Mo  Mo198  1  0.79910196  0.19329118  0.25148298  1
  Mo  Mo199  1  0.21054195  0.41459764  0.74450866  1
