# generated using pymatgen
data_HfZrTaTiMo
_symmetry_space_group_name_H-M   'P 1'
_cell_length_a   15.20460236
_cell_length_b   15.21530754
_cell_length_c   16.84431773
_cell_angle_alpha   89.97175506
_cell_angle_beta   90.07674337
_cell_angle_gamma   90.16181318
_symmetry_Int_Tables_number   1
_chemical_formula_structural   HfZrTaTiMo
_chemical_formula_sum   'Hf40 Zr40 Ta40 Ti40 Mo40'
_cell_volume   3896.79045726
_cell_formula_units_Z   40
loop_
 _symmetry_equiv_pos_site_id
 _symmetry_equiv_pos_as_xyz
  1  'x, y, z'
loop_
 _atom_site_type_symbol
 _atom_site_label
 _atom_site_symmetry_multiplicity
 _atom_site_fract_x
 _atom_site_fract_y
 _atom_site_fract_z
 _atom_site_occupancy
  Hf  Hf0  1  0.50766334  0.27774406  0.36806530  1
  Hf  Hf1  1  0.51438457  0.10615485  0.64781569  1
  Hf  Hf2  1  0.20846969  0.20580009  0.25867600  1
  Hf  Hf3  1  0.50097472  0.69628742  0.87453827  1
  Hf  Hf4  1  -0.00698916  0.20190356  0.50984480  1
  Hf  Hf5  1  0.90503711  0.70691386  0.63222550  1
  Hf  Hf6  1  0.80173867  0.79845290  0.24487810  1
  Hf  Hf7  1  0.38423827  -0.00000591  0.75109016  1
  Hf  Hf8  1  0.59348249  0.59873401  0.50276678  1
  Hf  Hf9  1  0.89095311  0.90516952  0.38630016  1
  Hf  Hf10  1  0.51219252  0.70658518  0.37075471  1
  Hf  Hf11  1  0.28832911  0.28965792  0.11158706  1
  Hf  Hf12  1  0.40244832  0.59271807  0.00047768  1
  Hf  Hf13  1  0.70659341  0.30320151  0.36227226  1
  Hf  Hf14  1  0.32017372  0.91060864  0.38624223  1
  Hf  Hf15  1  0.59814604  0.58641292  0.75366031  1
  Hf  Hf16  1  0.89572098  0.10482170  0.11970673  1
  Hf  Hf17  1  0.39655928  0.21557612  0.75750068  1
  Hf  Hf18  1  0.51240359  0.30347508  0.62538487  1
  Hf  Hf19  1  0.79896417  0.38602023  0.51137010  1
  Hf  Hf20  1  0.10076783  0.91059248  0.13160409  1
  Hf  Hf21  1  0.00463286  0.82624159  0.75339262  1
  Hf  Hf22  1  0.30510163  0.69028318  0.37260402  1
  Hf  Hf23  1  0.79991548  0.60404743  0.51252149  1
  Hf  Hf24  1  0.50265634  0.68864225  0.62946090  1
  Hf  Hf25  1  0.19763673  0.40572067  0.48817167  1
  Hf  Hf26  1  0.79094311  0.60228872  0.74186019  1
  Hf  Hf27  1  0.89058487  0.71474039  0.87500670  1
  Hf  Hf28  1  0.68205411  0.89659241  0.38990039  1
  Hf  Hf29  1  0.08651972  0.11393032  0.37371880  1
  Hf  Hf30  1  0.49219518  0.50280412  0.36128400  1
  Hf  Hf31  1  0.90288245  0.69633826  0.37760284  1
  Hf  Hf32  1  0.59298019  0.81021187  0.00342132  1
  Hf  Hf33  1  0.19834610  0.01463886  0.49936570  1
  Hf  Hf34  1  0.78357084  0.38716921  0.74919182  1
  Hf  Hf35  1  0.01267718  0.01163512  -0.00278622  1
  Hf  Hf36  1  0.70576089  0.69241603  0.10935353  1
  Hf  Hf37  1  0.17962314  0.39129272  0.26038730  1
  Hf  Hf38  1  0.40746014  0.81276059  0.24785106  1
  Hf  Hf39  1  0.08817443  0.50929481  0.36780211  1
  Zr  Zr40  1  0.78769483  -0.00029323  0.25126576  1
  Zr  Zr41  1  0.10768538  0.50829832  0.63422785  1
  Zr  Zr42  1  -0.00382430  0.81765858  -0.00586378  1
  Zr  Zr43  1  0.09832389  0.90202305  0.37608533  1
  Zr  Zr44  1  -0.00779312  0.01076817  0.24979068  1
  Zr  Zr45  1  0.60206517  0.20275043  -0.01002384  1
  Zr  Zr46  1  0.90770995  0.49351176  0.63513603  1
  Zr  Zr47  1  -0.00019899  0.60507917  -0.01221259  1
  Zr  Zr48  1  0.38869054  0.38699779  0.25170814  1
  Zr  Zr49  1  0.39687142  0.79240170  0.74315783  1
  Zr  Zr50  1  0.29659862  0.49366139  0.12142057  1
  Zr  Zr51  1  0.69700700  0.50495009  0.37544321  1
  Zr  Zr52  1  0.38669650  0.58107227  0.75229862  1
  Zr  Zr53  1  0.90539999  0.29409456  0.36658974  1
  Zr  Zr54  1  0.09685246  0.69747950  0.12606768  1
  Zr  Zr55  1  0.41557307  0.18259301  0.50292694  1
  Zr  Zr56  1  0.69084164  0.10724450  0.37700394  1
  Zr  Zr57  1  0.20643581  0.81068166  0.74694524  1
  Zr  Zr58  1  0.20111284  0.80507877  0.25251458  1
  Zr  Zr59  1  0.70232439  0.28965850  0.13412262  1
  Zr  Zr60  1  0.60584109  0.80956103  0.23891088  1
  Zr  Zr61  1  0.10076762  0.30041144  0.63039612  1
  Zr  Zr62  1  0.19917215  0.79047142  0.50550110  1
  Zr  Zr63  1  0.31001373  0.90920773  0.11689321  1
  Zr  Zr64  1  0.18847819  0.58899003  -0.00546680  1
  Zr  Zr65  1  0.40551330  0.18085132  -0.00534277  1
  Zr  Zr66  1  0.60323744  0.01209714  -0.00973956  1
  Zr  Zr67  1  0.21360552  0.39220459  0.75632884  1
  Zr  Zr68  1  0.67995504  0.48225667  0.62356544  1
  Zr  Zr69  1  0.01511074  0.60365185  0.50216526  1
  Zr  Zr70  1  0.88482198  0.50240612  0.87979453  1
  Zr  Zr71  1  0.51485825  0.90405542  0.63870161  1
  Zr  Zr72  1  -0.00338272  0.81022646  0.51000936  1
  Zr  Zr73  1  0.90748770  0.10597980  0.86920157  1
  Zr  Zr74  1  0.29730545  0.69906594  0.88300694  1
  Zr  Zr75  1  0.70149823  0.69924411  0.88772118  1
  Zr  Zr76  1  0.90209256  0.31903741  0.12433898  1
  Zr  Zr77  1  0.49371603  0.69008012  0.12896801  1
  Zr  Zr78  1  0.79069206  0.81644595  0.73662901  1
  Zr  Zr79  1  0.41628005  0.80013802  0.50687576  1
  Ta  Ta80  1  0.40960296  0.38743648  0.00459275  1
  Ta  Ta81  1  0.00528775  0.21113747  0.00443443  1
  Ta  Ta82  1  0.79709466  0.00815938  0.50801220  1
  Ta  Ta83  1  -0.00030528  0.39798714  0.76735272  1
  Ta  Ta84  1  0.89097714  0.50957830  0.10926980  1
  Ta  Ta85  1  0.51314240  0.09702445  0.85151390  1
  Ta  Ta86  1  0.60017284  0.39280328  0.00088430  1
  Ta  Ta87  1  0.29791943  0.48069871  0.88862774  1
  Ta  Ta88  1  -0.00951302  0.80149709  0.24520620  1
  Ta  Ta89  1  0.01122128  0.40165645  -0.01553018  1
  Ta  Ta90  1  0.59753389  0.58190664  0.00111739  1
  Ta  Ta91  1  0.40237436  0.18245454  0.24739263  1
  Ta  Ta92  1  0.89398530  0.29938602  0.87776509  1
  Ta  Ta93  1  0.49539106  0.48328492  0.87729032  1
  Ta  Ta94  1  0.01133178  0.21989027  0.24047343  1
  Ta  Ta95  1  0.20313145  0.59602098  0.24151982  1
  Ta  Ta96  1  0.70753650  0.90907102  0.87389108  1
  Ta  Ta97  1  0.10320054  0.70388099  0.64023322  1
  Ta  Ta98  1  0.29781464  0.70111238  0.12143289  1
  Ta  Ta99  1  0.30876052  0.10673107  0.37870413  1
  Ta  Ta100  1  0.30239084  0.48960093  0.61657002  1
  Ta  Ta101  1  0.21420818  0.01191623  0.25607483  1
  Ta  Ta102  1  0.19014664  0.18295604  0.75109993  1
  Ta  Ta103  1  0.58754038  0.00824229  0.50640859  1
  Ta  Ta104  1  0.70036752  0.91528302  0.11776594  1
  Ta  Ta105  1  0.60226355  0.39917864  0.24360977  1
  Ta  Ta106  1  0.08541009  0.48288121  0.12769836  1
  Ta  Ta107  1  0.29735093  0.29176322  0.88813876  1
  Ta  Ta108  1  0.80617879  -0.00277063  0.00037455  1
  Ta  Ta109  1  0.19576057  0.80835862  -0.00388273  1
  Ta  Ta110  1  0.80251912  0.59457349  0.24352917  1
  Ta  Ta111  1  0.50981384  0.08437277  0.13427287  1
  Ta  Ta112  1  0.50477929  0.89984602  0.86008808  1
  Ta  Ta113  1  0.39929962  0.39257819  0.48709540  1
  Ta  Ta114  1  0.89217202  0.49542036  0.37187059  1
  Ta  Ta115  1  0.11244575  0.11378530  0.12832409  1
  Ta  Ta116  1  -0.00354456  0.39872465  0.49824738  1
  Ta  Ta117  1  0.30666966  0.29966370  0.61746475  1
  Ta  Ta118  1  0.10203099  0.92011502  0.62512116  1
  Ta  Ta119  1  0.89531524  0.70583182  0.11458393  1
  Ti  Ti120  1  0.59623206  0.38548806  0.49240585  1
  Ti  Ti121  1  0.10073464  0.71490365  0.86839226  1
  Ti  Ti122  1  0.58952631  0.37985497  0.76669684  1
  Ti  Ti123  1  0.50253143  0.49079701  0.13285254  1
  Ti  Ti124  1  0.29028421  0.68080518  0.61954649  1
  Ti  Ti125  1  0.41065026  -0.00731390  -0.01493217  1
  Ti  Ti126  1  0.20424915  0.00377564  -0.00447628  1
  Ti  Ti127  1  0.48566272  0.48719204  0.62433897  1
  Ti  Ti128  1  0.89589797  0.28946907  0.63997482  1
  Ti  Ti129  1  0.18793758  0.19420582  -0.00656182  1
  Ti  Ti130  1  0.70530187  0.09267507  0.63571688  1
  Ti  Ti131  1  0.29358839  0.90141386  0.87912240  1
  Ti  Ti132  1  0.01936621  0.02852167  0.74567762  1
  Ti  Ti133  1  0.29060035  0.10284418  0.62531331  1
  Ti  Ti134  1  0.49816420  0.07112423  0.36343818  1
  Ti  Ti135  1  0.89561033  0.92118217  0.62623903  1
  Ti  Ti136  1  0.50010136  0.29020868  0.13354233  1
  Ti  Ti137  1  0.10203385  0.70065083  0.36477960  1
  Ti  Ti138  1  -0.00870847  0.01569839  0.50821441  1
  Ti  Ti139  1  0.19623215  0.59690804  0.76351401  1
  Ti  Ti140  1  0.09816755  0.29032111  0.86964544  1
  Ti  Ti141  1  0.70869583  0.70291934  0.38094543  1
  Ti  Ti142  1  0.28870286  0.09414735  0.87241288  1
  Ti  Ti143  1  0.80817019  0.19150844  0.25011554  1
  Ti  Ti144  1  0.69560831  0.48946412  0.88613488  1
  Ti  Ti145  1  0.79430812  0.19228119  0.75246902  1
  Ti  Ti146  1  0.70603346  0.48995610  0.11834621  1
  Ti  Ti147  1  0.60900255  0.79622097  0.74949475  1
  Ti  Ti148  1  0.29693124  0.50209995  0.36913597  1
  Ti  Ti149  1  0.79782865  0.19271237  0.51049794  1
  Ti  Ti150  1  0.30529434  0.09546503  0.12264275  1
  Ti  Ti151  1  0.39814176  0.80442206  -0.00089684  1
  Ti  Ti152  1  0.60592851  0.59744073  0.24314579  1
  Ti  Ti153  1  -0.00714754  0.60025933  0.24164538  1
  Ti  Ti154  1  0.20180760  0.21181375  0.49200080  1
  Ti  Ti155  1  0.39078335  0.58844280  0.50074329  1
  Ti  Ti156  1  0.30085842  0.90745106  0.61426285  1
  Ti  Ti157  1  0.90056452  0.91492199  0.86742574  1
  Ti  Ti158  1  0.79526733  0.19773166  -0.00542547  1
  Ti  Ti159  1  0.00416886  0.60389127  0.76384103  1
  Mo  Mo160  1  0.62107621  -0.00519197  0.75804439  1
  Mo  Mo161  1  0.49583553  0.30133094  0.87790565  1
  Mo  Mo162  1  0.61788584  0.19771009  0.50754077  1
  Mo  Mo163  1  0.79305872  0.80347511  0.51424484  1
  Mo  Mo164  1  0.69437736  0.70392918  0.62234792  1
  Mo  Mo165  1  0.61487929  0.20568144  0.76542864  1
  Mo  Mo166  1  0.89208508  0.10245256  0.38022246  1
  Mo  Mo167  1  0.59046613  -0.00472333  0.24623594  1
  Mo  Mo168  1  0.39421331  0.59918378  0.24370936  1
  Mo  Mo169  1  0.50511841  0.90212001  0.38395424  1
  Mo  Mo170  1  0.10225411  0.10513092  0.61959549  1
  Mo  Mo171  1  0.20851006  0.60047452  0.49925444  1
  Mo  Mo172  1  0.81229607  0.00256948  0.74284189  1
  Mo  Mo173  1  0.79985729  0.81493433  0.00239795  1
  Mo  Mo174  1  0.10929246  0.91569474  0.87359728  1
  Mo  Mo175  1  0.70657546  0.30063392  0.88116842  1
  Mo  Mo176  1  0.71215488  0.09957086  0.86604421  1
  Mo  Mo177  1  0.30528091  0.29536899  0.38401496  1
  Mo  Mo178  1  0.40003422  0.39670600  0.75118523  1
  Mo  Mo179  1  -0.00236154  0.21105617  0.74796641  1
  Mo  Mo180  1  0.40144176  0.00527963  0.51326035  1
  Mo  Mo181  1  0.49960333  0.90363927  0.11406463  1
  Mo  Mo182  1  0.09963269  0.30188985  0.11764698  1
  Mo  Mo183  1  0.10805556  0.10772303  0.87750897  1
  Mo  Mo184  1  0.89952168  0.10284631  0.63572373  1
  Mo  Mo185  1  0.69685375  0.27883709  0.62613989  1
  Mo  Mo186  1  0.39744312  0.00073546  0.24896931  1
  Mo  Mo187  1  0.79263239  0.59808179  0.00272548  1
  Mo  Mo188  1  0.09487388  0.30621896  0.38093512  1
  Mo  Mo189  1  0.89588627  0.89663496  0.12140826  1
  Mo  Mo190  1  0.70114743  0.90562258  0.61097591  1
  Mo  Mo191  1  0.79775977  0.41346496  0.24723245  1
  Mo  Mo192  1  0.70236236  0.10247488  0.12738080  1
  Mo  Mo193  1  0.09999624  0.49894748  0.86251494  1
  Mo  Mo194  1  0.59878117  0.19163811  0.24370804  1
  Mo  Mo195  1  0.19904473  0.00087623  0.74543777  1
  Mo  Mo196  1  0.19176781  0.38581023  -0.01026465  1
  Mo  Mo197  1  0.61363435  0.79488975  0.51001044  1
  Mo  Mo198  1  -0.01237839  0.41366935  0.24675696  1
  Mo  Mo199  1  0.79506047  0.39473330  -0.00478874  1
