# generated using pymatgen
data_HfZrTaTiMo
_symmetry_space_group_name_H-M   'P 1'
_cell_length_a   15.21710761
_cell_length_b   15.22323907
_cell_length_c   16.86287142
_cell_angle_alpha   90.05112935
_cell_angle_beta   89.97078768
_cell_angle_gamma   90.02729013
_symmetry_Int_Tables_number   1
_chemical_formula_structural   HfZrTaTiMo
_chemical_formula_sum   'Hf40 Zr40 Ta40 Ti40 Mo40'
_cell_volume   3906.34349561
_cell_formula_units_Z   40
loop_
 _symmetry_equiv_pos_site_id
 _symmetry_equiv_pos_as_xyz
  1  'x, y, z'
loop_
 _atom_site_type_symbol
 _atom_site_label
 _atom_site_symmetry_multiplicity
 _atom_site_fract_x
 _atom_site_fract_y
 _atom_site_fract_z
 _atom_site_occupancy
  Hf  Hf0  1  0.20906245  0.79066225  0.76252993  1
  Hf  Hf1  1  0.30814853  0.68547352  0.60885330  1
  Hf  Hf2  1  0.60215126  0.77717374  0.00624848  1
  Hf  Hf3  1  0.08705228  0.69440224  0.88163330  1
  Hf  Hf4  1  0.50078614  0.49804411  0.60830490  1
  Hf  Hf5  1  0.70604794  0.90500368  0.36360320  1
  Hf  Hf6  1  0.59280474  0.39803021  0.74877913  1
  Hf  Hf7  1  0.41521134  0.77586720  0.75557218  1
  Hf  Hf8  1  0.79686857  0.41188802  0.75366862  1
  Hf  Hf9  1  0.40555422  0.58023438  0.75557766  1
  Hf  Hf10  1  0.28456484  0.28495185  0.61483655  1
  Hf  Hf11  1  0.71400441  0.50071989  0.15037190  1
  Hf  Hf12  1  0.40746344  -0.00047733  0.01085865  1
  Hf  Hf13  1  0.60746823  0.00087790  0.50231485  1
  Hf  Hf14  1  0.62476023  -0.01304024  0.74772657  1
  Hf  Hf15  1  0.11386864  0.49367142  0.12103470  1
  Hf  Hf16  1  0.29907611  0.87497978  0.37914193  1
  Hf  Hf17  1  0.71194007  0.11174332  0.61979492  1
  Hf  Hf18  1  0.19477300  -0.00788845  0.48959298  1
  Hf  Hf19  1  0.59922470  0.22037361  0.50141951  1
  Hf  Hf20  1  0.88761228  0.71345149  0.86748366  1
  Hf  Hf21  1  0.39311102  0.21809693  0.75079926  1
  Hf  Hf22  1  0.19725999  0.00159807  -0.00503034  1
  Hf  Hf23  1  0.81439251  -0.00899997  0.00241117  1
  Hf  Hf24  1  0.00726234  0.81637318  0.74874238  1
  Hf  Hf25  1  0.19292991  -0.01183633  0.74758308  1
  Hf  Hf26  1  0.10386632  0.69343146  0.63388639  1
  Hf  Hf27  1  0.59223170  0.19359446  0.24519729  1
  Hf  Hf28  1  0.90882860  0.92049875  0.86542397  1
  Hf  Hf29  1  0.69667105  0.70390162  0.62674890  1
  Hf  Hf30  1  -0.00435547  0.00108986  0.25325842  1
  Hf  Hf31  1  0.89792821  0.51441478  0.36885639  1
  Hf  Hf32  1  0.30202063  0.10591278  0.87459279  1
  Hf  Hf33  1  0.29870032  0.88516863  0.61399371  1
  Hf  Hf34  1  0.20537914  0.59277137  0.76902972  1
  Hf  Hf35  1  0.08765643  0.48256681  0.87775332  1
  Hf  Hf36  1  0.27980041  0.31217869  0.14022321  1
  Hf  Hf37  1  -0.01489805  0.81371960  0.00948829  1
  Hf  Hf38  1  0.27549509  0.29806791  0.36603624  1
  Hf  Hf39  1  0.48070531  0.69535114  0.38921590  1
  Zr  Zr40  1  0.80816450  0.20871909  0.74967040  1
  Zr  Zr41  1  0.69904830  0.69902764  0.15002981  1
  Zr  Zr42  1  0.89964347  0.10423246  0.38835133  1
  Zr  Zr43  1  0.10477805  0.50175224  0.36836071  1
  Zr  Zr44  1  0.27397165  0.89525128  0.13651193  1
  Zr  Zr45  1  0.59828316  -0.00066542  0.24411161  1
  Zr  Zr46  1  0.31234108  0.70051170  0.11521976  1
  Zr  Zr47  1  0.20472167  0.38546306  0.76155077  1
  Zr  Zr48  1  0.69458311  0.30215203  0.12169640  1
  Zr  Zr49  1  0.81098135  0.80303864  0.49986267  1
  Zr  Zr50  1  0.31628028  0.89490406  0.87728582  1
  Zr  Zr51  1  0.80141420  0.19743813  0.25573288  1
  Zr  Zr52  1  0.49129808  0.29684202  0.36389730  1
  Zr  Zr53  1  0.60553861  -0.00962399  0.00336941  1
  Zr  Zr54  1  0.49734427  0.10701881  0.62295502  1
  Zr  Zr55  1  0.90141814  0.31746827  0.37622261  1
  Zr  Zr56  1  0.37894356  0.20757276  0.01139613  1
  Zr  Zr57  1  0.01012756  0.61474452  0.50072508  1
  Zr  Zr58  1  0.91099006  0.11095895  0.12274806  1
  Zr  Zr59  1  0.10846935  0.70163175  0.11593641  1
  Zr  Zr60  1  0.18975344  0.00165243  0.26996147  1
  Zr  Zr61  1  0.89287353  0.31552845  0.13114672  1
  Zr  Zr62  1  0.42034305  0.60426978  -0.00019086  1
  Zr  Zr63  1  0.48103989  0.30922716  0.88630335  1
  Zr  Zr64  1  0.70200722  0.10166816  0.11320534  1
  Zr  Zr65  1  0.39787805  -0.00212087  0.25156268  1
  Zr  Zr66  1  0.68773496  0.29102795  0.88674694  1
  Zr  Zr67  1  0.09358710  0.28839579  0.12586164  1
  Zr  Zr68  1  0.20221926  0.79750940  -0.01611883  1
  Zr  Zr69  1  0.49111385  0.87351812  0.12864775  1
  Zr  Zr70  1  0.60924577  0.79867665  0.48541799  1
  Zr  Zr71  1  0.29118776  0.49009041  0.61673745  1
  Zr  Zr72  1  0.39622234  0.38291872  0.49297150  1
  Zr  Zr73  1  0.51068153  0.88479648  0.62297102  1
  Zr  Zr74  1  0.17726234  0.18825508  0.75715728  1
  Zr  Zr75  1  0.69255104  0.69042810  0.86520376  1
  Zr  Zr76  1  0.40631413  -0.00326337  0.74581876  1
  Zr  Zr77  1  0.79074327  0.41924661  -0.00902559  1
  Zr  Zr78  1  0.51683253  0.10052929  0.87107533  1
  Zr  Zr79  1  0.90335479  0.49479070  0.61885392  1
  Ta  Ta80  1  0.61373360  0.58204346  0.01298392  1
  Ta  Ta81  1  0.39013484  0.19302217  0.24484332  1
  Ta  Ta82  1  0.18565308  0.77457318  0.49175684  1
  Ta  Ta83  1  0.40389885  0.59122154  0.24601404  1
  Ta  Ta84  1  -0.00908601  0.59542668  0.00413014  1
  Ta  Ta85  1  0.10312242  0.10774236  0.60922929  1
  Ta  Ta86  1  0.90246350  0.91154751  0.62359806  1
  Ta  Ta87  1  0.01080517  0.22503644  0.49940924  1
  Ta  Ta88  1  0.21235989  0.58334168  -0.01468718  1
  Ta  Ta89  1  0.71468118  0.69302294  0.35866344  1
  Ta  Ta90  1  0.69679469  0.10917086  0.38202462  1
  Ta  Ta91  1  0.90443773  0.90291264  0.37821840  1
  Ta  Ta92  1  0.51901202  0.88143653  0.87321051  1
  Ta  Ta93  1  0.40184451  -0.00647554  0.49712893  1
  Ta  Ta94  1  0.00514742  0.02420953  0.73716013  1
  Ta  Ta95  1  0.50227907  0.49452491  0.37914555  1
  Ta  Ta96  1  0.29550154  0.09269637  0.61261039  1
  Ta  Ta97  1  0.52170247  0.50336457  0.87883627  1
  Ta  Ta98  1  0.01198589  0.80938596  0.23611395  1
  Ta  Ta99  1  0.21601015  0.60211780  0.24896411  1
  Ta  Ta100  1  0.69796772  0.50249777  0.61921246  1
  Ta  Ta101  1  0.69716737  0.31166392  0.36710157  1
  Ta  Ta102  1  0.79960861  0.60623092  0.49366874  1
  Ta  Ta103  1  0.48715891  0.30362363  0.13420266  1
  Ta  Ta104  1  0.70376740  0.49873683  0.35936737  1
  Ta  Ta105  1  0.01129126  0.01073785  0.00175266  1
  Ta  Ta106  1  0.50078904  0.68939785  0.60508906  1
  Ta  Ta107  1  0.59935315  0.60159104  0.74352412  1
  Ta  Ta108  1  0.79045184  0.81771377  0.73908773  1
  Ta  Ta109  1  0.01429048  0.20106510  0.26322502  1
  Ta  Ta110  1  0.61313779  0.59116184  0.48533777  1
  Ta  Ta111  1  0.49707342  0.09875427  0.38416892  1
  Ta  Ta112  1  -0.00884322  0.59278845  0.75045917  1
  Ta  Ta113  1  0.16728423  0.38807455  0.50008811  1
  Ta  Ta114  1  0.89158455  0.51673486  0.87331725  1
  Ta  Ta115  1  0.91974952  0.71523480  0.36823346  1
  Ta  Ta116  1  0.80004643  0.61781179  0.00686044  1
  Ta  Ta117  1  0.89869455  0.70420433  0.63656323  1
  Ta  Ta118  1  0.71445537  0.88910683  0.13075505  1
  Ta  Ta119  1  -0.00497965  0.39705948  0.00132906  1
  Ti  Ti120  1  0.90519160  0.51223038  0.13474954  1
  Ti  Ti121  1  0.09757903  0.49397454  0.63189670  1
  Ti  Ti122  1  0.58791287  0.59934029  0.25849814  1
  Ti  Ti123  1  0.58834316  0.79526671  0.25999296  1
  Ti  Ti124  1  0.58941872  0.40364996  0.24549638  1
  Ti  Ti125  1  0.49484720  0.90036455  0.37650715  1
  Ti  Ti126  1  0.91932174  0.11996197  0.87458882  1
  Ti  Ti127  1  0.81785665  0.80846852  0.25259355  1
  Ti  Ti128  1  0.91416978  0.31446663  0.87133775  1
  Ti  Ti129  1  0.20282045  0.38570768  -0.01173634  1
  Ti  Ti130  1  0.89475765  0.70722530  0.12962763  1
  Ti  Ti131  1  0.30669731  0.10601169  0.38738616  1
  Ti  Ti132  1  0.10677497  0.09709413  0.13067149  1
  Ti  Ti133  1  0.91181870  0.11684078  0.61334069  1
  Ti  Ti134  1  0.49830411  0.30525553  0.62316821  1
  Ti  Ti135  1  0.29068304  0.10451052  0.13004013  1
  Ti  Ti136  1  0.39452552  0.41327388  0.02006896  1
  Ti  Ti137  1  0.09622409  0.89967214  0.61245290  1
  Ti  Ti138  1  0.10873266  0.12115917  0.38789526  1
  Ti  Ti139  1  0.80195592  0.00445994  0.50277174  1
  Ti  Ti140  1  0.81130472  0.20612130  -0.00900375  1
  Ti  Ti141  1  0.58716490  0.40206556  0.01317595  1
  Ti  Ti142  1  0.57939238  0.19427233  0.01446584  1
  Ti  Ti143  1  0.80038018  0.21699600  0.50241097  1
  Ti  Ti144  1  0.08679893  0.87888563  0.38151237  1
  Ti  Ti145  1  0.38651750  0.77764139  0.25622942  1
  Ti  Ti146  1  0.17411647  0.19556968  -0.01466462  1
  Ti  Ti147  1  0.80200716  0.00292520  0.24628248  1
  Ti  Ti148  1  0.78544904  0.40600693  0.50097857  1
  Ti  Ti149  1  0.00652462  0.40504266  0.24594405  1
  Ti  Ti150  1  -0.00071563  0.00151013  0.49850470  1
  Ti  Ti151  1  0.60623998  0.20382240  0.74203307  1
  Ti  Ti152  1  0.30203714  0.50449623  0.38466440  1
  Ti  Ti153  1  0.32040325  0.47782488  0.87900490  1
  Ti  Ti154  1  0.81318244  0.01215352  0.74217265  1
  Ti  Ti155  1  0.71597659  0.09417890  0.88026404  1
  Ti  Ti156  1  0.38841583  0.41263719  0.24741158  1
  Ti  Ti157  1  0.71303755  0.88950833  0.87966078  1
  Ti  Ti158  1  0.01117749  0.61331308  0.24347940  1
  Ti  Ti159  1  0.07476933  0.30581507  0.63416605  1
  Mo  Mo160  1  0.09351167  0.30531040  0.36634242  1
  Mo  Mo161  1  0.81991216  0.61093505  0.25643189  1
  Mo  Mo162  1  0.10277114  0.70084942  0.36501443  1
  Mo  Mo163  1  0.60988316  0.40450988  0.49220905  1
  Mo  Mo164  1  0.09519352  0.90566786  0.87198318  1
  Mo  Mo165  1  0.19971615  0.19118507  0.25295479  1
  Mo  Mo166  1  0.50554803  0.69174783  0.87475970  1
  Mo  Mo167  1  0.00267742  0.81041426  0.50850861  1
  Mo  Mo168  1  0.30448285  0.68361407  0.88206017  1
  Mo  Mo169  1  0.19247762  0.78742638  0.25942846  1
  Mo  Mo170  1  0.50574657  0.49728610  0.13548297  1
  Mo  Mo171  1  -0.00623839  0.39695066  0.75255058  1
  Mo  Mo172  1  0.19801424  0.58543706  0.50021135  1
  Mo  Mo173  1  0.08758187  0.08670468  0.87234919  1
  Mo  Mo174  1  0.40314275  0.39729518  0.74719928  1
  Mo  Mo175  1  -0.00799437  0.40740113  0.50285052  1
  Mo  Mo176  1  0.41339694  0.79731220  -0.01292984  1
  Mo  Mo177  1  0.60139574  0.79701429  0.74673587  1
  Mo  Mo178  1  0.30058031  0.50235129  0.12035448  1
  Mo  Mo179  1  0.09615916  0.91007394  0.12592490  1
  Mo  Mo180  1  0.40136713  0.59033690  0.49433701  1
  Mo  Mo181  1  0.20011810  0.41268140  0.25244029  1
  Mo  Mo182  1  0.50459363  0.69361217  0.13831676  1
  Mo  Mo183  1  0.39572941  0.80045920  0.49735682  1
  Mo  Mo184  1  0.28908065  0.30085556  0.88224985  1
  Mo  Mo185  1  0.69782209  0.31430203  0.62231888  1
  Mo  Mo186  1  0.28878794  0.67973299  0.38201438  1
  Mo  Mo187  1  0.89939123  0.90243113  0.13016355  1
  Mo  Mo188  1  0.19727054  0.20018448  0.50103141  1
  Mo  Mo189  1  0.08414002  0.28834637  0.88183960  1
  Mo  Mo190  1  0.69917690  0.50111876  0.87744869  1
  Mo  Mo191  1  -0.00349639  0.20417068  -0.00433681  1
  Mo  Mo192  1  0.71430993  0.90796161  0.62397328  1
  Mo  Mo193  1  0.79976828  0.60501284  0.74284926  1
  Mo  Mo194  1  0.79655651  0.79951111  0.00515746  1
  Mo  Mo195  1  0.80265374  0.40519175  0.25351084  1
  Mo  Mo196  1  0.48630439  0.10507438  0.12655915  1
  Mo  Mo197  1  0.88958178  0.30149391  0.61350711  1
  Mo  Mo198  1  0.39665375  0.18797222  0.49826488  1
  Mo  Mo199  1  -0.00712918  0.20620623  0.74033828  1
