# generated using pymatgen
data_HfZrTaTiMo
_symmetry_space_group_name_H-M   'P 1'
_cell_length_a   15.21437468
_cell_length_b   15.20935809
_cell_length_c   16.86593605
_cell_angle_alpha   90.08585624
_cell_angle_beta   89.95503241
_cell_angle_gamma   90.09566699
_symmetry_Int_Tables_number   1
_chemical_formula_structural   HfZrTaTiMo
_chemical_formula_sum   'Hf40 Zr40 Ta40 Ti40 Mo40'
_cell_volume   3902.78130500
_cell_formula_units_Z   40
loop_
 _symmetry_equiv_pos_site_id
 _symmetry_equiv_pos_as_xyz
  1  'x, y, z'
loop_
 _atom_site_type_symbol
 _atom_site_label
 _atom_site_symmetry_multiplicity
 _atom_site_fract_x
 _atom_site_fract_y
 _atom_site_fract_z
 _atom_site_occupancy
  Hf  Hf0  1  0.20132279  0.81124028  0.02085858  1
  Hf  Hf1  1  0.30562845  0.50669117  0.87049099  1
  Hf  Hf2  1  0.59844875  0.59325280  0.50032658  1
  Hf  Hf3  1  0.81189378  0.39453665  0.26293504  1
  Hf  Hf4  1  0.89429222  0.67564021  0.60993310  1
  Hf  Hf5  1  0.30755877  0.08885312  0.61876715  1
  Hf  Hf6  1  0.21392494  0.01194224  0.02395708  1
  Hf  Hf7  1  0.60217460  0.18242445  0.24551608  1
  Hf  Hf8  1  0.90200731  0.88495023  0.87501417  1
  Hf  Hf9  1  0.60221101  0.60275509  0.24689905  1
  Hf  Hf10  1  -0.01260576  0.41572701  0.74753038  1
  Hf  Hf11  1  0.88380386  0.29979553  0.62650759  1
  Hf  Hf12  1  0.01098461  0.40834902  0.25215202  1
  Hf  Hf13  1  0.21488695  0.40808782  0.51503517  1
  Hf  Hf14  1  0.49303175  0.90436753  0.38676674  1
  Hf  Hf15  1  -0.00640594  0.79629698  0.48428196  1
  Hf  Hf16  1  0.59152472  0.20558868  0.49735585  1
  Hf  Hf17  1  0.40264354  0.82075864  0.02028511  1
  Hf  Hf18  1  0.40387676  0.61398022  -0.00092966  1
  Hf  Hf19  1  0.59655818  0.79245095  0.74420197  1
  Hf  Hf20  1  0.88886950  0.30717863  0.87906726  1
  Hf  Hf21  1  -0.00788158  0.19782299  0.75772731  1
  Hf  Hf22  1  -0.00561064  0.40844574  0.00175546  1
  Hf  Hf23  1  0.90186507  0.88726465  0.62115894  1
  Hf  Hf24  1  0.89822094  0.09810720  0.62148353  1
  Hf  Hf25  1  0.21337703  0.22807500  0.26183618  1
  Hf  Hf26  1  0.29544513  0.30530741  0.87858131  1
  Hf  Hf27  1  0.79327452  -0.00931945  0.74800748  1
  Hf  Hf28  1  0.79703478  0.18857027  -0.00399365  1
  Hf  Hf29  1  0.80504288  0.39498419  0.48550012  1
  Hf  Hf30  1  0.42197450  0.39912481  0.74152618  1
  Hf  Hf31  1  0.59773376  0.18771268  0.00546751  1
  Hf  Hf32  1  0.70100636  0.68308471  0.87248634  1
  Hf  Hf33  1  0.10445615  0.30461475  0.12047352  1
  Hf  Hf34  1  -0.00699594  0.20279659  0.25687463  1
  Hf  Hf35  1  0.69696958  0.10002494  0.62284205  1
  Hf  Hf36  1  0.61395484  0.80307567  0.24442648  1
  Hf  Hf37  1  0.19507491  0.61530785  0.75442034  1
  Hf  Hf38  1  0.09401317  0.30624293  0.62380786  1
  Hf  Hf39  1  0.72175003  0.50386190  0.61584701  1
  Zr  Zr40  1  0.80632136  -0.00813788  0.48741352  1
  Zr  Zr41  1  0.10025033  0.30466637  0.88108185  1
  Zr  Zr42  1  0.30997657  0.12244563  0.14145640  1
  Zr  Zr43  1  0.69188686  0.88995231  0.60939570  1
  Zr  Zr44  1  0.09079891  0.71857115  0.88376105  1
  Zr  Zr45  1  0.42812199  0.40066635  0.51949949  1
  Zr  Zr46  1  0.01480081  -0.00623412  0.74867319  1
  Zr  Zr47  1  0.49243644  0.70001805  0.37796699  1
  Zr  Zr48  1  0.49286534  0.69543323  0.61367935  1
  Zr  Zr49  1  0.09363118  0.50961219  0.87687522  1
  Zr  Zr50  1  -0.00885014  0.20339907  0.48206188  1
  Zr  Zr51  1  0.39906569  0.18242780  0.75834528  1
  Zr  Zr52  1  0.70665911  0.50094833  0.12507673  1
  Zr  Zr53  1  0.10886929  0.92409127  0.88758138  1
  Zr  Zr54  1  0.11171389  0.52900627  0.38675296  1
  Zr  Zr55  1  0.51390322  0.30273056  0.88042401  1
  Zr  Zr56  1  -0.00515429  -0.00172692  0.02708700  1
  Zr  Zr57  1  0.49958572  0.49294588  0.36745124  1
  Zr  Zr58  1  0.60776269  0.79734354  0.00869141  1
  Zr  Zr59  1  0.38856399  0.18793969  -0.00969306  1
  Zr  Zr60  1  0.71207940  0.28640712  0.12961619  1
  Zr  Zr61  1  0.39937270  0.79768157  0.23473115  1
  Zr  Zr62  1  0.10217318  0.09666472  0.61740798  1
  Zr  Zr63  1  0.58956863  0.39157824  0.23466822  1
  Zr  Zr64  1  0.37620938  0.39124089  0.23636463  1
  Zr  Zr65  1  0.12343702  0.50953049  0.12174382  1
  Zr  Zr66  1  0.29574186  0.89521701  0.35790803  1
  Zr  Zr67  1  0.90430378  0.51442191  0.12718757  1
  Zr  Zr68  1  0.19864018  0.81767413  0.75411094  1
  Zr  Zr69  1  0.19495417  0.19621311  0.75289760  1
  Zr  Zr70  1  0.10843389  0.32281102  0.38021546  1
  Zr  Zr71  1  0.09288404  0.90332426  0.35820883  1
  Zr  Zr72  1  0.90064440  0.08592584  0.87813913  1
  Zr  Zr73  1  0.41443779  0.61532797  0.75828173  1
  Zr  Zr74  1  0.31403584  0.52027663  0.62897531  1
  Zr  Zr75  1  0.20422601  0.19756298  0.48830179  1
  Zr  Zr76  1  0.78401278  -0.00477392  0.25629731  1
  Zr  Zr77  1  0.81189337  0.61729789  0.26909193  1
  Zr  Zr78  1  0.68489351  0.30379086  0.37067331  1
  Zr  Zr79  1  0.67813201  0.30853405  0.62247243  1
  Ta  Ta80  1  0.19925322  0.00289748  0.23482982  1
  Ta  Ta81  1  0.47999974  0.29081593  0.36875424  1
  Ta  Ta82  1  0.59321892  -0.00861445  0.00789932  1
  Ta  Ta83  1  0.68455993  0.89437712  0.38853837  1
  Ta  Ta84  1  0.50426372  0.09473871  0.37616805  1
  Ta  Ta85  1  0.00906828  -0.00230317  0.49199418  1
  Ta  Ta86  1  0.10801466  0.89662578  0.61291275  1
  Ta  Ta87  1  0.80135202  0.78349899  0.74783206  1
  Ta  Ta88  1  0.30531205  0.72332382  0.88034044  1
  Ta  Ta89  1  0.40096736  0.81776690  0.74708473  1
  Ta  Ta90  1  -0.00308271  0.79118041  0.74141774  1
  Ta  Ta91  1  0.30427417  0.49616352  0.38004633  1
  Ta  Ta92  1  0.78586159  0.39913287  0.75882366  1
  Ta  Ta93  1  0.49377437  0.50111973  0.11935893  1
  Ta  Ta94  1  0.78507086  -0.01478945  0.00718573  1
  Ta  Ta95  1  0.87865500  0.87990319  0.13482633  1
  Ta  Ta96  1  -0.00719791  -0.00417823  0.23427288  1
  Ta  Ta97  1  0.20298853  0.60970712  -0.00782340  1
  Ta  Ta98  1  0.09545221  0.51735296  0.61885365  1
  Ta  Ta99  1  0.51544910  0.50658069  0.88272316  1
  Ta  Ta100  1  0.31598972  0.10093004  0.36185600  1
  Ta  Ta101  1  0.60802934  0.59429291  0.00681898  1
  Ta  Ta102  1  0.72797584  0.70516618  0.12430130  1
  Ta  Ta103  1  0.38147940  0.79521359  0.49548305  1
  Ta  Ta104  1  0.68539748  0.08746876  0.87255494  1
  Ta  Ta105  1  0.40323813  0.40848931  0.00127493  1
  Ta  Ta106  1  0.48974840  0.90579552  0.60350631  1
  Ta  Ta107  1  0.48859152  0.07609835  0.87700120  1
  Ta  Ta108  1  0.00078132  0.19507275  0.00361979  1
  Ta  Ta109  1  -0.01942709  0.79127969  0.25543651  1
  Ta  Ta110  1  0.80841942  0.78836420  -0.00405516  1
  Ta  Ta111  1  0.79596458  0.19218147  0.47833369  1
  Ta  Ta112  1  0.29131619  0.71530640  0.62236987  1
  Ta  Ta113  1  0.39816735  0.19821262  0.50089614  1
  Ta  Ta114  1  0.58389315  -0.00546147  0.74593119  1
  Ta  Ta115  1  0.09751086  0.70601560  0.61825488  1
  Ta  Ta116  1  0.31954703  0.92131949  0.88169946  1
  Ta  Ta117  1  0.20725519  -0.00734074  0.48761360  1
  Ta  Ta118  1  0.69762514  0.89299320  0.87117171  1
  Ta  Ta119  1  0.59893941  0.19734661  0.75613634  1
  Ti  Ti120  1  -0.00348435  0.80517751  0.01628906  1
  Ti  Ti121  1  0.50042005  0.09630911  0.61998437  1
  Ti  Ti122  1  0.60982229  0.58135739  0.74350071  1
  Ti  Ti123  1  0.29166989  0.68689486  0.12781799  1
  Ti  Ti124  1  0.90217197  0.29862399  0.12269497  1
  Ti  Ti125  1  0.70145374  0.50806738  0.38001294  1
  Ti  Ti126  1  0.20041276  0.40795207  0.73797502  1
  Ti  Ti127  1  0.09012558  0.70117284  0.12444510  1
  Ti  Ti128  1  0.49792810  0.08692249  0.12784720  1
  Ti  Ti129  1  -0.00247522  0.41042049  0.50560773  1
  Ti  Ti130  1  0.10896151  0.09572418  0.36276435  1
  Ti  Ti131  1  0.59282657  -0.00810449  0.24409195  1
  Ti  Ti132  1  0.89821176  0.68827533  0.87212494  1
  Ti  Ti133  1  0.90719803  0.08475842  0.36881401  1
  Ti  Ti134  1  0.70160910  0.69786145  0.61824261  1
  Ti  Ti135  1  0.60024812  0.39450832  0.01143902  1
  Ti  Ti136  1  0.09848635  0.11241976  0.13438923  1
  Ti  Ti137  1  0.91335946  0.50447247  0.38122384  1
  Ti  Ti138  1  0.21656402  0.00625156  0.75375773  1
  Ti  Ti139  1  0.01654140  0.61164877  0.25526011  1
  Ti  Ti140  1  0.50496532  0.89553657  0.87584588  1
  Ti  Ti141  1  0.79097656  0.77965772  0.47690694  1
  Ti  Ti142  1  0.88243217  0.10440018  0.13150022  1
  Ti  Ti143  1  0.80969837  0.58482476  0.75324495  1
  Ti  Ti144  1  0.28646079  0.68730689  0.36848361  1
  Ti  Ti145  1  0.48456272  0.28835833  0.11952094  1
  Ti  Ti146  1  0.29968016  0.90142269  0.61670237  1
  Ti  Ti147  1  -0.00548135  0.60616520  0.74687916  1
  Ti  Ti148  1  0.18729505  0.79214979  0.23581362  1
  Ti  Ti149  1  0.19203407  0.79456892  0.48840119  1
  Ti  Ti150  1  0.79507304  0.40206110  -0.00040141  1
  Ti  Ti151  1  0.50921455  0.69541298  0.12556235  1
  Ti  Ti152  1  0.28732773  0.31868029  0.10117953  1
  Ti  Ti153  1  -0.01219540  0.61350201  0.00052206  1
  Ti  Ti154  1  0.50334341  0.70640291  0.87952544  1
  Ti  Ti155  1  0.78767186  0.19929919  0.76313157  1
  Ti  Ti156  1  0.39000161  0.59206650  0.24105242  1
  Ti  Ti157  1  0.30698375  0.29308258  0.63201138  1
  Ti  Ti158  1  0.79969108  0.19207831  0.27004543  1
  Ti  Ti159  1  0.70081526  0.48449319  0.88345133  1
  Mo  Mo160  1  0.88589153  0.51118171  0.88271416  1
  Mo  Mo161  1  0.20742659  0.41182808  -0.00833794  1
  Mo  Mo162  1  0.79801448  0.80088095  0.26956876  1
  Mo  Mo163  1  0.90214599  0.29891737  0.37484485  1
  Mo  Mo164  1  0.90515421  0.69984345  0.12597354  1
  Mo  Mo165  1  0.69125867  0.69826761  0.37983517  1
  Mo  Mo166  1  0.50440944  0.90408736  0.13154762  1
  Mo  Mo167  1  0.80055438  0.59741785  -0.00631875  1
  Mo  Mo168  1  0.38599515  0.60398509  0.49392867  1
  Mo  Mo169  1  0.28597718  0.09288043  0.87955773  1
  Mo  Mo170  1  0.69750183  0.08816311  0.12205198  1
  Mo  Mo171  1  0.70156669  0.89711071  0.12443006  1
  Mo  Mo172  1  0.21198137  0.61741214  0.50665439  1
  Mo  Mo173  1  0.40260383  -0.01001652  0.74465706  1
  Mo  Mo174  1  0.60137112  0.40120698  0.49463262  1
  Mo  Mo175  1  0.18873473  0.20188973  0.00131390  1
  Mo  Mo176  1  0.40795737  0.00414718  0.25012246  1
  Mo  Mo177  1  0.40756860  0.00058236  0.00853396  1
  Mo  Mo178  1  0.30543282  0.50782146  0.11031648  1
  Mo  Mo179  1  0.30023251  0.90520144  0.14500707  1
  Mo  Mo180  1  0.10751168  0.70916874  0.36682978  1
  Mo  Mo181  1  0.39183186  0.00588665  0.49477874  1
  Mo  Mo182  1  0.69110976  0.09243716  0.38030834  1
  Mo  Mo183  1  0.00765330  0.59976798  0.50086160  1
  Mo  Mo184  1  0.59483240  0.00648396  0.50032092  1
  Mo  Mo185  1  0.52850680  0.49147302  0.63495705  1
  Mo  Mo186  1  0.90639666  0.49104745  0.62333871  1
  Mo  Mo187  1  0.09031644  0.89610488  0.14175903  1
  Mo  Mo188  1  0.20597544  0.41815841  0.25199448  1
  Mo  Mo189  1  0.21092140  0.60544473  0.24699048  1
  Mo  Mo190  1  0.41327644  0.20037009  0.24901224  1
  Mo  Mo191  1  0.49875173  0.28209200  0.63503972  1
  Mo  Mo192  1  0.59681803  0.79825781  0.50295424  1
  Mo  Mo193  1  0.90944060  0.68915058  0.38470670  1
  Mo  Mo194  1  0.60829749  0.40432379  0.75695192  1
  Mo  Mo195  1  0.69815841  0.29366861  0.88096395  1
  Mo  Mo196  1  0.89415759  0.89623631  0.36684260  1
  Mo  Mo197  1  0.30972758  0.30674836  0.38465986  1
  Mo  Mo198  1  0.10729348  0.10645961  0.89199666  1
  Mo  Mo199  1  0.80632593  0.59490527  0.48173787  1
