# generated using pymatgen
data_HfZrTaTiMo
_symmetry_space_group_name_H-M   'P 1'
_cell_length_a   15.21569791
_cell_length_b   15.21981670
_cell_length_c   16.85632919
_cell_angle_alpha   89.95065080
_cell_angle_beta   89.94219476
_cell_angle_gamma   90.02167935
_symmetry_Int_Tables_number   1
_chemical_formula_structural   HfZrTaTiMo
_chemical_formula_sum   'Hf40 Zr40 Ta40 Ti40 Mo40'
_cell_volume   3903.58724265
_cell_formula_units_Z   40
loop_
 _symmetry_equiv_pos_site_id
 _symmetry_equiv_pos_as_xyz
  1  'x, y, z'
loop_
 _atom_site_type_symbol
 _atom_site_label
 _atom_site_symmetry_multiplicity
 _atom_site_fract_x
 _atom_site_fract_y
 _atom_site_fract_z
 _atom_site_occupancy
  Hf  Hf0  1  0.30456281  0.90345587  0.62933579  1
  Hf  Hf1  1  0.38712364  0.61044092  0.26342366  1
  Hf  Hf2  1  0.40887578  0.00960229  0.24818265  1
  Hf  Hf3  1  0.88529018  0.69909799  0.61060429  1
  Hf  Hf4  1  0.39993564  0.40113671  0.73935737  1
  Hf  Hf5  1  0.40996821  0.79896178  0.74466281  1
  Hf  Hf6  1  0.42251540  0.20212025  0.75300416  1
  Hf  Hf7  1  0.30594739  0.51867055  0.12372150  1
  Hf  Hf8  1  -0.00136019  0.39013746  0.75685133  1
  Hf  Hf9  1  0.70724431  0.31858151  0.12613738  1
  Hf  Hf10  1  0.59174442  0.19792107  0.24480065  1
  Hf  Hf11  1  0.39958104  -0.01569317  -0.00282397  1
  Hf  Hf12  1  0.09778258  0.90466464  0.61849895  1
  Hf  Hf13  1  0.81668217  0.39823845  0.26816524  1
  Hf  Hf14  1  0.49490443  0.68989487  0.88937306  1
  Hf  Hf15  1  0.29845795  0.70539633  0.86510903  1
  Hf  Hf16  1  0.20331688  0.78878506  0.49168315  1
  Hf  Hf17  1  0.40355076  -0.00041665  0.76100198  1
  Hf  Hf18  1  0.09688781  0.29420102  0.11109508  1
  Hf  Hf19  1  0.91037250  0.90745781  0.87231215  1
  Hf  Hf20  1  0.88552373  0.48221539  0.12016327  1
  Hf  Hf21  1  0.60262735  0.79121402  0.74047195  1
  Hf  Hf22  1  0.59615919  0.40504404  0.49699899  1
  Hf  Hf23  1  0.10539726  0.89516212  0.36230879  1
  Hf  Hf24  1  0.31445981  0.10237042  0.62765695  1
  Hf  Hf25  1  0.71784521  0.91856584  0.14285879  1
  Hf  Hf26  1  0.70140093  0.29174202  0.60715434  1
  Hf  Hf27  1  0.20228170  0.60723446  -0.00769349  1
  Hf  Hf28  1  0.20792095  0.39765753  -0.00330509  1
  Hf  Hf29  1  0.69192568  0.70117254  0.88508892  1
  Hf  Hf30  1  0.38646683  0.20771271  0.23178489  1
  Hf  Hf31  1  0.49778961  0.28297148  0.60834871  1
  Hf  Hf32  1  0.19735518  0.39778691  0.24600963  1
  Hf  Hf33  1  -0.00002142  0.59891910  0.73791450  1
  Hf  Hf34  1  0.28782370  0.50395285  0.62200800  1
  Hf  Hf35  1  0.19169349  0.19113303  0.24216813  1
  Hf  Hf36  1  0.17807790  0.40936357  0.50289648  1
  Hf  Hf37  1  0.79161227  0.20149619  0.74867721  1
  Hf  Hf38  1  0.89704943  0.69939411  0.13964344  1
  Hf  Hf39  1  0.90516514  0.89637469  0.36498651  1
  Zr  Zr40  1  0.41163598  0.80328549  0.26111946  1
  Zr  Zr41  1  0.51801764  0.89207556  0.12101187  1
  Zr  Zr42  1  0.58676893  0.57646226  0.01538116  1
  Zr  Zr43  1  0.11151104  0.69894973  0.14611144  1
  Zr  Zr44  1  0.80141206  0.81830573  0.00560306  1
  Zr  Zr45  1  0.09054271  0.49456286  0.12509794  1
  Zr  Zr46  1  -0.00559339  0.19185289  0.51101093  1
  Zr  Zr47  1  -0.00286797  0.17141113  0.73572334  1
  Zr  Zr48  1  0.20677441  -0.00130387  0.49061855  1
  Zr  Zr49  1  0.60820948  0.41543941  0.26388080  1
  Zr  Zr50  1  0.52230509  0.90278312  0.37376970  1
  Zr  Zr51  1  0.80006789  0.80587009  0.74818666  1
  Zr  Zr52  1  0.89526073  0.69463900  0.37705840  1
  Zr  Zr53  1  0.20640291  0.20454695  0.74559301  1
  Zr  Zr54  1  0.79679604  0.40651034  0.74197846  1
  Zr  Zr55  1  0.10458351  0.28783384  0.87973865  1
  Zr  Zr56  1  0.20231535  0.81124268  -0.00212193  1
  Zr  Zr57  1  0.88855276  0.49936269  0.87439846  1
  Zr  Zr58  1  0.09021590  0.08267534  0.88867830  1
  Zr  Zr59  1  0.39815277  0.40905755  0.25532255  1
  Zr  Zr60  1  0.41263928  0.80027781  0.50104757  1
  Zr  Zr61  1  0.10434544  0.68516868  0.36199491  1
  Zr  Zr62  1  0.70656434  0.28499921  0.38677399  1
  Zr  Zr63  1  0.00759779  0.01711324  0.24776481  1
  Zr  Zr64  1  0.50544722  0.11205057  0.89042544  1
  Zr  Zr65  1  0.59480096  0.39606479  0.73335133  1
  Zr  Zr66  1  0.78894065  0.59277607  0.00829114  1
  Zr  Zr67  1  0.90103621  0.70548914  0.87455175  1
  Zr  Zr68  1  0.79062841  0.19879540  0.00015482  1
  Zr  Zr69  1  0.41711994  0.01003286  0.49100748  1
  Zr  Zr70  1  0.68162697  0.71289652  0.13146418  1
  Zr  Zr71  1  0.60525524  0.00304363  0.75099967  1
  Zr  Zr72  1  0.28878737  0.10479939  0.89255572  1
  Zr  Zr73  1  0.19682285  0.19869002  0.50771517  1
  Zr  Zr74  1  -0.01457468  0.21275765  0.24737096  1
  Zr  Zr75  1  0.00101839  0.60164786  -0.00097762  1
  Zr  Zr76  1  0.70366744  0.52591820  0.60891403  1
  Zr  Zr77  1  0.49039945  0.29376523  0.37822473  1
  Zr  Zr78  1  0.41806412  0.40866871  0.00761993  1
  Zr  Zr79  1  0.29997213  0.69419474  0.62494376  1
  Ta  Ta80  1  0.91083899  0.89509234  0.14726317  1
  Ta  Ta81  1  0.09554335  0.31001978  0.63033831  1
  Ta  Ta82  1  0.50302209  0.48475059  0.86989809  1
  Ta  Ta83  1  0.30472418  0.10664816  0.37013959  1
  Ta  Ta84  1  -0.01329458  0.57876229  0.25152207  1
  Ta  Ta85  1  0.00083823  0.79757523  0.50322206  1
  Ta  Ta86  1  0.30603757  0.88962464  0.12835806  1
  Ta  Ta87  1  0.28549882  0.30229555  0.37922097  1
  Ta  Ta88  1  0.00371145  0.80039755  0.73497599  1
  Ta  Ta89  1  0.70451769  0.10249397  0.87455186  1
  Ta  Ta90  1  0.88164689  0.08954396  0.12197437  1
  Ta  Ta91  1  0.78838849  0.18533277  0.24671710  1
  Ta  Ta92  1  0.80841933  0.40296592  0.49679434  1
  Ta  Ta93  1  0.67878756  0.30326040  0.87622537  1
  Ta  Ta94  1  0.09873576  0.10516306  0.37409666  1
  Ta  Ta95  1  0.30757572  0.50490818  0.86958269  1
  Ta  Ta96  1  0.59106099  0.21219211  0.01254441  1
  Ta  Ta97  1  0.41005447  0.59646447  0.74677568  1
  Ta  Ta98  1  0.11135289  0.90007371  0.14234520  1
  Ta  Ta99  1  0.49289663  0.51134008  0.39062955  1
  Ta  Ta100  1  0.28862299  0.08993950  0.10933868  1
  Ta  Ta101  1  0.00775725  0.80253726  0.01246329  1
  Ta  Ta102  1  0.47356408  0.69626072  0.11193954  1
  Ta  Ta103  1  0.19165873  0.80111176  0.74634447  1
  Ta  Ta104  1  0.09014291  0.49108847  0.36779883  1
  Ta  Ta105  1  0.62251736  0.00469232  0.00108736  1
  Ta  Ta106  1  -0.00601005  -0.01393691  0.01606493  1
  Ta  Ta107  1  0.01939305  0.59174835  0.51142800  1
  Ta  Ta108  1  0.81192233  0.00826421  0.74215641  1
  Ta  Ta109  1  0.18723900  0.00285588  0.74652535  1
  Ta  Ta110  1  0.70074985  0.71162962  0.37243475  1
  Ta  Ta111  1  0.70339659  0.52217495  0.39103611  1
  Ta  Ta112  1  -0.01211581  0.39187855  -0.01474768  1
  Ta  Ta113  1  0.38601794  0.40227785  0.49657128  1
  Ta  Ta114  1  0.31679191  0.30608101  0.87765192  1
  Ta  Ta115  1  0.51347821  0.69683490  0.38515743  1
  Ta  Ta116  1  0.09076339  0.30172413  0.37547457  1
  Ta  Ta117  1  0.29819073  0.30535909  0.61988644  1
  Ta  Ta118  1  0.71542064  0.89917198  0.36618445  1
  Ta  Ta119  1  0.69871794  0.09630887  0.61644031  1
  Ti  Ti120  1  0.51271597  0.90905487  0.62149996  1
  Ti  Ti121  1  0.00180481  0.00216445  0.49456345  1
  Ti  Ti122  1  0.39509426  0.19777329  0.49236252  1
  Ti  Ti123  1  0.61288821  -0.00536782  0.49715545  1
  Ti  Ti124  1  0.61414906  0.01362947  0.25579533  1
  Ti  Ti125  1  0.50370006  0.31912899  0.13065447  1
  Ti  Ti126  1  0.90861562  0.49142588  0.61303940  1
  Ti  Ti127  1  0.51126270  0.88880570  0.88610918  1
  Ti  Ti128  1  0.59317766  0.17433242  0.48790125  1
  Ti  Ti129  1  0.90598097  0.29774541  0.38963260  1
  Ti  Ti130  1  0.29163907  0.90258748  0.86897433  1
  Ti  Ti131  1  0.21627645  -0.00232681  0.25496757  1
  Ti  Ti132  1  0.59495099  0.59768613  0.74527128  1
  Ti  Ti133  1  0.78345708  0.59461767  0.24885479  1
  Ti  Ti134  1  0.28354165  0.51227180  0.38453896  1
  Ti  Ti135  1  0.58701809  0.60560335  0.24792415  1
  Ti  Ti136  1  0.71446806  0.89903415  0.61827767  1
  Ti  Ti137  1  0.19373240  0.60168510  0.75108955  1
  Ti  Ti138  1  0.50260444  0.09612050  0.11335518  1
  Ti  Ti139  1  0.69056346  0.49776601  0.87270471  1
  Ti  Ti140  1  0.88735559  0.29186712  0.87760651  1
  Ti  Ti141  1  0.22447143  0.78865235  0.26127529  1
  Ti  Ti142  1  0.09366253  0.70631429  0.86924937  1
  Ti  Ti143  1  0.80491515  0.00278202  0.49722765  1
  Ti  Ti144  1  0.88652187  0.10380180  0.37721707  1
  Ti  Ti145  1  0.89602086  0.29494214  0.61758729  1
  Ti  Ti146  1  0.39163010  0.21305617  0.01664929  1
  Ti  Ti147  1  0.09772139  0.09406318  0.11013147  1
  Ti  Ti148  1  0.90129486  0.90753291  0.61636830  1
  Ti  Ti149  1  -0.00792597  0.19138318  0.00075421  1
  Ti  Ti150  1  0.09853500  0.89588388  0.87051345  1
  Ti  Ti151  1  0.90760032  0.49903374  0.39075753  1
  Ti  Ti152  1  0.61910886  0.79585955  0.51254801  1
  Ti  Ti153  1  0.10186953  0.50089059  0.87301719  1
  Ti  Ti154  1  0.89983307  0.29522082  0.11657164  1
  Ti  Ti155  1  0.78815702  0.60850407  0.74997734  1
  Ti  Ti156  1  0.20040603  0.40522726  0.75353904  1
  Ti  Ti157  1  0.48945531  0.51664388  0.60463544  1
  Ti  Ti158  1  0.70347049  0.90552813  0.87811635  1
  Ti  Ti159  1  0.89619037  0.09411712  0.88058408  1
  Mo  Mo160  1  0.88961989  0.08739739  0.61743584  1
  Mo  Mo161  1  0.50168284  0.10529805  0.36735435  1
  Mo  Mo162  1  0.30206408  0.90478405  0.36519612  1
  Mo  Mo163  1  0.80151312  0.79669639  0.25203237  1
  Mo  Mo164  1  0.79096931  0.39751729  -0.01081740  1
  Mo  Mo165  1  0.29971934  0.70968124  0.12439543  1
  Mo  Mo166  1  0.09756653  0.49974486  0.63895979  1
  Mo  Mo167  1  0.59558290  0.61455773  0.49952488  1
  Mo  Mo168  1  0.69758785  0.08801472  0.38162870  1
  Mo  Mo169  1  0.19456053  0.59944254  0.49924714  1
  Mo  Mo170  1  0.00747781  0.79560115  0.24542982  1
  Mo  Mo171  1  0.09988947  0.09355583  0.62690321  1
  Mo  Mo172  1  0.80627254  0.00202396  -0.00102654  1
  Mo  Mo173  1  -0.00588260  0.39502300  0.25404514  1
  Mo  Mo174  1  -0.00471815  0.39690892  0.50706186  1
  Mo  Mo175  1  0.59597036  0.81069605  -0.00299646  1
  Mo  Mo176  1  0.50970511  0.69072715  0.61995289  1
  Mo  Mo177  1  0.51419188  0.09500795  0.62252012  1
  Mo  Mo178  1  0.39709843  0.79874968  -0.00453812  1
  Mo  Mo179  1  0.79785372  0.19192910  0.50067904  1
  Mo  Mo180  1  0.69817370  0.70698521  0.62362183  1
  Mo  Mo181  1  0.20131502  0.59261647  0.25613006  1
  Mo  Mo182  1  0.80599009  0.60681827  0.49265260  1
  Mo  Mo183  1  0.80572164  0.01023897  0.25910521  1
  Mo  Mo184  1  0.20285856  0.19812468  0.00550038  1
  Mo  Mo185  1  0.09842653  0.70148768  0.62399707  1
  Mo  Mo186  1  0.69772884  0.50275404  0.14165119  1
  Mo  Mo187  1  0.50452380  0.50703768  0.13929636  1
  Mo  Mo188  1  0.80081446  0.81466198  0.50003764  1
  Mo  Mo189  1  -0.00173381  -0.01375185  0.74616700  1
  Mo  Mo190  1  0.19108784  -0.01189758  0.00897975  1
  Mo  Mo191  1  0.50047538  0.30265690  0.87996707  1
  Mo  Mo192  1  0.39030019  0.59732467  -0.00720088  1
  Mo  Mo193  1  0.29762679  0.29899928  0.11972645  1
  Mo  Mo194  1  0.30894170  0.69782912  0.38687007  1
  Mo  Mo195  1  0.60993547  0.19655550  0.74767493  1
  Mo  Mo196  1  0.60575710  0.79328061  0.25393369  1
  Mo  Mo197  1  0.69024217  0.10562266  0.12443672  1
  Mo  Mo198  1  0.39228521  0.60097502  0.49133858  1
  Mo  Mo199  1  0.61113288  0.39752388  0.00272400  1
