# generated using pymatgen
data_HfZrTaTiMo
_symmetry_space_group_name_H-M   'P 1'
_cell_length_a   15.18515107
_cell_length_b   15.20341337
_cell_length_c   16.79378430
_cell_angle_alpha   89.96954439
_cell_angle_beta   90.06124918
_cell_angle_gamma   90.05895454
_symmetry_Int_Tables_number   1
_chemical_formula_structural   HfZrTaTiMo
_chemical_formula_sum   'Hf40 Zr40 Ta40 Ti40 Mo40'
_cell_volume   3877.11115898
_cell_formula_units_Z   40
loop_
 _symmetry_equiv_pos_site_id
 _symmetry_equiv_pos_as_xyz
  1  'x, y, z'
loop_
 _atom_site_type_symbol
 _atom_site_label
 _atom_site_symmetry_multiplicity
 _atom_site_fract_x
 _atom_site_fract_y
 _atom_site_fract_z
 _atom_site_occupancy
  Hf  Hf0  1  0.58728942  0.60448932  0.75303942  1
  Hf  Hf1  1  0.59553735  0.19942664  0.77495697  1
  Hf  Hf2  1  0.38246742  0.00467722  0.75824096  1
  Hf  Hf3  1  0.59416766  0.59232610  0.49839621  1
  Hf  Hf4  1  0.47852749  0.68586089  0.62036222  1
  Hf  Hf5  1  0.10031504  0.69659777  0.63824746  1
  Hf  Hf6  1  0.38723761  0.21331321  0.76566973  1
  Hf  Hf7  1  0.29921054  0.50205853  0.88075829  1
  Hf  Hf8  1  0.80706449  0.80574162  0.00607866  1
  Hf  Hf9  1  0.18925316  0.19058935  0.02019483  1
  Hf  Hf10  1  0.90579389  0.50345719  0.36109766  1
  Hf  Hf11  1  0.89428301  0.70019719  0.63042365  1
  Hf  Hf12  1  0.78380637  0.20054516  -0.01541958  1
  Hf  Hf13  1  0.50762773  0.50826144  0.35714751  1
  Hf  Hf14  1  0.07707895  0.87558862  0.10872186  1
  Hf  Hf15  1  0.79143687  0.80829096  0.74928642  1
  Hf  Hf16  1  0.01280874  0.80136635  0.50455683  1
  Hf  Hf17  1  0.71236958  0.29127175  0.62480066  1
  Hf  Hf18  1  0.29117759  0.89437612  0.88829024  1
  Hf  Hf19  1  0.20364602  0.60920137  0.49711137  1
  Hf  Hf20  1  0.81267544  0.39573572  0.76848893  1
  Hf  Hf21  1  0.79359658  0.80473043  0.49196786  1
  Hf  Hf22  1  0.00225170  0.80770100  0.75423275  1
  Hf  Hf23  1  0.19077090  -0.00749602  0.22586354  1
  Hf  Hf24  1  0.50208472  0.31529935  0.62735536  1
  Hf  Hf25  1  0.01026554  0.01298011  0.51366222  1
  Hf  Hf26  1  0.71217459  0.51284607  0.88362360  1
  Hf  Hf27  1  0.29590561  0.89806993  0.36213661  1
  Hf  Hf28  1  0.31482854  0.50574230  0.63038059  1
  Hf  Hf29  1  0.39795078  -0.00238912  0.50022087  1
  Hf  Hf30  1  0.01274513  0.00829563  0.74470199  1
  Hf  Hf31  1  0.49796694  0.29728088  0.11142392  1
  Hf  Hf32  1  0.90963556  0.50896423  0.63474869  1
  Hf  Hf33  1  0.58785483  0.80003280  0.00997427  1
  Hf  Hf34  1  0.80573079  0.61151746  0.01795624  1
  Hf  Hf35  1  0.60087357  -0.00312235  0.75991832  1
  Hf  Hf36  1  0.50275964  0.50560593  0.11627603  1
  Hf  Hf37  1  0.70156160  0.92347646  0.11925609  1
  Hf  Hf38  1  -0.01327023  0.19156241  0.01615043  1
  Hf  Hf39  1  0.39984040  0.21325253  0.25507410  1
  Zr  Zr40  1  0.49610147  0.88600711  0.87479017  1
  Zr  Zr41  1  0.21583332  0.39515240  0.25339609  1
  Zr  Zr42  1  0.92188743  0.51037801  0.88710776  1
  Zr  Zr43  1  0.20978290  0.39336226  0.49215183  1
  Zr  Zr44  1  0.60516239  0.39592817  0.76519490  1
  Zr  Zr45  1  0.09281023  0.08834211  0.35657886  1
  Zr  Zr46  1  0.10624392  0.29708213  0.62946745  1
  Zr  Zr47  1  0.69280311  0.70279900  0.62850935  1
  Zr  Zr48  1  0.59070377  0.80327704  0.49351432  1
  Zr  Zr49  1  0.19542884  0.58980454  0.24066000  1
  Zr  Zr50  1  0.50461624  0.09571127  0.36949272  1
  Zr  Zr51  1  0.38624415  0.20985568  0.48623801  1
  Zr  Zr52  1  0.70233416  0.49855530  0.63039548  1
  Zr  Zr53  1  0.50279842  0.90036218  0.35699109  1
  Zr  Zr54  1  0.19054514  0.78808437  0.23456573  1
  Zr  Zr55  1  0.09690885  0.29463774  0.36865258  1
  Zr  Zr56  1  0.79935578  0.39993987  0.22530729  1
  Zr  Zr57  1  0.21986973  0.38307166  0.76154896  1
  Zr  Zr58  1  -0.01302537  0.21856920  0.50551050  1
  Zr  Zr59  1  0.31938185  0.09520586  0.12814618  1
  Zr  Zr60  1  0.60527266  0.39528916  0.23972083  1
  Zr  Zr61  1  0.79743272  0.82464754  0.25065065  1
  Zr  Zr62  1  0.41511730  0.41686999  0.49518919  1
  Zr  Zr63  1  0.90635635  0.70018162  0.36136875  1
  Zr  Zr64  1  0.81122966  0.39767333  0.01334313  1
  Zr  Zr65  1  0.00907924  0.39550831  0.23123934  1
  Zr  Zr66  1  0.02200458  0.40799399  0.76566599  1
  Zr  Zr67  1  0.49249477  0.70026276  0.35937331  1
  Zr  Zr68  1  0.70401652  0.89857450  0.87958626  1
  Zr  Zr69  1  0.89803403  0.91604446  0.38375612  1
  Zr  Zr70  1  0.49601574  0.91430415  0.13820437  1
  Zr  Zr71  1  0.81372149  0.40038729  0.49726423  1
  Zr  Zr72  1  0.50499456  0.50810589  0.89484132  1
  Zr  Zr73  1  0.50010920  0.89382114  0.63176270  1
  Zr  Zr74  1  0.59844792  0.20263247  0.49387356  1
  Zr  Zr75  1  0.48561813  0.10587548  0.62612816  1
  Zr  Zr76  1  0.19401529  0.18105515  0.49812147  1
  Zr  Zr77  1  0.69695800  0.09339332  0.62052957  1
  Zr  Zr78  1  0.89483953  0.11201790  0.37367976  1
  Zr  Zr79  1  0.10122441  0.67553858  0.86986752  1
  Ta  Ta80  1  0.80276560  0.00992695  -0.01018675  1
  Ta  Ta81  1  0.70623423  0.50362971  0.36650194  1
  Ta  Ta82  1  0.00750423  0.38690706  0.00804983  1
  Ta  Ta83  1  0.80908427  0.00672587  0.75362566  1
  Ta  Ta84  1  0.40266068  0.62442421  0.00041862  1
  Ta  Ta85  1  0.19348169  0.20032008  0.23122579  1
  Ta  Ta86  1  0.40472565  0.00145690  -0.00561850  1
  Ta  Ta87  1  0.10176022  0.28039379  0.88294103  1
  Ta  Ta88  1  0.59982318  0.02439425  -0.01304392  1
  Ta  Ta89  1  0.89722142  0.30261491  0.35903593  1
  Ta  Ta90  1  0.19321336  -0.00593096  0.01529282  1
  Ta  Ta91  1  0.71089896  0.29464233  0.37536019  1
  Ta  Ta92  1  0.20523602  0.38934700  -0.00737006  1
  Ta  Ta93  1  0.89218056  0.11486823  0.63000239  1
  Ta  Ta94  1  -0.00550091  0.20437154  0.75721916  1
  Ta  Ta95  1  0.28881491  0.70453671  0.63315046  1
  Ta  Ta96  1  0.20243324  -0.01885514  0.49517089  1
  Ta  Ta97  1  0.89093356  0.69946953  0.86725532  1
  Ta  Ta98  1  0.91395512  0.71754758  0.13830554  1
  Ta  Ta99  1  0.89789073  0.91026771  0.62139273  1
  Ta  Ta100  1  0.68866960  0.70413601  0.87180383  1
  Ta  Ta101  1  0.29704027  0.69663097  0.36764101  1
  Ta  Ta102  1  0.29387001  0.09610553  0.35699838  1
  Ta  Ta103  1  0.20646852  0.59352857  0.00547863  1
  Ta  Ta104  1  0.09793791  0.50832903  0.37359537  1
  Ta  Ta105  1  0.51869845  0.10668727  0.12753295  1
  Ta  Ta106  1  0.09785811  0.08315302  0.88599186  1
  Ta  Ta107  1  0.09622156  0.89217781  0.36824588  1
  Ta  Ta108  1  0.90697980  0.09929710  0.87474633  1
  Ta  Ta109  1  0.19069063  0.17368375  0.75667265  1
  Ta  Ta110  1  0.37601940  0.79289582  0.49704908  1
  Ta  Ta111  1  0.78931135  0.19446217  0.24339165  1
  Ta  Ta112  1  0.28737338  0.09972810  0.88834335  1
  Ta  Ta113  1  0.39295062  0.59784079  0.23545856  1
  Ta  Ta114  1  0.11242625  0.49022468  0.10990381  1
  Ta  Ta115  1  0.10997637  0.50560398  0.62876413  1
  Ta  Ta116  1  0.11907403  0.90219431  0.63111679  1
  Ta  Ta117  1  0.30377906  0.30991009  0.11447148  1
  Ta  Ta118  1  0.79827906  0.20259144  0.77037016  1
  Ta  Ta119  1  0.69291896  0.69807391  0.35523781  1
  Ti  Ti120  1  0.09888203  0.69937096  0.36943692  1
  Ti  Ti121  1  0.90901840  0.90273817  0.87820696  1
  Ti  Ti122  1  0.09037555  0.68350578  0.11339720  1
  Ti  Ti123  1  -0.00141405  0.59992487  0.49925655  1
  Ti  Ti124  1  0.09636516  0.89152741  0.89123090  1
  Ti  Ti125  1  0.00858096  0.41223161  0.49878132  1
  Ti  Ti126  1  -0.01902694  -0.01471777  0.23377756  1
  Ti  Ti127  1  0.20876237  0.79515376  0.76276587  1
  Ti  Ti128  1  -0.00925640  -0.00553980  0.00787807  1
  Ti  Ti129  1  0.79758889  0.59842991  0.23466486  1
  Ti  Ti130  1  0.39923666  0.40546233  0.24623797  1
  Ti  Ti131  1  0.30159355  0.69517666  0.12092159  1
  Ti  Ti132  1  0.48945159  0.30826187  0.89411885  1
  Ti  Ti133  1  0.50573963  0.30919822  0.37263322  1
  Ti  Ti134  1  0.39045275  0.80132339  0.24032467  1
  Ti  Ti135  1  -0.00653479  0.19205664  0.22454502  1
  Ti  Ti136  1  0.69163312  0.28061004  0.11595664  1
  Ti  Ti137  1  0.61318936  0.39490726  -0.00018321  1
  Ti  Ti138  1  0.70066915  0.90472192  0.62146512  1
  Ti  Ti139  1  0.69480399  0.70510795  0.14087903  1
  Ti  Ti140  1  0.27310653  0.08420650  0.63052121  1
  Ti  Ti141  1  0.40353036  0.79078900  0.75574209  1
  Ti  Ti142  1  0.70953899  0.08794579  0.39256708  1
  Ti  Ti143  1  0.29929019  0.89067144  0.63037198  1
  Ti  Ti144  1  0.62398003  0.00756555  0.25455714  1
  Ti  Ti145  1  0.61242651  0.40221327  0.49346803  1
  Ti  Ti146  1  0.87511184  0.08936073  0.12688631  1
  Ti  Ti147  1  0.91840842  0.51518684  0.12476866  1
  Ti  Ti148  1  0.40133134  0.19714141  -0.00792576  1
  Ti  Ti149  1  0.30370338  0.28980695  0.62612752  1
  Ti  Ti150  1  0.20299460  0.78261976  -0.00142869  1
  Ti  Ti151  1  0.41318453  0.40946882  0.75686349  1
  Ti  Ti152  1  0.60706700  0.61187175  0.00887104  1
  Ti  Ti153  1  0.30720614  0.50562007  0.37482017  1
  Ti  Ti154  1  0.90328419  0.30860211  0.63443716  1
  Ti  Ti155  1  0.60699155  0.20003171  0.25726225  1
  Ti  Ti156  1  0.38703858  0.60838578  0.76606515  1
  Ti  Ti157  1  0.30273450  0.89022708  0.11175474  1
  Ti  Ti158  1  0.50030654  0.70726665  0.13946264  1
  Ti  Ti159  1  0.79776076  0.60204648  0.49006108  1
  Mo  Mo160  1  0.80290924  0.00457720  0.51351464  1
  Mo  Mo161  1  0.19629249  -0.01444627  0.76003625  1
  Mo  Mo162  1  0.79717603  0.01410603  0.25143305  1
  Mo  Mo163  1  0.69895431  0.50952520  0.11267474  1
  Mo  Mo164  1  0.00585806  0.60100223  0.24049291  1
  Mo  Mo165  1  0.70093296  0.09682662  0.86631958  1
  Mo  Mo166  1  0.30477789  0.70252268  0.87675276  1
  Mo  Mo167  1  0.39441203  0.60734814  0.49315388  1
  Mo  Mo168  1  0.59019406  0.20364609  -0.01700200  1
  Mo  Mo169  1  0.00236813  0.80139678  0.25269615  1
  Mo  Mo170  1  0.29962306  0.28981054  0.89068058  1
  Mo  Mo171  1  0.30931430  0.50004639  0.11124077  1
  Mo  Mo172  1  0.60802975  0.60137206  0.23793897  1
  Mo  Mo173  1  0.10310076  0.29555358  0.12330414  1
  Mo  Mo174  1  0.39527696  0.80150803  0.01212344  1
  Mo  Mo175  1  0.60346111  0.80194750  0.24271030  1
  Mo  Mo176  1  -0.00590048  0.78787786  -0.01444775  1
  Mo  Mo177  1  0.39745912  0.00452451  0.24707171  1
  Mo  Mo178  1  0.60834905  -0.01090694  0.49552393  1
  Mo  Mo179  1  0.69510538  0.90922855  0.37985582  1
  Mo  Mo180  1  0.49953120  0.70182033  0.87876699  1
  Mo  Mo181  1  0.19894149  0.80230458  0.49849885  1
  Mo  Mo182  1  0.89638230  0.90581580  0.11701600  1
  Mo  Mo183  1  0.69015931  0.10751131  0.12150349  1
  Mo  Mo184  1  0.91090166  0.29515864  0.87830937  1
  Mo  Mo185  1  -0.00041747  0.60082697  0.74917158  1
  Mo  Mo186  1  0.39816345  0.40572109  0.00267139  1
  Mo  Mo187  1  0.30506507  0.29657023  0.36699109  1
  Mo  Mo188  1  0.10735756  0.48785551  0.89622465  1
  Mo  Mo189  1  0.08515697  0.08477262  0.13109373  1
  Mo  Mo190  1  0.80102565  0.60487659  0.75921112  1
  Mo  Mo191  1  0.00170985  0.59894685  0.00898743  1
  Mo  Mo192  1  0.50195611  0.50060392  0.63045710  1
  Mo  Mo193  1  0.09980346  0.09648310  0.62817539  1
  Mo  Mo194  1  0.80271287  0.20704452  0.49994669  1
  Mo  Mo195  1  0.69772537  0.30887597  0.88425161  1
  Mo  Mo196  1  0.20007423  0.58980553  0.74908635  1
  Mo  Mo197  1  0.89326852  0.28800651  0.13089974  1
  Mo  Mo198  1  0.48585249  0.09930946  0.87689066  1
  Mo  Mo199  1  0.59389871  0.79740678  0.74492243  1
