# generated using pymatgen
data_HfZrTaTiMo
_symmetry_space_group_name_H-M   'P 1'
_cell_length_a   15.21814110
_cell_length_b   15.22342310
_cell_length_c   16.84776792
_cell_angle_alpha   90.04035179
_cell_angle_beta   89.96892741
_cell_angle_gamma   89.99628300
_symmetry_Int_Tables_number   1
_chemical_formula_structural   HfZrTaTiMo
_chemical_formula_sum   'Hf40 Zr40 Ta40 Ti40 Mo40'
_cell_volume   3903.15791953
_cell_formula_units_Z   40
loop_
 _symmetry_equiv_pos_site_id
 _symmetry_equiv_pos_as_xyz
  1  'x, y, z'
loop_
 _atom_site_type_symbol
 _atom_site_label
 _atom_site_symmetry_multiplicity
 _atom_site_fract_x
 _atom_site_fract_y
 _atom_site_fract_z
 _atom_site_occupancy
  Hf  Hf0  1  0.90132847  0.89221081  0.88279438  1
  Hf  Hf1  1  0.29099009  0.89302495  0.65044310  1
  Hf  Hf2  1  0.29888005  0.29947278  0.36914395  1
  Hf  Hf3  1  0.89915196  0.68817598  0.87898737  1
  Hf  Hf4  1  0.10426824  0.51432661  0.87406183  1
  Hf  Hf5  1  0.69511765  0.08729219  0.11795032  1
  Hf  Hf6  1  0.79644292  0.19869415  -0.00382018  1
  Hf  Hf7  1  0.58526570  0.79666485  0.25091823  1
  Hf  Hf8  1  0.80553795  0.19132371  0.48938724  1
  Hf  Hf9  1  0.01069416  0.59805338  0.25520752  1
  Hf  Hf10  1  0.09244666  0.30992564  0.13397814  1
  Hf  Hf11  1  0.19724085  0.19250891  0.51087744  1
  Hf  Hf12  1  0.80549724  0.21046007  0.75732181  1
  Hf  Hf13  1  0.00348090  0.20860403  0.74818320  1
  Hf  Hf14  1  0.31461421  0.49132596  0.86192065  1
  Hf  Hf15  1  0.90860019  0.90787756  0.63490778  1
  Hf  Hf16  1  0.89147054  0.90354343  0.10988252  1
  Hf  Hf17  1  0.49650353  0.30680651  0.11967107  1
  Hf  Hf18  1  0.39413792  -0.01498682  0.25303966  1
  Hf  Hf19  1  0.10265930  0.09140946  0.37214198  1
  Hf  Hf20  1  0.80839446  0.80403226  0.49920873  1
  Hf  Hf21  1  0.29485802  0.08933492  0.85165800  1
  Hf  Hf22  1  0.00437294  -0.00711705  0.50083155  1
  Hf  Hf23  1  0.19930364  0.41394536  0.00188561  1
  Hf  Hf24  1  0.39238744  0.17847148  0.00765288  1
  Hf  Hf25  1  0.49723387  0.30410277  0.37803159  1
  Hf  Hf26  1  0.18798381  0.19727753  0.00380049  1
  Hf  Hf27  1  0.70379463  0.10151843  0.63011674  1
  Hf  Hf28  1  0.00290718  0.79998316  0.23194571  1
  Hf  Hf29  1  0.11747699  0.68403905  0.11773129  1
  Hf  Hf30  1  0.69608322  0.29789490  0.37353581  1
  Hf  Hf31  1  0.30855737  0.71596390  0.38127245  1
  Hf  Hf32  1  0.08396734  0.30644048  0.61230155  1
  Hf  Hf33  1  0.59930025  0.79259293  0.51171125  1
  Hf  Hf34  1  0.59493173  0.20001947  0.00341940  1
  Hf  Hf35  1  0.70319353  0.68785621  0.13596570  1
  Hf  Hf36  1  0.58189641  -0.00959261  -0.00992090  1
  Hf  Hf37  1  0.10684280  0.90685446  0.11707707  1
  Hf  Hf38  1  0.30047932  0.10040067  0.37341278  1
  Hf  Hf39  1  0.90676947  0.50207993  0.13793669  1
  Zr  Zr40  1  0.40347240  0.19636630  0.51153763  1
  Zr  Zr41  1  0.49311860  0.10076099  0.86204686  1
  Zr  Zr42  1  0.69004845  0.51357286  0.36434932  1
  Zr  Zr43  1  0.40353039  0.19072335  0.24096596  1
  Zr  Zr44  1  0.79206355  -0.00684600  0.25209948  1
  Zr  Zr45  1  0.51562799  0.69964514  0.87568675  1
  Zr  Zr46  1  0.40141225  0.60542543  0.50748904  1
  Zr  Zr47  1  0.91085495  0.10077788  0.88628924  1
  Zr  Zr48  1  0.90730797  0.48809233  0.61285039  1
  Zr  Zr49  1  0.81002971  0.18435692  0.26156113  1
  Zr  Zr50  1  0.70471598  0.88949848  0.64217360  1
  Zr  Zr51  1  0.40345736  0.61908065  0.24715058  1
  Zr  Zr52  1  0.40067398  0.59255022  -0.00645196  1
  Zr  Zr53  1  0.29619575  0.30737804  0.13091688  1
  Zr  Zr54  1  0.29758201  0.89425109  0.85116023  1
  Zr  Zr55  1  0.20638356  0.79479639  -0.01332716  1
  Zr  Zr56  1  0.10842038  0.51064067  0.61596445  1
  Zr  Zr57  1  0.29235375  0.28903183  0.86998365  1
  Zr  Zr58  1  0.80597171  0.00486980  0.76233087  1
  Zr  Zr59  1  0.60025228  0.42190297  0.00091587  1
  Zr  Zr60  1  0.69199154  0.87559480  0.86155207  1
  Zr  Zr61  1  0.59854455  0.21322423  0.74944484  1
  Zr  Zr62  1  0.48443476  0.89417130  0.38596362  1
  Zr  Zr63  1  0.29494044  0.30981987  0.62610029  1
  Zr  Zr64  1  0.68972194  0.31345569  0.87562295  1
  Zr  Zr65  1  0.80179748  0.60096604  0.73704046  1
  Zr  Zr66  1  0.27946448  0.90680240  0.39033307  1
  Zr  Zr67  1  0.89970474  0.29476638  0.13542114  1
  Zr  Zr68  1  0.81483271  0.40656913  -0.00381129  1
  Zr  Zr69  1  0.50013402  0.51239041  0.12706626  1
  Zr  Zr70  1  0.51209240  0.30734392  0.61799365  1
  Zr  Zr71  1  0.60223508  0.18937306  0.24867231  1
  Zr  Zr72  1  0.19212345  0.41767670  0.25984125  1
  Zr  Zr73  1  0.01350142  0.60800382  0.74943109  1
  Zr  Zr74  1  0.69504919  0.89705661  0.37548081  1
  Zr  Zr75  1  0.18308859  0.39490017  0.74957879  1
  Zr  Zr76  1  0.39605842  0.00346313  0.52618287  1
  Zr  Zr77  1  0.18002164  0.80087339  0.51789659  1
  Zr  Zr78  1  0.49058549  0.90814723  0.12085571  1
  Zr  Zr79  1  0.79433023  0.60501274  0.50912351  1
  Ta  Ta80  1  0.70170139  0.30653521  0.13244376  1
  Ta  Ta81  1  0.00444651  0.61911959  0.49245259  1
  Ta  Ta82  1  0.30478048  0.50777797  0.37692382  1
  Ta  Ta83  1  0.51197096  0.69384285  0.38230308  1
  Ta  Ta84  1  -0.00245445  0.78947340  0.00624712  1
  Ta  Ta85  1  0.29130495  0.08516888  0.12865187  1
  Ta  Ta86  1  0.90783187  0.90027433  0.36875506  1
  Ta  Ta87  1  0.00402558  0.58562077  0.00447918  1
  Ta  Ta88  1  0.91405403  0.71455438  0.62674555  1
  Ta  Ta89  1  0.09321256  0.90679871  0.86714841  1
  Ta  Ta90  1  0.50385954  0.49829238  0.63284200  1
  Ta  Ta91  1  0.10674564  0.10559104  0.86642481  1
  Ta  Ta92  1  0.60672824  0.60042828  0.73714195  1
  Ta  Ta93  1  0.39698115  0.79850682  0.52480401  1
  Ta  Ta94  1  0.80229335  0.40014723  0.26190287  1
  Ta  Ta95  1  0.20915275  0.00305732  -0.00657782  1
  Ta  Ta96  1  0.70535296  0.49864749  0.14285767  1
  Ta  Ta97  1  0.50405941  0.89947992  0.64826348  1
  Ta  Ta98  1  -0.00090519  0.40138368  0.27284963  1
  Ta  Ta99  1  0.10259632  0.71117643  0.37169893  1
  Ta  Ta100  1  0.59439459  0.40196081  0.24826252  1
  Ta  Ta101  1  0.80162261  0.39851078  0.48637206  1
  Ta  Ta102  1  0.78782009  0.78345152  0.00398267  1
  Ta  Ta103  1  0.40012697  0.41142066  0.49824745  1
  Ta  Ta104  1  0.20415795  0.40747713  0.48897760  1
  Ta  Ta105  1  0.60068217  0.59649010  0.51634496  1
  Ta  Ta106  1  0.49740169  0.90120629  0.84646173  1
  Ta  Ta107  1  0.39559200  0.19853246  0.73303785  1
  Ta  Ta108  1  0.89736370  0.50918305  0.37585436  1
  Ta  Ta109  1  0.07855307  0.30972234  0.88016884  1
  Ta  Ta110  1  0.80673163  0.40358992  0.75492217  1
  Ta  Ta111  1  0.21319954  0.80211313  0.24360408  1
  Ta  Ta112  1  0.50919585  0.71113389  0.10510853  1
  Ta  Ta113  1  0.30838426  0.50268544  0.63629856  1
  Ta  Ta114  1  0.16965111  0.78122317  0.75211078  1
  Ta  Ta115  1  -0.00746954  0.00478986  0.24521405  1
  Ta  Ta116  1  0.60659756  0.19264620  0.50089400  1
  Ta  Ta117  1  0.60034872  0.00142725  0.51101906  1
  Ta  Ta118  1  0.90110758  0.70742422  0.37018916  1
  Ta  Ta119  1  0.71093627  0.31382636  0.61888019  1
  Ti  Ti120  1  0.01428079  0.00702522  -0.00046834  1
  Ti  Ti121  1  0.80860931  0.79294501  0.24118769  1
  Ti  Ti122  1  0.28845702  0.51493854  0.12488988  1
  Ti  Ti123  1  0.31568970  0.70822994  0.11640641  1
  Ti  Ti124  1  0.39735710  0.41213223  0.25274818  1
  Ti  Ti125  1  0.19242001  -0.00062160  0.24472879  1
  Ti  Ti126  1  0.90608978  0.29485716  0.37488636  1
  Ti  Ti127  1  0.51402984  0.49811457  0.86075011  1
  Ti  Ti128  1  0.40940137  0.81505181  -0.01655217  1
  Ti  Ti129  1  0.30147962  0.89537517  0.11636967  1
  Ti  Ti130  1  0.60367928  0.40729119  0.49657505  1
  Ti  Ti131  1  0.50754705  0.09398432  0.38223690  1
  Ti  Ti132  1  0.09367085  0.89483265  0.36572871  1
  Ti  Ti133  1  0.20536834  0.60883969  0.26004394  1
  Ti  Ti134  1  -0.00406667  0.21110392  0.00024487  1
  Ti  Ti135  1  0.59247850  0.00307925  0.25187994  1
  Ti  Ti136  1  0.19221168  0.00269826  0.53249139  1
  Ti  Ti137  1  0.20213167  0.60269346  0.49447565  1
  Ti  Ti138  1  0.49977442  0.69803247  0.63545887  1
  Ti  Ti139  1  0.70751955  0.51818230  0.87218874  1
  Ti  Ti140  1  0.89526710  0.29921273  0.61477856  1
  Ti  Ti141  1  0.70482797  0.69897853  0.36357905  1
  Ti  Ti142  1  0.28830256  0.68711578  0.63867010  1
  Ti  Ti143  1  0.09686735  0.10536927  0.13189949  1
  Ti  Ti144  1  0.00666215  0.19532908  0.25855391  1
  Ti  Ti145  1  0.80195719  0.59599038  0.00392744  1
  Ti  Ti146  1  0.69161486  0.09510829  0.87257128  1
  Ti  Ti147  1  0.68880201  0.88778538  0.12077963  1
  Ti  Ti148  1  0.78742008  -0.00835196  -0.00898932  1
  Ti  Ti149  1  0.90213124  0.09672240  0.11532370  1
  Ti  Ti150  1  0.10527112  0.29319364  0.37406824  1
  Ti  Ti151  1  0.39951368  0.77785072  0.74899690  1
  Ti  Ti152  1  0.00532076  0.40663155  0.47510049  1
  Ti  Ti153  1  0.49901165  0.50496780  0.37268875  1
  Ti  Ti154  1  -0.00067964  0.19290994  0.49381559  1
  Ti  Ti155  1  0.48521705  0.31006730  0.88316881  1
  Ti  Ti156  1  0.90989296  0.10430766  0.62667539  1
  Ti  Ti157  1  0.28807062  0.68261704  0.86281270  1
  Ti  Ti158  1  0.80077203  0.00322954  0.49205793  1
  Ti  Ti159  1  0.41853213  0.39525518  0.74705115  1
  Mo  Mo160  1  0.81067963  0.60447940  0.25519346  1
  Mo  Mo161  1  -0.01140036  0.80161147  0.75990228  1
  Mo  Mo162  1  0.10396370  0.49947178  0.12787891  1
  Mo  Mo163  1  0.69720129  0.48799634  0.62147466  1
  Mo  Mo164  1  0.20743206  0.60149967  -0.00106695  1
  Mo  Mo165  1  0.70525436  0.68886109  0.87817711  1
  Mo  Mo166  1  0.28958056  0.10178438  0.64518297  1
  Mo  Mo167  1  0.39410377  0.79738762  0.24523956  1
  Mo  Mo168  1  0.49312099  0.09575432  0.12199707  1
  Mo  Mo169  1  0.20864451  0.60027433  0.74874684  1
  Mo  Mo170  1  0.40737380  0.59574750  0.74768674  1
  Mo  Mo171  1  0.08564928  0.89545445  0.64296754  1
  Mo  Mo172  1  -0.01475893  0.40129245  0.74940056  1
  Mo  Mo173  1  -0.00519585  0.80244590  0.49218750  1
  Mo  Mo174  1  0.91000935  0.48783714  0.87294235  1
  Mo  Mo175  1  0.80995977  0.78716601  0.75049674  1
  Mo  Mo176  1  0.38574636  -0.01184349  -0.00953573  1
  Mo  Mo177  1  0.60265555  0.80007165  0.00105208  1
  Mo  Mo178  1  0.62131002  0.60967086  -0.00243594  1
  Mo  Mo179  1  0.69104689  0.08998390  0.38638422  1
  Mo  Mo180  1  0.39947300  0.00229985  0.73226199  1
  Mo  Mo181  1  0.09672502  0.70101106  0.62165997  1
  Mo  Mo182  1  0.50824861  0.09601420  0.63248754  1
  Mo  Mo183  1  0.09861327  0.70633599  0.88859182  1
  Mo  Mo184  1  0.40252418  0.39582388  -0.00840038  1
  Mo  Mo185  1  0.60096983  0.00233168  0.75083476  1
  Mo  Mo186  1  0.90395140  0.69767670  0.11409327  1
  Mo  Mo187  1  0.61246220  0.41269390  0.75172240  1
  Mo  Mo188  1  0.59867654  0.60206325  0.25280834  1
  Mo  Mo189  1  0.18068708  0.00080490  0.73755466  1
  Mo  Mo190  1  0.19192342  0.20042273  0.74208917  1
  Mo  Mo191  1  0.60243822  0.78550681  0.74035555  1
  Mo  Mo192  1  0.70241033  0.69718989  0.62508634  1
  Mo  Mo193  1  0.08744719  0.09916695  0.62700054  1
  Mo  Mo194  1  0.19146549  0.19061325  0.24476253  1
  Mo  Mo195  1  0.10268470  0.51119220  0.38862418  1
  Mo  Mo196  1  0.90813088  0.09090792  0.37738160  1
  Mo  Mo197  1  0.90104046  0.30628557  0.87824629  1
  Mo  Mo198  1  0.00416080  0.40187919  0.00441616  1
  Mo  Mo199  1  0.00336213  0.00576746  0.75438709  1
