# generated using pymatgen
data_HfZrTaTiMo
_symmetry_space_group_name_H-M   'P 1'
_cell_length_a   15.17651569
_cell_length_b   15.18393592
_cell_length_c   16.80287731
_cell_angle_alpha   90.04388547
_cell_angle_beta   90.08288966
_cell_angle_gamma   89.94481718
_symmetry_Int_Tables_number   1
_chemical_formula_structural   HfZrTaTiMo
_chemical_formula_sum   'Hf40 Zr40 Ta40 Ti40 Mo40'
_cell_volume   3872.03532894
_cell_formula_units_Z   40
loop_
 _symmetry_equiv_pos_site_id
 _symmetry_equiv_pos_as_xyz
  1  'x, y, z'
loop_
 _atom_site_type_symbol
 _atom_site_label
 _atom_site_symmetry_multiplicity
 _atom_site_fract_x
 _atom_site_fract_y
 _atom_site_fract_z
 _atom_site_occupancy
  Hf  Hf0  1  0.39621046  -0.00302108  -0.01150068  1
  Hf  Hf1  1  0.20330569  0.78196173  0.23641665  1
  Hf  Hf2  1  0.38857747  0.60084412  0.24836744  1
  Hf  Hf3  1  0.39826496  0.40488797  -0.01342623  1
  Hf  Hf4  1  0.91535102  0.49604146  0.62225203  1
  Hf  Hf5  1  0.50439381  0.51194768  0.87217348  1
  Hf  Hf6  1  0.30285542  0.89485302  0.12276592  1
  Hf  Hf7  1  0.01293150  -0.01389591  0.51154558  1
  Hf  Hf8  1  0.48114638  0.11872718  0.36167449  1
  Hf  Hf9  1  0.00207531  0.00500622  0.73942352  1
  Hf  Hf10  1  0.59748079  0.21618688  0.25688757  1
  Hf  Hf11  1  0.89866604  0.29676619  0.37355065  1
  Hf  Hf12  1  0.81256896  0.21217061  0.74893426  1
  Hf  Hf13  1  0.00421582  0.61561548  0.23723273  1
  Hf  Hf14  1  0.39784846  0.60863076  0.73282248  1
  Hf  Hf15  1  0.71788802  0.49262623  0.87933968  1
  Hf  Hf16  1  0.41376474  0.38061264  0.50026645  1
  Hf  Hf17  1  0.90540449  0.28665303  0.14197143  1
  Hf  Hf18  1  0.28227400  0.09231811  0.36958155  1
  Hf  Hf19  1  0.70327769  0.68953595  0.88141052  1
  Hf  Hf20  1  0.40444881  0.80988994  0.75779601  1
  Hf  Hf21  1  0.69115184  0.87955841  0.60789251  1
  Hf  Hf22  1  0.50246142  0.70293013  0.87403264  1
  Hf  Hf23  1  0.60282793  0.60256479  0.02015970  1
  Hf  Hf24  1  0.09504071  0.71824105  0.87247614  1
  Hf  Hf25  1  0.19435627  0.60503606  0.51591810  1
  Hf  Hf26  1  0.09443472  0.71163970  0.37223029  1
  Hf  Hf27  1  0.51499810  0.72311299  0.62059822  1
  Hf  Hf28  1  0.50922360  0.90059622  0.12698248  1
  Hf  Hf29  1  0.20510529  0.39998365  -0.01290071  1
  Hf  Hf30  1  0.60244062  0.39697799  -0.00080738  1
  Hf  Hf31  1  -0.00573594  0.00631274  0.25267935  1
  Hf  Hf32  1  0.69997522  0.29748212  0.62250627  1
  Hf  Hf33  1  0.91555513  0.11245677  0.87279400  1
  Hf  Hf34  1  0.72169848  0.49868940  0.61870339  1
  Hf  Hf35  1  0.79130532  0.60346812  0.23760442  1
  Hf  Hf36  1  0.49427091  0.27176979  0.64740701  1
  Hf  Hf37  1  0.81051216  0.00292548  -0.01149085  1
  Hf  Hf38  1  0.50764834  0.50480634  0.37783875  1
  Hf  Hf39  1  0.40342425  0.60443987  0.50984123  1
  Zr  Zr40  1  0.09042514  0.10157427  0.38076575  1
  Zr  Zr41  1  0.49832276  0.92282756  0.61781659  1
  Zr  Zr42  1  0.08424244  0.27834462  0.86459990  1
  Zr  Zr43  1  0.90225452  0.48987591  0.13333474  1
  Zr  Zr44  1  0.19469834  0.79410064  0.00766850  1
  Zr  Zr45  1  0.39678568  0.40460966  0.76165600  1
  Zr  Zr46  1  0.60238050  0.01833639  0.48873140  1
  Zr  Zr47  1  0.88452095  0.08819307  0.39466154  1
  Zr  Zr48  1  0.70927029  0.90490650  0.38714804  1
  Zr  Zr49  1  0.88836358  0.89888873  0.62713411  1
  Zr  Zr50  1  0.61418139  0.60793285  0.50366527  1
  Zr  Zr51  1  0.88968063  0.10863005  0.60995195  1
  Zr  Zr52  1  0.60838591  -0.00312552  -0.01302701  1
  Zr  Zr53  1  0.18640152  0.19640154  0.00219347  1
  Zr  Zr54  1  0.90630393  0.87815349  0.38345540  1
  Zr  Zr55  1  0.10558740  0.50825659  0.36047716  1
  Zr  Zr56  1  0.19500244  0.39181226  0.49925809  1
  Zr  Zr57  1  0.19143282  0.78633337  0.73343877  1
  Zr  Zr58  1  0.10296146  0.30013663  0.36279904  1
  Zr  Zr59  1  0.39190091  -0.00019710  0.24669273  1
  Zr  Zr60  1  0.28859715  0.29303221  0.64062639  1
  Zr  Zr61  1  -0.00115122  0.39719806  -0.00461624  1
  Zr  Zr62  1  0.78191601  0.79963386  0.76176085  1
  Zr  Zr63  1  0.19166285  0.80519642  0.51052124  1
  Zr  Zr64  1  0.60350250  -0.02752908  0.76791772  1
  Zr  Zr65  1  0.88852209  0.69557788  0.63704658  1
  Zr  Zr66  1  0.09982430  0.52162583  0.87996581  1
  Zr  Zr67  1  0.59784205  0.61324375  0.24056869  1
  Zr  Zr68  1  0.30454627  0.89899711  0.62345597  1
  Zr  Zr69  1  0.11262381  0.49579146  0.13223861  1
  Zr  Zr70  1  0.40665372  0.38854825  0.25708225  1
  Zr  Zr71  1  -0.02891660  0.40229905  0.76794992  1
  Zr  Zr72  1  0.61198433  0.39792810  0.75281654  1
  Zr  Zr73  1  0.57976580  0.21196961  0.49097123  1
  Zr  Zr74  1  0.19954569  0.19354484  0.24039099  1
  Zr  Zr75  1  0.70476280  0.29580981  0.12337227  1
  Zr  Zr76  1  0.39635275  0.20504144  -0.01423895  1
  Zr  Zr77  1  0.29816197  0.49222611  0.62336566  1
  Zr  Zr78  1  0.49867138  0.10724149  0.12476365  1
  Zr  Zr79  1  0.31787780  0.10230350  0.63717042  1
  Ta  Ta80  1  0.71320989  0.28768255  0.88031040  1
  Ta  Ta81  1  0.89572637  0.71803128  0.12069676  1
  Ta  Ta82  1  0.81914743  0.60289777  0.48779876  1
  Ta  Ta83  1  0.60717781  0.80835816  0.25389597  1
  Ta  Ta84  1  0.29694715  0.89167123  0.37177015  1
  Ta  Ta85  1  0.50438513  0.10361691  0.86469048  1
  Ta  Ta86  1  0.68627700  0.09425135  0.63509581  1
  Ta  Ta87  1  0.79610979  -0.00652969  0.24785018  1
  Ta  Ta88  1  0.60126334  0.80267295  -0.00016890  1
  Ta  Ta89  1  0.71201896  0.70653816  0.37620214  1
  Ta  Ta90  1  0.61419448  0.60838489  0.73701385  1
  Ta  Ta91  1  0.09576377  0.90903205  0.12706935  1
  Ta  Ta92  1  0.28511328  0.09502031  0.86883981  1
  Ta  Ta93  1  0.39872367  0.79359410  -0.00660598  1
  Ta  Ta94  1  0.80327092  0.59867132  0.01787576  1
  Ta  Ta95  1  0.60951715  0.19368437  -0.00809210  1
  Ta  Ta96  1  -0.00445909  0.78347736  0.51179962  1
  Ta  Ta97  1  0.00600618  0.59799645  0.49927210  1
  Ta  Ta98  1  0.40641455  0.79354859  0.25560838  1
  Ta  Ta99  1  0.89075785  0.30807351  0.60528458  1
  Ta  Ta100  1  0.60846840  0.00703611  0.25669682  1
  Ta  Ta101  1  0.19705602  -0.00673972  0.74854288  1
  Ta  Ta102  1  0.30221493  0.49799847  0.38275972  1
  Ta  Ta103  1  0.00275622  0.61701438  0.01385744  1
  Ta  Ta104  1  0.28648444  0.89127352  0.87511307  1
  Ta  Ta105  1  0.49723674  0.49542459  0.12502256  1
  Ta  Ta106  1  0.29449380  0.68319998  0.87278905  1
  Ta  Ta107  1  0.18565025  0.41428150  0.75827706  1
  Ta  Ta108  1  -0.00208548  0.40638952  0.49277432  1
  Ta  Ta109  1  0.39623845  0.01206762  0.49049692  1
  Ta  Ta110  1  0.29824893  0.69484528  0.37886906  1
  Ta  Ta111  1  0.49665875  0.90309121  0.37401769  1
  Ta  Ta112  1  0.30049207  0.30156089  0.12285030  1
  Ta  Ta113  1  0.08359834  0.30855721  0.63535127  1
  Ta  Ta114  1  -0.00698652  0.81751053  0.00318997  1
  Ta  Ta115  1  0.79893369  0.79993176  -0.00428830  1
  Ta  Ta116  1  0.70605613  0.09467276  0.12701643  1
  Ta  Ta117  1  0.28972363  0.09615539  0.12030890  1
  Ta  Ta118  1  0.49683489  0.30310083  0.11943708  1
  Ta  Ta119  1  0.60987371  0.41258684  0.24763308  1
  Ti  Ti120  1  0.70807974  0.89697596  0.12505813  1
  Ti  Ti121  1  -0.00241022  0.80779208  0.23934956  1
  Ti  Ti122  1  0.11192673  0.90659007  0.36433956  1
  Ti  Ti123  1  0.10628320  0.10532009  0.62264630  1
  Ti  Ti124  1  0.01496317  0.60669339  0.74651278  1
  Ti  Ti125  1  0.80610991  0.39374614  0.00585663  1
  Ti  Ti126  1  0.09598982  0.30127271  0.13853626  1
  Ti  Ti127  1  0.79484408  0.18590120  0.26182725  1
  Ti  Ti128  1  0.31435913  0.28472770  0.37569418  1
  Ti  Ti129  1  0.81278277  0.58298224  0.75791998  1
  Ti  Ti130  1  0.80300346  0.79908480  0.24581341  1
  Ti  Ti131  1  0.08764639  0.10007944  0.12879219  1
  Ti  Ti132  1  0.90483142  0.69215012  0.87715178  1
  Ti  Ti133  1  0.30477941  0.49782822  0.12560941  1
  Ti  Ti134  1  0.90556963  0.89250375  0.86790307  1
  Ti  Ti135  1  0.18651460  0.19042573  0.75088900  1
  Ti  Ti136  1  0.20574288  0.60303989  0.00946605  1
  Ti  Ti137  1  0.61788187  0.39873355  0.48904471  1
  Ti  Ti138  1  0.79555160  0.39641927  0.25478880  1
  Ti  Ti139  1  0.50273033  0.70907653  0.37768258  1
  Ti  Ti140  1  0.39974509  0.80516081  0.49227506  1
  Ti  Ti141  1  0.21228852  0.40378886  0.25272396  1
  Ti  Ti142  1  0.89510434  0.09796037  0.12482162  1
  Ti  Ti143  1  0.20405224  -0.00032969  0.50858525  1
  Ti  Ti144  1  -0.01060821  0.19318434  0.00645232  1
  Ti  Ti145  1  0.90600904  0.50258457  0.36307642  1
  Ti  Ti146  1  0.79378973  0.00578203  0.76454665  1
  Ti  Ti147  1  0.00988686  0.20959861  0.50657524  1
  Ti  Ti148  1  0.77428056  0.20009565  0.48966641  1
  Ti  Ti149  1  0.51009837  0.29468773  0.86491867  1
  Ti  Ti150  1  0.49067957  0.70824147  0.12421229  1
  Ti  Ti151  1  0.20782992  0.19737103  0.50568601  1
  Ti  Ti152  1  0.29262953  0.29600621  0.85928697  1
  Ti  Ti153  1  0.18603229  -0.00001800  -0.00317548  1
  Ti  Ti154  1  0.51526451  0.48896089  0.62316250  1
  Ti  Ti155  1  0.89867156  0.91027071  0.12146473  1
  Ti  Ti156  1  0.71293408  0.50090875  0.37593712  1
  Ti  Ti157  1  0.09107072  0.91323969  0.87431476  1
  Ti  Ti158  1  0.39871632  0.00197206  0.76740633  1
  Ti  Ti159  1  0.39388445  0.60070534  0.00539161  1
  Mo  Mo160  1  0.50388813  0.09746785  0.64327709  1
  Mo  Mo161  1  0.08813113  0.69433043  0.62977452  1
  Mo  Mo162  1  0.70724375  0.10084578  0.86814944  1
  Mo  Mo163  1  0.79885768  0.40243080  0.75202964  1
  Mo  Mo164  1  0.00536756  0.00390241  0.00404833  1
  Mo  Mo165  1  0.20116397  0.59663321  0.73993514  1
  Mo  Mo166  1  -0.00516862  0.80217534  0.75539835  1
  Mo  Mo167  1  0.39620236  0.19530681  0.77408202  1
  Mo  Mo168  1  0.89703357  0.51777951  0.89318084  1
  Mo  Mo169  1  0.69877737  0.71824368  0.12270733  1
  Mo  Mo170  1  0.10214239  0.08876386  0.87042401  1
  Mo  Mo171  1  0.30863478  0.70212680  0.61666688  1
  Mo  Mo172  1  0.70735933  0.89104606  0.88344004  1
  Mo  Mo173  1  0.00063441  0.39706421  0.25534211  1
  Mo  Mo174  1  0.69947062  0.49551590  0.12372596  1
  Mo  Mo175  1  0.39318592  0.20427848  0.23514728  1
  Mo  Mo176  1  0.89022891  0.30544398  0.88849762  1
  Mo  Mo177  1  0.49185577  0.89594536  0.88544426  1
  Mo  Mo178  1  0.30801244  0.69032020  0.11776710  1
  Mo  Mo179  1  0.29837498  0.50954053  0.87375252  1
  Mo  Mo180  1  0.70731013  0.69368064  0.62034739  1
  Mo  Mo181  1  0.38927705  0.19345150  0.50122447  1
  Mo  Mo182  1  0.80107795  0.19698140  0.00355464  1
  Mo  Mo183  1  0.59266015  0.80052151  0.48016184  1
  Mo  Mo184  1  0.79905567  0.78671921  0.49950655  1
  Mo  Mo185  1  0.00042580  0.20000129  0.73292965  1
  Mo  Mo186  1  0.09465578  0.90334711  0.62915804  1
  Mo  Mo187  1  0.61226381  0.18692657  0.76196777  1
  Mo  Mo188  1  0.69757384  0.10575377  0.36619876  1
  Mo  Mo189  1  0.59661779  0.78954169  0.75396925  1
  Mo  Mo190  1  0.09533375  0.70692099  0.12057364  1
  Mo  Mo191  1  0.21084405  0.59665912  0.25031133  1
  Mo  Mo192  1  0.09544714  0.49473502  0.63116368  1
  Mo  Mo193  1  0.19195180  -0.01209469  0.24212412  1
  Mo  Mo194  1  0.50095840  0.31323810  0.37384102  1
  Mo  Mo195  1  -0.00989962  0.19374520  0.24833258  1
  Mo  Mo196  1  0.70287305  0.31120510  0.36983370  1
  Mo  Mo197  1  0.90210492  0.69187386  0.36984497  1
  Mo  Mo198  1  0.80447495  0.40467173  0.48413684  1
  Mo  Mo199  1  0.79505240  0.00379215  0.50939458  1
