# generated using pymatgen
data_HfZrTaTiMo
_symmetry_space_group_name_H-M   'P 1'
_cell_length_a   15.19085556
_cell_length_b   15.19643871
_cell_length_c   16.81731654
_cell_angle_alpha   90.05768120
_cell_angle_beta   89.99882174
_cell_angle_gamma   89.94173267
_symmetry_Int_Tables_number   1
_chemical_formula_structural   HfZrTaTiMo
_chemical_formula_sum   'Hf40 Zr40 Ta40 Ti40 Mo40'
_cell_volume   3882.22150670
_cell_formula_units_Z   40
loop_
 _symmetry_equiv_pos_site_id
 _symmetry_equiv_pos_as_xyz
  1  'x, y, z'
loop_
 _atom_site_type_symbol
 _atom_site_label
 _atom_site_symmetry_multiplicity
 _atom_site_fract_x
 _atom_site_fract_y
 _atom_site_fract_z
 _atom_site_occupancy
  Hf  Hf0  1  0.49573269  0.10454551  0.61595708  1
  Hf  Hf1  1  0.79809374  0.80011596  0.00560395  1
  Hf  Hf2  1  0.90270792  0.70015295  0.62272352  1
  Hf  Hf3  1  0.90134471  0.70564908  0.37632105  1
  Hf  Hf4  1  0.50042828  0.08776079  0.12906725  1
  Hf  Hf5  1  0.50469034  0.70085342  0.85399131  1
  Hf  Hf6  1  0.40313621  0.81648711  -0.01048571  1
  Hf  Hf7  1  0.80126071  0.80944102  0.74034214  1
  Hf  Hf8  1  0.28598634  0.11067273  0.87966958  1
  Hf  Hf9  1  0.40102161  0.19493376  0.00635811  1
  Hf  Hf10  1  0.00925779  0.20715562  0.48410143  1
  Hf  Hf11  1  0.48304644  0.49679011  0.64225663  1
  Hf  Hf12  1  0.01145278  0.18163154  0.75267531  1
  Hf  Hf13  1  0.69912769  0.70307185  0.87202746  1
  Hf  Hf14  1  0.59190891  -0.00338904  -0.00425125  1
  Hf  Hf15  1  0.89605856  0.89748525  0.88015524  1
  Hf  Hf16  1  0.29734899  0.91353028  0.86734938  1
  Hf  Hf17  1  0.70349607  0.30069893  0.87095948  1
  Hf  Hf18  1  0.90926447  0.69720079  0.87072222  1
  Hf  Hf19  1  0.90154370  0.09537404  0.61171813  1
  Hf  Hf20  1  0.80140749  0.39728882  0.24175517  1
  Hf  Hf21  1  0.39202448  0.18568483  0.24983418  1
  Hf  Hf22  1  0.58986765  0.79344256  0.26667102  1
  Hf  Hf23  1  0.59523525  0.39673466  0.75056700  1
  Hf  Hf24  1  0.79995585  0.58979231  0.00095647  1
  Hf  Hf25  1  0.29306798  0.08096466  0.12216707  1
  Hf  Hf26  1  0.38463951  0.20834871  0.48985065  1
  Hf  Hf27  1  0.52064139  0.48963171  0.36535960  1
  Hf  Hf28  1  0.90705775  0.69391769  0.12486643  1
  Hf  Hf29  1  0.90832107  0.47150639  0.88406432  1
  Hf  Hf30  1  0.80677948  0.20118797  -0.00779041  1
  Hf  Hf31  1  0.01031571  0.40344066  0.47712185  1
  Hf  Hf32  1  0.80048995  0.80100096  0.49697843  1
  Hf  Hf33  1  0.79023837  0.40335999  0.50684988  1
  Hf  Hf34  1  0.50154094  0.09870064  0.38453240  1
  Hf  Hf35  1  0.69909894  0.90797079  0.12538916  1
  Hf  Hf36  1  0.61005997  0.40758042  0.01111644  1
  Hf  Hf37  1  0.68540920  0.31303138  0.36849419  1
  Hf  Hf38  1  0.48672655  0.69337202  0.38074940  1
  Hf  Hf39  1  0.01045418  0.80775968  0.24782756  1
  Zr  Zr40  1  0.39853106  0.40277087  0.23311221  1
  Zr  Zr41  1  0.39758142  0.59028039  0.50503213  1
  Zr  Zr42  1  0.10396664  0.69988150  0.85616551  1
  Zr  Zr43  1  0.49418351  0.50384148  0.87512358  1
  Zr  Zr44  1  0.28332887  0.11142650  0.61571830  1
  Zr  Zr45  1  0.89733735  0.09121516  0.12307862  1
  Zr  Zr46  1  0.00910358  0.59190808  0.26078227  1
  Zr  Zr47  1  0.40868436  0.39444795  0.48985546  1
  Zr  Zr48  1  0.00330720  0.00352229  0.24864124  1
  Zr  Zr49  1  0.20838719  0.38997859  0.47737767  1
  Zr  Zr50  1  0.08802774  0.92145380  0.85942148  1
  Zr  Zr51  1  0.28554315  0.51687230  0.10934479  1
  Zr  Zr52  1  0.79099465  0.59499666  0.25385646  1
  Zr  Zr53  1  0.11625086  0.49034007  0.62132989  1
  Zr  Zr54  1  0.09294813  0.69061741  0.64456944  1
  Zr  Zr55  1  0.52185718  0.28630580  0.13766416  1
  Zr  Zr56  1  0.60318694  0.00113623  0.26045937  1
  Zr  Zr57  1  0.91362813  0.50025368  0.61794452  1
  Zr  Zr58  1  0.30578265  0.69957904  0.86564049  1
  Zr  Zr59  1  0.90908121  0.29509737  0.62063541  1
  Zr  Zr60  1  0.48606196  0.89092778  0.13089447  1
  Zr  Zr61  1  0.81028092  0.39350596  0.74401991  1
  Zr  Zr62  1  0.12246125  0.71443712  0.37679502  1
  Zr  Zr63  1  0.79674515  0.81143088  0.25510763  1
  Zr  Zr64  1  0.41604104  0.60717015  0.23166850  1
  Zr  Zr65  1  0.19935325  0.79526197  0.52794592  1
  Zr  Zr66  1  0.40273385  0.39889935  0.02037301  1
  Zr  Zr67  1  0.51872390  0.68924259  0.63722402  1
  Zr  Zr68  1  0.00119459  0.39470568  0.26558645  1
  Zr  Zr69  1  0.20873132  0.81895866  0.73175339  1
  Zr  Zr70  1  0.60554511  0.78909223  0.49509916  1
  Zr  Zr71  1  0.50105787  0.09903248  0.86996836  1
  Zr  Zr72  1  0.29544590  0.72321967  0.11173374  1
  Zr  Zr73  1  0.28463732  0.50358240  0.90455509  1
  Zr  Zr74  1  0.67653826  0.68716083  0.12432687  1
  Zr  Zr75  1  0.69959657  0.10091934  0.62292170  1
  Zr  Zr76  1  0.80080306  0.59627646  0.74929300  1
  Zr  Zr77  1  0.39102472  0.00768459  0.73979893  1
  Zr  Zr78  1  0.59609376  0.21956295  0.50259974  1
  Zr  Zr79  1  0.38866175  0.79428268  0.52412386  1
  Ta  Ta80  1  0.11459413  0.29039074  0.61973620  1
  Ta  Ta81  1  0.59298193  0.79249498  -0.00443320  1
  Ta  Ta82  1  0.50492938  0.91152091  0.61128702  1
  Ta  Ta83  1  0.40475349  0.80666917  0.72861547  1
  Ta  Ta84  1  0.01377694  0.79149457  0.00251683  1
  Ta  Ta85  1  0.91444568  0.08956270  0.88168131  1
  Ta  Ta86  1  0.70613223  0.09266361  0.86819112  1
  Ta  Ta87  1  0.11209527  0.89965753  0.11817574  1
  Ta  Ta88  1  0.10794643  0.09343754  0.38051674  1
  Ta  Ta89  1  0.37419396  0.80220009  0.26152728  1
  Ta  Ta90  1  0.20147931  0.21397302  0.75558887  1
  Ta  Ta91  1  0.20979992  0.61181304  0.25123485  1
  Ta  Ta92  1  0.00848704  0.60559417  0.48777845  1
  Ta  Ta93  1  0.89565251  0.09929940  0.38259096  1
  Ta  Ta94  1  0.30441862  0.51092317  0.36229311  1
  Ta  Ta95  1  0.90833569  0.29061683  0.12718636  1
  Ta  Ta96  1  0.02162211  0.38360778  0.75416266  1
  Ta  Ta97  1  0.70239191  0.90814417  0.61154393  1
  Ta  Ta98  1  0.79076532  0.60404863  0.49703223  1
  Ta  Ta99  1  0.00899209  0.81123754  0.50427480  1
  Ta  Ta100  1  0.80877309  0.19195460  0.75904001  1
  Ta  Ta101  1  0.69589556  0.11451294  0.12779955  1
  Ta  Ta102  1  0.69286669  0.90209940  0.87333892  1
  Ta  Ta103  1  0.39097455  -0.01218766  0.26397459  1
  Ta  Ta104  1  0.37302811  0.40362104  0.76078730  1
  Ta  Ta105  1  0.50310796  0.89698040  0.85993453  1
  Ta  Ta106  1  0.19249086  0.40874765  0.24694707  1
  Ta  Ta107  1  0.90716549  0.91109030  0.38625417  1
  Ta  Ta108  1  0.18096960  0.01101084  -0.00140841  1
  Ta  Ta109  1  0.01612516  0.58367785  -0.00410488  1
  Ta  Ta110  1  0.91630471  0.48911416  0.11676138  1
  Ta  Ta111  1  0.49359409  0.30077450  0.87798089  1
  Ta  Ta112  1  0.18801819  0.21011955  0.01642170  1
  Ta  Ta113  1  0.69791847  0.50132400  0.87494704  1
  Ta  Ta114  1  0.39497481  0.21715585  0.75410938  1
  Ta  Ta115  1  0.48440639  0.90259525  0.39452078  1
  Ta  Ta116  1  0.90437584  0.90736313  0.61653896  1
  Ta  Ta117  1  0.20229204  -0.01730775  0.25456534  1
  Ta  Ta118  1  0.28341233  0.89006119  0.39006431  1
  Ta  Ta119  1  0.70508957  0.10797475  0.38261245  1
  Ti  Ti120  1  0.49652997  0.29608929  0.35212684  1
  Ti  Ti121  1  0.30128159  0.66717121  0.64533167  1
  Ti  Ti122  1  0.16332772  0.40843929  0.01933010  1
  Ti  Ti123  1  0.29414533  0.08551085  0.38576557  1
  Ti  Ti124  1  0.20746596  0.56343307  0.75749970  1
  Ti  Ti125  1  0.88756079  0.29428523  0.37451234  1
  Ti  Ti126  1  0.00917343  0.19015475  0.00566875  1
  Ti  Ti127  1  0.59886582  0.19676107  0.75211767  1
  Ti  Ti128  1  0.90948517  0.89858108  0.11338979  1
  Ti  Ti129  1  0.60475964  -0.00337033  0.74486850  1
  Ti  Ti130  1  0.29189379  0.30781117  0.89254488  1
  Ti  Ti131  1  0.09465633  0.92338176  0.63366598  1
  Ti  Ti132  1  0.59977647  0.40823831  0.51596379  1
  Ti  Ti133  1  0.80270839  0.00193011  0.75068217  1
  Ti  Ti134  1  0.19572079  0.81086981  -0.01267748  1
  Ti  Ti135  1  0.00322851  0.57683703  0.76002143  1
  Ti  Ti136  1  0.88996614  0.50123022  0.38342887  1
  Ti  Ti137  1  0.60909035  0.80816246  0.73553341  1
  Ti  Ti138  1  0.61418418  0.41656644  0.22720713  1
  Ti  Ti139  1  0.79502414  0.19817884  0.25107450  1
  Ti  Ti140  1  0.79605596  0.00302699  -0.00166645  1
  Ti  Ti141  1  0.69924882  0.29658990  0.63510020  1
  Ti  Ti142  1  -0.00266737  0.19631237  0.25734145  1
  Ti  Ti143  1  0.18552088  0.18828948  0.24062471  1
  Ti  Ti144  1  0.80563934  0.38950061  0.00908298  1
  Ti  Ti145  1  0.80100216  0.00576829  0.25668683  1
  Ti  Ti146  1  0.20601727  0.59442163  0.49754209  1
  Ti  Ti147  1  0.10510233  0.69354439  0.12446954  1
  Ti  Ti148  1  0.28829653  0.28960248  0.35481769  1
  Ti  Ti149  1  0.60814257  0.20129095  -0.00503927  1
  Ti  Ti150  1  0.09795001  0.10210753  0.60991634  1
  Ti  Ti151  1  0.79575276  0.20618006  0.49834898  1
  Ti  Ti152  1  0.69088635  0.51670660  0.63241941  1
  Ti  Ti153  1  0.49126656  0.29975877  0.63435224  1
  Ti  Ti154  1  0.43101812  0.61610672  0.01370635  1
  Ti  Ti155  1  0.09629214  0.30113950  0.88582232  1
  Ti  Ti156  1  0.60865005  0.59314366  0.49602255  1
  Ti  Ti157  1  0.69869640  0.91360928  0.38924348  1
  Ti  Ti158  1  0.28709138  0.29814247  0.12958151  1
  Ti  Ti159  1  0.29723474  0.31366704  0.62613641  1
  Mo  Mo160  1  0.29766411  0.91948685  0.62675746  1
  Mo  Mo161  1  0.30119797  0.69630437  0.37806088  1
  Mo  Mo162  1  0.91236343  0.28104246  0.87496256  1
  Mo  Mo163  1  0.60215530  0.60275067  -0.00671821  1
  Mo  Mo164  1  0.60723109  0.59578228  0.75086493  1
  Mo  Mo165  1  0.29352310  0.90528418  0.11770379  1
  Mo  Mo166  1  0.39334283  0.00066775  -0.01104894  1
  Mo  Mo167  1  0.09661647  0.11396425  0.88142031  1
  Mo  Mo168  1  0.70284920  0.49910609  0.38222905  1
  Mo  Mo169  1  0.29423680  0.48819007  0.62567261  1
  Mo  Mo170  1  0.09954419  0.48953824  0.87774546  1
  Mo  Mo171  1  0.39187455  -0.00317649  0.49900650  1
  Mo  Mo172  1  0.19083049  -0.00586450  0.49878088  1
  Mo  Mo173  1  0.09766568  0.10149235  0.12973157  1
  Mo  Mo174  1  0.19931182  0.80563833  0.24628171  1
  Mo  Mo175  1  0.39333887  0.59506741  0.75386210  1
  Mo  Mo176  1  0.11339000  0.50782622  0.37509966  1
  Mo  Mo177  1  0.60077378  0.00035369  0.49522893  1
  Mo  Mo178  1  0.52397955  0.51745964  0.12443659  1
  Mo  Mo179  1  0.49901397  0.71208948  0.12698327  1
  Mo  Mo180  1  0.70670904  0.69995207  0.62441456  1
  Mo  Mo181  1  0.69563297  0.69247831  0.37368459  1
  Mo  Mo182  1  0.19780143  0.20215038  0.48778169  1
  Mo  Mo183  1  0.09509424  0.50616607  0.13025612  1
  Mo  Mo184  1  0.19894277  0.38491244  0.76058531  1
  Mo  Mo185  1  0.18171614  0.02838312  0.74386591  1
  Mo  Mo186  1  0.18127806  0.62360105  -0.00270774  1
  Mo  Mo187  1  -0.01168596  -0.00087179  0.74435362  1
  Mo  Mo188  1  0.79879748  0.00396196  0.49339549  1
  Mo  Mo189  1  0.71490463  0.29242406  0.12432103  1
  Mo  Mo190  1  -0.00105991  -0.00672036  0.00830247  1
  Mo  Mo191  1  0.10460007  0.28972584  0.35308319  1
  Mo  Mo192  1  0.10010493  0.90516102  0.38178511  1
  Mo  Mo193  1  0.09483775  0.29611338  0.13982338  1
  Mo  Mo194  1  -0.00599992  0.81074717  0.73496484  1
  Mo  Mo195  1  0.60779632  0.20022149  0.25604829  1
  Mo  Mo196  1  0.00371722  0.00123191  0.49531498  1
  Mo  Mo197  1  -0.00311422  0.37788540  0.00729513  1
  Mo  Mo198  1  0.71457164  0.49629602  0.11802676  1
  Mo  Mo199  1  0.60515010  0.59781766  0.25702847  1
