# generated using pymatgen
data_HfZrTaTiMo
_symmetry_space_group_name_H-M   'P 1'
_cell_length_a   15.18854932
_cell_length_b   15.18530624
_cell_length_c   16.80752245
_cell_angle_alpha   89.99703540
_cell_angle_beta   90.01222781
_cell_angle_gamma   90.14325732
_symmetry_Int_Tables_number   1
_chemical_formula_structural   HfZrTaTiMo
_chemical_formula_sum   'Hf40 Zr40 Ta40 Ti40 Mo40'
_cell_volume   3876.52137052
_cell_formula_units_Z   40
loop_
 _symmetry_equiv_pos_site_id
 _symmetry_equiv_pos_as_xyz
  1  'x, y, z'
loop_
 _atom_site_type_symbol
 _atom_site_label
 _atom_site_symmetry_multiplicity
 _atom_site_fract_x
 _atom_site_fract_y
 _atom_site_fract_z
 _atom_site_occupancy
  Hf  Hf0  1  0.00248661  0.60699041  0.75140728  1
  Hf  Hf1  1  0.89857880  0.10337806  0.37586310  1
  Hf  Hf2  1  0.60265733  0.60619500  0.74660803  1
  Hf  Hf3  1  0.58569031  -0.00704293  0.49610024  1
  Hf  Hf4  1  0.11304433  0.49783901  0.12651091  1
  Hf  Hf5  1  0.79970697  -0.01227682  0.74328150  1
  Hf  Hf6  1  0.79738713  0.41104371  0.24924553  1
  Hf  Hf7  1  0.00680077  -0.00910807  0.74311185  1
  Hf  Hf8  1  0.70251950  0.10720377  0.88144637  1
  Hf  Hf9  1  0.90432598  0.09270673  0.62181311  1
  Hf  Hf10  1  0.39472017  0.61445244  0.48213589  1
  Hf  Hf11  1  0.57413304  0.19048342  0.24241375  1
  Hf  Hf12  1  0.79945275  0.58634577  0.76063852  1
  Hf  Hf13  1  0.00174727  0.20470942  0.50829837  1
  Hf  Hf14  1  0.68988809  0.29899722  0.36557327  1
  Hf  Hf15  1  0.28872774  0.10181090  0.87996427  1
  Hf  Hf16  1  0.58882704  0.78762580  0.00327897  1
  Hf  Hf17  1  0.49287497  0.11312408  0.88138587  1
  Hf  Hf18  1  0.70362385  0.68636321  0.12899693  1
  Hf  Hf19  1  0.08897570  0.31193449  0.63326672  1
  Hf  Hf20  1  0.90079672  0.09695838  0.88156145  1
  Hf  Hf21  1  0.21222985  -0.00197175  0.48916222  1
  Hf  Hf22  1  0.79399025  0.38908925  0.51121623  1
  Hf  Hf23  1  0.88315418  0.88518023  0.38590118  1
  Hf  Hf24  1  0.10632909  0.90791390  0.88181790  1
  Hf  Hf25  1  0.50583053  0.50371847  0.86739483  1
  Hf  Hf26  1  0.20221904  0.19697269  0.51520810  1
  Hf  Hf27  1  -0.00100482  0.59668819  0.26638003  1
  Hf  Hf28  1  0.89720178  0.89744980  0.12539377  1
  Hf  Hf29  1  0.79655611  0.78704610  -0.00448789  1
  Hf  Hf30  1  0.39563846  0.80031673  0.00827273  1
  Hf  Hf31  1  0.00825869  -0.00639805  0.49252909  1
  Hf  Hf32  1  0.11382235  0.10902289  0.36539426  1
  Hf  Hf33  1  0.20469024  0.79485305  0.47543010  1
  Hf  Hf34  1  0.69809345  0.49585907  0.38352713  1
  Hf  Hf35  1  0.69180761  0.09338133  0.36946382  1
  Hf  Hf36  1  0.29485888  0.29589118  0.37861743  1
  Hf  Hf37  1  0.38670290  0.78944338  0.74871259  1
  Hf  Hf38  1  0.59555910  -0.00733796  -0.00856056  1
  Hf  Hf39  1  0.50530135  0.90601724  0.14694543  1
  Zr  Zr40  1  0.79346886  0.38264562  0.74679096  1
  Zr  Zr41  1  0.10371458  0.70090243  0.13900395  1
  Zr  Zr42  1  -0.00033930  0.61047601  0.49135698  1
  Zr  Zr43  1  0.11168121  0.89792685  0.61449325  1
  Zr  Zr44  1  0.90113652  0.85972782  0.61371352  1
  Zr  Zr45  1  0.89982665  0.30547304  0.37721715  1
  Zr  Zr46  1  0.69997370  0.89284924  0.13065502  1
  Zr  Zr47  1  0.10651286  0.48333619  0.37823297  1
  Zr  Zr48  1  0.49185571  0.30139618  0.37702179  1
  Zr  Zr49  1  0.89531340  0.50662700  0.11564715  1
  Zr  Zr50  1  -0.00952497  0.20722450  0.74904539  1
  Zr  Zr51  1  0.41332173  0.60837661  0.00846326  1
  Zr  Zr52  1  0.39388048  0.00241932  0.00983792  1
  Zr  Zr53  1  0.59903098  0.22364585  0.74907567  1
  Zr  Zr54  1  0.90174286  0.89768837  0.88001157  1
  Zr  Zr55  1  0.49434450  0.70872899  0.62098103  1
  Zr  Zr56  1  0.19577003  0.80982610  0.27174805  1
  Zr  Zr57  1  0.78503813  -0.01392408  0.50424476  1
  Zr  Zr58  1  0.00105360  0.59844968  -0.00809136  1
  Zr  Zr59  1  0.00944446  0.79696311  0.00757367  1
  Zr  Zr60  1  0.68904465  0.09240497  0.62930445  1
  Zr  Zr61  1  0.12032607  0.71144397  0.86945255  1
  Zr  Zr62  1  0.21878265  0.60954125  0.00612777  1
  Zr  Zr63  1  0.00091467  -0.00022473  0.25384291  1
  Zr  Zr64  1  0.58800266  -0.00510107  0.75998110  1
  Zr  Zr65  1  0.60146737  0.60838528  0.49863425  1
  Zr  Zr66  1  0.39001838  -0.00548117  0.75969800  1
  Zr  Zr67  1  0.10588642  0.28352560  0.12561648  1
  Zr  Zr68  1  0.48869068  0.30371887  0.11740985  1
  Zr  Zr69  1  0.69262353  0.30851384  0.12270926  1
  Zr  Zr70  1  0.20418122  0.19837526  0.74348631  1
  Zr  Zr71  1  0.11015199  0.50116960  0.87025006  1
  Zr  Zr72  1  0.00003972  0.39247622  0.24423533  1
  Zr  Zr73  1  0.69116360  0.09349145  0.11789716  1
  Zr  Zr74  1  0.69152373  0.87916100  0.86678116  1
  Zr  Zr75  1  0.59855180  0.20317328  0.50297737  1
  Zr  Zr76  1  0.09568511  0.30435029  0.87461093  1
  Zr  Zr77  1  0.21177763  0.40606755  0.74026038  1
  Zr  Zr78  1  0.20685279  0.59815335  0.49241847  1
  Zr  Zr79  1  0.80746547  0.19727294  0.23887772  1
  Ta  Ta80  1  0.00342326  0.00669696  0.01294307  1
  Ta  Ta81  1  0.79355472  0.58668226  -0.02250629  1
  Ta  Ta82  1  0.40119412  0.41277539  -0.00216094  1
  Ta  Ta83  1  0.60601018  0.59392758  0.25835488  1
  Ta  Ta84  1  0.80469122  0.60266641  0.26305415  1
  Ta  Ta85  1  0.50015104  0.70994484  0.86497127  1
  Ta  Ta86  1  0.50488262  0.31628398  0.61738889  1
  Ta  Ta87  1  0.89961728  0.29890527  0.11366502  1
  Ta  Ta88  1  0.09007910  0.70872127  0.62382052  1
  Ta  Ta89  1  0.41097916  0.39840413  0.74548462  1
  Ta  Ta90  1  0.29908594  0.90375539  0.14256503  1
  Ta  Ta91  1  0.29981441  0.08727988  0.62841524  1
  Ta  Ta92  1  0.48949973  0.90530671  0.62383191  1
  Ta  Ta93  1  0.50583988  0.30852135  0.88488334  1
  Ta  Ta94  1  0.09757792  0.09835354  0.87943307  1
  Ta  Ta95  1  0.21628297  0.39344999  0.24615444  1
  Ta  Ta96  1  0.79410579  -0.00631983  0.25323452  1
  Ta  Ta97  1  0.21470184  0.59503990  0.26885958  1
  Ta  Ta98  1  0.21922803  0.61841279  0.73499262  1
  Ta  Ta99  1  0.90403526  0.49554332  0.62834908  1
  Ta  Ta100  1  -0.00718682  0.79650896  0.26734701  1
  Ta  Ta101  1  0.49906505  0.49565958  0.37302396  1
  Ta  Ta102  1  0.31540138  0.50061916  0.13443458  1
  Ta  Ta103  1  0.68531297  0.87689583  0.63227305  1
  Ta  Ta104  1  0.39817989  0.00498136  0.49912137  1
  Ta  Ta105  1  0.80729295  0.59744502  0.50113334  1
  Ta  Ta106  1  0.09952515  0.50896309  0.62666366  1
  Ta  Ta107  1  0.30889159  0.70382689  0.15167229  1
  Ta  Ta108  1  0.79783352  0.20124462  0.00559309  1
  Ta  Ta109  1  0.21469431  0.40046463  -0.00003152  1
  Ta  Ta110  1  0.68772797  0.48839980  0.62185180  1
  Ta  Ta111  1  0.20552903  0.39715787  0.51422346  1
  Ta  Ta112  1  0.10111643  0.29503228  0.37102278  1
  Ta  Ta113  1  0.60744197  0.59743196  -0.00858794  1
  Ta  Ta114  1  0.31039569  0.51441066  0.86578028  1
  Ta  Ta115  1  0.79758206  0.19617721  0.74456582  1
  Ta  Ta116  1  0.10328384  0.90591248  0.13387555  1
  Ta  Ta117  1  0.48718759  0.10666082  0.62907474  1
  Ta  Ta118  1  0.20019749  -0.00265841  0.74693928  1
  Ta  Ta119  1  0.19635947  0.00502565  0.01749052  1
  Ti  Ti120  1  0.50465654  0.69588860  0.14344108  1
  Ti  Ti121  1  0.70089741  0.50028572  0.12187275  1
  Ti  Ti122  1  0.29569307  0.12252120  0.12678871  1
  Ti  Ti123  1  0.20920895  0.01660574  0.24481128  1
  Ti  Ti124  1  0.39554460  0.40860022  0.50348054  1
  Ti  Ti125  1  0.39145129  0.21229062  0.00186734  1
  Ti  Ti126  1  -0.00199278  0.40560557  0.50140564  1
  Ti  Ti127  1  0.79790373  0.79291889  0.25188147  1
  Ti  Ti128  1  0.59809015  0.80530415  0.49501037  1
  Ti  Ti129  1  0.29623082  0.88948551  0.88163447  1
  Ti  Ti130  1  0.31007314  0.51051997  0.62565274  1
  Ti  Ti131  1  0.40650232  0.80535101  0.26147786  1
  Ti  Ti132  1  0.67930079  0.89070626  0.36008476  1
  Ti  Ti133  1  0.39376380  0.20029532  0.51025701  1
  Ti  Ti134  1  0.70666453  0.70586191  0.37761503  1
  Ti  Ti135  1  0.61160042  0.40333848  -0.00617026  1
  Ti  Ti136  1  0.89883622  0.69743421  0.12832255  1
  Ti  Ti137  1  0.90659164  0.10088620  0.12372429  1
  Ti  Ti138  1  0.40642081  0.59692200  0.26268665  1
  Ti  Ti139  1  0.40382066  0.39820961  0.24803382  1
  Ti  Ti140  1  0.20828843  0.80769733  0.01626366  1
  Ti  Ti141  1  0.90619415  0.48113445  0.87379367  1
  Ti  Ti142  1  0.40200245  0.81617610  0.48158548  1
  Ti  Ti143  1  0.71331221  0.69483190  0.62286800  1
  Ti  Ti144  1  0.40607228  0.02947857  0.23945663  1
  Ti  Ti145  1  0.19654015  0.80903647  0.74123039  1
  Ti  Ti146  1  0.00333385  0.19575772  0.00115114  1
  Ti  Ti147  1  0.30912585  0.30981870  0.87533356  1
  Ti  Ti148  1  0.90406822  0.70106097  0.87298651  1
  Ti  Ti149  1  0.80193711  0.77898104  0.75218333  1
  Ti  Ti150  1  0.48308479  0.09775530  0.37440951  1
  Ti  Ti151  1  0.51088164  0.71361785  0.36590691  1
  Ti  Ti152  1  0.51430805  0.50109631  0.13138122  1
  Ti  Ti153  1  0.39565383  0.21032194  0.74516742  1
  Ti  Ti154  1  0.31571222  0.92399762  0.35807853  1
  Ti  Ti155  1  0.19831279  0.20197891  -0.00146458  1
  Ti  Ti156  1  0.79677093  0.19637690  0.51091089  1
  Ti  Ti157  1  0.49770832  0.50424931  0.62424172  1
  Ti  Ti158  1  0.00119265  0.39464971  0.00360530  1
  Ti  Ti159  1  0.88741707  0.29654037  0.88673662  1
  Mo  Mo160  1  0.00128045  0.79108655  0.47978528  1
  Mo  Mo161  1  0.10115992  0.09689182  0.12859532  1
  Mo  Mo162  1  0.09651602  0.90548842  0.37396569  1
  Mo  Mo163  1  0.59137304  0.20503951  -0.00271191  1
  Mo  Mo164  1  0.00115854  0.79604601  0.75079256  1
  Mo  Mo165  1  0.31655038  0.70192255  0.35778272  1
  Mo  Mo166  1  0.20490173  0.20304634  0.24715666  1
  Mo  Mo167  1  0.31427966  0.30290081  0.61963744  1
  Mo  Mo168  1  0.48769028  0.89096248  0.87763092  1
  Mo  Mo169  1  -0.00042821  0.19926298  0.24737226  1
  Mo  Mo170  1  0.31109254  0.10675254  0.37082071  1
  Mo  Mo171  1  0.09986097  0.69910284  0.36687311  1
  Mo  Mo172  1  0.30247235  0.70540079  0.87619474  1
  Mo  Mo173  1  0.70037515  0.29928927  0.88744795  1
  Mo  Mo174  1  0.80465824  0.39810764  -0.00488583  1
  Mo  Mo175  1  0.49104841  0.10361463  0.11074824  1
  Mo  Mo176  1  0.10490943  0.09517975  0.62685417  1
  Mo  Mo177  1  0.78018138  0.78134998  0.50038379  1
  Mo  Mo178  1  0.39684764  0.59457012  0.74244846  1
  Mo  Mo179  1  0.69733044  0.68738729  0.87267810  1
  Mo  Mo180  1  0.31001047  0.89098597  0.61610694  1
  Mo  Mo181  1  0.88933137  0.69628606  0.37383695  1
  Mo  Mo182  1  0.69746647  0.48402828  0.87490351  1
  Mo  Mo183  1  0.59802887  0.79741920  0.74446218  1
  Mo  Mo184  1  0.29037254  0.71220649  0.61529187  1
  Mo  Mo185  1  0.60316956  0.78672040  0.25307922  1
  Mo  Mo186  1  0.59440461  0.00150075  0.25549044  1
  Mo  Mo187  1  0.38073395  0.20587068  0.24291105  1
  Mo  Mo188  1  0.59262500  0.40999124  0.24513577  1
  Mo  Mo189  1  0.89328703  0.49719575  0.38369156  1
  Mo  Mo190  1  0.80765155  0.00329831  0.00451448  1
  Mo  Mo191  1  -0.00988055  0.41205301  0.74904057  1
  Mo  Mo192  1  0.69659957  0.29721758  0.62150985  1
  Mo  Mo193  1  0.49811873  0.90894027  0.35959653  1
  Mo  Mo194  1  0.31251692  0.48823331  0.37027750  1
  Mo  Mo195  1  0.58915295  0.40691019  0.50299333  1
  Mo  Mo196  1  0.89619564  0.30089268  0.62004517  1
  Mo  Mo197  1  0.89900153  0.68654719  0.62776931  1
  Mo  Mo198  1  0.29747910  0.31331604  0.11612315  1
  Mo  Mo199  1  0.59811501  0.40483866  0.74793071  1
