# generated using pymatgen
data_HfZrTaTiMo
_symmetry_space_group_name_H-M   'P 1'
_cell_length_a   15.17896896
_cell_length_b   15.17651317
_cell_length_c   16.80549905
_cell_angle_alpha   90.02152561
_cell_angle_beta   89.99495786
_cell_angle_gamma   89.86269289
_symmetry_Int_Tables_number   1
_chemical_formula_structural   HfZrTaTiMo
_chemical_formula_sum   'Hf40 Zr40 Ta40 Ti40 Mo40'
_cell_volume   3871.36759380
_cell_formula_units_Z   40
loop_
 _symmetry_equiv_pos_site_id
 _symmetry_equiv_pos_as_xyz
  1  'x, y, z'
loop_
 _atom_site_type_symbol
 _atom_site_label
 _atom_site_symmetry_multiplicity
 _atom_site_fract_x
 _atom_site_fract_y
 _atom_site_fract_z
 _atom_site_occupancy
  Hf  Hf0  1  0.50707942  0.09449282  0.87694513  1
  Hf  Hf1  1  0.60556799  0.18780383  0.23582773  1
  Hf  Hf2  1  0.38674956  -0.00052931  0.00321362  1
  Hf  Hf3  1  0.79694474  0.79715003  0.26244592  1
  Hf  Hf4  1  0.30467266  0.48962588  0.13709982  1
  Hf  Hf5  1  0.67956354  0.92332228  0.36135187  1
  Hf  Hf6  1  0.39771008  -0.00306592  0.23554304  1
  Hf  Hf7  1  0.39236764  0.79049832  0.49840499  1
  Hf  Hf8  1  0.39461120  0.80442429  0.24515087  1
  Hf  Hf9  1  0.08908630  0.69911584  0.13715179  1
  Hf  Hf10  1  0.69972180  0.89731245  0.12972580  1
  Hf  Hf11  1  0.68847980  0.69744710  0.86502256  1
  Hf  Hf12  1  0.61348550  0.58450033  0.50245192  1
  Hf  Hf13  1  0.89950751  0.49632678  0.12673349  1
  Hf  Hf14  1  -0.00263184  0.60486595  0.74727377  1
  Hf  Hf15  1  -0.00265493  0.20757471  0.26241877  1
  Hf  Hf16  1  0.61610409  0.38732596  0.25993627  1
  Hf  Hf17  1  0.39635464  0.79450681  0.74699958  1
  Hf  Hf18  1  -0.00449499  0.80944246  0.25913913  1
  Hf  Hf19  1  0.50803186  0.48955261  0.37711722  1
  Hf  Hf20  1  0.51611694  0.07194150  0.36788613  1
  Hf  Hf21  1  0.51619732  0.30061553  0.61993995  1
  Hf  Hf22  1  0.31793574  0.28798674  0.12346312  1
  Hf  Hf23  1  0.49639772  0.68517912  0.36345446  1
  Hf  Hf24  1  0.41557869  0.58861220  0.00275134  1
  Hf  Hf25  1  -0.02427848  0.80841292  0.74419371  1
  Hf  Hf26  1  -0.00240160  0.01065129  0.25705169  1
  Hf  Hf27  1  0.10694047  0.31811078  0.38944575  1
  Hf  Hf28  1  0.40745537  0.36811293  0.25896742  1
  Hf  Hf29  1  0.19258350  0.80978796  0.01146369  1
  Hf  Hf30  1  0.31731662  0.10194577  0.37550734  1
  Hf  Hf31  1  -0.00858478  0.59963536  -0.00274740  1
  Hf  Hf32  1  0.59244298  0.79291422  0.49008966  1
  Hf  Hf33  1  0.80574751  0.39855726  -0.00954877  1
  Hf  Hf34  1  0.70600883  0.10140998  0.87581386  1
  Hf  Hf35  1  0.77812905  0.59491454  -0.00608010  1
  Hf  Hf36  1  0.80761432  0.39714786  0.74730988  1
  Hf  Hf37  1  0.79971260  0.79741406  0.00955862  1
  Hf  Hf38  1  0.88849855  0.91593630  0.38547044  1
  Hf  Hf39  1  0.86693910  0.90356532  0.60497864  1
  Zr  Zr40  1  0.08015109  0.90079240  0.60952430  1
  Zr  Zr41  1  0.50229578  0.89050811  0.88246362  1
  Zr  Zr42  1  0.69920751  0.90201696  0.88736319  1
  Zr  Zr43  1  0.29555435  0.68870769  0.14211425  1
  Zr  Zr44  1  0.08959931  0.11266670  0.87729408  1
  Zr  Zr45  1  0.79434490  0.20620116  0.51917530  1
  Zr  Zr46  1  0.41787800  0.41192112  0.74479678  1
  Zr  Zr47  1  0.01647870  0.20099859  0.72914631  1
  Zr  Zr48  1  0.09766511  0.69904111  0.61818250  1
  Zr  Zr49  1  0.28928532  0.90519497  0.86758690  1
  Zr  Zr50  1  0.88808078  0.31372669  0.38765090  1
  Zr  Zr51  1  0.09138789  0.69424211  0.37034729  1
  Zr  Zr52  1  0.70506709  0.70290636  0.62823726  1
  Zr  Zr53  1  0.20082761  0.00983041  0.50117425  1
  Zr  Zr54  1  0.40798587  0.20158715  0.76173345  1
  Zr  Zr55  1  0.00497709  0.20482191  0.50841757  1
  Zr  Zr56  1  0.59249436  0.80192191  0.25474668  1
  Zr  Zr57  1  0.10656059  0.30314061  0.12894878  1
  Zr  Zr58  1  0.20453149  0.59439780  0.50135747  1
  Zr  Zr59  1  0.29314779  0.69196597  0.35911644  1
  Zr  Zr60  1  0.20396180  0.59446683  0.00417238  1
  Zr  Zr61  1  0.51191301  0.27143514  0.38938725  1
  Zr  Zr62  1  0.18502547  0.01448705  0.73564368  1
  Zr  Zr63  1  0.79351550  0.02492930  0.23849052  1
  Zr  Zr64  1  0.49055820  0.89861918  0.62502134  1
  Zr  Zr65  1  0.29538869  0.49179290  0.36585107  1
  Zr  Zr66  1  0.08609399  0.90993045  0.87331165  1
  Zr  Zr67  1  0.88977706  0.69728552  0.13301212  1
  Zr  Zr68  1  0.09366307  0.70959907  0.87575159  1
  Zr  Zr69  1  0.89953554  0.09146992  0.87525177  1
  Zr  Zr70  1  0.29884732  0.69216995  0.86921529  1
  Zr  Zr71  1  0.39515335  0.78953623  0.00835072  1
  Zr  Zr72  1  0.60473642  0.00116152  0.51093946  1
  Zr  Zr73  1  0.60126444  0.21749292  0.00052042  1
  Zr  Zr74  1  0.11950904  0.31544793  0.61562229  1
  Zr  Zr75  1  0.31015201  0.10002041  0.62783907  1
  Zr  Zr76  1  0.10536066  0.49565598  0.87312171  1
  Zr  Zr77  1  0.27740190  0.09754800  0.12467867  1
  Zr  Zr78  1  0.92162091  0.29371272  0.87606870  1
  Zr  Zr79  1  0.19298850  0.21214160  -0.01089329  1
  Ta  Ta80  1  -0.00115489  0.41086813  0.25438045  1
  Ta  Ta81  1  0.61716875  0.20450997  0.74482574  1
  Ta  Ta82  1  0.01026273  0.40687286  0.74634760  1
  Ta  Ta83  1  0.41315162  0.39319194  -0.00696717  1
  Ta  Ta84  1  0.69656137  0.50645837  0.13169977  1
  Ta  Ta85  1  0.78244736  0.79651144  0.48054589  1
  Ta  Ta86  1  0.09668527  0.90291032  0.38806568  1
  Ta  Ta87  1  0.19722424  0.79989966  0.49674773  1
  Ta  Ta88  1  0.48646561  0.11575788  0.11650759  1
  Ta  Ta89  1  0.80629291  0.01014772  0.01833358  1
  Ta  Ta90  1  0.89846495  0.89862251  0.89025633  1
  Ta  Ta91  1  0.22168515  0.21373223  0.49354350  1
  Ta  Ta92  1  0.30162633  0.49478981  0.62685890  1
  Ta  Ta93  1  0.30990479  0.30097352  0.62741179  1
  Ta  Ta94  1  0.71030931  0.08763198  0.63282035  1
  Ta  Ta95  1  0.49892227  0.68077981  0.63189346  1
  Ta  Ta96  1  0.19244592  0.00230893  0.26094296  1
  Ta  Ta97  1  0.60499717  0.80366598  0.74380576  1
  Ta  Ta98  1  0.89346210  0.51448639  0.37744012  1
  Ta  Ta99  1  0.60501817  0.42009655  -0.00303186  1
  Ta  Ta100  1  -0.01491522  0.01723780  0.49934646  1
  Ta  Ta101  1  0.60162214  -0.00107902  0.74528267  1
  Ta  Ta102  1  0.69229844  0.49735043  0.85668456  1
  Ta  Ta103  1  0.70635237  0.31346516  0.12056412  1
  Ta  Ta104  1  0.89159738  0.70674814  0.87827222  1
  Ta  Ta105  1  0.39746048  0.20644018  -0.02005895  1
  Ta  Ta106  1  0.81179241  0.19439077  0.73613491  1
  Ta  Ta107  1  0.50634218  0.67620142  0.14117444  1
  Ta  Ta108  1  0.60025342  0.00458789  0.01934073  1
  Ta  Ta109  1  0.30944252  0.49121145  0.86735649  1
  Ta  Ta110  1  0.80294809  0.60767948  0.74939112  1
  Ta  Ta111  1  0.29082886  0.89248597  0.62319414  1
  Ta  Ta112  1  0.89716598  0.70719723  0.60493135  1
  Ta  Ta113  1  0.19457397  0.81683977  0.25034438  1
  Ta  Ta114  1  0.20884211  0.20247225  0.26516661  1
  Ta  Ta115  1  0.39363143  0.38924822  0.49922786  1
  Ta  Ta116  1  0.50717286  0.48486223  0.13678140  1
  Ta  Ta117  1  0.19034586  0.79871463  0.74004817  1
  Ta  Ta118  1  0.59572263  0.77768816  0.01127743  1
  Ta  Ta119  1  0.90619961  0.29862190  0.12357620  1
  Ti  Ti120  1  0.51614927  0.31290739  0.86752168  1
  Ti  Ti121  1  0.68561720  0.49254037  0.64224835  1
  Ti  Ti122  1  0.79610534  0.42101254  0.51093948  1
  Ti  Ti123  1  0.41491576  0.18345611  0.50734607  1
  Ti  Ti124  1  0.08160687  0.10667035  0.12315996  1
  Ti  Ti125  1  0.50117183  0.69074052  0.86259491  1
  Ti  Ti126  1  0.61712069  0.38175696  0.49756518  1
  Ti  Ti127  1  0.71176888  0.12265663  0.38342118  1
  Ti  Ti128  1  0.79624892  -0.01871783  0.75033742  1
  Ti  Ti129  1  0.29195958  0.10585651  0.86615147  1
  Ti  Ti130  1  0.89771195  0.51192269  0.62317559  1
  Ti  Ti131  1  0.89810242  0.50366032  0.86975348  1
  Ti  Ti132  1  0.90765897  0.31889731  0.61917254  1
  Ti  Ti133  1  0.79967178  0.21393062  0.24557456  1
  Ti  Ti134  1  0.21484064  0.39944911  -0.00443637  1
  Ti  Ti135  1  0.09973469  0.10642965  0.38185386  1
  Ti  Ti136  1  0.70608531  0.66755217  0.36765404  1
  Ti  Ti137  1  0.50994397  0.50975574  0.86695562  1
  Ti  Ti138  1  0.70926060  0.30031441  0.86931688  1
  Ti  Ti139  1  0.09938364  0.49984767  0.62201396  1
  Ti  Ti140  1  0.30220774  0.90284129  0.38033362  1
  Ti  Ti141  1  0.10043528  0.91307337  0.12670789  1
  Ti  Ti142  1  0.91202097  0.90582221  0.12013563  1
  Ti  Ti143  1  -0.00769922  0.59711358  0.50195373  1
  Ti  Ti144  1  0.20601603  0.59339486  0.74483356  1
  Ti  Ti145  1  0.01651449  0.38785167  -0.00291789  1
  Ti  Ti146  1  0.80446871  0.40323553  0.25383896  1
  Ti  Ti147  1  0.49588090  0.89361646  0.11556236  1
  Ti  Ti148  1  0.40524637  0.58883957  0.50539529  1
  Ti  Ti149  1  0.19603567  0.39412793  0.25285733  1
  Ti  Ti150  1  0.80622602  0.20147979  0.00868900  1
  Ti  Ti151  1  0.50683630  0.09951104  0.63261555  1
  Ti  Ti152  1  0.09055997  0.50500888  0.37460277  1
  Ti  Ti153  1  0.40004214  -0.00397802  0.75480003  1
  Ti  Ti154  1  0.18753836  0.00595789  -0.00030330  1
  Ti  Ti155  1  0.89739022  0.69833288  0.38480647  1
  Ti  Ti156  1  0.69287317  0.68841216  0.13949563  1
  Ti  Ti157  1  0.09916022  0.50169566  0.13261723  1
  Ti  Ti158  1  0.29982886  0.69458976  0.62854377  1
  Ti  Ti159  1  -0.01508423  0.00615390  0.73304862  1
  Mo  Mo160  1  0.59170516  0.59336196  0.74060172  1
  Mo  Mo161  1  0.10508492  0.10655026  0.61444375  1
  Mo  Mo162  1  0.79869483  0.59062388  0.25378255  1
  Mo  Mo163  1  0.30753782  0.30783954  0.87151837  1
  Mo  Mo164  1  0.79176777  0.01020188  0.49319378  1
  Mo  Mo165  1  -0.00384632  0.42201239  0.50608231  1
  Mo  Mo166  1  0.20667369  0.40287224  0.74801180  1
  Mo  Mo167  1  0.40101876  -0.01095859  0.49969380  1
  Mo  Mo168  1  0.49942597  0.49426868  0.60680921  1
  Mo  Mo169  1  0.48432075  0.89823461  0.37841016  1
  Mo  Mo170  1  0.60740974  0.39514042  0.75177401  1
  Mo  Mo171  1  0.89859942  0.11096776  0.37766983  1
  Mo  Mo172  1  0.70712214  0.29755327  0.37660456  1
  Mo  Mo173  1  0.30554583  0.29364136  0.37955349  1
  Mo  Mo174  1  0.20785757  0.40632325  0.50035541  1
  Mo  Mo175  1  0.39710073  0.59892843  0.74358531  1
  Mo  Mo176  1  0.60697388  0.19291649  0.51564578  1
  Mo  Mo177  1  0.11476197  0.31176129  0.86366851  1
  Mo  Mo178  1  0.28430365  0.90152965  0.12675410  1
  Mo  Mo179  1  -0.00037050  -0.00226391  0.01217734  1
  Mo  Mo180  1  0.18400502  0.58482181  0.24593914  1
  Mo  Mo181  1  -0.00865032  0.80206085  0.48719995  1
  Mo  Mo182  1  0.58725890  -0.00163403  0.21603776  1
  Mo  Mo183  1  -0.00772158  0.59320176  0.25415283  1
  Mo  Mo184  1  0.40444836  0.58351705  0.24648695  1
  Mo  Mo185  1  0.80142076  0.60055297  0.50474417  1
  Mo  Mo186  1  -0.00470603  0.80538713  0.00671673  1
  Mo  Mo187  1  0.79964756  0.79960024  0.75407772  1
  Mo  Mo188  1  0.69195016  0.89591945  0.62612954  1
  Mo  Mo189  1  0.50639569  0.30438731  0.11693335  1
  Mo  Mo190  1  0.71302590  0.48113278  0.38226343  1
  Mo  Mo191  1  0.20920239  0.21566112  0.75375434  1
  Mo  Mo192  1  0.70085594  0.11274303  0.11460112  1
  Mo  Mo193  1  0.59400688  0.59864425  0.00006614  1
  Mo  Mo194  1  0.70994949  0.30358787  0.63282102  1
  Mo  Mo195  1  0.90358713  0.11123461  0.12508475  1
  Mo  Mo196  1  0.40377795  0.19002890  0.24751527  1
  Mo  Mo197  1  -0.00791082  0.20185652  0.00765795  1
  Mo  Mo198  1  0.90047603  0.09507884  0.63016709  1
  Mo  Mo199  1  0.60752335  0.58637572  0.25725788  1
