# generated using pymatgen
data_HfZrTaTiMo
_symmetry_space_group_name_H-M   'P 1'
_cell_length_a   15.21089990
_cell_length_b   15.20975479
_cell_length_c   16.83075069
_cell_angle_alpha   89.95624138
_cell_angle_beta   90.02538826
_cell_angle_gamma   89.95254704
_symmetry_Int_Tables_number   1
_chemical_formula_structural   HfZrTaTiMo
_chemical_formula_sum   'Hf40 Zr40 Ta40 Ti40 Mo40'
_cell_volume   3893.85961106
_cell_formula_units_Z   40
loop_
 _symmetry_equiv_pos_site_id
 _symmetry_equiv_pos_as_xyz
  1  'x, y, z'
loop_
 _atom_site_type_symbol
 _atom_site_label
 _atom_site_symmetry_multiplicity
 _atom_site_fract_x
 _atom_site_fract_y
 _atom_site_fract_z
 _atom_site_occupancy
  Hf  Hf0  1  0.61192832  0.19037022  0.49762523  1
  Hf  Hf1  1  0.79023199  0.61532480  0.49594643  1
  Hf  Hf2  1  0.68242755  0.70142150  0.35895918  1
  Hf  Hf3  1  0.01681051  0.41455182  0.74772159  1
  Hf  Hf4  1  0.00576281  0.60994570  0.25857017  1
  Hf  Hf5  1  0.39511798  0.00488604  0.00491109  1
  Hf  Hf6  1  0.89416923  0.89832878  0.86598435  1
  Hf  Hf7  1  0.10548372  0.50683967  0.12796367  1
  Hf  Hf8  1  0.78513778  -0.00013841  0.49760983  1
  Hf  Hf9  1  0.59653224  0.39418416  0.74406736  1
  Hf  Hf10  1  0.69606174  0.09991263  0.13778035  1
  Hf  Hf11  1  0.50224329  0.48854001  0.87350751  1
  Hf  Hf12  1  0.11649882  0.30075000  0.86973045  1
  Hf  Hf13  1  0.01574216  0.39925719  0.50343964  1
  Hf  Hf14  1  0.31182673  0.50173595  0.12431727  1
  Hf  Hf15  1  0.79911307  0.60304999  0.75112385  1
  Hf  Hf16  1  0.90519782  0.30457608  0.86490172  1
  Hf  Hf17  1  0.48594954  0.11086455  0.14687542  1
  Hf  Hf18  1  0.48729291  0.49071007  0.61591817  1
  Hf  Hf19  1  0.00488558  0.19859767  0.24155701  1
  Hf  Hf20  1  0.18531391  0.00313526  0.00007559  1
  Hf  Hf21  1  0.81339759  0.20392464  0.24243158  1
  Hf  Hf22  1  0.40940718  0.17442348  0.48686328  1
  Hf  Hf23  1  0.90500574  0.50795832  0.62901998  1
  Hf  Hf24  1  0.09453278  0.89887366  0.86611416  1
  Hf  Hf25  1  0.89883652  0.70378225  0.12930473  1
  Hf  Hf26  1  0.00045811  0.40256990  0.24816653  1
  Hf  Hf27  1  0.80023643  0.60084660  -0.00204309  1
  Hf  Hf28  1  0.88412862  0.11329359  0.63443755  1
  Hf  Hf29  1  0.61521570  0.41924632  0.26384529  1
  Hf  Hf30  1  0.28938307  0.09987630  0.14043865  1
  Hf  Hf31  1  0.89277337  0.72251110  0.37357076  1
  Hf  Hf32  1  0.29548754  0.68345083  0.37610706  1
  Hf  Hf33  1  0.29068413  0.89323736  0.87487189  1
  Hf  Hf34  1  0.50087943  0.28427144  0.61728992  1
  Hf  Hf35  1  0.81216071  0.41307134  0.48923940  1
  Hf  Hf36  1  0.00141014  0.60378066  0.49225977  1
  Hf  Hf37  1  0.81145459  0.39749377  0.25785838  1
  Hf  Hf38  1  0.01235124  0.19551613  -0.00009807  1
  Hf  Hf39  1  0.49954812  0.70215835  0.62275086  1
  Zr  Zr40  1  0.11226492  0.09840201  0.38038061  1
  Zr  Zr41  1  0.90426326  0.70312185  0.87345552  1
  Zr  Zr42  1  0.50491168  0.29753744  0.38014549  1
  Zr  Zr43  1  0.80769548  0.20621013  0.49440614  1
  Zr  Zr44  1  0.39035521  0.79725179  0.73474096  1
  Zr  Zr45  1  0.59998645  0.00655336  0.00764999  1
  Zr  Zr46  1  0.49164053  0.51703452  0.38284450  1
  Zr  Zr47  1  0.39120286  0.58873417  0.74205883  1
  Zr  Zr48  1  0.59071152  0.59400139  0.00457429  1
  Zr  Zr49  1  0.69334303  0.90613526  0.87118434  1
  Zr  Zr50  1  0.01178807  0.00430973  0.52057878  1
  Zr  Zr51  1  0.19664999  0.60300804  0.00235913  1
  Zr  Zr52  1  0.11635783  0.29394614  0.12671031  1
  Zr  Zr53  1  0.49041019  0.89161123  0.87997359  1
  Zr  Zr54  1  0.40938773  -0.00024806  0.74711388  1
  Zr  Zr55  1  0.80000555  0.58655889  0.26437596  1
  Zr  Zr56  1  0.29814112  0.49463494  0.87983278  1
  Zr  Zr57  1  0.31176141  0.10144892  0.62624565  1
  Zr  Zr58  1  0.00427098  -0.00353078  0.24993550  1
  Zr  Zr59  1  0.42319957  0.38771841  0.00732547  1
  Zr  Zr60  1  0.41102415  0.39438935  0.24881702  1
  Zr  Zr61  1  0.49427641  0.90642348  0.36227017  1
  Zr  Zr62  1  0.28712491  0.88676606  0.38869832  1
  Zr  Zr63  1  0.58988730  0.61142402  0.49979469  1
  Zr  Zr64  1  0.58096090  0.21550139  0.00775926  1
  Zr  Zr65  1  0.89347351  0.10248025  0.86553587  1
  Zr  Zr66  1  0.20740839  0.20649338  0.50792484  1
  Zr  Zr67  1  0.00504441  0.00245589  0.73764422  1
  Zr  Zr68  1  0.68665327  0.09494143  0.35511867  1
  Zr  Zr69  1  0.69672786  0.29261735  0.87361158  1
  Zr  Zr70  1  0.80680164  0.19555611  0.01356246  1
  Zr  Zr71  1  0.11714344  0.50694029  0.36854302  1
  Zr  Zr72  1  0.71408087  0.29835826  0.63066471  1
  Zr  Zr73  1  0.67893186  0.90456072  0.63299164  1
  Zr  Zr74  1  0.29461555  0.10113961  0.86386136  1
  Zr  Zr75  1  0.29749090  0.70186144  0.87646385  1
  Zr  Zr76  1  0.88322230  0.89773665  0.63383926  1
  Zr  Zr77  1  0.81235585  -0.00767022  0.25204534  1
  Zr  Zr78  1  0.58577820  0.79936472  0.01250803  1
  Zr  Zr79  1  0.69460769  0.69655018  0.13882753  1
  Ta  Ta80  1  0.19609406  -0.00442622  0.73166303  1
  Ta  Ta81  1  0.09626188  0.50565600  0.87974297  1
  Ta  Ta82  1  0.91200939  0.30629432  0.63699145  1
  Ta  Ta83  1  0.20714368  0.39009293  0.00292676  1
  Ta  Ta84  1  0.19182436  0.80216667  0.00790149  1
  Ta  Ta85  1  0.32036296  0.28556186  0.12875753  1
  Ta  Ta86  1  0.31951068  0.30068019  0.86747756  1
  Ta  Ta87  1  0.61130709  0.17450281  0.74734240  1
  Ta  Ta88  1  0.18401377  0.59791092  0.74719286  1
  Ta  Ta89  1  0.69703574  0.31438520  0.12537022  1
  Ta  Ta90  1  0.79619606  0.80530138  0.00027081  1
  Ta  Ta91  1  0.19765173  -0.01622276  0.24798053  1
  Ta  Ta92  1  0.31022964  0.08436008  0.36127441  1
  Ta  Ta93  1  0.00820859  0.20652056  0.51272335  1
  Ta  Ta94  1  0.09793869  0.70297916  0.87018435  1
  Ta  Ta95  1  -0.00754024  -0.00067738  0.00057975  1
  Ta  Ta96  1  0.60222819  0.60245590  0.74806364  1
  Ta  Ta97  1  0.68887087  0.70155584  0.87573386  1
  Ta  Ta98  1  0.61174077  0.40282566  0.49726784  1
  Ta  Ta99  1  0.90958133  0.10336729  0.38385248  1
  Ta  Ta100  1  0.18857042  0.79508125  0.24772384  1
  Ta  Ta101  1  0.80264224  0.39912635  0.00118638  1
  Ta  Ta102  1  0.19141916  0.79501635  0.72879420  1
  Ta  Ta103  1  0.70414454  0.89095554  0.36833797  1
  Ta  Ta104  1  0.21733225  0.19901360  -0.00502009  1
  Ta  Ta105  1  0.91968309  0.29710560  0.37850327  1
  Ta  Ta106  1  0.11115511  0.30031925  0.37177627  1
  Ta  Ta107  1  0.58055232  0.00226983  0.49230572  1
  Ta  Ta108  1  0.10238834  0.71678592  0.37962483  1
  Ta  Ta109  1  0.49452453  0.69358877  0.87339892  1
  Ta  Ta110  1  0.48174515  0.69821809  0.14216949  1
  Ta  Ta111  1  0.70494617  0.89695170  0.13181865  1
  Ta  Ta112  1  0.90236575  0.89948501  0.11793341  1
  Ta  Ta113  1  0.29490036  0.69800480  0.13334321  1
  Ta  Ta114  1  0.90468632  0.50028164  0.87660406  1
  Ta  Ta115  1  0.21537966  0.41158248  0.50136482  1
  Ta  Ta116  1  0.29591624  0.89134203  0.12407142  1
  Ta  Ta117  1  -0.00882033  0.80148346  0.51335363  1
  Ta  Ta118  1  0.70332353  0.49883576  0.87536334  1
  Ta  Ta119  1  0.00181404  0.40204329  0.00216092  1
  Ti  Ti120  1  0.11335839  0.50839785  0.62225082  1
  Ti  Ti121  1  0.00041984  0.80345836  0.00125949  1
  Ti  Ti122  1  0.01297872  0.19840248  0.74515524  1
  Ti  Ti123  1  -0.00228974  0.81290850  0.25043549  1
  Ti  Ti124  1  0.18098444  0.79187080  0.51816956  1
  Ti  Ti125  1  0.51179548  0.50095087  0.13081542  1
  Ti  Ti126  1  0.78577651  0.79444342  0.75004752  1
  Ti  Ti127  1  0.48795762  0.90098551  0.13785907  1
  Ti  Ti128  1  0.11505033  0.30743095  0.63347656  1
  Ti  Ti129  1  0.80022461  0.00029877  0.00277297  1
  Ti  Ti130  1  0.40707110  0.78690550  0.49727066  1
  Ti  Ti131  1  0.59210104  0.79762237  0.74990857  1
  Ti  Ti132  1  0.48604702  0.70735972  0.34924736  1
  Ti  Ti133  1  0.41682713  0.20493933  0.75107935  1
  Ti  Ti134  1  0.39465518  0.39052448  0.49506388  1
  Ti  Ti135  1  0.20852979  0.39220279  0.24602663  1
  Ti  Ti136  1  0.48891694  0.90606440  0.61202927  1
  Ti  Ti137  1  0.30251308  0.49449385  0.36705662  1
  Ti  Ti138  1  0.88800320  0.70318595  0.62265464  1
  Ti  Ti139  1  0.29604453  0.89648364  0.60481868  1
  Ti  Ti140  1  0.09791405  0.08969585  0.12756105  1
  Ti  Ti141  1  0.70365318  0.49945179  0.12318512  1
  Ti  Ti142  1  0.80108566  0.40534278  0.75091703  1
  Ti  Ti143  1  -0.00002812  0.60345430  0.00212271  1
  Ti  Ti144  1  0.70949229  0.30232134  0.37530325  1
  Ti  Ti145  1  0.69732944  0.51097798  0.62298956  1
  Ti  Ti146  1  0.89980143  0.49561702  0.11935662  1
  Ti  Ti147  1  0.77032493  0.02354686  0.75303344  1
  Ti  Ti148  1  0.61102936  0.80475872  0.49806607  1
  Ti  Ti149  1  0.09560754  0.89934778  0.38878065  1
  Ti  Ti150  1  0.20281081  0.19921274  0.74475655  1
  Ti  Ti151  1  0.29648915  0.29152887  0.36787647  1
  Ti  Ti152  1  0.59696772  0.81000527  0.24129280  1
  Ti  Ti153  1  0.09703452  0.71013051  0.12792549  1
  Ti  Ti154  1  0.30790593  0.31522232  0.63903485  1
  Ti  Ti155  1  0.28815159  0.68021945  0.61006146  1
  Ti  Ti156  1  0.59515782  0.21673504  0.24918756  1
  Ti  Ti157  1  0.00338716  0.78737180  0.73228035  1
  Ti  Ti158  1  0.90257655  0.90662316  0.38798827  1
  Ti  Ti159  1  0.50534609  0.10965405  0.87747840  1
  Mo  Mo160  1  0.20910532  0.40507562  0.74889886  1
  Mo  Mo161  1  0.20774613  -0.00237019  0.51145618  1
  Mo  Mo162  1  0.39844202  -0.01179821  0.49790700  1
  Mo  Mo163  1  0.79264236  0.80570118  0.49998634  1
  Mo  Mo164  1  0.20074386  0.60321755  0.24383923  1
  Mo  Mo165  1  0.58906177  -0.00314140  0.75537166  1
  Mo  Mo166  1  0.80558481  0.80582123  0.24719276  1
  Mo  Mo167  1  0.50100560  0.29341509  0.86576848  1
  Mo  Mo168  1  0.40393423  0.38958407  0.74920899  1
  Mo  Mo169  1  0.69698918  0.70494278  0.63176930  1
  Mo  Mo170  1  0.39531510  0.19740623  -0.00083843  1
  Mo  Mo171  1  0.39779639  0.19816047  0.26537865  1
  Mo  Mo172  1  0.10484503  0.10310667  0.86765362  1
  Mo  Mo173  1  0.90285243  0.30933349  0.11763175  1
  Mo  Mo174  1  0.51240163  0.08912177  0.62348667  1
  Mo  Mo175  1  0.60049736  -0.00479390  0.23888212  1
  Mo  Mo176  1  0.39641542  0.59708303  0.24835018  1
  Mo  Mo177  1  0.69052409  0.09739805  0.62032133  1
  Mo  Mo178  1  0.19661374  0.59980274  0.50180750  1
  Mo  Mo179  1  0.90616052  0.09543784  0.11567741  1
  Mo  Mo180  1  0.49798162  0.09561240  0.35387341  1
  Mo  Mo181  1  0.61524274  0.40432016  0.00195865  1
  Mo  Mo182  1  0.10477506  0.11276765  0.62730081  1
  Mo  Mo183  1  0.37585497  0.58326810  0.50669721  1
  Mo  Mo184  1  0.59111445  0.60155350  0.24502613  1
  Mo  Mo185  1  0.69614945  0.09782779  0.88115855  1
  Mo  Mo186  1  0.29177104  0.49020944  0.62798642  1
  Mo  Mo187  1  0.39121745  0.78760994  0.00951646  1
  Mo  Mo188  1  0.38390646  0.80190548  0.24916926  1
  Mo  Mo189  1  0.90835369  0.50011041  0.37926142  1
  Mo  Mo190  1  0.10341785  0.89561633  0.62380441  1
  Mo  Mo191  1  0.09758009  0.89410607  0.12187195  1
  Mo  Mo192  1  0.69738740  0.49964537  0.38439522  1
  Mo  Mo193  1  0.00296416  0.60630067  0.74979345  1
  Mo  Mo194  1  0.80185620  0.20826267  0.74886714  1
  Mo  Mo195  1  0.08710735  0.69254660  0.62481019  1
  Mo  Mo196  1  0.39033848  -0.01422766  0.24238373  1
  Mo  Mo197  1  0.20355011  0.19911829  0.25777669  1
  Mo  Mo198  1  0.40670127  0.61157457  0.00502701  1
  Mo  Mo199  1  0.50867719  0.30698033  0.13747719  1
