# generated using pymatgen
data_HfZrTaTiMo
_symmetry_space_group_name_H-M   'P 1'
_cell_length_a   15.20498930
_cell_length_b   15.20614457
_cell_length_c   16.83790242
_cell_angle_alpha   89.97309869
_cell_angle_beta   90.07369110
_cell_angle_gamma   89.97638526
_symmetry_Int_Tables_number   1
_chemical_formula_structural   HfZrTaTiMo
_chemical_formula_sum   'Hf40 Zr40 Ta40 Ti40 Mo40'
_cell_volume   3893.07507079
_cell_formula_units_Z   40
loop_
 _symmetry_equiv_pos_site_id
 _symmetry_equiv_pos_as_xyz
  1  'x, y, z'
loop_
 _atom_site_type_symbol
 _atom_site_label
 _atom_site_symmetry_multiplicity
 _atom_site_fract_x
 _atom_site_fract_y
 _atom_site_fract_z
 _atom_site_occupancy
  Hf  Hf0  1  0.40372858  0.59915441  0.48579162  1
  Hf  Hf1  1  0.00489315  0.38401488  0.74706452  1
  Hf  Hf2  1  0.70838239  0.70820240  0.38362377  1
  Hf  Hf3  1  0.90341369  0.10303142  0.88708982  1
  Hf  Hf4  1  0.19184276  0.00194367  0.24771871  1
  Hf  Hf5  1  0.80447259  0.59469755  0.25047123  1
  Hf  Hf6  1  0.21320665  0.58838495  0.75026110  1
  Hf  Hf7  1  0.40540809  0.19343423  -0.00179022  1
  Hf  Hf8  1  0.59097932  0.81243508  -0.00751797  1
  Hf  Hf9  1  0.50552619  0.69620474  0.37331443  1
  Hf  Hf10  1  0.60152264  0.20025292  0.25910486  1
  Hf  Hf11  1  0.69968935  0.50048392  0.87651378  1
  Hf  Hf12  1  0.49230074  0.29344686  0.63706122  1
  Hf  Hf13  1  0.00693383  0.18977772  0.23975127  1
  Hf  Hf14  1  0.10822677  0.70396130  0.13831710  1
  Hf  Hf15  1  0.70081861  0.11182597  0.11513991  1
  Hf  Hf16  1  0.79135827  0.59134910  0.74181637  1
  Hf  Hf17  1  0.18311353  0.39482643  0.49589037  1
  Hf  Hf18  1  0.00370169  0.58409590  0.50191757  1
  Hf  Hf19  1  0.39877186  0.39472540  0.49545829  1
  Hf  Hf20  1  0.11125898  0.09754218  0.88230143  1
  Hf  Hf21  1  0.40666444  0.18692267  0.49070989  1
  Hf  Hf22  1  0.20170565  0.78961380  0.00368378  1
  Hf  Hf23  1  0.00673123  0.39886884  0.01478467  1
  Hf  Hf24  1  0.50332630  0.51892831  0.63453346  1
  Hf  Hf25  1  0.32981982  0.09307565  0.63421788  1
  Hf  Hf26  1  0.80795959  0.20760142  0.25152032  1
  Hf  Hf27  1  -0.00699651  0.80358830  0.25723796  1
  Hf  Hf28  1  0.89534438  0.29746545  0.88529689  1
  Hf  Hf29  1  0.08008373  0.29470291  0.37565791  1
  Hf  Hf30  1  0.20325144  0.39223679  0.01790293  1
  Hf  Hf31  1  0.50564609  0.29367361  0.86412219  1
  Hf  Hf32  1  0.39983840  0.01043281  0.26933499  1
  Hf  Hf33  1  0.60288416  0.40815311  0.24044084  1
  Hf  Hf34  1  0.89057395  0.46962574  0.38365428  1
  Hf  Hf35  1  0.19236520  0.40015514  0.24559974  1
  Hf  Hf36  1  0.49292202  0.90149640  0.13287417  1
  Hf  Hf37  1  0.80222036  -0.00367202  0.51204784  1
  Hf  Hf38  1  0.60561962  -0.00064492  0.26579726  1
  Hf  Hf39  1  0.48968600  0.71692071  0.62511265  1
  Zr  Zr40  1  0.09740985  0.68775053  0.86077625  1
  Zr  Zr41  1  0.80176343  0.01079771  0.74006592  1
  Zr  Zr42  1  0.89244024  0.28040211  0.10496966  1
  Zr  Zr43  1  0.29816739  0.49720808  0.61770935  1
  Zr  Zr44  1  0.48634006  0.29653412  0.13632188  1
  Zr  Zr45  1  0.90597918  0.50598814  0.87117653  1
  Zr  Zr46  1  0.28929421  0.29932292  0.87503745  1
  Zr  Zr47  1  0.19982985  0.20491968  0.74565551  1
  Zr  Zr48  1  0.60121982  0.41267333  0.50765252  1
  Zr  Zr49  1  0.59622333  0.38946625  0.01024539  1
  Zr  Zr50  1  0.38862733  0.41838970  0.76224000  1
  Zr  Zr51  1  0.69749490  0.10818144  0.87513426  1
  Zr  Zr52  1  0.29606485  0.29029808  0.36557165  1
  Zr  Zr53  1  0.11443674  0.48363720  0.87280599  1
  Zr  Zr54  1  0.90135518  0.68880960  0.38441311  1
  Zr  Zr55  1  0.39876778  0.41708724  -0.01039305  1
  Zr  Zr56  1  0.00160281  -0.02114010  -0.00328511  1
  Zr  Zr57  1  0.70971594  0.70541363  0.11476038  1
  Zr  Zr58  1  0.92618615  0.09585673  0.38695128  1
  Zr  Zr59  1  0.80592825  -0.00242546  0.25314410  1
  Zr  Zr60  1  0.21827797  -0.01156038  0.00572229  1
  Zr  Zr61  1  0.58514122  0.01483014  0.48515994  1
  Zr  Zr62  1  0.12066348  0.08506854  0.63146949  1
  Zr  Zr63  1  0.68119423  0.69659440  0.63052900  1
  Zr  Zr64  1  0.00156398  0.79815398  0.50256909  1
  Zr  Zr65  1  0.59828583  0.81676145  0.49573499  1
  Zr  Zr66  1  0.30015673  0.70391245  0.62187787  1
  Zr  Zr67  1  0.11061776  0.88429635  0.86770227  1
  Zr  Zr68  1  0.69948737  0.71146484  0.87124666  1
  Zr  Zr69  1  0.60567565  0.60628782  0.24151398  1
  Zr  Zr70  1  0.71492712  0.11127446  0.38799484  1
  Zr  Zr71  1  0.89082177  0.47650291  0.62374120  1
  Zr  Zr72  1  0.00705271  -0.00969389  0.74799991  1
  Zr  Zr73  1  0.79188672  0.41480841  0.01357642  1
  Zr  Zr74  1  -0.01529736  0.39509596  0.23467437  1
  Zr  Zr75  1  0.31693511  0.08713446  0.86439307  1
  Zr  Zr76  1  0.59367458  0.60222291  -0.00327766  1
  Zr  Zr77  1  0.00448165  0.60719020  0.00438479  1
  Zr  Zr78  1  0.01660197  0.20060072  0.52198473  1
  Zr  Zr79  1  0.19345379  0.80549007  0.49535660  1
  Ta  Ta80  1  0.78228871  0.58593494  0.51189977  1
  Ta  Ta81  1  0.30871950  0.69579944  0.13499018  1
  Ta  Ta82  1  0.58357444  0.82033547  0.75386154  1
  Ta  Ta83  1  0.30503846  0.50671897  0.13382841  1
  Ta  Ta84  1  0.00350884  0.59410488  0.25137926  1
  Ta  Ta85  1  0.81130509  0.21574237  0.51328779  1
  Ta  Ta86  1  0.68855048  0.50700908  0.37898452  1
  Ta  Ta87  1  -0.00204462  -0.00005318  0.23850641  1
  Ta  Ta88  1  0.48987977  0.51255091  0.12681154  1
  Ta  Ta89  1  0.40123799  0.59349935  0.25974124  1
  Ta  Ta90  1  0.79150493  -0.01029616  -0.00526405  1
  Ta  Ta91  1  0.20394113  0.01149260  0.49057024  1
  Ta  Ta92  1  0.60365442  0.80907801  0.25432060  1
  Ta  Ta93  1  0.30941493  0.10092041  0.12752556  1
  Ta  Ta94  1  0.60798604  0.40865463  0.74983601  1
  Ta  Ta95  1  0.69800832  0.90625694  0.12010739  1
  Ta  Ta96  1  0.59100168  0.00951392  -0.00115058  1
  Ta  Ta97  1  0.89999698  0.68991476  0.62806126  1
  Ta  Ta98  1  0.50165464  0.30897069  0.36528203  1
  Ta  Ta99  1  0.80749040  0.80335876  -0.00862976  1
  Ta  Ta100  1  0.79852115  0.79758705  0.52014429  1
  Ta  Ta101  1  0.48628807  0.92006249  0.62493236  1
  Ta  Ta102  1  0.49998889  0.09863360  0.12917176  1
  Ta  Ta103  1  0.71282374  0.31684815  0.37928151  1
  Ta  Ta104  1  0.09219417  0.28420683  0.88620499  1
  Ta  Ta105  1  0.69523617  0.11305271  0.61846361  1
  Ta  Ta106  1  0.79594802  0.80488035  0.73716100  1
  Ta  Ta107  1  0.89276057  0.89081555  0.12193542  1
  Ta  Ta108  1  0.39723087  0.81286896  0.48493080  1
  Ta  Ta109  1  0.49090000  0.70621996  0.13043167  1
  Ta  Ta110  1  0.08675215  0.91662061  0.37198057  1
  Ta  Ta111  1  0.90464290  0.89401022  0.62796129  1
  Ta  Ta112  1  0.19587826  0.59901857  0.48933900  1
  Ta  Ta113  1  0.09981116  0.68870621  0.63207885  1
  Ta  Ta114  1  0.70239479  0.29819262  0.87265182  1
  Ta  Ta115  1  0.90070371  0.08654591  0.10604610  1
  Ta  Ta116  1  0.10625607  0.50859553  0.13096736  1
  Ta  Ta117  1  0.10520514  0.10636050  0.10801272  1
  Ta  Ta118  1  0.89962602  0.70419336  0.85920390  1
  Ta  Ta119  1  -0.00570374  0.19098809  0.73925475  1
  Ti  Ti120  1  0.29883914  0.70659102  0.86788347  1
  Ti  Ti121  1  0.79347548  0.80459198  0.25094369  1
  Ti  Ti122  1  0.60287261  0.21531977  0.49813055  1
  Ti  Ti123  1  0.00215516  0.79174426  0.73788108  1
  Ti  Ti124  1  0.28645624  0.89656152  0.36779450  1
  Ti  Ti125  1  0.50709822  0.09774599  0.85854862  1
  Ti  Ti126  1  0.29448772  0.70105563  0.37070791  1
  Ti  Ti127  1  0.20340717  0.60379570  0.25744353  1
  Ti  Ti128  1  0.49135837  0.91131875  0.87079977  1
  Ti  Ti129  1  0.80671411  0.21072851  0.73754454  1
  Ti  Ti130  1  0.22256715  -0.02800737  0.75303031  1
  Ti  Ti131  1  0.39635714  -0.00405646  0.47632111  1
  Ti  Ti132  1  0.21466570  0.59470917  0.00073864  1
  Ti  Ti133  1  0.09965335  0.49051712  0.62920735  1
  Ti  Ti134  1  0.10451143  0.70372049  0.36610226  1
  Ti  Ti135  1  0.01000833  -0.00783406  0.51676268  1
  Ti  Ti136  1  0.29773360  0.29284234  0.13598968  1
  Ti  Ti137  1  0.78985936  0.40124788  0.23045197  1
  Ti  Ti138  1  0.58050924  0.61143769  0.76927091  1
  Ti  Ti139  1  0.29686505  0.88907288  0.14000676  1
  Ti  Ti140  1  0.88738990  0.89350499  0.38410619  1
  Ti  Ti141  1  0.09538910  0.89672878  0.12943474  1
  Ti  Ti142  1  0.39736892  0.79930569  0.26120434  1
  Ti  Ti143  1  0.38614652  0.80961014  0.75300170  1
  Ti  Ti144  1  0.40622123  -0.00798602  0.00272173  1
  Ti  Ti145  1  0.90377771  0.70540811  0.12611569  1
  Ti  Ti146  1  0.20065890  0.19118610  0.24690453  1
  Ti  Ti147  1  0.68632441  0.90929984  0.63143171  1
  Ti  Ti148  1  0.60793916  0.19891015  0.74046952  1
  Ti  Ti149  1  0.28936483  0.29546009  0.62305158  1
  Ti  Ti150  1  0.89304047  0.89176442  0.86372490  1
  Ti  Ti151  1  0.40149344  0.61257675  -0.01249454  1
  Ti  Ti152  1  0.30052744  0.49694749  0.36858168  1
  Ti  Ti153  1  0.69563478  0.90995889  0.86604140  1
  Ti  Ti154  1  0.39323796  0.80152504  0.00008780  1
  Ti  Ti155  1  0.70983276  0.31797935  0.63003414  1
  Ti  Ti156  1  0.29656294  0.90163578  0.61635620  1
  Ti  Ti157  1  0.09599317  0.50189701  0.36974917  1
  Ti  Ti158  1  -0.00461940  0.79347489  -0.00405324  1
  Ti  Ti159  1  0.89489505  0.51776981  0.11985402  1
  Mo  Mo160  1  0.00680214  0.19290362  0.00257827  1
  Mo  Mo161  1  0.31560131  0.88354952  0.87863195  1
  Mo  Mo162  1  0.69415971  0.29833002  0.12573378  1
  Mo  Mo163  1  -0.00156926  0.59742913  0.73694704  1
  Mo  Mo164  1  0.60303945  0.00305028  0.74395730  1
  Mo  Mo165  1  0.19655334  0.39381075  0.74656705  1
  Mo  Mo166  1  0.78993139  0.19805828  -0.00301850  1
  Mo  Mo167  1  0.50042201  0.50979230  0.86913336  1
  Mo  Mo168  1  0.51476215  0.10271511  0.62942257  1
  Mo  Mo169  1  0.81267441  0.61804912  -0.00395782  1
  Mo  Mo170  1  0.89118691  0.28804274  0.37615887  1
  Mo  Mo171  1  0.48418358  0.72341055  0.87178636  1
  Mo  Mo172  1  0.28810631  0.09830677  0.37438464  1
  Mo  Mo173  1  0.20764066  0.19783423  0.00785530  1
  Mo  Mo174  1  0.49818212  0.11445566  0.37372189  1
  Mo  Mo175  1  0.49495345  0.89514226  0.36628026  1
  Mo  Mo176  1  0.41474244  -0.01237232  0.74959791  1
  Mo  Mo177  1  0.20172393  0.80239959  0.25801597  1
  Mo  Mo178  1  0.41081607  0.19954067  0.74870737  1
  Mo  Mo179  1  0.79260986  0.39555508  0.50194173  1
  Mo  Mo180  1  0.39596325  0.19934726  0.25203760  1
  Mo  Mo181  1  0.89847978  0.29243824  0.63175293  1
  Mo  Mo182  1  0.79420033  0.38927201  0.75839129  1
  Mo  Mo183  1  0.59835977  0.60346574  0.49819305  1
  Mo  Mo184  1  0.19976624  0.79904094  0.73913006  1
  Mo  Mo185  1  0.29746689  0.51295228  0.88456063  1
  Mo  Mo186  1  -0.00631221  0.39154333  0.50564664  1
  Mo  Mo187  1  0.21309034  0.19886733  0.50597396  1
  Mo  Mo188  1  0.71056415  0.89509863  0.37794257  1
  Mo  Mo189  1  0.10874858  0.29380246  0.12589480  1
  Mo  Mo190  1  0.10895351  0.10049165  0.37666552  1
  Mo  Mo191  1  0.40578605  0.61669926  0.76754909  1
  Mo  Mo192  1  0.10456869  0.30371008  0.62564672  1
  Mo  Mo193  1  0.70110889  0.50639693  0.12052500  1
  Mo  Mo194  1  0.11073941  0.88846599  0.63009154  1
  Mo  Mo195  1  0.49704425  0.49325742  0.36881933  1
  Mo  Mo196  1  0.59329951  0.19513616  -0.00233128  1
  Mo  Mo197  1  0.39682546  0.40637816  0.25167151  1
  Mo  Mo198  1  0.89922455  0.09596784  0.62438061  1
  Mo  Mo199  1  0.69101139  0.50114833  0.63789156  1
