# generated using pymatgen
data_HfZrTaTiMo
_symmetry_space_group_name_H-M   'P 1'
_cell_length_a   15.18827727
_cell_length_b   15.18841417
_cell_length_c   16.82496400
_cell_angle_alpha   90.02570605
_cell_angle_beta   89.96340571
_cell_angle_gamma   89.98763007
_symmetry_Int_Tables_number   1
_chemical_formula_structural   HfZrTaTiMo
_chemical_formula_sum   'Hf40 Zr40 Ta40 Ti40 Mo40'
_cell_volume   3881.27977573
_cell_formula_units_Z   40
loop_
 _symmetry_equiv_pos_site_id
 _symmetry_equiv_pos_as_xyz
  1  'x, y, z'
loop_
 _atom_site_type_symbol
 _atom_site_label
 _atom_site_symmetry_multiplicity
 _atom_site_fract_x
 _atom_site_fract_y
 _atom_site_fract_z
 _atom_site_occupancy
  Hf  Hf0  1  0.20938574  0.80467805  0.24302819  1
  Hf  Hf1  1  0.18191088  0.40427497  0.27171010  1
  Hf  Hf2  1  0.89517719  0.10067838  0.14192595  1
  Hf  Hf3  1  0.20129380  0.40054696  0.73548270  1
  Hf  Hf4  1  0.49060669  0.09784446  0.87071005  1
  Hf  Hf5  1  0.50074926  0.71194501  0.37727977  1
  Hf  Hf6  1  0.79560738  0.00287881  0.00956627  1
  Hf  Hf7  1  0.21698896  0.00835596  0.01035667  1
  Hf  Hf8  1  0.38503233  -0.00375761  0.73514892  1
  Hf  Hf9  1  0.70627922  0.90555305  0.61207754  1
  Hf  Hf10  1  0.39283615  0.20497261  0.73833931  1
  Hf  Hf11  1  0.10742466  0.10911204  0.13395140  1
  Hf  Hf12  1  0.20517928  -0.00054758  0.50786715  1
  Hf  Hf13  1  0.60751712  0.20371454  0.75968155  1
  Hf  Hf14  1  0.70715766  0.69642204  0.63805664  1
  Hf  Hf15  1  0.71761948  0.10373420  0.62154996  1
  Hf  Hf16  1  0.89679180  0.31409371  0.86769544  1
  Hf  Hf17  1  0.01195837  -0.00882006  0.24817644  1
  Hf  Hf18  1  0.30356605  0.69421923  0.38119817  1
  Hf  Hf19  1  0.90978134  0.71605366  0.63792075  1
  Hf  Hf20  1  0.79712615  0.59886874  0.25382306  1
  Hf  Hf21  1  0.01439773  0.78491990  0.24653970  1
  Hf  Hf22  1  0.09383726  0.50636449  0.13208565  1
  Hf  Hf23  1  0.07442824  0.29769344  0.38517169  1
  Hf  Hf24  1  0.60936374  0.20000560  0.49184260  1
  Hf  Hf25  1  0.31956971  0.90294326  0.37932938  1
  Hf  Hf26  1  0.90302619  0.70958970  0.85780075  1
  Hf  Hf27  1  0.59608565  0.39482155  -0.01578894  1
  Hf  Hf28  1  0.69702690  0.49377201  0.63667011  1
  Hf  Hf29  1  0.49425287  0.50142024  0.37533619  1
  Hf  Hf30  1  0.81467499  0.79630665  0.49867807  1
  Hf  Hf31  1  0.38735677  0.18068012  0.51173230  1
  Hf  Hf32  1  0.09916430  0.69920979  0.38884506  1
  Hf  Hf33  1  0.28855283  0.09687098  0.86408084  1
  Hf  Hf34  1  0.20897459  0.59847889  0.25162553  1
  Hf  Hf35  1  0.91531528  0.49081864  0.36701557  1
  Hf  Hf36  1  0.60129594  -0.00353374  -0.00965331  1
  Hf  Hf37  1  0.59607123  0.79614984  0.50506280  1
  Hf  Hf38  1  0.49327349  0.08737792  0.12065192  1
  Hf  Hf39  1  0.79200445  0.39920878  0.48980346  1
  Zr  Zr40  1  0.80491755  0.40153421  0.00563499  1
  Zr  Zr41  1  0.48808480  0.29237694  0.38160304  1
  Zr  Zr42  1  0.70192613  0.10200397  0.36994661  1
  Zr  Zr43  1  0.90811887  0.11291080  0.87446104  1
  Zr  Zr44  1  0.80936382  0.80235982  0.25161406  1
  Zr  Zr45  1  0.79184473  0.20166226  0.01076487  1
  Zr  Zr46  1  0.80612508  0.60716042  -0.00425494  1
  Zr  Zr47  1  0.59661194  0.60548828  -0.01261409  1
  Zr  Zr48  1  0.09944796  0.09314714  0.87080529  1
  Zr  Zr49  1  0.59923075  0.39244751  0.76918900  1
  Zr  Zr50  1  0.29405742  0.70499982  0.88026879  1
  Zr  Zr51  1  0.70218585  0.70738592  0.12285813  1
  Zr  Zr52  1  0.41151264  0.79816584  0.24279596  1
  Zr  Zr53  1  0.38780770  0.58761972  0.75514991  1
  Zr  Zr54  1  0.48399506  0.30151730  0.12419543  1
  Zr  Zr55  1  -0.00058609  0.21495736  0.00703933  1
  Zr  Zr56  1  0.69981800  0.89795746  0.38015890  1
  Zr  Zr57  1  0.61371639  0.58864913  0.49714759  1
  Zr  Zr58  1  0.51105664  0.09335441  0.62886430  1
  Zr  Zr59  1  0.91827450  0.90426815  0.37875760  1
  Zr  Zr60  1  0.47203449  0.52086313  0.12118642  1
  Zr  Zr61  1  0.89999742  0.50050857  0.13751711  1
  Zr  Zr62  1  0.40317022  0.60021714  0.51130166  1
  Zr  Zr63  1  0.69079886  0.29308419  0.13424522  1
  Zr  Zr64  1  0.72181035  0.50245718  0.86223981  1
  Zr  Zr65  1  0.51035690  0.30769733  0.61092761  1
  Zr  Zr66  1  0.00219503  -0.00203769  0.01251041  1
  Zr  Zr67  1  0.28748799  0.29181021  0.38735213  1
  Zr  Zr68  1  0.00662293  0.60653671  -0.00818401  1
  Zr  Zr69  1  0.89169304  0.49987338  0.64144998  1
  Zr  Zr70  1  -0.00266817  0.60102802  0.51146066  1
  Zr  Zr71  1  0.58629410  0.40763808  0.24710151  1
  Zr  Zr72  1  0.40051220  0.39571807  0.75777977  1
  Zr  Zr73  1  0.49697017  0.88989349  0.86712538  1
  Zr  Zr74  1  0.31852239  0.68810899  0.11402906  1
  Zr  Zr75  1  0.90892429  0.91204045  0.87395179  1
  Zr  Zr76  1  0.21266668  0.58504979  0.00136318  1
  Zr  Zr77  1  0.61895552  -0.01521971  0.75638219  1
  Zr  Zr78  1  0.37956515  0.41121218  -0.01403297  1
  Zr  Zr79  1  0.38716297  0.19515661  0.00046401  1
  Ta  Ta80  1  0.90571103  0.30223694  0.14763076  1
  Ta  Ta81  1  0.50081496  0.49947255  0.62577965  1
  Ta  Ta82  1  0.21767968  0.00390863  0.24591567  1
  Ta  Ta83  1  0.69782535  0.91230865  0.13200808  1
  Ta  Ta84  1  0.11030223  0.88735371  0.11486669  1
  Ta  Ta85  1  0.59597512  0.59705362  0.75911088  1
  Ta  Ta86  1  0.18240290  -0.02165484  0.74090082  1
  Ta  Ta87  1  0.79973431  0.82819639  0.74805992  1
  Ta  Ta88  1  0.68868625  0.50171902  0.12582022  1
  Ta  Ta89  1  0.20248044  0.59376245  0.50911036  1
  Ta  Ta90  1  0.29482012  0.69745127  0.62693126  1
  Ta  Ta91  1  0.59973121  0.19666196  -0.01362533  1
  Ta  Ta92  1  0.60572995  0.80435528  0.25085999  1
  Ta  Ta93  1  0.38720534  0.18589701  0.25069383  1
  Ta  Ta94  1  0.91571169  0.50655760  0.85180522  1
  Ta  Ta95  1  0.50037285  0.88848018  0.63371712  1
  Ta  Ta96  1  0.50157122  0.69851841  0.64188554  1
  Ta  Ta97  1  0.10419458  0.49600409  0.86354595  1
  Ta  Ta98  1  0.71480505  0.09594874  0.86712634  1
  Ta  Ta99  1  0.37626132  0.40614590  0.25501807  1
  Ta  Ta100  1  0.28637740  0.88595698  0.62328981  1
  Ta  Ta101  1  0.09510995  0.31044475  0.13674792  1
  Ta  Ta102  1  0.02223049  0.82264947  0.74672010  1
  Ta  Ta103  1  0.50128405  0.70234661  0.86161551  1
  Ta  Ta104  1  0.50821883  0.88974662  0.11686649  1
  Ta  Ta105  1  0.58463671  0.18850658  0.25725757  1
  Ta  Ta106  1  0.19093405  0.40422633  0.50409518  1
  Ta  Ta107  1  0.58972226  0.61171554  0.24720532  1
  Ta  Ta108  1  0.81669044  0.20480250  0.74258589  1
  Ta  Ta109  1  0.28356666  0.29611263  0.86934529  1
  Ta  Ta110  1  0.71442031  0.30155192  0.62317853  1
  Ta  Ta111  1  0.09710346  0.29846684  0.86463900  1
  Ta  Ta112  1  0.18197627  0.19371308  0.51141588  1
  Ta  Ta113  1  0.09828372  0.09709781  0.37400508  1
  Ta  Ta114  1  0.80830146  0.80659905  -0.00037852  1
  Ta  Ta115  1  0.19060236  0.19454490  0.73019880  1
  Ta  Ta116  1  0.19435538  0.21085933  0.00228540  1
  Ta  Ta117  1  0.81729041  0.02292137  0.49110854  1
  Ta  Ta118  1  0.69109537  0.31129701  0.36667686  1
  Ta  Ta119  1  0.29425954  0.89974285  0.87891944  1
  Ti  Ti120  1  0.29189319  0.30205622  0.61370426  1
  Ti  Ti121  1  0.11716140  0.89709941  0.38269001  1
  Ti  Ti122  1  0.31804267  0.91292259  0.11939742  1
  Ti  Ti123  1  0.00003842  0.38917671  0.73792192  1
  Ti  Ti124  1  0.58253896  -0.00492053  0.25717695  1
  Ti  Ti125  1  0.59252709  -0.00051161  0.49321216  1
  Ti  Ti126  1  0.01468238  0.61014330  0.74461117  1
  Ti  Ti127  1  0.61206288  0.80107063  -0.00500527  1
  Ti  Ti128  1  0.10254183  0.50555467  0.62756769  1
  Ti  Ti129  1  0.10999068  0.88836337  0.89372869  1
  Ti  Ti130  1  0.90657081  0.91739892  0.61939508  1
  Ti  Ti131  1  0.00586700  0.00358352  0.49837047  1
  Ti  Ti132  1  0.10183263  0.70737523  0.87408048  1
  Ti  Ti133  1  0.38746309  0.79720696  0.74627290  1
  Ti  Ti134  1  0.29936614  0.09510331  0.37602384  1
  Ti  Ti135  1  0.40917325  0.79825311  -0.00030298  1
  Ti  Ti136  1  -0.00604819  0.40109102  0.51045339  1
  Ti  Ti137  1  0.11098347  0.72340342  0.61781204  1
  Ti  Ti138  1  0.90390043  0.89058410  0.12428608  1
  Ti  Ti139  1  0.90645684  0.69561834  0.37452339  1
  Ti  Ti140  1  0.00187042  0.40657384  -0.00395842  1
  Ti  Ti141  1  0.79082186  0.40074072  0.25358445  1
  Ti  Ti142  1  -0.01083207  0.01528963  0.73746161  1
  Ti  Ti143  1  0.78796711  0.19583818  0.24759729  1
  Ti  Ti144  1  0.70165393  0.71910176  0.85954767  1
  Ti  Ti145  1  0.19416376  0.19956495  0.25834501  1
  Ti  Ti146  1  0.18756487  0.39383334  -0.00139074  1
  Ti  Ti147  1  0.70256129  0.69261333  0.37379425  1
  Ti  Ti148  1  0.40629354  -0.00853834  0.51416377  1
  Ti  Ti149  1  0.39907628  0.80265950  0.51269720  1
  Ti  Ti150  1  -0.02614193  0.18983780  0.49803819  1
  Ti  Ti151  1  0.79590227  -0.00106416  0.25138880  1
  Ti  Ti152  1  0.88671624  0.28375102  0.36038325  1
  Ti  Ti153  1  0.39164449  0.40594111  0.50306668  1
  Ti  Ti154  1  0.80354576  0.59598209  0.49223842  1
  Ti  Ti155  1  0.28358239  0.29877696  0.13354347  1
  Ti  Ti156  1  0.92078979  0.69720435  0.12519717  1
  Ti  Ti157  1  0.09063066  0.09509480  0.62356656  1
  Ti  Ti158  1  0.08341987  0.29318152  0.61737962  1
  Ti  Ti159  1  0.19805461  0.60590511  0.74459391  1
  Mo  Mo160  1  0.68573255  0.09234187  0.14150003  1
  Mo  Mo161  1  0.80938228  0.00756260  0.74484215  1
  Mo  Mo162  1  0.10134014  0.50043528  0.39067472  1
  Mo  Mo163  1  0.09108047  0.90074246  0.61739129  1
  Mo  Mo164  1  0.90749233  0.10574243  0.62001946  1
  Mo  Mo165  1  0.50251111  0.90531922  0.38290756  1
  Mo  Mo166  1  0.49634290  0.50478587  0.87667336  1
  Mo  Mo167  1  0.00190663  0.19880373  0.25493540  1
  Mo  Mo168  1  0.50986885  0.70830072  0.11883055  1
  Mo  Mo169  1  0.80195028  0.20692776  0.49073919  1
  Mo  Mo170  1  0.80398439  0.39459788  0.74731476  1
  Mo  Mo171  1  0.29578732  0.49596953  0.61826619  1
  Mo  Mo172  1  0.20322142  0.80230866  0.00746115  1
  Mo  Mo173  1  0.40401142  0.00047237  0.25081834  1
  Mo  Mo174  1  0.19775932  0.79749789  0.75260444  1
  Mo  Mo175  1  0.28393726  0.47349807  0.13332191  1
  Mo  Mo176  1  0.89744560  0.29762474  0.62010500  1
  Mo  Mo177  1  0.00059602  0.79486784  0.00380684  1
  Mo  Mo178  1  0.49468788  0.29345795  0.88384740  1
  Mo  Mo179  1  0.20783446  0.79712129  0.50004497  1
  Mo  Mo180  1  0.28108206  0.49271370  0.87025773  1
  Mo  Mo181  1  0.70758915  0.28513487  0.87488895  1
  Mo  Mo182  1  0.48472913  0.08413015  0.37610055  1
  Mo  Mo183  1  0.29721873  0.49753760  0.38720657  1
  Mo  Mo184  1  0.00863059  0.81191451  0.50557989  1
  Mo  Mo185  1  0.70195762  0.50323122  0.36612993  1
  Mo  Mo186  1  0.40224605  0.59221546  0.25323996  1
  Mo  Mo187  1  0.80486769  0.61263189  0.75604832  1
  Mo  Mo188  1  0.90683185  0.10528855  0.35834981  1
  Mo  Mo189  1  0.10601154  0.70304490  0.12132001  1
  Mo  Mo190  1  -0.00672148  0.39668053  0.25638446  1
  Mo  Mo191  1  0.00851065  0.60097310  0.25689629  1
  Mo  Mo192  1  0.40930354  0.60565438  -0.02591900  1
  Mo  Mo193  1  0.00859508  0.20606880  0.74164408  1
  Mo  Mo194  1  0.59589997  0.39932082  0.49880995  1
  Mo  Mo195  1  0.29937514  0.10711618  0.13357231  1
  Mo  Mo196  1  0.60209605  0.79467870  0.74533583  1
  Mo  Mo197  1  0.28713924  0.09465293  0.62834273  1
  Mo  Mo198  1  0.40114224  -0.01121120  -0.00433002  1
  Mo  Mo199  1  0.71257380  0.89378306  0.87900779  1
