# generated using pymatgen
data_HfZrTaTiMo
_symmetry_space_group_name_H-M   'P 1'
_cell_length_a   15.20064922
_cell_length_b   15.21309832
_cell_length_c   16.86049526
_cell_angle_alpha   89.99825631
_cell_angle_beta   90.04814913
_cell_angle_gamma   89.97463283
_symmetry_Int_Tables_number   1
_chemical_formula_structural   HfZrTaTiMo
_chemical_formula_sum   'Hf40 Zr40 Ta40 Ti40 Mo40'
_cell_volume   3898.97042105
_cell_formula_units_Z   40
loop_
 _symmetry_equiv_pos_site_id
 _symmetry_equiv_pos_as_xyz
  1  'x, y, z'
loop_
 _atom_site_type_symbol
 _atom_site_label
 _atom_site_symmetry_multiplicity
 _atom_site_fract_x
 _atom_site_fract_y
 _atom_site_fract_z
 _atom_site_occupancy
  Hf  Hf0  1  0.49572422  0.29736349  0.12391307  1
  Hf  Hf1  1  0.78321335  0.00179160  0.00418844  1
  Hf  Hf2  1  0.17978698  0.79826551  -0.00419357  1
  Hf  Hf3  1  0.51196737  0.49491493  0.86710963  1
  Hf  Hf4  1  0.11803586  0.50228202  0.10913381  1
  Hf  Hf5  1  0.10451605  0.08943099  0.11241249  1
  Hf  Hf6  1  0.21463318  0.60832016  -0.01840019  1
  Hf  Hf7  1  0.31307735  0.49749970  0.86949640  1
  Hf  Hf8  1  0.09168265  0.10983848  0.61566250  1
  Hf  Hf9  1  0.59271846  0.19414195  0.50886651  1
  Hf  Hf10  1  0.18461333  0.21428911  0.24454443  1
  Hf  Hf11  1  0.80080869  0.00510069  0.25589875  1
  Hf  Hf12  1  0.80982375  0.40815687  0.49476039  1
  Hf  Hf13  1  0.71308501  0.29801745  0.62150267  1
  Hf  Hf14  1  0.49916612  0.11013468  0.36112577  1
  Hf  Hf15  1  0.49907826  0.29766091  0.86466338  1
  Hf  Hf16  1  0.39868071  0.41590617  0.23965792  1
  Hf  Hf17  1  0.71285389  0.70621790  0.13173796  1
  Hf  Hf18  1  0.69169298  0.49582792  0.36716262  1
  Hf  Hf19  1  0.17964865  0.39472898  0.76227029  1
  Hf  Hf20  1  -0.01360661  -0.01894708  0.00595317  1
  Hf  Hf21  1  0.78995956  -0.01423393  0.49616504  1
  Hf  Hf22  1  0.59536174  0.18097164  0.00663336  1
  Hf  Hf23  1  0.29140123  0.32917459  0.36674139  1
  Hf  Hf24  1  0.69450724  0.90183411  0.86892067  1
  Hf  Hf25  1  0.30307892  0.70172280  0.12397511  1
  Hf  Hf26  1  0.38961334  0.20861555  0.24118687  1
  Hf  Hf27  1  -0.01523633  0.20395475  0.24390407  1
  Hf  Hf28  1  0.02236160  0.39873108  0.23821673  1
  Hf  Hf29  1  0.00477095  0.79884855  0.73820364  1
  Hf  Hf30  1  0.07813457  0.89371452  0.87518370  1
  Hf  Hf31  1  -0.00788607  0.01234089  0.74929174  1
  Hf  Hf32  1  0.41588967  0.01021954  0.49729765  1
  Hf  Hf33  1  0.30213341  0.10186609  0.62528820  1
  Hf  Hf34  1  0.19722075  0.61057291  0.75692742  1
  Hf  Hf35  1  0.89654045  0.70269437  0.61765674  1
  Hf  Hf36  1  0.50552274  0.68925835  0.39082087  1
  Hf  Hf37  1  0.89071656  0.10999748  0.60850249  1
  Hf  Hf38  1  0.80771384  0.60518526  0.25568712  1
  Hf  Hf39  1  0.30969177  0.49280211  0.63928409  1
  Zr  Zr40  1  0.20584828  -0.00982782  0.49653627  1
  Zr  Zr41  1  -0.00299390  0.59024850  0.74555191  1
  Zr  Zr42  1  0.88947994  0.11347167  0.39174033  1
  Zr  Zr43  1  0.30051628  0.89551512  0.62679317  1
  Zr  Zr44  1  0.59554206  0.59880188  0.01737430  1
  Zr  Zr45  1  -0.00948773  0.58727755  0.50115222  1
  Zr  Zr46  1  0.29373948  0.10126031  0.36940881  1
  Zr  Zr47  1  0.70761021  0.29129636  0.37906831  1
  Zr  Zr48  1  0.38810899  0.80360946  0.26638664  1
  Zr  Zr49  1  0.09610747  0.89219249  0.37818501  1
  Zr  Zr50  1  0.60177497  0.79666650  0.74494801  1
  Zr  Zr51  1  0.40827309  0.00257732  -0.00104175  1
  Zr  Zr52  1  0.39275630  0.80078480  0.76394517  1
  Zr  Zr53  1  0.60686649  0.38872751  0.01246313  1
  Zr  Zr54  1  0.81579608  0.80047961  -0.00649670  1
  Zr  Zr55  1  0.81001725  0.20016977  0.75482194  1
  Zr  Zr56  1  0.49055315  0.30790982  0.64595596  1
  Zr  Zr57  1  0.51674831  0.90743573  0.36697601  1
  Zr  Zr58  1  0.18376042  0.78277787  0.25016453  1
  Zr  Zr59  1  0.10189515  0.29739386  0.90432151  1
  Zr  Zr60  1  0.92682653  0.31317490  0.62345716  1
  Zr  Zr61  1  0.70588306  0.69634960  0.60838856  1
  Zr  Zr62  1  0.89785951  0.31271703  0.88400388  1
  Zr  Zr63  1  0.29089038  0.68346242  0.39236154  1
  Zr  Zr64  1  0.71035411  0.49565949  0.88048906  1
  Zr  Zr65  1  0.60187548  0.81080049  0.00167946  1
  Zr  Zr66  1  0.29412392  0.69800536  0.60972430  1
  Zr  Zr67  1  0.39634425  0.22108465  0.49404627  1
  Zr  Zr68  1  0.08763176  0.10455420  0.38207939  1
  Zr  Zr69  1  0.39279587  0.00332019  0.76386124  1
  Zr  Zr70  1  0.39222333  0.79234913  -0.01126834  1
  Zr  Zr71  1  0.29077201  0.30068058  0.63561906  1
  Zr  Zr72  1  0.91719926  0.49310447  0.36415562  1
  Zr  Zr73  1  0.50713483  0.69345163  0.87197317  1
  Zr  Zr74  1  0.68572767  0.08998633  0.37549119  1
  Zr  Zr75  1  0.20557595  0.18540375  0.76532531  1
  Zr  Zr76  1  0.49707394  0.89438734  0.13411695  1
  Zr  Zr77  1  0.18158852  0.22468435  0.49276734  1
  Zr  Zr78  1  0.00203156  -0.00497033  0.24659977  1
  Zr  Zr79  1  0.49577268  0.70159294  0.60762110  1
  Ta  Ta80  1  0.88780825  0.10018379  0.12120179  1
  Ta  Ta81  1  0.69927695  0.69622897  0.38141055  1
  Ta  Ta82  1  0.02479654  0.60938066  0.25171979  1
  Ta  Ta83  1  0.71080311  0.49776798  0.13410107  1
  Ta  Ta84  1  0.10506441  0.09036746  0.89372229  1
  Ta  Ta85  1  0.50458416  0.90633615  0.61982109  1
  Ta  Ta86  1  0.90904465  0.51134336  0.12932380  1
  Ta  Ta87  1  0.28232415  0.90895649  0.12078032  1
  Ta  Ta88  1  0.39528165  0.20187477  -0.00063317  1
  Ta  Ta89  1  0.80122225  0.40236591  0.01646748  1
  Ta  Ta90  1  0.28602468  0.31189165  0.10938050  1
  Ta  Ta91  1  0.79779313  0.60325753  0.75009042  1
  Ta  Ta92  1  0.88881783  0.89170879  0.13834180  1
  Ta  Ta93  1  0.18889744  -0.00683314  0.75241484  1
  Ta  Ta94  1  0.09110992  0.50124516  0.88633929  1
  Ta  Ta95  1  0.09428207  0.48099331  0.62308513  1
  Ta  Ta96  1  0.40964267  0.60631522  0.24753010  1
  Ta  Ta97  1  -0.00580578  0.81031782  0.50139546  1
  Ta  Ta98  1  0.39122153  0.81589398  0.48427627  1
  Ta  Ta99  1  0.09735015  0.90004030  0.61847729  1
  Ta  Ta100  1  0.50298631  0.09912457  0.86912102  1
  Ta  Ta101  1  0.58713532  0.40107661  0.50833786  1
  Ta  Ta102  1  0.31512983  0.50599057  0.10809120  1
  Ta  Ta103  1  0.10026687  0.29653893  0.10022482  1
  Ta  Ta104  1  0.00560185  0.62077324  -0.00250445  1
  Ta  Ta105  1  0.79551932  -0.00038182  0.74838611  1
  Ta  Ta106  1  0.50643335  0.31210466  0.36561251  1
  Ta  Ta107  1  0.39452970  0.00499795  0.24025506  1
  Ta  Ta108  1  0.01181235  0.21201795  0.76120512  1
  Ta  Ta109  1  0.80665224  0.80146994  0.75355843  1
  Ta  Ta110  1  0.92095252  0.70709081  0.13533128  1
  Ta  Ta111  1  0.60671322  0.39502536  0.23764036  1
  Ta  Ta112  1  0.81039601  0.38968588  0.23973128  1
  Ta  Ta113  1  0.09559461  0.68732984  0.39384806  1
  Ta  Ta114  1  0.69684546  0.10169476  0.87311998  1
  Ta  Ta115  1  0.79031149  0.20412464  0.00432426  1
  Ta  Ta116  1  0.71100095  0.69096922  0.87447453  1
  Ta  Ta117  1  0.61065587  0.59216358  0.73491717  1
  Ta  Ta118  1  0.69798535  0.90136139  0.14293409  1
  Ta  Ta119  1  0.69757913  0.29684009  0.87275548  1
  Ti  Ti120  1  0.81170338  0.60068425  0.00733862  1
  Ti  Ti121  1  0.21128298  0.41490210  0.50328225  1
  Ti  Ti122  1  0.69342941  0.09059502  0.62350613  1
  Ti  Ti123  1  0.79245301  0.20554764  0.24055125  1
  Ti  Ti124  1  0.40600801  0.40682686  0.00017043  1
  Ti  Ti125  1  0.70746768  0.88677940  0.35911250  1
  Ti  Ti126  1  0.30546342  0.29380832  0.88048921  1
  Ti  Ti127  1  0.89743542  0.09524424  0.88120478  1
  Ti  Ti128  1  0.60929270  0.58170997  0.50940902  1
  Ti  Ti129  1  0.59360740  0.59367607  0.24087934  1
  Ti  Ti130  1  0.90010770  0.30109834  0.11587318  1
  Ti  Ti131  1  0.59932387  0.19758940  0.23855673  1
  Ti  Ti132  1  0.60663009  0.19495726  0.74873332  1
  Ti  Ti133  1  0.59780554  -0.00142289  0.74816404  1
  Ti  Ti134  1  0.41132939  0.60147112  0.74377525  1
  Ti  Ti135  1  0.08444798  0.87545317  0.12897735  1
  Ti  Ti136  1  0.12559765  0.49420131  0.37541651  1
  Ti  Ti137  1  0.49825754  0.10145851  0.64011461  1
  Ti  Ti138  1  0.59932768  0.78371609  0.25202907  1
  Ti  Ti139  1  0.61309293  0.40439088  0.73976124  1
  Ti  Ti140  1  0.68610028  0.09300697  0.13172963  1
  Ti  Ti141  1  0.80616426  0.40947801  0.74900215  1
  Ti  Ti142  1  0.70193844  0.89785125  0.62878736  1
  Ti  Ti143  1  0.88759729  0.50429515  0.62414002  1
  Ti  Ti144  1  0.90293509  0.71219418  0.37252920  1
  Ti  Ti145  1  0.60507284  0.81739802  0.49728958  1
  Ti  Ti146  1  0.20393027  -0.00732476  0.25140126  1
  Ti  Ti147  1  0.28341531  0.91416271  0.88436992  1
  Ti  Ti148  1  0.29719883  0.10391174  0.11822860  1
  Ti  Ti149  1  0.49537823  0.49499744  0.37486218  1
  Ti  Ti150  1  -0.00698368  0.41529730  0.00821238  1
  Ti  Ti151  1  0.80142554  0.79577246  0.48913775  1
  Ti  Ti152  1  0.19793490  0.80169996  0.76051607  1
  Ti  Ti153  1  -0.01266524  0.18975690  0.00378362  1
  Ti  Ti154  1  0.91065409  0.70817595  0.87016957  1
  Ti  Ti155  1  0.10445176  0.69766037  0.60609568  1
  Ti  Ti156  1  0.89714164  0.90619759  0.62219088  1
  Ti  Ti157  1  0.40329368  0.57036848  0.50530041  1
  Ti  Ti158  1  0.89937157  0.51010095  0.87989586  1
  Ti  Ti159  1  0.21603931  0.57879990  0.24856387  1
  Mo  Mo160  1  0.89106923  0.90618424  0.86325064  1
  Mo  Mo161  1  -0.00835672  0.79173122  0.25994287  1
  Mo  Mo162  1  0.79075770  0.20452640  0.50762900  1
  Mo  Mo163  1  0.29564251  0.10196136  0.88849997  1
  Mo  Mo164  1  -0.01003974  0.21615128  0.49102848  1
  Mo  Mo165  1  0.10208934  0.30083022  0.63148011  1
  Mo  Mo166  1  -0.00584199  0.40379765  0.76148216  1
  Mo  Mo167  1  -0.00578074  -0.00362737  0.50740806  1
  Mo  Mo168  1  0.20442793  0.40629918  0.23687441  1
  Mo  Mo169  1  0.30172886  0.90352056  0.37093139  1
  Mo  Mo170  1  -0.00841142  0.79495355  0.00154913  1
  Mo  Mo171  1  0.02362773  0.39303835  0.48958338  1
  Mo  Mo172  1  0.39793698  0.40152980  0.76078001  1
  Mo  Mo173  1  0.19301030  0.58509154  0.50962789  1
  Mo  Mo174  1  0.40918771  0.59783255  0.00064559  1
  Mo  Mo175  1  0.40372659  0.19569306  0.76218782  1
  Mo  Mo176  1  0.19322071  0.79425048  0.49970357  1
  Mo  Mo177  1  0.19711436  -0.00856453  0.00571594  1
  Mo  Mo178  1  0.50650711  0.91118270  0.87643878  1
  Mo  Mo179  1  0.89658106  0.89744800  0.37872174  1
  Mo  Mo180  1  0.49326826  0.09822079  0.13570857  1
  Mo  Mo181  1  0.40715451  0.40025381  0.49618526  1
  Mo  Mo182  1  0.90234075  0.30220354  0.37122636  1
  Mo  Mo183  1  0.50656415  0.49957379  0.63220290  1
  Mo  Mo184  1  0.50400816  0.50339250  0.12713761  1
  Mo  Mo185  1  0.59620972  -0.00241633  0.24565080  1
  Mo  Mo186  1  0.59969714  -0.00100037  0.51440954  1
  Mo  Mo187  1  0.60081493  0.00179633  0.00029750  1
  Mo  Mo188  1  0.20968193  0.40154374  -0.01162754  1
  Mo  Mo189  1  0.20712508  0.19222984  0.00003670  1
  Mo  Mo190  1  0.79949890  0.79765810  0.25833480  1
  Mo  Mo191  1  0.31082955  0.50667566  0.37472345  1
  Mo  Mo192  1  0.50004074  0.69686417  0.13478445  1
  Mo  Mo193  1  0.79670290  0.60161864  0.48075038  1
  Mo  Mo194  1  0.08821956  0.31611290  0.36884425  1
  Mo  Mo195  1  0.09589038  0.69665327  0.86650384  1
  Mo  Mo196  1  0.70726460  0.49514444  0.62373418  1
  Mo  Mo197  1  0.30058916  0.70462325  0.86919484  1
  Mo  Mo198  1  0.70873043  0.29013531  0.12982531  1
  Mo  Mo199  1  0.10377884  0.69098446  0.12633462  1
