# generated using pymatgen
data_HfZrTaTiMo
_symmetry_space_group_name_H-M   'P 1'
_cell_length_a   15.21208467
_cell_length_b   15.23394340
_cell_length_c   16.83199540
_cell_angle_alpha   90.02616679
_cell_angle_beta   90.01209194
_cell_angle_gamma   90.05337072
_symmetry_Int_Tables_number   1
_chemical_formula_structural   HfZrTaTiMo
_chemical_formula_sum   'Hf40 Zr40 Ta40 Ti40 Mo40'
_cell_volume   3900.64504910
_cell_formula_units_Z   40
loop_
 _symmetry_equiv_pos_site_id
 _symmetry_equiv_pos_as_xyz
  1  'x, y, z'
loop_
 _atom_site_type_symbol
 _atom_site_label
 _atom_site_symmetry_multiplicity
 _atom_site_fract_x
 _atom_site_fract_y
 _atom_site_fract_z
 _atom_site_occupancy
  Hf  Hf0  1  0.49373126  0.90586195  0.87627380  1
  Hf  Hf1  1  0.00168101  0.41045076  0.24595900  1
  Hf  Hf2  1  0.30805293  0.50564022  0.12285437  1
  Hf  Hf3  1  0.88517212  0.31127762  0.13169713  1
  Hf  Hf4  1  0.00216516  0.79274332  0.25680418  1
  Hf  Hf5  1  0.41346023  0.39790797  0.74717297  1
  Hf  Hf6  1  0.59641949  0.21460935  0.74757794  1
  Hf  Hf7  1  0.40028910  0.19721050  0.72860096  1
  Hf  Hf8  1  0.48833963  0.29300723  0.14425231  1
  Hf  Hf9  1  0.52357092  0.31083503  0.59892566  1
  Hf  Hf10  1  0.30591181  0.68797128  0.63119138  1
  Hf  Hf11  1  0.11104764  0.10056620  0.13448799  1
  Hf  Hf12  1  0.80365066  0.59995303  0.50419383  1
  Hf  Hf13  1  0.00180944  0.00483696  0.76256784  1
  Hf  Hf14  1  0.19627150  0.00249117  0.50988848  1
  Hf  Hf15  1  0.19519082  0.19843723  0.73177631  1
  Hf  Hf16  1  0.68699211  0.68193257  0.62706000  1
  Hf  Hf17  1  0.59905165  -0.00105462  0.24937694  1
  Hf  Hf18  1  0.48715201  0.89637181  0.12496304  1
  Hf  Hf19  1  0.30406500  0.90772337  0.37486653  1
  Hf  Hf20  1  0.20934718  0.60958913  -0.00727082  1
  Hf  Hf21  1  0.20728819  0.60212648  0.24791179  1
  Hf  Hf22  1  -0.00219160  0.00721420  -0.01781733  1
  Hf  Hf23  1  0.68359890  0.48087688  0.61523076  1
  Hf  Hf24  1  0.00243696  0.40496406  -0.00120941  1
  Hf  Hf25  1  0.40762682  -0.00748789  0.51255435  1
  Hf  Hf26  1  0.49914212  0.29113927  0.38331306  1
  Hf  Hf27  1  0.38634790  0.17278399  0.26866104  1
  Hf  Hf28  1  0.38894919  0.00949678  0.00309344  1
  Hf  Hf29  1  0.91136696  0.50461565  0.38519745  1
  Hf  Hf30  1  0.51666465  0.48944640  0.88624492  1
  Hf  Hf31  1  0.89199448  0.29837549  0.36786079  1
  Hf  Hf32  1  0.80152293  0.80056425  0.73693340  1
  Hf  Hf33  1  0.00316760  0.38589731  0.51362591  1
  Hf  Hf34  1  0.59489463  0.79778453  0.50735410  1
  Hf  Hf35  1  0.00749423  0.80001867  0.50862026  1
  Hf  Hf36  1  0.58769835  0.58830311  0.47973147  1
  Hf  Hf37  1  0.68937203  0.10232950  0.86676900  1
  Hf  Hf38  1  0.60396237  0.39401915  0.26871790  1
  Hf  Hf39  1  0.79685143  0.19947224  -0.00471845  1
  Zr  Zr40  1  0.29293050  0.90837077  0.86272098  1
  Zr  Zr41  1  0.80242191  -0.00202160  -0.01043518  1
  Zr  Zr42  1  0.70174018  0.89998989  0.37748875  1
  Zr  Zr43  1  0.39857239  0.37683432  -0.00345157  1
  Zr  Zr44  1  0.11231148  0.30985831  0.13096820  1
  Zr  Zr45  1  0.59901364  0.00655554  0.00557540  1
  Zr  Zr46  1  0.09847271  0.70255987  0.11743312  1
  Zr  Zr47  1  0.72899444  0.50302858  0.14444088  1
  Zr  Zr48  1  0.59268127  0.79497692  0.24658612  1
  Zr  Zr49  1  0.28242969  0.30214495  0.37461175  1
  Zr  Zr50  1  0.90041317  0.49526959  0.62858480  1
  Zr  Zr51  1  0.11027419  0.10601143  0.37498825  1
  Zr  Zr52  1  0.59210377  0.79113412  -0.00200767  1
  Zr  Zr53  1  0.68804993  0.31332406  0.88505327  1
  Zr  Zr54  1  0.69011430  0.30009256  0.12399416  1
  Zr  Zr55  1  0.80336040  0.80951456  0.25101837  1
  Zr  Zr56  1  0.48260247  0.68332790  0.11864968  1
  Zr  Zr57  1  0.58938491  0.78835052  0.74149546  1
  Zr  Zr58  1  0.00124929  0.19847373  -0.00033226  1
  Zr  Zr59  1  0.20204256  0.79835153  0.50846400  1
  Zr  Zr60  1  0.90294004  0.10243712  0.62028906  1
  Zr  Zr61  1  0.89665252  0.90146209  0.12261336  1
  Zr  Zr62  1  0.10316477  0.90359973  0.12549169  1
  Zr  Zr63  1  0.11338824  0.30358076  0.87392495  1
  Zr  Zr64  1  -0.00652941  0.80379443  -0.02208848  1
  Zr  Zr65  1  0.79403663  0.78356782  -0.00533176  1
  Zr  Zr66  1  0.70064354  0.89468589  0.86314581  1
  Zr  Zr67  1  0.51207440  0.48774222  0.11727877  1
  Zr  Zr68  1  0.19842717  0.40755396  0.51688831  1
  Zr  Zr69  1  0.00317944  0.80230430  0.75108655  1
  Zr  Zr70  1  -0.01224830  0.19388715  0.24731791  1
  Zr  Zr71  1  -0.01007620  0.59832637  -0.01235044  1
  Zr  Zr72  1  0.80330683  0.80250277  0.51500664  1
  Zr  Zr73  1  0.78970453  0.20192398  0.49862305  1
  Zr  Zr74  1  0.58873261  0.59623880  0.26455350  1
  Zr  Zr75  1  0.22329878  0.20418005  0.00319303  1
  Zr  Zr76  1  0.40368907  0.80261981  0.74441054  1
  Zr  Zr77  1  0.69751654  0.09953231  0.63071137  1
  Zr  Zr78  1  -0.00973560  -0.00764523  0.26604690  1
  Zr  Zr79  1  0.40418441  0.41881808  0.49298813  1
  Ta  Ta80  1  0.92071450  0.68588463  0.63233065  1
  Ta  Ta81  1  0.49048833  0.10159931  0.13316828  1
  Ta  Ta82  1  0.10439955  0.50273920  0.85940602  1
  Ta  Ta83  1  0.89687553  0.30529103  0.87332318  1
  Ta  Ta84  1  0.38897054  0.19221035  0.50205871  1
  Ta  Ta85  1  0.19413636  0.80294845  0.73673221  1
  Ta  Ta86  1  0.20327664  0.80302814  0.25370469  1
  Ta  Ta87  1  -0.00578306  0.20317451  0.75549657  1
  Ta  Ta88  1  0.09800827  0.51848780  0.64048373  1
  Ta  Ta89  1  0.79848406  0.38579196  0.74163192  1
  Ta  Ta90  1  0.60594795  0.18773832  0.26419693  1
  Ta  Ta91  1  0.30102452  0.90200683  0.62947058  1
  Ta  Ta92  1  0.00329808  0.39212627  0.74297903  1
  Ta  Ta93  1  0.57538527  0.20650888  -0.00023187  1
  Ta  Ta94  1  0.70612472  0.69479175  0.37463451  1
  Ta  Ta95  1  -0.00308429  0.60173119  0.24958318  1
  Ta  Ta96  1  0.48581806  0.11107876  0.87114735  1
  Ta  Ta97  1  0.29858087  0.10163028  0.86375016  1
  Ta  Ta98  1  0.49512340  0.88977802  0.37341788  1
  Ta  Ta99  1  0.70114645  0.69501035  0.13151489  1
  Ta  Ta100  1  0.88323842  0.68673588  0.85650743  1
  Ta  Ta101  1  0.30283688  0.70043414  0.37682411  1
  Ta  Ta102  1  0.11029159  0.49760671  0.37540441  1
  Ta  Ta103  1  0.62534050  0.59045108  0.00114349  1
  Ta  Ta104  1  0.81003678  0.00027207  0.48804349  1
  Ta  Ta105  1  0.18641896  0.20740499  0.51586328  1
  Ta  Ta106  1  0.30568327  0.30401510  0.61863518  1
  Ta  Ta107  1  0.79475934  0.39238794  0.50226853  1
  Ta  Ta108  1  0.90340855  0.70292764  0.38113247  1
  Ta  Ta109  1  0.40544920  0.79497232  0.50888253  1
  Ta  Ta110  1  0.29917312  0.49489084  0.86593470  1
  Ta  Ta111  1  0.39189346  0.42028568  0.26536743  1
  Ta  Ta112  1  0.38141678  0.79353608  -0.00310810  1
  Ta  Ta113  1  0.41601339  0.60312873  0.76668009  1
  Ta  Ta114  1  0.71658497  0.50616227  0.86838087  1
  Ta  Ta115  1  0.09473290  0.30428887  0.37132018  1
  Ta  Ta116  1  0.19903649  0.00410832  -0.00073885  1
  Ta  Ta117  1  0.80381794  0.42321866  -0.00200711  1
  Ta  Ta118  1  0.19484305  0.60052899  0.50353988  1
  Ta  Ta119  1  0.20524082  0.40005590  0.73869807  1
  Ti  Ti120  1  0.58640974  -0.00035257  0.74299195  1
  Ti  Ti121  1  0.30136338  0.70396217  0.86540242  1
  Ti  Ti122  1  0.10845733  0.90288631  0.87216782  1
  Ti  Ti123  1  0.29799254  0.29173681  0.14992495  1
  Ti  Ti124  1  0.29455878  0.90432623  0.13204905  1
  Ti  Ti125  1  0.10389481  0.70062779  0.86881564  1
  Ti  Ti126  1  0.70185662  0.90396565  0.12600120  1
  Ti  Ti127  1  0.39953342  0.00698538  0.73224804  1
  Ti  Ti128  1  0.80949916  0.00124468  0.75857519  1
  Ti  Ti129  1  0.40298381  0.60065537  -0.01848941  1
  Ti  Ti130  1  0.20247056  0.60488032  0.75441344  1
  Ti  Ti131  1  0.71699973  0.49226250  0.37015123  1
  Ti  Ti132  1  0.60458552  0.40781691  0.74882651  1
  Ti  Ti133  1  0.20080746  0.80804440  -0.00304195  1
  Ti  Ti134  1  0.10026859  0.89563618  0.37645903  1
  Ti  Ti135  1  0.68646882  0.68597986  0.86140975  1
  Ti  Ti136  1  0.88851689  0.68159183  0.12826800  1
  Ti  Ti137  1  0.79854055  0.02364921  0.26844755  1
  Ti  Ti138  1  0.80298803  0.20276528  0.75154052  1
  Ti  Ti139  1  0.39009164  0.78901405  0.24858941  1
  Ti  Ti140  1  0.88908624  0.09937148  0.12776458  1
  Ti  Ti141  1  0.91069398  0.91161618  0.62257821  1
  Ti  Ti142  1  0.39505107  0.60623946  0.49018154  1
  Ti  Ti143  1  0.31352841  0.29220735  0.86413670  1
  Ti  Ti144  1  0.60858234  0.00125721  0.49972647  1
  Ti  Ti145  1  0.49810585  0.08336989  0.38269575  1
  Ti  Ti146  1  0.10032078  0.69114524  0.37784079  1
  Ti  Ti147  1  0.22404830  0.01580235  0.25493841  1
  Ti  Ti148  1  0.08694349  0.09841320  0.61709811  1
  Ti  Ti149  1  0.49620285  0.52338298  0.62829222  1
  Ti  Ti150  1  0.30555996  0.50386477  0.63733106  1
  Ti  Ti151  1  0.79306116  0.59055711  0.73878164  1
  Ti  Ti152  1  0.19792261  0.00223654  0.73183078  1
  Ti  Ti153  1  0.50714623  0.10238791  0.61340596  1
  Ti  Ti154  1  0.20462564  0.41111680  -0.00508163  1
  Ti  Ti155  1  0.10227457  0.50596431  0.12355511  1
  Ti  Ti156  1  0.69897021  0.10306507  0.12846034  1
  Ti  Ti157  1  0.90234526  0.49590412  0.85638459  1
  Ti  Ti158  1  0.11179985  0.10385596  0.87220383  1
  Ti  Ti159  1  0.70112384  0.91005833  0.62752143  1
  Mo  Mo160  1  0.10413657  0.69517739  0.63243882  1
  Mo  Mo161  1  0.89753519  0.29250147  0.63072764  1
  Mo  Mo162  1  0.69242911  0.10047807  0.38048430  1
  Mo  Mo163  1  0.40365209  -0.01526634  0.25179344  1
  Mo  Mo164  1  0.19705473  0.20392905  0.25423260  1
  Mo  Mo165  1  0.81040107  0.60930276  0.26441738  1
  Mo  Mo166  1  0.30330242  0.09940301  0.39263189  1
  Mo  Mo167  1  0.61550949  0.39196706  0.47494080  1
  Mo  Mo168  1  0.39506990  0.60696569  0.25651823  1
  Mo  Mo169  1  0.90095107  0.10002927  0.38775134  1
  Mo  Mo170  1  0.90823466  0.89849478  0.38467152  1
  Mo  Mo171  1  0.49609116  0.29392510  0.87180353  1
  Mo  Mo172  1  0.89651487  0.89804957  0.86688700  1
  Mo  Mo173  1  0.09292373  0.29934032  0.63400877  1
  Mo  Mo174  1  0.29811471  0.10172813  0.61788845  1
  Mo  Mo175  1  0.70172187  0.29740801  0.37062440  1
  Mo  Mo176  1  0.29029390  0.51231738  0.37758437  1
  Mo  Mo177  1  0.49010255  0.70848757  0.37621446  1
  Mo  Mo178  1  0.39928012  0.19453516  0.00390062  1
  Mo  Mo179  1  0.49142010  0.50118300  0.37365194  1
  Mo  Mo180  1  -0.00152510  -0.00298770  0.49026719  1
  Mo  Mo181  1  0.01367943  0.60009112  0.50097712  1
  Mo  Mo182  1  0.51029866  0.90919111  0.62498919  1
  Mo  Mo183  1  0.80555964  0.40416789  0.25854510  1
  Mo  Mo184  1  0.59665976  0.58761063  0.75452945  1
  Mo  Mo185  1  0.29452846  0.71517467  0.12193921  1
  Mo  Mo186  1  0.80241330  0.60281189  -0.00756661  1
  Mo  Mo187  1  0.49834157  0.69445117  0.88757090  1
  Mo  Mo188  1  0.20064060  0.40662181  0.25038041  1
  Mo  Mo189  1  0.89705002  0.11205073  0.86614021  1
  Mo  Mo190  1  0.09729924  0.90746161  0.62952154  1
  Mo  Mo191  1  0.91143135  0.50879070  0.12540210  1
  Mo  Mo192  1  0.78847727  0.19425928  0.25214546  1
  Mo  Mo193  1  0.00255860  0.19629496  0.49526033  1
  Mo  Mo194  1  0.59428994  0.18620085  0.48798432  1
  Mo  Mo195  1  0.70461487  0.29738742  0.62637692  1
  Mo  Mo196  1  0.00095725  0.59738835  0.76408573  1
  Mo  Mo197  1  0.61032638  0.39948259  0.00555616  1
  Mo  Mo198  1  0.30214640  0.09422098  0.13102961  1
  Mo  Mo199  1  0.49360788  0.69134846  0.61878755  1
