# generated using pymatgen
data_HfZrTaTiMo
_symmetry_space_group_name_H-M   'P 1'
_cell_length_a   15.21553810
_cell_length_b   15.20974648
_cell_length_c   16.80754320
_cell_angle_alpha   90.02134364
_cell_angle_beta   90.02553918
_cell_angle_gamma   89.95524792
_symmetry_Int_Tables_number   1
_chemical_formula_structural   HfZrTaTiMo
_chemical_formula_sum   'Hf40 Zr40 Ta40 Ti40 Mo40'
_cell_volume   3889.67505594
_cell_formula_units_Z   40
loop_
 _symmetry_equiv_pos_site_id
 _symmetry_equiv_pos_as_xyz
  1  'x, y, z'
loop_
 _atom_site_type_symbol
 _atom_site_label
 _atom_site_symmetry_multiplicity
 _atom_site_fract_x
 _atom_site_fract_y
 _atom_site_fract_z
 _atom_site_occupancy
  Hf  Hf0  1  0.30456769  0.69470324  0.13080249  1
  Hf  Hf1  1  0.50512595  0.69404730  0.36807902  1
  Hf  Hf2  1  0.20069959  0.39770995  -0.00878165  1
  Hf  Hf3  1  0.39208954  0.40336878  0.49179013  1
  Hf  Hf4  1  0.20544869  0.79158606  0.50018982  1
  Hf  Hf5  1  0.77848142  0.41207805  0.00116830  1
  Hf  Hf6  1  0.19757978  0.02642303  0.51241101  1
  Hf  Hf7  1  0.79160443  0.19633201  0.25700094  1
  Hf  Hf8  1  0.00378280  0.60084977  0.49911547  1
  Hf  Hf9  1  0.88697593  0.71088895  0.62354778  1
  Hf  Hf10  1  0.69998396  0.69950782  0.88105256  1
  Hf  Hf11  1  0.59620479  0.40022673  0.51433755  1
  Hf  Hf12  1  0.78909868  0.79354084  0.49271081  1
  Hf  Hf13  1  -0.01758377  0.81601222  0.75861148  1
  Hf  Hf14  1  0.60374544  0.17947399  0.73440397  1
  Hf  Hf15  1  0.89872823  0.10238943  0.11519765  1
  Hf  Hf16  1  0.78964235  0.41114526  0.25150909  1
  Hf  Hf17  1  0.28909708  0.50279409  0.36598921  1
  Hf  Hf18  1  0.90306223  0.49680120  0.61967864  1
  Hf  Hf19  1  0.68861635  0.49827441  0.85363767  1
  Hf  Hf20  1  0.29662570  0.49623076  0.63993196  1
  Hf  Hf21  1  0.20234687  0.80541659  -0.00496619  1
  Hf  Hf22  1  0.80462642  0.79276105  0.25331480  1
  Hf  Hf23  1  0.68352237  0.29811639  0.12827373  1
  Hf  Hf24  1  -0.00967998  0.20575646  0.26209515  1
  Hf  Hf25  1  0.39349884  0.59230934  -0.01242092  1
  Hf  Hf26  1  0.31367260  0.90525369  0.61826782  1
  Hf  Hf27  1  0.10102542  0.09755192  0.36540318  1
  Hf  Hf28  1  0.39469716  0.40230811  -0.00700584  1
  Hf  Hf29  1  0.09188552  0.49828167  0.87027402  1
  Hf  Hf30  1  0.89091101  0.11729666  0.87926025  1
  Hf  Hf31  1  0.09258276  0.29167564  0.61881208  1
  Hf  Hf32  1  0.40276514  0.00848449  -0.00150833  1
  Hf  Hf33  1  0.59868118  0.61149918  0.51485503  1
  Hf  Hf34  1  0.89585949  0.90195501  0.11122647  1
  Hf  Hf35  1  0.00425056  -0.00306770  -0.01343665  1
  Hf  Hf36  1  0.48444102  0.28910008  0.62697055  1
  Hf  Hf37  1  0.69788492  0.89703125  0.12218773  1
  Hf  Hf38  1  0.38512929  0.19659269  0.48825335  1
  Hf  Hf39  1  0.89422381  0.71318031  0.89760904  1
  Zr  Zr40  1  0.08003085  0.90927571  0.61992103  1
  Zr  Zr41  1  0.41049726  0.80391014  -0.01011777  1
  Zr  Zr42  1  0.30875679  0.69324831  0.63161548  1
  Zr  Zr43  1  0.21678791  0.20463648  0.00333824  1
  Zr  Zr44  1  0.40699078  0.79991560  0.75616230  1
  Zr  Zr45  1  0.30234605  0.90499177  0.86665624  1
  Zr  Zr46  1  -0.00606463  0.80495495  0.49150975  1
  Zr  Zr47  1  -0.00053718  0.79297978  0.25609009  1
  Zr  Zr48  1  0.09630070  0.70275877  0.88616269  1
  Zr  Zr49  1  0.51318371  0.09908710  0.87253189  1
  Zr  Zr50  1  -0.00558213  0.38311297  0.48345913  1
  Zr  Zr51  1  0.60221250  -0.01204138  0.49248829  1
  Zr  Zr52  1  0.10822968  0.90096441  0.37307033  1
  Zr  Zr53  1  0.49794634  0.90304650  0.13637784  1
  Zr  Zr54  1  0.92283260  0.09297654  0.61861556  1
  Zr  Zr55  1  0.69699438  0.50933508  0.38854444  1
  Zr  Zr56  1  0.49246512  0.29574986  0.13373359  1
  Zr  Zr57  1  -0.00334529  0.40609831  0.25727753  1
  Zr  Zr58  1  0.51027722  0.69017013  0.86687310  1
  Zr  Zr59  1  0.90503732  0.69980551  0.10128054  1
  Zr  Zr60  1  0.29257744  0.90687875  0.14122848  1
  Zr  Zr61  1  0.31611502  0.10720098  0.14288650  1
  Zr  Zr62  1  0.10192585  0.69734191  0.12036523  1
  Zr  Zr63  1  0.50655250  0.69359738  0.12338965  1
  Zr  Zr64  1  0.10645309  0.10900122  0.87545582  1
  Zr  Zr65  1  0.70684346  0.68760452  0.11092729  1
  Zr  Zr66  1  0.60865626  0.01125842  0.26320697  1
  Zr  Zr67  1  -0.00397796  0.60642929  0.74908071  1
  Zr  Zr68  1  0.49213819  0.51435030  0.64430887  1
  Zr  Zr69  1  0.51541266  0.10488281  0.12883949  1
  Zr  Zr70  1  0.70402676  0.28411214  0.86765971  1
  Zr  Zr71  1  0.81480504  0.38779916  0.74172248  1
  Zr  Zr72  1  -0.00413163  0.41269685  0.00999800  1
  Zr  Zr73  1  0.20006273  0.00261067  0.73795689  1
  Zr  Zr74  1  0.89482096  0.30499974  0.12444796  1
  Zr  Zr75  1  0.31107704  0.90790778  0.37564258  1
  Zr  Zr76  1  0.80081684  -0.00318433  0.75029354  1
  Zr  Zr77  1  0.10439863  0.49641920  0.63162562  1
  Zr  Zr78  1  0.31177614  0.10955837  0.86482950  1
  Zr  Zr79  1  0.10622934  0.09685299  0.13430758  1
  Ta  Ta80  1  0.70647192  0.09470035  0.11375635  1
  Ta  Ta81  1  0.60019491  0.19946116  0.49704550  1
  Ta  Ta82  1  0.20188636  -0.00212825  -0.00070351  1
  Ta  Ta83  1  -0.00994638  -0.00110845  0.24973755  1
  Ta  Ta84  1  -0.00395639  0.21593388  0.75324492  1
  Ta  Ta85  1  0.40349132  0.79620741  0.25480500  1
  Ta  Ta86  1  0.20768692  0.21528306  0.25312443  1
  Ta  Ta87  1  0.10315603  0.70009535  0.62930686  1
  Ta  Ta88  1  0.58875615  0.39661297  0.26492976  1
  Ta  Ta89  1  0.70298381  0.30386246  0.38876386  1
  Ta  Ta90  1  0.01051813  0.21283510  0.00117921  1
  Ta  Ta91  1  0.71669092  0.10185266  0.39451769  1
  Ta  Ta92  1  0.10837600  0.30652270  0.13416875  1
  Ta  Ta93  1  0.49147025  0.48338676  0.85128801  1
  Ta  Ta94  1  0.39360413  0.39550452  0.26406498  1
  Ta  Ta95  1  0.58193135  0.38562001  -0.01234473  1
  Ta  Ta96  1  0.60536185  0.79459081  0.25465048  1
  Ta  Ta97  1  0.71133052  0.89366204  0.62852034  1
  Ta  Ta98  1  0.59923136  0.57248907  -0.00130885  1
  Ta  Ta99  1  0.49879829  0.49093260  0.13057273  1
  Ta  Ta100  1  0.19086268  0.79511498  0.75323514  1
  Ta  Ta101  1  0.70437735  0.89677743  0.36975471  1
  Ta  Ta102  1  0.70425878  0.09516523  0.60635996  1
  Ta  Ta103  1  0.19868725  0.20774283  0.74854738  1
  Ta  Ta104  1  0.42397808  0.00563573  0.74149327  1
  Ta  Ta105  1  0.19250990  0.39435248  0.76210727  1
  Ta  Ta106  1  0.89166161  0.51240589  0.87947538  1
  Ta  Ta107  1  0.29399759  0.09834046  0.36429494  1
  Ta  Ta108  1  0.41609694  0.21648688  -0.00771773  1
  Ta  Ta109  1  0.70451732  0.50711260  0.63346146  1
  Ta  Ta110  1  0.88700604  0.50122653  0.38653237  1
  Ta  Ta111  1  0.41062782  0.20562811  0.27682608  1
  Ta  Ta112  1  0.60294275  0.38421854  0.73404892  1
  Ta  Ta113  1  0.39669084  0.60563749  0.49606905  1
  Ta  Ta114  1  0.30214635  0.69878475  0.36930574  1
  Ta  Ta115  1  0.29517474  0.49437739  0.13547031  1
  Ta  Ta116  1  -0.00131309  0.00645606  0.76699778  1
  Ta  Ta117  1  0.51519814  0.88838693  0.62596824  1
  Ta  Ta118  1  0.10670114  0.68763623  0.37085057  1
  Ta  Ta119  1  0.20442134  0.59501984  0.49710025  1
  Ti  Ti120  1  0.49322060  0.08882053  0.38518992  1
  Ti  Ti121  1  0.40568376  0.59347661  0.25020372  1
  Ti  Ti122  1  0.20128019  0.79656919  0.25323305  1
  Ti  Ti123  1  0.70277714  0.69294571  0.37049791  1
  Ti  Ti124  1  0.29029438  0.30127219  0.62918114  1
  Ti  Ti125  1  0.09768762  0.50345843  0.12824379  1
  Ti  Ti126  1  0.09685683  0.50124147  0.37154157  1
  Ti  Ti127  1  0.11526739  0.30187440  0.37333755  1
  Ti  Ti128  1  0.20174165  0.59068613  -0.00245180  1
  Ti  Ti129  1  0.89969327  0.91225196  0.37349433  1
  Ti  Ti130  1  0.80289447  0.00427171  0.25460135  1
  Ti  Ti131  1  0.79658922  0.39343876  0.51338190  1
  Ti  Ti132  1  0.60035488  0.20426537  0.27800357  1
  Ti  Ti133  1  0.49927703  0.50149615  0.37563295  1
  Ti  Ti134  1  0.79881362  0.61248697  0.75105648  1
  Ti  Ti135  1  0.30295543  0.30775989  0.13343649  1
  Ti  Ti136  1  0.59974511  0.79680423  0.49517023  1
  Ti  Ti137  1  0.88059037  0.51617916  0.12321057  1
  Ti  Ti138  1  0.50174237  0.89552111  0.36888077  1
  Ti  Ti139  1  0.81551778  -0.00763149  0.50177058  1
  Ti  Ti140  1  0.49691562  0.08594161  0.60988711  1
  Ti  Ti141  1  0.91294880  0.31499166  0.88156494  1
  Ti  Ti142  1  0.81216286  0.20559718  0.50466376  1
  Ti  Ti143  1  0.19220079  0.59792464  0.24826427  1
  Ti  Ti144  1  0.70148963  0.08532179  0.88070189  1
  Ti  Ti145  1  0.19935968  0.39617005  0.49729283  1
  Ti  Ti146  1  0.09593780  0.89968222  0.12965484  1
  Ti  Ti147  1  0.80191138  0.19935750  0.72652898  1
  Ti  Ti148  1  0.68502930  0.70782417  0.64195517  1
  Ti  Ti149  1  -0.01576409  0.59764396  0.25421242  1
  Ti  Ti150  1  0.60265066  -0.01857251  -0.00472983  1
  Ti  Ti151  1  0.79823612  0.20703659  0.00133430  1
  Ti  Ti152  1  0.31630145  0.30547066  0.85939378  1
  Ti  Ti153  1  0.69865150  0.89242630  0.87353680  1
  Ti  Ti154  1  0.00573619  0.18892127  0.48631845  1
  Ti  Ti155  1  0.41293670  0.79826167  0.49846956  1
  Ti  Ti156  1  0.30661550  0.11462116  0.62986924  1
  Ti  Ti157  1  0.89284179  0.68560906  0.37987790  1
  Ti  Ti158  1  0.61630259  0.58856675  0.24330264  1
  Ti  Ti159  1  0.60399146  0.19597006  -0.00575911  1
  Mo  Mo160  1  0.40544289  0.00472612  0.26208980  1
  Mo  Mo161  1  0.50523935  0.29703168  0.85935056  1
  Mo  Mo162  1  0.68318174  0.49380769  0.12760322  1
  Mo  Mo163  1  0.60857633  0.80808778  0.75043785  1
  Mo  Mo164  1  0.50046369  0.70869636  0.62717934  1
  Mo  Mo165  1  0.78894937  0.81403685  -0.00405295  1
  Mo  Mo166  1  0.59698945  0.79835938  -0.00352312  1
  Mo  Mo167  1  0.60554640  -0.00729919  0.74003178  1
  Mo  Mo168  1  0.60331621  0.59938447  0.74141772  1
  Mo  Mo169  1  0.19486029  0.00237373  0.24752250  1
  Mo  Mo170  1  -0.00147984  0.39435628  0.75413227  1
  Mo  Mo171  1  0.09911782  0.90350581  0.86989327  1
  Mo  Mo172  1  0.88319457  0.29554254  0.38176380  1
  Mo  Mo173  1  0.19585898  0.21248424  0.49636127  1
  Mo  Mo174  1  0.39882821  0.19559839  0.73922800  1
  Mo  Mo175  1  0.79424801  0.58834036  -0.00768850  1
  Mo  Mo176  1  0.10480844  0.10943527  0.63445998  1
  Mo  Mo177  1  0.69849523  0.29161134  0.61353907  1
  Mo  Mo178  1  0.00830622  0.81270078  -0.00249994  1
  Mo  Mo179  1  0.20090412  0.60683581  0.75673789  1
  Mo  Mo180  1  0.29578848  0.50281102  0.86064355  1
  Mo  Mo181  1  0.79585355  0.80056392  0.75369888  1
  Mo  Mo182  1  0.51828403  0.90287694  0.86977786  1
  Mo  Mo183  1  0.40193518  -0.00296513  0.50686166  1
  Mo  Mo184  1  0.89786693  0.09454025  0.38125237  1
  Mo  Mo185  1  0.79199777  0.00763496  -0.01007606  1
  Mo  Mo186  1  0.89975544  0.29188287  0.61831481  1
  Mo  Mo187  1  0.00261373  0.59306911  0.00252107  1
  Mo  Mo188  1  0.39277282  0.59916379  0.76515596  1
  Mo  Mo189  1  0.09965368  0.29891840  0.87482006  1
  Mo  Mo190  1  -0.00148981  0.00472782  0.49046116  1
  Mo  Mo191  1  0.50441217  0.30397777  0.38412095  1
  Mo  Mo192  1  0.79601871  0.59892399  0.50973099  1
  Mo  Mo193  1  0.89237979  0.90205880  0.62380322  1
  Mo  Mo194  1  0.19599483  0.40486056  0.24591352  1
  Mo  Mo195  1  0.39457259  0.38923707  0.74916795  1
  Mo  Mo196  1  0.80641183  0.59914406  0.25210424  1
  Mo  Mo197  1  0.29366214  0.30280959  0.37363387  1
  Mo  Mo198  1  0.88787338  0.90811648  0.88942574  1
  Mo  Mo199  1  0.29293577  0.69007386  0.86761569  1
