# generated using pymatgen
data_HfZrTaTiMo
_symmetry_space_group_name_H-M   'P 1'
_cell_length_a   15.22155818
_cell_length_b   15.20525429
_cell_length_c   16.87674034
_cell_angle_alpha   90.02082981
_cell_angle_beta   89.97762489
_cell_angle_gamma   89.91678266
_symmetry_Int_Tables_number   1
_chemical_formula_structural   HfZrTaTiMo
_chemical_formula_sum   'Hf40 Zr40 Ta40 Ti40 Mo40'
_cell_volume   3906.07742936
_cell_formula_units_Z   40
loop_
 _symmetry_equiv_pos_site_id
 _symmetry_equiv_pos_as_xyz
  1  'x, y, z'
loop_
 _atom_site_type_symbol
 _atom_site_label
 _atom_site_symmetry_multiplicity
 _atom_site_fract_x
 _atom_site_fract_y
 _atom_site_fract_z
 _atom_site_occupancy
  Hf  Hf0  1  0.01630361  0.79520654  0.01689665  1
  Hf  Hf1  1  0.09264347  0.27154556  0.38161622  1
  Hf  Hf2  1  0.00759317  -0.00567625  0.23277552  1
  Hf  Hf3  1  0.20606600  0.18845119  0.24785379  1
  Hf  Hf4  1  0.09667696  0.09954520  0.64929899  1
  Hf  Hf5  1  0.39663318  0.39625723  0.25526250  1
  Hf  Hf6  1  0.49855715  0.29823863  0.61760348  1
  Hf  Hf7  1  0.91475942  0.50823695  0.10398630  1
  Hf  Hf8  1  0.88936744  0.09762708  0.63833204  1
  Hf  Hf9  1  0.88104639  0.30103816  0.63746177  1
  Hf  Hf10  1  0.91496953  0.49958876  0.63168579  1
  Hf  Hf11  1  0.01398480  0.59404672  0.75565367  1
  Hf  Hf12  1  0.59074222  0.60733914  0.50233124  1
  Hf  Hf13  1  0.20627946  0.59026784  0.50352530  1
  Hf  Hf14  1  0.19195150  0.59510870  -0.00571003  1
  Hf  Hf15  1  0.59843324  0.80562036  0.75950105  1
  Hf  Hf16  1  0.76667794  0.40094788  0.01700161  1
  Hf  Hf17  1  0.19644267  0.39407431  0.25948120  1
  Hf  Hf18  1  0.80802640  0.41312798  0.24186423  1
  Hf  Hf19  1  0.51069483  0.90527907  0.63228283  1
  Hf  Hf20  1  0.80272275  0.81466727  0.75316423  1
  Hf  Hf21  1  0.09177822  0.29301806  0.63485400  1
  Hf  Hf22  1  0.79449802  -0.00540935  0.49322468  1
  Hf  Hf23  1  0.80408894  0.60553707  0.75108259  1
  Hf  Hf24  1  0.30807792  0.70606753  0.87829074  1
  Hf  Hf25  1  0.78683567  0.19337321  -0.00535470  1
  Hf  Hf26  1  0.48884765  0.10210594  0.37296418  1
  Hf  Hf27  1  0.59577835  0.78704533  0.23238678  1
  Hf  Hf28  1  0.59864051  0.58338312  -0.00303501  1
  Hf  Hf29  1  0.59961973  0.01246574  -0.00139591  1
  Hf  Hf30  1  0.20594275  0.39023099  0.49677099  1
  Hf  Hf31  1  0.49533353  0.70456450  0.37581042  1
  Hf  Hf32  1  0.50840729  0.51158078  0.13757976  1
  Hf  Hf33  1  0.28826745  0.49819340  0.13071531  1
  Hf  Hf34  1  0.00238241  0.80348907  0.50041008  1
  Hf  Hf35  1  0.81031263  0.20317334  0.48951616  1
  Hf  Hf36  1  0.00323506  0.79080088  0.74377200  1
  Hf  Hf37  1  0.51444427  0.90442817  0.37191566  1
  Hf  Hf38  1  0.39703890  0.21132838  -0.00997529  1
  Hf  Hf39  1  0.10576010  0.08458429  0.85894454  1
  Zr  Zr40  1  0.48442970  0.89950366  0.10897547  1
  Zr  Zr41  1  0.20880991  0.79738229  0.25147079  1
  Zr  Zr42  1  0.79856125  0.60348004  0.50071936  1
  Zr  Zr43  1  0.20334106  -0.00771753  0.51686524  1
  Zr  Zr44  1  0.79377299  0.20615438  0.24839655  1
  Zr  Zr45  1  -0.00034302  0.20341707  -0.02381894  1
  Zr  Zr46  1  0.00077866  0.19807583  0.23931279  1
  Zr  Zr47  1  0.90202740  0.89951371  0.88913914  1
  Zr  Zr48  1  0.48743406  0.50414848  0.63120710  1
  Zr  Zr49  1  0.10406657  0.68555947  0.62097064  1
  Zr  Zr50  1  0.11731315  0.09417227  0.11003781  1
  Zr  Zr51  1  0.60889594  0.37386056  0.74008216  1
  Zr  Zr52  1  0.76869275  0.20922344  0.76968298  1
  Zr  Zr53  1  0.88897110  0.70007415  0.37684676  1
  Zr  Zr54  1  0.30465033  0.72397872  0.10550709  1
  Zr  Zr55  1  0.23134492  0.39105991  -0.01758160  1
  Zr  Zr56  1  -0.01646704  0.58270810  0.25825204  1
  Zr  Zr57  1  0.39847678  0.00067444  0.50957420  1
  Zr  Zr58  1  0.49477877  0.89635858  0.88382316  1
  Zr  Zr59  1  0.10406289  0.67078786  0.13575681  1
  Zr  Zr60  1  -0.00437785  0.80414274  0.24031410  1
  Zr  Zr61  1  0.69132701  0.11852197  0.62743198  1
  Zr  Zr62  1  0.70769427  0.49262112  0.63075359  1
  Zr  Zr63  1  0.69484413  0.71555010  0.62586239  1
  Zr  Zr64  1  0.00825055  -0.00274533  0.00555190  1
  Zr  Zr65  1  0.10966997  0.69169029  0.37354053  1
  Zr  Zr66  1  0.29700886  0.10251484  0.65105901  1
  Zr  Zr67  1  0.11709419  0.30660912  0.11230380  1
  Zr  Zr68  1  0.38803392  0.61856108  0.25009805  1
  Zr  Zr69  1  0.49934851  0.30094892  0.38028879  1
  Zr  Zr70  1  0.90284943  0.50102654  0.89013582  1
  Zr  Zr71  1  -0.01303115  -0.01541656  0.74760742  1
  Zr  Zr72  1  0.90356767  0.70159767  0.89088164  1
  Zr  Zr73  1  0.10318147  0.91319792  0.37815014  1
  Zr  Zr74  1  0.90367183  0.30069582  0.11153783  1
  Zr  Zr75  1  0.61176520  0.39466147  0.24910605  1
  Zr  Zr76  1  0.88047584  0.70863120  0.11829017  1
  Zr  Zr77  1  0.69687620  0.09430890  0.36568563  1
  Zr  Zr78  1  0.69450808  0.48577986  0.86437213  1
  Zr  Zr79  1  -0.00586812  0.38916083  0.49984465  1
  Ta  Ta80  1  0.60101198  0.78510490  0.00512446  1
  Ta  Ta81  1  0.80511787  -0.00338711  0.24268177  1
  Ta  Ta82  1  0.21913710  0.79333640  0.50561393  1
  Ta  Ta83  1  0.50254292  0.31426790  0.87893646  1
  Ta  Ta84  1  0.49454683  0.30148188  0.12155955  1
  Ta  Ta85  1  0.28894398  0.09560824  0.37803500  1
  Ta  Ta86  1  0.59988528  0.00569916  0.50196356  1
  Ta  Ta87  1  0.60305384  0.40702821  0.49553725  1
  Ta  Ta88  1  0.22729912  0.58864759  0.74694765  1
  Ta  Ta89  1  0.19139012  0.18799859  0.50769379  1
  Ta  Ta90  1  0.29546978  0.31259301  0.63383507  1
  Ta  Ta91  1  0.39803179  0.81687208  0.24684409  1
  Ta  Ta92  1  0.89205474  0.90478147  0.37526546  1
  Ta  Ta93  1  0.10949775  0.69882684  0.87386543  1
  Ta  Ta94  1  0.31141523  0.89626990  0.37783531  1
  Ta  Ta95  1  0.11069931  0.88696356  0.87220103  1
  Ta  Ta96  1  0.39470698  0.19956920  0.24355276  1
  Ta  Ta97  1  0.69781997  0.70245388  0.87725156  1
  Ta  Ta98  1  0.20805463  0.19338371  -0.02503791  1
  Ta  Ta99  1  0.40655532  0.79823561  0.50466742  1
  Ta  Ta100  1  0.50012617  0.10417464  0.63141365  1
  Ta  Ta101  1  0.00000493  0.01359306  0.50756002  1
  Ta  Ta102  1  0.30420742  0.09625133  0.85813026  1
  Ta  Ta103  1  0.70687264  0.89377289  0.11496389  1
  Ta  Ta104  1  0.40680656  0.21349561  0.75875339  1
  Ta  Ta105  1  0.79036971  0.81041993  0.24790322  1
  Ta  Ta106  1  -0.01441796  0.20644361  0.77223380  1
  Ta  Ta107  1  0.29504100  0.90167842  0.86402913  1
  Ta  Ta108  1  0.89871812  0.70304730  0.61652167  1
  Ta  Ta109  1  0.30091439  0.28808476  0.38098189  1
  Ta  Ta110  1  0.48731575  0.70779877  0.63408902  1
  Ta  Ta111  1  0.39574070  0.00604176  0.24501961  1
  Ta  Ta112  1  0.09199159  0.48754891  0.37732971  1
  Ta  Ta113  1  0.61008282  0.01301123  0.76790305  1
  Ta  Ta114  1  0.69992991  0.51198951  0.37209458  1
  Ta  Ta115  1  0.38502853  0.20330342  0.50851349  1
  Ta  Ta116  1  0.59647039  0.20034178  0.49610762  1
  Ta  Ta117  1  0.40184505  0.59366927  0.00151678  1
  Ta  Ta118  1  0.92191718  0.09930526  0.37275073  1
  Ta  Ta119  1  0.60243314  -0.00596016  0.23497988  1
  Ti  Ti120  1  -0.00274923  0.58867984  0.49253935  1
  Ti  Ti121  1  0.38121870  0.41399977  0.75430882  1
  Ti  Ti122  1  0.70569716  0.91772536  0.63091576  1
  Ti  Ti123  1  0.69485862  0.71573911  0.37612721  1
  Ti  Ti124  1  0.11889601  0.48246928  0.63565283  1
  Ti  Ti125  1  0.10354142  0.89377275  0.62703613  1
  Ti  Ti126  1  0.39726998  0.40967545  0.49419715  1
  Ti  Ti127  1  0.89587887  0.09792543  0.12073957  1
  Ti  Ti128  1  0.38559146  0.00598465  -0.01046623  1
  Ti  Ti129  1  0.90148024  0.30621912  0.36978084  1
  Ti  Ti130  1  0.30626406  0.10328609  0.11385514  1
  Ti  Ti131  1  0.50157052  0.50618620  0.37048971  1
  Ti  Ti132  1  0.59164855  0.19624525  0.24414092  1
  Ti  Ti133  1  0.21190335  -0.00784336  0.24492513  1
  Ti  Ti134  1  0.80127495  0.40800398  0.49005820  1
  Ti  Ti135  1  0.39209930  0.60625402  0.50029442  1
  Ti  Ti136  1  0.78595456  0.60819260  0.00511118  1
  Ti  Ti137  1  0.69581263  0.10323510  0.12983237  1
  Ti  Ti138  1  0.19949209  0.22209050  0.76871230  1
  Ti  Ti139  1  0.00239317  0.39614937  0.24732727  1
  Ti  Ti140  1  0.02427264  0.40806564  -0.01024721  1
  Ti  Ti141  1  0.29770220  0.50991160  0.37097330  1
  Ti  Ti142  1  0.49719711  0.10556200  0.12331533  1
  Ti  Ti143  1  0.59574137  0.60177963  0.75190305  1
  Ti  Ti144  1  0.61357779  0.81510626  0.50060481  1
  Ti  Ti145  1  0.31223989  0.88531147  0.64163222  1
  Ti  Ti146  1  0.41284255  0.00163146  0.75637245  1
  Ti  Ti147  1  0.80077510  -0.00257403  0.00958137  1
  Ti  Ti148  1  0.59870539  0.21073143  -0.00237560  1
  Ti  Ti149  1  0.48897000  0.50131891  0.86803469  1
  Ti  Ti150  1  0.11804026  0.49488232  0.86550723  1
  Ti  Ti151  1  0.49896713  0.69466686  0.87347675  1
  Ti  Ti152  1  0.20758952  0.78879560  0.74152366  1
  Ti  Ti153  1  0.70583538  0.90219189  0.88916290  1
  Ti  Ti154  1  0.88023189  0.08908687  0.86792057  1
  Ti  Ti155  1  0.77714398  0.60963529  0.24366744  1
  Ti  Ti156  1  0.00461994  0.39219452  0.76532466  1
  Ti  Ti157  1  0.88256338  0.31454191  0.87965485  1
  Ti  Ti158  1  0.70102681  0.30712144  0.38120477  1
  Ti  Ti159  1  0.89256749  0.89503138  0.61436312  1
  Mo  Mo160  1  0.89255005  0.49308205  0.37428026  1
  Mo  Mo161  1  0.68621466  0.69066569  0.12240830  1
  Mo  Mo162  1  0.40836572  0.60624259  0.75428201  1
  Mo  Mo163  1  0.60203808  0.60088206  0.26109319  1
  Mo  Mo164  1  0.29602733  0.92032487  0.11719687  1
  Mo  Mo165  1  0.39971410  0.80212315  0.75008485  1
  Mo  Mo166  1  0.01018110  0.59692856  -0.01012871  1
  Mo  Mo167  1  0.19702198  0.40306142  0.75505656  1
  Mo  Mo168  1  -0.00215866  0.18896172  0.50808429  1
  Mo  Mo169  1  0.69317274  0.09293310  0.88806920  1
  Mo  Mo170  1  0.78940228  -0.00343706  0.75620816  1
  Mo  Mo171  1  0.70272667  0.50791244  0.13110470  1
  Mo  Mo172  1  0.41531038  0.41112085  0.00142757  1
  Mo  Mo173  1  0.68369647  0.29066107  0.12883798  1
  Mo  Mo174  1  0.20381886  -0.02202567  0.74235290  1
  Mo  Mo175  1  0.57853401  0.19124023  0.76582906  1
  Mo  Mo176  1  0.31326344  0.50736158  0.87462387  1
  Mo  Mo177  1  0.30975323  0.29024989  0.12463396  1
  Mo  Mo178  1  0.49382751  0.10463193  0.87762022  1
  Mo  Mo179  1  0.89362092  0.90664798  0.12089264  1
  Mo  Mo180  1  0.30389218  0.49647320  0.62087069  1
  Mo  Mo181  1  0.70105652  0.89861272  0.36513304  1
  Mo  Mo182  1  0.78914755  0.80229730  -0.00104333  1
  Mo  Mo183  1  0.58377605  0.39607075  0.00654934  1
  Mo  Mo184  1  0.30821797  0.69690584  0.62619045  1
  Mo  Mo185  1  0.12872484  0.89231402  0.11870779  1
  Mo  Mo186  1  0.09745600  0.30194341  0.87279101  1
  Mo  Mo187  1  0.10382178  0.08768408  0.37665576  1
  Mo  Mo188  1  0.30896289  0.30637991  0.86177560  1
  Mo  Mo189  1  0.69073570  0.30089572  0.88405965  1
  Mo  Mo190  1  0.40436014  0.80023273  -0.00883161  1
  Mo  Mo191  1  0.10042625  0.48658297  0.12452287  1
  Mo  Mo192  1  0.49527570  0.69896807  0.11604182  1
  Mo  Mo193  1  0.81469900  0.39727705  0.75490456  1
  Mo  Mo194  1  0.79814655  0.80790296  0.49882892  1
  Mo  Mo195  1  0.69920877  0.30668414  0.59757125  1
  Mo  Mo196  1  0.20375994  0.81102226  -0.00667587  1
  Mo  Mo197  1  0.30525340  0.70588164  0.38277219  1
  Mo  Mo198  1  0.21059132  0.00323025  -0.01357159  1
  Mo  Mo199  1  0.19571810  0.58537056  0.26606157  1
