# generated using pymatgen
data_HfZrTaTiMo
_symmetry_space_group_name_H-M   'P 1'
_cell_length_a   15.21300805
_cell_length_b   15.21010733
_cell_length_c   16.82211680
_cell_angle_alpha   89.98773124
_cell_angle_beta   89.99298096
_cell_angle_gamma   90.00484185
_symmetry_Int_Tables_number   1
_chemical_formula_structural   HfZrTaTiMo
_chemical_formula_sum   'Hf40 Zr40 Ta40 Ti40 Mo40'
_cell_volume   3892.49445887
_cell_formula_units_Z   40
loop_
 _symmetry_equiv_pos_site_id
 _symmetry_equiv_pos_as_xyz
  1  'x, y, z'
loop_
 _atom_site_type_symbol
 _atom_site_label
 _atom_site_symmetry_multiplicity
 _atom_site_fract_x
 _atom_site_fract_y
 _atom_site_fract_z
 _atom_site_occupancy
  Hf  Hf0  1  0.60995336  0.78904511  0.74955330  1
  Hf  Hf1  1  0.28837418  0.09188482  0.86894957  1
  Hf  Hf2  1  0.10632035  0.91212915  0.88211148  1
  Hf  Hf3  1  0.19199513  0.79453268  0.74942470  1
  Hf  Hf4  1  0.09528706  0.89607813  0.61277687  1
  Hf  Hf5  1  0.40258642  0.20868025  -0.01349126  1
  Hf  Hf6  1  0.10242304  0.29090822  0.60756449  1
  Hf  Hf7  1  0.70389581  0.49683528  0.87451828  1
  Hf  Hf8  1  0.09155487  0.68686313  0.61929889  1
  Hf  Hf9  1  0.31557590  0.89353468  0.86877127  1
  Hf  Hf10  1  0.58537830  0.39539458  -0.01375151  1
  Hf  Hf11  1  0.80456969  0.80893278  0.75449302  1
  Hf  Hf12  1  0.90763384  0.09374371  0.88133594  1
  Hf  Hf13  1  0.79590631  0.01738686  0.24455689  1
  Hf  Hf14  1  0.20173650  0.20723634  0.25114280  1
  Hf  Hf15  1  0.38587959  0.00006008  0.49352450  1
  Hf  Hf16  1  -0.00081566  0.57974029  0.47668234  1
  Hf  Hf17  1  0.80145560  0.81025659  0.24929448  1
  Hf  Hf18  1  0.00836140  0.59774338  -0.00474430  1
  Hf  Hf19  1  0.32012371  0.69933459  0.36417231  1
  Hf  Hf20  1  0.40543563  0.19474482  0.49148347  1
  Hf  Hf21  1  0.88644755  0.48375744  0.12849091  1
  Hf  Hf22  1  0.41553552  0.00237699  -0.00484855  1
  Hf  Hf23  1  0.09521550  0.09120463  0.12165589  1
  Hf  Hf24  1  0.10421192  0.70081022  0.13729286  1
  Hf  Hf25  1  0.79108976  0.20100288  0.72936187  1
  Hf  Hf26  1  0.70545420  0.70437387  0.88962582  1
  Hf  Hf27  1  0.28179654  0.31140069  0.86760699  1
  Hf  Hf28  1  0.20468812  0.58920055  0.75420725  1
  Hf  Hf29  1  0.90051499  0.51667022  0.63013864  1
  Hf  Hf30  1  0.59480578  0.19925702  0.74822933  1
  Hf  Hf31  1  0.40299378  0.79729348  0.50329982  1
  Hf  Hf32  1  -0.00323148  0.19507240  0.25552644  1
  Hf  Hf33  1  0.18573721  0.19127255  0.74903120  1
  Hf  Hf34  1  0.19693553  0.40241917  0.49082209  1
  Hf  Hf35  1  0.59426649  0.58572551  0.24006799  1
  Hf  Hf36  1  0.10569003  0.30833926  0.12626876  1
  Hf  Hf37  1  -0.00216725  0.19587373  0.00439825  1
  Hf  Hf38  1  0.49845308  0.89690540  0.62405422  1
  Hf  Hf39  1  0.90044114  0.49922646  0.86639136  1
  Zr  Zr40  1  0.30064387  0.50295349  0.62094296  1
  Zr  Zr41  1  0.91886924  0.90919945  0.12281224  1
  Zr  Zr42  1  0.59540663  0.39645887  0.75603298  1
  Zr  Zr43  1  0.40094299  0.40085942  0.25213237  1
  Zr  Zr44  1  0.79760757  0.62572989  0.48483592  1
  Zr  Zr45  1  0.29374766  0.91658502  0.64087237  1
  Zr  Zr46  1  0.39384634  0.58916759  0.00844879  1
  Zr  Zr47  1  0.90060768  0.90388236  0.60833926  1
  Zr  Zr48  1  0.30959324  0.10024365  0.12894832  1
  Zr  Zr49  1  -0.01265236  0.39894551  0.26240223  1
  Zr  Zr50  1  0.80045676  0.58756726  0.25811247  1
  Zr  Zr51  1  0.78802216  0.01092071  0.02569196  1
  Zr  Zr52  1  0.59996956  0.77786219  0.48720459  1
  Zr  Zr53  1  0.80266356  0.59245708  0.00945431  1
  Zr  Zr54  1  0.59750453  0.18441688  -0.00304784  1
  Zr  Zr55  1  0.70608159  0.09967098  0.87513704  1
  Zr  Zr56  1  0.30705454  0.30248021  0.62471787  1
  Zr  Zr57  1  0.70428165  0.89184945  0.60862540  1
  Zr  Zr58  1  0.88592536  0.30160730  0.87395909  1
  Zr  Zr59  1  0.00311028  -0.00061501  0.26627745  1
  Zr  Zr60  1  0.11270715  0.69322156  0.36058721  1
  Zr  Zr61  1  0.01093365  -0.00012943  0.74553546  1
  Zr  Zr62  1  0.59512625  0.79591236  0.24721390  1
  Zr  Zr63  1  0.59391615  0.59982434  0.01519984  1
  Zr  Zr64  1  0.90413473  0.31212414  0.61027025  1
  Zr  Zr65  1  -0.00740977  0.19360850  0.74374806  1
  Zr  Zr66  1  0.20706055  0.79466550  0.50137254  1
  Zr  Zr67  1  0.49995580  0.91473719  0.13609121  1
  Zr  Zr68  1  0.50922093  0.31399936  0.38683711  1
  Zr  Zr69  1  0.49893304  0.71042793  0.88620481  1
  Zr  Zr70  1  0.40748455  0.79136013  0.74507108  1
  Zr  Zr71  1  0.91416399  0.69644443  0.13876119  1
  Zr  Zr72  1  0.69768581  0.31976570  0.12187716  1
  Zr  Zr73  1  0.09772146  0.50429279  0.13941847  1
  Zr  Zr74  1  0.90550949  0.30277482  0.39800759  1
  Zr  Zr75  1  0.49896328  0.48327868  0.61401140  1
  Zr  Zr76  1  0.58413019  0.00141194  0.48502003  1
  Zr  Zr77  1  0.89786384  0.90102720  0.89018642  1
  Zr  Zr78  1  -0.01314910  0.78734602  0.47798073  1
  Zr  Zr79  1  0.60046449  -0.00576070  0.75089311  1
  Ta  Ta80  1  0.29745442  0.09403979  0.36727474  1
  Ta  Ta81  1  0.50841714  0.10782935  0.13889322  1
  Ta  Ta82  1  0.60947135  0.20939080  0.25883395  1
  Ta  Ta83  1  -0.00260091  0.79380996  0.75351934  1
  Ta  Ta84  1  0.49505812  0.29408054  0.13090379  1
  Ta  Ta85  1  0.69877635  0.90477321  0.37658061  1
  Ta  Ta86  1  0.40347815  0.20182554  0.75767514  1
  Ta  Ta87  1  0.10920540  0.48839146  0.87086166  1
  Ta  Ta88  1  0.78424913  0.01945420  0.49332942  1
  Ta  Ta89  1  0.61346643  0.18781906  0.50101251  1
  Ta  Ta90  1  0.39660300  0.79977988  0.01883447  1
  Ta  Ta91  1  0.79829738  0.42125651  0.50208225  1
  Ta  Ta92  1  0.51835742  0.67858740  0.62399392  1
  Ta  Ta93  1  0.39732417  0.40557051  0.76435039  1
  Ta  Ta94  1  0.49237988  0.09970476  0.62858889  1
  Ta  Ta95  1  0.20067437  0.59692316  -0.00209218  1
  Ta  Ta96  1  0.80120328  0.21358862  0.24958490  1
  Ta  Ta97  1  0.00158790  0.60566687  0.75681657  1
  Ta  Ta98  1  0.29580009  0.89836591  0.36489417  1
  Ta  Ta99  1  0.90405197  0.70243334  0.88015330  1
  Ta  Ta100  1  0.79703354  0.80165701  0.01733821  1
  Ta  Ta101  1  0.29689058  0.69480508  0.88106695  1
  Ta  Ta102  1  0.11275180  0.89534139  0.12104312  1
  Ta  Ta103  1  0.69954003  0.70275674  0.12850097  1
  Ta  Ta104  1  0.19872799  0.40575937  0.00005189  1
  Ta  Ta105  1  -0.00211893  0.40014437  -0.00260324  1
  Ta  Ta106  1  0.29360354  0.29845551  0.37863175  1
  Ta  Ta107  1  0.00995445  0.39904923  0.74973772  1
  Ta  Ta108  1  0.30927139  0.50022765  0.37621124  1
  Ta  Ta109  1  0.80213055  0.00587391  0.74139056  1
  Ta  Ta110  1  0.69328148  0.51968250  0.61973125  1
  Ta  Ta111  1  0.39109978  0.80114856  0.23023750  1
  Ta  Ta112  1  0.69325614  0.90100192  0.88965497  1
  Ta  Ta113  1  0.10618200  0.11176806  0.39211636  1
  Ta  Ta114  1  0.10768917  0.09091814  0.60048329  1
  Ta  Ta115  1  0.09610923  0.49113140  0.62589561  1
  Ta  Ta116  1  0.41021318  0.60337417  0.49576672  1
  Ta  Ta117  1  0.48543325  0.89280293  0.36012064  1
  Ta  Ta118  1  0.59886938  0.01129421  0.26559020  1
  Ta  Ta119  1  0.69229474  0.31225640  0.60938709  1
  Ti  Ti120  1  0.50294665  0.47932495  0.12669732  1
  Ti  Ti121  1  0.40823661  0.19465123  0.26299450  1
  Ti  Ti122  1  0.21236454  0.58986149  0.25146390  1
  Ti  Ti123  1  0.20369286  0.80803327  0.24643099  1
  Ti  Ti124  1  0.59766074  0.81415747  0.01778327  1
  Ti  Ti125  1  0.88883379  0.11007985  0.38732199  1
  Ti  Ti126  1  0.88922726  0.90461840  0.38111308  1
  Ti  Ti127  1  0.29281128  0.48997954  0.13036993  1
  Ti  Ti128  1  0.19997581  0.20327585  -0.00083135  1
  Ti  Ti129  1  0.20477013  -0.00188520  0.00524354  1
  Ti  Ti130  1  0.20644967  0.59913163  0.49482878  1
  Ti  Ti131  1  0.00749281  0.80003996  0.00023035  1
  Ti  Ti132  1  0.49873059  0.29548781  0.61302197  1
  Ti  Ti133  1  0.39338781  0.40159288  -0.01203558  1
  Ti  Ti134  1  0.30433989  0.30400134  0.12294543  1
  Ti  Ti135  1  0.29808513  0.10323580  0.63163127  1
  Ti  Ti136  1  0.69200613  0.69689788  0.36213989  1
  Ti  Ti137  1  0.70856323  0.29994579  0.38946260  1
  Ti  Ti138  1  0.09099946  0.29389527  0.87780276  1
  Ti  Ti139  1  0.79432776  0.40586419  0.73663887  1
  Ti  Ti140  1  0.70063103  0.29817448  0.87943472  1
  Ti  Ti141  1  0.40589194  0.60329972  0.23499498  1
  Ti  Ti142  1  0.20456077  -0.00275338  0.24738931  1
  Ti  Ti143  1  0.89910419  0.10293505  0.60639942  1
  Ti  Ti144  1  0.00528921  0.80524470  0.26493373  1
  Ti  Ti145  1  0.11089570  0.90844470  0.38242101  1
  Ti  Ti146  1  0.59842228  0.59534763  0.75693711  1
  Ti  Ti147  1  0.50452095  0.51018279  0.38164409  1
  Ti  Ti148  1  0.40957561  0.59549886  0.75934866  1
  Ti  Ti149  1  0.79730159  0.20451466  0.01524394  1
  Ti  Ti150  1  0.10062028  0.70081206  0.87739411  1
  Ti  Ti151  1  0.69266679  0.48734071  0.37957878  1
  Ti  Ti152  1  0.20546513  0.79519758  0.00116518  1
  Ti  Ti153  1  0.79558511  0.61406004  0.74967971  1
  Ti  Ti154  1  0.89075982  0.71038181  0.62364888  1
  Ti  Ti155  1  -0.00332965  0.00310648  0.48650854  1
  Ti  Ti156  1  0.30891370  0.69343477  0.62593864  1
  Ti  Ti157  1  0.10663280  0.48448978  0.36079201  1
  Ti  Ti158  1  0.90047729  0.29835774  0.12358523  1
  Ti  Ti159  1  0.29420557  0.69785799  0.12605837  1
  Mo  Mo160  1  0.89721116  0.11706087  0.13055701  1
  Mo  Mo161  1  0.70305200  0.11289462  0.37041273  1
  Mo  Mo162  1  0.20020841  -0.00458819  0.49014733  1
  Mo  Mo163  1  0.00785054  -0.00317635  0.00759936  1
  Mo  Mo164  1  0.68900589  0.11055586  0.13796108  1
  Mo  Mo165  1  0.90111482  0.70458005  0.35522188  1
  Mo  Mo166  1  0.69824916  0.90325223  0.12863403  1
  Mo  Mo167  1  0.49480853  0.69150064  0.36371847  1
  Mo  Mo168  1  0.21375926  0.18978280  0.49858028  1
  Mo  Mo169  1  0.20619795  0.39875368  0.25943074  1
  Mo  Mo170  1  0.70769427  0.69409654  0.62693605  1
  Mo  Mo171  1  0.00155059  0.19274672  0.49912824  1
  Mo  Mo172  1  0.88878573  0.49695290  0.37562810  1
  Mo  Mo173  1  0.10636958  0.29670201  0.38561567  1
  Mo  Mo174  1  0.79552993  0.20350278  0.51306644  1
  Mo  Mo175  1  0.00120873  0.59868634  0.26897054  1
  Mo  Mo176  1  0.40706483  0.01134788  0.75445105  1
  Mo  Mo177  1  0.49359032  0.09000053  0.86474199  1
  Mo  Mo178  1  0.39952914  0.40337245  0.48803541  1
  Mo  Mo179  1  0.00446056  0.40663050  0.49493579  1
  Mo  Mo180  1  0.29746265  0.50435608  0.87536795  1
  Mo  Mo181  1  0.49293040  0.50235537  0.87148507  1
  Mo  Mo182  1  0.60347592  0.59385066  0.49091624  1
  Mo  Mo183  1  0.49228925  0.29608438  0.87184543  1
  Mo  Mo184  1  0.69400871  0.49615563  0.12343231  1
  Mo  Mo185  1  0.49813008  0.10286779  0.36315677  1
  Mo  Mo186  1  0.39519604  0.00238119  0.25671605  1
  Mo  Mo187  1  0.49505328  0.70026557  0.12079258  1
  Mo  Mo188  1  0.19710871  0.00217720  0.74784288  1
  Mo  Mo189  1  0.19151318  0.39597679  0.74673395  1
  Mo  Mo190  1  0.60582737  0.39883383  0.25410676  1
  Mo  Mo191  1  0.60642428  0.40031433  0.50087960  1
  Mo  Mo192  1  0.51028506  0.89799839  0.88536088  1
  Mo  Mo193  1  0.80397014  0.39162405  -0.00574414  1
  Mo  Mo194  1  0.79401898  0.80919424  0.47933689  1
  Mo  Mo195  1  0.59957742  -0.00274933  0.00277850  1
  Mo  Mo196  1  0.29213689  0.89935571  0.12282921  1
  Mo  Mo197  1  0.10406299  0.10322239  0.89154089  1
  Mo  Mo198  1  0.69625538  0.09997102  0.62395223  1
  Mo  Mo199  1  0.78286250  0.39043020  0.26262789  1
