# generated using pymatgen
data_HfZrTaTiMo
_symmetry_space_group_name_H-M   'P 1'
_cell_length_a   15.19449641
_cell_length_b   15.20656186
_cell_length_c   16.86786625
_cell_angle_alpha   89.97430761
_cell_angle_beta   90.02283462
_cell_angle_gamma   89.87210948
_symmetry_Int_Tables_number   1
_chemical_formula_structural   HfZrTaTiMo
_chemical_formula_sum   'Hf40 Zr40 Ta40 Ti40 Mo40'
_cell_volume   3897.41212802
_cell_formula_units_Z   40
loop_
 _symmetry_equiv_pos_site_id
 _symmetry_equiv_pos_as_xyz
  1  'x, y, z'
loop_
 _atom_site_type_symbol
 _atom_site_label
 _atom_site_symmetry_multiplicity
 _atom_site_fract_x
 _atom_site_fract_y
 _atom_site_fract_z
 _atom_site_occupancy
  Hf  Hf0  1  0.81320871  -0.01414978  0.00128101  1
  Hf  Hf1  1  0.49400160  0.69322800  0.11354331  1
  Hf  Hf2  1  -0.00685407  0.59975609  0.23303059  1
  Hf  Hf3  1  0.89958591  0.90088452  0.62408586  1
  Hf  Hf4  1  0.40282798  0.58951190  -0.01202153  1
  Hf  Hf5  1  0.78822984  0.40214843  0.50215232  1
  Hf  Hf6  1  0.08589523  0.30065673  0.61287484  1
  Hf  Hf7  1  0.31239262  0.89421953  0.62621519  1
  Hf  Hf8  1  0.19507337  0.59765683  -0.01144884  1
  Hf  Hf9  1  0.48997127  0.51014311  0.36976332  1
  Hf  Hf10  1  0.39896943  0.80552538  0.23633219  1
  Hf  Hf11  1  0.69725783  0.70247418  0.61905679  1
  Hf  Hf12  1  0.59006611  0.61389190  0.24820168  1
  Hf  Hf13  1  0.70207670  0.09217746  0.13511963  1
  Hf  Hf14  1  0.89405347  0.32547040  0.87881321  1
  Hf  Hf15  1  0.59320746  0.19345836  0.75245660  1
  Hf  Hf16  1  0.10934879  0.10193747  0.62727532  1
  Hf  Hf17  1  0.18544892  -0.00328371  -0.01004503  1
  Hf  Hf18  1  0.40788975  0.81399100  0.76111287  1
  Hf  Hf19  1  0.00680146  -0.01896676  0.26062333  1
  Hf  Hf20  1  0.89250422  0.48749111  0.63954470  1
  Hf  Hf21  1  0.29144323  0.49927790  0.63524817  1
  Hf  Hf22  1  0.90748318  0.08268871  0.86104487  1
  Hf  Hf23  1  0.41418033  0.40661157  0.50849469  1
  Hf  Hf24  1  0.79454851  0.19222030  -0.01229963  1
  Hf  Hf25  1  0.09204148  0.50296534  0.62645913  1
  Hf  Hf26  1  0.61000645  0.80284189  0.75223820  1
  Hf  Hf27  1  0.09721231  0.07672844  0.12965646  1
  Hf  Hf28  1  0.10933665  0.10727386  0.86259313  1
  Hf  Hf29  1  0.58760689  0.59400485  0.50357830  1
  Hf  Hf30  1  0.59341292  0.20112161  -0.00381636  1
  Hf  Hf31  1  0.49517449  0.09313337  0.87671511  1
  Hf  Hf32  1  0.17879175  0.79989378  -0.00688171  1
  Hf  Hf33  1  0.42299259  0.19172646  0.48369387  1
  Hf  Hf34  1  0.19720629  0.40731147  0.49221416  1
  Hf  Hf35  1  0.09378405  0.50141108  0.37321647  1
  Hf  Hf36  1  0.20909075  0.19214888  0.26589049  1
  Hf  Hf37  1  0.41502309  0.59820835  0.74997344  1
  Hf  Hf38  1  0.28266982  0.70409664  0.64355654  1
  Hf  Hf39  1  0.88822422  0.71678758  0.87710785  1
  Zr  Zr40  1  0.29567424  0.70301260  0.86551661  1
  Zr  Zr41  1  0.09800022  0.30859222  0.89676554  1
  Zr  Zr42  1  0.90668543  0.28854779  0.11314446  1
  Zr  Zr43  1  0.80781227  0.40971688  0.23102418  1
  Zr  Zr44  1  0.70140658  0.71658382  0.11494417  1
  Zr  Zr45  1  0.00782540  -0.00097239  0.50195394  1
  Zr  Zr46  1  0.31341690  0.71035987  0.36582553  1
  Zr  Zr47  1  0.22070057  0.00431983  0.75508285  1
  Zr  Zr48  1  0.38882396  0.61447192  0.51010525  1
  Zr  Zr49  1  0.30213927  0.48190194  0.86539584  1
  Zr  Zr50  1  0.31617416  0.08917341  0.60905499  1
  Zr  Zr51  1  0.10864648  0.88906692  0.64160006  1
  Zr  Zr52  1  0.00314112  0.22222153  0.75193195  1
  Zr  Zr53  1  0.79919703  0.80240325  0.25529199  1
  Zr  Zr54  1  0.49152224  0.88540424  0.37418063  1
  Zr  Zr55  1  0.31299581  0.50501339  0.13137738  1
  Zr  Zr56  1  0.20095005  0.39633138  0.24984745  1
  Zr  Zr57  1  0.58061896  0.20394575  0.26251881  1
  Zr  Zr58  1  0.90508672  0.10233274  0.37392352  1
  Zr  Zr59  1  0.68152408  0.49729697  0.63957245  1
  Zr  Zr60  1  0.41804300  0.38713824  0.73535247  1
  Zr  Zr61  1  0.00984367  0.78578306  0.50130534  1
  Zr  Zr62  1  0.49406771  0.10468550  0.13305635  1
  Zr  Zr63  1  0.29717015  0.28440071  0.86911389  1
  Zr  Zr64  1  0.29465052  0.10193123  0.12585705  1
  Zr  Zr65  1  0.89623190  0.49546626  0.37324835  1
  Zr  Zr66  1  0.00865278  0.39308529  0.23529622  1
  Zr  Zr67  1  0.81163426  0.20176447  0.50664056  1
  Zr  Zr68  1  0.71184319  0.50149329  0.87101512  1
  Zr  Zr69  1  0.79940244  0.41170460  0.00942071  1
  Zr  Zr70  1  0.89591893  0.69043205  0.37829541  1
  Zr  Zr71  1  0.69229688  0.29567344  0.12978143  1
  Zr  Zr72  1  0.40362138  -0.00519372  0.00533093  1
  Zr  Zr73  1  0.41097071  0.38637965  0.25474342  1
  Zr  Zr74  1  0.69801838  0.50900724  0.37086871  1
  Zr  Zr75  1  0.70848907  0.30065034  0.36338095  1
  Zr  Zr76  1  0.39841851  0.80370342  0.00036607  1
  Zr  Zr77  1  0.11093735  0.28161292  0.10839193  1
  Zr  Zr78  1  0.29255533  0.28986941  0.61977575  1
  Zr  Zr79  1  0.79181558  0.20937131  0.75624756  1
  Ta  Ta80  1  0.69283503  0.90698212  0.61383685  1
  Ta  Ta81  1  0.90499553  0.29551184  0.36481798  1
  Ta  Ta82  1  0.59096256  0.01404168  0.49188293  1
  Ta  Ta83  1  0.29464602  0.51056760  0.36839902  1
  Ta  Ta84  1  0.39661495  0.18039292  0.74181328  1
  Ta  Ta85  1  0.89584495  0.89629718  0.38527437  1
  Ta  Ta86  1  0.08064707  0.70072514  0.86056314  1
  Ta  Ta87  1  0.30768875  0.30328786  0.38407269  1
  Ta  Ta88  1  0.00363555  0.79315737  0.25121421  1
  Ta  Ta89  1  0.17938826  0.58442756  0.76533507  1
  Ta  Ta90  1  0.90019130  0.09458833  0.13535147  1
  Ta  Ta91  1  0.20113114  0.19017963  0.48434145  1
  Ta  Ta92  1  0.10697121  0.51120701  0.11811091  1
  Ta  Ta93  1  -0.00242456  0.59036559  0.50575077  1
  Ta  Ta94  1  0.28469802  0.70348775  0.12616235  1
  Ta  Ta95  1  0.19514718  0.61159664  0.24634819  1
  Ta  Ta96  1  0.21267810  0.39910929  0.00769088  1
  Ta  Ta97  1  0.49569712  0.71227287  0.62931752  1
  Ta  Ta98  1  0.80063210  0.80286923  0.74200962  1
  Ta  Ta99  1  0.27975957  0.90241974  0.12882604  1
  Ta  Ta100  1  0.07624452  0.90226019  0.85394417  1
  Ta  Ta101  1  0.69377525  0.51312174  0.11973710  1
  Ta  Ta102  1  0.69550077  0.08237091  0.87194316  1
  Ta  Ta103  1  0.18792247  0.61323542  0.49998517  1
  Ta  Ta104  1  0.90075625  0.69274494  0.62959030  1
  Ta  Ta105  1  0.68868718  0.09885034  0.62367104  1
  Ta  Ta106  1  0.79576184  0.80221624  0.50160348  1
  Ta  Ta107  1  0.51739755  0.69835990  0.87924309  1
  Ta  Ta108  1  0.68668435  0.71046701  0.38606062  1
  Ta  Ta109  1  0.78835951  -0.00321179  0.74179468  1
  Ta  Ta110  1  0.11836968  0.07544133  0.37731404  1
  Ta  Ta111  1  0.21260100  0.80612113  0.49304016  1
  Ta  Ta112  1  0.79727819  -0.00451002  0.25633264  1
  Ta  Ta113  1  0.90225527  0.10788188  0.63126361  1
  Ta  Ta114  1  0.61251592  -0.00624391  0.00370149  1
  Ta  Ta115  1  0.79301850  0.60883856  0.75651571  1
  Ta  Ta116  1  0.31459527  0.29294521  0.12509814  1
  Ta  Ta117  1  0.59579975  0.40015164  -0.00362643  1
  Ta  Ta118  1  0.60047306  0.40887280  0.24241022  1
  Ta  Ta119  1  0.00074283  0.61687701  0.00509851  1
  Ti  Ti120  1  0.90500858  0.71213950  0.11579113  1
  Ti  Ti121  1  0.50368975  0.92073211  0.62516518  1
  Ti  Ti122  1  0.61348582  0.39049435  0.76123018  1
  Ti  Ti123  1  0.61224654  0.20612906  0.49121036  1
  Ti  Ti124  1  0.49749873  0.29982458  0.87266537  1
  Ti  Ti125  1  0.51719821  0.90560600  0.87653278  1
  Ti  Ti126  1  0.00380820  0.19206532  0.25120940  1
  Ti  Ti127  1  0.71736942  0.88884927  0.87655873  1
  Ti  Ti128  1  0.79469176  0.60809908  0.23946622  1
  Ti  Ti129  1  0.70411815  0.09825289  0.36970226  1
  Ti  Ti130  1  0.09313493  0.69711603  0.64562884  1
  Ti  Ti131  1  0.58517484  0.80505892  0.50291505  1
  Ti  Ti132  1  -0.00074288  0.17039780  -0.00376305  1
  Ti  Ti133  1  0.60479421  0.80702651  0.25167033  1
  Ti  Ti134  1  0.60604383  0.59699965  -0.00541746  1
  Ti  Ti135  1  0.69807660  0.90437044  0.38774088  1
  Ti  Ti136  1  0.51158085  0.49576613  0.87021371  1
  Ti  Ti137  1  0.39602653  -0.01229808  0.48402291  1
  Ti  Ti138  1  0.09204448  0.28784516  0.38327371  1
  Ti  Ti139  1  -0.01599893  0.38890620  0.49663931  1
  Ti  Ti140  1  0.17972464  0.38528551  0.75318659  1
  Ti  Ti141  1  0.90078403  0.90205963  0.13006275  1
  Ti  Ti142  1  0.38833241  0.01249195  0.26480448  1
  Ti  Ti143  1  0.39535441  0.20542554  -0.00002237  1
  Ti  Ti144  1  0.30119927  0.90573520  0.87402624  1
  Ti  Ti145  1  0.18830199  0.81277388  0.25226465  1
  Ti  Ti146  1  0.30432949  0.09948482  0.87995923  1
  Ti  Ti147  1  0.70871989  0.30136305  0.62871853  1
  Ti  Ti148  1  0.80591323  0.61006993  -0.00067181  1
  Ti  Ti149  1  0.51992709  0.29222978  0.61857308  1
  Ti  Ti150  1  0.79982296  0.60205831  0.50549027  1
  Ti  Ti151  1  0.10360283  0.69755985  0.37284825  1
  Ti  Ti152  1  0.40972770  0.39187197  0.00156980  1
  Ti  Ti153  1  0.50496933  0.49226317  0.12254920  1
  Ti  Ti154  1  0.00114339  0.42684045  0.00820607  1
  Ti  Ti155  1  0.59822734  -0.00620263  0.25977293  1
  Ti  Ti156  1  0.51538963  0.90201152  0.12735217  1
  Ti  Ti157  1  0.79360112  0.00368508  0.50243349  1
  Ti  Ti158  1  0.61123097  0.80712377  -0.00491059  1
  Ti  Ti159  1  -0.01398070  0.82204134  -0.00359368  1
  Mo  Mo160  1  0.68822291  0.29831333  0.87940191  1
  Mo  Mo161  1  0.09035633  0.49960092  0.88553010  1
  Mo  Mo162  1  0.20941311  0.20367547  0.74260545  1
  Mo  Mo163  1  0.51051967  0.09782523  0.61956725  1
  Mo  Mo164  1  0.80923469  0.19037300  0.25050035  1
  Mo  Mo165  1  0.89890975  0.51987785  0.11778512  1
  Mo  Mo166  1  0.00737791  0.41756991  0.75967668  1
  Mo  Mo167  1  0.09923166  0.88483671  0.37906857  1
  Mo  Mo168  1  -0.00973611  0.79765473  0.74374232  1
  Mo  Mo169  1  0.89674535  0.30097291  0.62720185  1
  Mo  Mo170  1  0.09970925  0.70997796  0.12355655  1
  Mo  Mo171  1  0.00758797  0.20112050  0.49435962  1
  Mo  Mo172  1  0.50925602  0.09225608  0.37168692  1
  Mo  Mo173  1  0.50251096  0.50172190  0.63292494  1
  Mo  Mo174  1  0.60550886  -0.00536960  0.75055774  1
  Mo  Mo175  1  0.80217452  0.39810287  0.75323136  1
  Mo  Mo176  1  0.20448516  -0.00834878  0.50030568  1
  Mo  Mo177  1  0.50992640  0.30952644  0.38613952  1
  Mo  Mo178  1  0.09027805  0.88498945  0.12439965  1
  Mo  Mo179  1  0.50628656  0.70417641  0.37483702  1
  Mo  Mo180  1  0.41767828  0.00082354  0.75554057  1
  Mo  Mo181  1  0.20385685  -0.01196787  0.25189837  1
  Mo  Mo182  1  0.80150293  0.80561321  0.00582842  1
  Mo  Mo183  1  0.39281686  0.60420066  0.24339169  1
  Mo  Mo184  1  0.39517475  0.20126157  0.27015837  1
  Mo  Mo185  1  0.19710754  0.79653084  0.76696886  1
  Mo  Mo186  1  0.59877403  0.60607274  0.75595171  1
  Mo  Mo187  1  0.30686271  0.09429194  0.38230088  1
  Mo  Mo188  1  0.28450746  0.90901543  0.37184913  1
  Mo  Mo189  1  0.00053417  -0.00679171  -0.00118032  1
  Mo  Mo190  1  0.59663822  0.39004341  0.50211450  1
  Mo  Mo191  1  0.69761094  0.70429085  0.88345090  1
  Mo  Mo192  1  0.49489119  0.30453334  0.11865678  1
  Mo  Mo193  1  0.40266307  0.80298962  0.50909772  1
  Mo  Mo194  1  0.69723759  0.90827939  0.13149611  1
  Mo  Mo195  1  -0.00676954  0.00576804  0.73494484  1
  Mo  Mo196  1  0.20628536  0.19611243  0.00207607  1
  Mo  Mo197  1  0.91445138  0.51822951  0.87158751  1
  Mo  Mo198  1  -0.01150660  0.60122337  0.75293465  1
  Mo  Mo199  1  0.89652536  0.90343854  0.85974349  1
