# generated using pymatgen
data_HfZrTaTiMo
_symmetry_space_group_name_H-M   'P 1'
_cell_length_a   15.20685519
_cell_length_b   15.21977933
_cell_length_c   16.84224989
_cell_angle_alpha   89.97366879
_cell_angle_beta   90.01633400
_cell_angle_gamma   90.06080147
_symmetry_Int_Tables_number   1
_chemical_formula_structural   HfZrTaTiMo
_chemical_formula_sum   'Hf40 Zr40 Ta40 Ti40 Mo40'
_cell_volume   3898.05142931
_cell_formula_units_Z   40
loop_
 _symmetry_equiv_pos_site_id
 _symmetry_equiv_pos_as_xyz
  1  'x, y, z'
loop_
 _atom_site_type_symbol
 _atom_site_label
 _atom_site_symmetry_multiplicity
 _atom_site_fract_x
 _atom_site_fract_y
 _atom_site_fract_z
 _atom_site_occupancy
  Hf  Hf0  1  0.30166743  0.48615885  0.12108447  1
  Hf  Hf1  1  0.30353871  0.32553601  0.88360903  1
  Hf  Hf2  1  0.70843605  0.09074845  0.87481067  1
  Hf  Hf3  1  0.47836587  0.69694017  0.37176861  1
  Hf  Hf4  1  0.59444142  0.58916516  -0.01726084  1
  Hf  Hf5  1  0.80225813  0.79254318  0.48940401  1
  Hf  Hf6  1  0.21289884  0.79659457  0.50576928  1
  Hf  Hf7  1  0.51132071  0.91158494  0.87721978  1
  Hf  Hf8  1  -0.01007839  0.40166006  0.48346504  1
  Hf  Hf9  1  0.29917948  0.90894041  0.36869287  1
  Hf  Hf10  1  0.59570112  0.80055120  0.25247556  1
  Hf  Hf11  1  0.39685181  0.00629148  0.50510699  1
  Hf  Hf12  1  0.11127491  0.09178185  0.36336535  1
  Hf  Hf13  1  0.00532383  0.80968968  0.24423489  1
  Hf  Hf14  1  0.60217652  -0.01021327  0.48865806  1
  Hf  Hf15  1  0.09496191  0.29763797  0.89157202  1
  Hf  Hf16  1  0.39022496  0.79340818  -0.01135935  1
  Hf  Hf17  1  -0.00846423  0.61031194  0.00063248  1
  Hf  Hf18  1  0.01395114  0.59535229  0.48755539  1
  Hf  Hf19  1  0.58791402  0.58995734  0.49321729  1
  Hf  Hf20  1  0.51092980  0.09757136  0.11946093  1
  Hf  Hf21  1  0.70023986  0.69446925  0.36796012  1
  Hf  Hf22  1  0.29196426  0.50593524  0.64264353  1
  Hf  Hf23  1  0.30450152  0.70143403  0.64381262  1
  Hf  Hf24  1  0.50191369  0.70168390  0.64223464  1
  Hf  Hf25  1  0.81679830  0.79166894  -0.00270012  1
  Hf  Hf26  1  -0.00028924  0.80226163  0.74340791  1
  Hf  Hf27  1  0.81009276  0.20637670  0.74061086  1
  Hf  Hf28  1  0.19771144  0.61407143  -0.00047817  1
  Hf  Hf29  1  0.50827262  0.90682883  0.63815929  1
  Hf  Hf30  1  0.39529026  0.58985643  -0.02120208  1
  Hf  Hf31  1  0.10329180  0.49876641  0.87584717  1
  Hf  Hf32  1  -0.01360932  0.19059961  0.25982443  1
  Hf  Hf33  1  -0.01400831  0.60233706  0.75364572  1
  Hf  Hf34  1  0.18683952  0.38044937  0.74240481  1
  Hf  Hf35  1  0.59774674  0.79685172  0.49302363  1
  Hf  Hf36  1  0.48714184  0.47909069  0.85147936  1
  Hf  Hf37  1  -0.00294970  -0.00413093  0.00776413  1
  Hf  Hf38  1  0.58648407  0.39943183  0.25900084  1
  Hf  Hf39  1  0.59683864  0.19292996  0.50698239  1
  Zr  Zr40  1  0.81165144  0.77857987  0.75365579  1
  Zr  Zr41  1  0.80631871  0.20019634  0.50444545  1
  Zr  Zr42  1  0.89678376  0.90207142  0.61575125  1
  Zr  Zr43  1  0.10407790  0.91703107  0.61662181  1
  Zr  Zr44  1  0.19059176  0.41672059  0.48981202  1
  Zr  Zr45  1  0.70078197  0.08231165  0.63336778  1
  Zr  Zr46  1  0.48754283  0.29239349  0.38999598  1
  Zr  Zr47  1  0.80300505  -0.00595619  0.48191260  1
  Zr  Zr48  1  0.00455777  0.60165654  0.25458713  1
  Zr  Zr49  1  0.68607840  0.69088157  0.13031851  1
  Zr  Zr50  1  0.39554953  0.41552382  0.49447374  1
  Zr  Zr51  1  0.40294157  0.21403160  0.00478698  1
  Zr  Zr52  1  0.89636011  0.29043910  0.12082445  1
  Zr  Zr53  1  0.49194423  0.31947232  0.12373823  1
  Zr  Zr54  1  0.29342609  0.10967626  0.87361345  1
  Zr  Zr55  1  0.82199347  -0.00092467  0.26907394  1
  Zr  Zr56  1  0.79984918  0.58174539  0.01202295  1
  Zr  Zr57  1  -0.00442696  0.01407058  0.74495158  1
  Zr  Zr58  1  0.60577193  0.79066435  -0.01168312  1
  Zr  Zr59  1  0.09816312  0.08990539  0.13930590  1
  Zr  Zr60  1  0.50108741  0.50717060  0.64228626  1
  Zr  Zr61  1  0.00236393  0.39682846  0.25761310  1
  Zr  Zr62  1  0.40984326  0.01559873  0.75439444  1
  Zr  Zr63  1  0.29254043  0.90361751  0.86707002  1
  Zr  Zr64  1  0.71981138  0.90121817  0.12697694  1
  Zr  Zr65  1  0.60281831  0.19781855  0.25490629  1
  Zr  Zr66  1  0.70120797  0.48629935  0.37093708  1
  Zr  Zr67  1  0.80340995  0.59196510  0.24286495  1
  Zr  Zr68  1  0.88270982  0.30436919  0.88630182  1
  Zr  Zr69  1  0.02437056  0.80086094  0.01867765  1
  Zr  Zr70  1  0.50048671  0.89760793  0.11736985  1
  Zr  Zr71  1  0.59554900  0.19766263  0.74860717  1
  Zr  Zr72  1  0.20073156  0.22104158  0.24800304  1
  Zr  Zr73  1  0.70270433  0.67613502  0.62562317  1
  Zr  Zr74  1  0.09833768  0.50146884  0.12349733  1
  Zr  Zr75  1  0.61542909  0.80057441  0.76908271  1
  Zr  Zr76  1  0.39889221  0.20812045  0.24116063  1
  Zr  Zr77  1  0.10089326  0.90915675  0.87165685  1
  Zr  Zr78  1  0.90578064  0.10422029  0.88076548  1
  Zr  Zr79  1  0.28831300  0.10910637  0.63517179  1
  Ta  Ta80  1  0.38212156  0.61636801  0.50329880  1
  Ta  Ta81  1  0.30358703  0.90510592  0.63934676  1
  Ta  Ta82  1  0.80735650  0.58247930  0.49096953  1
  Ta  Ta83  1  0.68348532  0.48256550  0.12745191  1
  Ta  Ta84  1  -0.01561631  0.39931831  0.75108772  1
  Ta  Ta85  1  0.50521659  0.11029744  0.88526511  1
  Ta  Ta86  1  0.61428579  0.20696500  -0.00581717  1
  Ta  Ta87  1  0.91948538  0.30215779  0.61925171  1
  Ta  Ta88  1  0.12227287  0.70048014  0.37535126  1
  Ta  Ta89  1  0.88376306  0.49230616  0.62225268  1
  Ta  Ta90  1  0.39786777  0.00355642  -0.00016444  1
  Ta  Ta91  1  0.20521875  0.21137112  0.48671648  1
  Ta  Ta92  1  0.70273405  0.47428394  0.87211884  1
  Ta  Ta93  1  0.01668446  0.21433665  0.74688819  1
  Ta  Ta94  1  0.90815854  0.68681254  0.61081019  1
  Ta  Ta95  1  0.10231359  0.70658103  0.86801196  1
  Ta  Ta96  1  0.89426017  0.89816359  0.87700540  1
  Ta  Ta97  1  0.61386498  0.39266329  0.74208253  1
  Ta  Ta98  1  0.49149017  0.30156050  0.61978098  1
  Ta  Ta99  1  0.30052431  0.09399765  0.12537889  1
  Ta  Ta100  1  0.49583877  0.09170487  0.37329715  1
  Ta  Ta101  1  0.10501721  0.69008007  0.62559105  1
  Ta  Ta102  1  0.60561646  0.39856069  0.50879077  1
  Ta  Ta103  1  0.10224607  0.89733155  0.37765879  1
  Ta  Ta104  1  0.10689578  0.10522301  0.87776497  1
  Ta  Ta105  1  0.79744128  0.39136792  0.24096119  1
  Ta  Ta106  1  0.19520081  0.80363793  0.74205025  1
  Ta  Ta107  1  -0.01323810  0.41007089  0.00635743  1
  Ta  Ta108  1  0.20846610  0.61130734  0.24364347  1
  Ta  Ta109  1  0.71023426  0.10037568  0.12195401  1
  Ta  Ta110  1  0.69315969  0.29191036  0.12587926  1
  Ta  Ta111  1  0.60745583  -0.00181407  0.25855452  1
  Ta  Ta112  1  0.69947848  0.88702156  0.62556168  1
  Ta  Ta113  1  0.88421213  0.30344309  0.37273164  1
  Ta  Ta114  1  0.31129074  0.11285989  0.37254641  1
  Ta  Ta115  1  0.20083241  0.19979682  0.01430870  1
  Ta  Ta116  1  0.38630254  0.41106274  0.26780114  1
  Ta  Ta117  1  0.49642499  0.51026904  0.12238931  1
  Ta  Ta118  1  0.38956203  0.79772346  0.24235401  1
  Ta  Ta119  1  0.08376606  0.49459975  0.63017042  1
  Ti  Ti120  1  0.01003286  0.20440433  0.48187669  1
  Ti  Ti121  1  0.39606482  0.22184641  0.75739074  1
  Ti  Ti122  1  0.28995698  0.69260343  0.85721059  1
  Ti  Ti123  1  0.19980121  -0.00678494  0.00636983  1
  Ti  Ti124  1  0.29262951  0.53470683  0.37660316  1
  Ti  Ti125  1  0.49179228  0.10746556  0.62589043  1
  Ti  Ti126  1  0.61373214  0.00062449  -0.00038062  1
  Ti  Ti127  1  0.29833337  0.70197967  0.12047197  1
  Ti  Ti128  1  0.89233319  0.08550085  0.12421878  1
  Ti  Ti129  1  0.89202303  0.50187011  0.87587129  1
  Ti  Ti130  1  0.89944418  0.70652496  0.13408258  1
  Ti  Ti131  1  0.71341265  0.31285677  0.62089495  1
  Ti  Ti132  1  0.20164162  0.00989356  0.49868931  1
  Ti  Ti133  1  0.58647141  0.39371272  -0.00838021  1
  Ti  Ti134  1  0.20085702  0.80612623  0.24421677  1
  Ti  Ti135  1  0.40429677  0.79991160  0.76532542  1
  Ti  Ti136  1  0.10700508  0.31004982  0.11399079  1
  Ti  Ti137  1  0.29488770  0.29830825  0.61978327  1
  Ti  Ti138  1  0.69777581  0.29569472  0.38231430  1
  Ti  Ti139  1  -0.00064218  0.19665861  0.00966244  1
  Ti  Ti140  1  0.79197803  -0.01863062  0.75236297  1
  Ti  Ti141  1  0.49433707  0.90005014  0.36829049  1
  Ti  Ti142  1  0.39523586  0.60090850  0.24758132  1
  Ti  Ti143  1  0.10010791  0.12509883  0.61973202  1
  Ti  Ti144  1  0.70038844  0.10160363  0.37461402  1
  Ti  Ti145  1  -0.00093267  0.00847372  0.48620281  1
  Ti  Ti146  1  0.00607683  0.80003631  0.49723734  1
  Ti  Ti147  1  0.78211619  0.38531978  0.00968610  1
  Ti  Ti148  1  0.40341505  -0.00113371  0.24370240  1
  Ti  Ti149  1  0.80875712  0.80458277  0.26144706  1
  Ti  Ti150  1  0.58443486  0.59248189  0.25478038  1
  Ti  Ti151  1  0.91016369  0.69916160  0.37580993  1
  Ti  Ti152  1  0.40358585  0.80848256  0.50573196  1
  Ti  Ti153  1  0.71663142  0.67991256  0.87284151  1
  Ti  Ti154  1  0.91117334  0.10464560  0.61742489  1
  Ti  Ti155  1  0.79127237  0.57531940  0.74847180  1
  Ti  Ti156  1  0.49061738  0.69522562  0.12402727  1
  Ti  Ti157  1  0.20017434  0.41286028  0.27004749  1
  Ti  Ti158  1  0.29486506  0.90013200  0.12292097  1
  Ti  Ti159  1  0.79425858  0.19681682  0.25529529  1
  Mo  Mo160  1  0.39636408  0.60356195  0.76506240  1
  Mo  Mo161  1  0.11392016  0.70362764  0.13248650  1
  Mo  Mo162  1  0.29480723  0.30598567  0.37942195  1
  Mo  Mo163  1  0.10500806  0.51124729  0.36399412  1
  Mo  Mo164  1  0.69715974  0.89405902  0.36447931  1
  Mo  Mo165  1  0.79571671  0.39560489  0.49968681  1
  Mo  Mo166  1  0.60928115  0.59483453  0.76992645  1
  Mo  Mo167  1  0.18482458  0.60061083  0.75131804  1
  Mo  Mo168  1  0.29767644  0.71590275  0.37017353  1
  Mo  Mo169  1  0.19177209  0.00729163  0.74396337  1
  Mo  Mo170  1  0.80401783  0.39556452  0.74769856  1
  Mo  Mo171  1  0.91657991  0.89113348  0.38485743  1
  Mo  Mo172  1  0.21055007  0.80157802  0.00024449  1
  Mo  Mo173  1  0.48840741  0.50496379  0.37694371  1
  Mo  Mo174  1  0.60808771  0.00101784  0.75440340  1
  Mo  Mo175  1  0.19695785  0.40178928  0.00010683  1
  Mo  Mo176  1  0.00782571  -0.00809940  0.25845831  1
  Mo  Mo177  1  0.39363751  0.19966771  0.50486784  1
  Mo  Mo178  1  0.28793494  0.50545157  0.85426416  1
  Mo  Mo179  1  0.19517872  0.20181993  0.75267351  1
  Mo  Mo180  1  0.79868584  0.19143346  0.00826333  1
  Mo  Mo181  1  0.20352060  0.60552518  0.50597030  1
  Mo  Mo182  1  0.39862560  0.38860025  0.73582228  1
  Mo  Mo183  1  0.90655644  0.69293714  0.87631202  1
  Mo  Mo184  1  0.90503482  0.10724595  0.38005257  1
  Mo  Mo185  1  0.11820605  0.90430962  0.13281120  1
  Mo  Mo186  1  0.80423570  -0.00524006  0.00345191  1
  Mo  Mo187  1  0.71337136  0.89944022  0.88601378  1
  Mo  Mo188  1  0.89474456  0.50005157  0.37264110  1
  Mo  Mo189  1  0.50029179  0.69386223  0.86008702  1
  Mo  Mo190  1  0.69758792  0.49405358  0.62374280  1
  Mo  Mo191  1  0.50790337  0.29772316  0.87306497  1
  Mo  Mo192  1  0.90665306  0.90232622  0.12974608  1
  Mo  Mo193  1  0.69232097  0.29517855  0.87596630  1
  Mo  Mo194  1  0.28809375  0.30892587  0.12109436  1
  Mo  Mo195  1  0.89055922  0.49116498  0.12029921  1
  Mo  Mo196  1  0.09985440  0.29884848  0.61408120  1
  Mo  Mo197  1  0.40269554  0.41301715  -0.00288739  1
  Mo  Mo198  1  0.21511208  -0.00420401  0.24930502  1
  Mo  Mo199  1  0.09706756  0.29952768  0.37492063  1
