# generated using pymatgen
data_HfZrTaTiMo
_symmetry_space_group_name_H-M   'P 1'
_cell_length_a   15.21390950
_cell_length_b   15.21694005
_cell_length_c   16.83720851
_cell_angle_alpha   89.96889187
_cell_angle_beta   89.98810459
_cell_angle_gamma   90.06633979
_symmetry_Int_Tables_number   1
_chemical_formula_structural   HfZrTaTiMo
_chemical_formula_sum   'Hf40 Zr40 Ta40 Ti40 Mo40'
_cell_volume   3897.96453824
_cell_formula_units_Z   40
loop_
 _symmetry_equiv_pos_site_id
 _symmetry_equiv_pos_as_xyz
  1  'x, y, z'
loop_
 _atom_site_type_symbol
 _atom_site_label
 _atom_site_symmetry_multiplicity
 _atom_site_fract_x
 _atom_site_fract_y
 _atom_site_fract_z
 _atom_site_occupancy
  Hf  Hf0  1  0.80900165  0.79202657  0.24725233  1
  Hf  Hf1  1  0.59549016  0.78630984  0.24817713  1
  Hf  Hf2  1  0.19509523  0.80041566  0.74688806  1
  Hf  Hf3  1  0.70093260  0.30741393  0.88703833  1
  Hf  Hf4  1  0.59438974  0.19417700  0.02266317  1
  Hf  Hf5  1  0.20317003  0.41448525  0.25249063  1
  Hf  Hf6  1  0.40177483  0.59859371  0.25246647  1
  Hf  Hf7  1  0.90855174  0.89662274  0.11334522  1
  Hf  Hf8  1  0.39513754  0.79498418  0.26798188  1
  Hf  Hf9  1  0.50714823  0.89977756  0.38425861  1
  Hf  Hf10  1  0.88643695  0.49839574  0.89054910  1
  Hf  Hf11  1  0.09983118  0.10672524  0.61813326  1
  Hf  Hf12  1  -0.00562184  0.81170690  0.73552769  1
  Hf  Hf13  1  0.49438459  0.68874055  0.62828384  1
  Hf  Hf14  1  0.80631730  0.59350712  0.74142566  1
  Hf  Hf15  1  0.60082302  0.78711717  -0.01424248  1
  Hf  Hf16  1  0.90851223  0.70033106  0.88704414  1
  Hf  Hf17  1  0.60935202  -0.00352514  0.75903534  1
  Hf  Hf18  1  0.20251903  0.81744567  0.27062724  1
  Hf  Hf19  1  0.70434395  0.09542283  0.36286606  1
  Hf  Hf20  1  0.59955744  0.38627696  0.74756375  1
  Hf  Hf21  1  0.80716985  0.19911676  0.48691516  1
  Hf  Hf22  1  0.19060672  0.41025609  0.49952438  1
  Hf  Hf23  1  0.29083214  0.90050433  0.61946300  1
  Hf  Hf24  1  0.61121731  0.58756305  0.50793390  1
  Hf  Hf25  1  0.90840114  0.68632857  0.10440380  1
  Hf  Hf26  1  0.80716330  -0.00639585  0.76231866  1
  Hf  Hf27  1  0.18640164  0.41612941  0.73423703  1
  Hf  Hf28  1  0.59633324  -0.00114671  0.23711439  1
  Hf  Hf29  1  0.30314948  0.49531781  0.87946324  1
  Hf  Hf30  1  0.00201976  0.81099318  0.25656845  1
  Hf  Hf31  1  0.89538517  0.50271074  0.38770554  1
  Hf  Hf32  1  0.01151921  0.60354600  0.74525845  1
  Hf  Hf33  1  0.40839551  0.00133674  0.74508817  1
  Hf  Hf34  1  0.69916034  0.90886755  0.61821575  1
  Hf  Hf35  1  0.60154647  0.79264217  0.75968221  1
  Hf  Hf36  1  0.18592183  0.39170940  0.01245695  1
  Hf  Hf37  1  0.79672733  0.79504247  0.74567920  1
  Hf  Hf38  1  0.78621985  0.39101623  0.49753830  1
  Hf  Hf39  1  0.30862433  0.71014036  0.12083976  1
  Zr  Zr40  1  0.38803514  -0.00438503  0.26128529  1
  Zr  Zr41  1  0.60597608  -0.01089620  0.00678316  1
  Zr  Zr42  1  0.39463914  0.00034082  0.48845992  1
  Zr  Zr43  1  0.70763605  0.89773993  0.37508085  1
  Zr  Zr44  1  0.28520216  0.10963549  0.37526729  1
  Zr  Zr45  1  0.09220145  0.51778298  0.37584877  1
  Zr  Zr46  1  0.49615429  0.48921060  0.62404283  1
  Zr  Zr47  1  0.30156984  0.91095260  0.87435421  1
  Zr  Zr48  1  0.49406793  0.89280617  0.61551708  1
  Zr  Zr49  1  0.17884566  0.79972376  0.50438852  1
  Zr  Zr50  1  0.60067825  0.79181664  0.50293804  1
  Zr  Zr51  1  0.30681691  0.50723975  0.12147020  1
  Zr  Zr52  1  0.48855397  0.88778131  0.12162632  1
  Zr  Zr53  1  0.69877834  0.10526496  0.88611236  1
  Zr  Zr54  1  0.39372109  0.38345661  0.49522609  1
  Zr  Zr55  1  0.49207951  0.29135779  0.88521508  1
  Zr  Zr56  1  0.27580326  0.91332893  0.12154979  1
  Zr  Zr57  1  0.38750927  0.38236360  0.74570519  1
  Zr  Zr58  1  0.90019254  0.09032698  0.62334624  1
  Zr  Zr59  1  0.07513747  0.50947830  0.13376934  1
  Zr  Zr60  1  0.10007704  0.71912220  0.12530199  1
  Zr  Zr61  1  0.89204990  0.29394380  0.62750862  1
  Zr  Zr62  1  0.79192928  0.40534107  0.02479754  1
  Zr  Zr63  1  0.10876900  0.11025555  0.86922681  1
  Zr  Zr64  1  0.91494670  0.49522133  0.60219653  1
  Zr  Zr65  1  0.08826723  0.50455263  0.88493230  1
  Zr  Zr66  1  0.30018494  0.30174081  0.13287799  1
  Zr  Zr67  1  0.30852809  0.11822841  0.86788988  1
  Zr  Zr68  1  0.19117178  0.81737760  -0.00984517  1
  Zr  Zr69  1  0.69562725  0.49336084  0.36427126  1
  Zr  Zr70  1  0.09841735  0.29347090  0.35869671  1
  Zr  Zr71  1  0.69984910  0.68552540  0.11771137  1
  Zr  Zr72  1  0.20141192  0.60523043  0.00133529  1
  Zr  Zr73  1  0.10197340  0.30363082  0.87134776  1
  Zr  Zr74  1  0.31941228  0.11750649  0.61923222  1
  Zr  Zr75  1  0.79066803  0.20392460  0.75247626  1
  Zr  Zr76  1  0.40087434  0.02042473  0.00652026  1
  Zr  Zr77  1  0.70735101  0.68728632  0.37022079  1
  Zr  Zr78  1  0.01645696  -0.00037863  -0.00437381  1
  Zr  Zr79  1  0.20589516  0.21729029  0.50402144  1
  Ta  Ta80  1  0.70502654  0.48980324  0.62584555  1
  Ta  Ta81  1  0.00475040  0.21342829  0.00940703  1
  Ta  Ta82  1  0.90524732  0.11110704  0.88421274  1
  Ta  Ta83  1  0.30521940  0.51344670  0.38302936  1
  Ta  Ta84  1  0.90512586  0.69586089  0.38890284  1
  Ta  Ta85  1  0.49082686  0.27586756  0.61904073  1
  Ta  Ta86  1  0.09539557  0.90518486  0.86455109  1
  Ta  Ta87  1  0.17167780  0.01497027  0.25824565  1
  Ta  Ta88  1  0.00373730  0.17880250  0.24993490  1
  Ta  Ta89  1  0.50039991  0.68747749  0.11620571  1
  Ta  Ta90  1  0.59755451  0.37998910  0.50104495  1
  Ta  Ta91  1  0.59684627  0.39958888  0.01763441  1
  Ta  Ta92  1  0.21293618  0.21821895  0.73411703  1
  Ta  Ta93  1  0.30134709  0.51110803  0.61466769  1
  Ta  Ta94  1  0.60675858  0.58760724  0.75606217  1
  Ta  Ta95  1  0.81633676  0.58258296  0.24042071  1
  Ta  Ta96  1  0.51172058  0.29800853  0.36166563  1
  Ta  Ta97  1  0.38179351  0.78147501  0.48395261  1
  Ta  Ta98  1  0.09268933  0.92444075  0.39116009  1
  Ta  Ta99  1  0.29842870  0.69394621  0.62475341  1
  Ta  Ta100  1  0.60563348  0.40090696  0.23105764  1
  Ta  Ta101  1  0.50332981  0.49047974  0.37485491  1
  Ta  Ta102  1  0.09328207  0.29457484  0.14350143  1
  Ta  Ta103  1  0.71520027  0.09468867  0.13135443  1
  Ta  Ta104  1  0.90387408  0.89660006  0.38958114  1
  Ta  Ta105  1  0.51848675  0.09171138  0.60970614  1
  Ta  Ta106  1  0.10736267  0.09739150  0.12220782  1
  Ta  Ta107  1  0.49462255  0.30011034  0.13071164  1
  Ta  Ta108  1  0.90736622  0.10146444  0.12103271  1
  Ta  Ta109  1  0.70246881  0.29658116  0.35368023  1
  Ta  Ta110  1  0.29844122  0.11016040  0.13762757  1
  Ta  Ta111  1  0.30360216  0.69814234  0.87324711  1
  Ta  Ta112  1  -0.01340926  0.40384681  0.74871947  1
  Ta  Ta113  1  0.49772387  0.67953369  0.38231500  1
  Ta  Ta114  1  0.80093349  0.79005886  0.51112584  1
  Ta  Ta115  1  0.80364121  0.00164327  -0.00272782  1
  Ta  Ta116  1  0.19547644  0.00618802  0.73974301  1
  Ta  Ta117  1  0.39834773  0.79103033  0.75513992  1
  Ta  Ta118  1  0.90358238  0.30215764  0.88315473  1
  Ta  Ta119  1  0.90924327  0.69630099  0.61204415  1
  Ti  Ti120  1  -0.02425449  0.40647911  0.25574977  1
  Ti  Ti121  1  0.70033522  0.10871402  0.61944816  1
  Ti  Ti122  1  0.10534119  0.53170532  0.60720985  1
  Ti  Ti123  1  0.60619479  0.57823906  -0.01428049  1
  Ti  Ti124  1  0.50655466  0.10678413  0.37940572  1
  Ti  Ti125  1  0.50125850  0.89912653  0.87705900  1
  Ti  Ti126  1  0.40071404  0.59170392  0.75645630  1
  Ti  Ti127  1  0.70839021  0.89538512  0.12544515  1
  Ti  Ti128  1  0.90182708  0.90045014  0.88386507  1
  Ti  Ti129  1  0.81137118  0.20025486  0.24870745  1
  Ti  Ti130  1  0.79403818  0.80462711  -0.00852301  1
  Ti  Ti131  1  0.60246331  0.19750270  0.23544237  1
  Ti  Ti132  1  0.49873360  0.68479815  0.86981841  1
  Ti  Ti133  1  0.82087928  -0.00288377  0.24864878  1
  Ti  Ti134  1  0.19608388  0.61697410  0.25451826  1
  Ti  Ti135  1  0.91802099  0.09284704  0.37869066  1
  Ti  Ti136  1  -0.00887560  0.36920470  0.48257768  1
  Ti  Ti137  1  -0.00008580  0.20690580  0.75301820  1
  Ti  Ti138  1  0.20744800  0.60735233  0.75059615  1
  Ti  Ti139  1  0.09973452  0.70573464  0.87898493  1
  Ti  Ti140  1  0.00060378  0.00415224  0.75253151  1
  Ti  Ti141  1  0.20644723  0.19263439  0.00728822  1
  Ti  Ti142  1  0.09101054  0.70820063  0.37850166  1
  Ti  Ti143  1  0.50646387  0.50529823  0.12587356  1
  Ti  Ti144  1  0.29571814  0.29942272  0.88369601  1
  Ti  Ti145  1  0.40286926  0.79392933  -0.01231690  1
  Ti  Ti146  1  0.41392952  0.59672707  -0.00864091  1
  Ti  Ti147  1  0.60803485  0.19857785  0.49295978  1
  Ti  Ti148  1  0.49959107  0.10104209  0.87668456  1
  Ti  Ti149  1  0.40744114  0.40125053  0.00089198  1
  Ti  Ti150  1  0.30755302  0.30372773  0.36084925  1
  Ti  Ti151  1  0.40798149  0.40394979  0.25377320  1
  Ti  Ti152  1  0.59031923  0.19209777  0.74522143  1
  Ti  Ti153  1  0.90402043  0.30278090  0.13421755  1
  Ti  Ti154  1  0.08651994  0.31050455  0.62326754  1
  Ti  Ti155  1  0.80464393  0.20244421  0.01341094  1
  Ti  Ti156  1  0.71086888  0.68123819  0.87924973  1
  Ti  Ti157  1  0.40792064  0.19742821  0.25303147  1
  Ti  Ti158  1  0.80150394  -0.00258889  0.49768843  1
  Ti  Ti159  1  0.79525243  0.39957915  0.75141218  1
  Mo  Mo160  1  0.28804246  0.69334715  0.37692000  1
  Mo  Mo161  1  -0.00088546  0.20020011  0.49431927  1
  Mo  Mo162  1  0.09762100  0.91062555  0.13022962  1
  Mo  Mo163  1  0.89588729  0.90030618  0.61473802  1
  Mo  Mo164  1  -0.00006836  0.80348569  -0.01100518  1
  Mo  Mo165  1  0.70284627  0.68763266  0.63118219  1
  Mo  Mo166  1  0.79972985  0.59955126  0.51205095  1
  Mo  Mo167  1  0.80166459  0.39301047  0.23837357  1
  Mo  Mo168  1  0.70876096  0.89051666  0.87980895  1
  Mo  Mo169  1  0.40450654  0.59596813  0.49607978  1
  Mo  Mo170  1  0.68447761  0.29060779  0.62209768  1
  Mo  Mo171  1  0.09139372  0.10487057  0.38825667  1
  Mo  Mo172  1  0.59238381  0.59430440  0.24775162  1
  Mo  Mo173  1  -0.00753142  0.61265758  0.25866173  1
  Mo  Mo174  1  -0.00546917  0.38981330  0.01202236  1
  Mo  Mo175  1  0.29538803  0.31034793  0.62285645  1
  Mo  Mo176  1  -0.00789771  0.81076175  0.50953322  1
  Mo  Mo177  1  0.01161411  0.62356295  0.50117601  1
  Mo  Mo178  1  0.20230153  0.01563294  -0.00060743  1
  Mo  Mo179  1  0.61114635  0.01218741  0.49470112  1
  Mo  Mo180  1  0.19475320  0.00419811  0.50581365  1
  Mo  Mo181  1  0.21085313  0.61190495  0.49557072  1
  Mo  Mo182  1  0.41945408  0.20677792  0.48267322  1
  Mo  Mo183  1  0.10716169  0.70448398  0.62929569  1
  Mo  Mo184  1  0.00152794  0.59710414  -0.00519557  1
  Mo  Mo185  1  0.70346380  0.28932667  0.13860869  1
  Mo  Mo186  1  0.41105688  0.19621289  0.74636752  1
  Mo  Mo187  1  0.89782054  0.49987311  0.12147071  1
  Mo  Mo188  1  0.89399178  0.29204527  0.35944622  1
  Mo  Mo189  1  0.69293816  0.49466116  0.87130935  1
  Mo  Mo190  1  -0.00458919  0.00116540  0.50694137  1
  Mo  Mo191  1  0.49395393  0.10603877  0.13700753  1
  Mo  Mo192  1  0.78882057  0.60174818  -0.00198486  1
  Mo  Mo193  1  0.69332502  0.50330256  0.13223429  1
  Mo  Mo194  1  0.28895934  0.90339738  0.38672334  1
  Mo  Mo195  1  -0.00940309  -0.00001924  0.25039179  1
  Mo  Mo196  1  0.50195209  0.49657544  0.87563793  1
  Mo  Mo197  1  0.39712739  0.21192780  0.01251454  1
  Mo  Mo198  1  0.09112842  0.91618689  0.62778519  1
  Mo  Mo199  1  0.20049729  0.20190013  0.24876682  1
