# generated using pymatgen
data_HfZrTaTiMo
_symmetry_space_group_name_H-M   'P 1'
_cell_length_a   15.21486787
_cell_length_b   15.21868223
_cell_length_c   16.83199696
_cell_angle_alpha   89.99028981
_cell_angle_beta   89.97358708
_cell_angle_gamma   89.99849265
_symmetry_Int_Tables_number   1
_chemical_formula_structural   HfZrTaTiMo
_chemical_formula_sum   'Hf40 Zr40 Ta40 Ti40 Mo40'
_cell_volume   3897.45245287
_cell_formula_units_Z   40
loop_
 _symmetry_equiv_pos_site_id
 _symmetry_equiv_pos_as_xyz
  1  'x, y, z'
loop_
 _atom_site_type_symbol
 _atom_site_label
 _atom_site_symmetry_multiplicity
 _atom_site_fract_x
 _atom_site_fract_y
 _atom_site_fract_z
 _atom_site_occupancy
  Hf  Hf0  1  0.00015027  0.39137863  0.00354053  1
  Hf  Hf1  1  0.60147928  0.79721864  0.74836372  1
  Hf  Hf2  1  0.09573700  0.30093520  0.37384656  1
  Hf  Hf3  1  0.79450567  -0.01380377  0.49668082  1
  Hf  Hf4  1  0.51004246  0.10775821  0.87376932  1
  Hf  Hf5  1  0.21548631  0.38873266  0.24727842  1
  Hf  Hf6  1  0.90303966  0.91060385  0.87573860  1
  Hf  Hf7  1  0.69291448  0.46957334  0.88678245  1
  Hf  Hf8  1  0.79449542  0.57929042  0.76472674  1
  Hf  Hf9  1  0.10105278  0.31138555  0.86759896  1
  Hf  Hf10  1  -0.01091288  0.20542419  0.75710276  1
  Hf  Hf11  1  0.31436590  0.90159874  0.85909037  1
  Hf  Hf12  1  0.32308413  0.10191377  0.61738183  1
  Hf  Hf13  1  0.09129481  0.10569456  0.62844984  1
  Hf  Hf14  1  0.69535699  0.09036559  0.36404745  1
  Hf  Hf15  1  0.91570879  0.90036491  0.11947390  1
  Hf  Hf16  1  0.20229357  -0.01192303  0.50382371  1
  Hf  Hf17  1  0.80589787  0.78992350  0.76533214  1
  Hf  Hf18  1  -0.00791637  0.00784055  0.50310529  1
  Hf  Hf19  1  0.21128298  0.61450974  0.25204449  1
  Hf  Hf20  1  0.31025114  0.49388235  0.36763950  1
  Hf  Hf21  1  0.69072177  0.49033820  0.10600289  1
  Hf  Hf22  1  0.09002983  0.49817328  0.35449454  1
  Hf  Hf23  1  0.09534813  0.50139591  0.13877685  1
  Hf  Hf24  1  0.90192042  0.29447919  0.61643978  1
  Hf  Hf25  1  0.50148703  0.91008988  0.86485194  1
  Hf  Hf26  1  0.89373949  0.11605350  0.88549048  1
  Hf  Hf27  1  -0.00456388  0.62350038  0.77821756  1
  Hf  Hf28  1  0.49820642  0.30262371  0.61719569  1
  Hf  Hf29  1  0.12005580  0.91855265  0.11132860  1
  Hf  Hf30  1  0.59162213  0.01692726  0.01991654  1
  Hf  Hf31  1  0.58881186  0.19813496  0.24048108  1
  Hf  Hf32  1  0.09915816  0.71742666  0.12450628  1
  Hf  Hf33  1  0.39433508  0.60749434  -0.01835082  1
  Hf  Hf34  1  0.78637865  0.59583207  0.23540722  1
  Hf  Hf35  1  0.20453914  0.81635848  0.25872960  1
  Hf  Hf36  1  0.11231735  0.31401819  0.63439984  1
  Hf  Hf37  1  0.20545809  0.40832383  0.49680780  1
  Hf  Hf38  1  0.90341524  0.90321689  0.64358975  1
  Hf  Hf39  1  0.19786341  0.20122383  0.50192310  1
  Zr  Zr40  1  0.69831968  0.67990094  0.63004967  1
  Zr  Zr41  1  0.79954050  0.19094274  0.49263875  1
  Zr  Zr42  1  0.81077496  0.78373112  0.49304149  1
  Zr  Zr43  1  0.30715001  0.50449828  0.12685498  1
  Zr  Zr44  1  0.71348324  0.89681917  0.12767311  1
  Zr  Zr45  1  0.19566654  0.77756449  0.76513918  1
  Zr  Zr46  1  0.18093827  0.60232795  0.49215650  1
  Zr  Zr47  1  0.51352162  0.69126074  0.38935056  1
  Zr  Zr48  1  0.39094731  0.59538715  0.50025425  1
  Zr  Zr49  1  0.51241856  0.91297326  0.37929127  1
  Zr  Zr50  1  0.10119793  0.91626111  0.86653972  1
  Zr  Zr51  1  0.59020425  0.79797968  -0.00139925  1
  Zr  Zr52  1  0.00161647  0.42492616  0.74187079  1
  Zr  Zr53  1  0.89320335  0.50612650  0.36397707  1
  Zr  Zr54  1  0.69820763  0.91419704  0.87926592  1
  Zr  Zr55  1  0.47831435  0.88781747  0.12559258  1
  Zr  Zr56  1  0.49933353  0.91637841  0.63074647  1
  Zr  Zr57  1  0.07443780  0.71011375  0.35972330  1
  Zr  Zr58  1  0.61185768  0.80624892  0.50731363  1
  Zr  Zr59  1  0.59868875  0.39263643  0.24254453  1
  Zr  Zr60  1  -0.02332739  0.60062432  0.49952352  1
  Zr  Zr61  1  0.89860661  0.30088649  0.38353370  1
  Zr  Zr62  1  0.20755035  0.02463305  0.75420425  1
  Zr  Zr63  1  0.80055972  0.19751647  0.25250849  1
  Zr  Zr64  1  0.49896654  0.50195770  0.62763803  1
  Zr  Zr65  1  0.01133074  0.80697304  0.50500728  1
  Zr  Zr66  1  0.19532300  0.60493765  -0.00856144  1
  Zr  Zr67  1  -0.00681420  0.59870013  -0.00319405  1
  Zr  Zr68  1  0.38781614  0.20655913  0.24423237  1
  Zr  Zr69  1  0.20342488  0.01257723  0.26022934  1
  Zr  Zr70  1  0.39464486  0.79173803  0.27169823  1
  Zr  Zr71  1  0.39694425  0.00480433  0.25126839  1
  Zr  Zr72  1  0.60456903  0.78461009  0.24476553  1
  Zr  Zr73  1  0.10261942  0.28957714  0.13096146  1
  Zr  Zr74  1  0.29024117  0.69408475  0.62472837  1
  Zr  Zr75  1  0.40274106  0.40154381  -0.00836511  1
  Zr  Zr76  1  0.38737392  0.60113980  0.76076018  1
  Zr  Zr77  1  0.30358056  0.89405827  0.63882733  1
  Zr  Zr78  1  0.90287780  0.10311864  0.11949066  1
  Zr  Zr79  1  0.90275593  0.69274048  0.63533682  1
  Ta  Ta80  1  0.90836377  0.89407013  0.35948644  1
  Ta  Ta81  1  0.58611982  0.58920094  -0.01814904  1
  Ta  Ta82  1  0.19886021  0.39763864  0.00138993  1
  Ta  Ta83  1  0.28434842  0.48803658  0.63582600  1
  Ta  Ta84  1  0.09657115  0.89851729  0.64715975  1
  Ta  Ta85  1  0.69511160  0.69052653  0.10643914  1
  Ta  Ta86  1  0.00786155  0.80281641  -0.01294159  1
  Ta  Ta87  1  0.40299250  0.18673712  0.00120380  1
  Ta  Ta88  1  0.31118928  0.30182462  0.62308565  1
  Ta  Ta89  1  0.50181147  0.30450310  0.38587079  1
  Ta  Ta90  1  0.40020376  0.38987970  0.76060495  1
  Ta  Ta91  1  0.09633355  0.91262317  0.37322822  1
  Ta  Ta92  1  0.69605043  0.48874357  0.37424143  1
  Ta  Ta93  1  0.69400729  0.69419472  0.88368442  1
  Ta  Ta94  1  0.71275397  0.89110912  0.35588565  1
  Ta  Ta95  1  0.49521001  0.10935571  0.38436140  1
  Ta  Ta96  1  0.00283709  0.40992627  0.51208101  1
  Ta  Ta97  1  0.41139232  0.59780365  0.25323382  1
  Ta  Ta98  1  0.18125399  0.57914938  0.76435732  1
  Ta  Ta99  1  0.79921970  0.38215883  0.74830915  1
  Ta  Ta100  1  0.59316923  0.59206151  0.76738190  1
  Ta  Ta101  1  0.81578428  0.78647563  0.24403744  1
  Ta  Ta102  1  0.19344099  0.19037781  -0.01370234  1
  Ta  Ta103  1  0.60188239  0.00357147  0.23404960  1
  Ta  Ta104  1  0.79573915  0.41307255  0.51211564  1
  Ta  Ta105  1  0.70419124  0.28561164  0.10916598  1
  Ta  Ta106  1  0.50597983  0.49154615  0.38105811  1
  Ta  Ta107  1  0.39228141  0.80996006  0.49215865  1
  Ta  Ta108  1  0.52043150  0.11496898  0.62272048  1
  Ta  Ta109  1  0.79197784  0.39224799  0.24120679  1
  Ta  Ta110  1  0.51619838  0.30375558  0.88218868  1
  Ta  Ta111  1  0.79583484  0.59456140  -0.00773974  1
  Ta  Ta112  1  0.49655428  0.68212076  0.11964784  1
  Ta  Ta113  1  0.08942341  0.10774798  0.38197572  1
  Ta  Ta114  1  0.69515650  0.28615082  0.62533395  1
  Ta  Ta115  1  0.30897948  0.71996248  0.11878696  1
  Ta  Ta116  1  0.59662405  0.58994552  0.24687686  1
  Ta  Ta117  1  0.60504926  0.39146984  0.74992563  1
  Ta  Ta118  1  0.28872852  0.09155547  0.11226851  1
  Ta  Ta119  1  0.49300839  0.70602359  0.62587171  1
  Ti  Ti120  1  0.30903382  0.28844203  0.88031778  1
  Ti  Ti121  1  0.19872727  0.19542596  0.25937682  1
  Ti  Ti122  1  0.41161835  0.39633844  0.24454621  1
  Ti  Ti123  1  0.90499441  0.09209842  0.36574241  1
  Ti  Ti124  1  0.00373989  0.00619724  0.24761381  1
  Ti  Ti125  1  -0.01990502  0.62124961  0.23637906  1
  Ti  Ti126  1  0.71015757  0.68554717  0.37463787  1
  Ti  Ti127  1  0.31464847  0.29351694  0.38713930  1
  Ti  Ti128  1  0.89330553  0.49485492  0.12421159  1
  Ti  Ti129  1  0.89309055  0.70444810  0.10884366  1
  Ti  Ti130  1  0.40977161  0.19543047  0.75420242  1
  Ti  Ti131  1  0.50082369  0.29581051  0.10717221  1
  Ti  Ti132  1  0.60520488  0.00877290  0.50431710  1
  Ti  Ti133  1  0.88858572  0.10012731  0.63069728  1
  Ti  Ti134  1  0.21507134  0.81081555  -0.01233280  1
  Ti  Ti135  1  0.70479393  0.27285549  0.89004457  1
  Ti  Ti136  1  0.48788025  0.71176578  0.86795262  1
  Ti  Ti137  1  0.02021248  0.02281721  -0.00815988  1
  Ti  Ti138  1  0.60839338  0.39835209  0.50316185  1
  Ti  Ti139  1  0.90072883  0.48491547  0.88077275  1
  Ti  Ti140  1  0.49976354  0.49732509  0.11781667  1
  Ti  Ti141  1  0.20291719  0.79565040  0.48653525  1
  Ti  Ti142  1  0.60816053  0.20292693  0.49084374  1
  Ti  Ti143  1  0.90235820  0.29084035  0.12272915  1
  Ti  Ti144  1  0.70568213  0.90717482  0.63501786  1
  Ti  Ti145  1  0.09838847  0.10930281  0.12383429  1
  Ti  Ti146  1  0.77988019  0.19516668  0.75077918  1
  Ti  Ti147  1  0.80676478  0.38639748  0.00144136  1
  Ti  Ti148  1  0.09566397  0.69994891  0.63203642  1
  Ti  Ti149  1  0.21552567  0.21102310  0.75628603  1
  Ti  Ti150  1  0.79953919  0.01156255  0.75546352  1
  Ti  Ti151  1  -0.01365998  0.38596729  0.24212757  1
  Ti  Ti152  1  0.29897012  0.29038240  0.11194252  1
  Ti  Ti153  1  0.30596274  0.09804311  0.39260351  1
  Ti  Ti154  1  0.79250282  0.01247901  0.00285877  1
  Ti  Ti155  1  0.38658524  -0.00750472  0.00136895  1
  Ti  Ti156  1  0.28622206  0.48444065  0.87052034  1
  Ti  Ti157  1  0.61420696  0.58803998  0.50568552  1
  Ti  Ti158  1  0.80285313  0.79864859  -0.00738985  1
  Ti  Ti159  1  0.61211794  0.02579235  0.74488407  1
  Mo  Mo160  1  0.00110294  0.80816425  0.76360264  1
  Mo  Mo161  1  0.48659146  0.10268340  0.12202710  1
  Mo  Mo162  1  0.69261252  0.30795133  0.37737400  1
  Mo  Mo163  1  0.00178685  0.81405942  0.23807833  1
  Mo  Mo164  1  0.31044897  0.10568626  0.87772052  1
  Mo  Mo165  1  0.69616145  0.48326580  0.63505535  1
  Mo  Mo166  1  0.59860186  0.39135864  0.00117088  1
  Mo  Mo167  1  0.29420863  0.89904722  0.11883721  1
  Mo  Mo168  1  0.30021716  0.70115974  0.38052213  1
  Mo  Mo169  1  0.78626486  0.58858539  0.49840162  1
  Mo  Mo170  1  0.49707085  0.49309728  0.86455463  1
  Mo  Mo171  1  0.21279565  0.39702031  0.75301526  1
  Mo  Mo172  1  0.09839235  0.49607228  0.88439757  1
  Mo  Mo173  1  0.40087218  0.39992373  0.49951279  1
  Mo  Mo174  1  0.88929998  0.49869844  0.63006740  1
  Mo  Mo175  1  0.09970530  0.70628860  0.88957629  1
  Mo  Mo176  1  0.80182883  0.19859938  0.00602271  1
  Mo  Mo177  1  0.70007527  0.09977903  0.87905501  1
  Mo  Mo178  1  0.29949341  0.90633241  0.38978650  1
  Mo  Mo179  1  0.09461848  0.51526988  0.62719976  1
  Mo  Mo180  1  0.39626647  0.79912219  -0.00569544  1
  Mo  Mo181  1  0.20924167  0.00940641  -0.01586285  1
  Mo  Mo182  1  0.59943999  0.19812197  0.01112715  1
  Mo  Mo183  1  0.88637201  0.30968827  0.87445996  1
  Mo  Mo184  1  0.00739496  0.19281660  0.25342945  1
  Mo  Mo185  1  0.70196106  0.09443532  0.62294307  1
  Mo  Mo186  1  0.00174065  0.20315787  0.50491142  1
  Mo  Mo187  1  0.29858786  0.70145011  0.87491152  1
  Mo  Mo188  1  0.40739284  0.79710401  0.74348998  1
  Mo  Mo189  1  -0.00785778  0.01223496  0.74835254  1
  Mo  Mo190  1  0.10225531  0.11460643  0.86828814  1
  Mo  Mo191  1  0.60529994  0.21117197  0.75108582  1
  Mo  Mo192  1  0.88765979  0.70426551  0.36454888  1
  Mo  Mo193  1  0.70201457  0.09704407  0.13592244  1
  Mo  Mo194  1  0.40768502  0.20192089  0.49781687  1
  Mo  Mo195  1  0.80749554  -0.01013060  0.25344546  1
  Mo  Mo196  1  0.00396938  0.20547299  -0.00725647  1
  Mo  Mo197  1  0.88893585  0.70359363  0.89213036  1
  Mo  Mo198  1  0.41074619  0.00428141  0.49646495  1
  Mo  Mo199  1  0.41497980  0.01409839  0.74755698  1
