# generated using pymatgen
data_HfZrTaTiMo
_symmetry_space_group_name_H-M   'P 1'
_cell_length_a   15.22201663
_cell_length_b   15.20422796
_cell_length_c   16.84320372
_cell_angle_alpha   89.99036723
_cell_angle_beta   90.00984035
_cell_angle_gamma   89.90469073
_symmetry_Int_Tables_number   1
_chemical_formula_structural   HfZrTaTiMo
_chemical_formula_sum   'Hf40 Zr40 Ta40 Ti40 Mo40'
_cell_volume   3898.16890285
_cell_formula_units_Z   40
loop_
 _symmetry_equiv_pos_site_id
 _symmetry_equiv_pos_as_xyz
  1  'x, y, z'
loop_
 _atom_site_type_symbol
 _atom_site_label
 _atom_site_symmetry_multiplicity
 _atom_site_fract_x
 _atom_site_fract_y
 _atom_site_fract_z
 _atom_site_occupancy
  Hf  Hf0  1  0.70305498  0.89649785  0.12838730  1
  Hf  Hf1  1  0.09242851  0.70825113  0.12018763  1
  Hf  Hf2  1  0.21257717  0.21108367  0.72952937  1
  Hf  Hf3  1  0.89708289  0.90611540  0.86937046  1
  Hf  Hf4  1  0.91625174  0.11307811  0.13103878  1
  Hf  Hf5  1  0.81497203  -0.00664126  0.24987095  1
  Hf  Hf6  1  0.39279475  0.60262975  0.52116387  1
  Hf  Hf7  1  0.18930577  0.59947742  0.49560692  1
  Hf  Hf8  1  0.88555873  0.29490329  0.36477520  1
  Hf  Hf9  1  0.29967833  0.28063538  0.87411094  1
  Hf  Hf10  1  0.51238540  0.92234278  0.86295891  1
  Hf  Hf11  1  0.39174932  0.39037857  0.74319664  1
  Hf  Hf12  1  0.59592243  0.37815020  -0.01093926  1
  Hf  Hf13  1  0.10021545  0.90539314  0.85779004  1
  Hf  Hf14  1  0.30500442  0.70482508  0.12259900  1
  Hf  Hf15  1  0.38994127  0.80633103  0.51365694  1
  Hf  Hf16  1  0.62577291  0.80508973  0.74317659  1
  Hf  Hf17  1  0.00691875  0.57945674  -0.00255846  1
  Hf  Hf18  1  0.41438672  0.80937820  0.74107162  1
  Hf  Hf19  1  0.29824243  0.30646062  0.38039405  1
  Hf  Hf20  1  0.80921054  0.00630800  0.00029716  1
  Hf  Hf21  1  0.29321629  0.71027718  0.37137689  1
  Hf  Hf22  1  0.88892151  0.70122665  0.38290033  1
  Hf  Hf23  1  0.59660624  0.39499779  0.24892672  1
  Hf  Hf24  1  0.09661609  0.29228213  0.36357408  1
  Hf  Hf25  1  0.18048940  0.81369351  0.25364840  1
  Hf  Hf26  1  0.08403599  0.29594672  0.13636099  1
  Hf  Hf27  1  0.92349881  0.89285556  0.12006018  1
  Hf  Hf28  1  0.31279841  0.50677635  0.37272148  1
  Hf  Hf29  1  0.69748415  0.08987551  0.60582670  1
  Hf  Hf30  1  0.60469731  0.39911674  0.75030403  1
  Hf  Hf31  1  0.71077678  0.48752279  0.38758650  1
  Hf  Hf32  1  0.21049927  0.19399804  0.00982545  1
  Hf  Hf33  1  0.07225251  0.48760966  0.63944017  1
  Hf  Hf34  1  0.00078236  0.19086756  0.50808873  1
  Hf  Hf35  1  0.39928066  0.60072706  0.73723047  1
  Hf  Hf36  1  0.70675435  0.10529756  0.12736381  1
  Hf  Hf37  1  0.69212985  0.68255219  0.39259388  1
  Hf  Hf38  1  0.29822937  0.50599004  0.11998484  1
  Hf  Hf39  1  0.20144781  -0.00206293  -0.01576150  1
  Zr  Zr40  1  0.50386095  0.10089015  0.39715254  1
  Zr  Zr41  1  0.60529136  0.20230526  0.25708940  1
  Zr  Zr42  1  0.50895523  0.69822328  0.87554687  1
  Zr  Zr43  1  0.49634695  0.30730997  0.39439262  1
  Zr  Zr44  1  0.90136714  0.69020407  0.87602419  1
  Zr  Zr45  1  0.59276899  0.00842847  0.00696919  1
  Zr  Zr46  1  0.81017385  0.20032774  0.73787783  1
  Zr  Zr47  1  0.77738897  -0.00411281  0.75135424  1
  Zr  Zr48  1  0.10587935  0.68554623  0.63749546  1
  Zr  Zr49  1  0.49304302  0.89587714  0.13070452  1
  Zr  Zr50  1  0.28351245  0.49612543  0.86708688  1
  Zr  Zr51  1  0.17451491  0.39939714  -0.00104347  1
  Zr  Zr52  1  0.72343983  0.89179728  0.38687729  1
  Zr  Zr53  1  0.39673921  0.81351902  -0.00737133  1
  Zr  Zr54  1  0.30166697  0.10612282  0.38381732  1
  Zr  Zr55  1  0.21311626  0.79442490  0.74728276  1
  Zr  Zr56  1  0.19425948  0.60217422  0.25314769  1
  Zr  Zr57  1  0.19607322  0.00795209  0.51124652  1
  Zr  Zr58  1  0.68530285  0.10533648  0.87792928  1
  Zr  Zr59  1  0.90227645  0.67745894  0.62413617  1
  Zr  Zr60  1  0.30761132  0.69539531  0.87835231  1
  Zr  Zr61  1  0.40468282  0.41099935  0.24423786  1
  Zr  Zr62  1  0.19589931  0.80413323  0.51120998  1
  Zr  Zr63  1  -0.00491201  0.79127819  0.75244794  1
  Zr  Zr64  1  0.58239188  0.59002228  0.25047155  1
  Zr  Zr65  1  0.88857741  0.89753601  0.64105961  1
  Zr  Zr66  1  0.59392023  0.79302026  0.26211206  1
  Zr  Zr67  1  -0.00728006  0.80996961  0.50446746  1
  Zr  Zr68  1  0.71005349  0.69690478  0.60503427  1
  Zr  Zr69  1  0.69192389  0.69185552  0.11977024  1
  Zr  Zr70  1  0.39387084  0.01963142  -0.00535802  1
  Zr  Zr71  1  0.92105427  0.09599775  0.36427518  1
  Zr  Zr72  1  0.71389431  0.10402979  0.39140523  1
  Zr  Zr73  1  0.58296021  0.80917012  0.49003428  1
  Zr  Zr74  1  0.80732928  0.79627032  0.00452976  1
  Zr  Zr75  1  0.28153236  0.91519494  0.13130753  1
  Zr  Zr76  1  -0.01588026  0.40410362  0.48904325  1
  Zr  Zr77  1  0.59575743  -0.00606523  0.26529129  1
  Zr  Zr78  1  0.69825729  0.49315899  0.11148307  1
  Zr  Zr79  1  0.21546756  0.19066970  0.23759921  1
  Ta  Ta80  1  0.70146711  0.69352699  0.88120876  1
  Ta  Ta81  1  0.79182012  0.39438107  0.24682049  1
  Ta  Ta82  1  0.60045442  0.79962014  -0.00234377  1
  Ta  Ta83  1  0.79493783  0.59595849  0.75525816  1
  Ta  Ta84  1  0.80949418  0.20844188  0.51538413  1
  Ta  Ta85  1  0.80304116  0.40362761  0.74999900  1
  Ta  Ta86  1  0.69895170  0.49992935  0.88232903  1
  Ta  Ta87  1  0.39318462  0.39652188  -0.00673840  1
  Ta  Ta88  1  0.40523310  0.03092774  0.74433573  1
  Ta  Ta89  1  0.60318455  0.40140111  0.51323279  1
  Ta  Ta90  1  0.11214559  0.08394479  0.12449730  1
  Ta  Ta91  1  0.80497042  0.58739925  -0.00121540  1
  Ta  Ta92  1  0.39358243  0.01319486  0.25161887  1
  Ta  Ta93  1  0.09195065  0.90841631  0.38176054  1
  Ta  Ta94  1  0.90263456  0.49307095  0.13138348  1
  Ta  Ta95  1  0.48256941  0.69025291  0.38088778  1
  Ta  Ta96  1  0.51174342  0.70025837  0.62556442  1
  Ta  Ta97  1  0.01041065  0.01135689  -0.00883969  1
  Ta  Ta98  1  0.49558762  0.49928604  0.88071714  1
  Ta  Ta99  1  0.10824904  0.11884080  0.86728919  1
  Ta  Ta100  1  0.09507591  0.91269507  0.64282947  1
  Ta  Ta101  1  0.19355174  0.80086183  -0.01172796  1
  Ta  Ta102  1  0.90206172  0.48103566  0.87446409  1
  Ta  Ta103  1  0.02523703  -0.00974002  0.24400814  1
  Ta  Ta104  1  0.83673265  -0.00123721  0.50229883  1
  Ta  Ta105  1  0.10662936  0.67934696  0.86732720  1
  Ta  Ta106  1  0.42385965  0.20928404  0.00476831  1
  Ta  Ta107  1  0.90100294  0.68558194  0.12669712  1
  Ta  Ta108  1  0.38904520  0.20554325  0.52122033  1
  Ta  Ta109  1  0.19509018  0.21192783  0.51658858  1
  Ta  Ta110  1  0.49491266  0.50228536  0.10076366  1
  Ta  Ta111  1  0.80026429  0.59179429  0.24991944  1
  Ta  Ta112  1  0.27319334  0.49951908  0.63818484  1
  Ta  Ta113  1  0.19045406  0.40305376  0.50180895  1
  Ta  Ta114  1  0.50310616  0.09698332  0.60835433  1
  Ta  Ta115  1  0.50412868  0.29894135  0.62237849  1
  Ta  Ta116  1  0.30335696  0.91591391  0.63827340  1
  Ta  Ta117  1  0.59272091  0.18566014  0.73756641  1
  Ta  Ta118  1  0.70060810  0.29329170  0.11944497  1
  Ta  Ta119  1  0.60686289  0.59604884  0.74773351  1
  Ti  Ti120  1  -0.00803881  0.02199322  0.75313215  1
  Ti  Ti121  1  0.89226164  0.30030899  0.13582031  1
  Ti  Ti122  1  0.81356518  0.39115568  -0.00256298  1
  Ti  Ti123  1  -0.00869643  0.40797792  0.25743922  1
  Ti  Ti124  1  -0.00867401  0.79781167  0.26087053  1
  Ti  Ti125  1  0.51361631  0.91392508  0.62869725  1
  Ti  Ti126  1  0.00939109  0.21680271  0.74905583  1
  Ti  Ti127  1  0.09059243  0.50052109  0.13535047  1
  Ti  Ti128  1  0.71015215  0.29739285  0.87039336  1
  Ti  Ti129  1  0.50881158  0.50034731  0.62446846  1
  Ti  Ti130  1  0.09148613  0.10352319  0.63439745  1
  Ti  Ti131  1  0.00427544  0.21325634  -0.00746937  1
  Ti  Ti132  1  0.80286932  0.20693098  -0.00359728  1
  Ti  Ti133  1  0.90943833  0.31321656  0.62623505  1
  Ti  Ti134  1  0.38950500  0.40589365  0.51841219  1
  Ti  Ti135  1  0.70279692  0.30313477  0.62299889  1
  Ti  Ti136  1  -0.00496992  0.60424768  0.26015895  1
  Ti  Ti137  1  0.41077873  0.21055030  0.24376464  1
  Ti  Ti138  1  0.10947818  0.09964957  0.37129441  1
  Ti  Ti139  1  0.20068896  0.40037028  0.24620638  1
  Ti  Ti140  1  0.29719642  0.90986276  0.37218360  1
  Ti  Ti141  1  0.70072127  0.89842954  0.60100061  1
  Ti  Ti142  1  0.09891817  0.50074957  0.36809648  1
  Ti  Ti143  1  0.50283610  0.11455992  0.13016065  1
  Ti  Ti144  1  0.40307954  -0.00598821  0.50495976  1
  Ti  Ti145  1  0.31301226  0.30232056  0.12145750  1
  Ti  Ti146  1  0.50330853  0.28573379  0.86151904  1
  Ti  Ti147  1  0.90616448  0.11574686  0.87689840  1
  Ti  Ti148  1  0.80395876  0.78893447  0.24532950  1
  Ti  Ti149  1  0.19932387  0.60169323  0.00013385  1
  Ti  Ti150  1  0.50560977  0.50478673  0.39353730  1
  Ti  Ti151  1  0.69574129  0.29464436  0.39088730  1
  Ti  Ti152  1  0.71037916  0.50184709  0.61507495  1
  Ti  Ti153  1  0.01033067  0.80033380  -0.01333148  1
  Ti  Ti154  1  0.30621986  0.91262819  0.85775332  1
  Ti  Ti155  1  -0.00361286  0.59401981  0.48652854  1
  Ti  Ti156  1  0.70184766  0.89283114  0.88214772  1
  Ti  Ti157  1  0.20414482  0.01598877  0.74825955  1
  Ti  Ti158  1  0.39914629  0.80077862  0.25342376  1
  Ti  Ti159  1  0.49448582  0.68978714  0.10979789  1
  Mo  Mo160  1  0.59511303  0.00083622  0.74152194  1
  Mo  Mo161  1  0.48982215  0.11794245  0.86834555  1
  Mo  Mo162  1  0.60358505  0.20717720  0.51411337  1
  Mo  Mo163  1  0.09701899  0.89854783  0.11215265  1
  Mo  Mo164  1  0.79869717  0.20661915  0.24666804  1
  Mo  Mo165  1  0.08957403  0.49100525  0.86213151  1
  Mo  Mo166  1  0.09113999  0.70017319  0.37403034  1
  Mo  Mo167  1  0.09371885  0.29873866  0.87562880  1
  Mo  Mo168  1  0.19645565  0.59073282  0.75038644  1
  Mo  Mo169  1  -0.01370529  0.38466773  0.75413308  1
  Mo  Mo170  1  0.40649079  0.20544943  0.72907913  1
  Mo  Mo171  1  0.59637243  -0.00622277  0.49011609  1
  Mo  Mo172  1  0.30568244  0.70044424  0.63084418  1
  Mo  Mo173  1  0.01099394  0.00126820  0.51062570  1
  Mo  Mo174  1  0.90557276  0.10225410  0.63164190  1
  Mo  Mo175  1  0.40782559  0.61204657  0.24621207  1
  Mo  Mo176  1  0.59904947  0.59477984  -0.00857354  1
  Mo  Mo177  1  0.30397173  0.10372239  0.86738794  1
  Mo  Mo178  1  -0.00907195  0.58108542  0.76373181  1
  Mo  Mo179  1  0.60726633  0.20224669  -0.00105893  1
  Mo  Mo180  1  0.18050070  0.39056758  0.75625016  1
  Mo  Mo181  1  0.39726860  0.59228662  -0.00440447  1
  Mo  Mo182  1  0.30086937  0.09885139  0.61708951  1
  Mo  Mo183  1  0.89977091  0.49971883  0.35932810  1
  Mo  Mo184  1  0.50131203  0.30525836  0.12252556  1
  Mo  Mo185  1  0.89697966  0.29078042  0.87578844  1
  Mo  Mo186  1  0.20307364  0.00022185  0.25646226  1
  Mo  Mo187  1  -0.01378733  0.39202177  0.00749620  1
  Mo  Mo188  1  0.88339976  0.49633556  0.62937242  1
  Mo  Mo189  1  0.91044088  0.90099771  0.36950159  1
  Mo  Mo190  1  0.29528109  0.31442084  0.61711011  1
  Mo  Mo191  1  0.46894260  0.89576765  0.36993241  1
  Mo  Mo192  1  0.79935254  0.39000805  0.50612178  1
  Mo  Mo193  1  0.80361640  0.79781891  0.50022896  1
  Mo  Mo194  1  0.79555805  0.78837615  0.75978549  1
  Mo  Mo195  1  0.09677683  0.30475423  0.62027782  1
  Mo  Mo196  1  0.59127716  0.59199997  0.50556346  1
  Mo  Mo197  1  0.31461062  0.10776677  0.12793980  1
  Mo  Mo198  1  0.81142739  0.58074895  0.49773573  1
  Mo  Mo199  1  0.00504814  0.19765859  0.24561396  1
