# generated using pymatgen
data_HfZrTaTiMo
_symmetry_space_group_name_H-M   'P 1'
_cell_length_a   15.21403771
_cell_length_b   15.22671027
_cell_length_c   16.84130487
_cell_angle_alpha   90.01030222
_cell_angle_beta   89.95478371
_cell_angle_gamma   89.91930902
_symmetry_Int_Tables_number   1
_chemical_formula_structural   HfZrTaTiMo
_chemical_formula_sum   'Hf40 Zr40 Ta40 Ti40 Mo40'
_cell_volume   3901.44723070
_cell_formula_units_Z   40
loop_
 _symmetry_equiv_pos_site_id
 _symmetry_equiv_pos_as_xyz
  1  'x, y, z'
loop_
 _atom_site_type_symbol
 _atom_site_label
 _atom_site_symmetry_multiplicity
 _atom_site_fract_x
 _atom_site_fract_y
 _atom_site_fract_z
 _atom_site_occupancy
  Hf  Hf0  1  0.80363903  -0.00079842  0.75751462  1
  Hf  Hf1  1  -0.00878873  0.39867418  0.76135700  1
  Hf  Hf2  1  0.80612747  0.40299302  0.23832507  1
  Hf  Hf3  1  0.09658336  0.51489907  0.86977096  1
  Hf  Hf4  1  -0.00247489  0.38919047  0.50089403  1
  Hf  Hf5  1  0.68858696  0.08834022  0.14617383  1
  Hf  Hf6  1  0.60674261  -0.01140751  0.48407207  1
  Hf  Hf7  1  0.89217661  0.89403036  0.38287614  1
  Hf  Hf8  1  0.91190039  0.08956134  0.37749364  1
  Hf  Hf9  1  0.20445541  0.19868797  -0.01223394  1
  Hf  Hf10  1  0.50367616  0.93957789  0.14858300  1
  Hf  Hf11  1  0.28961234  0.09944798  0.37258787  1
  Hf  Hf12  1  0.48731492  0.70800395  0.62435202  1
  Hf  Hf13  1  0.80282349  0.79339233  0.75993289  1
  Hf  Hf14  1  0.49545313  0.89928293  0.35935332  1
  Hf  Hf15  1  0.69168277  0.51469716  0.35470265  1
  Hf  Hf16  1  0.68335513  0.91136656  0.88197186  1
  Hf  Hf17  1  0.49992526  0.31587961  0.86627554  1
  Hf  Hf18  1  0.49609648  0.71989003  0.88085298  1
  Hf  Hf19  1  0.89803229  0.69581073  0.62392382  1
  Hf  Hf20  1  0.29193815  0.89967690  0.36016982  1
  Hf  Hf21  1  0.20650259  -0.01922653  0.76419331  1
  Hf  Hf22  1  0.40969167  0.19580859  0.74390063  1
  Hf  Hf23  1  0.62334657  0.81259948  0.23716067  1
  Hf  Hf24  1  0.49948390  0.70060459  0.14069779  1
  Hf  Hf25  1  0.90096315  0.28685037  0.62875679  1
  Hf  Hf26  1  0.59472441  0.82563694  0.01810729  1
  Hf  Hf27  1  0.40140003  0.40156277  0.48880604  1
  Hf  Hf28  1  -0.00242854  0.59438670  0.24658841  1
  Hf  Hf29  1  0.78678276  0.18465892  0.00141871  1
  Hf  Hf30  1  0.09530631  0.49507256  0.38199442  1
  Hf  Hf31  1  0.79549207  0.58669036  0.75786084  1
  Hf  Hf32  1  0.31882824  0.09427200  0.87341278  1
  Hf  Hf33  1  0.09725231  0.29662338  0.12138788  1
  Hf  Hf34  1  0.41239239  0.20444606  0.00290277  1
  Hf  Hf35  1  0.59734990  0.60640126  0.76379229  1
  Hf  Hf36  1  0.29123106  0.29585557  0.63560420  1
  Hf  Hf37  1  0.68922193  0.50334881  0.12926761  1
  Hf  Hf38  1  0.30536635  0.30168339  0.12966376  1
  Hf  Hf39  1  0.02381759  0.19192798  0.49450434  1
  Zr  Zr40  1  0.91653339  0.89320562  0.89352226  1
  Zr  Zr41  1  0.00114340  0.18134618  -0.01455091  1
  Zr  Zr42  1  0.10522569  0.71742498  0.63181335  1
  Zr  Zr43  1  0.89144566  0.49588703  0.37770971  1
  Zr  Zr44  1  0.50298041  0.31270112  0.62271986  1
  Zr  Zr45  1  0.60362899  0.21204970  0.48342768  1
  Zr  Zr46  1  0.88735890  0.49226349  0.62320218  1
  Zr  Zr47  1  0.89884636  0.28818644  0.12739644  1
  Zr  Zr48  1  0.29514010  0.90518869  0.14804085  1
  Zr  Zr49  1  0.70300437  0.69514582  0.89654438  1
  Zr  Zr50  1  0.80831004  0.19013505  0.75596406  1
  Zr  Zr51  1  0.20109517  0.40089719  -0.01237776  1
  Zr  Zr52  1  0.28699234  0.70589262  0.87597561  1
  Zr  Zr53  1  0.00726965  -0.00213712  0.76194628  1
  Zr  Zr54  1  0.61655980  0.21354034  0.73821781  1
  Zr  Zr55  1  0.78710205  0.39059467  0.01256916  1
  Zr  Zr56  1  0.68398928  0.69371965  0.62406596  1
  Zr  Zr57  1  0.90468204  0.89858478  0.62124317  1
  Zr  Zr58  1  0.19387191  0.40451245  0.24716412  1
  Zr  Zr59  1  0.28992123  0.69136089  0.14353053  1
  Zr  Zr60  1  0.29079673  0.51278798  0.37150009  1
  Zr  Zr61  1  0.39342852  0.19907969  0.49770536  1
  Zr  Zr62  1  0.39656003  0.61006128  0.49379219  1
  Zr  Zr63  1  0.39830064  0.40866925  0.00215865  1
  Zr  Zr64  1  0.01357270  0.80281745  0.49167493  1
  Zr  Zr65  1  0.78520695  0.80075274  0.50034456  1
  Zr  Zr66  1  0.09784584  0.49889138  0.62968287  1
  Zr  Zr67  1  0.20657733  -0.00801902  -0.00936915  1
  Zr  Zr68  1  0.89104994  0.29902739  0.87992257  1
  Zr  Zr69  1  0.50757094  0.69468275  0.35620906  1
  Zr  Zr70  1  0.41152756  -0.00939912  0.74427677  1
  Zr  Zr71  1  0.28963064  0.09041984  0.62189567  1
  Zr  Zr72  1  0.60261454  0.01033391  0.73809771  1
  Zr  Zr73  1  0.11287183  0.69654709  0.37333144  1
  Zr  Zr74  1  0.38986033  0.81741573  0.00989387  1
  Zr  Zr75  1  0.39670986  0.60093620  0.00329668  1
  Zr  Zr76  1  0.60797740  0.41646683  0.48681400  1
  Zr  Zr77  1  0.00233310  -0.01246907  0.24116322  1
  Zr  Zr78  1  0.30918958  0.49998671  0.63193542  1
  Zr  Zr79  1  0.71175654  0.10307265  0.60540610  1
  Ta  Ta80  1  0.90718135  0.50582164  0.10753149  1
  Ta  Ta81  1  0.19851275  0.38337416  0.49978552  1
  Ta  Ta82  1  0.58402324  0.39369017  0.25195919  1
  Ta  Ta83  1  0.00439870  0.39959924  -0.00827699  1
  Ta  Ta84  1  0.68664107  0.48501088  0.88890756  1
  Ta  Ta85  1  0.58762118  0.38908056  0.01510348  1
  Ta  Ta86  1  0.90684043  0.69091474  0.89636844  1
  Ta  Ta87  1  0.88807381  0.50485484  0.89208305  1
  Ta  Ta88  1  0.78196399  0.39223875  0.75270898  1
  Ta  Ta89  1  0.70815627  0.29877108  0.35470427  1
  Ta  Ta90  1  0.20323164  0.19145125  0.24445802  1
  Ta  Ta91  1  0.78307962  0.59024858  0.49960774  1
  Ta  Ta92  1  0.19758890  0.39716290  0.75977118  1
  Ta  Ta93  1  0.90400730  0.29204394  0.36403398  1
  Ta  Ta94  1  0.79550744  -0.01791849  0.24780754  1
  Ta  Ta95  1  -0.00478452  0.59978142  0.50166930  1
  Ta  Ta96  1  0.81072641  0.20474622  0.48865483  1
  Ta  Ta97  1  0.81188957  0.79583509  0.23998896  1
  Ta  Ta98  1  0.50029604  0.89649901  0.61059999  1
  Ta  Ta99  1  -0.00800891  0.79149588  0.24817023  1
  Ta  Ta100  1  0.71375180  0.09551313  0.36792727  1
  Ta  Ta101  1  0.38446606  0.80114972  0.74853086  1
  Ta  Ta102  1  0.09051216  0.69734515  0.12295981  1
  Ta  Ta103  1  0.10820432  0.09329781  0.12266293  1
  Ta  Ta104  1  0.59851823  0.41652611  0.74628716  1
  Ta  Ta105  1  0.70454707  0.70847471  0.37169340  1
  Ta  Ta106  1  0.19539333  0.59905008  0.00089480  1
  Ta  Ta107  1  0.31498837  0.09729363  0.13177260  1
  Ta  Ta108  1  0.20451651  0.61141087  0.74593666  1
  Ta  Ta109  1  0.00872712  0.19266752  0.25151436  1
  Ta  Ta110  1  0.80275718  0.61298157  0.23834416  1
  Ta  Ta111  1  0.30943457  0.49988139  0.85895658  1
  Ta  Ta112  1  0.69459334  0.89597179  0.62504586  1
  Ta  Ta113  1  0.91301658  0.09152382  0.61197916  1
  Ta  Ta114  1  0.52656703  0.10212195  0.87727554  1
  Ta  Ta115  1  0.68435878  0.28333345  0.14793049  1
  Ta  Ta116  1  0.29572448  0.88246815  0.61630927  1
  Ta  Ta117  1  0.08975564  0.71663491  0.87066726  1
  Ta  Ta118  1  0.51454637  0.51492739  0.62029944  1
  Ta  Ta119  1  0.90086127  0.69784190  0.10475429  1
  Ti  Ti120  1  0.29880826  0.29862726  0.36996965  1
  Ti  Ti121  1  0.21400070  0.79561229  0.49354004  1
  Ti  Ti122  1  0.40516128  0.60005690  0.75299923  1
  Ti  Ti123  1  0.10285370  0.90977961  0.62429235  1
  Ti  Ti124  1  0.90027969  0.09127877  0.13075582  1
  Ti  Ti125  1  0.68742021  0.29189942  0.88016720  1
  Ti  Ti126  1  0.59808302  0.19650307  0.00960647  1
  Ti  Ti127  1  0.18576384  0.00713677  0.49921071  1
  Ti  Ti128  1  0.10533087  0.50397753  0.11886754  1
  Ti  Ti129  1  0.42486893  0.00706377  -0.00001373  1
  Ti  Ti130  1  0.39473731  0.40122794  0.25331488  1
  Ti  Ti131  1  0.49843949  0.10412575  0.36786750  1
  Ti  Ti132  1  0.59010143  0.58936560  0.00127515  1
  Ti  Ti133  1  0.00085969  0.39635180  0.24645581  1
  Ti  Ti134  1  0.09347578  0.89508757  0.11725768  1
  Ti  Ti135  1  0.79634327  -0.00059622  0.00309598  1
  Ti  Ti136  1  0.00332243  0.19004489  0.76882522  1
  Ti  Ti137  1  0.09832863  0.91719307  0.37344425  1
  Ti  Ti138  1  0.19711234  0.60137409  0.51272998  1
  Ti  Ti139  1  0.39431280  -0.00706047  0.49763150  1
  Ti  Ti140  1  -0.00752175  0.61123939  0.75345867  1
  Ti  Ti141  1  0.10201616  0.29201242  0.63609835  1
  Ti  Ti142  1  0.90128224  0.89575619  0.11287658  1
  Ti  Ti143  1  0.89703488  0.69076492  0.37893387  1
  Ti  Ti144  1  0.30860577  0.70539289  0.34547586  1
  Ti  Ti145  1  0.79871891  0.80286094  0.00506649  1
  Ti  Ti146  1  0.70457965  0.69831167  0.11329438  1
  Ti  Ti147  1  0.17905848  0.80439999  0.24828857  1
  Ti  Ti148  1  0.10756510  0.28813125  0.36902927  1
  Ti  Ti149  1  0.79325516  0.38931116  0.49678923  1
  Ti  Ti150  1  0.41170362  0.20777184  0.25303477  1
  Ti  Ti151  1  0.58670451  0.81470335  0.75277806  1
  Ti  Ti152  1  0.49537281  0.50612401  0.35993077  1
  Ti  Ti153  1  0.18841286  0.19168856  0.77009970  1
  Ti  Ti154  1  0.50183924  0.09711279  0.60815722  1
  Ti  Ti155  1  0.30378473  0.30237778  0.86025160  1
  Ti  Ti156  1  0.48692866  0.49944362  0.13882583  1
  Ti  Ti157  1  0.10176101  0.10254215  0.63214531  1
  Ti  Ti158  1  0.19400840  0.79632953  0.00480376  1
  Ti  Ti159  1  0.40169215  0.80184490  0.48987890  1
  Mo  Mo160  1  0.00776654  0.79751000  0.00947290  1
  Mo  Mo161  1  0.50281156  0.50777943  0.87731083  1
  Mo  Mo162  1  0.01112481  -0.00121056  0.50403934  1
  Mo  Mo163  1  -0.00040487  0.79775754  0.75490566  1
  Mo  Mo164  1  0.69530181  0.49483816  0.62415786  1
  Mo  Mo165  1  0.40405108  0.40984224  0.74883572  1
  Mo  Mo166  1  0.79281635  0.59655598  0.00396848  1
  Mo  Mo167  1  0.31743009  0.89308023  0.88045605  1
  Mo  Mo168  1  0.00752577  0.59413133  -0.00059266  1
  Mo  Mo169  1  0.60751955  0.60078463  0.23801183  1
  Mo  Mo170  1  0.49378144  0.30744560  0.36916932  1
  Mo  Mo171  1  0.18854356  0.60314076  0.24301829  1
  Mo  Mo172  1  0.80249872  0.00545691  0.50135230  1
  Mo  Mo173  1  0.60170600  0.61088823  0.49293900  1
  Mo  Mo174  1  0.39862176  0.58809405  0.24567241  1
  Mo  Mo175  1  0.29363845  0.50057336  0.12907837  1
  Mo  Mo176  1  0.29837599  0.70235564  0.62562924  1
  Mo  Mo177  1  0.10222307  0.09184071  0.87579024  1
  Mo  Mo178  1  0.39439210  0.02013821  0.25798590  1
  Mo  Mo179  1  0.00075228  -0.00384614  0.01515026  1
  Mo  Mo180  1  0.10384852  0.29972708  0.86641103  1
  Mo  Mo181  1  0.89767104  0.08831697  0.88520553  1
  Mo  Mo182  1  0.19178101  0.00484920  0.24339875  1
  Mo  Mo183  1  0.10603664  0.09767447  0.36675106  1
  Mo  Mo184  1  0.71321023  0.31570375  0.61787052  1
  Mo  Mo185  1  0.59011868  0.79803739  0.49587088  1
  Mo  Mo186  1  0.70506107  0.10301521  0.88189524  1
  Mo  Mo187  1  0.60466231  0.00614962  0.27231042  1
  Mo  Mo188  1  0.19600309  0.80530895  0.75013622  1
  Mo  Mo189  1  0.80932573  0.19023545  0.25608476  1
  Mo  Mo190  1  0.70380099  0.89656722  0.37245577  1
  Mo  Mo191  1  0.60468993  0.02073070  0.00430135  1
  Mo  Mo192  1  0.19921144  0.20695846  0.50095671  1
  Mo  Mo193  1  0.71361716  0.90140208  0.11921753  1
  Mo  Mo194  1  0.59745335  0.20146564  0.27162263  1
  Mo  Mo195  1  0.40039508  0.80409892  0.24843962  1
  Mo  Mo196  1  0.50235964  0.12405206  0.13823166  1
  Mo  Mo197  1  0.50072588  0.30246379  0.13312005  1
  Mo  Mo198  1  0.11216540  0.88937595  0.88798939  1
  Mo  Mo199  1  0.49272922  0.91146398  0.87666397  1
