# generated using pymatgen
data_HfZrTaTiMo
_symmetry_space_group_name_H-M   'P 1'
_cell_length_a   15.20027658
_cell_length_b   15.21939513
_cell_length_c   16.85857961
_cell_angle_alpha   89.98527923
_cell_angle_beta   90.08233985
_cell_angle_gamma   89.96055796
_symmetry_Int_Tables_number   1
_chemical_formula_structural   HfZrTaTiMo
_chemical_formula_sum   'Hf40 Zr40 Ta40 Ti40 Mo40'
_cell_volume   3900.04212694
_cell_formula_units_Z   40
loop_
 _symmetry_equiv_pos_site_id
 _symmetry_equiv_pos_as_xyz
  1  'x, y, z'
loop_
 _atom_site_type_symbol
 _atom_site_label
 _atom_site_symmetry_multiplicity
 _atom_site_fract_x
 _atom_site_fract_y
 _atom_site_fract_z
 _atom_site_occupancy
  Hf  Hf0  1  0.69577872  0.09860564  0.63174571  1
  Hf  Hf1  1  0.79625125  0.79183460  0.00511867  1
  Hf  Hf2  1  0.39724836  0.41739122  0.24143747  1
  Hf  Hf3  1  0.19575594  0.40532435  0.50551740  1
  Hf  Hf4  1  0.87347227  0.08654850  0.12531977  1
  Hf  Hf5  1  0.88020208  0.30438148  0.38303456  1
  Hf  Hf6  1  0.90966757  0.50261831  0.38585230  1
  Hf  Hf7  1  -0.01588459  0.18888646  0.00054004  1
  Hf  Hf8  1  0.28911865  0.50820179  0.62496629  1
  Hf  Hf9  1  0.90582952  0.28240591  0.86550297  1
  Hf  Hf10  1  -0.00541753  -0.01617614  0.50584815  1
  Hf  Hf11  1  0.50752593  0.51039578  0.87847980  1
  Hf  Hf12  1  -0.00465579  0.60364968  -0.00562414  1
  Hf  Hf13  1  0.79819197  0.58150419  0.25271338  1
  Hf  Hf14  1  0.89305930  0.50361983  0.11543803  1
  Hf  Hf15  1  0.29963861  0.70447678  0.13386251  1
  Hf  Hf16  1  0.59513144  0.18292250  0.00466279  1
  Hf  Hf17  1  0.18871046  0.19692982  -0.00625892  1
  Hf  Hf18  1  0.70513422  0.91108612  0.36263669  1
  Hf  Hf19  1  0.77063237  0.19450502  0.25091061  1
  Hf  Hf20  1  0.10991834  0.89809033  0.12328302  1
  Hf  Hf21  1  0.31193999  0.70199860  0.86774176  1
  Hf  Hf22  1  0.60155481  0.40573764  0.74512206  1
  Hf  Hf23  1  0.81360295  0.62592046  0.50020805  1
  Hf  Hf24  1  0.18885600  0.00697883  0.74015843  1
  Hf  Hf25  1  0.38592377  0.20287566  0.75735293  1
  Hf  Hf26  1  0.80259745  0.39775112  0.74209998  1
  Hf  Hf27  1  0.70578044  0.47795238  0.39274518  1
  Hf  Hf28  1  0.40552416  0.39847018  0.75236435  1
  Hf  Hf29  1  0.70141219  0.30855638  0.88430872  1
  Hf  Hf30  1  0.70159485  0.70661803  0.35921924  1
  Hf  Hf31  1  -0.00373970  0.60094856  0.74992958  1
  Hf  Hf32  1  0.40846844  0.00429288  0.00879945  1
  Hf  Hf33  1  -0.02011458  0.19487993  0.24875635  1
  Hf  Hf34  1  0.59359647  0.00148446  0.49733527  1
  Hf  Hf35  1  0.03201884  0.59877736  0.50630821  1
  Hf  Hf36  1  0.69710922  0.89429290  0.63039443  1
  Hf  Hf37  1  0.51562167  0.30761200  0.37031521  1
  Hf  Hf38  1  -0.00950217  0.40357800  0.24717708  1
  Hf  Hf39  1  0.00122953  0.38989222  0.51145453  1
  Zr  Zr40  1  0.41044890  0.80558461  0.00676895  1
  Zr  Zr41  1  0.79020252  0.21038347  0.51192368  1
  Zr  Zr42  1  0.49734206  0.50940534  0.62080924  1
  Zr  Zr43  1  0.20526211  0.59637437  -0.00798338  1
  Zr  Zr44  1  0.00712985  0.38923103  -0.00003288  1
  Zr  Zr45  1  0.87970189  0.09202354  0.38055094  1
  Zr  Zr46  1  0.39530677  0.41224181  0.00839861  1
  Zr  Zr47  1  0.49771453  0.30250784  0.11888471  1
  Zr  Zr48  1  0.89650414  0.49288336  0.87413544  1
  Zr  Zr49  1  0.20465632  0.80545060  -0.00753961  1
  Zr  Zr50  1  0.18912802  0.78868362  0.49831416  1
  Zr  Zr51  1  0.39560701  0.00285135  0.50007781  1
  Zr  Zr52  1  0.40107458  0.20418115  0.49587230  1
  Zr  Zr53  1  0.09211464  0.08788379  0.36541402  1
  Zr  Zr54  1  0.90378602  0.50970665  0.62284569  1
  Zr  Zr55  1  0.59179080  0.20771414  0.74779177  1
  Zr  Zr56  1  0.20249534  0.37817632  0.76012776  1
  Zr  Zr57  1  0.19038280  0.00185011  0.50492786  1
  Zr  Zr58  1  0.71666700  0.70082342  0.64501188  1
  Zr  Zr59  1  0.41493028  0.61093510  0.26247477  1
  Zr  Zr60  1  -0.00274196  0.79979408  -0.00460242  1
  Zr  Zr61  1  0.11727389  0.49175488  0.12942322  1
  Zr  Zr62  1  0.28158192  0.30323885  0.13609742  1
  Zr  Zr63  1  0.39425453  -0.00257557  0.73746669  1
  Zr  Zr64  1  0.59816024  0.61114483  0.49747897  1
  Zr  Zr65  1  0.61402951  0.40525960  0.23819707  1
  Zr  Zr66  1  0.09480460  0.09696783  0.13028286  1
  Zr  Zr67  1  0.40844231  0.00598491  0.25209675  1
  Zr  Zr68  1  0.52448500  0.90935961  0.13650246  1
  Zr  Zr69  1  0.69163575  0.69705549  0.14373457  1
  Zr  Zr70  1  0.19684611  0.80432167  0.75638060  1
  Zr  Zr71  1  0.69710100  0.89128519  0.86926589  1
  Zr  Zr72  1  0.29670714  0.30746773  0.36819260  1
  Zr  Zr73  1  0.09897269  0.29334811  0.36763537  1
  Zr  Zr74  1  0.20332942  0.39252539  -0.01973520  1
  Zr  Zr75  1  0.51373380  0.71063344  0.87350617  1
  Zr  Zr76  1  0.70719026  0.10267141  0.87116138  1
  Zr  Zr77  1  0.30926610  0.70673621  0.62962432  1
  Zr  Zr78  1  0.41476236  0.80341877  0.48392979  1
  Zr  Zr79  1  0.90136483  0.88876675  0.37316923  1
  Ta  Ta80  1  0.90159823  0.09083265  0.62384969  1
  Ta  Ta81  1  0.28835835  0.09242866  0.88042227  1
  Ta  Ta82  1  0.90856529  0.70091649  0.36116295  1
  Ta  Ta83  1  0.27592903  0.12032677  0.62047589  1
  Ta  Ta84  1  0.30838956  0.30311054  0.61866940  1
  Ta  Ta85  1  0.20097648  0.59378497  0.75905750  1
  Ta  Ta86  1  0.08298549  0.88386820  0.62937644  1
  Ta  Ta87  1  0.49394482  0.08889395  0.87503371  1
  Ta  Ta88  1  0.10149308  0.69700293  0.13087264  1
  Ta  Ta89  1  0.29469423  0.09824475  0.12617358  1
  Ta  Ta90  1  0.29277381  0.90284348  0.37025970  1
  Ta  Ta91  1  0.60660758  0.41594816  0.00497363  1
  Ta  Ta92  1  0.08508356  0.09786721  0.87311085  1
  Ta  Ta93  1  0.39783746  0.19959040  0.25069350  1
  Ta  Ta94  1  0.11029453  0.50017108  0.36505185  1
  Ta  Ta95  1  0.09470100  0.49019019  0.85987175  1
  Ta  Ta96  1  0.72447499  0.90806288  0.13967372  1
  Ta  Ta97  1  0.29015144  0.10771892  0.36935743  1
  Ta  Ta98  1  0.70386209  0.49986732  0.61737397  1
  Ta  Ta99  1  0.40525639  0.80747162  0.26497451  1
  Ta  Ta100  1  0.39399914  0.60743676  0.48872629  1
  Ta  Ta101  1  0.70462319  0.52373628  0.87077382  1
  Ta  Ta102  1  0.50744502  0.10611440  0.37168839  1
  Ta  Ta103  1  0.88925229  0.29476400  0.11922028  1
  Ta  Ta104  1  0.31635391  0.90682834  0.87214569  1
  Ta  Ta105  1  0.80522980  -0.00380595  0.74912822  1
  Ta  Ta106  1  0.00877782  0.18861010  0.50792144  1
  Ta  Ta107  1  0.49823002  0.30056696  0.88901543  1
  Ta  Ta108  1  0.59085782  -0.00097369  0.74860681  1
  Ta  Ta109  1  0.51634836  0.52376500  0.12431866  1
  Ta  Ta110  1  0.87390138  0.69716773  0.86696774  1
  Ta  Ta111  1  -0.00734524  -0.00516143  0.74744265  1
  Ta  Ta112  1  0.38911927  0.20007441  -0.00438682  1
  Ta  Ta113  1  0.00398176  0.79676922  0.24012428  1
  Ta  Ta114  1  0.11423431  0.27882357  0.62823163  1
  Ta  Ta115  1  0.20133607  -0.00369778  0.25219688  1
  Ta  Ta116  1  0.40886174  0.60633597  0.00808901  1
  Ta  Ta117  1  0.20888407  0.59530599  0.24911443  1
  Ta  Ta118  1  0.29820503  0.50557806  0.38050406  1
  Ta  Ta119  1  0.40809235  0.40730397  0.49979573  1
  Ti  Ti120  1  0.61261747  0.80288607  0.49397453  1
  Ti  Ti121  1  0.10609886  0.69044207  0.63567256  1
  Ti  Ti122  1  0.10183058  0.69527308  0.36214315  1
  Ti  Ti123  1  0.88976761  0.88453545  0.62683972  1
  Ti  Ti124  1  0.79547761  0.00206438  -0.00601925  1
  Ti  Ti125  1  0.79841297  0.40559542  -0.00050017  1
  Ti  Ti126  1  0.09265027  0.29336330  0.13798539  1
  Ti  Ti127  1  0.00452993  0.59941577  0.24384412  1
  Ti  Ti128  1  0.10774998  0.91214875  0.88028548  1
  Ti  Ti129  1  0.61855784  0.61498339  0.00279771  1
  Ti  Ti130  1  0.79235740  -0.00839045  0.50664517  1
  Ti  Ti131  1  0.30247769  0.90076786  0.13493562  1
  Ti  Ti132  1  0.50557792  0.71120963  0.13465529  1
  Ti  Ti133  1  0.79744332  0.38743067  0.24108512  1
  Ti  Ti134  1  0.59166233  0.80289439  0.75137967  1
  Ti  Ti135  1  0.00958372  0.19122013  0.74368061  1
  Ti  Ti136  1  0.29562739  0.89720637  0.62167265  1
  Ti  Ti137  1  -0.00299463  -0.00577623  -0.00055069  1
  Ti  Ti138  1  0.61498667  0.01906750  0.25288951  1
  Ti  Ti139  1  0.09560404  0.69804558  0.87051838  1
  Ti  Ti140  1  0.10049036  0.88525004  0.36408197  1
  Ti  Ti141  1  0.50705008  0.50637564  0.38026955  1
  Ti  Ti142  1  0.80570430  0.19333036  0.74173826  1
  Ti  Ti143  1  0.41151278  0.60792233  0.74875332  1
  Ti  Ti144  1  0.60756681  0.38309098  0.51732440  1
  Ti  Ti145  1  0.49793230  0.89531454  0.62530421  1
  Ti  Ti146  1  0.70634059  0.29229742  0.10615288  1
  Ti  Ti147  1  0.60436922  0.81278004  0.00182149  1
  Ti  Ti148  1  -0.01310284  -0.01378226  0.24257519  1
  Ti  Ti149  1  0.58872359  0.19716227  0.23440324  1
  Ti  Ti150  1  0.29057830  0.70346157  0.37051918  1
  Ti  Ti151  1  0.90095443  0.90590960  0.87438539  1
  Ti  Ti152  1  0.48843424  0.10879759  0.62580135  1
  Ti  Ti153  1  0.59607258  0.20253111  0.50836553  1
  Ti  Ti154  1  0.90619368  0.29383857  0.63067840  1
  Ti  Ti155  1  0.89711447  0.70558629  0.13396945  1
  Ti  Ti156  1  -0.00788490  0.80314210  0.75859846  1
  Ti  Ti157  1  -0.01368512  0.78451646  0.50348607  1
  Ti  Ti158  1  0.50728845  0.70872522  0.62999363  1
  Ti  Ti159  1  0.30735882  0.50207137  0.86910263  1
  Mo  Mo160  1  0.49512626  0.30115098  0.62068279  1
  Mo  Mo161  1  0.30874787  0.29070669  0.88141978  1
  Mo  Mo162  1  0.79698262  0.20123833  0.00044363  1
  Mo  Mo163  1  0.81251022  0.79950140  0.24159093  1
  Mo  Mo164  1  0.20521906  0.60065519  0.49321556  1
  Mo  Mo165  1  0.20161749  0.79979756  0.25460611  1
  Mo  Mo166  1  0.59996635  0.59592717  0.25956350  1
  Mo  Mo167  1  0.80153677  0.80423927  0.49848003  1
  Mo  Mo168  1  0.90034760  0.08569141  0.87303225  1
  Mo  Mo169  1  0.79416782  0.60165807  0.00168700  1
  Mo  Mo170  1  0.91996170  0.71654435  0.63242753  1
  Mo  Mo171  1  0.19698121  0.19045328  0.75977119  1
  Mo  Mo172  1  0.68264649  0.08756505  0.11677303  1
  Mo  Mo173  1  0.09482714  0.28754539  0.86433377  1
  Mo  Mo174  1  0.79832777  0.40266884  0.51589158  1
  Mo  Mo175  1  0.10403484  0.49148737  0.64394805  1
  Mo  Mo176  1  0.81034404  0.80734687  0.75702491  1
  Mo  Mo177  1  0.59511200  0.80841085  0.25683552  1
  Mo  Mo178  1  0.68910703  0.29093334  0.37833907  1
  Mo  Mo179  1  0.19399351  0.20327669  0.49840316  1
  Mo  Mo180  1  0.59953613  0.59950775  0.74345740  1
  Mo  Mo181  1  0.79803889  0.59705344  0.74456881  1
  Mo  Mo182  1  0.70172244  0.30209761  0.63038336  1
  Mo  Mo183  1  0.50123572  0.90869502  0.87334995  1
  Mo  Mo184  1  0.00583413  0.38797982  0.73594856  1
  Mo  Mo185  1  0.20220393  -0.00010958  -0.00586987  1
  Mo  Mo186  1  0.90704223  0.89663176  0.12125196  1
  Mo  Mo187  1  0.50494642  0.70607418  0.37617650  1
  Mo  Mo188  1  0.69722716  0.69848469  0.86379121  1
  Mo  Mo189  1  0.19679145  0.40561360  0.25231681  1
  Mo  Mo190  1  0.68633208  0.11254985  0.38245839  1
  Mo  Mo191  1  0.80208507  0.00490690  0.25163959  1
  Mo  Mo192  1  0.08801422  0.09388259  0.62651585  1
  Mo  Mo193  1  0.20039595  0.19339707  0.24448734  1
  Mo  Mo194  1  0.51041175  0.90443626  0.36533795  1
  Mo  Mo195  1  0.30922830  0.51185858  0.12610514  1
  Mo  Mo196  1  0.60684189  -0.00861628  0.00140429  1
  Mo  Mo197  1  0.40690912  0.80630973  0.74430741  1
  Mo  Mo198  1  0.49197231  0.10579758  0.12896401  1
  Mo  Mo199  1  0.70204789  0.49539339  0.11825780  1
