# generated using pymatgen
data_HfZrTaTiMo
_symmetry_space_group_name_H-M   'P 1'
_cell_length_a   15.21614176
_cell_length_b   15.20569132
_cell_length_c   16.86833106
_cell_angle_alpha   89.93960237
_cell_angle_beta   90.02038502
_cell_angle_gamma   90.26822632
_symmetry_Int_Tables_number   1
_chemical_formula_structural   HfZrTaTiMo
_chemical_formula_sum   'Hf40 Zr40 Ta40 Ti40 Mo40'
_cell_volume   3902.81355414
_cell_formula_units_Z   40
loop_
 _symmetry_equiv_pos_site_id
 _symmetry_equiv_pos_as_xyz
  1  'x, y, z'
loop_
 _atom_site_type_symbol
 _atom_site_label
 _atom_site_symmetry_multiplicity
 _atom_site_fract_x
 _atom_site_fract_y
 _atom_site_fract_z
 _atom_site_occupancy
  Hf  Hf0  1  0.70024324  0.10260128  0.38915359  1
  Hf  Hf1  1  0.00250434  0.61000262  -0.00627496  1
  Hf  Hf2  1  -0.03197077  0.60310159  0.26076104  1
  Hf  Hf3  1  0.59411140  -0.01749956  0.49583076  1
  Hf  Hf4  1  0.38548143  0.17507295  0.25106350  1
  Hf  Hf5  1  0.49799896  0.90589305  0.63779514  1
  Hf  Hf6  1  0.50361245  0.89880900  0.13109221  1
  Hf  Hf7  1  0.71867835  0.90392443  0.36660854  1
  Hf  Hf8  1  0.00044062  -0.00470786  0.25663662  1
  Hf  Hf9  1  0.10690524  0.30789275  0.14821452  1
  Hf  Hf10  1  0.39490778  0.39554841  0.24244930  1
  Hf  Hf11  1  0.39172095  0.38088902  0.50880186  1
  Hf  Hf12  1  0.60919102  -0.00440747  -0.00751205  1
  Hf  Hf13  1  0.48209960  0.68596932  0.88044967  1
  Hf  Hf14  1  0.20096827  -0.00813890  -0.00027798  1
  Hf  Hf15  1  0.08639680  0.51300390  0.62729554  1
  Hf  Hf16  1  0.60195805  0.78333778  0.75781578  1
  Hf  Hf17  1  0.19866000  0.39990730  0.00118731  1
  Hf  Hf18  1  -0.01389414  0.38329894  0.51070211  1
  Hf  Hf19  1  0.21013998  0.60678960  -0.00464191  1
  Hf  Hf20  1  0.79995808  0.41557279  0.24823829  1
  Hf  Hf21  1  -0.01590017  0.40261905  0.74043556  1
  Hf  Hf22  1  0.51591461  0.88424817  0.35316290  1
  Hf  Hf23  1  0.49944406  0.89027997  0.87079047  1
  Hf  Hf24  1  0.38890428  0.78794208  0.00744966  1
  Hf  Hf25  1  0.70585444  0.88690881  0.62834783  1
  Hf  Hf26  1  -0.01138040  0.39840874  0.01780607  1
  Hf  Hf27  1  0.88131693  0.49708102  0.88703568  1
  Hf  Hf28  1  0.21231636  0.20793596  0.74376860  1
  Hf  Hf29  1  0.20299628  -0.01695381  0.73986731  1
  Hf  Hf30  1  0.28502034  0.29902711  0.36356892  1
  Hf  Hf31  1  0.40142741  0.60341054  0.73803409  1
  Hf  Hf32  1  0.18964392  0.40495289  0.51124474  1
  Hf  Hf33  1  0.49201375  0.10648869  0.11381763  1
  Hf  Hf34  1  0.31633543  0.91153552  0.37520061  1
  Hf  Hf35  1  0.58730235  0.59030154  0.00346210  1
  Hf  Hf36  1  0.20620278  0.60874584  0.75399405  1
  Hf  Hf37  1  0.82380498  0.79505208  0.24924376  1
  Hf  Hf38  1  0.09933201  0.49577578  0.87007595  1
  Hf  Hf39  1  0.09354320  0.51082934  0.13808497  1
  Zr  Zr40  1  0.01077612  0.20401798  0.73339583  1
  Zr  Zr41  1  0.50803651  0.32423392  0.87165486  1
  Zr  Zr42  1  0.59912030  0.39543118  0.24318376  1
  Zr  Zr43  1  0.09654061  0.70960074  0.62562977  1
  Zr  Zr44  1  0.81018692  0.21063696  0.73743409  1
  Zr  Zr45  1  0.79604134  0.20612550  0.25523933  1
  Zr  Zr46  1  0.70898626  0.68766413  0.12507874  1
  Zr  Zr47  1  0.00245228  0.00164932  0.74479728  1
  Zr  Zr48  1  0.48849311  0.69242265  0.36217087  1
  Zr  Zr49  1  0.39189521  0.39966674  0.73881466  1
  Zr  Zr50  1  0.20645128  0.20202255  0.50795797  1
  Zr  Zr51  1  0.00701126  0.19965139  0.00865157  1
  Zr  Zr52  1  0.30185810  0.51085812  0.37821208  1
  Zr  Zr53  1  0.80199358  0.00325632  0.74422968  1
  Zr  Zr54  1  0.30060622  0.28396101  0.12299560  1
  Zr  Zr55  1  -0.00100635  -0.00486535  0.00076066  1
  Zr  Zr56  1  0.23072426  0.00602417  0.24239978  1
  Zr  Zr57  1  0.51478752  0.49647790  0.61638214  1
  Zr  Zr58  1  0.09605423  0.49300475  0.36613506  1
  Zr  Zr59  1  0.40882786  0.80629162  0.50276176  1
  Zr  Zr60  1  0.69788175  0.31856098  0.61709360  1
  Zr  Zr61  1  0.70063401  0.68828355  0.62288192  1
  Zr  Zr62  1  0.60720800  0.19663616  0.76146221  1
  Zr  Zr63  1  0.08213749  0.28481951  0.37156512  1
  Zr  Zr64  1  0.49849614  0.49525903  0.37619530  1
  Zr  Zr65  1  0.39552298  -0.00359118  -0.01118672  1
  Zr  Zr66  1  0.32822744  0.10757169  0.63316851  1
  Zr  Zr67  1  0.90687749  0.29819565  0.87767667  1
  Zr  Zr68  1  0.68946776  0.70880384  0.36722786  1
  Zr  Zr69  1  0.11567333  0.10612146  0.12898111  1
  Zr  Zr70  1  0.69829527  0.11214604  0.12227639  1
  Zr  Zr71  1  0.69203925  0.10139120  0.61066075  1
  Zr  Zr72  1  0.10074540  0.88715312  0.14129422  1
  Zr  Zr73  1  0.49273954  0.27298309  0.63536827  1
  Zr  Zr74  1  0.69026895  0.30076539  0.38215182  1
  Zr  Zr75  1  0.60568281  0.01569904  0.25136913  1
  Zr  Zr76  1  0.80417375  0.00716010  -0.00743496  1
  Zr  Zr77  1  0.79125673  0.59712517  0.76024117  1
  Zr  Zr78  1  0.80507456  0.80625875  0.00324892  1
  Zr  Zr79  1  0.91215379  0.09926078  0.38750699  1
  Ta  Ta80  1  0.71482444  0.90494668  0.13947712  1
  Ta  Ta81  1  0.59743622  0.58062973  0.76037398  1
  Ta  Ta82  1  0.19762235  0.81192177  0.49873053  1
  Ta  Ta83  1  0.90315515  0.89486402  0.86527903  1
  Ta  Ta84  1  0.00380368  0.80486053  0.74927934  1
  Ta  Ta85  1  0.60110403  0.79856788  0.00515412  1
  Ta  Ta86  1  0.89938301  0.69801600  0.62803906  1
  Ta  Ta87  1  0.38031961  0.80029487  0.74319187  1
  Ta  Ta88  1  0.69990578  0.51003929  0.37448793  1
  Ta  Ta89  1  0.49660172  0.69681054  0.13402466  1
  Ta  Ta90  1  0.10686405  0.09533893  0.61644116  1
  Ta  Ta91  1  0.87611772  0.50190598  0.62526978  1
  Ta  Ta92  1  0.91676509  0.88783107  0.38481522  1
  Ta  Ta93  1  0.40230715  0.20689996  -0.01712602  1
  Ta  Ta94  1  0.60846449  0.20716689  -0.01128214  1
  Ta  Ta95  1  0.29923327  0.30829312  0.87726698  1
  Ta  Ta96  1  0.10852265  0.71991724  0.86656017  1
  Ta  Ta97  1  0.28367889  0.87894784  0.86984707  1
  Ta  Ta98  1  0.11356946  0.90259724  0.37079711  1
  Ta  Ta99  1  -0.00656245  0.19549905  0.24757644  1
  Ta  Ta100  1  0.90950803  0.88927645  0.61823173  1
  Ta  Ta101  1  0.19259157  0.61443288  0.49341566  1
  Ta  Ta102  1  0.81962461  0.21475919  0.50219600  1
  Ta  Ta103  1  0.71379692  0.31258206  0.88328800  1
  Ta  Ta104  1  0.31650350  0.50625372  0.87825271  1
  Ta  Ta105  1  0.80148475  0.60347017  0.49276425  1
  Ta  Ta106  1  0.08918353  0.71021552  0.37145080  1
  Ta  Ta107  1  0.09880117  0.69952534  0.13832278  1
  Ta  Ta108  1  0.40329808  0.00261723  0.76201222  1
  Ta  Ta109  1  -0.01164587  0.59648495  0.49044172  1
  Ta  Ta110  1  0.79847389  0.41230258  0.48946986  1
  Ta  Ta111  1  0.40428406  0.41433313  0.00582566  1
  Ta  Ta112  1  0.28856688  0.70041549  0.13668226  1
  Ta  Ta113  1  0.10573801  0.09967164  0.87172546  1
  Ta  Ta114  1  0.89623310  0.09226849  0.13426006  1
  Ta  Ta115  1  0.50420932  0.70254764  0.62280275  1
  Ta  Ta116  1  0.70716176  0.89048436  0.86473341  1
  Ta  Ta117  1  0.91267752  0.70696089  0.11931810  1
  Ta  Ta118  1  0.19336162  0.79784571  0.00442888  1
  Ta  Ta119  1  0.00692680  0.80455809  -0.00569203  1
  Ti  Ti120  1  0.19554488  0.40214047  0.73971565  1
  Ti  Ti121  1  0.49885039  0.49887323  0.12856152  1
  Ti  Ti122  1  0.69986875  0.69462956  0.88771457  1
  Ti  Ti123  1  0.60693249  0.59377801  0.24119970  1
  Ti  Ti124  1  0.29993643  0.10065809  0.86801763  1
  Ti  Ti125  1  0.39635717  0.60332427  0.50609318  1
  Ti  Ti126  1  0.50525392  0.29866773  0.11311517  1
  Ti  Ti127  1  0.29048665  0.71184320  0.37334159  1
  Ti  Ti128  1  0.60329701  0.00142738  0.75751513  1
  Ti  Ti129  1  0.81140534  0.21078878  0.00786253  1
  Ti  Ti130  1  0.59583845  0.39954419  0.49276557  1
  Ti  Ti131  1  0.40320867  0.01206623  0.50679643  1
  Ti  Ti132  1  0.87332357  0.51550084  0.11313604  1
  Ti  Ti133  1  0.48420384  0.08855114  0.37300659  1
  Ti  Ti134  1  0.80191621  0.79583669  0.49620487  1
  Ti  Ti135  1  0.48745820  0.28793207  0.37600524  1
  Ti  Ti136  1  -0.00637617  0.60647914  0.75928429  1
  Ti  Ti137  1  0.90787360  0.10363947  0.87221877  1
  Ti  Ti138  1  0.58710605  0.20569615  0.25230443  1
  Ti  Ti139  1  0.38554882  0.80647624  0.23837549  1
  Ti  Ti140  1  0.29265117  0.50978011  0.61652188  1
  Ti  Ti141  1  0.20718810  0.19598797  -0.01014609  1
  Ti  Ti142  1  0.81071725  -0.00742729  0.50521896  1
  Ti  Ti143  1  0.39377037  0.59911932  0.24211114  1
  Ti  Ti144  1  0.19832275  0.60460624  0.25965064  1
  Ti  Ti145  1  0.00245147  0.79430813  0.50009926  1
  Ti  Ti146  1  0.21068498  -0.00167106  0.50603139  1
  Ti  Ti147  1  0.50451848  0.10363461  0.87698844  1
  Ti  Ti148  1  -0.01761712  0.39497322  0.24838159  1
  Ti  Ti149  1  0.29098352  0.49985644  0.13138166  1
  Ti  Ti150  1  0.90853002  0.09873298  0.60914449  1
  Ti  Ti151  1  0.29779067  0.71011980  0.61470944  1
  Ti  Ti152  1  0.71300575  0.10717606  0.87663032  1
  Ti  Ti153  1  0.01847729  -0.00653506  0.49925821  1
  Ti  Ti154  1  0.57521589  0.19166144  0.49844384  1
  Ti  Ti155  1  0.70494803  0.31126689  0.11449367  1
  Ti  Ti156  1  0.10532518  0.29772523  0.87216928  1
  Ti  Ti157  1  0.68527361  0.48970627  0.89104738  1
  Ti  Ti158  1  0.59916732  0.60603025  0.49579056  1
  Ti  Ti159  1  0.89632540  0.70754624  0.87352999  1
  Mo  Mo160  1  0.89386733  0.30481001  0.62439328  1
  Mo  Mo161  1  0.19822839  0.80068996  0.73992665  1
  Mo  Mo162  1  0.40904089  -0.00272130  0.24382848  1
  Mo  Mo163  1  0.89385788  0.49439088  0.38007267  1
  Mo  Mo164  1  0.40136083  0.19220624  0.48938027  1
  Mo  Mo165  1  0.79906611  0.60427227  -0.01168488  1
  Mo  Mo166  1  0.79346814  0.59761215  0.25213130  1
  Mo  Mo167  1  0.19983190  0.40847954  0.24889372  1
  Mo  Mo168  1  0.89476949  0.70302219  0.38806068  1
  Mo  Mo169  1  0.30940756  0.09970131  0.10437056  1
  Mo  Mo170  1  0.89561203  0.29423150  0.12984869  1
  Mo  Mo171  1  0.81259085  0.00291185  0.25227769  1
  Mo  Mo172  1  0.50762845  0.09227758  0.63318926  1
  Mo  Mo173  1  0.39233821  0.59402566  0.01872893  1
  Mo  Mo174  1  0.89644797  0.29996996  0.37517599  1
  Mo  Mo175  1  0.49637635  0.50004839  0.87616554  1
  Mo  Mo176  1  0.29750495  0.69862099  0.87357255  1
  Mo  Mo177  1  0.79312365  0.40017973  0.01202602  1
  Mo  Mo178  1  0.09910313  0.90337836  0.61153329  1
  Mo  Mo179  1  0.90146628  0.89952516  0.12820207  1
  Mo  Mo180  1  0.19110057  0.19366521  0.26171247  1
  Mo  Mo181  1  0.59481552  0.39513751  0.01260124  1
  Mo  Mo182  1  0.60574156  0.79563260  0.22919990  1
  Mo  Mo183  1  0.20565674  0.79430340  0.26072519  1
  Mo  Mo184  1  0.29838831  0.30809079  0.62814777  1
  Mo  Mo185  1  0.00683158  0.79675911  0.25791810  1
  Mo  Mo186  1  0.30116714  0.90013129  0.61979498  1
  Mo  Mo187  1  0.00612295  0.18978128  0.51518534  1
  Mo  Mo188  1  0.30209704  0.89059742  0.12245625  1
  Mo  Mo189  1  0.69511621  0.50504544  0.61217447  1
  Mo  Mo190  1  0.60547959  0.79468852  0.50342617  1
  Mo  Mo191  1  0.29786062  0.09628177  0.38546961  1
  Mo  Mo192  1  0.09717475  0.90183297  0.87381271  1
  Mo  Mo193  1  0.81148226  0.79605885  0.75385888  1
  Mo  Mo194  1  0.78233570  0.40935393  0.75172207  1
  Mo  Mo195  1  0.10240866  0.30323862  0.62944719  1
  Mo  Mo196  1  0.11331369  0.09031150  0.38148202  1
  Mo  Mo197  1  0.61482580  0.40766696  0.75113769  1
  Mo  Mo198  1  0.40169492  0.19501653  0.77606269  1
  Mo  Mo199  1  0.69303879  0.49778384  0.11633488  1
