# generated using pymatgen
data_HfZrTaTiMo
_symmetry_space_group_name_H-M   'P 1'
_cell_length_a   15.22618308
_cell_length_b   15.19460729
_cell_length_c   16.83847416
_cell_angle_alpha   89.97536056
_cell_angle_beta   90.03281387
_cell_angle_gamma   90.01266378
_symmetry_Int_Tables_number   1
_chemical_formula_structural   HfZrTaTiMo
_chemical_formula_sum   'Hf40 Zr40 Ta40 Ti40 Mo40'
_cell_volume   3895.67878626
_cell_formula_units_Z   40
loop_
 _symmetry_equiv_pos_site_id
 _symmetry_equiv_pos_as_xyz
  1  'x, y, z'
loop_
 _atom_site_type_symbol
 _atom_site_label
 _atom_site_symmetry_multiplicity
 _atom_site_fract_x
 _atom_site_fract_y
 _atom_site_fract_z
 _atom_site_occupancy
  Hf  Hf0  1  0.50596183  0.69636344  0.12558396  1
  Hf  Hf1  1  0.78245390  0.19494073  0.75593050  1
  Hf  Hf2  1  0.78724896  0.59659150  0.23201416  1
  Hf  Hf3  1  0.19348774  0.61732278  0.00276524  1
  Hf  Hf4  1  0.40079091  0.61658958  0.26930285  1
  Hf  Hf5  1  0.12692669  0.89980283  0.13343838  1
  Hf  Hf6  1  0.20664191  0.40231168  0.50382761  1
  Hf  Hf7  1  0.39907593  0.61108852  0.48021477  1
  Hf  Hf8  1  0.80095189  0.39934317  0.01512348  1
  Hf  Hf9  1  0.61353300  0.79607090  0.73971576  1
  Hf  Hf10  1  0.31212049  0.51695853  0.12279190  1
  Hf  Hf11  1  0.30007953  0.10564031  0.86931419  1
  Hf  Hf12  1  0.11652774  0.69554964  0.62815431  1
  Hf  Hf13  1  0.69676574  0.69138667  0.88464608  1
  Hf  Hf14  1  0.30723716  0.73080643  0.12409486  1
  Hf  Hf15  1  0.10456216  0.88897661  0.86367531  1
  Hf  Hf16  1  0.89560425  0.08765615  0.62790924  1
  Hf  Hf17  1  0.01541294  0.78783076  0.00646248  1
  Hf  Hf18  1  0.20103579  0.20564177  0.74993190  1
  Hf  Hf19  1  0.00728812  0.58182164  0.51731430  1
  Hf  Hf20  1  0.59699146  0.79130625  0.25159563  1
  Hf  Hf21  1  0.90748586  0.29106383  0.63814339  1
  Hf  Hf22  1  0.00506082  0.59112608  0.74889441  1
  Hf  Hf23  1  0.30138854  0.91361403  0.86505179  1
  Hf  Hf24  1  0.29690951  0.71688562  0.87453147  1
  Hf  Hf25  1  0.68059577  0.09999197  0.62060497  1
  Hf  Hf26  1  0.79237405  0.20424409  0.50428823  1
  Hf  Hf27  1  0.71386468  0.49152395  0.37123486  1
  Hf  Hf28  1  0.31161817  0.31280704  0.63404149  1
  Hf  Hf29  1  0.78377365  -0.00938889  0.50651074  1
  Hf  Hf30  1  0.09278186  0.69220351  0.38629261  1
  Hf  Hf31  1  0.68175476  0.09423292  0.89380928  1
  Hf  Hf32  1  0.50135802  0.68458597  0.62260058  1
  Hf  Hf33  1  0.91477478  0.71504093  0.62972318  1
  Hf  Hf34  1  0.00379785  0.00980712  0.25559385  1
  Hf  Hf35  1  0.59116861  0.17498685  0.23443693  1
  Hf  Hf36  1  0.29673490  0.10918883  0.62091165  1
  Hf  Hf37  1  0.08828803  0.10536314  0.61887777  1
  Hf  Hf38  1  0.40812180  0.80101874  0.74646912  1
  Hf  Hf39  1  0.66618486  0.09271898  0.38169140  1
  Zr  Zr40  1  0.20408895  0.39845887  0.01075395  1
  Zr  Zr41  1  0.10554793  0.30790991  0.87595813  1
  Zr  Zr42  1  0.70417350  0.89267924  0.36834725  1
  Zr  Zr43  1  0.11252388  0.10240509  0.12097525  1
  Zr  Zr44  1  0.88295501  0.08459747  0.88187094  1
  Zr  Zr45  1  -0.01068624  0.21204934  0.24937645  1
  Zr  Zr46  1  0.20265337  0.40514950  0.23979715  1
  Zr  Zr47  1  0.68165223  0.29008348  0.88989251  1
  Zr  Zr48  1  0.00889644  0.78225851  0.23655354  1
  Zr  Zr49  1  0.40372861  0.39988547  0.00261856  1
  Zr  Zr50  1  0.41022708  0.41575770  0.48964863  1
  Zr  Zr51  1  0.39906034  0.21602860  0.48891656  1
  Zr  Zr52  1  0.89259861  0.69516185  0.37270320  1
  Zr  Zr53  1  0.91393071  0.49061553  0.37601743  1
  Zr  Zr54  1  0.80586904  0.79328575  0.00938464  1
  Zr  Zr55  1  0.42394178  0.60750317  -0.02051313  1
  Zr  Zr56  1  0.70201422  0.49114461  0.87563410  1
  Zr  Zr57  1  0.70554492  0.29266171  0.36430039  1
  Zr  Zr58  1  0.19076988  0.00840190  0.49319605  1
  Zr  Zr59  1  0.52178930  0.50266608  0.35741458  1
  Zr  Zr60  1  -0.00405186  0.20547145  -0.01015326  1
  Zr  Zr61  1  0.88756377  0.10842689  0.11504139  1
  Zr  Zr62  1  0.39681272  0.19734801  0.00263728  1
  Zr  Zr63  1  0.00076069  0.18741490  0.76542311  1
  Zr  Zr64  1  0.87778707  0.10005316  0.36902491  1
  Zr  Zr65  1  0.20944237  0.59941526  0.75593749  1
  Zr  Zr66  1  0.80614305  0.39985657  0.51405751  1
  Zr  Zr67  1  0.79071157  0.60609698  0.73958823  1
  Zr  Zr68  1  0.79235794  0.59842701  0.52067531  1
  Zr  Zr69  1  0.70723718  0.89832287  0.87881743  1
  Zr  Zr70  1  0.82303863  0.39278603  0.22360360  1
  Zr  Zr71  1  0.09328082  0.89448518  0.37271228  1
  Zr  Zr72  1  0.40521826  0.01236043  0.73897115  1
  Zr  Zr73  1  0.09287472  0.30635257  0.37346184  1
  Zr  Zr74  1  0.90069933  0.90211311  0.13503254  1
  Zr  Zr75  1  0.19669168  0.61513921  0.24579423  1
  Zr  Zr76  1  0.00498447  -0.01190100  -0.00303052  1
  Zr  Zr77  1  0.21239176  0.79691635  0.49775333  1
  Zr  Zr78  1  0.81239938  0.80287879  0.50677423  1
  Zr  Zr79  1  0.08036808  0.89371168  0.62722954  1
  Ta  Ta80  1  0.61884143  0.39592718  0.22575334  1
  Ta  Ta81  1  0.31303079  0.51514923  0.63015524  1
  Ta  Ta82  1  0.59264349  0.40157252  0.01563884  1
  Ta  Ta83  1  0.89916006  0.49866372  0.86922602  1
  Ta  Ta84  1  0.48248799  0.89804437  0.13401312  1
  Ta  Ta85  1  0.10943153  0.49881816  0.37319095  1
  Ta  Ta86  1  0.21265694  0.00619696  0.26707592  1
  Ta  Ta87  1  -0.01831061  -0.01352066  0.48900930  1
  Ta  Ta88  1  0.41311511  0.80890277  0.49314286  1
  Ta  Ta89  1  -0.00253151  0.58270556  0.24132022  1
  Ta  Ta90  1  0.30806784  0.30733958  0.86720996  1
  Ta  Ta91  1  0.60525080  0.38871876  0.49955504  1
  Ta  Ta92  1  0.40431857  0.40083449  0.24839404  1
  Ta  Ta93  1  0.57311149  -0.01104686  0.00789489  1
  Ta  Ta94  1  0.50713274  0.90919498  0.61584587  1
  Ta  Ta95  1  0.67730327  0.48782671  0.63836404  1
  Ta  Ta96  1  0.41189641  0.81973380  -0.00674905  1
  Ta  Ta97  1  0.40928619  0.41343336  0.76069848  1
  Ta  Ta98  1  0.40945945  0.59974108  0.76853149  1
  Ta  Ta99  1  0.40051586  0.81550356  0.27363784  1
  Ta  Ta100  1  0.51280159  0.30923616  0.62834180  1
  Ta  Ta101  1  -0.00906996  0.59718198  -0.00712978  1
  Ta  Ta102  1  0.77042848  0.00442408  0.23666819  1
  Ta  Ta103  1  0.49736323  0.29559517  0.13653478  1
  Ta  Ta104  1  0.61176615  0.79561705  0.51082627  1
  Ta  Ta105  1  -0.00369685  0.40629971  0.00045451  1
  Ta  Ta106  1  0.51297521  0.91491574  0.38228057  1
  Ta  Ta107  1  0.88581725  0.31094321  0.86918532  1
  Ta  Ta108  1  0.39942115  0.00707233  0.49542891  1
  Ta  Ta109  1  0.19071460  0.00120856  0.73831608  1
  Ta  Ta110  1  0.09533433  0.30202289  0.12542338  1
  Ta  Ta111  1  0.79288337  0.79261451  0.23438682  1
  Ta  Ta112  1  0.49776603  0.11529895  0.61475974  1
  Ta  Ta113  1  0.40443441  0.01859316  0.26625122  1
  Ta  Ta114  1  0.59830046  0.58761640  0.50598765  1
  Ta  Ta115  1  0.20161890  0.19138181  0.26227793  1
  Ta  Ta116  1  0.21125164  0.58989511  0.49758383  1
  Ta  Ta117  1  0.68847340  0.68714669  0.37658208  1
  Ta  Ta118  1  0.50683464  0.90488378  0.87059245  1
  Ta  Ta119  1  0.51107542  0.29249006  0.35499422  1
  Ti  Ti120  1  0.90322712  0.68491156  0.11953227  1
  Ti  Ti121  1  0.29925877  0.90012142  0.62504745  1
  Ti  Ti122  1  0.41895065  0.21394589  0.75470272  1
  Ti  Ti123  1  0.00659841  0.39006854  0.51083355  1
  Ti  Ti124  1  0.20313479  0.19784044  -0.00125378  1
  Ti  Ti125  1  -0.01536799  -0.01774323  0.75985430  1
  Ti  Ti126  1  0.79087131  -0.00925232  0.00985321  1
  Ti  Ti127  1  0.69546208  0.29835370  0.63626066  1
  Ti  Ti128  1  0.09217414  0.50777186  0.11842361  1
  Ti  Ti129  1  0.10065428  0.50193207  0.88117686  1
  Ti  Ti130  1  0.30383049  0.30770707  0.36322173  1
  Ti  Ti131  1  0.59416900  0.79131961  0.00097117  1
  Ti  Ti132  1  0.21339688  0.82461505  0.00231956  1
  Ti  Ti133  1  0.49885849  0.10682495  0.88021560  1
  Ti  Ti134  1  0.47362060  0.09048572  0.12293043  1
  Ti  Ti135  1  0.10896256  0.08627949  0.87888512  1
  Ti  Ti136  1  0.68256482  0.89365367  0.12337231  1
  Ti  Ti137  1  0.30614275  0.90955175  0.38318281  1
  Ti  Ti138  1  0.09801028  0.70001737  0.86437100  1
  Ti  Ti139  1  0.29942544  0.28125073  0.13626636  1
  Ti  Ti140  1  0.78603062  0.20223602  0.22979887  1
  Ti  Ti141  1  0.29765082  0.50018444  0.88059458  1
  Ti  Ti142  1  0.89392574  0.89425950  0.35544085  1
  Ti  Ti143  1  0.00800885  0.39674394  0.75256928  1
  Ti  Ti144  1  0.50889611  0.50595321  0.13716332  1
  Ti  Ti145  1  0.20199394  0.41157871  0.74622754  1
  Ti  Ti146  1  0.90151285  0.70399839  0.87139528  1
  Ti  Ti147  1  0.21528734  0.80524796  0.26274187  1
  Ti  Ti148  1  0.59285472  0.38739291  0.75976796  1
  Ti  Ti149  1  0.59800910  0.00600242  0.74768574  1
  Ti  Ti150  1  0.68259089  0.09659343  0.10346956  1
  Ti  Ti151  1  0.89867174  0.48549273  0.64269666  1
  Ti  Ti152  1  0.30874416  0.70483752  0.62748145  1
  Ti  Ti153  1  0.81215088  0.80805931  0.74556518  1
  Ti  Ti154  1  0.19358248  0.20524859  0.48754849  1
  Ti  Ti155  1  -0.00228436  0.19191751  0.48805725  1
  Ti  Ti156  1  0.78979427  -0.01173510  0.74386777  1
  Ti  Ti157  1  0.10495474  0.30173810  0.62561550  1
  Ti  Ti158  1  0.58702566  0.59040646  0.75641336  1
  Ti  Ti159  1  0.89707063  0.30407501  0.37550657  1
  Mo  Mo160  1  0.69687141  0.70032399  0.11364170  1
  Mo  Mo161  1  0.21004566  0.00722296  -0.00344301  1
  Mo  Mo162  1  0.80022638  0.39619593  0.74670998  1
  Mo  Mo163  1  0.49643839  0.49380086  0.62965062  1
  Mo  Mo164  1  0.60963467  0.59434016  0.00342283  1
  Mo  Mo165  1  0.69737875  0.69200344  0.62494208  1
  Mo  Mo166  1  0.29537667  0.10904506  0.38158684  1
  Mo  Mo167  1  0.69376653  0.50656216  0.11383834  1
  Mo  Mo168  1  0.58718065  -0.00530207  0.50552928  1
  Mo  Mo169  1  0.90656703  0.50380545  0.11486086  1
  Mo  Mo170  1  0.60379696  0.59863616  0.24777687  1
  Mo  Mo171  1  0.29611059  0.09318088  0.13116503  1
  Mo  Mo172  1  0.10598308  0.69797479  0.12061297  1
  Mo  Mo173  1  0.80909771  0.59813093  0.00142697  1
  Mo  Mo174  1  0.50913772  0.70865819  0.87183778  1
  Mo  Mo175  1  0.09235810  0.10481144  0.38269932  1
  Mo  Mo176  1  0.39075844  0.20572165  0.25211178  1
  Mo  Mo177  1  0.58916431  -0.00804563  0.23500033  1
  Mo  Mo178  1  0.58460372  0.19702151  0.01858620  1
  Mo  Mo179  1  0.89946733  0.90658794  0.62949297  1
  Mo  Mo180  1  0.29837364  0.71123737  0.37769060  1
  Mo  Mo181  1  0.79262900  0.19754189  0.00182518  1
  Mo  Mo182  1  0.10910130  0.48500514  0.63029095  1
  Mo  Mo183  1  0.49750405  0.29739930  0.87726206  1
  Mo  Mo184  1  0.69814230  0.89856151  0.63368996  1
  Mo  Mo185  1  0.59285224  0.21059656  0.49864158  1
  Mo  Mo186  1  0.90842342  0.29720105  0.11391844  1
  Mo  Mo187  1  0.29838765  0.49866453  0.36844169  1
  Mo  Mo188  1  0.51162675  0.71435381  0.38569213  1
  Mo  Mo189  1  0.50972779  0.49292770  0.87766301  1
  Mo  Mo190  1  0.31040526  0.92096578  0.13512850  1
  Mo  Mo191  1  0.69708867  0.28655287  0.11123090  1
  Mo  Mo192  1  0.39297403  -0.00331917  -0.00377057  1
  Mo  Mo193  1  0.00035633  0.80016381  0.49628507  1
  Mo  Mo194  1  0.49123118  0.10478752  0.37817353  1
  Mo  Mo195  1  0.90083676  0.88890507  0.87350195  1
  Mo  Mo196  1  -0.00132489  0.79325478  0.76122976  1
  Mo  Mo197  1  0.58883131  0.19335072  0.75193103  1
  Mo  Mo198  1  0.01060091  0.40595920  0.24029801  1
  Mo  Mo199  1  0.20776504  0.80775790  0.73828567  1
