# generated using pymatgen
data_HfZrTaTiMo
_symmetry_space_group_name_H-M   'P 1'
_cell_length_a   15.20651546
_cell_length_b   15.20809102
_cell_length_c   16.85354909
_cell_angle_alpha   89.98966569
_cell_angle_beta   89.95887783
_cell_angle_gamma   90.02841298
_symmetry_Int_Tables_number   1
_chemical_formula_structural   HfZrTaTiMo
_chemical_formula_sum   'Hf40 Zr40 Ta40 Ti40 Mo40'
_cell_volume   3897.58512563
_cell_formula_units_Z   40
loop_
 _symmetry_equiv_pos_site_id
 _symmetry_equiv_pos_as_xyz
  1  'x, y, z'
loop_
 _atom_site_type_symbol
 _atom_site_label
 _atom_site_symmetry_multiplicity
 _atom_site_fract_x
 _atom_site_fract_y
 _atom_site_fract_z
 _atom_site_occupancy
  Hf  Hf0  1  0.50656195  0.50051969  0.62174034  1
  Hf  Hf1  1  0.70835396  0.71099337  0.63158056  1
  Hf  Hf2  1  0.60012571  0.21550974  0.49834758  1
  Hf  Hf3  1  0.00543249  0.79917503  0.49842157  1
  Hf  Hf4  1  0.87130583  0.11259067  0.86117557  1
  Hf  Hf5  1  0.10316879  0.29920745  0.63411245  1
  Hf  Hf6  1  0.10217683  0.88388443  0.86753419  1
  Hf  Hf7  1  0.58736802  0.01422311  0.00192292  1
  Hf  Hf8  1  0.69195856  0.90749381  0.12672210  1
  Hf  Hf9  1  0.30632419  0.88493433  0.62651393  1
  Hf  Hf10  1  0.00403434  0.19766006  0.50528746  1
  Hf  Hf11  1  0.92036867  0.69576089  0.64432025  1
  Hf  Hf12  1  0.79387808  0.42181034  0.24600356  1
  Hf  Hf13  1  0.59748745  0.60546486  0.75701503  1
  Hf  Hf14  1  0.79346297  0.01599234  -0.00770173  1
  Hf  Hf15  1  0.70428282  0.69299685  0.12776429  1
  Hf  Hf16  1  0.88008278  0.89484203  0.64527364  1
  Hf  Hf17  1  0.01656864  0.80150621  0.24849429  1
  Hf  Hf18  1  0.39707140  0.20198257  0.49816722  1
  Hf  Hf19  1  0.69789997  0.12128890  0.12438697  1
  Hf  Hf20  1  0.89754204  0.31008883  0.12180092  1
  Hf  Hf21  1  0.70702885  0.91203326  0.37035712  1
  Hf  Hf22  1  0.70361806  0.70470859  0.87889775  1
  Hf  Hf23  1  0.10278955  0.30351407  0.12226130  1
  Hf  Hf24  1  0.29290084  0.69728119  0.88955222  1
  Hf  Hf25  1  0.38681519  0.00207315  0.01757462  1
  Hf  Hf26  1  0.30093640  0.49212961  0.37034420  1
  Hf  Hf27  1  0.29935377  0.07762881  0.38070453  1
  Hf  Hf28  1  -0.00378507  0.19509398  0.25119553  1
  Hf  Hf29  1  0.40789212  0.58299799  0.23123151  1
  Hf  Hf30  1  0.39653137  0.78491909  0.49288045  1
  Hf  Hf31  1  0.81391840  0.02071846  0.24752043  1
  Hf  Hf32  1  0.09741691  0.09327584  0.12052509  1
  Hf  Hf33  1  0.30195097  0.69487397  0.35846562  1
  Hf  Hf34  1  -0.00695041  0.40816650  0.49986197  1
  Hf  Hf35  1  0.58369003  0.60950349  0.48268879  1
  Hf  Hf36  1  0.09074795  0.88054041  0.64096279  1
  Hf  Hf37  1  0.71101528  0.31484383  0.38373569  1
  Hf  Hf38  1  0.40935049  0.40450108  -0.00636124  1
  Hf  Hf39  1  0.09051278  0.08703113  0.37628893  1
  Zr  Zr40  1  0.61649094  0.39777494  -0.01165822  1
  Zr  Zr41  1  0.60167884  0.82058075  0.75159143  1
  Zr  Zr42  1  0.80104220  0.80657662  0.00014304  1
  Zr  Zr43  1  0.20819932  -0.00329818  0.75232610  1
  Zr  Zr44  1  0.41202566  0.19087500  0.00274958  1
  Zr  Zr45  1  0.30110971  0.30000656  0.13076959  1
  Zr  Zr46  1  0.49116510  0.90446242  0.87974773  1
  Zr  Zr47  1  0.09569672  0.50624317  0.62835880  1
  Zr  Zr48  1  0.49846718  0.10037071  0.37694109  1
  Zr  Zr49  1  0.40776158  0.18462287  0.74726624  1
  Zr  Zr50  1  0.71044509  0.32280314  0.62358459  1
  Zr  Zr51  1  0.51283039  0.30475293  0.12758458  1
  Zr  Zr52  1  0.59296226  0.00619038  0.25160797  1
  Zr  Zr53  1  0.80397931  0.80734585  0.24915160  1
  Zr  Zr54  1  0.91057821  0.69478481  0.36412233  1
  Zr  Zr55  1  0.39368936  0.80119634  0.02095435  1
  Zr  Zr56  1  0.30565223  0.30049227  0.62856716  1
  Zr  Zr57  1  0.79833928  0.58472838  0.50739070  1
  Zr  Zr58  1  0.60193152  0.80504630  0.49011523  1
  Zr  Zr59  1  -0.00029542  0.41815920  -0.00860151  1
  Zr  Zr60  1  0.30604666  0.29128089  0.87314386  1
  Zr  Zr61  1  0.20138220  0.39169198  0.49554942  1
  Zr  Zr62  1  0.90798901  0.30627300  0.37695560  1
  Zr  Zr63  1  0.58787047  0.79416332  0.25603374  1
  Zr  Zr64  1  0.59443930  0.00106744  0.50065020  1
  Zr  Zr65  1  0.39480732  0.59861145  0.75917582  1
  Zr  Zr66  1  0.52329302  0.28584186  0.86750200  1
  Zr  Zr67  1  0.80955502  0.58921470  0.00290842  1
  Zr  Zr68  1  0.40076772  0.19423565  0.25250788  1
  Zr  Zr69  1  0.90924324  0.91774924  0.12278271  1
  Zr  Zr70  1  0.19338057  -0.01369565  0.50800191  1
  Zr  Zr71  1  0.18856939  0.57909739  0.23442659  1
  Zr  Zr72  1  -0.00428967  0.79044432  -0.01011913  1
  Zr  Zr73  1  0.69798788  0.10880658  0.63419791  1
  Zr  Zr74  1  -0.00243884  0.20225570  -0.01684966  1
  Zr  Zr75  1  0.10179838  0.89319140  0.11745723  1
  Zr  Zr76  1  0.80699968  0.80363508  0.49540224  1
  Zr  Zr77  1  -0.00279505  0.00334718  0.76009918  1
  Zr  Zr78  1  0.00083343  0.20447769  0.75958430  1
  Zr  Zr79  1  0.48712673  0.70495679  0.62637556  1
  Ta  Ta80  1  0.90802111  0.69649426  0.13273304  1
  Ta  Ta81  1  0.79870524  0.21211585  0.25051816  1
  Ta  Ta82  1  0.80141536  0.00664440  0.50820715  1
  Ta  Ta83  1  0.70204087  0.31198211  0.12977401  1
  Ta  Ta84  1  0.39502762  0.58904720  0.01490372  1
  Ta  Ta85  1  0.51078383  0.68534542  0.11603878  1
  Ta  Ta86  1  -0.00969335  -0.00495073  0.51424458  1
  Ta  Ta87  1  0.00998325  0.60671491  0.50010780  1
  Ta  Ta88  1  0.20077208  0.59639553  0.75290134  1
  Ta  Ta89  1  0.70562288  0.49902579  0.87470122  1
  Ta  Ta90  1  0.09327640  0.50115362  0.37704231  1
  Ta  Ta91  1  0.20433082  0.40173277  -0.00374424  1
  Ta  Ta92  1  0.10745478  0.30617357  0.87321853  1
  Ta  Ta93  1  0.19648378  0.78195872  0.50237587  1
  Ta  Ta94  1  0.49789807  0.69252801  0.89515041  1
  Ta  Ta95  1  0.47359206  0.89967870  0.37190890  1
  Ta  Ta96  1  0.10789085  0.89050467  0.37244908  1
  Ta  Ta97  1  0.60737679  0.21430585  0.26350142  1
  Ta  Ta98  1  0.59623207  0.80232070  0.00627761  1
  Ta  Ta99  1  0.19634474  0.19421392  0.25693825  1
  Ta  Ta100  1  0.40974097  0.40539828  0.75769300  1
  Ta  Ta101  1  0.91711354  0.91743415  0.37240279  1
  Ta  Ta102  1  0.19565119  -0.00132830  -0.00966211  1
  Ta  Ta103  1  0.39354081  0.79592482  0.75711622  1
  Ta  Ta104  1  0.20608378  0.40515014  0.75564862  1
  Ta  Ta105  1  0.70842136  0.68939608  0.36574406  1
  Ta  Ta106  1  0.60455141  0.59071546  0.26019052  1
  Ta  Ta107  1  0.70991941  0.11364813  0.38188675  1
  Ta  Ta108  1  0.30080516  0.09190094  0.61617856  1
  Ta  Ta109  1  0.89824322  0.29987976  0.62804293  1
  Ta  Ta110  1  0.20030249  0.19197929  0.75497583  1
  Ta  Ta111  1  0.60942362  0.41034794  0.75449898  1
  Ta  Ta112  1  0.39628962  0.79701121  0.23218395  1
  Ta  Ta113  1  -0.00229158  0.00416495  -0.02628086  1
  Ta  Ta114  1  0.89369268  0.10380259  0.38654008  1
  Ta  Ta115  1  0.30620397  0.50548998  0.62037197  1
  Ta  Ta116  1  0.41509235  0.40266087  0.49206481  1
  Ta  Ta117  1  0.01401828  0.40956521  0.25111598  1
  Ta  Ta118  1  0.61073942  0.41983025  0.49159463  1
  Ta  Ta119  1  0.50798663  0.30530707  0.63049579  1
  Ti  Ti120  1  0.19888071  0.19688671  0.49282266  1
  Ti  Ti121  1  0.29918019  0.89356979  0.87672641  1
  Ti  Ti122  1  0.28744613  0.69262483  0.12567312  1
  Ti  Ti123  1  0.89550079  0.10503537  0.63353252  1
  Ti  Ti124  1  0.90401198  0.69591619  0.86337493  1
  Ti  Ti125  1  0.78713612  0.22410591  -0.00748087  1
  Ti  Ti126  1  0.89783096  0.49621874  0.87036398  1
  Ti  Ti127  1  0.19809703  0.77753973  0.75103498  1
  Ti  Ti128  1  0.91552918  0.51201082  0.13020413  1
  Ti  Ti129  1  0.49926381  0.10234126  0.13480052  1
  Ti  Ti130  1  0.68135127  0.50279247  0.12039123  1
  Ti  Ti131  1  0.39200315  -0.00753830  0.23465767  1
  Ti  Ti132  1  0.10976970  0.69336927  0.36679802  1
  Ti  Ti133  1  0.09052359  0.68311482  0.12080961  1
  Ti  Ti134  1  0.19497034  0.79271468  0.00219230  1
  Ti  Ti135  1  0.76893290  -0.00769144  0.75138088  1
  Ti  Ti136  1  0.18715501  0.58538070  0.00670893  1
  Ti  Ti137  1  0.72412587  0.30099570  0.85510732  1
  Ti  Ti138  1  0.89285232  0.50727509  0.36937020  1
  Ti  Ti139  1  0.69246286  0.91026022  0.88010175  1
  Ti  Ti140  1  0.19339609  -0.00681329  0.24855502  1
  Ti  Ti141  1  0.89968788  0.11347574  0.11224513  1
  Ti  Ti142  1  -0.00088679  0.40421220  0.76041210  1
  Ti  Ti143  1  0.01591197  0.59927472  0.76775740  1
  Ti  Ti144  1  0.30362763  0.29575646  0.36633704  1
  Ti  Ti145  1  0.30462063  0.08938514  0.87443187  1
  Ti  Ti146  1  0.67129332  0.11484669  0.85758135  1
  Ti  Ti147  1  0.10267911  0.09770190  0.62635505  1
  Ti  Ti148  1  0.58475341  0.40814019  0.26405322  1
  Ti  Ti149  1  0.40591210  -0.00759408  0.74868822  1
  Ti  Ti150  1  0.49516932  0.09985257  0.61959845  1
  Ti  Ti151  1  0.28585631  0.90115325  0.13165302  1
  Ti  Ti152  1  0.50204969  0.90777629  0.62430939  1
  Ti  Ti153  1  0.88606459  0.89329303  0.85952309  1
  Ti  Ti154  1  0.20579280  0.60041704  0.50048954  1
  Ti  Ti155  1  0.20532312  0.19036181  -0.00452063  1
  Ti  Ti156  1  0.79869411  0.59257839  0.75011531  1
  Ti  Ti157  1  0.29847920  0.49952157  0.88058722  1
  Ti  Ti158  1  0.89010316  0.49171035  0.63480159  1
  Ti  Ti159  1  0.29097009  0.88748754  0.36472480  1
  Mo  Mo160  1  0.10953192  0.69206623  0.62588730  1
  Mo  Mo161  1  0.11136791  0.10220357  0.87988521  1
  Mo  Mo162  1  0.38905649  0.59218641  0.49577659  1
  Mo  Mo163  1  0.29604166  0.48789433  0.11637253  1
  Mo  Mo164  1  0.80993156  0.19820081  0.50686591  1
  Mo  Mo165  1  0.10998162  0.49800938  0.86868404  1
  Mo  Mo166  1  0.28965867  0.69091487  0.62624860  1
  Mo  Mo167  1  0.11117212  0.30131167  0.36854634  1
  Mo  Mo168  1  0.89615040  0.31267050  0.87245318  1
  Mo  Mo169  1  0.20623236  0.79443297  0.24189736  1
  Mo  Mo170  1  0.69391282  0.90617684  0.62627969  1
  Mo  Mo171  1  0.79628591  0.79814434  0.76178631  1
  Mo  Mo172  1  0.60053099  0.20941736  0.73766823  1
  Mo  Mo173  1  0.49501464  0.09573405  0.87179149  1
  Mo  Mo174  1  0.80597790  0.40590284  0.50286717  1
  Mo  Mo175  1  0.00303959  0.60337146  -0.00873405  1
  Mo  Mo176  1  0.69957041  0.51240030  0.63072937  1
  Mo  Mo177  1  0.49731541  0.31101253  0.37291501  1
  Mo  Mo178  1  0.49600752  0.50183248  0.37561331  1
  Mo  Mo179  1  0.58044015  0.01457269  0.74862735  1
  Mo  Mo180  1  0.28261714  0.09322154  0.13194378  1
  Mo  Mo181  1  0.40131471  0.39573744  0.25566367  1
  Mo  Mo182  1  0.80882556  0.40913561  0.75122625  1
  Mo  Mo183  1  0.80069883  0.20598440  0.74558616  1
  Mo  Mo184  1  -0.00310229  0.59450831  0.25179871  1
  Mo  Mo185  1  0.80329654  0.40293349  0.00282029  1
  Mo  Mo186  1  0.00104715  0.78709647  0.76451841  1
  Mo  Mo187  1  0.79934523  0.59999357  0.23950438  1
  Mo  Mo188  1  0.49210571  0.70145825  0.36064023  1
  Mo  Mo189  1  0.59471141  0.59803096  -0.00584532  1
  Mo  Mo190  1  0.00464066  0.00494501  0.25301291  1
  Mo  Mo191  1  0.39658797  -0.01015342  0.50541210  1
  Mo  Mo192  1  0.50214388  0.50263741  0.87412615  1
  Mo  Mo193  1  0.61534080  0.19795221  -0.00180330  1
  Mo  Mo194  1  0.10478458  0.68667603  0.88266628  1
  Mo  Mo195  1  0.49602588  0.89625985  0.12642813  1
  Mo  Mo196  1  0.19924420  0.38552743  0.25747597  1
  Mo  Mo197  1  0.10009190  0.49323347  0.12122740  1
  Mo  Mo198  1  0.50672407  0.49507674  0.12442912  1
  Mo  Mo199  1  0.70322187  0.50604501  0.37262020  1
