# generated using pymatgen
data_HfZrTaTiMo
_symmetry_space_group_name_H-M   'P 1'
_cell_length_a   15.22599776
_cell_length_b   15.20264047
_cell_length_c   16.83802140
_cell_angle_alpha   89.98698626
_cell_angle_beta   90.00019638
_cell_angle_gamma   89.97672607
_symmetry_Int_Tables_number   1
_chemical_formula_structural   HfZrTaTiMo
_chemical_formula_sum   'Hf40 Zr40 Ta40 Ti40 Mo40'
_cell_volume   3897.58680608
_cell_formula_units_Z   40
loop_
 _symmetry_equiv_pos_site_id
 _symmetry_equiv_pos_as_xyz
  1  'x, y, z'
loop_
 _atom_site_type_symbol
 _atom_site_label
 _atom_site_symmetry_multiplicity
 _atom_site_fract_x
 _atom_site_fract_y
 _atom_site_fract_z
 _atom_site_occupancy
  Hf  Hf0  1  0.19410880  0.40175702  0.23812134  1
  Hf  Hf1  1  0.90458045  0.50860878  0.38744622  1
  Hf  Hf2  1  0.91386967  0.71400947  0.37284166  1
  Hf  Hf3  1  0.10030215  0.08538470  0.11773307  1
  Hf  Hf4  1  0.91237133  0.91587144  0.11656088  1
  Hf  Hf5  1  0.60048598  0.79133799  0.49306612  1
  Hf  Hf6  1  0.80590573  0.01139272  0.23609502  1
  Hf  Hf7  1  0.40286930  0.59928422  0.24335162  1
  Hf  Hf8  1  0.40646423  0.38304802  -0.01682861  1
  Hf  Hf9  1  0.89092448  0.50414783  0.88271536  1
  Hf  Hf10  1  0.90043439  0.71720495  0.62199548  1
  Hf  Hf11  1  0.92474429  0.10648365  0.36589985  1
  Hf  Hf12  1  0.01954787  0.61049298  0.50558887  1
  Hf  Hf13  1  0.49728099  0.89903476  0.88827732  1
  Hf  Hf14  1  0.78831688  0.41025646  0.26304759  1
  Hf  Hf15  1  0.60642052  0.59702242  0.25047592  1
  Hf  Hf16  1  0.09563279  0.89491797  0.86447220  1
  Hf  Hf17  1  0.89210033  0.90995652  0.36936329  1
  Hf  Hf18  1  0.19738083  0.18725439  0.24181080  1
  Hf  Hf19  1  0.61345682  0.00093968  0.76100942  1
  Hf  Hf20  1  -0.01054318  0.19249238  0.75866581  1
  Hf  Hf21  1  0.20143836  0.00359422  0.75322356  1
  Hf  Hf22  1  0.71724792  0.10577928  0.36876182  1
  Hf  Hf23  1  0.68841082  0.30565431  0.61283294  1
  Hf  Hf24  1  0.60468717  0.59372746  0.00264824  1
  Hf  Hf25  1  0.60255383  0.57693616  0.48700065  1
  Hf  Hf26  1  0.91064238  0.13080969  0.11297369  1
  Hf  Hf27  1  0.80081211  0.01398834  0.75686412  1
  Hf  Hf28  1  0.58481625  0.80295030  0.24883188  1
  Hf  Hf29  1  0.09261701  0.90393417  0.37158815  1
  Hf  Hf30  1  0.41247135  0.00344882  0.50775107  1
  Hf  Hf31  1  0.20401337  0.80279869  -0.01453140  1
  Hf  Hf32  1  0.00963837  0.40123378  0.50286585  1
  Hf  Hf33  1  0.29551891  0.09377544  0.37519819  1
  Hf  Hf34  1  0.39780099  0.39564465  0.24913225  1
  Hf  Hf35  1  0.88999520  0.90828423  0.89283473  1
  Hf  Hf36  1  0.31007707  0.70115894  0.09907032  1
  Hf  Hf37  1  0.20154056  -0.02561975  0.23640947  1
  Hf  Hf38  1  0.01337571  0.60184292  0.24509253  1
  Hf  Hf39  1  0.61212588  -0.01426033  0.48727076  1
  Zr  Zr40  1  0.10085869  0.29604162  0.63834183  1
  Zr  Zr41  1  0.69048341  0.31396543  0.13322710  1
  Zr  Zr42  1  0.19420603  0.20168026  0.50043234  1
  Zr  Zr43  1  -0.00896014  0.38407031  -0.00318164  1
  Zr  Zr44  1  0.80586929  0.60305670  0.24506623  1
  Zr  Zr45  1  0.80363482  0.81009971  0.75286293  1
  Zr  Zr46  1  0.29293317  0.30589914  0.37477692  1
  Zr  Zr47  1  0.39964645  0.40584037  0.49914822  1
  Zr  Zr48  1  0.30036397  0.87673445  0.37624164  1
  Zr  Zr49  1  0.50490220  0.48474525  0.11716183  1
  Zr  Zr50  1  0.41822805  0.58561781  0.75907732  1
  Zr  Zr51  1  0.90262885  0.70404943  0.11916798  1
  Zr  Zr52  1  0.08898057  0.88977585  0.64091330  1
  Zr  Zr53  1  0.88926649  0.30367260  0.61304720  1
  Zr  Zr54  1  0.48227518  0.89490370  0.10413614  1
  Zr  Zr55  1  0.08786027  0.28637418  0.36860325  1
  Zr  Zr56  1  0.19891915  0.77320578  0.50619121  1
  Zr  Zr57  1  0.48285056  0.70083900  0.37228437  1
  Zr  Zr58  1  0.39872337  0.80120163  0.51215216  1
  Zr  Zr59  1  0.11510784  0.69523222  0.65210171  1
  Zr  Zr60  1  0.29185694  0.30961353  0.64429318  1
  Zr  Zr61  1  0.41158248  0.00585879  0.74894731  1
  Zr  Zr62  1  0.40993945  -0.01289446  0.25260349  1
  Zr  Zr63  1  0.89192095  0.70558925  0.88363583  1
  Zr  Zr64  1  0.19830826  -0.00852794  0.51040195  1
  Zr  Zr65  1  0.29830074  0.49844159  0.10358630  1
  Zr  Zr66  1  0.51042594  0.89265900  0.63493909  1
  Zr  Zr67  1  -0.01300937  0.39798573  0.24831019  1
  Zr  Zr68  1  0.59450467  0.18384368  0.50221365  1
  Zr  Zr69  1  0.61107739  0.78785250  0.76485347  1
  Zr  Zr70  1  0.78747502  0.21018001  0.75132510  1
  Zr  Zr71  1  0.30419229  0.10866893  0.63106030  1
  Zr  Zr72  1  0.48992698  0.29419645  0.63009088  1
  Zr  Zr73  1  -0.01498971  0.60086548  0.74874057  1
  Zr  Zr74  1  0.20031901  0.20330554  0.00307085  1
  Zr  Zr75  1  0.78925066  0.80713174  0.23962965  1
  Zr  Zr76  1  0.59079416  0.40057292  0.76546883  1
  Zr  Zr77  1  -0.01531168  0.40007905  0.75108844  1
  Zr  Zr78  1  0.69565746  0.11252183  0.12566105  1
  Zr  Zr79  1  0.39481979  0.60400855  0.51158788  1
  Ta  Ta80  1  0.77957624  0.41742640  0.49539635  1
  Ta  Ta81  1  0.29711297  0.50045477  0.64283310  1
  Ta  Ta82  1  0.49796125  0.29361998  0.37529552  1
  Ta  Ta83  1  0.88611317  0.29698002  0.39222402  1
  Ta  Ta84  1  0.09835373  0.49944093  0.11308783  1
  Ta  Ta85  1  0.69233766  0.90045741  0.11104374  1
  Ta  Ta86  1  0.30396386  0.69189151  0.87881265  1
  Ta  Ta87  1  0.60751331  -0.00678907  0.25652510  1
  Ta  Ta88  1  0.70797832  0.70545332  0.37592066  1
  Ta  Ta89  1  0.20842906  0.60309343  0.24157583  1
  Ta  Ta90  1  0.10274187  0.49702064  0.87364973  1
  Ta  Ta91  1  0.88698477  0.51102169  0.61360193  1
  Ta  Ta92  1  0.10000360  0.69408676  0.86438177  1
  Ta  Ta93  1  0.08839571  0.09725789  0.63560143  1
  Ta  Ta94  1  0.11207982  0.69767692  0.11641183  1
  Ta  Ta95  1  0.69794382  0.69362802  0.61840983  1
  Ta  Ta96  1  0.08022045  0.29019978  0.12540411  1
  Ta  Ta97  1  0.11834403  0.50388369  0.37746829  1
  Ta  Ta98  1  0.71129653  0.90240668  0.62281882  1
  Ta  Ta99  1  -0.01128233  0.00107847  0.75796429  1
  Ta  Ta100  1  0.40321555  0.19400115  0.24551220  1
  Ta  Ta101  1  0.29346879  0.29557572  0.86162474  1
  Ta  Ta102  1  0.61046141  0.39052397  -0.01885663  1
  Ta  Ta103  1  0.79464026  0.23259402  -0.00078905  1
  Ta  Ta104  1  0.69962818  0.51341300  0.87399567  1
  Ta  Ta105  1  0.79615411  0.81420942  0.49644872  1
  Ta  Ta106  1  0.11091043  0.49570944  0.63620979  1
  Ta  Ta107  1  0.69370555  0.30235434  0.38518493  1
  Ta  Ta108  1  0.59302050  0.20697260  -0.00577210  1
  Ta  Ta109  1  0.29691204  0.88544673  0.64270699  1
  Ta  Ta110  1  0.10185785  0.10245947  0.87801481  1
  Ta  Ta111  1  -0.00436073  0.18871845  0.50711969  1
  Ta  Ta112  1  0.00881949  0.59921911  -0.00136456  1
  Ta  Ta113  1  0.70403121  0.11003455  0.89056196  1
  Ta  Ta114  1  0.40047115  0.79598900  0.76558320  1
  Ta  Ta115  1  0.30329372  0.09800689  0.87829571  1
  Ta  Ta116  1  0.59754900  0.00793475  -0.00298782  1
  Ta  Ta117  1  0.31460014  0.08561424  0.11744252  1
  Ta  Ta118  1  0.00631893  0.79972917  0.00253717  1
  Ta  Ta119  1  0.50654654  0.68805133  0.88632958  1
  Ti  Ti120  1  0.40730555  0.20242165  0.76052287  1
  Ti  Ti121  1  0.50104391  0.10478679  0.88227438  1
  Ti  Ti122  1  0.11782804  0.69990915  0.36670690  1
  Ti  Ti123  1  0.88204027  0.30643334  0.87441247  1
  Ti  Ti124  1  0.59178793  0.40288553  0.26867402  1
  Ti  Ti125  1  0.21262022  -0.00720582  -0.00415721  1
  Ti  Ti126  1  0.81269845  0.21960022  0.24752271  1
  Ti  Ti127  1  0.19453976  0.39530163  -0.00324568  1
  Ti  Ti128  1  0.80464090  0.01330409  0.50205167  1
  Ti  Ti129  1  0.90059468  0.11216496  0.89459886  1
  Ti  Ti130  1  0.78740425  0.41558974  0.74177733  1
  Ti  Ti131  1  -0.00016204  0.81017538  0.49941306  1
  Ti  Ti132  1  0.79345579  0.01151823  0.00706029  1
  Ti  Ti133  1  0.30164574  0.29106126  0.12314761  1
  Ti  Ti134  1  0.49837681  0.28868727  0.12755506  1
  Ti  Ti135  1  0.29804544  0.49466239  0.87533351  1
  Ti  Ti136  1  0.61671137  0.79465776  -0.00702143  1
  Ti  Ti137  1  0.59731944  0.20034844  0.25668465  1
  Ti  Ti138  1  0.00277223  0.00475850  0.50353748  1
  Ti  Ti139  1  0.39930981  0.19713418  0.49918632  1
  Ti  Ti140  1  0.78254806  0.60650336  0.74497428  1
  Ti  Ti141  1  0.30184061  0.51252975  0.37568050  1
  Ti  Ti142  1  0.09951395  0.29833563  0.86667460  1
  Ti  Ti143  1  0.89813680  0.49362580  0.11352989  1
  Ti  Ti144  1  0.51551056  0.49414881  0.62812586  1
  Ti  Ti145  1  0.89034939  0.10240308  0.62201596  1
  Ti  Ti146  1  0.01243336  0.00280956  -0.00848317  1
  Ti  Ti147  1  0.40245194  0.19158291  -0.00098598  1
  Ti  Ti148  1  0.90122318  0.91268221  0.62272996  1
  Ti  Ti149  1  0.01872637  0.81349091  0.23421730  1
  Ti  Ti150  1  0.59921149  0.19231363  0.75371171  1
  Ti  Ti151  1  0.70544458  0.50456327  0.12011315  1
  Ti  Ti152  1  0.79741751  0.61363452  0.49723467  1
  Ti  Ti153  1  0.50107529  0.09609449  0.36866943  1
  Ti  Ti154  1  0.50404556  0.09882780  0.12523578  1
  Ti  Ti155  1  0.50160943  0.69821382  0.10623797  1
  Ti  Ti156  1  0.79435548  0.61471213  0.00826011  1
  Ti  Ti157  1  0.30366557  0.69264561  0.65030036  1
  Ti  Ti158  1  0.37622692  0.79407448  0.24135193  1
  Ti  Ti159  1  0.50755706  0.69098053  0.63512393  1
  Mo  Mo160  1  0.19737111  0.78326719  0.23900086  1
  Mo  Mo161  1  0.40335241  0.59127537  -0.01495537  1
  Mo  Mo162  1  0.19618515  0.19399010  0.76410033  1
  Mo  Mo163  1  0.39589939  0.00797313  -0.00583057  1
  Mo  Mo164  1  0.39808387  0.39626350  0.76679993  1
  Mo  Mo165  1  0.69920309  0.09245994  0.62372886  1
  Mo  Mo166  1  0.49889902  0.90315362  0.36984505  1
  Mo  Mo167  1  0.59201562  0.39600344  0.49065618  1
  Mo  Mo168  1  0.68882332  0.70572465  0.12239190  1
  Mo  Mo169  1  0.70223980  0.30324946  0.87241494  1
  Mo  Mo170  1  0.19910572  0.41728347  0.50306822  1
  Mo  Mo171  1  0.70425364  0.69888230  0.88044312  1
  Mo  Mo172  1  0.49680960  0.28501802  0.87271474  1
  Mo  Mo173  1  0.21198531  0.79676209  0.76785155  1
  Mo  Mo174  1  0.28835486  0.68444677  0.37076638  1
  Mo  Mo175  1  0.78871071  0.42071912  0.00105764  1
  Mo  Mo176  1  0.19586016  0.40333481  0.76363644  1
  Mo  Mo177  1  0.51695271  0.10068676  0.62900760  1
  Mo  Mo178  1  0.80110481  0.19938175  0.49918125  1
  Mo  Mo179  1  0.10336060  0.08920889  0.37388589  1
  Mo  Mo180  1  0.29566470  0.89573174  0.11550378  1
  Mo  Mo181  1  0.10377527  0.89152804  0.10960646  1
  Mo  Mo182  1  0.20638450  0.59309711  0.76710016  1
  Mo  Mo183  1  0.70331407  0.89971082  0.37173385  1
  Mo  Mo184  1  0.70254359  0.90753361  0.90019244  1
  Mo  Mo185  1  0.69981382  0.50405815  0.62460754  1
  Mo  Mo186  1  0.70088797  0.50456669  0.37270810  1
  Mo  Mo187  1  0.19351081  0.59265564  -0.01529229  1
  Mo  Mo188  1  0.49882742  0.49599339  0.88566254  1
  Mo  Mo189  1  0.61034103  0.59666630  0.75070169  1
  Mo  Mo190  1  0.00044153  0.20356304  -0.01574471  1
  Mo  Mo191  1  -0.00055705  0.20085625  0.24701873  1
  Mo  Mo192  1  0.79586483  0.80690418  0.01217345  1
  Mo  Mo193  1  0.89033390  0.31050208  0.12458972  1
  Mo  Mo194  1  0.00899855  0.00358281  0.24235739  1
  Mo  Mo195  1  0.20499668  0.58424687  0.50815780  1
  Mo  Mo196  1  0.30257616  0.90161335  0.86676590  1
  Mo  Mo197  1  0.49318732  0.48968990  0.36829867  1
  Mo  Mo198  1  0.40352404  0.79502849  -0.01875192  1
  Mo  Mo199  1  -0.00589120  0.80863632  0.75508024  1
