# generated using pymatgen
data_HfZrTaTiMo
_symmetry_space_group_name_H-M   'P 1'
_cell_length_a   15.18045386
_cell_length_b   15.17930049
_cell_length_c   16.82064705
_cell_angle_alpha   90.07116010
_cell_angle_beta   89.97880166
_cell_angle_gamma   89.97148728
_symmetry_Int_Tables_number   1
_chemical_formula_structural   HfZrTaTiMo
_chemical_formula_sum   'Hf40 Zr40 Ta40 Ti40 Mo40'
_cell_volume   3875.95560410
_cell_formula_units_Z   40
loop_
 _symmetry_equiv_pos_site_id
 _symmetry_equiv_pos_as_xyz
  1  'x, y, z'
loop_
 _atom_site_type_symbol
 _atom_site_label
 _atom_site_symmetry_multiplicity
 _atom_site_fract_x
 _atom_site_fract_y
 _atom_site_fract_z
 _atom_site_occupancy
  Hf  Hf0  1  0.09961648  0.30082122  0.35997102  1
  Hf  Hf1  1  0.89176315  0.49569955  0.61639566  1
  Hf  Hf2  1  0.88289523  0.69734788  0.38720548  1
  Hf  Hf3  1  0.61704169  0.60623020  0.49927178  1
  Hf  Hf4  1  0.69653309  0.09998873  0.35691607  1
  Hf  Hf5  1  0.39117212  0.80072754  0.25366887  1
  Hf  Hf6  1  0.90516864  0.07924472  0.88318772  1
  Hf  Hf7  1  0.49295037  0.91355916  0.89231316  1
  Hf  Hf8  1  0.18739642  0.39482474  0.00823289  1
  Hf  Hf9  1  0.48953488  0.29577895  0.12176216  1
  Hf  Hf10  1  0.10371656  0.08716206  0.64037948  1
  Hf  Hf11  1  0.90062525  0.49555616  0.88405712  1
  Hf  Hf12  1  0.69721370  0.49452830  0.88142114  1
  Hf  Hf13  1  0.51082549  0.50296276  0.37099410  1
  Hf  Hf14  1  0.20753337  0.60254469  -0.00185603  1
  Hf  Hf15  1  0.39673089  0.01431234  0.49872994  1
  Hf  Hf16  1  0.61280497  0.20128267  0.75706820  1
  Hf  Hf17  1  0.29647144  0.28359973  0.35936083  1
  Hf  Hf18  1  0.71099973  0.29964821  0.61994116  1
  Hf  Hf19  1  0.29786082  0.90779788  0.38213987  1
  Hf  Hf20  1  0.49571827  0.89896649  0.10958034  1
  Hf  Hf21  1  0.60941514  0.80196823  0.49150438  1
  Hf  Hf22  1  0.09406246  0.70639044  0.38047970  1
  Hf  Hf23  1  0.59209793  0.41332809  0.75197800  1
  Hf  Hf24  1  0.49322532  0.69331381  0.12843235  1
  Hf  Hf25  1  0.91723868  0.09583565  0.36952703  1
  Hf  Hf26  1  0.21296389  0.18861959  0.51538582  1
  Hf  Hf27  1  0.50378585  0.30427154  0.36857820  1
  Hf  Hf28  1  0.60048526  0.19478056  0.49741301  1
  Hf  Hf29  1  0.20084393  0.79992521  0.25811901  1
  Hf  Hf30  1  0.20981857  0.00798271  0.24292984  1
  Hf  Hf31  1  -0.00962482  0.80250453  0.74499774  1
  Hf  Hf32  1  0.78937259  0.60312694  0.00553527  1
  Hf  Hf33  1  0.09971662  0.70898345  0.86970581  1
  Hf  Hf34  1  0.10754816  0.30526119  0.86356147  1
  Hf  Hf35  1  0.79044787  0.39600291  0.24070044  1
  Hf  Hf36  1  0.79960055  0.38478688  0.75515871  1
  Hf  Hf37  1  0.12061181  0.10252495  0.36708061  1
  Hf  Hf38  1  0.10023022  0.50328458  0.86838723  1
  Hf  Hf39  1  0.78518790  0.58881044  0.24781196  1
  Zr  Zr40  1  0.38642349  0.78410214  -0.01121046  1
  Zr  Zr41  1  0.27867973  0.90456230  0.87726579  1
  Zr  Zr42  1  0.89694465  0.10611357  0.62433364  1
  Zr  Zr43  1  -0.01605159  0.40044682  0.25067159  1
  Zr  Zr44  1  0.90374422  0.29733296  0.10503135  1
  Zr  Zr45  1  0.48106569  0.30233735  0.87668150  1
  Zr  Zr46  1  0.41252718  0.59290263  0.73873358  1
  Zr  Zr47  1  0.89065971  0.29588809  0.89687839  1
  Zr  Zr48  1  0.32333283  0.10329295  0.85896977  1
  Zr  Zr49  1  0.70891747  0.89329746  0.36389906  1
  Zr  Zr50  1  0.70924717  0.90845577  0.88146062  1
  Zr  Zr51  1  0.20368624  0.59476039  0.26022930  1
  Zr  Zr52  1  -0.01345836  0.19862392  0.75833375  1
  Zr  Zr53  1  0.00047971  0.60513261  0.00134166  1
  Zr  Zr54  1  0.39032663  0.40484068  0.24462448  1
  Zr  Zr55  1  0.22740062  0.19998593  -0.00130185  1
  Zr  Zr56  1  0.69335985  0.91968618  0.13531090  1
  Zr  Zr57  1  0.40631233  0.59600519  0.50749028  1
  Zr  Zr58  1  0.40813234  0.00109020  0.23796247  1
  Zr  Zr59  1  0.40022257  0.80182611  0.75815620  1
  Zr  Zr60  1  0.80228192  0.00172547  0.75138018  1
  Zr  Zr61  1  0.60137054  0.79503942  -0.00459014  1
  Zr  Zr62  1  0.02146688  0.19025877  -0.00093884  1
  Zr  Zr63  1  0.80333136  0.20322895  0.48966868  1
  Zr  Zr64  1  0.20099080  0.59699554  0.73549679  1
  Zr  Zr65  1  0.79583309  -0.00529482  0.49343967  1
  Zr  Zr66  1  0.90174377  0.90385062  0.61631906  1
  Zr  Zr67  1  0.40090713  0.21133144  0.50337480  1
  Zr  Zr68  1  0.09571117  0.90634170  0.12595435  1
  Zr  Zr69  1  0.80472461  0.79133338  0.24098698  1
  Zr  Zr70  1  0.69573363  0.88757996  0.62688263  1
  Zr  Zr71  1  0.50107970  0.31678439  0.62660972  1
  Zr  Zr72  1  0.53060474  0.09845385  0.11133205  1
  Zr  Zr73  1  0.20704622  0.39165070  0.50601333  1
  Zr  Zr74  1  0.01354314  0.19910415  0.50214229  1
  Zr  Zr75  1  0.08935318  0.49437513  0.13304277  1
  Zr  Zr76  1  0.80151655  0.79815708  0.01368814  1
  Zr  Zr77  1  0.09274496  0.70547762  0.13434330  1
  Zr  Zr78  1  0.30109000  0.91830659  0.63058337  1
  Zr  Zr79  1  0.08977688  0.49985250  0.38349183  1
  Ta  Ta80  1  0.79296651  0.78580077  0.75209456  1
  Ta  Ta81  1  0.40407068  0.80387941  0.49867173  1
  Ta  Ta82  1  0.69166172  0.09434437  0.62631874  1
  Ta  Ta83  1  0.88155460  0.69936873  0.61168778  1
  Ta  Ta84  1  0.29691220  0.69991004  0.12334518  1
  Ta  Ta85  1  0.58682815  0.60079306  -0.00669879  1
  Ta  Ta86  1  0.20102520  0.80108051  0.50183799  1
  Ta  Ta87  1  -0.01013747  0.81208137  -0.00662429  1
  Ta  Ta88  1  0.89380808  0.70078927  0.87274168  1
  Ta  Ta89  1  0.38127434  0.39521781  0.00679987  1
  Ta  Ta90  1  0.00064069  0.80655816  0.50187908  1
  Ta  Ta91  1  0.30037583  0.70839775  0.61787221  1
  Ta  Ta92  1  0.50513584  0.90803891  0.37224743  1
  Ta  Ta93  1  0.10106944  0.30266660  0.63834385  1
  Ta  Ta94  1  0.10031365  0.89723330  0.62602127  1
  Ta  Ta95  1  0.69403948  0.29680856  0.11321314  1
  Ta  Ta96  1  0.59221239  0.00102718  0.75719331  1
  Ta  Ta97  1  0.51208735  0.71251003  0.62468512  1
  Ta  Ta98  1  0.80983165  0.20474673  0.24531310  1
  Ta  Ta99  1  0.49846501  0.70438927  0.37248722  1
  Ta  Ta100  1  0.19437713  0.80000345  0.74199489  1
  Ta  Ta101  1  0.59352069  0.79552341  0.25250015  1
  Ta  Ta102  1  -0.00064731  0.40938178  0.74378467  1
  Ta  Ta103  1  0.50207473  0.90557290  0.62703672  1
  Ta  Ta104  1  0.70204799  0.31372914  0.37410222  1
  Ta  Ta105  1  0.39768057  0.58778284  -0.00576646  1
  Ta  Ta106  1  0.52027875  0.10485269  0.89534503  1
  Ta  Ta107  1  0.30637058  0.29961498  0.64613345  1
  Ta  Ta108  1  0.20622634  0.19792234  0.74996969  1
  Ta  Ta109  1  0.49475748  0.50367343  0.12342180  1
  Ta  Ta110  1  0.69880432  0.50412902  0.62630509  1
  Ta  Ta111  1  0.49423359  0.09943102  0.63546176  1
  Ta  Ta112  1  0.49460285  0.10340515  0.36242489  1
  Ta  Ta113  1  0.09631351  0.49944854  0.61894777  1
  Ta  Ta114  1  0.30181321  0.49501752  0.38362403  1
  Ta  Ta115  1  0.39639123  0.60682992  0.25951480  1
  Ta  Ta116  1  0.59536251  0.79986343  0.76300393  1
  Ta  Ta117  1  0.91293913  0.89644043  0.37104076  1
  Ta  Ta118  1  -0.01022652  0.60417806  0.74045333  1
  Ta  Ta119  1  0.29968061  0.47881454  0.86688473  1
  Ti  Ti120  1  0.68457056  0.49851228  0.11385191  1
  Ti  Ti121  1  0.59318194  0.00275344  0.49858511  1
  Ti  Ti122  1  0.81422618  0.00628257  0.24599117  1
  Ti  Ti123  1  0.91292318  0.89700671  0.13910762  1
  Ti  Ti124  1  0.60167641  0.40759985  0.50129625  1
  Ti  Ti125  1  0.29217927  0.90106110  0.11138821  1
  Ti  Ti126  1  0.88971981  0.49574635  0.11095703  1
  Ti  Ti127  1  0.18997151  -0.00148204  0.50101062  1
  Ti  Ti128  1  0.91310010  0.08806894  0.12362484  1
  Ti  Ti129  1  0.60642035  0.61148186  0.74741742  1
  Ti  Ti130  1  0.90436546  0.30163680  0.62279780  1
  Ti  Ti131  1  0.87872455  0.49251675  0.39128769  1
  Ti  Ti132  1  0.60750655  0.20602941  0.24499120  1
  Ti  Ti133  1  0.20261525  0.60334321  0.50348422  1
  Ti  Ti134  1  0.08451035  0.91088493  0.87253747  1
  Ti  Ti135  1  0.00772562  0.19175260  0.23681492  1
  Ti  Ti136  1  0.90485658  0.69557355  0.12975060  1
  Ti  Ti137  1  0.11080896  0.09956073  0.12258939  1
  Ti  Ti138  1  0.31078399  0.48747232  0.62053892  1
  Ti  Ti139  1  0.68632655  0.69392393  0.12966125  1
  Ti  Ti140  1  0.78412257  0.17450689  0.00926946  1
  Ti  Ti141  1  -0.00437029  0.39509654  0.50187841  1
  Ti  Ti142  1  0.09432623  0.70018674  0.61825979  1
  Ti  Ti143  1  0.11473086  0.08770666  0.86890321  1
  Ti  Ti144  1  0.09235739  0.90823192  0.37176569  1
  Ti  Ti145  1  0.18671768  0.80526405  0.00011712  1
  Ti  Ti146  1  0.69542083  0.29105550  0.89326848  1
  Ti  Ti147  1  0.49247369  0.50544630  0.87731542  1
  Ti  Ti148  1  0.79930794  0.59625371  0.75122275  1
  Ti  Ti149  1  -0.01526483  0.60329615  0.25841796  1
  Ti  Ti150  1  0.29774508  0.50487098  0.12877007  1
  Ti  Ti151  1  0.69624243  0.69518185  0.87386755  1
  Ti  Ti152  1  0.89891070  0.30222313  0.37585621  1
  Ti  Ti153  1  -0.00525000  0.60067288  0.50437186  1
  Ti  Ti154  1  0.38174248  0.01811487  0.00737999  1
  Ti  Ti155  1  0.81741255  -0.00978833  0.01134404  1
  Ti  Ti156  1  0.31851021  0.12269025  0.13059909  1
  Ti  Ti157  1  0.60245347  0.40827458  0.24235829  1
  Ti  Ti158  1  0.30083120  0.68452438  0.86499595  1
  Ti  Ti159  1  0.58626949  0.40271861  -0.00042538  1
  Mo  Mo160  1  0.20396361  0.20327181  0.23247124  1
  Mo  Mo161  1  0.41472744  0.00012385  0.75521735  1
  Mo  Mo162  1  -0.00202333  0.39987178  0.00375919  1
  Mo  Mo163  1  0.39672925  0.40638781  0.74988788  1
  Mo  Mo164  1  0.60682358  0.20988430  0.00014177  1
  Mo  Mo165  1  0.70734566  0.10446012  0.87940338  1
  Mo  Mo166  1  0.72151803  0.10991221  0.14038492  1
  Mo  Mo167  1  0.19681557  0.40343122  0.73644330  1
  Mo  Mo168  1  0.40887454  0.19677701  0.24870904  1
  Mo  Mo169  1  0.29743972  0.30358396  0.85923283  1
  Mo  Mo170  1  0.19648225  0.40206817  0.24472472  1
  Mo  Mo171  1  0.79303330  0.19880604  0.75386187  1
  Mo  Mo172  1  0.59383950  0.59724140  0.24633938  1
  Mo  Mo173  1  0.00674426  -0.00499141  0.00222946  1
  Mo  Mo174  1  0.62992967  0.01294547  -0.00301506  1
  Mo  Mo175  1  0.29292014  0.30741857  0.13565763  1
  Mo  Mo176  1  0.30694492  0.09933056  0.36851941  1
  Mo  Mo177  1  0.10363681  0.29226807  0.13813961  1
  Mo  Mo178  1  0.00692635  -0.00657021  0.75468092  1
  Mo  Mo179  1  0.90265067  0.88874657  0.87527542  1
  Mo  Mo180  1  0.69809410  0.49228587  0.37305037  1
  Mo  Mo181  1  0.19685393  0.00681675  0.00410259  1
  Mo  Mo182  1  0.41328515  0.19937303  0.74681895  1
  Mo  Mo183  1  0.79685166  0.78898629  0.49611487  1
  Mo  Mo184  1  0.68729907  0.68749282  0.36149427  1
  Mo  Mo185  1  0.60285228  -0.00004197  0.25344889  1
  Mo  Mo186  1  0.30669687  0.10444573  0.64473814  1
  Mo  Mo187  1  0.51035736  0.50795673  0.62109054  1
  Mo  Mo188  1  0.50213171  0.69212018  0.87191864  1
  Mo  Mo189  1  0.70018999  0.69526442  0.63561770  1
  Mo  Mo190  1  0.19883166  -0.00780480  0.75370310  1
  Mo  Mo191  1  -0.00230118  0.79745927  0.26013367  1
  Mo  Mo192  1  0.79680360  0.40020245  0.49756558  1
  Mo  Mo193  1  0.40032285  0.40167937  0.49439387  1
  Mo  Mo194  1  0.40487085  0.20593685  0.00103785  1
  Mo  Mo195  1  0.79456932  0.59496478  0.49999168  1
  Mo  Mo196  1  0.00200793  0.00226753  0.24835105  1
  Mo  Mo197  1  0.01386003  -0.00675000  0.49468696  1
  Mo  Mo198  1  0.78240827  0.39818082  0.00786727  1
  Mo  Mo199  1  0.30266982  0.69716584  0.39686624  1
