# generated using pymatgen
data_HfZrTaTiMo
_symmetry_space_group_name_H-M   'P 1'
_cell_length_a   15.16863722
_cell_length_b   15.17276066
_cell_length_c   16.81787539
_cell_angle_alpha   90.04913142
_cell_angle_beta   89.97925156
_cell_angle_gamma   90.08749695
_symmetry_Int_Tables_number   1
_chemical_formula_structural   HfZrTaTiMo
_chemical_formula_sum   'Hf40 Zr40 Ta40 Ti40 Mo40'
_cell_volume   3870.62955055
_cell_formula_units_Z   40
loop_
 _symmetry_equiv_pos_site_id
 _symmetry_equiv_pos_as_xyz
  1  'x, y, z'
loop_
 _atom_site_type_symbol
 _atom_site_label
 _atom_site_symmetry_multiplicity
 _atom_site_fract_x
 _atom_site_fract_y
 _atom_site_fract_z
 _atom_site_occupancy
  Hf  Hf0  1  0.70539406  0.49985696  0.13505159  1
  Hf  Hf1  1  0.20084119  0.79006683  0.00524221  1
  Hf  Hf2  1  0.60852618  0.81962009  0.51825899  1
  Hf  Hf3  1  0.19902623  0.19726681  0.75729723  1
  Hf  Hf4  1  0.22025295  0.80929281  0.74890095  1
  Hf  Hf5  1  0.31575546  0.51135050  0.63167683  1
  Hf  Hf6  1  0.30284581  0.51510202  0.87057825  1
  Hf  Hf7  1  0.11263418  0.69185958  0.87135693  1
  Hf  Hf8  1  -0.01227018  0.19124811  0.00402666  1
  Hf  Hf9  1  0.79496086  0.40058536  -0.00115666  1
  Hf  Hf10  1  0.30291283  0.10812431  0.10732020  1
  Hf  Hf11  1  0.90808932  0.50262237  0.87835946  1
  Hf  Hf12  1  0.50135581  0.51135858  0.12858519  1
  Hf  Hf13  1  0.40550186  0.01073019  0.25195282  1
  Hf  Hf14  1  0.20268278  0.19808936  0.50302486  1
  Hf  Hf15  1  0.19855505  -0.01474670  0.49415569  1
  Hf  Hf16  1  -0.00691326  -0.01894840  0.25527183  1
  Hf  Hf17  1  0.00909633  0.40169800  0.25131490  1
  Hf  Hf18  1  0.31494831  0.08700396  0.61943643  1
  Hf  Hf19  1  0.50223831  0.11224353  0.10930017  1
  Hf  Hf20  1  0.09054917  0.09280553  0.62107417  1
  Hf  Hf21  1  0.11825024  0.69852183  0.61937446  1
  Hf  Hf22  1  0.29873985  0.08503532  0.88881502  1
  Hf  Hf23  1  0.90347719  0.52076759  0.13215359  1
  Hf  Hf24  1  0.79497965  0.59785490  0.74534336  1
  Hf  Hf25  1  0.20547169  0.39622074  -0.01096018  1
  Hf  Hf26  1  0.79439584  0.39391757  0.76052484  1
  Hf  Hf27  1  0.71097448  0.72656526  0.37294989  1
  Hf  Hf28  1  -0.01227137  0.20053721  0.24791454  1
  Hf  Hf29  1  0.58645734  0.79995784  0.73721608  1
  Hf  Hf30  1  0.80378507  0.80226034  -0.00833740  1
  Hf  Hf31  1  0.70676460  0.90795405  0.12064612  1
  Hf  Hf32  1  0.21067158  0.39715038  0.50209218  1
  Hf  Hf33  1  0.20307506  -0.00977290  0.25250778  1
  Hf  Hf34  1  0.79403784  0.39524597  0.48041846  1
  Hf  Hf35  1  0.59228016  0.22626397  0.49989215  1
  Hf  Hf36  1  0.11470952  0.69425204  0.38413683  1
  Hf  Hf37  1  0.30975203  0.48331555  0.11796861  1
  Hf  Hf38  1  0.90208038  0.70586256  0.86264890  1
  Hf  Hf39  1  0.90877592  0.69954808  0.63179452  1
  Zr  Zr40  1  0.31340954  0.87711742  0.38098455  1
  Zr  Zr41  1  0.59020381  0.39254848  -0.01714366  1
  Zr  Zr42  1  0.60516193  0.60424844  0.00313569  1
  Zr  Zr43  1  0.30019542  0.68190785  0.11594042  1
  Zr  Zr44  1  0.72084223  0.70317128  0.14450695  1
  Zr  Zr45  1  0.00177826  0.80918446  0.00310051  1
  Zr  Zr46  1  0.30636546  0.30525484  0.64276923  1
  Zr  Zr47  1  0.77554415  -0.01413221  0.49866729  1
  Zr  Zr48  1  0.89360907  0.48454344  0.62454722  1
  Zr  Zr49  1  0.09302387  0.30222080  0.63051188  1
  Zr  Zr50  1  0.09645612  0.09315913  0.37124922  1
  Zr  Zr51  1  0.59941533  0.61132008  0.26645886  1
  Zr  Zr52  1  0.39203889  0.61126736  0.26280792  1
  Zr  Zr53  1  0.39155417  -0.01778106  0.75415476  1
  Zr  Zr54  1  0.47829034  0.30983003  0.12297314  1
  Zr  Zr55  1  0.80815612  0.39238962  0.26506994  1
  Zr  Zr56  1  -0.00828402  0.19295994  0.75826920  1
  Zr  Zr57  1  0.88913543  0.09684133  0.62085411  1
  Zr  Zr58  1  0.68594425  0.28796594  0.12496012  1
  Zr  Zr59  1  0.10630861  0.49840990  0.37540925  1
  Zr  Zr60  1  0.31427373  0.48266004  0.37879002  1
  Zr  Zr61  1  0.00258801  0.39612629  0.00460216  1
  Zr  Zr62  1  0.30455816  0.89809423  0.12561010  1
  Zr  Zr63  1  -0.00197316  0.59115318  0.50357848  1
  Zr  Zr64  1  0.78519901  -0.01422780  0.25911884  1
  Zr  Zr65  1  0.11056297  0.50434291  0.12230115  1
  Zr  Zr66  1  0.19159701  0.00003988  0.74852353  1
  Zr  Zr67  1  0.60117886  -0.00553855  -0.01186400  1
  Zr  Zr68  1  0.70465001  0.31001148  0.62740964  1
  Zr  Zr69  1  0.59519296  0.39494828  0.26470736  1
  Zr  Zr70  1  0.58949972  0.60556856  0.48597521  1
  Zr  Zr71  1  0.51723928  0.91901923  0.38098585  1
  Zr  Zr72  1  0.88114741  0.09043626  0.12617361  1
  Zr  Zr73  1  0.69134512  0.10983633  0.62677972  1
  Zr  Zr74  1  0.10751396  0.49392879  0.63325072  1
  Zr  Zr75  1  -0.01578923  -0.01321861  0.48849161  1
  Zr  Zr76  1  0.59145123  0.01154412  0.74782421  1
  Zr  Zr77  1  -0.00879155  0.20129260  0.48945342  1
  Zr  Zr78  1  0.60561161  0.79369455  -0.00318468  1
  Zr  Zr79  1  0.09409197  0.08213349  0.12010277  1
  Ta  Ta80  1  0.48522844  0.88515229  0.87220707  1
  Ta  Ta81  1  0.08988079  0.09251906  0.88809721  1
  Ta  Ta82  1  0.50351541  0.90828769  0.12832460  1
  Ta  Ta83  1  0.40155704  0.21585870  -0.02187750  1
  Ta  Ta84  1  0.20826475  0.78310407  0.24678756  1
  Ta  Ta85  1  0.79608454  0.19656042  0.75899458  1
  Ta  Ta86  1  0.47964786  0.31609638  0.37453253  1
  Ta  Ta87  1  0.32245900  0.71498395  0.87587493  1
  Ta  Ta88  1  0.41019431  0.80458303  0.00438764  1
  Ta  Ta89  1  0.50648911  0.31214072  0.64232354  1
  Ta  Ta90  1  0.21812237  0.60909656  0.74786396  1
  Ta  Ta91  1  0.80496878  0.60853948  -0.00456642  1
  Ta  Ta92  1  0.67480522  0.09527730  0.38232768  1
  Ta  Ta93  1  0.20008198  0.19386913  0.24662311  1
  Ta  Ta94  1  0.09504091  0.89336855  0.62239468  1
  Ta  Ta95  1  0.22061084  0.37945417  0.24733206  1
  Ta  Ta96  1  0.88813841  0.28696432  0.88385812  1
  Ta  Ta97  1  0.70232795  0.90088675  0.86072533  1
  Ta  Ta98  1  0.00289704  0.79940357  0.49871542  1
  Ta  Ta99  1  0.41096188  0.19151952  0.75970789  1
  Ta  Ta100  1  0.10032547  0.88007962  0.36767676  1
  Ta  Ta101  1  0.69822135  0.51166202  0.87475491  1
  Ta  Ta102  1  0.70710381  0.11190683  0.88447018  1
  Ta  Ta103  1  0.79661629  0.60130340  0.49729876  1
  Ta  Ta104  1  0.10073851  0.90026837  0.87560010  1
  Ta  Ta105  1  -0.01046032  -0.00791475  0.75883798  1
  Ta  Ta106  1  0.70229717  0.69948041  0.62506751  1
  Ta  Ta107  1  0.11266917  0.29565340  0.36883171  1
  Ta  Ta108  1  -0.00566519  0.38989220  0.48225396  1
  Ta  Ta109  1  0.19470771  0.20326427  -0.00997519  1
  Ta  Ta110  1  0.48767073  0.12250702  0.37707354  1
  Ta  Ta111  1  -0.00172617  0.39440761  0.76126043  1
  Ta  Ta112  1  0.88292736  0.09359180  0.37015349  1
  Ta  Ta113  1  0.68021980  0.50296180  0.61717654  1
  Ta  Ta114  1  0.77345894  0.19303195  0.26377280  1
  Ta  Ta115  1  0.80964717  0.79604375  0.51238927  1
  Ta  Ta116  1  0.38587382  0.21621745  0.24964903  1
  Ta  Ta117  1  0.79292531  0.20065916  0.47920358  1
  Ta  Ta118  1  0.00898900  0.80499685  0.74988983  1
  Ta  Ta119  1  0.50116636  0.71674456  0.13717344  1
  Ti  Ti120  1  0.46974092  0.90593786  0.61581859  1
  Ti  Ti121  1  0.69612964  0.10509876  0.10671302  1
  Ti  Ti122  1  0.50171246  0.10086388  0.88444886  1
  Ti  Ti123  1  0.41005263  0.60646656  -0.00732555  1
  Ti  Ti124  1  0.29890308  0.30373966  0.86010070  1
  Ti  Ti125  1  0.59687464  0.41845456  0.76286764  1
  Ti  Ti126  1  0.09552402  0.30027372  0.87275224  1
  Ti  Ti127  1  0.69384298  0.70305898  0.86064189  1
  Ti  Ti128  1  0.40304310  0.40515260  -0.02266025  1
  Ti  Ti129  1  0.19744278  0.58880772  0.25149834  1
  Ti  Ti130  1  0.90588415  0.88622710  0.12977059  1
  Ti  Ti131  1  0.48604555  0.72503819  0.37518752  1
  Ti  Ti132  1  0.79928199  0.00296431  0.75757124  1
  Ti  Ti133  1  0.18818401  -0.01424140  0.00420406  1
  Ti  Ti134  1  0.30249382  0.10319168  0.38064183  1
  Ti  Ti135  1  0.70391554  0.50828540  0.37314072  1
  Ti  Ti136  1  0.89680023  0.29315307  0.62295158  1
  Ti  Ti137  1  0.60455686  0.82343251  0.25141224  1
  Ti  Ti138  1  0.88474049  0.29623528  0.12523206  1
  Ti  Ti139  1  0.88874084  0.87719964  0.37309954  1
  Ti  Ti140  1  0.09201796  0.69455596  0.13059709  1
  Ti  Ti141  1  0.00727214  0.60800921  -0.00159084  1
  Ti  Ti142  1  0.40092994  0.20779054  0.50902801  1
  Ti  Ti143  1  0.79948826  0.80874340  0.74371769  1
  Ti  Ti144  1  0.10680177  0.49863858  0.86721420  1
  Ti  Ti145  1  0.31414560  0.71302769  0.61438422  1
  Ti  Ti146  1  0.60258514  0.21441541  0.76531596  1
  Ti  Ti147  1  0.42370013  0.61281006  0.75417487  1
  Ti  Ti148  1  0.49962783  0.68697675  0.61931258  1
  Ti  Ti149  1  0.40892010  0.41047674  0.75936715  1
  Ti  Ti150  1  0.00931117  0.59647092  0.74775706  1
  Ti  Ti151  1  0.60163668  0.02376926  0.24400403  1
  Ti  Ti152  1  0.90663183  0.68850978  0.37453959  1
  Ti  Ti153  1  0.57466439  0.02136477  0.51948830  1
  Ti  Ti154  1  -0.00190901  0.77961977  0.24891464  1
  Ti  Ti155  1  0.81775374  -0.00126755  -0.01561256  1
  Ti  Ti156  1  0.42595555  0.40704336  0.51216223  1
  Ti  Ti157  1  0.39393732  0.60628833  0.49021496  1
  Ti  Ti158  1  0.11010001  0.29271700  0.12484587  1
  Ti  Ti159  1  0.89750193  0.89940184  0.62991982  1
  Mo  Mo160  1  0.09943332  0.88294987  0.14410937  1
  Mo  Mo161  1  0.70653863  0.90037641  0.64301111  1
  Mo  Mo162  1  0.39973342  0.01221585  0.49404219  1
  Mo  Mo163  1  0.50492708  0.69844331  0.87219030  1
  Mo  Mo164  1  0.39743442  0.40309827  0.24872206  1
  Mo  Mo165  1  0.90829240  0.69791472  0.12444497  1
  Mo  Mo166  1  0.21557450  0.59699119  0.50827936  1
  Mo  Mo167  1  0.29679297  0.89516386  0.89042851  1
  Mo  Mo168  1  0.58245658  0.19296553  0.25337750  1
  Mo  Mo169  1  0.50169844  0.51247624  0.87197372  1
  Mo  Mo170  1  0.69724686  0.90395873  0.37941379  1
  Mo  Mo171  1  0.68708933  0.29082520  0.37137421  1
  Mo  Mo172  1  0.89998850  0.50407584  0.37364810  1
  Mo  Mo173  1  0.50297208  0.49945012  0.62994574  1
  Mo  Mo174  1  0.59471358  0.20340117  -0.01657013  1
  Mo  Mo175  1  0.20142404  0.59769955  -0.00929692  1
  Mo  Mo176  1  0.29836275  0.69464223  0.38006116  1
  Mo  Mo177  1  0.40003011  0.79170025  0.74096673  1
  Mo  Mo178  1  0.40134995  -0.00454969  -0.00604530  1
  Mo  Mo179  1  0.29374093  0.29254546  0.11157570  1
  Mo  Mo180  1  0.49393792  0.12143907  0.62974274  1
  Mo  Mo181  1  0.19873287  0.40635827  0.76453945  1
  Mo  Mo182  1  -0.00108410  -0.01213236  -0.00292242  1
  Mo  Mo183  1  0.00807957  0.60267934  0.25457728  1
  Mo  Mo184  1  0.81549333  0.60219799  0.26888957  1
  Mo  Mo185  1  0.50053799  0.50663052  0.37852823  1
  Mo  Mo186  1  0.40945023  0.80491077  0.24577622  1
  Mo  Mo187  1  0.60394791  0.60079042  0.74481566  1
  Mo  Mo188  1  0.90157165  0.29191583  0.36693041  1
  Mo  Mo189  1  0.20300333  0.79436398  0.50320672  1
  Mo  Mo190  1  0.69750924  0.30373628  0.87147235  1
  Mo  Mo191  1  0.89659649  0.89853771  0.86396801  1
  Mo  Mo192  1  0.59763253  0.41050186  0.48872655  1
  Mo  Mo193  1  0.41299545  0.79496691  0.50465096  1
  Mo  Mo194  1  0.30473978  0.28292211  0.38075493  1
  Mo  Mo195  1  0.89619215  0.09339620  0.87775854  1
  Mo  Mo196  1  0.79287148  0.20065254  -0.00058435  1
  Mo  Mo197  1  0.29291061  0.89065562  0.60705593  1
  Mo  Mo198  1  0.49336377  0.30342822  0.85643977  1
  Mo  Mo199  1  0.81406643  0.79961895  0.25102220  1
