# generated using pymatgen
data_HfZrTaTiMo
_symmetry_space_group_name_H-M   'P 1'
_cell_length_a   15.21013198
_cell_length_b   15.21296866
_cell_length_c   16.84684750
_cell_angle_alpha   89.96975791
_cell_angle_beta   89.99832237
_cell_angle_gamma   90.00248866
_symmetry_Int_Tables_number   1
_chemical_formula_structural   HfZrTaTiMo
_chemical_formula_sum   'Hf40 Zr40 Ta40 Ti40 Mo40'
_cell_volume   3898.21274262
_cell_formula_units_Z   40
loop_
 _symmetry_equiv_pos_site_id
 _symmetry_equiv_pos_as_xyz
  1  'x, y, z'
loop_
 _atom_site_type_symbol
 _atom_site_label
 _atom_site_symmetry_multiplicity
 _atom_site_fract_x
 _atom_site_fract_y
 _atom_site_fract_z
 _atom_site_occupancy
  Hf  Hf0  1  0.40595908  0.80614374  -0.01412639  1
  Hf  Hf1  1  0.70712354  0.70313030  0.85501551  1
  Hf  Hf2  1  0.50418242  0.10330365  0.88346391  1
  Hf  Hf3  1  0.18269035  0.18428835  0.24583006  1
  Hf  Hf4  1  0.40668887  -0.01092278  0.26742587  1
  Hf  Hf5  1  0.09721918  0.89918506  0.86972764  1
  Hf  Hf6  1  0.69992307  0.29332454  0.64468006  1
  Hf  Hf7  1  0.90276732  0.08557959  0.89267667  1
  Hf  Hf8  1  0.18813481  0.60446944  0.51452577  1
  Hf  Hf9  1  0.68944747  0.49868253  0.12007303  1
  Hf  Hf10  1  0.39096391  0.40134701  0.75706999  1
  Hf  Hf11  1  -0.00791400  0.41973504  -0.01507516  1
  Hf  Hf12  1  0.29024665  0.68855310  0.86291231  1
  Hf  Hf13  1  0.20488327  -0.01489044  0.26479550  1
  Hf  Hf14  1  0.19599049  0.39842686  -0.00062682  1
  Hf  Hf15  1  0.78099230  0.79794406  0.24309804  1
  Hf  Hf16  1  0.89102670  0.49935865  0.11865992  1
  Hf  Hf17  1  0.80202301  0.60027042  0.51223319  1
  Hf  Hf18  1  0.30019463  0.90485295  0.62349772  1
  Hf  Hf19  1  0.20253852  0.39055286  0.49806792  1
  Hf  Hf20  1  0.68358220  0.69595551  0.37878675  1
  Hf  Hf21  1  -0.00324195  0.79615979  -0.00207922  1
  Hf  Hf22  1  0.89751546  0.90136609  0.63336916  1
  Hf  Hf23  1  0.39484032  0.18456633  0.25253283  1
  Hf  Hf24  1  0.69205188  0.49215551  0.63689510  1
  Hf  Hf25  1  0.00672945  0.02654419  0.25454542  1
  Hf  Hf26  1  0.50707714  0.92048984  0.11745158  1
  Hf  Hf27  1  0.69949696  0.70434782  0.64438556  1
  Hf  Hf28  1  0.19804345  0.41308472  0.74250476  1
  Hf  Hf29  1  0.29909793  0.09994014  0.61310914  1
  Hf  Hf30  1  0.70404189  0.90065198  0.85503448  1
  Hf  Hf31  1  -0.00379578  0.40315915  0.75870102  1
  Hf  Hf32  1  0.30511356  0.87630290  0.13176434  1
  Hf  Hf33  1  0.12037994  0.70101681  0.14032169  1
  Hf  Hf34  1  0.39658520  0.21519347  0.48280600  1
  Hf  Hf35  1  0.69962606  0.30225958  0.36373576  1
  Hf  Hf36  1  0.30111741  0.11034380  0.88334021  1
  Hf  Hf37  1  0.90065967  0.48757632  0.62461938  1
  Hf  Hf38  1  0.71724580  0.10046844  0.38365246  1
  Hf  Hf39  1  0.20209311  0.78210730  -0.00928873  1
  Zr  Zr40  1  0.00142458  0.40005276  0.50364171  1
  Zr  Zr41  1  0.80134960  0.17725981  0.75229297  1
  Zr  Zr42  1  0.49244755  0.31131346  0.63029921  1
  Zr  Zr43  1  0.79427457  0.80292104  0.50547473  1
  Zr  Zr44  1  0.89680163  0.49535631  0.38061662  1
  Zr  Zr45  1  0.49568789  0.32022623  0.35296959  1
  Zr  Zr46  1  0.60611418  0.19089072  0.23744453  1
  Zr  Zr47  1  0.50910562  0.71981761  0.12043362  1
  Zr  Zr48  1  -0.00342313  0.38682723  0.23843933  1
  Zr  Zr49  1  0.00122865  0.59845098  0.25334338  1
  Zr  Zr50  1  0.30511708  0.50181084  0.37854196  1
  Zr  Zr51  1  0.89521460  0.28472778  0.37519912  1
  Zr  Zr52  1  0.10065474  0.10122135  0.88972804  1
  Zr  Zr53  1  0.49865744  0.31946223  0.14237533  1
  Zr  Zr54  1  0.91862301  0.68881364  0.86652399  1
  Zr  Zr55  1  0.49937161  0.10426047  0.61265403  1
  Zr  Zr56  1  0.82367395  0.19383623  0.23304075  1
  Zr  Zr57  1  0.50183803  0.70242859  0.86716273  1
  Zr  Zr58  1  0.00076242  0.78349965  0.51034775  1
  Zr  Zr59  1  0.08865507  0.28349946  0.36909086  1
  Zr  Zr60  1  0.89755429  0.70480432  0.36952552  1
  Zr  Zr61  1  0.70207351  0.07248105  0.10844860  1
  Zr  Zr62  1  0.38878827  0.62700494  0.24298867  1
  Zr  Zr63  1  0.81137263  -0.00489419  0.25640283  1
  Zr  Zr64  1  0.69194807  0.50118752  0.37624368  1
  Zr  Zr65  1  0.60571964  0.61525128  -0.00408201  1
  Zr  Zr66  1  0.58118671  0.40684687  0.50118198  1
  Zr  Zr67  1  0.00018221  0.22291917  0.00984762  1
  Zr  Zr68  1  0.60583994  0.03073901  0.74649222  1
  Zr  Zr69  1  0.59245286  0.40598570  -0.00718864  1
  Zr  Zr70  1  0.59738966  0.19976220  0.01849401  1
  Zr  Zr71  1  0.20337832  0.20351664  0.74930325  1
  Zr  Zr72  1  0.10211461  0.53733122  0.87562451  1
  Zr  Zr73  1  0.28885481  0.50636138  0.13435613  1
  Zr  Zr74  1  0.60809672  -0.00825937  0.25822077  1
  Zr  Zr75  1  0.58852525  0.80171877  0.51286710  1
  Zr  Zr76  1  0.49001090  0.30024292  0.87759674  1
  Zr  Zr77  1  0.61206413  0.20602158  0.49925904  1
  Zr  Zr78  1  0.89855159  0.90508372  0.12419684  1
  Zr  Zr79  1  0.10343056  0.90246872  0.12442498  1
  Ta  Ta80  1  0.09480369  0.50888741  0.11661395  1
  Ta  Ta81  1  0.29244275  0.30126959  0.14410585  1
  Ta  Ta82  1  0.40296137  0.19739004  0.74882904  1
  Ta  Ta83  1  0.20785482  0.20756985  0.01284161  1
  Ta  Ta84  1  0.57966690  0.60471454  0.51516667  1
  Ta  Ta85  1  0.10073156  0.09480111  0.10623393  1
  Ta  Ta86  1  0.70184588  0.90666579  0.64475562  1
  Ta  Ta87  1  0.39391797  0.00481465  0.75331267  1
  Ta  Ta88  1  0.89398072  0.29263603  0.86851480  1
  Ta  Ta89  1  0.50728155  0.09339721  0.38734905  1
  Ta  Ta90  1  0.39392580  0.59592269  0.73861769  1
  Ta  Ta91  1  0.79007431  0.78409423  0.00280377  1
  Ta  Ta92  1  0.70057916  0.49917279  0.86222000  1
  Ta  Ta93  1  0.81141638  0.59254807  -0.01043820  1
  Ta  Ta94  1  0.39687641  0.79729907  0.74307190  1
  Ta  Ta95  1  0.79496426  0.39119785  -0.01800377  1
  Ta  Ta96  1  0.19809636  0.80589178  0.50629658  1
  Ta  Ta97  1  0.39411798  0.20630414  0.01904814  1
  Ta  Ta98  1  0.49850460  0.51950749  0.36416142  1
  Ta  Ta99  1  0.90331933  0.69737454  0.12684321  1
  Ta  Ta100  1  0.38946349  0.40079945  0.00375233  1
  Ta  Ta101  1  0.79016886  0.38578849  0.50673983  1
  Ta  Ta102  1  0.30174191  0.08406516  0.12130774  1
  Ta  Ta103  1  0.70525649  0.09887421  0.89395285  1
  Ta  Ta104  1  0.29376086  0.70282489  0.38526293  1
  Ta  Ta105  1  0.50402367  0.90355722  0.85983854  1
  Ta  Ta106  1  0.79174924  0.59751126  0.24517315  1
  Ta  Ta107  1  0.91500074  0.09509976  0.61887752  1
  Ta  Ta108  1  0.09683702  0.29383979  0.62659115  1
  Ta  Ta109  1  0.79438468  0.40049899  0.24318305  1
  Ta  Ta110  1  0.50076341  0.90349475  0.63879076  1
  Ta  Ta111  1  0.69930815  0.89718196  0.38292269  1
  Ta  Ta112  1  0.19977630  0.19548988  0.49252273  1
  Ta  Ta113  1  0.60832987  -0.00627308  0.50439342  1
  Ta  Ta114  1  0.81368929  0.58723357  0.74806828  1
  Ta  Ta115  1  0.10077560  0.91278685  0.62387232  1
  Ta  Ta116  1  0.31754379  0.49702868  0.60754508  1
  Ta  Ta117  1  0.38836407  0.60217887  0.00590339  1
  Ta  Ta118  1  0.29201271  0.29987424  0.35511363  1
  Ta  Ta119  1  0.00751308  0.79562471  0.73830031  1
  Ti  Ti120  1  0.91697733  0.09679898  0.39512325  1
  Ti  Ti121  1  0.80877574  -0.00420085  0.50152004  1
  Ti  Ti122  1  0.00754547  0.81639602  0.25814585  1
  Ti  Ti123  1  0.71509149  0.30254419  0.12091404  1
  Ti  Ti124  1  0.60132478  0.61244697  0.24159932  1
  Ti  Ti125  1  0.40540655  -0.01086283  0.48936671  1
  Ti  Ti126  1  0.19949325  0.79855593  0.73979297  1
  Ti  Ti127  1  0.81112568  0.20147149  0.51099094  1
  Ti  Ti128  1  0.00521012  0.19765949  0.50996539  1
  Ti  Ti129  1  0.20733317  -0.00901580  -0.00320003  1
  Ti  Ti130  1  0.48505581  0.70855336  0.38012033  1
  Ti  Ti131  1  0.89949542  0.29133270  0.63752292  1
  Ti  Ti132  1  0.69446030  0.28827923  0.86714286  1
  Ti  Ti133  1  0.59353861  0.40041191  0.76060288  1
  Ti  Ti134  1  0.10843232  0.30052635  0.87132917  1
  Ti  Ti135  1  0.49174123  0.50891675  0.87712306  1
  Ti  Ti136  1  0.40260315  0.00360327  -0.00465039  1
  Ti  Ti137  1  0.20253082  0.60735323  0.72210819  1
  Ti  Ti138  1  0.91223891  0.90520012  0.38238000  1
  Ti  Ti139  1  0.10422983  0.09466249  0.61503911  1
  Ti  Ti140  1  0.00644624  0.19420306  0.75027158  1
  Ti  Ti141  1  0.19841482  0.00424726  0.75115881  1
  Ti  Ti142  1  0.10748858  0.07703254  0.39723004  1
  Ti  Ti143  1  0.10403203  0.70639686  0.37193367  1
  Ti  Ti144  1  0.10003440  0.50889429  0.37868952  1
  Ti  Ti145  1  0.49142967  0.50835362  0.13241817  1
  Ti  Ti146  1  0.58643178  0.59784191  0.74457123  1
  Ti  Ti147  1  0.90108228  0.09909195  0.09790751  1
  Ti  Ti148  1  0.18934166  0.40860007  0.25211807  1
  Ti  Ti149  1  0.71581267  0.09316771  0.61795635  1
  Ti  Ti150  1  0.29985048  0.49725759  0.88109723  1
  Ti  Ti151  1  0.00039472  0.00508699  0.74994271  1
  Ti  Ti152  1  0.29911282  0.29770378  0.61887982  1
  Ti  Ti153  1  0.30221048  0.90176585  0.86364973  1
  Ti  Ti154  1  0.01520565  0.60183409  0.72338910  1
  Ti  Ti155  1  0.89670127  0.89095111  0.86206227  1
  Ti  Ti156  1  0.58070801  0.80562993  0.26034308  1
  Ti  Ti157  1  0.79449643  -0.02793929  -0.00328515  1
  Ti  Ti158  1  0.29869393  0.89007801  0.38865789  1
  Ti  Ti159  1  0.39737181  0.78611462  0.51641172  1
  Mo  Mo160  1  0.39599534  0.40570910  0.49167088  1
  Mo  Mo161  1  0.30073784  0.70350642  0.62507109  1
  Mo  Mo162  1  0.79626329  0.20355091  -0.00588428  1
  Mo  Mo163  1  0.60459699  0.42195802  0.24461464  1
  Mo  Mo164  1  0.71033843  0.69212549  0.12236010  1
  Mo  Mo165  1  0.10586404  0.49242686  0.62500897  1
  Mo  Mo166  1  0.89129454  0.30844638  0.10962372  1
  Mo  Mo167  1  0.29674644  0.30177269  0.88305725  1
  Mo  Mo168  1  0.09727615  0.88853485  0.37875471  1
  Mo  Mo169  1  0.10673600  0.31121723  0.12495302  1
  Mo  Mo170  1  0.00023927  0.20052926  0.21187800  1
  Mo  Mo171  1  0.21133085  0.79108682  0.26707622  1
  Mo  Mo172  1  0.69152407  0.87906336  0.11834191  1
  Mo  Mo173  1  0.19226393  0.60040005  0.26493335  1
  Mo  Mo174  1  0.10490366  0.70967108  0.85758145  1
  Mo  Mo175  1  0.30021641  0.09699855  0.38700135  1
  Mo  Mo176  1  0.89973460  0.69225651  0.63734725  1
  Mo  Mo177  1  0.39737307  0.81088549  0.26313680  1
  Mo  Mo178  1  0.00103168  -0.00648456  -0.00299039  1
  Mo  Mo179  1  0.30403676  0.70121221  0.12100888  1
  Mo  Mo180  1  0.59775354  -0.01259360  -0.01323638  1
  Mo  Mo181  1  0.59554690  0.20575927  0.75680424  1
  Mo  Mo182  1  0.61286641  0.81680235  -0.00755521  1
  Mo  Mo183  1  0.89445538  0.49966631  0.87127877  1
  Mo  Mo184  1  0.00083349  0.59828738  0.50988433  1
  Mo  Mo185  1  0.39393267  0.40786024  0.24840889  1
  Mo  Mo186  1  0.48818001  0.09917241  0.12018540  1
  Mo  Mo187  1  0.40462469  0.60368487  0.50107349  1
  Mo  Mo188  1  0.20041818  0.59849902  -0.00021114  1
  Mo  Mo189  1  0.81264581  0.00120767  0.75127901  1
  Mo  Mo190  1  0.20579992  -0.00592881  0.49517911  1
  Mo  Mo191  1  0.10429014  0.70921923  0.62752468  1
  Mo  Mo192  1  0.00426414  0.61303229  0.00982918  1
  Mo  Mo193  1  0.00355456  -0.00601149  0.50397204  1
  Mo  Mo194  1  0.50239823  0.89450122  0.39073718  1
  Mo  Mo195  1  0.49257401  0.69946969  0.63647473  1
  Mo  Mo196  1  0.79712070  0.39236142  0.76695107  1
  Mo  Mo197  1  0.81128441  0.79579846  0.74644842  1
  Mo  Mo198  1  0.49858624  0.50225948  0.63355292  1
  Mo  Mo199  1  0.59421756  0.80592790  0.74014223  1
