# generated using pymatgen
data_HfZrTaTiMo
_symmetry_space_group_name_H-M   'P 1'
_cell_length_a   15.21394140
_cell_length_b   15.19570533
_cell_length_c   16.81644321
_cell_angle_alpha   89.94172657
_cell_angle_beta   89.99521868
_cell_angle_gamma   90.03031454
_symmetry_Int_Tables_number   1
_chemical_formula_structural   HfZrTaTiMo
_chemical_formula_sum   'Hf40 Zr40 Ta40 Ti40 Mo40'
_cell_volume   3887.73326374
_cell_formula_units_Z   40
loop_
 _symmetry_equiv_pos_site_id
 _symmetry_equiv_pos_as_xyz
  1  'x, y, z'
loop_
 _atom_site_type_symbol
 _atom_site_label
 _atom_site_symmetry_multiplicity
 _atom_site_fract_x
 _atom_site_fract_y
 _atom_site_fract_z
 _atom_site_occupancy
  Hf  Hf0  1  0.78754545  0.80899457  0.50192857  1
  Hf  Hf1  1  0.01617911  0.00008276  0.74169970  1
  Hf  Hf2  1  0.70009859  0.90331244  0.85243781  1
  Hf  Hf3  1  0.00110497  0.80285268  0.49475344  1
  Hf  Hf4  1  0.60888279  0.19793100  0.00121396  1
  Hf  Hf5  1  0.89462867  0.71303110  0.13356561  1
  Hf  Hf6  1  0.48936786  0.29213089  0.38341501  1
  Hf  Hf7  1  0.69527908  0.29503119  0.85400368  1
  Hf  Hf8  1  0.10520219  0.50342381  0.88076139  1
  Hf  Hf9  1  0.78656772  0.20134235  0.51079116  1
  Hf  Hf10  1  0.90076215  0.91378345  0.86649272  1
  Hf  Hf11  1  0.80270043  0.00057650  0.50597970  1
  Hf  Hf12  1  0.00162284  0.79233708  0.74338832  1
  Hf  Hf13  1  0.78526503  0.60708738  0.25399337  1
  Hf  Hf14  1  0.79997356  0.40440608  0.26269934  1
  Hf  Hf15  1  0.19970890  0.40661770  0.24782440  1
  Hf  Hf16  1  0.39267456  0.18422467  -0.01195009  1
  Hf  Hf17  1  0.89287473  0.70466918  0.87540940  1
  Hf  Hf18  1  0.59394329  0.20235746  0.24439025  1
  Hf  Hf19  1  0.38011701  0.79521601  0.75097726  1
  Hf  Hf20  1  0.30718058  0.90702548  0.61336407  1
  Hf  Hf21  1  0.91056780  0.29961039  0.12915965  1
  Hf  Hf22  1  0.50307462  0.88381995  0.13891434  1
  Hf  Hf23  1  0.70420213  0.31297798  0.12287335  1
  Hf  Hf24  1  0.72062114  0.09021168  0.13121459  1
  Hf  Hf25  1  0.09393544  0.70217897  0.36548171  1
  Hf  Hf26  1  0.09149605  0.91188462  0.12454103  1
  Hf  Hf27  1  0.49649551  0.09453828  0.63218992  1
  Hf  Hf28  1  0.20220108  0.40860281  0.74894746  1
  Hf  Hf29  1  0.68249906  0.69903272  0.12698418  1
  Hf  Hf30  1  0.90349975  0.30376520  0.64122871  1
  Hf  Hf31  1  0.28864989  0.70688219  0.88589767  1
  Hf  Hf32  1  0.21991479  0.60551188  0.25346267  1
  Hf  Hf33  1  0.21680933  0.00211275  0.75231970  1
  Hf  Hf34  1  0.19085512  0.39646480  0.50248470  1
  Hf  Hf35  1  0.72999578  0.10117993  0.85317053  1
  Hf  Hf36  1  0.30106680  0.50259816  0.61208373  1
  Hf  Hf37  1  0.11540535  0.11586838  0.37997630  1
  Hf  Hf38  1  0.79765816  0.60942207  0.73830164  1
  Hf  Hf39  1  0.90257870  0.10675660  0.37564588  1
  Zr  Zr40  1  0.78848472  0.58028567  -0.00828860  1
  Zr  Zr41  1  0.09746752  0.70509999  0.88506125  1
  Zr  Zr42  1  0.69368868  0.09626868  0.36850718  1
  Zr  Zr43  1  -0.02067975  0.39509882  -0.01796236  1
  Zr  Zr44  1  0.89298408  0.69147114  0.37707155  1
  Zr  Zr45  1  0.69764822  0.50279713  0.38444389  1
  Zr  Zr46  1  0.68125820  0.50075307  0.84944578  1
  Zr  Zr47  1  0.88430715  0.49569339  0.12502484  1
  Zr  Zr48  1  0.47795688  0.29587985  0.12319356  1
  Zr  Zr49  1  0.00072783  0.21267393  0.50948215  1
  Zr  Zr50  1  0.21146709  0.01882552  0.00823383  1
  Zr  Zr51  1  0.59879933  0.59922800  0.50934100  1
  Zr  Zr52  1  0.49844365  0.49916001  0.13223644  1
  Zr  Zr53  1  0.48643472  0.67244728  0.85680971  1
  Zr  Zr54  1  0.12276176  0.11146241  0.61910393  1
  Zr  Zr55  1  0.31330545  0.90661913  0.13242585  1
  Zr  Zr56  1  0.50592217  0.89438431  0.62685484  1
  Zr  Zr57  1  0.21749729  0.00867390  0.48851511  1
  Zr  Zr58  1  0.31816840  0.89509238  0.36220754  1
  Zr  Zr59  1  0.48309763  0.69641635  0.62229919  1
  Zr  Zr60  1  0.69071154  0.70670642  0.87058413  1
  Zr  Zr61  1  0.62188272  -0.01336208  0.00155038  1
  Zr  Zr62  1  0.49961619  0.49072597  0.63433780  1
  Zr  Zr63  1  0.60305810  0.39985385  -0.00810597  1
  Zr  Zr64  1  0.57492427  0.59651906  -0.00472562  1
  Zr  Zr65  1  0.00574711  0.18291940  -0.00596090  1
  Zr  Zr66  1  0.10502758  0.90203148  0.88887190  1
  Zr  Zr67  1  -0.00440864  0.60639161  0.00444894  1
  Zr  Zr68  1  0.31293146  0.50635485  0.88100888  1
  Zr  Zr69  1  0.51810055  0.09252109  0.86942766  1
  Zr  Zr70  1  0.08474183  0.31099908  0.36609861  1
  Zr  Zr71  1  0.78915935  0.81943188  0.00575454  1
  Zr  Zr72  1  0.01238076  0.00613322  0.26105003  1
  Zr  Zr73  1  0.80054144  0.40301044  0.51065155  1
  Zr  Zr74  1  0.80872233  0.20321237  0.25281765  1
  Zr  Zr75  1  0.09712708  0.49183984  0.11827401  1
  Zr  Zr76  1  0.00531400  -0.00427189  0.49737196  1
  Zr  Zr77  1  0.90868233  0.69549361  0.61631014  1
  Zr  Zr78  1  0.68174267  0.71197381  0.38350636  1
  Zr  Zr79  1  0.49994615  0.08137218  0.12555368  1
  Ta  Ta80  1  0.59658655  0.38643722  0.50977878  1
  Ta  Ta81  1  0.00061732  0.59045952  0.24492244  1
  Ta  Ta82  1  0.58685071  0.79694972  0.00101997  1
  Ta  Ta83  1  0.31838655  0.11156884  0.35920247  1
  Ta  Ta84  1  0.42048846  -0.00056814  0.48729530  1
  Ta  Ta85  1  0.09440377  0.51127494  0.62706430  1
  Ta  Ta86  1  0.39084187  0.39942678  0.25723224  1
  Ta  Ta87  1  0.20491187  0.20979711  0.24270603  1
  Ta  Ta88  1  0.51477578  0.89066705  0.36875008  1
  Ta  Ta89  1  0.29388933  0.29910949  0.38352151  1
  Ta  Ta90  1  0.10117417  0.31336360  0.63850346  1
  Ta  Ta91  1  0.80999042  0.21025228  -0.00527871  1
  Ta  Ta92  1  0.19487925  0.80805302  0.25307098  1
  Ta  Ta93  1  0.20442658  0.61576512  0.74231132  1
  Ta  Ta94  1  0.49504638  0.30261366  0.86345804  1
  Ta  Ta95  1  0.68557428  0.29883167  0.63926957  1
  Ta  Ta96  1  0.11168039  0.10527540  0.87196890  1
  Ta  Ta97  1  0.09958902  0.70616133  0.13632189  1
  Ta  Ta98  1  0.31080423  0.11583869  0.14064358  1
  Ta  Ta99  1  0.10238025  0.29889807  0.86721629  1
  Ta  Ta100  1  0.30795316  0.50037172  0.38976997  1
  Ta  Ta101  1  0.69053946  0.29895105  0.38121425  1
  Ta  Ta102  1  0.29877277  0.28860832  0.61981105  1
  Ta  Ta103  1  0.89962454  0.10016530  0.63653892  1
  Ta  Ta104  1  0.30977139  0.50012571  0.11822911  1
  Ta  Ta105  1  0.29113982  0.70456082  0.60304137  1
  Ta  Ta106  1  0.69455273  0.09610864  0.64475890  1
  Ta  Ta107  1  0.29475257  0.29505791  0.87558717  1
  Ta  Ta108  1  0.40297047  -0.00337304  0.76295894  1
  Ta  Ta109  1  0.19985458  0.80070759  0.01977266  1
  Ta  Ta110  1  0.20022786  0.80490457  0.48364709  1
  Ta  Ta111  1  0.70113585  0.90122111  0.64133288  1
  Ta  Ta112  1  0.89476020  0.29195538  0.85438536  1
  Ta  Ta113  1  0.89063105  0.91193890  0.14307661  1
  Ta  Ta114  1  0.19467764  0.80508179  0.74332158  1
  Ta  Ta115  1  0.59312559  0.40427151  0.26013756  1
  Ta  Ta116  1  0.89664643  0.89187552  0.35574128  1
  Ta  Ta117  1  0.20818359  0.00911673  0.25090451  1
  Ta  Ta118  1  0.49964563  0.88448686  0.87381612  1
  Ta  Ta119  1  0.61031614  -0.00739682  0.49985878  1
  Ti  Ti120  1  0.91087477  0.49999184  0.37839815  1
  Ti  Ti121  1  0.40014454  0.39832980  -0.00734759  1
  Ti  Ti122  1  0.59169939  0.78205384  0.25599519  1
  Ti  Ti123  1  0.30659325  0.70284084  0.13022229  1
  Ti  Ti124  1  0.47680985  0.69593306  0.37996866  1
  Ti  Ti125  1  0.39253740  0.19170919  0.75520492  1
  Ti  Ti126  1  0.91105183  0.49973909  0.63361716  1
  Ti  Ti127  1  0.19072070  0.60324500  0.49109977  1
  Ti  Ti128  1  0.00468435  0.59131499  0.75662355  1
  Ti  Ti129  1  0.10861470  0.89378085  0.61793898  1
  Ti  Ti130  1  0.83046154  0.01817577  -0.00252557  1
  Ti  Ti131  1  0.50226542  0.08882126  0.36332491  1
  Ti  Ti132  1  0.09583789  0.50515431  0.37304513  1
  Ti  Ti133  1  0.20388076  0.39342389  0.00296412  1
  Ti  Ti134  1  0.59680955  0.78963935  0.74732775  1
  Ti  Ti135  1  0.80469185  0.59410838  0.51320540  1
  Ti  Ti136  1  -0.00190681  0.41390402  0.50520420  1
  Ti  Ti137  1  0.21011577  0.20051919  0.75291022  1
  Ti  Ti138  1  0.20278889  0.20868963  0.00715831  1
  Ti  Ti139  1  0.20577136  0.60505165  0.01692135  1
  Ti  Ti140  1  0.30537352  0.90653596  0.89109326  1
  Ti  Ti141  1  0.40136132  0.79132804  0.00246548  1
  Ti  Ti142  1  0.68763860  0.50402416  0.13368956  1
  Ti  Ti143  1  0.89784895  0.89906661  0.63271087  1
  Ti  Ti144  1  0.89687122  0.30581737  0.37830380  1
  Ti  Ti145  1  0.10080883  0.29278927  0.12897165  1
  Ti  Ti146  1  0.48561233  0.68879953  0.13930543  1
  Ti  Ti147  1  0.49546632  0.49593924  0.38547824  1
  Ti  Ti148  1  0.69978914  0.89492959  0.15089201  1
  Ti  Ti149  1  -0.00825935  0.81473734  0.00879386  1
  Ti  Ti150  1  0.70192452  0.90531006  0.35788009  1
  Ti  Ti151  1  0.92332863  0.09894409  0.13314788  1
  Ti  Ti152  1  0.59152971  0.18884202  0.50400294  1
  Ti  Ti153  1  0.10454302  0.69894401  0.61434610  1
  Ti  Ti154  1  0.79956404  0.40814190  0.74263221  1
  Ti  Ti155  1  0.39440970  0.39146226  0.74986580  1
  Ti  Ti156  1  0.00917001  0.20002356  0.75232471  1
  Ti  Ti157  1  0.38873369  0.19020663  0.50444999  1
  Ti  Ti158  1  0.49027920  0.29030426  0.62678050  1
  Ti  Ti159  1  0.69127540  0.70766534  0.62203472  1
  Mo  Mo160  1  0.20804430  0.20880873  0.50018086  1
  Mo  Mo161  1  0.41424355  -0.01808309  -0.01159038  1
  Mo  Mo162  1  0.40091725  0.38723107  0.50114866  1
  Mo  Mo163  1  0.80368099  0.20391995  0.73590804  1
  Mo  Mo164  1  0.80126034  0.79904346  0.73728574  1
  Mo  Mo165  1  0.29848352  0.69535784  0.38874285  1
  Mo  Mo166  1  0.49199661  0.48386316  0.85143424  1
  Mo  Mo167  1  0.40894951  0.00123696  0.25844317  1
  Mo  Mo168  1  0.29329506  0.31044273  0.11623750  1
  Mo  Mo169  1  0.58271353  0.59462266  0.26178355  1
  Mo  Mo170  1  0.39671889  0.20967134  0.25214441  1
  Mo  Mo171  1  0.00501739  0.58906025  0.49934432  1
  Mo  Mo172  1  0.70310171  0.49776252  0.62987792  1
  Mo  Mo173  1  0.00259899  0.40580778  0.76106314  1
  Mo  Mo174  1  0.30262942  0.10228425  0.87477124  1
  Mo  Mo175  1  0.89657950  0.49589566  0.85605192  1
  Mo  Mo176  1  0.59031271  0.39132158  0.73919697  1
  Mo  Mo177  1  0.39974624  0.80291947  0.49371091  1
  Mo  Mo178  1  0.80493334  0.00231964  0.25195563  1
  Mo  Mo179  1  0.60355556  -0.00772610  0.24963598  1
  Mo  Mo180  1  0.11067068  0.10942638  0.13141314  1
  Mo  Mo181  1  0.58851143  0.19955343  0.74493434  1
  Mo  Mo182  1  0.59901616  0.59935469  0.72854550  1
  Mo  Mo183  1  0.39439443  0.78090794  0.25290371  1
  Mo  Mo184  1  0.31680464  0.10293128  0.62619800  1
  Mo  Mo185  1  0.79651978  0.38766764  -0.01659118  1
  Mo  Mo186  1  -0.00003334  0.79757776  0.24771703  1
  Mo  Mo187  1  0.79169759  0.80136931  0.25072619  1
  Mo  Mo188  1  0.01020058  0.20692393  0.24709975  1
  Mo  Mo189  1  0.39107881  0.60311409  0.00812706  1
  Mo  Mo190  1  0.39326422  0.59699019  0.49303186  1
  Mo  Mo191  1  0.81260397  -0.00200061  0.73672101  1
  Mo  Mo192  1  0.10400293  0.90057345  0.36756266  1
  Mo  Mo193  1  0.59466320  0.81334171  0.49828216  1
  Mo  Mo194  1  0.59656281  -0.00716325  0.75286462  1
  Mo  Mo195  1  -0.00108462  0.00243118  0.00291865  1
  Mo  Mo196  1  0.91708365  0.10509245  0.85950377  1
  Mo  Mo197  1  -0.00442483  0.40503104  0.25433004  1
  Mo  Mo198  1  0.40313323  0.58989355  0.26332699  1
  Mo  Mo199  1  0.37936590  0.59403156  0.74090024  1
