# generated using pymatgen
data_HfZrTaTiMo
_symmetry_space_group_name_H-M   'P 1'
_cell_length_a   15.21835593
_cell_length_b   15.20785209
_cell_length_c   16.85298916
_cell_angle_alpha   89.97909365
_cell_angle_beta   89.98342466
_cell_angle_gamma   89.99992051
_symmetry_Int_Tables_number   1
_chemical_formula_structural   HfZrTaTiMo
_chemical_formula_sum   'Hf40 Zr40 Ta40 Ti40 Mo40'
_cell_volume   3900.43021051
_cell_formula_units_Z   40
loop_
 _symmetry_equiv_pos_site_id
 _symmetry_equiv_pos_as_xyz
  1  'x, y, z'
loop_
 _atom_site_type_symbol
 _atom_site_label
 _atom_site_symmetry_multiplicity
 _atom_site_fract_x
 _atom_site_fract_y
 _atom_site_fract_z
 _atom_site_occupancy
  Hf  Hf0  1  0.68926489  0.49306711  0.11758019  1
  Hf  Hf1  1  0.71100754  0.29858178  0.10447915  1
  Hf  Hf2  1  0.39701094  0.80080740  0.74839494  1
  Hf  Hf3  1  -0.00713208  0.19914642  0.25059936  1
  Hf  Hf4  1  0.38977422  0.59910194  0.48968118  1
  Hf  Hf5  1  0.59497312  0.58768578  0.25830420  1
  Hf  Hf6  1  -0.01302329  0.00994531  -0.01275108  1
  Hf  Hf7  1  0.49502119  0.50761962  0.11634189  1
  Hf  Hf8  1  0.89848653  0.72151230  0.37316417  1
  Hf  Hf9  1  0.71790182  0.27888016  0.62609900  1
  Hf  Hf10  1  0.50378730  0.49398229  0.88331608  1
  Hf  Hf11  1  -0.00144649  -0.00124782  0.24742014  1
  Hf  Hf12  1  0.60193722  0.19396456  0.49208873  1
  Hf  Hf13  1  0.30153602  0.10279668  0.36480106  1
  Hf  Hf14  1  0.49664814  0.88041980  0.13044004  1
  Hf  Hf15  1  0.59959947  -0.00847483  0.25051359  1
  Hf  Hf16  1  0.32367258  0.70401328  0.13227620  1
  Hf  Hf17  1  0.40580579  0.39858974  0.49029441  1
  Hf  Hf18  1  0.60905516  0.59182397  0.75297423  1
  Hf  Hf19  1  0.90079204  0.90986451  0.11656269  1
  Hf  Hf20  1  0.09428937  0.89849406  0.38913532  1
  Hf  Hf21  1  0.19105410  0.40874651  0.00086706  1
  Hf  Hf22  1  0.40718157  0.00795924  0.01088883  1
  Hf  Hf23  1  -0.00755010  0.22810931  0.74037950  1
  Hf  Hf24  1  0.80686955  0.59951561  0.00148879  1
  Hf  Hf25  1  0.50336167  0.30256932  0.11708662  1
  Hf  Hf26  1  0.08491534  0.10528886  0.12087379  1
  Hf  Hf27  1  0.70859437  0.09218446  0.37325410  1
  Hf  Hf28  1  0.60566378  -0.01064941  0.49562406  1
  Hf  Hf29  1  0.72259899  0.48264406  0.61545901  1
  Hf  Hf30  1  0.50042508  0.10514388  0.62439100  1
  Hf  Hf31  1  0.30522238  0.09964403  0.62832265  1
  Hf  Hf32  1  0.09768858  0.89621565  0.61174316  1
  Hf  Hf33  1  0.29772669  0.10143277  0.86999040  1
  Hf  Hf34  1  0.61282500  0.20423355  0.24665552  1
  Hf  Hf35  1  0.69930300  0.46534680  0.37299509  1
  Hf  Hf36  1  -0.01830354  0.39074270  0.25803722  1
  Hf  Hf37  1  0.78104657  0.01039972  -0.00703152  1
  Hf  Hf38  1  0.30979517  0.30000770  0.63035845  1
  Hf  Hf39  1  -0.01911977  0.60902963  0.50718725  1
  Zr  Zr40  1  0.79547134  0.60317903  0.25129270  1
  Zr  Zr41  1  -0.00164739  0.60943028  0.24518846  1
  Zr  Zr42  1  0.09080453  0.89016171  0.87702501  1
  Zr  Zr43  1  0.20247050  0.20422240  0.00117137  1
  Zr  Zr44  1  0.09697785  0.49594520  0.37008692  1
  Zr  Zr45  1  0.29221763  0.90214109  0.87625062  1
  Zr  Zr46  1  0.19601440  -0.00636921  0.01278652  1
  Zr  Zr47  1  0.09697542  0.10242935  0.37866948  1
  Zr  Zr48  1  0.28764535  0.69330562  0.88120116  1
  Zr  Zr49  1  0.39626728  0.79839573  -0.00178655  1
  Zr  Zr50  1  0.89140067  0.48307993  0.12991559  1
  Zr  Zr51  1  0.10100695  0.71224569  0.38199935  1
  Zr  Zr52  1  0.19936607  0.59900782  0.49773507  1
  Zr  Zr53  1  -0.00367277  0.79330010  0.73440550  1
  Zr  Zr54  1  -0.03007650  0.00400357  0.51519084  1
  Zr  Zr55  1  0.48511851  0.69951118  0.61950513  1
  Zr  Zr56  1  0.82037381  0.81507577  0.52066245  1
  Zr  Zr57  1  0.10285908  0.30231979  0.87291664  1
  Zr  Zr58  1  0.09742532  0.10662288  0.63710935  1
  Zr  Zr59  1  0.59761633  0.58213289  0.49315439  1
  Zr  Zr60  1  0.20116829  0.39788371  0.49966616  1
  Zr  Zr61  1  0.91299695  0.70175603  0.87954567  1
  Zr  Zr62  1  0.40528589  0.39778182  0.75907062  1
  Zr  Zr63  1  0.20680636  0.81657414  0.23812727  1
  Zr  Zr64  1  0.71007694  0.68662016  0.61414527  1
  Zr  Zr65  1  -0.00929997  0.21579370  0.51502088  1
  Zr  Zr66  1  0.20121915  0.79379383  0.73965024  1
  Zr  Zr67  1  0.01543196  0.60477994  0.01668915  1
  Zr  Zr68  1  0.50772340  0.91365512  0.87832514  1
  Zr  Zr69  1  0.20236526  0.00898629  0.50253942  1
  Zr  Zr70  1  0.30523526  0.11220823  0.13678796  1
  Zr  Zr71  1  0.50428411  0.70000207  0.87143291  1
  Zr  Zr72  1  0.70449435  0.88049447  0.37099196  1
  Zr  Zr73  1  0.38894188  0.39191842  -0.00556006  1
  Zr  Zr74  1  0.29646799  0.49653871  0.13392817  1
  Zr  Zr75  1  0.20972705  0.60156583  0.25880571  1
  Zr  Zr76  1  0.50349716  0.48900560  0.63146447  1
  Zr  Zr77  1  0.50717493  0.71299816  0.38388481  1
  Zr  Zr78  1  0.60632422  0.80900862  0.73816123  1
  Zr  Zr79  1  0.62099225  0.37969757  0.76092917  1
  Ta  Ta80  1  -0.00764247  0.40213119  0.00087594  1
  Ta  Ta81  1  0.69685335  0.70339563  0.12171462  1
  Ta  Ta82  1  -0.00300571  0.59264724  0.73895489  1
  Ta  Ta83  1  0.09426871  0.30849832  0.12693977  1
  Ta  Ta84  1  0.08928212  0.48851238  0.62444053  1
  Ta  Ta85  1  0.19102160  0.59643043  0.74087160  1
  Ta  Ta86  1  -0.01160677  0.40525855  0.49827756  1
  Ta  Ta87  1  0.39210025  -0.01357931  0.24699665  1
  Ta  Ta88  1  0.40685934  0.00376090  0.49345385  1
  Ta  Ta89  1  0.80212685  0.01542162  0.23684880  1
  Ta  Ta90  1  0.80934615  0.59659555  0.75522307  1
  Ta  Ta91  1  0.30936702  0.89091764  0.61020743  1
  Ta  Ta92  1  0.80691256  0.21315902  0.24390230  1
  Ta  Ta93  1  0.89137318  0.10946593  0.85400699  1
  Ta  Ta94  1  0.09107504  0.50802870  0.87052865  1
  Ta  Ta95  1  0.29837994  0.50617383  0.63299160  1
  Ta  Ta96  1  0.80083459  0.79890074  0.74182513  1
  Ta  Ta97  1  0.40322858  -0.00079355  0.74804940  1
  Ta  Ta98  1  0.69768113  0.90173299  0.12376974  1
  Ta  Ta99  1  0.69286214  0.08662302  0.63667546  1
  Ta  Ta100  1  0.69955807  0.89785322  0.87556982  1
  Ta  Ta101  1  0.30348081  0.89819849  0.38429731  1
  Ta  Ta102  1  0.89349677  0.91679277  0.37112652  1
  Ta  Ta103  1  0.40952428  0.40889419  0.25829859  1
  Ta  Ta104  1  0.41464130  0.19702050  0.76140969  1
  Ta  Ta105  1  0.20502703  0.21029222  0.50013583  1
  Ta  Ta106  1  0.89408814  0.31662487  0.87647715  1
  Ta  Ta107  1  0.29777104  0.30592808  0.36101430  1
  Ta  Ta108  1  0.87596473  0.11537043  0.64665462  1
  Ta  Ta109  1  0.80274242  0.80439164  -0.00043558  1
  Ta  Ta110  1  0.51349941  0.30541365  0.36632863  1
  Ta  Ta111  1  0.88906496  0.90251674  0.86674803  1
  Ta  Ta112  1  0.60891067  0.80077068  0.00164339  1
  Ta  Ta113  1  0.71724198  0.48868486  0.88498199  1
  Ta  Ta114  1  0.09378132  0.09832309  0.85875139  1
  Ta  Ta115  1  0.51603327  0.28243818  0.88800151  1
  Ta  Ta116  1  0.89184626  0.11219852  0.37897299  1
  Ta  Ta117  1  0.70792189  0.70306690  0.87523710  1
  Ta  Ta118  1  0.80824445  0.19822675  -0.01342976  1
  Ta  Ta119  1  0.28522596  0.50039804  0.86744008  1
  Ti  Ti120  1  0.90568030  0.71192114  0.12101088  1
  Ti  Ti121  1  0.60568805  0.17448693  0.00255677  1
  Ti  Ti122  1  0.30158077  0.30097424  0.86814386  1
  Ti  Ti123  1  0.30578830  0.71750332  0.37478687  1
  Ti  Ti124  1  0.19493001  0.00191747  0.24038000  1
  Ti  Ti125  1  0.39951367  0.20375808  0.48705118  1
  Ti  Ti126  1  0.67940336  0.10298477  0.86097686  1
  Ti  Ti127  1  0.50903640  0.29377399  0.62851181  1
  Ti  Ti128  1  0.82292856  0.40257986  0.75145458  1
  Ti  Ti129  1  0.20066093  -0.00537539  0.74394205  1
  Ti  Ti130  1  0.40892420  0.20509417  0.25129396  1
  Ti  Ti131  1  0.80355253  0.80980726  0.24039741  1
  Ti  Ti132  1  -0.00411761  0.20537122  -0.00863016  1
  Ti  Ti133  1  0.60290727  0.60549565  -0.00543583  1
  Ti  Ti134  1  0.49632460  0.09776472  0.36671151  1
  Ti  Ti135  1  0.18320939  0.79356570  0.02390457  1
  Ti  Ti136  1  0.00571216  0.80729939  0.23812899  1
  Ti  Ti137  1  0.29615217  0.30669005  0.14191960  1
  Ti  Ti138  1  0.19219389  0.20672068  0.24989312  1
  Ti  Ti139  1  0.78309035  -0.00430107  0.75502357  1
  Ti  Ti140  1  -0.00845124  -0.00053977  0.74691412  1
  Ti  Ti141  1  0.51066984  0.09517886  0.13104884  1
  Ti  Ti142  1  0.20342756  0.60185090  0.00998727  1
  Ti  Ti143  1  0.40719895  0.60762696  0.26629811  1
  Ti  Ti144  1  0.39013075  0.60053204  0.75195467  1
  Ti  Ti145  1  0.19013205  0.40015447  0.74451822  1
  Ti  Ti146  1  0.49417106  0.89766129  0.37203128  1
  Ti  Ti147  1  0.60083057  0.80019171  0.51147260  1
  Ti  Ti148  1  0.39649969  0.59879674  -0.00500204  1
  Ti  Ti149  1  0.40281256  0.19782731  -0.00381998  1
  Ti  Ti150  1  0.20277931  0.20374492  0.74737880  1
  Ti  Ti151  1  0.88707345  0.49852039  0.37697089  1
  Ti  Ti152  1  0.09501129  0.29814815  0.37590921  1
  Ti  Ti153  1  0.10449408  0.69702667  0.61229663  1
  Ti  Ti154  1  0.10126618  0.49672830  0.14034897  1
  Ti  Ti155  1  0.50211719  0.90926053  0.62217720  1
  Ti  Ti156  1  0.60225969  0.78409227  0.24566620  1
  Ti  Ti157  1  0.10207055  0.69556587  0.87730219  1
  Ti  Ti158  1  0.70979484  0.68851646  0.39034529  1
  Ti  Ti159  1  0.60487346  0.38284318  0.50119627  1
  Mo  Mo160  1  -0.00143778  0.80508871  0.00471238  1
  Mo  Mo161  1  0.69997630  0.09841332  0.12514677  1
  Mo  Mo162  1  0.90698380  0.50478638  0.87678717  1
  Mo  Mo163  1  0.49943895  0.49306314  0.37369545  1
  Mo  Mo164  1  0.79016338  0.21107854  0.76674581  1
  Mo  Mo165  1  0.60025460  -0.00346510  0.00953207  1
  Mo  Mo166  1  0.78750455  0.38556756  0.24717982  1
  Mo  Mo167  1  0.71059491  0.28409376  0.37889195  1
  Mo  Mo168  1  0.89004828  0.11369638  0.11636730  1
  Mo  Mo169  1  0.30614250  0.49815325  0.36524366  1
  Mo  Mo170  1  0.79470630  0.01061332  0.50888907  1
  Mo  Mo171  1  0.00399639  0.41341550  0.75070942  1
  Mo  Mo172  1  0.90905961  0.28804277  0.11249651  1
  Mo  Mo173  1  0.09247994  0.89892291  0.11812471  1
  Mo  Mo174  1  -0.00014036  0.80507454  0.51196487  1
  Mo  Mo175  1  0.59159068  0.00209555  0.74872211  1
  Mo  Mo176  1  0.89577860  0.50326705  0.62155305  1
  Mo  Mo177  1  0.51563850  0.68968926  0.12353946  1
  Mo  Mo178  1  0.19497526  0.38859208  0.25293133  1
  Mo  Mo179  1  0.40906187  0.79997098  0.25675653  1
  Mo  Mo180  1  0.10912660  0.30747894  0.62502139  1
  Mo  Mo181  1  0.60169326  0.39774999  -0.01181860  1
  Mo  Mo182  1  0.40555237  0.81134414  0.50083881  1
  Mo  Mo183  1  0.88949936  0.91498664  0.64823486  1
  Mo  Mo184  1  0.89848072  0.32228714  0.62839048  1
  Mo  Mo185  1  0.29754903  0.69487101  0.62474664  1
  Mo  Mo186  1  0.70369859  0.29177674  0.89200452  1
  Mo  Mo187  1  0.80256499  0.58979947  0.48693351  1
  Mo  Mo188  1  0.90076705  0.69519967  0.63204267  1
  Mo  Mo189  1  0.59832378  0.38912490  0.24382871  1
  Mo  Mo190  1  0.59877501  0.19551026  0.75304154  1
  Mo  Mo191  1  0.80619470  0.39816357  -0.00635573  1
  Mo  Mo192  1  0.49672780  0.09997652  0.87881709  1
  Mo  Mo193  1  0.21060022  0.79624374  0.50304191  1
  Mo  Mo194  1  0.88591707  0.30419911  0.37990994  1
  Mo  Mo195  1  0.80885028  0.38181966  0.49783401  1
  Mo  Mo196  1  0.30083378  0.90438089  0.12768573  1
  Mo  Mo197  1  0.80266011  0.18376645  0.50636689  1
  Mo  Mo198  1  0.10424383  0.69900452  0.12953410  1
  Mo  Mo199  1  0.69563398  0.90337094  0.62874556  1
