# generated using pymatgen
data_HfZrTaTiMo
_symmetry_space_group_name_H-M   'P 1'
_cell_length_a   15.19926828
_cell_length_b   15.18197731
_cell_length_c   16.84903120
_cell_angle_alpha   89.99122659
_cell_angle_beta   89.96385754
_cell_angle_gamma   89.99197123
_symmetry_Int_Tables_number   1
_chemical_formula_structural   HfZrTaTiMo
_chemical_formula_sum   'Hf40 Zr40 Ta40 Ti40 Mo40'
_cell_volume   3887.99643096
_cell_formula_units_Z   40
loop_
 _symmetry_equiv_pos_site_id
 _symmetry_equiv_pos_as_xyz
  1  'x, y, z'
loop_
 _atom_site_type_symbol
 _atom_site_label
 _atom_site_symmetry_multiplicity
 _atom_site_fract_x
 _atom_site_fract_y
 _atom_site_fract_z
 _atom_site_occupancy
  Hf  Hf0  1  0.81353704  0.00439326  0.01340255  1
  Hf  Hf1  1  0.39249361  0.40124776  -0.00258573  1
  Hf  Hf2  1  0.28831012  0.89931429  0.87885003  1
  Hf  Hf3  1  0.40404418  0.00992742  0.00555269  1
  Hf  Hf4  1  0.29470510  0.09002362  0.38828046  1
  Hf  Hf5  1  0.79032406  0.79738864  0.47890366  1
  Hf  Hf6  1  0.51012237  0.10298981  0.62576984  1
  Hf  Hf7  1  0.91602653  0.29710020  0.37910040  1
  Hf  Hf8  1  0.08763411  0.27752348  0.86746441  1
  Hf  Hf9  1  0.60259069  0.80303501  -0.00576312  1
  Hf  Hf10  1  0.00607159  0.60279138  0.00025238  1
  Hf  Hf11  1  0.49180223  0.71478158  0.11872050  1
  Hf  Hf12  1  0.29212103  0.28810643  0.37554206  1
  Hf  Hf13  1  0.08797174  0.49498405  0.36679550  1
  Hf  Hf14  1  0.39222666  -0.00519739  0.73182777  1
  Hf  Hf15  1  0.18824363  -0.00321685  0.00797539  1
  Hf  Hf16  1  0.60421393  0.39634724  -0.01217874  1
  Hf  Hf17  1  -0.00284157  0.59666270  0.50753893  1
  Hf  Hf18  1  0.81055383  -0.00635920  0.47321311  1
  Hf  Hf19  1  -0.01321576  0.80212242  0.74458791  1
  Hf  Hf20  1  0.92127205  0.11089271  0.61218262  1
  Hf  Hf21  1  0.62344599  -0.02077677  0.74028223  1
  Hf  Hf22  1  0.72120494  0.08729775  0.62207815  1
  Hf  Hf23  1  0.19382992  0.38977121  0.24492472  1
  Hf  Hf24  1  0.10665639  0.70449719  0.37360241  1
  Hf  Hf25  1  0.28310303  0.30738417  0.85706230  1
  Hf  Hf26  1  0.69423146  0.11146256  0.37252276  1
  Hf  Hf27  1  0.10529445  0.70219723  0.13423295  1
  Hf  Hf28  1  0.49743129  0.10475544  0.38200608  1
  Hf  Hf29  1  0.00385288  0.59517332  0.74264839  1
  Hf  Hf30  1  0.59577565  0.19154391  -0.00184033  1
  Hf  Hf31  1  0.40117470  0.19987914  0.24856012  1
  Hf  Hf32  1  0.71068032  0.08402373  0.86921012  1
  Hf  Hf33  1  0.11240424  0.91392485  0.38940102  1
  Hf  Hf34  1  0.29041589  0.51309863  0.11680629  1
  Hf  Hf35  1  0.91663073  0.90223889  0.14149794  1
  Hf  Hf36  1  0.88527677  0.90579687  0.62161209  1
  Hf  Hf37  1  -0.00085228  0.01360207  0.27232940  1
  Hf  Hf38  1  0.22183016  0.80454171  0.25568437  1
  Hf  Hf39  1  0.40424467  0.40567593  0.24433346  1
  Zr  Zr40  1  -0.03042473  0.39840291  0.75818797  1
  Zr  Zr41  1  0.80048447  0.20727398  -0.00066660  1
  Zr  Zr42  1  0.48831501  0.29530246  0.86771478  1
  Zr  Zr43  1  0.69159376  0.70106429  0.63250738  1
  Zr  Zr44  1  0.02874992  0.00050151  0.73489280  1
  Zr  Zr45  1  0.79537555  -0.00587528  0.26564744  1
  Zr  Zr46  1  0.81406946  0.20653741  0.75823670  1
  Zr  Zr47  1  0.11147921  0.70529094  0.87500365  1
  Zr  Zr48  1  0.39063633  0.61536705  0.24653327  1
  Zr  Zr49  1  0.59880186  0.60393098  -0.00778086  1
  Zr  Zr50  1  0.50161173  0.09614260  0.86204881  1
  Zr  Zr51  1  -0.00125195  0.17998212  0.01131051  1
  Zr  Zr52  1  0.59868976  0.21108229  0.50534054  1
  Zr  Zr53  1  0.18926350  0.39956597  0.00487244  1
  Zr  Zr54  1  0.79120050  0.59521087  0.49024390  1
  Zr  Zr55  1  0.59985460  0.60236722  0.23405663  1
  Zr  Zr56  1  0.40541883  0.39616120  0.50266970  1
  Zr  Zr57  1  0.78880001  0.79338464  0.26302657  1
  Zr  Zr58  1  0.20944005  0.59964470  0.50359313  1
  Zr  Zr59  1  0.39663894  0.79805330  0.74433454  1
  Zr  Zr60  1  0.80985354  0.80022862  0.00840440  1
  Zr  Zr61  1  0.39777411  -0.01325547  0.25208831  1
  Zr  Zr62  1  0.10190291  0.71305725  0.61864584  1
  Zr  Zr63  1  0.88612930  0.31659573  0.61955322  1
  Zr  Zr64  1  0.79472573  0.58872502  0.24473484  1
  Zr  Zr65  1  0.30362374  0.50418995  0.37742236  1
  Zr  Zr66  1  0.92236183  0.09149117  0.86693275  1
  Zr  Zr67  1  0.20889007  0.60180042  0.74588565  1
  Zr  Zr68  1  0.90731305  0.69498169  0.13749931  1
  Zr  Zr69  1  0.39523054  0.79782128  0.51539654  1
  Zr  Zr70  1  0.68811706  0.29984311  0.63584559  1
  Zr  Zr71  1  0.71711465  0.49366181  0.63747425  1
  Zr  Zr72  1  0.81121958  0.59711880  0.76715388  1
  Zr  Zr73  1  0.50074576  0.89992049  0.87752700  1
  Zr  Zr74  1  0.10147747  0.49053294  0.87704212  1
  Zr  Zr75  1  0.30022563  0.10778213  0.87057436  1
  Zr  Zr76  1  0.18198411  0.38814730  0.50735758  1
  Zr  Zr77  1  0.81986308  0.19432021  0.24178984  1
  Zr  Zr78  1  0.30886224  0.49641202  0.62935685  1
  Zr  Zr79  1  0.78976539  0.38923566  0.24769404  1
  Ta  Ta80  1  0.91375631  0.69250922  0.36039068  1
  Ta  Ta81  1  0.10243814  0.12888765  0.39388404  1
  Ta  Ta82  1  0.59887353  0.41463113  0.50436507  1
  Ta  Ta83  1  0.30493923  0.70148998  0.62836280  1
  Ta  Ta84  1  0.50288149  0.30227167  0.12204806  1
  Ta  Ta85  1  0.29399510  0.10123233  0.12909430  1
  Ta  Ta86  1  0.30578702  0.89438123  0.11783946  1
  Ta  Ta87  1  0.59359313  0.78350078  0.49715028  1
  Ta  Ta88  1  0.51749676  0.31208899  0.36971232  1
  Ta  Ta89  1  0.40799736  -0.00286464  0.51280906  1
  Ta  Ta90  1  0.69981121  0.30231459  0.11818490  1
  Ta  Ta91  1  0.80395634  0.20339387  0.49096378  1
  Ta  Ta92  1  0.49494543  0.50115879  0.11202230  1
  Ta  Ta93  1  0.79803564  0.59826539  -0.00537229  1
  Ta  Ta94  1  0.58844571  0.80781242  0.25368412  1
  Ta  Ta95  1  0.20305653  0.19763074  0.00609257  1
  Ta  Ta96  1  0.59972214  0.79081123  0.75835538  1
  Ta  Ta97  1  0.39665646  0.20279516  0.73690291  1
  Ta  Ta98  1  0.09610728  0.09183864  0.13297230  1
  Ta  Ta99  1  0.59807687  0.59868702  0.77204987  1
  Ta  Ta100  1  -0.01086364  0.39794906  0.23709093  1
  Ta  Ta101  1  0.89725985  0.49867942  0.36949340  1
  Ta  Ta102  1  0.09668833  0.29405416  0.12376023  1
  Ta  Ta103  1  0.50287449  0.90085338  0.38510706  1
  Ta  Ta104  1  0.18861544  0.18095841  0.73349794  1
  Ta  Ta105  1  0.71035136  0.71345808  0.87052511  1
  Ta  Ta106  1  0.88767858  0.70110859  0.62234067  1
  Ta  Ta107  1  0.19185297  0.81818346  0.74547837  1
  Ta  Ta108  1  0.68843943  0.48471167  0.37213754  1
  Ta  Ta109  1  0.29819356  0.09948907  0.61447305  1
  Ta  Ta110  1  0.29383205  0.29638527  0.63617112  1
  Ta  Ta111  1  0.51462459  0.50899311  0.63866252  1
  Ta  Ta112  1  0.89418274  0.48735754  0.10970827  1
  Ta  Ta113  1  0.48516230  0.70574414  0.37236612  1
  Ta  Ta114  1  0.42348711  0.60250135  0.50724575  1
  Ta  Ta115  1  0.50320563  0.90810483  0.12101957  1
  Ta  Ta116  1  0.69594369  0.09608772  0.13256469  1
  Ta  Ta117  1  0.50693327  0.51002818  0.37329840  1
  Ta  Ta118  1  -0.01027306  0.80709251  0.49437234  1
  Ta  Ta119  1  0.69452657  0.89384036  0.13197080  1
  Ti  Ti120  1  0.08300991  0.89874102  0.88187196  1
  Ti  Ti121  1  0.40034351  0.20593066  0.51035445  1
  Ti  Ti122  1  0.11259772  0.08570776  0.87298523  1
  Ti  Ti123  1  0.51760782  0.88542648  0.62239625  1
  Ti  Ti124  1  0.49127566  0.50641703  0.87897377  1
  Ti  Ti125  1  0.10535053  0.89538694  0.13315571  1
  Ti  Ti126  1  0.90993352  0.70892952  0.88239441  1
  Ti  Ti127  1  0.40797479  0.60898378  0.76011532  1
  Ti  Ti128  1  0.11259114  0.09193744  0.59522646  1
  Ti  Ti129  1  0.60745676  0.21219243  0.24500682  1
  Ti  Ti130  1  0.01483275  0.20541221  0.24674121  1
  Ti  Ti131  1  0.08892708  0.50152649  0.12913203  1
  Ti  Ti132  1  0.17620918  0.40070441  0.73430689  1
  Ti  Ti133  1  0.50363073  0.10434232  0.13069629  1
  Ti  Ti134  1  0.20031144  0.79114326  0.00031135  1
  Ti  Ti135  1  0.49386411  0.31471694  0.63966762  1
  Ti  Ti136  1  0.08505970  0.28639842  0.62894683  1
  Ti  Ti137  1  0.61038221  -0.01466680  0.50323308  1
  Ti  Ti138  1  -0.00884549  0.40533694  0.50615763  1
  Ti  Ti139  1  0.27088654  0.90158805  0.61425681  1
  Ti  Ti140  1  0.59775412  0.40282953  0.23749017  1
  Ti  Ti141  1  -0.01332233  0.38661755  -0.00220309  1
  Ti  Ti142  1  0.29813726  0.29478140  0.12790432  1
  Ti  Ti143  1  0.29448375  0.51399586  0.87811215  1
  Ti  Ti144  1  0.61259957  -0.00136110  0.00355090  1
  Ti  Ti145  1  0.60149709  0.40247602  0.76991952  1
  Ti  Ti146  1  0.29872703  0.70883358  0.11652576  1
  Ti  Ti147  1  0.88861318  0.90047336  0.87010483  1
  Ti  Ti148  1  0.69740134  0.49861213  0.11262592  1
  Ti  Ti149  1  0.59693715  0.00191491  0.25292610  1
  Ti  Ti150  1  0.79261000  0.39757706  0.48892453  1
  Ti  Ti151  1  0.30870101  0.88525607  0.38967775  1
  Ti  Ti152  1  0.67661012  0.68594226  0.37405458  1
  Ti  Ti153  1  0.38988674  0.62076499  -0.01244907  1
  Ti  Ti154  1  0.60274383  0.19878820  0.75323854  1
  Ti  Ti155  1  0.20021276  0.00992572  0.25043191  1
  Ti  Ti156  1  0.39664299  0.41257475  0.75559186  1
  Ti  Ti157  1  0.19711766  0.59779565  0.25360470  1
  Ti  Ti158  1  0.79865481  0.39947677  -0.02107184  1
  Ti  Ti159  1  0.39531865  0.20436320  0.00772729  1
  Mo  Mo160  1  0.69792721  0.50349360  0.87589910  1
  Mo  Mo161  1  0.20491402  -0.00544828  0.74322312  1
  Mo  Mo162  1  0.19902969  0.79744432  0.50050271  1
  Mo  Mo163  1  0.09252352  0.90518891  0.60192222  1
  Mo  Mo164  1  0.69797538  0.30331387  0.37545150  1
  Mo  Mo165  1  0.90087284  0.29778981  0.88061430  1
  Mo  Mo166  1  0.90165181  0.50593924  0.89697938  1
  Mo  Mo167  1  0.30400964  0.69985696  0.38138256  1
  Mo  Mo168  1  0.21053095  -0.00132074  0.49678277  1
  Mo  Mo169  1  0.20727708  0.20631740  0.51390190  1
  Mo  Mo170  1  0.49573871  0.70038969  0.87653780  1
  Mo  Mo171  1  0.90300563  0.30532330  0.11959336  1
  Mo  Mo172  1  0.00957502  0.19925249  0.74328550  1
  Mo  Mo173  1  0.90598404  0.09809720  0.13302824  1
  Mo  Mo174  1  0.69646589  0.70480465  0.12252349  1
  Mo  Mo175  1  0.00150020  0.00450505  0.48940467  1
  Mo  Mo176  1  0.59844667  0.59541654  0.49973016  1
  Mo  Mo177  1  0.91146225  0.10454763  0.38997428  1
  Mo  Mo178  1  0.70971794  0.90030731  0.87907949  1
  Mo  Mo179  1  0.01034213  0.21791370  0.50248975  1
  Mo  Mo180  1  0.91260939  0.88596130  0.36683045  1
  Mo  Mo181  1  0.39344447  0.80774215  -0.00110849  1
  Mo  Mo182  1  0.50071841  0.69066987  0.63444118  1
  Mo  Mo183  1  0.30248150  0.70483094  0.87616424  1
  Mo  Mo184  1  0.78523219  0.40028837  0.78226521  1
  Mo  Mo185  1  0.20484565  0.60319430  0.00159114  1
  Mo  Mo186  1  0.68026713  0.89538023  0.37445974  1
  Mo  Mo187  1  0.81447788  -0.01041898  0.74714877  1
  Mo  Mo188  1  0.10091746  0.30494144  0.36968388  1
  Mo  Mo189  1  0.69489116  0.29421915  0.86943636  1
  Mo  Mo190  1  0.00228421  -0.01856862  0.00480874  1
  Mo  Mo191  1  0.00247207  0.58941724  0.24373467  1
  Mo  Mo192  1  0.00981764  0.81219799  0.00078681  1
  Mo  Mo193  1  0.01050404  0.80342589  0.26199001  1
  Mo  Mo194  1  0.69796701  0.89200747  0.61252892  1
  Mo  Mo195  1  0.19623208  0.19198871  0.24422647  1
  Mo  Mo196  1  0.08995379  0.48894556  0.62735725  1
  Mo  Mo197  1  0.89845531  0.51046416  0.61900638  1
  Mo  Mo198  1  0.79058505  0.81173886  0.75263541  1
  Mo  Mo199  1  0.40411471  0.80928391  0.25175462  1
