# generated using pymatgen
data_HfZrTaTiMo
_symmetry_space_group_name_H-M   'P 1'
_cell_length_a   15.22258571
_cell_length_b   15.21927068
_cell_length_c   16.83842930
_cell_angle_alpha   90.01351960
_cell_angle_beta   89.90346065
_cell_angle_gamma   90.00952764
_symmetry_Int_Tables_number   1
_chemical_formula_structural   HfZrTaTiMo
_chemical_formula_sum   'Hf40 Zr40 Ta40 Ti40 Mo40'
_cell_volume   3901.06523045
_cell_formula_units_Z   40
loop_
 _symmetry_equiv_pos_site_id
 _symmetry_equiv_pos_as_xyz
  1  'x, y, z'
loop_
 _atom_site_type_symbol
 _atom_site_label
 _atom_site_symmetry_multiplicity
 _atom_site_fract_x
 _atom_site_fract_y
 _atom_site_fract_z
 _atom_site_occupancy
  Hf  Hf0  1  0.67719971  0.89480506  0.64085405  1
  Hf  Hf1  1  0.40865662  0.39031131  -0.00305254  1
  Hf  Hf2  1  0.60826964  0.41365638  0.26409707  1
  Hf  Hf3  1  0.70621131  0.09197868  0.64179129  1
  Hf  Hf4  1  0.69227757  0.10901908  0.12790876  1
  Hf  Hf5  1  0.20852783  0.39715076  0.25132877  1
  Hf  Hf6  1  0.32339140  0.09400595  0.13888712  1
  Hf  Hf7  1  0.40617264  0.40341063  0.25891625  1
  Hf  Hf8  1  0.50176696  0.52029726  0.39979804  1
  Hf  Hf9  1  0.22056745  0.18692337  0.01149649  1
  Hf  Hf10  1  0.19914659  0.59870876  0.75330165  1
  Hf  Hf11  1  0.40765412  0.78956546  0.25447046  1
  Hf  Hf12  1  0.09793116  0.90912716  0.37098768  1
  Hf  Hf13  1  0.58975809  0.00989802  0.26848322  1
  Hf  Hf14  1  0.19606788  0.80044770  0.24557114  1
  Hf  Hf15  1  0.79889903  0.00388390  0.49660725  1
  Hf  Hf16  1  0.79144034  0.78779763  0.75582403  1
  Hf  Hf17  1  0.01229188  0.40486008  0.00947672  1
  Hf  Hf18  1  0.79523302  0.59226295  0.74608887  1
  Hf  Hf19  1  -0.00614400  0.01836027  0.76644523  1
  Hf  Hf20  1  0.41878843  0.19255754  0.26857894  1
  Hf  Hf21  1  0.30753065  0.50045654  0.87277095  1
  Hf  Hf22  1  0.30348113  0.29213821  0.62786442  1
  Hf  Hf23  1  0.82430283  0.18863737  0.75124509  1
  Hf  Hf24  1  0.89509472  0.29308505  0.12480157  1
  Hf  Hf25  1  0.19675371  0.58889703  -0.00398352  1
  Hf  Hf26  1  0.78240850  0.80149524  0.50782269  1
  Hf  Hf27  1  0.02084845  0.22396046  0.75534527  1
  Hf  Hf28  1  0.90883548  0.09597358  0.37485891  1
  Hf  Hf29  1  0.68371037  0.68411176  0.88258346  1
  Hf  Hf30  1  0.09449068  0.70760534  0.37770425  1
  Hf  Hf31  1  0.68604164  0.70311102  0.38314833  1
  Hf  Hf32  1  0.20519780  0.38960518  0.00267860  1
  Hf  Hf33  1  0.90675045  0.29988230  0.36824152  1
  Hf  Hf34  1  0.50770655  0.29451969  0.85992546  1
  Hf  Hf35  1  0.48106305  0.90768241  0.86488974  1
  Hf  Hf36  1  0.09813034  0.50359195  0.37334720  1
  Hf  Hf37  1  0.29603153  0.08423171  0.36298290  1
  Hf  Hf38  1  0.50640867  0.28416962  0.12760904  1
  Hf  Hf39  1  0.49181985  0.49869007  0.60010976  1
  Zr  Zr40  1  0.60616566  -0.01719514  0.47953730  1
  Zr  Zr41  1  -0.00797138  0.61425363  0.24667875  1
  Zr  Zr42  1  0.10430334  0.89848925  0.64304153  1
  Zr  Zr43  1  0.67946294  0.69076966  0.11707405  1
  Zr  Zr44  1  0.40212028  0.40508256  0.74502557  1
  Zr  Zr45  1  0.48849213  0.91027423  0.12857035  1
  Zr  Zr46  1  0.89327939  0.90249150  0.87458919  1
  Zr  Zr47  1  -0.00016276  0.39398250  0.49683379  1
  Zr  Zr48  1  0.57042109  0.79558860  -0.00524696  1
  Zr  Zr49  1  0.69532110  0.50346253  0.60877459  1
  Zr  Zr50  1  0.71329101  0.30628347  0.63534744  1
  Zr  Zr51  1  0.08772401  0.69579042  0.88160389  1
  Zr  Zr52  1  0.61670962  0.18790720  0.48513251  1
  Zr  Zr53  1  0.81658318  0.20942252  0.50862016  1
  Zr  Zr54  1  0.29503734  0.70078692  0.62098138  1
  Zr  Zr55  1  0.20763228  0.60005692  0.24863837  1
  Zr  Zr56  1  0.79970184  0.40178519  -0.00684032  1
  Zr  Zr57  1  0.40468686  -0.01453623  0.48873598  1
  Zr  Zr58  1  0.30765161  0.08737982  0.62325034  1
  Zr  Zr59  1  0.89015805  0.91163370  0.64352846  1
  Zr  Zr60  1  0.51016951  0.50712984  0.12499930  1
  Zr  Zr61  1  0.89717107  0.50891913  0.12216930  1
  Zr  Zr62  1  0.79942544  0.79806496  0.24415451  1
  Zr  Zr63  1  0.69167222  0.90691782  0.12872084  1
  Zr  Zr64  1  0.09805369  0.10345710  0.36917805  1
  Zr  Zr65  1  0.78176860  0.81068985  -0.00627031  1
  Zr  Zr66  1  0.31072949  0.69977716  0.11044151  1
  Zr  Zr67  1  -0.00070133  0.80324689  0.51393681  1
  Zr  Zr68  1  0.90218721  0.89286992  0.37308537  1
  Zr  Zr69  1  0.78300083  0.59505945  0.25264213  1
  Zr  Zr70  1  0.69737250  0.30595948  0.12736928  1
  Zr  Zr71  1  0.50643627  0.70768419  0.60918947  1
  Zr  Zr72  1  0.28853094  0.89906906  0.10567933  1
  Zr  Zr73  1  0.29888428  0.27903753  0.86594679  1
  Zr  Zr74  1  0.19938729  0.19758053  0.49407052  1
  Zr  Zr75  1  -0.00357943  0.18235099  0.23143068  1
  Zr  Zr76  1  0.91561793  0.30960459  0.87906131  1
  Zr  Zr77  1  0.09512224  0.70296533  0.10900966  1
  Zr  Zr78  1  0.11021315  0.10379088  0.63674345  1
  Zr  Zr79  1  0.51059890  0.29354368  0.62043351  1
  Ta  Ta80  1  -0.00274590  0.60124409  0.50938590  1
  Ta  Ta81  1  0.11437279  0.11479723  0.88059023  1
  Ta  Ta82  1  0.70301498  0.49518422  0.39878541  1
  Ta  Ta83  1  0.90198017  0.48868551  0.62161757  1
  Ta  Ta84  1  0.69367633  0.09949691  0.85747806  1
  Ta  Ta85  1  0.39730130  0.01755009  -0.00882958  1
  Ta  Ta86  1  0.29096852  0.49421933  0.61331329  1
  Ta  Ta87  1  0.40724344  0.19366028  0.48899692  1
  Ta  Ta88  1  0.80251398  0.40105377  0.25751664  1
  Ta  Ta89  1  0.10391701  0.91061608  0.88987046  1
  Ta  Ta90  1  0.41184642  0.17047891  0.75034983  1
  Ta  Ta91  1  0.50687386  0.31453419  0.39335572  1
  Ta  Ta92  1  0.89626818  0.69500275  0.38331388  1
  Ta  Ta93  1  0.51284910  0.50756656  0.87146853  1
  Ta  Ta94  1  0.70328785  0.29734272  0.85989519  1
  Ta  Ta95  1  0.30243245  0.69288040  0.38999701  1
  Ta  Ta96  1  0.60208807  0.39691445  -0.01152783  1
  Ta  Ta97  1  0.30380612  0.49822604  0.39390599  1
  Ta  Ta98  1  0.89655014  0.50434714  0.37981934  1
  Ta  Ta99  1  0.79677398  0.19434178  -0.01244120  1
  Ta  Ta100  1  0.00157428  0.40122603  0.24604657  1
  Ta  Ta101  1  0.30819628  0.49593951  0.12048289  1
  Ta  Ta102  1  0.00575306  0.19523175  0.00507716  1
  Ta  Ta103  1  0.51054155  0.08819213  0.62439774  1
  Ta  Ta104  1  0.10670280  0.29522429  0.13134056  1
  Ta  Ta105  1  0.19926021  0.39743835  0.49622903  1
  Ta  Ta106  1  0.09305307  0.90349048  0.09836759  1
  Ta  Ta107  1  0.00202775  0.00794268  0.51231982  1
  Ta  Ta108  1  0.18872046  0.39098882  0.75420478  1
  Ta  Ta109  1  0.19666043  -0.01313922  0.50013315  1
  Ta  Ta110  1  -0.00759535  0.59830384  0.74492341  1
  Ta  Ta111  1  0.30332179  0.70681035  0.88377121  1
  Ta  Ta112  1  0.41632702  0.60435225  -0.00336040  1
  Ta  Ta113  1  0.89169170  0.70765231  0.10284563  1
  Ta  Ta114  1  0.10500955  0.31374963  0.62522454  1
  Ta  Ta115  1  0.20119752  0.80641322  0.76895593  1
  Ta  Ta116  1  0.59461164  0.01049486  -0.00868496  1
  Ta  Ta117  1  0.90219030  0.91949282  0.11155596  1
  Ta  Ta118  1  0.59808611  0.19776483  -0.01184110  1
  Ta  Ta119  1  0.80717140  0.00754755  0.24855373  1
  Ti  Ti120  1  0.20079677  0.80178256  0.50089938  1
  Ti  Ti121  1  0.70451667  0.49501192  0.87524275  1
  Ti  Ti122  1  0.82071650  0.40032782  0.75380683  1
  Ti  Ti123  1  0.21548669  0.00527420  0.76815890  1
  Ti  Ti124  1  0.00443603  0.19945251  0.51541720  1
  Ti  Ti125  1  0.09874525  0.50323973  0.62755129  1
  Ti  Ti126  1  0.58615265  0.79223536  0.75494690  1
  Ti  Ti127  1  -0.00383517  0.81334177  0.23267814  1
  Ti  Ti128  1  0.40211454  0.60075298  0.74408290  1
  Ti  Ti129  1  0.39691144  0.59640532  0.25443798  1
  Ti  Ti130  1  0.49177720  0.71750928  0.40221439  1
  Ti  Ti131  1  -0.00938821  0.80508443  -0.00593185  1
  Ti  Ti132  1  0.10329523  0.29657582  0.36353057  1
  Ti  Ti133  1  0.80481254  0.60367768  0.50762799  1
  Ti  Ti134  1  0.31095786  0.29765984  0.13171970  1
  Ti  Ti135  1  0.30183609  0.29781262  0.37816683  1
  Ti  Ti136  1  0.30014747  0.88672987  0.37259940  1
  Ti  Ti137  1  0.09715290  0.70083295  0.63331574  1
  Ti  Ti138  1  0.89123027  0.69133519  0.88916737  1
  Ti  Ti139  1  0.29573564  0.89458859  0.62761209  1
  Ti  Ti140  1  0.19007016  0.59994990  0.50487101  1
  Ti  Ti141  1  0.09231836  0.08562899  0.11469726  1
  Ti  Ti142  1  0.70108156  0.50058386  0.11396775  1
  Ti  Ti143  1  0.20381065  0.19759058  0.24201440  1
  Ti  Ti144  1  0.60981032  0.20755283  0.27710526  1
  Ti  Ti145  1  0.18712693  -0.00375479  0.23671633  1
  Ti  Ti146  1  0.09181837  0.48935110  0.87016529  1
  Ti  Ti147  1  0.38593377  0.79708381  0.75206158  1
  Ti  Ti148  1  0.48837473  0.69360541  0.86693478  1
  Ti  Ti149  1  0.68453879  0.90813303  0.85964108  1
  Ti  Ti150  1  0.48467747  0.90084444  0.63476303  1
  Ti  Ti151  1  0.89739873  0.69751031  0.62886845  1
  Ti  Ti152  1  0.10583421  0.49919644  0.13202829  1
  Ti  Ti153  1  0.79382876  0.20060476  0.25725179  1
  Ti  Ti154  1  0.60867207  0.41035811  0.74937298  1
  Ti  Ti155  1  0.90461446  0.51206327  0.88033184  1
  Ti  Ti156  1  0.59685080  0.60214132  0.73941320  1
  Ti  Ti157  1  -0.00005947  0.79452344  0.75913081  1
  Ti  Ti158  1  0.58043801  0.62205307  0.25809041  1
  Ti  Ti159  1  0.79368727  0.01213159  -0.01007642  1
  Mo  Mo160  1  0.49447071  0.89202201  0.36369167  1
  Mo  Mo161  1  0.60451999  0.20249104  0.74734008  1
  Mo  Mo162  1  0.91374175  0.30725350  0.63213321  1
  Mo  Mo163  1  0.71024328  0.30639883  0.37368285  1
  Mo  Mo164  1  0.59816207  0.80142448  0.25727767  1
  Mo  Mo165  1  0.49465910  0.69622411  0.12893491  1
  Mo  Mo166  1  0.20951582  0.19885402  0.75198208  1
  Mo  Mo167  1  0.88661247  0.09810955  0.11126673  1
  Mo  Mo168  1  0.70223897  0.70184281  0.62716303  1
  Mo  Mo169  1  0.91095347  0.10164774  0.62576972  1
  Mo  Mo170  1  0.59115580  0.81230539  0.50151704  1
  Mo  Mo171  1  0.39136282  0.39050726  0.49814077  1
  Mo  Mo172  1  0.60634367  0.39537356  0.49478199  1
  Mo  Mo173  1  0.70183756  0.89418352  0.35652619  1
  Mo  Mo174  1  0.39045468  -0.01071710  0.26109948  1
  Mo  Mo175  1  0.39269367  -0.01438400  0.74518140  1
  Mo  Mo176  1  0.38873676  0.80896757  0.50046796  1
  Mo  Mo177  1  0.10961337  0.30284379  0.88569282  1
  Mo  Mo178  1  0.19655560  0.00969150  -0.00120979  1
  Mo  Mo179  1  0.79734328  0.60007202  -0.00558605  1
  Mo  Mo180  1  0.90147741  0.10779118  0.88724067  1
  Mo  Mo181  1  0.29312822  0.89872970  0.88726411  1
  Mo  Mo182  1  0.19420507  0.80055490  -0.01709047  1
  Mo  Mo183  1  0.59691217  0.58603255  -0.00683030  1
  Mo  Mo184  1  0.41773814  0.19281325  -0.00070088  1
  Mo  Mo185  1  0.30894818  0.08791527  0.87224985  1
  Mo  Mo186  1  0.80801766  0.40323418  0.49582079  1
  Mo  Mo187  1  0.71622594  0.10100289  0.36497826  1
  Mo  Mo188  1  0.60709868  0.61269983  0.50281850  1
  Mo  Mo189  1  0.49970557  0.10405308  0.38168308  1
  Mo  Mo190  1  0.58292324  0.00554257  0.75092242  1
  Mo  Mo191  1  0.50375801  0.10003035  0.86747099  1
  Mo  Mo192  1  0.50998495  0.09753621  0.12281783  1
  Mo  Mo193  1  0.79577892  -0.00415638  0.76148447  1
  Mo  Mo194  1  0.00632043  0.41802415  0.75058745  1
  Mo  Mo195  1  -0.00665348  0.01176117  -0.01394783  1
  Mo  Mo196  1  0.39676757  0.80170696  -0.00911673  1
  Mo  Mo197  1  0.38725792  0.60364519  0.50348052  1
  Mo  Mo198  1  -0.00127099  -0.01284070  0.23472481  1
  Mo  Mo199  1  -0.00686554  0.59647117  -0.00138354  1
