# generated using pymatgen
data_HfZrTaTiMo
_symmetry_space_group_name_H-M   'P 1'
_cell_length_a   15.20820729
_cell_length_b   15.21860186
_cell_length_c   16.85219209
_cell_angle_alpha   89.99725180
_cell_angle_beta   89.99716393
_cell_angle_gamma   89.96223417
_symmetry_Int_Tables_number   1
_chemical_formula_structural   HfZrTaTiMo
_chemical_formula_sum   'Hf40 Zr40 Ta40 Ti40 Mo40'
_cell_volume   3900.39943242
_cell_formula_units_Z   40
loop_
 _symmetry_equiv_pos_site_id
 _symmetry_equiv_pos_as_xyz
  1  'x, y, z'
loop_
 _atom_site_type_symbol
 _atom_site_label
 _atom_site_symmetry_multiplicity
 _atom_site_fract_x
 _atom_site_fract_y
 _atom_site_fract_z
 _atom_site_occupancy
  Hf  Hf0  1  0.01846488  0.59600817  -0.00640200  1
  Hf  Hf1  1  0.68843920  0.09709336  0.88337124  1
  Hf  Hf2  1  0.59591364  0.00127902  0.24875811  1
  Hf  Hf3  1  0.60919945  0.59057845  0.73894009  1
  Hf  Hf4  1  0.31263077  0.67880463  0.37132170  1
  Hf  Hf5  1  0.29337657  0.09767534  0.13091275  1
  Hf  Hf6  1  0.58408952  0.20798128  0.75892971  1
  Hf  Hf7  1  0.50488325  0.70004194  0.87144837  1
  Hf  Hf8  1  0.30195253  0.28751832  0.63753899  1
  Hf  Hf9  1  0.30445817  0.48273633  0.37875946  1
  Hf  Hf10  1  0.89058406  0.10540388  0.88750952  1
  Hf  Hf11  1  0.17417111  0.20345407  0.49695397  1
  Hf  Hf12  1  0.69967249  0.71294056  0.60770413  1
  Hf  Hf13  1  0.89282674  0.70402298  0.86859807  1
  Hf  Hf14  1  0.61555452  0.80910971  0.00111867  1
  Hf  Hf15  1  0.08586253  0.11095474  0.63834755  1
  Hf  Hf16  1  0.69694672  0.50656754  0.36850533  1
  Hf  Hf17  1  0.71222573  0.91358324  0.13527585  1
  Hf  Hf18  1  0.40989726  0.60374500  0.73487128  1
  Hf  Hf19  1  0.10474605  0.69157533  0.38898353  1
  Hf  Hf20  1  0.29002059  0.89672907  0.87438732  1
  Hf  Hf21  1  0.39841080  0.01975273  0.75418850  1
  Hf  Hf22  1  0.29428180  0.30711443  0.10924449  1
  Hf  Hf23  1  0.42572034  0.79372248  0.25028663  1
  Hf  Hf24  1  0.71426493  0.70665987  0.12535663  1
  Hf  Hf25  1  0.59586536  0.00175715  0.50559394  1
  Hf  Hf26  1  0.30794025  0.89532818  0.36618635  1
  Hf  Hf27  1  0.71765492  0.89376150  0.86707402  1
  Hf  Hf28  1  0.29710455  0.48967948  0.63653075  1
  Hf  Hf29  1  0.08672011  0.30966061  0.86049524  1
  Hf  Hf30  1  0.81079420  0.38813389  0.24625773  1
  Hf  Hf31  1  0.09480618  0.30965950  0.37041403  1
  Hf  Hf32  1  0.17967078  0.19802711  -0.00328310  1
  Hf  Hf33  1  0.59260683  0.60008663  0.51149254  1
  Hf  Hf34  1  0.09759007  0.89873909  0.37074188  1
  Hf  Hf35  1  0.10773057  0.69073967  0.12860050  1
  Hf  Hf36  1  0.09122571  0.09054043  0.86626158  1
  Hf  Hf37  1  0.08773585  0.89239443  0.63077337  1
  Hf  Hf38  1  0.41784825  0.38244902  0.75587565  1
  Hf  Hf39  1  0.69360369  0.10240136  0.37517762  1
  Zr  Zr40  1  0.60390735  0.00247554  0.73878429  1
  Zr  Zr41  1  0.69886381  0.90105062  0.37534474  1
  Zr  Zr42  1  0.80634864  0.59602222  0.72998381  1
  Zr  Zr43  1  0.31316555  0.68816512  0.13706911  1
  Zr  Zr44  1  0.40385851  0.81127577  0.73789147  1
  Zr  Zr45  1  0.41874549  0.78670890  0.50728564  1
  Zr  Zr46  1  0.30343939  0.90112388  0.13837962  1
  Zr  Zr47  1  0.49170013  0.09847791  0.13617531  1
  Zr  Zr48  1  0.50440813  0.49541075  0.87989754  1
  Zr  Zr49  1  0.30093020  0.49885192  0.86928340  1
  Zr  Zr50  1  0.29785278  0.69886771  0.86188931  1
  Zr  Zr51  1  0.19376713  0.21562200  0.24947617  1
  Zr  Zr52  1  0.28766263  0.09414891  0.61909843  1
  Zr  Zr53  1  0.79873485  0.38983309  0.49562890  1
  Zr  Zr54  1  0.20906643  0.80170602  0.50185419  1
  Zr  Zr55  1  0.38968633  0.21252934  0.48520631  1
  Zr  Zr56  1  0.29864827  0.30056683  0.88521185  1
  Zr  Zr57  1  0.08294230  0.10419360  0.13136078  1
  Zr  Zr58  1  0.58899101  0.60362724  0.01504748  1
  Zr  Zr59  1  0.40271785  0.78748440  0.00586665  1
  Zr  Zr60  1  0.49897953  0.50922693  0.36686705  1
  Zr  Zr61  1  0.49339580  0.11112727  0.61758863  1
  Zr  Zr62  1  0.10000912  0.71830648  0.85475947  1
  Zr  Zr63  1  0.81961117  0.59992234  0.25062789  1
  Zr  Zr64  1  0.28930547  0.09973001  0.36891275  1
  Zr  Zr65  1  0.89608210  0.29153983  0.09690796  1
  Zr  Zr66  1  0.00667573  0.39038251  0.51352153  1
  Zr  Zr67  1  -0.00634883  -0.00008911  0.50688521  1
  Zr  Zr68  1  -0.02666492  0.20694785  0.24994796  1
  Zr  Zr69  1  0.90856332  0.49540104  0.87245438  1
  Zr  Zr70  1  0.70840341  0.49633224  0.88643894  1
  Zr  Zr71  1  0.80404673  0.79797751  0.26146774  1
  Zr  Zr72  1  -0.01261026  0.80152697  0.01127071  1
  Zr  Zr73  1  0.89838357  0.30347255  0.63539212  1
  Zr  Zr74  1  -0.00303313  0.78497168  0.25092796  1
  Zr  Zr75  1  0.92646644  0.90526299  0.85907492  1
  Zr  Zr76  1  0.10969741  0.50696338  0.38704469  1
  Zr  Zr77  1  0.69789349  0.29893204  0.36489117  1
  Zr  Zr78  1  0.91328441  0.49741181  0.37883300  1
  Zr  Zr79  1  0.50856363  0.91000708  0.87630465  1
  Ta  Ta80  1  0.21331814  0.39376592  0.50919238  1
  Ta  Ta81  1  0.59652439  0.19737926  0.00903529  1
  Ta  Ta82  1  0.50143413  0.30343972  0.61983249  1
  Ta  Ta83  1  0.70604552  0.69947887  0.39083152  1
  Ta  Ta84  1  0.09864861  0.49681642  0.63735482  1
  Ta  Ta85  1  0.39498506  -0.00750186  0.49530787  1
  Ta  Ta86  1  0.00606562  -0.00033512  0.00618314  1
  Ta  Ta87  1  0.88497153  0.11063734  0.61974588  1
  Ta  Ta88  1  0.80705007  0.01046696  0.73975495  1
  Ta  Ta89  1  0.21221380  0.60766418  -0.00419620  1
  Ta  Ta90  1  0.70415467  0.69844946  0.87315899  1
  Ta  Ta91  1  0.10650498  0.69355875  0.62245248  1
  Ta  Ta92  1  0.70986214  0.49627031  0.12394268  1
  Ta  Ta93  1  0.52160660  0.70415562  0.37371113  1
  Ta  Ta94  1  0.10155777  0.90250958  0.13748222  1
  Ta  Ta95  1  0.59817169  0.39916116  0.01785030  1
  Ta  Ta96  1  0.59006927  0.39681892  0.49535566  1
  Ta  Ta97  1  0.60794263  0.79372335  0.74290662  1
  Ta  Ta98  1  0.19078374  0.80363277  0.00498441  1
  Ta  Ta99  1  0.50382956  0.29736100  0.89549892  1
  Ta  Ta100  1  0.88436212  0.30130901  0.88701952  1
  Ta  Ta101  1  0.81041665  0.59625386  0.51003017  1
  Ta  Ta102  1  0.88627720  0.10825810  0.38228586  1
  Ta  Ta103  1  0.19522840  -0.00695239  0.00201198  1
  Ta  Ta104  1  0.48984786  0.30897883  0.36760693  1
  Ta  Ta105  1  0.81426323  0.81633518  0.49878154  1
  Ta  Ta106  1  0.39939958  -0.00144834  -0.00016798  1
  Ta  Ta107  1  0.80257917  -0.01822218  -0.00024786  1
  Ta  Ta108  1  0.90362639  0.91604449  0.36926230  1
  Ta  Ta109  1  0.40042911  0.19291739  0.00085183  1
  Ta  Ta110  1  0.80738083  0.80353807  0.73398023  1
  Ta  Ta111  1  0.07758075  0.09764243  0.36851284  1
  Ta  Ta112  1  0.19299136  -0.01032504  0.75236705  1
  Ta  Ta113  1  0.91523818  0.71425241  0.61116949  1
  Ta  Ta114  1  0.88073404  0.09067970  0.11288600  1
  Ta  Ta115  1  0.69097670  0.28987578  0.62270634  1
  Ta  Ta116  1  0.19585395  0.41860040  0.23775270  1
  Ta  Ta117  1  0.69762601  0.29406851  0.12204316  1
  Ta  Ta118  1  0.91090394  0.50068567  0.11400160  1
  Ta  Ta119  1  0.39540000  0.39814406  0.23944713  1
  Ti  Ti120  1  0.70205374  0.48078478  0.62045007  1
  Ti  Ti121  1  0.79201510  0.39425375  0.74948460  1
  Ti  Ti122  1  0.69818112  0.30369547  0.88911479  1
  Ti  Ti123  1  0.30597479  0.50342524  0.11797466  1
  Ti  Ti124  1  0.59791653  0.61260349  0.23680368  1
  Ti  Ti125  1  0.49180658  0.09960054  0.36966071  1
  Ti  Ti126  1  0.29553746  0.69744285  0.62755023  1
  Ti  Ti127  1  0.78176746  0.20137192  0.75432885  1
  Ti  Ti128  1  0.19175879  0.00035987  0.25349198  1
  Ti  Ti129  1  0.70704332  0.90800805  0.62233573  1
  Ti  Ti130  1  0.30050655  0.09666511  0.88363608  1
  Ti  Ti131  1  0.58957111  0.21044361  0.24387365  1
  Ti  Ti132  1  0.78353627  0.18570170  0.23979781  1
  Ti  Ti133  1  0.39587122  0.58698746  0.51521368  1
  Ti  Ti134  1  0.49083715  0.30566702  0.11881197  1
  Ti  Ti135  1  0.00222730  0.40320152  0.23955161  1
  Ti  Ti136  1  0.01992252  0.58608586  0.24199614  1
  Ti  Ti137  1  0.39476182  0.20656948  0.25535714  1
  Ti  Ti138  1  0.19552809  0.00083333  0.49526740  1
  Ti  Ti139  1  -0.00201314  0.60423919  0.73635630  1
  Ti  Ti140  1  0.81073327  0.60831915  0.00563326  1
  Ti  Ti141  1  0.19072660  0.41865069  -0.00139887  1
  Ti  Ti142  1  0.60004890  0.20605364  0.49400700  1
  Ti  Ti143  1  0.79503146  0.01022902  0.50846178  1
  Ti  Ti144  1  0.90516761  0.90154953  0.13702752  1
  Ti  Ti145  1  0.10503527  0.30521452  0.65217167  1
  Ti  Ti146  1  0.10973048  0.50667608  0.84593454  1
  Ti  Ti147  1  0.50790401  0.89136494  0.61974618  1
  Ti  Ti148  1  0.59764595  0.00539574  0.01185445  1
  Ti  Ti149  1  0.21072372  0.19313906  0.76221360  1
  Ti  Ti150  1  0.50660229  0.48544251  0.62636281  1
  Ti  Ti151  1  -0.02384513  0.20015178  0.75797704  1
  Ti  Ti152  1  0.00480133  0.39803214  -0.00426159  1
  Ti  Ti153  1  0.50631025  0.89274352  0.12714731  1
  Ti  Ti154  1  0.90987569  0.70060083  0.39812619  1
  Ti  Ti155  1  0.20086934  0.78674107  0.25536020  1
  Ti  Ti156  1  0.59378673  0.40604118  0.23283939  1
  Ti  Ti157  1  0.29808342  0.90245018  0.62409714  1
  Ti  Ti158  1  0.09351587  0.31084079  0.11927717  1
  Ti  Ti159  1  0.50553173  0.90068092  0.37705115  1
  Mo  Mo160  1  0.90557431  0.68791829  0.12153293  1
  Mo  Mo161  1  -0.00711703  0.01013999  0.73907817  1
  Mo  Mo162  1  0.90189315  0.29225403  0.37232210  1
  Mo  Mo163  1  0.40649354  0.39950528  0.50613426  1
  Mo  Mo164  1  0.69918506  0.10908877  0.62243514  1
  Mo  Mo165  1  0.41050644  0.58778259  0.24785693  1
  Mo  Mo166  1  -0.00198676  0.80150486  0.49227081  1
  Mo  Mo167  1  0.20663875  0.59390048  0.24863554  1
  Mo  Mo168  1  0.40107823  0.00125101  0.26448068  1
  Mo  Mo169  1  0.79493461  0.40683480  0.00556511  1
  Mo  Mo170  1  0.29657377  0.30841754  0.36909829  1
  Mo  Mo171  1  0.78521039  0.19523280  -0.00191565  1
  Mo  Mo172  1  0.51058244  0.70040284  0.12828114  1
  Mo  Mo173  1  0.60755559  0.79647445  0.25005927  1
  Mo  Mo174  1  0.49625685  0.50075880  0.13428036  1
  Mo  Mo175  1  0.79017477  0.19713030  0.50284589  1
  Mo  Mo176  1  0.81032600  0.01224017  0.25092461  1
  Mo  Mo177  1  0.40521670  0.40370076  0.01041559  1
  Mo  Mo178  1  0.80511341  0.79863699  -0.00010797  1
  Mo  Mo179  1  0.39794279  0.19661537  0.76507546  1
  Mo  Mo180  1  0.89815389  0.50309942  0.62637827  1
  Mo  Mo181  1  0.60791162  0.80686187  0.50145644  1
  Mo  Mo182  1  -0.00244673  0.79767670  0.74098001  1
  Mo  Mo183  1  0.39613405  0.59395801  0.00110219  1
  Mo  Mo184  1  0.10971023  0.49436839  0.11744920  1
  Mo  Mo185  1  0.00200276  0.59848927  0.51785439  1
  Mo  Mo186  1  0.49344893  0.10258971  0.89082783  1
  Mo  Mo187  1  -0.00436361  0.19871676  -0.00830346  1
  Mo  Mo188  1  0.19739699  0.60200523  0.73748098  1
  Mo  Mo189  1  -0.01685523  0.20069956  0.49152856  1
  Mo  Mo190  1  0.89351607  0.90577315  0.62820144  1
  Mo  Mo191  1  0.19839906  0.39471680  0.75078475  1
  Mo  Mo192  1  -0.01138305  0.40579967  0.74774465  1
  Mo  Mo193  1  0.10566026  0.90252314  0.87325098  1
  Mo  Mo194  1  0.50230497  0.69658586  0.62668308  1
  Mo  Mo195  1  0.61473387  0.38906065  0.75096827  1
  Mo  Mo196  1  0.20637411  0.59074304  0.51771125  1
  Mo  Mo197  1  0.20312878  0.80433251  0.73254406  1
  Mo  Mo198  1  0.69833442  0.10346091  0.11850159  1
  Mo  Mo199  1  -0.00788428  0.00049747  0.25025975  1
