# generated using pymatgen
data_HfZrTaTiMo
_symmetry_space_group_name_H-M   'P 1'
_cell_length_a   15.21382663
_cell_length_b   15.22473349
_cell_length_c   16.80814208
_cell_angle_alpha   89.94252158
_cell_angle_beta   89.96693855
_cell_angle_gamma   89.97595032
_symmetry_Int_Tables_number   1
_chemical_formula_structural   HfZrTaTiMo
_chemical_formula_sum   'Hf40 Zr40 Ta40 Ti40 Mo40'
_cell_volume   3893.20742839
_cell_formula_units_Z   40
loop_
 _symmetry_equiv_pos_site_id
 _symmetry_equiv_pos_as_xyz
  1  'x, y, z'
loop_
 _atom_site_type_symbol
 _atom_site_label
 _atom_site_symmetry_multiplicity
 _atom_site_fract_x
 _atom_site_fract_y
 _atom_site_fract_z
 _atom_site_occupancy
  Hf  Hf0  1  0.60917858  -0.00360303  0.00875733  1
  Hf  Hf1  1  -0.00649700  0.18031930  0.73231710  1
  Hf  Hf2  1  0.00248840  0.19621324  0.50684770  1
  Hf  Hf3  1  0.88352901  0.51723017  0.62633134  1
  Hf  Hf4  1  0.91476462  0.89186189  0.88517809  1
  Hf  Hf5  1  0.09575240  0.28944349  0.86333847  1
  Hf  Hf6  1  0.58538937  0.39983370  0.75462284  1
  Hf  Hf7  1  0.40366175  0.19291518  0.25715350  1
  Hf  Hf8  1  0.69107049  0.30265461  0.61813560  1
  Hf  Hf9  1  0.41747022  0.80741673  0.51310936  1
  Hf  Hf10  1  0.10640673  0.86747822  0.61978514  1
  Hf  Hf11  1  0.19785212  -0.00096285  0.01186417  1
  Hf  Hf12  1  0.48556557  0.10579366  0.11084764  1
  Hf  Hf13  1  0.39108119  -0.00274741  0.25160433  1
  Hf  Hf14  1  0.50284925  0.90028512  0.86124643  1
  Hf  Hf15  1  0.90827247  0.69251292  0.12879232  1
  Hf  Hf16  1  0.39540143  0.00321804  0.73074949  1
  Hf  Hf17  1  0.89980958  0.50073463  0.36096789  1
  Hf  Hf18  1  0.90559706  0.69609457  0.89211335  1
  Hf  Hf19  1  -0.00516418  0.18794995  -0.00085085  1
  Hf  Hf20  1  0.19360215  -0.01619884  0.25703974  1
  Hf  Hf21  1  0.29871335  0.09898259  0.87312584  1
  Hf  Hf22  1  0.11103872  0.71038407  0.14676678  1
  Hf  Hf23  1  0.39233485  0.61786346  0.26667712  1
  Hf  Hf24  1  0.60350409  0.19194246  0.50073396  1
  Hf  Hf25  1  0.69452138  0.50597675  0.88069745  1
  Hf  Hf26  1  0.10391587  0.30767401  0.14291382  1
  Hf  Hf27  1  0.28769807  0.51017267  0.87061354  1
  Hf  Hf28  1  0.19963628  0.19738512  0.00335338  1
  Hf  Hf29  1  0.87877901  0.28721278  0.86921712  1
  Hf  Hf30  1  0.82878352  0.79538138  0.74446692  1
  Hf  Hf31  1  0.72434482  0.09881347  0.63479613  1
  Hf  Hf32  1  0.91499224  0.89972875  0.12710575  1
  Hf  Hf33  1  0.50551388  0.89988329  0.37422881  1
  Hf  Hf34  1  0.08741700  0.50917792  0.86661932  1
  Hf  Hf35  1  0.72503313  0.69889937  0.61858066  1
  Hf  Hf36  1  0.90246536  0.29879345  0.36639888  1
  Hf  Hf37  1  0.89179104  0.08398351  0.86730245  1
  Hf  Hf38  1  0.49196377  0.29545583  0.88454983  1
  Hf  Hf39  1  0.70008356  0.71316070  0.38362068  1
  Zr  Zr40  1  0.20576085  0.80148878  -0.00025315  1
  Zr  Zr41  1  0.89747944  0.09538899  0.37737744  1
  Zr  Zr42  1  0.49604847  0.51008960  0.61950529  1
  Zr  Zr43  1  0.89626263  0.49539998  0.13241220  1
  Zr  Zr44  1  -0.00374558  0.39906504  -0.00215904  1
  Zr  Zr45  1  0.62994678  0.20307172  0.00217891  1
  Zr  Zr46  1  0.60521597  0.19975237  0.24018929  1
  Zr  Zr47  1  0.78569782  0.80755518  0.23994781  1
  Zr  Zr48  1  0.89411559  0.29806124  0.62599305  1
  Zr  Zr49  1  0.20348168  0.18460731  0.72681590  1
  Zr  Zr50  1  0.27875654  0.49240256  0.13343374  1
  Zr  Zr51  1  0.38187983  0.39968083  0.00141767  1
  Zr  Zr52  1  0.28856853  0.50619579  0.61777282  1
  Zr  Zr53  1  0.27615049  0.50688157  0.37718509  1
  Zr  Zr54  1  0.59474385  0.61378289  0.50308141  1
  Zr  Zr55  1  0.60566728  -0.00618092  0.23731919  1
  Zr  Zr56  1  -0.00104357  0.00272321  0.25853930  1
  Zr  Zr57  1  0.08712701  0.51262491  0.14253043  1
  Zr  Zr58  1  0.59481564  0.40767880  0.00618259  1
  Zr  Zr59  1  0.61131930  0.79787856  0.00138585  1
  Zr  Zr60  1  0.59073849  0.40819790  0.24179548  1
  Zr  Zr61  1  0.29312960  0.29524487  0.38551489  1
  Zr  Zr62  1  0.48507507  0.51563341  0.87445719  1
  Zr  Zr63  1  0.50305444  0.30325187  0.38774735  1
  Zr  Zr64  1  0.78354881  0.40207049  0.74764451  1
  Zr  Zr65  1  0.31208025  0.69035239  0.12012585  1
  Zr  Zr66  1  0.90142701  0.28481237  0.13781406  1
  Zr  Zr67  1  0.50469183  0.09725623  0.87715892  1
  Zr  Zr68  1  0.08254904  0.50172128  0.63076817  1
  Zr  Zr69  1  0.41255775  0.80107236  -0.00428645  1
  Zr  Zr70  1  0.71854495  0.91079895  0.87049091  1
  Zr  Zr71  1  0.20347753  0.18305508  0.25491217  1
  Zr  Zr72  1  0.51651231  0.10835412  0.63679936  1
  Zr  Zr73  1  0.11100178  0.89969007  0.86306282  1
  Zr  Zr74  1  0.39200559  0.39839316  0.25294299  1
  Zr  Zr75  1  0.48283999  0.52163592  0.11949866  1
  Zr  Zr76  1  0.20133338  0.39448691  0.74522704  1
  Zr  Zr77  1  0.89122141  0.50372407  0.87361955  1
  Zr  Zr78  1  0.39786043  0.21719523  0.73637221  1
  Zr  Zr79  1  0.70190243  0.29895846  0.37645512  1
  Ta  Ta80  1  0.50343409  0.70355039  0.85685606  1
  Ta  Ta81  1  0.19844936  0.19791913  0.51100689  1
  Ta  Ta82  1  0.28767368  0.71466162  0.61491800  1
  Ta  Ta83  1  0.39280248  0.40576523  0.49891421  1
  Ta  Ta84  1  0.78690466  0.38575653  0.00817807  1
  Ta  Ta85  1  0.69594668  0.08759308  0.37753269  1
  Ta  Ta86  1  0.80533336  0.01573210  0.01689283  1
  Ta  Ta87  1  0.59832674  -0.01122940  0.51189200  1
  Ta  Ta88  1  0.49665506  0.31472341  0.61267114  1
  Ta  Ta89  1  0.70626075  0.89553324  0.62437346  1
  Ta  Ta90  1  -0.00753577  -0.02147205  0.73299724  1
  Ta  Ta91  1  0.09712468  0.30503922  0.36911687  1
  Ta  Ta92  1  0.49921272  0.09259430  0.38617832  1
  Ta  Ta93  1  0.79575462  0.40653092  0.49696010  1
  Ta  Ta94  1  0.39730088  0.19750395  0.51280862  1
  Ta  Ta95  1  0.60794466  0.60573064  0.74391939  1
  Ta  Ta96  1  0.30294360  0.28241569  0.12374044  1
  Ta  Ta97  1  0.78625306  0.39843233  0.24438081  1
  Ta  Ta98  1  0.79943709  -0.00576911  0.50219954  1
  Ta  Ta99  1  0.69258422  0.51129426  0.12371283  1
  Ta  Ta100  1  0.30464084  0.70251118  0.87104042  1
  Ta  Ta101  1  0.18809413  0.39777751  -0.00491970  1
  Ta  Ta102  1  0.10053122  0.70123326  0.87494915  1
  Ta  Ta103  1  0.49770404  0.50751492  0.38466482  1
  Ta  Ta104  1  0.00421884  0.78547815  0.48127695  1
  Ta  Ta105  1  -0.00002769  0.59659738  0.48749751  1
  Ta  Ta106  1  0.22959763  0.79522116  0.27354735  1
  Ta  Ta107  1  0.78762223  0.60098673  0.24876030  1
  Ta  Ta108  1  0.18776723  0.62341989  0.74195772  1
  Ta  Ta109  1  0.00758772  -0.00321978  0.00832397  1
  Ta  Ta110  1  0.80298507  0.19566552  0.49790530  1
  Ta  Ta111  1  0.10865034  0.68547973  0.36378591  1
  Ta  Ta112  1  0.78889360  0.60466350  0.00927565  1
  Ta  Ta113  1  0.39014245  0.61651148  0.73885145  1
  Ta  Ta114  1  0.30117115  0.89317736  0.13166583  1
  Ta  Ta115  1  0.69406166  0.50349138  0.37878127  1
  Ta  Ta116  1  0.40071513  -0.00155614  0.52004800  1
  Ta  Ta117  1  0.70591530  0.70062057  0.86786040  1
  Ta  Ta118  1  0.30078065  0.08550211  0.39776029  1
  Ta  Ta119  1  0.60006637  0.61168387  0.25589031  1
  Ti  Ti120  1  0.49829592  0.89277407  0.13262281  1
  Ti  Ti121  1  -0.01671541  0.62341271  0.74178572  1
  Ti  Ti122  1  0.79819524  0.80476394  0.01550906  1
  Ti  Ti123  1  0.09619728  0.08754364  0.86448974  1
  Ti  Ti124  1  0.49412114  0.30041848  0.11510348  1
  Ti  Ti125  1  0.18253875  0.40150057  0.50205187  1
  Ti  Ti126  1  0.69148631  0.50104807  0.61527232  1
  Ti  Ti127  1  0.01637239  0.79730619  0.01052616  1
  Ti  Ti128  1  0.50113276  0.71110051  0.37587451  1
  Ti  Ti129  1  0.51010107  0.71324134  0.63423315  1
  Ti  Ti130  1  0.00515523  -0.01712185  0.49202521  1
  Ti  Ti131  1  0.01849324  0.81037334  0.26794628  1
  Ti  Ti132  1  0.39002802  0.61100388  0.49634242  1
  Ti  Ti133  1  0.09115181  0.09933114  0.13382304  1
  Ti  Ti134  1  0.39427985  0.80653837  0.73696989  1
  Ti  Ti135  1  0.20664102  0.80685049  0.47949283  1
  Ti  Ti136  1  -0.00742353  0.40259199  0.49764735  1
  Ti  Ti137  1  0.61863910  0.00218132  0.75105130  1
  Ti  Ti138  1  0.09925797  0.30291430  0.62462539  1
  Ti  Ti139  1  0.39127991  0.40715826  0.74336811  1
  Ti  Ti140  1  0.81154071  0.60748952  0.48815468  1
  Ti  Ti141  1  0.10449976  0.09769637  0.38666228  1
  Ti  Ti142  1  0.39193903  -0.00237774  0.00372059  1
  Ti  Ti143  1  0.09970562  0.07488841  0.61288694  1
  Ti  Ti144  1  0.70009461  0.90137606  0.38372183  1
  Ti  Ti145  1  0.79940387  0.18852176  0.24721010  1
  Ti  Ti146  1  0.61936265  0.20674039  0.76479645  1
  Ti  Ti147  1  0.18909951  0.59862538  -0.00142808  1
  Ti  Ti148  1  0.79599874  0.00360964  0.23688262  1
  Ti  Ti149  1  -0.00863709  0.39682624  0.74873624  1
  Ti  Ti150  1  0.61161466  0.80290576  0.74580697  1
  Ti  Ti151  1  0.89977307  0.70380404  0.36090590  1
  Ti  Ti152  1  0.29561174  0.29888309  0.87665827  1
  Ti  Ti153  1  0.59087130  0.61504825  -0.00194138  1
  Ti  Ti154  1  0.18603689  0.61014747  0.49952232  1
  Ti  Ti155  1  0.90270309  0.88913306  0.60886241  1
  Ti  Ti156  1  0.30539353  0.90190587  0.86831529  1
  Ti  Ti157  1  0.89159888  0.89358831  0.37758000  1
  Ti  Ti158  1  0.50924744  0.70749101  0.13552993  1
  Ti  Ti159  1  0.20322846  -0.01378156  0.73184022  1
  Mo  Mo160  1  0.30954558  0.90396359  0.38729681  1
  Mo  Mo161  1  0.80547507  0.19768606  0.00513080  1
  Mo  Mo162  1  0.29674862  0.30770433  0.60599175  1
  Mo  Mo163  1  0.79372737  0.60735608  0.75028847  1
  Mo  Mo164  1  0.00476445  0.60924833  0.00149917  1
  Mo  Mo165  1  0.29372167  0.09673489  0.61033945  1
  Mo  Mo166  1  0.39290455  0.19477392  -0.00091107  1
  Mo  Mo167  1  0.29899510  0.89770461  0.61909550  1
  Mo  Mo168  1  0.81382590  -0.01081309  0.73656786  1
  Mo  Mo169  1  0.01833582  0.78808656  0.74909204  1
  Mo  Mo170  1  -0.00634774  0.60986487  0.26443130  1
  Mo  Mo171  1  0.69779362  0.30223771  0.87504588  1
  Mo  Mo172  1  0.80009610  0.19241905  0.74792866  1
  Mo  Mo173  1  0.09979700  0.69150255  0.61242980  1
  Mo  Mo174  1  0.09184633  0.49179501  0.37434658  1
  Mo  Mo175  1  0.39736316  0.61187074  -0.00967887  1
  Mo  Mo176  1  0.71123094  0.10343334  0.12991645  1
  Mo  Mo177  1  0.51358802  0.89963869  0.64325925  1
  Mo  Mo178  1  0.91899273  0.70400013  0.61044026  1
  Mo  Mo179  1  0.60974930  0.81056316  0.51023081  1
  Mo  Mo180  1  0.19652146  -0.00502434  0.50202587  1
  Mo  Mo181  1  0.70507038  0.30757141  0.13287200  1
  Mo  Mo182  1  0.10732795  0.89446023  0.13269580  1
  Mo  Mo183  1  0.59439053  0.79573846  0.24821743  1
  Mo  Mo184  1  0.10059920  0.89580679  0.38512586  1
  Mo  Mo185  1  0.21620425  0.79473279  0.75043983  1
  Mo  Mo186  1  0.40908012  0.80469627  0.25248813  1
  Mo  Mo187  1  0.90977020  0.08101780  0.60941782  1
  Mo  Mo188  1  0.81276243  0.80461720  0.49225050  1
  Mo  Mo189  1  0.69726059  0.69349013  0.12503354  1
  Mo  Mo190  1  0.00655431  0.19439202  0.25989098  1
  Mo  Mo191  1  0.20149227  0.60253858  0.25945482  1
  Mo  Mo192  1  0.29647338  0.09251934  0.12274292  1
  Mo  Mo193  1  0.19689107  0.39249902  0.25557154  1
  Mo  Mo194  1  0.59956453  0.40780806  0.49643838  1
  Mo  Mo195  1  -0.00256238  0.39833359  0.25815513  1
  Mo  Mo196  1  0.71434854  0.10569701  0.86387428  1
  Mo  Mo197  1  0.30798209  0.70579281  0.39486779  1
  Mo  Mo198  1  0.90611511  0.09793652  0.13121297  1
  Mo  Mo199  1  0.70534955  0.89972004  0.12043089  1
