# generated using pymatgen
data_HfZrTaTiMo
_symmetry_space_group_name_H-M   'P 1'
_cell_length_a   15.20295077
_cell_length_b   15.20451182
_cell_length_c   16.82777808
_cell_angle_alpha   90.03799048
_cell_angle_beta   90.03212728
_cell_angle_gamma   89.97545394
_symmetry_Int_Tables_number   1
_chemical_formula_structural   HfZrTaTiMo
_chemical_formula_sum   'Hf40 Zr40 Ta40 Ti40 Mo40'
_cell_volume   3889.79704829
_cell_formula_units_Z   40
loop_
 _symmetry_equiv_pos_site_id
 _symmetry_equiv_pos_as_xyz
  1  'x, y, z'
loop_
 _atom_site_type_symbol
 _atom_site_label
 _atom_site_symmetry_multiplicity
 _atom_site_fract_x
 _atom_site_fract_y
 _atom_site_fract_z
 _atom_site_occupancy
  Hf  Hf0  1  0.71216010  0.50431407  0.88588803  1
  Hf  Hf1  1  0.69991850  0.90081662  0.13651319  1
  Hf  Hf2  1  0.51042159  0.49842403  0.88173090  1
  Hf  Hf3  1  -0.01177419  0.41772513  0.74204917  1
  Hf  Hf4  1  0.89256140  0.11385426  0.37615747  1
  Hf  Hf5  1  0.31553020  0.70229335  0.12304681  1
  Hf  Hf6  1  0.88740846  0.30811057  0.86695561  1
  Hf  Hf7  1  0.91094203  0.89222882  0.61192370  1
  Hf  Hf8  1  0.19106629  0.19248097  0.49623846  1
  Hf  Hf9  1  0.69579203  0.10013161  0.86862425  1
  Hf  Hf10  1  0.58333477  0.19565026  0.75820850  1
  Hf  Hf11  1  0.31660738  0.49179894  0.37646137  1
  Hf  Hf12  1  0.18871413  0.39594413  0.49460327  1
  Hf  Hf13  1  0.82060105  0.81452141  0.00513879  1
  Hf  Hf14  1  0.10747023  0.69516439  0.13433375  1
  Hf  Hf15  1  0.09842530  0.69880639  0.38615231  1
  Hf  Hf16  1  0.78957021  0.79563488  0.27003947  1
  Hf  Hf17  1  0.10044147  0.09452174  0.11888267  1
  Hf  Hf18  1  0.49646069  0.88623926  0.13264921  1
  Hf  Hf19  1  0.29517582  0.28390938  0.62598799  1
  Hf  Hf20  1  0.09649967  0.50306713  0.87130221  1
  Hf  Hf21  1  0.80066534  -0.00675451  0.73769232  1
  Hf  Hf22  1  0.90191434  0.70922104  0.87183769  1
  Hf  Hf23  1  0.00978956  0.01041180  0.50958385  1
  Hf  Hf24  1  0.90211677  0.90251416  0.38509782  1
  Hf  Hf25  1  0.38787733  0.18001694  0.75832299  1
  Hf  Hf26  1  0.79295965  0.39810090  0.24604770  1
  Hf  Hf27  1  0.41071481  0.77926259  0.27119060  1
  Hf  Hf28  1  0.19633663  0.19685787  0.25448536  1
  Hf  Hf29  1  0.40373727  0.39093033  -0.00766075  1
  Hf  Hf30  1  0.59494131  0.00820302  0.00866828  1
  Hf  Hf31  1  0.79378748  0.20260638  0.00499852  1
  Hf  Hf32  1  0.68711073  0.31079217  0.87257205  1
  Hf  Hf33  1  0.08609993  0.90302781  0.87256227  1
  Hf  Hf34  1  0.30442841  0.08744324  0.38368417  1
  Hf  Hf35  1  0.80755813  0.59181453  0.24428597  1
  Hf  Hf36  1  0.31665700  0.49066470  0.12817650  1
  Hf  Hf37  1  0.41358324  0.59202497  0.74020601  1
  Hf  Hf38  1  0.53009000  0.49746752  0.38679832  1
  Hf  Hf39  1  0.30374421  0.50143725  0.86827178  1
  Zr  Zr40  1  0.20945406  0.80521982  0.26350689  1
  Zr  Zr41  1  0.59559129  0.80092001  -0.00765695  1
  Zr  Zr42  1  0.91011891  0.72067735  0.13773410  1
  Zr  Zr43  1  0.41371291  0.60012155  0.50619854  1
  Zr  Zr44  1  0.59013238  0.80196128  0.47627168  1
  Zr  Zr45  1  0.11268994  0.10474972  0.63922421  1
  Zr  Zr46  1  0.21049212  0.59438576  0.00154885  1
  Zr  Zr47  1  0.19724761  0.80094460  -0.00895958  1
  Zr  Zr48  1  0.50509302  0.10184882  0.36518982  1
  Zr  Zr49  1  0.78721244  0.01450822  0.50430237  1
  Zr  Zr50  1  0.21055989  0.59452853  0.25956842  1
  Zr  Zr51  1  0.19921188  0.00065541  0.25098107  1
  Zr  Zr52  1  -0.00575394  0.19243498  -0.00437566  1
  Zr  Zr53  1  0.70947763  0.90012657  0.86970821  1
  Zr  Zr54  1  -0.00777083  0.22123663  0.50038935  1
  Zr  Zr55  1  0.41781634  0.18831528  0.50629280  1
  Zr  Zr56  1  -0.00430728  -0.00504490  0.25204739  1
  Zr  Zr57  1  0.09915696  0.69481610  0.85970813  1
  Zr  Zr58  1  0.70576844  0.69362652  0.87988604  1
  Zr  Zr59  1  0.30496489  0.29343486  0.37878328  1
  Zr  Zr60  1  0.69423267  0.11629058  0.36539436  1
  Zr  Zr61  1  0.09796202  0.29870924  0.12472775  1
  Zr  Zr62  1  0.60574427  0.61387769  0.24744248  1
  Zr  Zr63  1  0.58471392  0.20882594  0.00356803  1
  Zr  Zr64  1  0.30372200  0.48729935  0.62413642  1
  Zr  Zr65  1  0.22556808  -0.00726412  0.76346640  1
  Zr  Zr66  1  0.28861555  0.69208636  0.63470328  1
  Zr  Zr67  1  0.39138416  -0.00304246  0.24098831  1
  Zr  Zr68  1  -0.00483398  0.40905566  0.25027445  1
  Zr  Zr69  1  0.61387493  0.59901832  0.73969370  1
  Zr  Zr70  1  0.09356145  0.72591078  0.60837718  1
  Zr  Zr71  1  0.19751202  0.39802489  0.74898040  1
  Zr  Zr72  1  0.90222251  0.08842909  0.86428965  1
  Zr  Zr73  1  0.08421020  0.88610152  0.12416666  1
  Zr  Zr74  1  0.67698583  0.90027207  0.62448670  1
  Zr  Zr75  1  -0.00429316  0.40300033  0.00249679  1
  Zr  Zr76  1  0.39938875  0.81278613  0.76025408  1
  Zr  Zr77  1  0.79536107  0.79788199  0.49475863  1
  Zr  Zr78  1  0.30038975  0.88688633  0.62193473  1
  Zr  Zr79  1  0.70366135  0.29245356  0.63498138  1
  Ta  Ta80  1  0.79182529  0.41518403  0.74438510  1
  Ta  Ta81  1  0.20219028  0.39410861  0.25642109  1
  Ta  Ta82  1  0.50504343  0.71656469  0.62124901  1
  Ta  Ta83  1  0.70232179  0.69614291  0.61226978  1
  Ta  Ta84  1  0.29084658  0.28784060  0.87164486  1
  Ta  Ta85  1  0.50706831  0.30301895  0.36736379  1
  Ta  Ta86  1  0.79530426  0.38978147  0.49808755  1
  Ta  Ta87  1  -0.00659818  0.20434693  0.25464184  1
  Ta  Ta88  1  0.80291303  0.40625276  0.01279791  1
  Ta  Ta89  1  -0.00108726  0.60715192  0.00769389  1
  Ta  Ta90  1  0.80245504  0.78720328  0.73461362  1
  Ta  Ta91  1  0.09344913  0.30915561  0.63122520  1
  Ta  Ta92  1  0.69870256  0.50592446  0.11679436  1
  Ta  Ta93  1  0.89011897  0.50582627  0.38880318  1
  Ta  Ta94  1  0.59689774  0.21370053  0.23656988  1
  Ta  Ta95  1  0.79240581  0.00463474  0.25412085  1
  Ta  Ta96  1  0.29855401  0.69799833  0.85983549  1
  Ta  Ta97  1  0.41565324  0.39104155  0.50605504  1
  Ta  Ta98  1  0.80016790  0.00732211  0.00836723  1
  Ta  Ta99  1  0.20453882  0.19766772  -0.00285494  1
  Ta  Ta100  1  0.10886970  0.10881579  0.86638585  1
  Ta  Ta101  1  0.89085541  0.11915862  0.63176112  1
  Ta  Ta102  1  0.20157197  0.39159997  -0.00387440  1
  Ta  Ta103  1  0.59736434  0.80271557  0.75202036  1
  Ta  Ta104  1  0.09934538  0.51682778  0.61917836  1
  Ta  Ta105  1  0.70225171  0.66460673  0.39335086  1
  Ta  Ta106  1  0.69792289  0.70683044  0.12144595  1
  Ta  Ta107  1  -0.01516921  -0.01710524  0.00181254  1
  Ta  Ta108  1  0.39229267  0.79615206  0.48019320  1
  Ta  Ta109  1  0.29999661  0.29065177  0.12436576  1
  Ta  Ta110  1  0.20382149  -0.01431779  0.50099861  1
  Ta  Ta111  1  -0.00188405  0.20869941  0.74902700  1
  Ta  Ta112  1  0.89848152  0.51527193  0.87613986  1
  Ta  Ta113  1  0.10477865  0.49851597  0.12650526  1
  Ta  Ta114  1  0.31160051  0.08383718  0.61909606  1
  Ta  Ta115  1  0.50120596  0.29961336  0.63012329  1
  Ta  Ta116  1  0.29572371  0.90554780  0.11049187  1
  Ta  Ta117  1  0.39683098  0.20422547  0.24272255  1
  Ta  Ta118  1  0.90575254  0.69219552  0.38541733  1
  Ta  Ta119  1  0.59224779  0.41217705  0.23783048  1
  Ti  Ti120  1  0.48773635  0.10503012  0.12866661  1
  Ti  Ti121  1  0.60072549  0.40192101  0.01242725  1
  Ti  Ti122  1  0.80995185  0.59684882  0.73173490  1
  Ti  Ti123  1  0.41157951  -0.01766139  0.49847810  1
  Ti  Ti124  1  0.89471563  0.29536639  0.13017494  1
  Ti  Ti125  1  0.48961856  0.31385677  0.13219164  1
  Ti  Ti126  1  0.69372698  0.30834444  0.37199951  1
  Ti  Ti127  1  0.69727885  0.30217492  0.12673878  1
  Ti  Ti128  1  0.00114236  0.60050440  0.25278542  1
  Ti  Ti129  1  0.10183695  0.89940523  0.38167015  1
  Ti  Ti130  1  -0.00671992  0.41211820  0.50646198  1
  Ti  Ti131  1  0.20038218  0.00477752  -0.00966202  1
  Ti  Ti132  1  0.50138783  0.69064657  0.11969247  1
  Ti  Ti133  1  0.69496321  0.10486637  0.63411149  1
  Ti  Ti134  1  -0.00285905  0.80957352  0.74222353  1
  Ti  Ti135  1  0.20575786  0.60060156  0.49153508  1
  Ti  Ti136  1  0.89252947  0.30765937  0.63027427  1
  Ti  Ti137  1  0.69760239  0.10632473  0.13701341  1
  Ti  Ti138  1  0.41768860  0.58254490  0.25495452  1
  Ti  Ti139  1  0.81083080  0.60285090  0.01636380  1
  Ti  Ti140  1  0.59597811  0.59962763  0.00810234  1
  Ti  Ti141  1  0.09342091  0.10263059  0.37597007  1
  Ti  Ti142  1  0.09043003  0.49608918  0.37967133  1
  Ti  Ti143  1  0.61070955  0.20497728  0.50380341  1
  Ti  Ti144  1  -0.00674306  0.61168554  0.73067436  1
  Ti  Ti145  1  0.40916760  0.38501391  0.75634204  1
  Ti  Ti146  1  0.39441527  0.00220258  -0.00086105  1
  Ti  Ti147  1  0.00385524  0.00026975  0.73862400  1
  Ti  Ti148  1  0.59498519  0.00449697  0.49562138  1
  Ti  Ti149  1  0.49759649  0.69547432  0.87585258  1
  Ti  Ti150  1  0.50604241  0.08349584  0.62820233  1
  Ti  Ti151  1  0.89334156  0.09783981  0.13337228  1
  Ti  Ti152  1  0.59302671  0.40802358  0.74596975  1
  Ti  Ti153  1  0.89297240  0.30661126  0.37329852  1
  Ti  Ti154  1  0.69683759  0.49255860  0.61001931  1
  Ti  Ti155  1  0.39764696  0.79915757  -0.01346983  1
  Ti  Ti156  1  0.09649880  0.29958966  0.86974396  1
  Ti  Ti157  1  0.49804677  0.91599756  0.87442742  1
  Ti  Ti158  1  0.39574922  0.19220804  -0.00852951  1
  Ti  Ti159  1  0.50739867  0.90938842  0.35748023  1
  Mo  Mo160  1  0.89283665  0.91236186  0.13616023  1
  Mo  Mo161  1  0.80612168  0.58933780  0.51201827  1
  Mo  Mo162  1  0.70900258  0.48572402  0.38075165  1
  Mo  Mo163  1  0.59639108  0.00841451  0.23335040  1
  Mo  Mo164  1  0.00210670  0.59393012  0.50349675  1
  Mo  Mo165  1  0.29961024  0.10092163  0.11064801  1
  Mo  Mo166  1  0.69000092  0.91575851  0.36298795  1
  Mo  Mo167  1  0.58785953  -0.00365664  0.75132389  1
  Mo  Mo168  1  0.60531175  0.80277873  0.26925482  1
  Mo  Mo169  1  0.19443534  0.60051143  0.74194222  1
  Mo  Mo170  1  0.40897271  0.61034411  -0.00742235  1
  Mo  Mo171  1  0.08887268  0.30418674  0.36904713  1
  Mo  Mo172  1  0.50533299  0.68974797  0.37958377  1
  Mo  Mo173  1  0.00308632  0.80610825  0.49001034  1
  Mo  Mo174  1  0.89921488  0.69643050  0.61874379  1
  Mo  Mo175  1  0.19231175  0.80110189  0.75995518  1
  Mo  Mo176  1  0.30013913  0.09404518  0.88791779  1
  Mo  Mo177  1  0.30362723  0.89774035  0.89065629  1
  Mo  Mo178  1  0.90654967  0.50623448  0.12164388  1
  Mo  Mo179  1  -0.00111538  0.79672576  -0.00138305  1
  Mo  Mo180  1  0.79671880  0.20916986  0.50157247  1
  Mo  Mo181  1  0.30402027  0.68638716  0.38100128  1
  Mo  Mo182  1  0.60615453  0.59556129  0.51609927  1
  Mo  Mo183  1  0.40717884  0.39352148  0.25016920  1
  Mo  Mo184  1  0.49048443  0.30387842  0.87244689  1
  Mo  Mo185  1  0.89474410  0.49831926  0.61380960  1
  Mo  Mo186  1  0.41713847  -0.00048816  0.75248753  1
  Mo  Mo187  1  0.10650183  0.90538525  0.62924349  1
  Mo  Mo188  1  0.50854708  0.49042762  0.62260783  1
  Mo  Mo189  1  0.50344433  0.50416568  0.11686030  1
  Mo  Mo190  1  0.20557409  0.80349938  0.48611779  1
  Mo  Mo191  1  0.30380263  0.89793752  0.38235743  1
  Mo  Mo192  1  -0.00266743  0.79296860  0.27261844  1
  Mo  Mo193  1  0.90000067  0.90138855  0.86385470  1
  Mo  Mo194  1  0.49613663  0.09605970  0.88308060  1
  Mo  Mo195  1  0.80078526  0.20681000  0.23982418  1
  Mo  Mo196  1  0.49592124  0.89899848  0.61833554  1
  Mo  Mo197  1  0.80009295  0.20455017  0.75076926  1
  Mo  Mo198  1  0.19533529  0.19815076  0.75330537  1
  Mo  Mo199  1  0.59924257  0.38483212  0.50434564  1
