# generated using pymatgen
data_HfZrTaTiMo
_symmetry_space_group_name_H-M   'P 1'
_cell_length_a   15.21534488
_cell_length_b   15.20904819
_cell_length_c   16.87795206
_cell_angle_alpha   90.03440765
_cell_angle_beta   89.98138007
_cell_angle_gamma   90.05078232
_symmetry_Int_Tables_number   1
_chemical_formula_structural   HfZrTaTiMo
_chemical_formula_sum   'Hf40 Zr40 Ta40 Ti40 Mo40'
_cell_volume   3905.73985926
_cell_formula_units_Z   40
loop_
 _symmetry_equiv_pos_site_id
 _symmetry_equiv_pos_as_xyz
  1  'x, y, z'
loop_
 _atom_site_type_symbol
 _atom_site_label
 _atom_site_symmetry_multiplicity
 _atom_site_fract_x
 _atom_site_fract_y
 _atom_site_fract_z
 _atom_site_occupancy
  Hf  Hf0  1  0.50345507  0.49044153  0.37382746  1
  Hf  Hf1  1  0.19905594  0.39789166  0.24539675  1
  Hf  Hf2  1  0.69956401  0.71462674  0.86999743  1
  Hf  Hf3  1  0.19609859  0.40486195  0.49492462  1
  Hf  Hf4  1  0.90695869  0.90663714  0.36243581  1
  Hf  Hf5  1  0.29649408  0.31157674  0.89467297  1
  Hf  Hf6  1  0.29818012  0.91008727  0.61082019  1
  Hf  Hf7  1  0.09893293  0.29194440  0.37628486  1
  Hf  Hf8  1  0.39764496  0.20224332  0.23925907  1
  Hf  Hf9  1  0.31214275  0.29931156  0.37938830  1
  Hf  Hf10  1  0.89499594  0.89392234  0.87575426  1
  Hf  Hf11  1  0.19736124  0.79353684  0.74103021  1
  Hf  Hf12  1  0.41042325  0.80335373  0.74633306  1
  Hf  Hf13  1  0.49724251  0.49603947  0.87902064  1
  Hf  Hf14  1  0.51291283  0.29365480  0.63382897  1
  Hf  Hf15  1  0.70775737  0.90459444  0.61461466  1
  Hf  Hf16  1  0.90258603  0.67911625  0.12796129  1
  Hf  Hf17  1  0.10206341  0.89724560  0.36762957  1
  Hf  Hf18  1  0.19282593  0.79835608  0.49692079  1
  Hf  Hf19  1  0.29164029  0.50487567  0.62369789  1
  Hf  Hf20  1  0.41560750  0.81283894  0.49149286  1
  Hf  Hf21  1  0.30153439  0.10432886  0.38981032  1
  Hf  Hf22  1  0.31131286  0.30253117  0.61773947  1
  Hf  Hf23  1  0.27678651  0.10498294  0.89475615  1
  Hf  Hf24  1  0.29300889  0.89655362  0.89285480  1
  Hf  Hf25  1  -0.00803136  0.19270484  0.74047478  1
  Hf  Hf26  1  0.59006385  0.80634406  0.01198874  1
  Hf  Hf27  1  0.79284552  0.80512198  0.00930328  1
  Hf  Hf28  1  0.68892827  0.91088125  0.37376168  1
  Hf  Hf29  1  0.50212279  0.69785090  0.37170239  1
  Hf  Hf30  1  0.79580873  0.01983361  0.48762213  1
  Hf  Hf31  1  0.71345133  0.11035338  0.12527920  1
  Hf  Hf32  1  0.10405109  0.50089295  0.89030734  1
  Hf  Hf33  1  -0.01085051  0.19385673  0.25441616  1
  Hf  Hf34  1  0.12123559  0.10833367  0.13113470  1
  Hf  Hf35  1  0.70400878  0.69617859  0.38171439  1
  Hf  Hf36  1  0.90786405  0.10183987  0.12297657  1
  Hf  Hf37  1  0.89783659  0.90630398  0.13875973  1
  Hf  Hf38  1  0.49659057  0.49856239  0.62661542  1
  Hf  Hf39  1  0.40785490  0.20638586  0.01163296  1
  Zr  Zr40  1  0.41221434  -0.00287450  0.00685101  1
  Zr  Zr41  1  0.29750794  0.70268548  0.88533981  1
  Zr  Zr42  1  -0.01288052  0.39673800  -0.00034685  1
  Zr  Zr43  1  0.90355777  0.48606111  0.61664095  1
  Zr  Zr44  1  0.30050104  0.50870894  0.36690510  1
  Zr  Zr45  1  0.01972808  0.59483099  0.74190091  1
  Zr  Zr46  1  0.18720431  0.00233492  0.74680703  1
  Zr  Zr47  1  0.30263994  0.90199473  0.11724262  1
  Zr  Zr48  1  0.30367636  0.91242809  0.38147079  1
  Zr  Zr49  1  0.51323382  0.70294281  0.61836510  1
  Zr  Zr50  1  0.67795145  0.09946538  0.63066436  1
  Zr  Zr51  1  0.19566084  0.41463554  0.75208005  1
  Zr  Zr52  1  0.59658477  0.39162209  0.24720372  1
  Zr  Zr53  1  0.51500448  0.10294656  0.37152822  1
  Zr  Zr54  1  0.70648207  0.49345929  0.12425031  1
  Zr  Zr55  1  0.01298706  0.00098477  -0.00234134  1
  Zr  Zr56  1  0.79737709  0.60244827  0.74439230  1
  Zr  Zr57  1  0.30563226  0.69901721  0.61799370  1
  Zr  Zr58  1  0.30997081  0.10413465  0.60892688  1
  Zr  Zr59  1  0.51522336  0.89526152  0.87289048  1
  Zr  Zr60  1  0.00157390  0.78144580  0.24424668  1
  Zr  Zr61  1  0.69381970  0.49629060  0.62038053  1
  Zr  Zr62  1  0.28837676  0.50078055  0.10944316  1
  Zr  Zr63  1  0.09768176  0.71006330  0.87566498  1
  Zr  Zr64  1  0.00778833  0.78984931  0.01355337  1
  Zr  Zr65  1  0.40290713  0.80397794  0.25432333  1
  Zr  Zr66  1  -0.01227611  0.40073262  0.25439033  1
  Zr  Zr67  1  0.80247741  0.58924770  0.26177099  1
  Zr  Zr68  1  0.09654574  0.08863407  0.37610934  1
  Zr  Zr69  1  0.09223478  0.30489565  0.61968141  1
  Zr  Zr70  1  0.19859449  0.20261414  0.74561054  1
  Zr  Zr71  1  0.60333129  0.60559368  -0.00810416  1
  Zr  Zr72  1  0.60719190  0.38675324  -0.00341939  1
  Zr  Zr73  1  0.70621713  0.09813377  0.87318407  1
  Zr  Zr74  1  0.49388123  0.49665028  0.11905068  1
  Zr  Zr75  1  0.39814216  0.00946486  0.75792348  1
  Zr  Zr76  1  0.39393456  0.59850740  0.76024572  1
  Zr  Zr77  1  0.89473724  0.49094303  0.86438278  1
  Zr  Zr78  1  0.91467589  0.71137233  0.60904723  1
  Zr  Zr79  1  0.80435601  0.59010335  -0.01083337  1
  Ta  Ta80  1  -0.01756695  0.18783733  0.50529788  1
  Ta  Ta81  1  0.40491751  0.61512239  -0.00167013  1
  Ta  Ta82  1  0.59763856  0.19765956  0.76043482  1
  Ta  Ta83  1  0.28504190  0.29099623  0.11424024  1
  Ta  Ta84  1  0.80411828  0.02089299  0.26268609  1
  Ta  Ta85  1  0.29642311  0.50128295  0.89924216  1
  Ta  Ta86  1  0.71247205  0.29575151  0.63291476  1
  Ta  Ta87  1  0.10704073  0.90275148  0.13756753  1
  Ta  Ta88  1  0.40875100  0.00345961  0.24187095  1
  Ta  Ta89  1  0.49466994  0.70267107  0.13166035  1
  Ta  Ta90  1  0.50291025  0.10332142  0.88024542  1
  Ta  Ta91  1  0.61298810  0.00024355  0.00795781  1
  Ta  Ta92  1  0.91134190  0.69490994  0.38703484  1
  Ta  Ta93  1  -0.00831366  0.39134919  0.49418699  1
  Ta  Ta94  1  0.79413587  0.79840634  0.25411033  1
  Ta  Ta95  1  -0.01244524  -0.00799786  0.74160250  1
  Ta  Ta96  1  0.87865157  0.29588252  0.12362837  1
  Ta  Ta97  1  0.09682998  0.28804000  0.88129374  1
  Ta  Ta98  1  0.61585589  0.81035364  0.74224424  1
  Ta  Ta99  1  0.60137367  0.80323303  0.24601626  1
  Ta  Ta100  1  0.20612837  0.79258903  0.24929001  1
  Ta  Ta101  1  -0.01037441  -0.01290841  0.50775161  1
  Ta  Ta102  1  0.09190959  0.50589785  0.37047152  1
  Ta  Ta103  1  0.89641138  0.49749990  0.39027554  1
  Ta  Ta104  1  0.89665815  0.28573210  0.87024500  1
  Ta  Ta105  1  0.69763630  0.70072697  0.13453681  1
  Ta  Ta106  1  0.08495291  0.51562259  0.12579745  1
  Ta  Ta107  1  0.50948291  0.92540353  0.62504224  1
  Ta  Ta108  1  0.80775915  0.80545167  0.74162466  1
  Ta  Ta109  1  0.89615027  0.48667997  0.12426080  1
  Ta  Ta110  1  0.10241599  0.69096237  0.37312025  1
  Ta  Ta111  1  0.70666289  0.70441408  0.61314003  1
  Ta  Ta112  1  0.79211525  0.38423525  0.25868815  1
  Ta  Ta113  1  0.08525532  0.88761869  0.61845104  1
  Ta  Ta114  1  0.39944661  0.20377674  0.76059025  1
  Ta  Ta115  1  0.51066332  0.09840205  0.12814125  1
  Ta  Ta116  1  0.09145066  0.30390902  0.12103787  1
  Ta  Ta117  1  0.39863190  0.39479438  0.75715592  1
  Ta  Ta118  1  0.81289531  0.81206856  0.49286570  1
  Ta  Ta119  1  0.88408415  0.29307804  0.38390308  1
  Ti  Ti120  1  0.68479810  0.28786769  0.37956906  1
  Ti  Ti121  1  0.18823062  0.19745880  0.50583950  1
  Ti  Ti122  1  0.19761262  0.59724259  0.49389705  1
  Ti  Ti123  1  0.80495534  0.38622902  0.74622811  1
  Ti  Ti124  1  0.50069975  0.29702683  0.87370271  1
  Ti  Ti125  1  0.60172525  0.00303979  0.24595788  1
  Ti  Ti126  1  0.79004428  0.21019657  0.50198532  1
  Ti  Ti127  1  0.90489088  0.09791052  0.87046198  1
  Ti  Ti128  1  0.60721810  0.20536847  0.24275186  1
  Ti  Ti129  1  0.70151223  0.90731065  0.13802907  1
  Ti  Ti130  1  0.80285013  0.59769675  0.50083478  1
  Ti  Ti131  1  0.40167751  0.39356392  0.24017189  1
  Ti  Ti132  1  0.90597974  0.69747762  0.87435077  1
  Ti  Ti133  1  0.38887768  0.60121521  0.24258285  1
  Ti  Ti134  1  0.60430934  0.40414036  0.75706982  1
  Ti  Ti135  1  0.79081074  -0.00519000  0.75277497  1
  Ti  Ti136  1  0.10759232  0.68465721  0.61659918  1
  Ti  Ti137  1  0.18320970  0.61745495  0.00907567  1
  Ti  Ti138  1  0.60443363  0.19735894  0.00262059  1
  Ti  Ti139  1  0.70375235  0.48494524  0.38894463  1
  Ti  Ti140  1  0.80199328  0.00200082  -0.00241204  1
  Ti  Ti141  1  0.29433257  0.70408084  0.11738394  1
  Ti  Ti142  1  0.00039971  0.19660441  -0.00306005  1
  Ti  Ti143  1  0.60632265  0.80954808  0.49714811  1
  Ti  Ti144  1  0.88118900  0.09968795  0.63036545  1
  Ti  Ti145  1  0.09403813  0.08624948  0.61423206  1
  Ti  Ti146  1  0.10047773  0.90994897  0.87461830  1
  Ti  Ti147  1  0.40098199  0.59924463  0.49477097  1
  Ti  Ti148  1  0.59773213  0.60883844  0.75643970  1
  Ti  Ti149  1  0.79898687  0.21139363  -0.00614197  1
  Ti  Ti150  1  0.21547703  0.01198456  0.24797659  1
  Ti  Ti151  1  0.59738415  0.60025440  0.24994734  1
  Ti  Ti152  1  0.60259592  0.38025739  0.49939083  1
  Ti  Ti153  1  0.40955314  0.40082404  0.49810265  1
  Ti  Ti154  1  0.29619537  0.69888998  0.37361415  1
  Ti  Ti155  1  0.43230484  0.20099249  0.49884780  1
  Ti  Ti156  1  0.59946166  0.59562523  0.49821980  1
  Ti  Ti157  1  -0.00173589  0.80427302  0.74727276  1
  Ti  Ti158  1  0.00073444  0.39011874  0.74952587  1
  Ti  Ti159  1  0.70597020  0.30487838  0.86511424  1
  Mo  Mo160  1  0.01163726  0.59131482  0.49906025  1
  Mo  Mo161  1  0.79447353  0.20788255  0.25605260  1
  Mo  Mo162  1  0.50293827  0.70225665  0.86975936  1
  Mo  Mo163  1  0.69751579  0.49367175  0.85628695  1
  Mo  Mo164  1  0.18610000  0.20224486  0.00080310  1
  Mo  Mo165  1  0.19705317  0.60784030  0.24560316  1
  Mo  Mo166  1  0.90186578  0.10485008  0.38001874  1
  Mo  Mo167  1  0.09773872  0.50254545  0.61235729  1
  Mo  Mo168  1  0.08286278  0.10159804  0.87049683  1
  Mo  Mo169  1  0.40006274  0.40199164  0.00092899  1
  Mo  Mo170  1  0.20399354  0.20726439  0.25064470  1
  Mo  Mo171  1  0.41234235  0.00676571  0.50018443  1
  Mo  Mo172  1  0.58682280  0.00235337  0.49571739  1
  Mo  Mo173  1  0.19872498  0.59865714  0.75252617  1
  Mo  Mo174  1  0.19379459  0.80850955  0.01147003  1
  Mo  Mo175  1  0.18818935  0.00282987  0.50851924  1
  Mo  Mo176  1  0.51303286  0.90353457  0.13217249  1
  Mo  Mo177  1  0.11099981  0.69555068  0.13326017  1
  Mo  Mo178  1  0.49538528  0.10775622  0.63278072  1
  Mo  Mo179  1  0.70861624  0.90274056  0.87569606  1
  Mo  Mo180  1  -0.00416673  0.59840160  0.00095421  1
  Mo  Mo181  1  0.00053196  0.79690481  0.49206153  1
  Mo  Mo182  1  0.19185280  -0.00075083  0.00334100  1
  Mo  Mo183  1  0.18929820  0.39996658  0.01155370  1
  Mo  Mo184  1  0.70072425  0.29528322  0.12202758  1
  Mo  Mo185  1  0.79965729  0.19891785  0.75164923  1
  Mo  Mo186  1  0.79649245  0.38621634  -0.00939449  1
  Mo  Mo187  1  0.79098341  0.39250152  0.49437062  1
  Mo  Mo188  1  0.59722366  -0.00153219  0.75592166  1
  Mo  Mo189  1  0.30313474  0.10143402  0.12281852  1
  Mo  Mo190  1  0.50173689  0.29353338  0.12236409  1
  Mo  Mo191  1  0.50774759  0.90465118  0.36883690  1
  Mo  Mo192  1  0.70662869  0.11400531  0.37015606  1
  Mo  Mo193  1  0.40472136  0.79214568  0.00703754  1
  Mo  Mo194  1  0.00563632  -0.00187625  0.24403636  1
  Mo  Mo195  1  0.89751561  0.90897163  0.62504209  1
  Mo  Mo196  1  0.89255902  0.29124437  0.61846989  1
  Mo  Mo197  1  0.00008860  0.58928956  0.25689201  1
  Mo  Mo198  1  0.50038355  0.30150327  0.37784774  1
  Mo  Mo199  1  0.60953999  0.19936627  0.50235788  1
