# generated using pymatgen
data_HfZrTaTiMo
_symmetry_space_group_name_H-M   'P 1'
_cell_length_a   15.22471755
_cell_length_b   15.21125076
_cell_length_c   16.85560226
_cell_angle_alpha   90.03996465
_cell_angle_beta   90.04229850
_cell_angle_gamma   90.10280571
_symmetry_Int_Tables_number   1
_chemical_formula_structural   HfZrTaTiMo
_chemical_formula_sum   'Hf40 Zr40 Ta40 Ti40 Mo40'
_cell_volume   3903.52999928
_cell_formula_units_Z   40
loop_
 _symmetry_equiv_pos_site_id
 _symmetry_equiv_pos_as_xyz
  1  'x, y, z'
loop_
 _atom_site_type_symbol
 _atom_site_label
 _atom_site_symmetry_multiplicity
 _atom_site_fract_x
 _atom_site_fract_y
 _atom_site_fract_z
 _atom_site_occupancy
  Hf  Hf0  1  0.40750274  0.59254856  0.01424419  1
  Hf  Hf1  1  0.09883610  0.67442940  0.12615869  1
  Hf  Hf2  1  0.19907165  0.00907942  0.51685117  1
  Hf  Hf3  1  0.11321315  0.69439336  0.61844698  1
  Hf  Hf4  1  0.82781884  0.61227292  0.01126433  1
  Hf  Hf5  1  0.20122201  -0.01340250  0.74287856  1
  Hf  Hf6  1  0.90403328  0.30308239  0.37458093  1
  Hf  Hf7  1  0.19956181  0.79990473  0.49370300  1
  Hf  Hf8  1  0.59115937  0.40686829  0.24485048  1
  Hf  Hf9  1  0.28650394  0.28792030  0.37693375  1
  Hf  Hf10  1  0.09515423  0.91854214  0.36380226  1
  Hf  Hf11  1  0.49143015  0.08765930  0.13385613  1
  Hf  Hf12  1  0.48368457  0.28166966  0.14153478  1
  Hf  Hf13  1  0.90200037  0.51371806  0.86740513  1
  Hf  Hf14  1  -0.00296147  0.40783478  0.24575214  1
  Hf  Hf15  1  0.50227477  0.49441245  0.87616840  1
  Hf  Hf16  1  0.30087845  0.49675485  0.37716501  1
  Hf  Hf17  1  0.80670241  0.19948962  0.49579201  1
  Hf  Hf18  1  0.29479409  0.51319322  0.61694545  1
  Hf  Hf19  1  0.39789761  0.80591564  0.74825483  1
  Hf  Hf20  1  0.29506429  0.49782722  0.87855324  1
  Hf  Hf21  1  0.10093918  0.50338509  0.37919545  1
  Hf  Hf22  1  0.89870597  0.69749880  0.36455169  1
  Hf  Hf23  1  0.59493585  0.20085823  0.00563144  1
  Hf  Hf24  1  0.40919744  0.60214677  0.49246950  1
  Hf  Hf25  1  0.41450099  0.59236884  0.24730575  1
  Hf  Hf26  1  0.30443588  0.29980772  0.63529700  1
  Hf  Hf27  1  0.80641484  -0.00668165  0.75356527  1
  Hf  Hf28  1  0.28767955  0.29964617  0.85799123  1
  Hf  Hf29  1  0.59740566  -0.00544698  0.25786371  1
  Hf  Hf30  1  0.50343928  0.90547062  0.61847721  1
  Hf  Hf31  1  0.52113803  0.70537204  0.13118810  1
  Hf  Hf32  1  0.71310865  0.69481911  0.87227724  1
  Hf  Hf33  1  0.80842601  0.80119147  0.73665731  1
  Hf  Hf34  1  0.90106640  0.30033783  0.63763347  1
  Hf  Hf35  1  0.29201243  0.70282617  0.89771791  1
  Hf  Hf36  1  0.09401294  0.48863450  0.87294490  1
  Hf  Hf37  1  0.60286671  0.79905604  0.75058606  1
  Hf  Hf38  1  0.39175656  0.38747366  0.01342578  1
  Hf  Hf39  1  0.90364789  0.10154541  0.87776832  1
  Zr  Zr40  1  0.90077648  0.31369521  0.85723367  1
  Zr  Zr41  1  0.70184169  0.49280081  0.87312702  1
  Zr  Zr42  1  0.19996778  0.78979381  0.75230056  1
  Zr  Zr43  1  0.30914436  0.70821946  0.36134438  1
  Zr  Zr44  1  0.21061434  0.81506104  0.23785846  1
  Zr  Zr45  1  0.79348498  0.40461070  0.50204758  1
  Zr  Zr46  1  -0.00058351  0.00580065  0.50618923  1
  Zr  Zr47  1  0.80572060  -0.01948928  -0.00018745  1
  Zr  Zr48  1  0.80024157  0.38886874  0.00548110  1
  Zr  Zr49  1  0.80106846  0.60036119  0.73086199  1
  Zr  Zr50  1  0.78699086  0.19541472  0.74624907  1
  Zr  Zr51  1  0.80491701  -0.00299982  0.25663021  1
  Zr  Zr52  1  0.71256159  0.50470078  0.13034188  1
  Zr  Zr53  1  0.39694906  0.60794709  0.74820332  1
  Zr  Zr54  1  0.59536932  -0.00465946  0.00572555  1
  Zr  Zr55  1  0.30380949  0.10097664  0.86306672  1
  Zr  Zr56  1  -0.00280786  0.80287610  0.24293059  1
  Zr  Zr57  1  0.30551514  0.70827277  0.12439806  1
  Zr  Zr58  1  0.27596150  0.50029619  0.12605596  1
  Zr  Zr59  1  0.09666011  0.89358123  0.88383473  1
  Zr  Zr60  1  0.48784009  0.29851681  0.87504479  1
  Zr  Zr61  1  0.61290338  0.59445143  0.00708340  1
  Zr  Zr62  1  0.39199023  0.18952570  0.50652818  1
  Zr  Zr63  1  0.68976167  0.29708048  0.87390131  1
  Zr  Zr64  1  0.47586599  0.09077470  0.36580130  1
  Zr  Zr65  1  0.61439943  0.80148105  -0.00213349  1
  Zr  Zr66  1  0.20364309  0.02946312  0.23838930  1
  Zr  Zr67  1  -0.01927071  0.79542281  0.01497109  1
  Zr  Zr68  1  0.90460044  0.09848124  0.12172288  1
  Zr  Zr69  1  0.80901561  0.79813879  0.50076605  1
  Zr  Zr70  1  0.19480665  0.39696410  0.51220198  1
  Zr  Zr71  1  0.62459071  0.60623595  0.27134266  1
  Zr  Zr72  1  0.69850658  0.90185845  0.60971354  1
  Zr  Zr73  1  0.49635581  0.70403741  0.88233116  1
  Zr  Zr74  1  0.69658189  0.28677897  0.13720777  1
  Zr  Zr75  1  -0.00337583  0.21884515  -0.00621408  1
  Zr  Zr76  1  0.30453184  0.92391500  0.38029085  1
  Zr  Zr77  1  0.00167032  0.60098004  0.50361993  1
  Zr  Zr78  1  0.49104992  0.29144244  0.36005264  1
  Zr  Zr79  1  0.70391327  0.09519247  0.61113395  1
  Ta  Ta80  1  0.59441896  0.21035721  0.49219549  1
  Ta  Ta81  1  0.60446497  0.00736107  0.75572656  1
  Ta  Ta82  1  0.00628425  0.60174934  0.73912811  1
  Ta  Ta83  1  0.27715204  0.28196982  0.12541773  1
  Ta  Ta84  1  0.58953004  0.39379121  0.73747815  1
  Ta  Ta85  1  0.69838109  0.10536826  0.37776079  1
  Ta  Ta86  1  0.50281843  0.10182400  0.87156981  1
  Ta  Ta87  1  0.11235985  0.12032056  0.11013961  1
  Ta  Ta88  1  0.59593048  0.59349351  0.74188004  1
  Ta  Ta89  1  0.69722950  0.89301805  0.38565272  1
  Ta  Ta90  1  0.21112670  0.01081310  0.00407669  1
  Ta  Ta91  1  0.68117788  0.29656210  0.62067681  1
  Ta  Ta92  1  0.49510256  0.88572453  0.37785924  1
  Ta  Ta93  1  0.58856491  0.00420894  0.48549568  1
  Ta  Ta94  1  0.00892320  0.00115525  -0.00236480  1
  Ta  Ta95  1  0.38451572  0.39366485  0.24156960  1
  Ta  Ta96  1  0.09199262  0.30713161  0.12408421  1
  Ta  Ta97  1  0.69011227  0.69629439  0.61024795  1
  Ta  Ta98  1  0.00762293  0.00111844  0.74681015  1
  Ta  Ta99  1  0.09394769  0.91944471  0.12260146  1
  Ta  Ta100  1  0.68086325  0.49838340  0.61533031  1
  Ta  Ta101  1  -0.00235545  0.40114254  0.51772970  1
  Ta  Ta102  1  0.09374595  0.68641247  0.88633823  1
  Ta  Ta103  1  0.18647308  0.19055080  0.73284151  1
  Ta  Ta104  1  0.40663737  0.80332190  0.50225596  1
  Ta  Ta105  1  0.80228735  0.20045559  0.25986369  1
  Ta  Ta106  1  0.60745281  0.59330852  0.48207961  1
  Ta  Ta107  1  0.00744268  0.80594283  0.49573561  1
  Ta  Ta108  1  0.91683869  0.10004171  0.36922031  1
  Ta  Ta109  1  0.30731851  0.90127555  0.89058898  1
  Ta  Ta110  1  0.90964588  0.71620043  0.86760397  1
  Ta  Ta111  1  0.69450875  0.89139631  0.13664793  1
  Ta  Ta112  1  0.00885975  0.19585091  0.24680143  1
  Ta  Ta113  1  0.49940395  0.91017704  0.87243704  1
  Ta  Ta114  1  0.89379290  0.30158169  0.13436012  1
  Ta  Ta115  1  0.18447953  0.38618009  -0.00352307  1
  Ta  Ta116  1  0.69862940  0.09805485  0.88256866  1
  Ta  Ta117  1  0.00924861  0.20660553  0.50738829  1
  Ta  Ta118  1  0.51125447  0.10766812  0.62649144  1
  Ta  Ta119  1  0.69339350  0.30533318  0.36765315  1
  Ti  Ti120  1  0.50681679  0.69425074  0.61760986  1
  Ti  Ti121  1  0.18355358  0.40400217  0.73363038  1
  Ti  Ti122  1  0.80579556  0.00258069  0.48722693  1
  Ti  Ti123  1  0.19749870  0.59703040  0.75362518  1
  Ti  Ti124  1  0.36519022  0.17801795  0.25014964  1
  Ti  Ti125  1  0.79796810  0.41035874  0.25557121  1
  Ti  Ti126  1  0.60050286  0.79833936  0.26479145  1
  Ti  Ti127  1  0.90713531  0.70238556  0.61972301  1
  Ti  Ti128  1  0.40421078  0.41222561  0.73749257  1
  Ti  Ti129  1  0.42081694  0.39449625  0.50869991  1
  Ti  Ti130  1  0.40939044  0.82147882  0.01251694  1
  Ti  Ti131  1  0.09504406  0.30209689  0.37927896  1
  Ti  Ti132  1  0.91226179  0.90374197  0.62062571  1
  Ti  Ti133  1  0.38255822  0.18567555  0.00057463  1
  Ti  Ti134  1  0.09274727  0.29393853  0.85260758  1
  Ti  Ti135  1  0.80064193  0.59600820  0.50211525  1
  Ti  Ti136  1  0.10541030  0.10440496  0.87572271  1
  Ti  Ti137  1  0.39051142  -0.02713755  0.23468367  1
  Ti  Ti138  1  0.30265430  0.89669363  0.61886466  1
  Ti  Ti139  1  0.88675808  0.88965866  0.13610201  1
  Ti  Ti140  1  0.00661195  0.80452664  0.74328752  1
  Ti  Ti141  1  0.19320460  0.80708312  0.01328579  1
  Ti  Ti142  1  0.19236986  0.40037396  0.25029707  1
  Ti  Ti143  1  0.11059500  0.11606824  0.37763882  1
  Ti  Ti144  1  0.41636781  0.20207460  0.74101322  1
  Ti  Ti145  1  0.70446792  0.09672347  0.12909018  1
  Ti  Ti146  1  0.72768055  0.71141925  0.13821131  1
  Ti  Ti147  1  0.30697982  0.70406142  0.61516499  1
  Ti  Ti148  1  0.71100501  0.89550696  0.87363319  1
  Ti  Ti149  1  0.90199569  0.90149967  0.36984543  1
  Ti  Ti150  1  0.78915252  0.40865945  0.73407201  1
  Ti  Ti151  1  0.31020410  0.09249782  0.63542094  1
  Ti  Ti152  1  0.89815200  0.50290166  0.37349694  1
  Ti  Ti153  1  0.58584403  0.40295644  0.02270322  1
  Ti  Ti154  1  0.50588703  0.48921450  0.37734115  1
  Ti  Ti155  1  0.19039306  0.19903994  0.52301212  1
  Ti  Ti156  1  0.40861783  -0.00025279  0.74827670  1
  Ti  Ti157  1  -0.00920164  0.42120065  0.01510567  1
  Ti  Ti158  1  0.90856652  0.10226218  0.63132443  1
  Ti  Ti159  1  0.10689746  0.69800517  0.36549392  1
  Mo  Mo160  1  0.00481384  0.00945817  0.24561245  1
  Mo  Mo161  1  0.79108991  0.19060552  0.00229136  1
  Mo  Mo162  1  0.59519401  0.19434123  0.74851614  1
  Mo  Mo163  1  0.60944839  0.18910351  0.25676154  1
  Mo  Mo164  1  0.50279009  0.89195514  0.13473891  1
  Mo  Mo165  1  0.71129707  0.49537777  0.37858487  1
  Mo  Mo166  1  0.50265080  0.50470554  0.61984176  1
  Mo  Mo167  1  0.30207580  0.10593537  0.11765655  1
  Mo  Mo168  1  0.49649744  0.49084783  0.13215367  1
  Mo  Mo169  1  0.18874523  0.21666503  0.25071487  1
  Mo  Mo170  1  0.70672228  0.70085043  0.38654703  1
  Mo  Mo171  1  0.81697156  0.59704629  0.25140602  1
  Mo  Mo172  1  0.19535948  0.20604323  -0.01332175  1
  Mo  Mo173  1  0.89464586  0.50577357  0.62551867  1
  Mo  Mo174  1  0.50366039  0.70190081  0.37677210  1
  Mo  Mo175  1  0.00952345  0.59617955  0.25872898  1
  Mo  Mo176  1  0.40358450  0.00118581  -0.00228343  1
  Mo  Mo177  1  0.59361824  0.39856461  0.49305519  1
  Mo  Mo178  1  0.80047283  0.80050249  0.00364340  1
  Mo  Mo179  1  0.20590686  0.60721367  0.49373406  1
  Mo  Mo180  1  0.09494247  0.89196176  0.62625818  1
  Mo  Mo181  1  0.28198919  0.10446512  0.38575525  1
  Mo  Mo182  1  0.91194432  0.50686452  0.13565714  1
  Mo  Mo183  1  0.19757693  0.59277135  0.25690190  1
  Mo  Mo184  1  0.59457813  0.78942280  0.49168758  1
  Mo  Mo185  1  0.00363598  0.59727147  -0.00131784  1
  Mo  Mo186  1  0.09875160  0.49136274  0.12246556  1
  Mo  Mo187  1  0.09731400  0.50161117  0.62912911  1
  Mo  Mo188  1  0.50016267  0.30254616  0.62345896  1
  Mo  Mo189  1  0.41510032  0.80386366  0.24335176  1
  Mo  Mo190  1  0.19304643  0.59246031  -0.00704540  1
  Mo  Mo191  1  0.89927114  0.69596800  0.14666963  1
  Mo  Mo192  1  0.90555549  0.89637727  0.86743758  1
  Mo  Mo193  1  0.09397771  0.29875430  0.63519432  1
  Mo  Mo194  1  0.40180374  -0.00149733  0.51223797  1
  Mo  Mo195  1  -0.00196414  0.41075688  0.73336207  1
  Mo  Mo196  1  0.00030180  0.19297358  0.75451624  1
  Mo  Mo197  1  0.09438181  0.09767923  0.63072779  1
  Mo  Mo198  1  0.30247098  0.90905237  0.10727129  1
  Mo  Mo199  1  0.78614056  0.79961686  0.26272618  1
