# generated using pymatgen
data_HfZrTaTiMo
_symmetry_space_group_name_H-M   'P 1'
_cell_length_a   15.20006986
_cell_length_b   15.18894302
_cell_length_c   16.78220041
_cell_angle_alpha   89.99740034
_cell_angle_beta   89.94371625
_cell_angle_gamma   90.03122896
_symmetry_Int_Tables_number   1
_chemical_formula_structural   HfZrTaTiMo
_chemical_formula_sum   'Hf40 Zr40 Ta40 Ti40 Mo40'
_cell_volume   3874.55442320
_cell_formula_units_Z   40
loop_
 _symmetry_equiv_pos_site_id
 _symmetry_equiv_pos_as_xyz
  1  'x, y, z'
loop_
 _atom_site_type_symbol
 _atom_site_label
 _atom_site_symmetry_multiplicity
 _atom_site_fract_x
 _atom_site_fract_y
 _atom_site_fract_z
 _atom_site_occupancy
  Hf  Hf0  1  0.30043848  0.48384735  0.88786952  1
  Hf  Hf1  1  0.10097308  0.50021187  0.11739341  1
  Hf  Hf2  1  0.19041580  0.79825756  0.75159894  1
  Hf  Hf3  1  0.90870196  0.29451534  0.86558851  1
  Hf  Hf4  1  0.78351948  0.61018182  0.51214422  1
  Hf  Hf5  1  0.18498793  0.00300672  0.75371451  1
  Hf  Hf6  1  0.78412699  0.80997852  0.74000150  1
  Hf  Hf7  1  0.19631516  0.39233593  0.23467513  1
  Hf  Hf8  1  0.70619721  0.50731952  0.36202023  1
  Hf  Hf9  1  0.19575089  0.60067562  0.76072031  1
  Hf  Hf10  1  0.50556843  0.49573974  0.12435172  1
  Hf  Hf11  1  0.39466446  0.59474390  0.74994539  1
  Hf  Hf12  1  0.69743161  0.70110759  0.87391191  1
  Hf  Hf13  1  0.90183210  0.29808101  0.64296242  1
  Hf  Hf14  1  0.70561772  0.50227533  0.12896534  1
  Hf  Hf15  1  0.09226428  0.70808402  0.38205679  1
  Hf  Hf16  1  0.72214289  0.10127225  0.61874261  1
  Hf  Hf17  1  0.51476657  0.30752383  0.89314284  1
  Hf  Hf18  1  0.60957950  -0.00665983  0.73401637  1
  Hf  Hf19  1  0.39249502  0.79827572  0.26326236  1
  Hf  Hf20  1  0.10871521  0.29868176  0.36809601  1
  Hf  Hf21  1  0.41561767  -0.00953283  -0.00377290  1
  Hf  Hf22  1  0.19843053  0.79200522  0.24754111  1
  Hf  Hf23  1  0.20994570  0.19666920  0.75842375  1
  Hf  Hf24  1  0.09699465  0.09373022  0.35025571  1
  Hf  Hf25  1  -0.00047787  0.39870837  0.49869836  1
  Hf  Hf26  1  0.80792196  0.40629831  0.50437228  1
  Hf  Hf27  1  0.50754360  0.29419518  0.62882165  1
  Hf  Hf28  1  -0.00303001  0.61006483  0.75289163  1
  Hf  Hf29  1  0.50625903  0.50938835  0.88338570  1
  Hf  Hf30  1  0.71124829  0.30712092  0.63707393  1
  Hf  Hf31  1  0.09029563  0.89743970  0.89167517  1
  Hf  Hf32  1  0.28981324  0.69384446  0.61285599  1
  Hf  Hf33  1  0.61224834  -0.00862610  0.49712586  1
  Hf  Hf34  1  0.10175972  0.28413873  0.62139202  1
  Hf  Hf35  1  0.29568002  0.08879906  0.62103386  1
  Hf  Hf36  1  0.60824165  0.19535878  0.75936762  1
  Hf  Hf37  1  0.39694854  0.79607210  0.75186612  1
  Hf  Hf38  1  0.90680103  0.91461144  0.35009576  1
  Hf  Hf39  1  0.80505584  0.61356023  0.00072482  1
  Zr  Zr40  1  0.20883847  0.40123884  0.74728969  1
  Zr  Zr41  1  0.10602377  0.50864584  0.61849488  1
  Zr  Zr42  1  0.67706436  0.91162725  0.87581175  1
  Zr  Zr43  1  0.70079856  0.28813774  0.10336050  1
  Zr  Zr44  1  0.48794188  0.89783977  0.61223383  1
  Zr  Zr45  1  0.00500267  0.60697364  0.25019661  1
  Zr  Zr46  1  0.49897498  0.49387319  0.35901001  1
  Zr  Zr47  1  0.88238560  0.70707110  0.36960885  1
  Zr  Zr48  1  0.29324849  0.89739941  0.88047672  1
  Zr  Zr49  1  0.49895270  0.68973827  0.37737606  1
  Zr  Zr50  1  0.88009200  0.91442461  0.87658195  1
  Zr  Zr51  1  -0.01011289  0.80562779  0.75406387  1
  Zr  Zr52  1  0.40368180  0.38363622  0.49446973  1
  Zr  Zr53  1  0.91958365  0.10347796  0.61986370  1
  Zr  Zr54  1  0.79116849  0.60256342  0.73621238  1
  Zr  Zr55  1  0.40134235  0.19289873  0.00041504  1
  Zr  Zr56  1  0.49485730  0.10538325  0.61025441  1
  Zr  Zr57  1  0.50496639  0.28421674  0.37397059  1
  Zr  Zr58  1  0.31208678  0.28821608  0.62396712  1
  Zr  Zr59  1  -0.00409072  0.39805262  0.00057183  1
  Zr  Zr60  1  -0.01035522  0.82274871  0.49199233  1
  Zr  Zr61  1  0.08439293  0.89227099  0.13484480  1
  Zr  Zr62  1  0.10693936  0.50845873  0.37568735  1
  Zr  Zr63  1  0.09412650  0.69180568  0.11386075  1
  Zr  Zr64  1  0.11918175  0.29987796  0.89034457  1
  Zr  Zr65  1  0.60793455  0.40854429  0.50079947  1
  Zr  Zr66  1  0.79146098  0.81496302  0.01860442  1
  Zr  Zr67  1  -0.00725958  0.20956144  0.24423614  1
  Zr  Zr68  1  0.21243124  0.40274170  0.49921004  1
  Zr  Zr69  1  0.49768432  0.69482758  0.13326297  1
  Zr  Zr70  1  0.09039413  0.10189232  0.90098771  1
  Zr  Zr71  1  0.61090872  0.37748853  0.24600265  1
  Zr  Zr72  1  0.21251086  -0.00128521  0.02664648  1
  Zr  Zr73  1  0.59352766  0.80646938  0.00924801  1
  Zr  Zr74  1  -0.02538020  0.00304412  0.01761325  1
  Zr  Zr75  1  0.09098944  0.71371148  0.60718956  1
  Zr  Zr76  1  0.38816460  0.57919070  0.50451242  1
  Zr  Zr77  1  0.30149855  0.08663914  0.35677855  1
  Zr  Zr78  1  0.40368841  0.00292919  0.76315481  1
  Zr  Zr79  1  0.49683889  0.90522534  0.14297732  1
  Ta  Ta80  1  0.69608935  0.70646564  0.36239616  1
  Ta  Ta81  1  0.29789430  0.69459939  0.88693662  1
  Ta  Ta82  1  0.28727524  0.68204324  0.37861883  1
  Ta  Ta83  1  0.39330574  0.79671509  0.00215317  1
  Ta  Ta84  1  0.89631814  0.49818315  0.36539496  1
  Ta  Ta85  1  0.77344757  0.01758060  0.01609601  1
  Ta  Ta86  1  0.30480316  0.50572031  0.12909618  1
  Ta  Ta87  1  0.39868572  0.38307964  0.23358495  1
  Ta  Ta88  1  0.59533995  0.60643926  0.74137470  1
  Ta  Ta89  1  0.89674577  0.50406416  0.12991048  1
  Ta  Ta90  1  0.69813921  0.49724711  0.87654839  1
  Ta  Ta91  1  0.49935383  0.09843029  0.38638620  1
  Ta  Ta92  1  0.89477641  0.50309134  0.86448937  1
  Ta  Ta93  1  0.29923524  0.69527297  0.12195665  1
  Ta  Ta94  1  0.40744151  0.39206809  0.75724393  1
  Ta  Ta95  1  -0.02069632  0.78871398  -0.00248844  1
  Ta  Ta96  1  0.21472118  0.19413821  0.22526830  1
  Ta  Ta97  1  0.88868740  0.91328938  0.62265970  1
  Ta  Ta98  1  0.39420042  0.79778007  0.48667726  1
  Ta  Ta99  1  0.79053300  0.21741744  0.24878397  1
  Ta  Ta100  1  0.71932241  0.29734871  0.38201298  1
  Ta  Ta101  1  0.30169299  0.49103436  0.35287848  1
  Ta  Ta102  1  0.49951154  0.49408050  0.63327491  1
  Ta  Ta103  1  0.71051085  0.29839315  0.87805059  1
  Ta  Ta104  1  0.52499249  0.10341156  0.12023017  1
  Ta  Ta105  1  -0.00268787  0.20157671  0.48482014  1
  Ta  Ta106  1  0.09088592  0.92038563  0.62215952  1
  Ta  Ta107  1  0.60918015  0.79335216  0.49771534  1
  Ta  Ta108  1  0.80161792  0.40777314  -0.00775981  1
  Ta  Ta109  1  0.40665370  0.20029458  0.77388607  1
  Ta  Ta110  1  0.01341963  0.18876593  0.75626356  1
  Ta  Ta111  1  0.49860650  0.90272470  0.37459257  1
  Ta  Ta112  1  -0.01036838  0.39983245  0.24393809  1
  Ta  Ta113  1  0.70493155  0.89746040  0.36080900  1
  Ta  Ta114  1  0.19026785  -0.00562865  0.49258269  1
  Ta  Ta115  1  0.40037956  0.39842330  0.01389010  1
  Ta  Ta116  1  -0.01785776  0.59689437  0.50008347  1
  Ta  Ta117  1  0.59674077  0.01338381  0.26219365  1
  Ta  Ta118  1  0.49600800  0.69693157  0.61511080  1
  Ta  Ta119  1  0.20123475  0.18671947  0.49112152  1
  Ti  Ti120  1  0.52836477  0.08735873  0.88566030  1
  Ti  Ti121  1  0.79222395  0.01948804  0.24616561  1
  Ti  Ti122  1  0.59921134  0.60490224  0.24758349  1
  Ti  Ti123  1  0.70174235  0.10652575  0.38014453  1
  Ti  Ti124  1  0.28815288  0.89336064  0.62014910  1
  Ti  Ti125  1  0.09402249  0.69841343  0.88860535  1
  Ti  Ti126  1  0.09723402  0.49900548  0.88336545  1
  Ti  Ti127  1  0.50959237  0.29325942  0.11034976  1
  Ti  Ti128  1  0.41890223  0.18747712  0.23648836  1
  Ti  Ti129  1  0.59038501  0.79709022  0.73877337  1
  Ti  Ti130  1  0.70065135  0.71209980  0.14737539  1
  Ti  Ti131  1  0.40132674  0.60284034  -0.00040898  1
  Ti  Ti132  1  0.10704539  0.91003239  0.34992089  1
  Ti  Ti133  1  0.89006170  0.11854280  0.13004345  1
  Ti  Ti134  1  0.09014441  0.29277671  0.11729824  1
  Ti  Ti135  1  0.29445408  0.10351763  0.88542544  1
  Ti  Ti136  1  0.81712096  0.19798307  -0.00682518  1
  Ti  Ti137  1  0.89648128  0.70631721  0.14114991  1
  Ti  Ti138  1  0.21411756  0.38662614  0.01737130  1
  Ti  Ti139  1  0.30695674  0.28569060  0.36293414  1
  Ti  Ti140  1  0.20130054  0.81130572  0.48782203  1
  Ti  Ti141  1  0.81066979  -0.00192836  0.48799810  1
  Ti  Ti142  1  0.60823028  0.40933888  0.75341636  1
  Ti  Ti143  1  0.89600941  0.49563626  0.63774000  1
  Ti  Ti144  1  -0.00974356  0.59850051  -0.00954491  1
  Ti  Ti145  1  0.20375328  0.59493018  -0.00428628  1
  Ti  Ti146  1  0.88626630  0.90518601  0.14547872  1
  Ti  Ti147  1  0.01006905  0.40409986  0.75432605  1
  Ti  Ti148  1  0.89002217  0.11749754  0.37120934  1
  Ti  Ti149  1  0.09475943  0.09606846  0.13345138  1
  Ti  Ti150  1  0.00690396  0.01249502  0.48911236  1
  Ti  Ti151  1  0.61249349  0.20305462  0.50160245  1
  Ti  Ti152  1  0.20979582  0.19633103  0.02722799  1
  Ti  Ti153  1  0.59701070  0.59754635  0.50848211  1
  Ti  Ti154  1  0.60594549  0.60282453  0.00548159  1
  Ti  Ti155  1  0.49930399  0.70955817  0.87795955  1
  Ti  Ti156  1  -0.00959477  0.00577429  0.75615989  1
  Ti  Ti157  1  0.19803422  0.79490299  0.00736414  1
  Ti  Ti158  1  0.88925975  0.71656588  0.61271147  1
  Ti  Ti159  1  0.38413522  -0.00784179  0.48974034  1
  Mo  Mo160  1  0.79486298  0.80652308  0.24119371  1
  Mo  Mo161  1  0.68565140  0.70619332  0.62219281  1
  Mo  Mo162  1  0.78838695  0.81852848  0.49841113  1
  Mo  Mo163  1  0.60664479  0.19077154  0.25632606  1
  Mo  Mo164  1  0.60236486  0.00013498  0.00769411  1
  Mo  Mo165  1  0.79803361  0.60066527  0.24392707  1
  Mo  Mo166  1  0.70342186  0.89897864  0.61431244  1
  Mo  Mo167  1  -0.00128009  0.19874666  0.01647172  1
  Mo  Mo168  1  0.60667262  0.40509080  -0.00150559  1
  Mo  Mo169  1  0.39286379  0.18687304  0.49138156  1
  Mo  Mo170  1  0.80876644  0.19076612  0.76083436  1
  Mo  Mo171  1  0.40511606  0.00013911  0.25338310  1
  Mo  Mo172  1  0.49930713  0.89182336  0.87081289  1
  Mo  Mo173  1  0.80866301  0.39768341  0.24661746  1
  Mo  Mo174  1  0.89453930  0.10391882  0.87652834  1
  Mo  Mo175  1  0.90194954  0.30623693  0.37576425  1
  Mo  Mo176  1  0.30890418  0.49770154  0.63237086  1
  Mo  Mo177  1  0.62057154  0.18379085  -0.01273135  1
  Mo  Mo178  1  -0.00373175  0.80406972  0.25206521  1
  Mo  Mo179  1  0.10450774  0.09987945  0.61796341  1
  Mo  Mo180  1  0.31040365  0.29376002  0.12808587  1
  Mo  Mo181  1  0.30266679  0.88719598  0.12315850  1
  Mo  Mo182  1  0.80641978  0.20224067  0.49380560  1
  Mo  Mo183  1  0.69184575  0.50070279  0.63205909  1
  Mo  Mo184  1  0.70261158  0.10156896  0.13472749  1
  Mo  Mo185  1  0.59817288  0.80420465  0.26128643  1
  Mo  Mo186  1  0.32407567  0.08637655  0.13919048  1
  Mo  Mo187  1  0.20883295  -0.00451447  0.22913856  1
  Mo  Mo188  1  0.69492045  0.91110740  0.14983785  1
  Mo  Mo189  1  0.79987137  0.40270664  0.76202252  1
  Mo  Mo190  1  0.80410131  0.00532418  0.74499830  1
  Mo  Mo191  1  0.20973860  0.59931393  0.24483236  1
  Mo  Mo192  1  0.29330492  0.89227775  0.37682524  1
  Mo  Mo193  1  0.30984155  0.29500554  0.88476943  1
  Mo  Mo194  1  0.39196749  0.59372156  0.24802433  1
  Mo  Mo195  1  0.19400721  0.60020835  0.49593392  1
  Mo  Mo196  1  0.89783278  0.70168246  0.87644213  1
  Mo  Mo197  1  0.71744513  0.10117060  0.87118078  1
  Mo  Mo198  1  0.89461823  0.30973728  0.11715411  1
  Mo  Mo199  1  -0.00933652  0.01159370  0.23535805  1
