# generated using pymatgen
data_HfZrTaTiMo
_symmetry_space_group_name_H-M   'P 1'
_cell_length_a   15.21801359
_cell_length_b   15.21835948
_cell_length_c   16.81927484
_cell_angle_alpha   89.99625831
_cell_angle_beta   89.98730265
_cell_angle_gamma   90.03078623
_symmetry_Int_Tables_number   1
_chemical_formula_structural   HfZrTaTiMo
_chemical_formula_sum   'Hf40 Zr40 Ta40 Ti40 Mo40'
_cell_volume   3895.22904036
_cell_formula_units_Z   40
loop_
 _symmetry_equiv_pos_site_id
 _symmetry_equiv_pos_as_xyz
  1  'x, y, z'
loop_
 _atom_site_type_symbol
 _atom_site_label
 _atom_site_symmetry_multiplicity
 _atom_site_fract_x
 _atom_site_fract_y
 _atom_site_fract_z
 _atom_site_occupancy
  Hf  Hf0  1  0.20556670  0.21038169  0.24604234  1
  Hf  Hf1  1  0.59278425  0.59846823  0.00956703  1
  Hf  Hf2  1  0.18355827  0.58112942  0.49437940  1
  Hf  Hf3  1  0.51108303  0.11197290  0.87622047  1
  Hf  Hf4  1  0.30221139  0.91386424  0.39401390  1
  Hf  Hf5  1  0.90722291  0.50070729  0.13045897  1
  Hf  Hf6  1  0.49288576  0.50346380  0.39512069  1
  Hf  Hf7  1  0.40677080  0.81515867  0.26733943  1
  Hf  Hf8  1  0.30697531  0.89145310  0.86822312  1
  Hf  Hf9  1  0.69389265  0.49460205  0.12276549  1
  Hf  Hf10  1  0.38265311  0.40533768  0.25029406  1
  Hf  Hf11  1  0.61231518  0.41001746  0.72955490  1
  Hf  Hf12  1  0.20265489  0.60546979  0.75505542  1
  Hf  Hf13  1  0.39752727  0.21289016  0.00270840  1
  Hf  Hf14  1  0.50193093  0.32071236  0.88681365  1
  Hf  Hf15  1  0.39855676  0.21096307  0.73973113  1
  Hf  Hf16  1  0.48695048  0.70837098  0.87572462  1
  Hf  Hf17  1  0.29988309  0.68642348  0.10844426  1
  Hf  Hf18  1  0.09039340  0.29541595  0.87052501  1
  Hf  Hf19  1  -0.00895369  0.60749194  0.76207521  1
  Hf  Hf20  1  0.78453143  0.59217195  0.73552142  1
  Hf  Hf21  1  0.70745488  0.09018543  0.62283434  1
  Hf  Hf22  1  0.09722026  0.09596596  0.13313207  1
  Hf  Hf23  1  0.79131322  0.61378951  0.50564624  1
  Hf  Hf24  1  0.30670416  0.69280405  0.39181811  1
  Hf  Hf25  1  0.40422567  0.19650912  0.25252568  1
  Hf  Hf26  1  0.80651416  0.39193631  0.00553625  1
  Hf  Hf27  1  0.79818589  0.18880581  0.27530806  1
  Hf  Hf28  1  0.20268533  0.40588216  -0.00520525  1
  Hf  Hf29  1  0.69277582  0.69115308  0.86426208  1
  Hf  Hf30  1  0.58805790  0.40586722  0.26327621  1
  Hf  Hf31  1  0.40337788  -0.00713201  -0.00614427  1
  Hf  Hf32  1  0.09476972  0.70332927  0.37853325  1
  Hf  Hf33  1  0.50460384  0.51486315  0.87009417  1
  Hf  Hf34  1  0.00298368  0.01021833  0.73049897  1
  Hf  Hf35  1  0.69313445  0.28334953  0.12542971  1
  Hf  Hf36  1  0.29410403  0.09611127  0.87154257  1
  Hf  Hf37  1  0.40722538  0.41020307  0.73637129  1
  Hf  Hf38  1  0.89916081  0.29316411  0.14360256  1
  Hf  Hf39  1  0.20418410  -0.01144514  0.25668905  1
  Zr  Zr40  1  0.19225974  0.19667879  0.00444157  1
  Zr  Zr41  1  0.89582054  0.89848590  0.39363666  1
  Zr  Zr42  1  0.59567819  -0.01000982  0.27375147  1
  Zr  Zr43  1  0.90043032  0.09458997  0.86221293  1
  Zr  Zr44  1  0.71116603  0.89551235  0.13129060  1
  Zr  Zr45  1  0.80763365  -0.02482249  -0.00830918  1
  Zr  Zr46  1  0.51875083  0.10477597  0.12136116  1
  Zr  Zr47  1  0.50271104  0.31725177  0.11892353  1
  Zr  Zr48  1  0.91479363  0.30972429  0.37450380  1
  Zr  Zr49  1  -0.01271388  0.20677713  0.00500639  1
  Zr  Zr50  1  0.89930002  0.49999651  0.62611883  1
  Zr  Zr51  1  0.51867267  0.90717816  0.86303145  1
  Zr  Zr52  1  0.09691143  0.69511119  0.62049801  1
  Zr  Zr53  1  0.69458220  0.28271506  0.87776651  1
  Zr  Zr54  1  0.12029008  0.10168926  0.38361297  1
  Zr  Zr55  1  0.71107315  0.30012089  0.60587705  1
  Zr  Zr56  1  0.29998599  0.89104393  0.61202353  1
  Zr  Zr57  1  0.19357088  0.19359194  0.73630892  1
  Zr  Zr58  1  0.02288764  0.20858373  0.49818643  1
  Zr  Zr59  1  0.60590276  0.81350720  -0.00456113  1
  Zr  Zr60  1  0.90626296  0.30562411  0.61758356  1
  Zr  Zr61  1  0.20101373  0.40306995  0.76295058  1
  Zr  Zr62  1  0.79162371  0.40689357  0.26314098  1
  Zr  Zr63  1  0.29410830  0.89065571  0.12452842  1
  Zr  Zr64  1  0.01113434  -0.00011310  0.00271116  1
  Zr  Zr65  1  -0.00063837  0.80873859  0.74781872  1
  Zr  Zr66  1  -0.01138220  0.80826078  -0.01239852  1
  Zr  Zr67  1  0.60463204  0.18187487  0.48278730  1
  Zr  Zr68  1  0.59804245  0.20195246  0.73679603  1
  Zr  Zr69  1  0.40646322  0.00053767  0.73655988  1
  Zr  Zr70  1  0.78802471  0.17417885  -0.00189605  1
  Zr  Zr71  1  0.70162866  0.48680062  0.88306838  1
  Zr  Zr72  1  0.40628642  0.60573333  0.25062843  1
  Zr  Zr73  1  0.60416662  0.19461101  0.27690041  1
  Zr  Zr74  1  0.09780588  0.70913515  0.11837220  1
  Zr  Zr75  1  -0.00236301  0.60496270  0.25174076  1
  Zr  Zr76  1  0.30759788  0.09279783  0.12452816  1
  Zr  Zr77  1  0.00258520  0.81400200  0.25213768  1
  Zr  Zr78  1  0.28561668  0.49534055  0.61814997  1
  Zr  Zr79  1  0.50291016  0.90367059  0.12733016  1
  Ta  Ta80  1  0.30277607  0.69433782  0.60756156  1
  Ta  Ta81  1  0.89359166  0.30500088  0.86485926  1
  Ta  Ta82  1  0.80207875  0.77736807  -0.01300709  1
  Ta  Ta83  1  0.11216630  0.50693091  0.12026064  1
  Ta  Ta84  1  0.81162407  0.20016157  0.74319155  1
  Ta  Ta85  1  0.60057350  0.60215088  0.25370477  1
  Ta  Ta86  1  0.09655923  0.90738145  0.40083640  1
  Ta  Ta87  1  0.19532858  0.81590698  -0.00419787  1
  Ta  Ta88  1  0.09283987  0.31643635  0.13378424  1
  Ta  Ta89  1  0.51219810  0.70360736  0.39385450  1
  Ta  Ta90  1  0.29749116  0.69947159  0.88866390  1
  Ta  Ta91  1  0.31045999  0.51077912  0.88130017  1
  Ta  Ta92  1  0.39563401  0.01560245  0.51250870  1
  Ta  Ta93  1  0.50671513  0.89532754  0.61106372  1
  Ta  Ta94  1  0.50187846  0.30352441  0.60148016  1
  Ta  Ta95  1  0.80766119  -0.00891482  0.26233515  1
  Ta  Ta96  1  0.39968655  0.78724646  0.73678171  1
  Ta  Ta97  1  0.10781754  0.31294123  0.62622780  1
  Ta  Ta98  1  0.10825760  0.91024082  0.86617765  1
  Ta  Ta99  1  0.91260764  0.08898477  0.39068966  1
  Ta  Ta100  1  0.38168456  0.39268027  0.50665225  1
  Ta  Ta101  1  0.22841669  0.19695925  0.52075191  1
  Ta  Ta102  1  0.10089967  0.09678716  0.86808277  1
  Ta  Ta103  1  -0.01382960  0.60074178  0.49321348  1
  Ta  Ta104  1  0.19538309  -0.00815592  0.72855481  1
  Ta  Ta105  1  0.20631876  0.59022895  0.25351704  1
  Ta  Ta106  1  0.78712996  0.61082731  0.25877933  1
  Ta  Ta107  1  0.48761990  0.30050749  0.39333983  1
  Ta  Ta108  1  0.88677653  0.70202374  0.12358430  1
  Ta  Ta109  1  0.59733322  0.79503715  0.73283190  1
  Ta  Ta110  1  0.28644951  0.48265699  0.38319242  1
  Ta  Ta111  1  -0.01465451  0.60398463  -0.00833854  1
  Ta  Ta112  1  0.10314556  0.70641278  0.88103273  1
  Ta  Ta113  1  0.69998989  0.69728468  0.12482205  1
  Ta  Ta114  1  0.90085193  0.10487188  0.61122050  1
  Ta  Ta115  1  0.79587456  0.41988510  0.48652328  1
  Ta  Ta116  1  0.60399826  0.78614865  0.26000694  1
  Ta  Ta117  1  0.89409323  0.09015585  0.13963208  1
  Ta  Ta118  1  0.80527373  0.79271574  0.73670776  1
  Ta  Ta119  1  0.20350231  0.79739551  0.74559824  1
  Ti  Ti120  1  -0.00720263  0.79562471  0.51274001  1
  Ti  Ti121  1  0.40644417  0.43141303  0.01474362  1
  Ti  Ti122  1  0.20076896  0.79235902  0.25836305  1
  Ti  Ti123  1  0.70010708  0.88172669  0.38508719  1
  Ti  Ti124  1  0.00098759  0.40472691  -0.00289008  1
  Ti  Ti125  1  0.88940082  0.70616123  0.37829037  1
  Ti  Ti126  1  0.71622814  0.89549062  0.84990011  1
  Ti  Ti127  1  0.61067466  0.78917209  0.50831494  1
  Ti  Ti128  1  0.79742239  0.79594197  0.25494497  1
  Ti  Ti129  1  0.09853838  0.50718601  0.88245496  1
  Ti  Ti130  1  0.00212797  0.00079993  0.25737557  1
  Ti  Ti131  1  0.69280085  0.31645402  0.39096342  1
  Ti  Ti132  1  0.89709617  0.50922676  0.37038225  1
  Ti  Ti133  1  0.00912036  0.41537650  0.49593847  1
  Ti  Ti134  1  0.61959245  0.01492485  -0.00573225  1
  Ti  Ti135  1  0.70614408  0.08838428  0.13713668  1
  Ti  Ti136  1  0.69929970  0.90169765  0.62945004  1
  Ti  Ti137  1  0.19385722  0.79901736  0.50098626  1
  Ti  Ti138  1  0.79575515  0.80011968  0.51849603  1
  Ti  Ti139  1  0.90747514  0.89743542  0.13031515  1
  Ti  Ti140  1  0.09112247  0.49260492  0.36274811  1
  Ti  Ti141  1  0.11542325  0.31395418  0.36969018  1
  Ti  Ti142  1  0.58478519  0.60240013  0.72109512  1
  Ti  Ti143  1  0.08957220  0.49709604  0.63032230  1
  Ti  Ti144  1  0.69964873  0.08068547  0.84612826  1
  Ti  Ti145  1  0.89343223  0.50004118  0.87470012  1
  Ti  Ti146  1  0.29120745  0.31462826  0.12228439  1
  Ti  Ti147  1  0.00424464  0.19753838  0.26019328  1
  Ti  Ti148  1  -0.00698696  0.39866424  0.75401953  1
  Ti  Ti149  1  0.39701250  0.60425642  0.73871798  1
  Ti  Ti150  1  0.29888654  0.28763075  0.38315845  1
  Ti  Ti151  1  0.47635469  0.08481333  0.38103597  1
  Ti  Ti152  1  0.89554335  0.90838841  0.61532846  1
  Ti  Ti153  1  0.30379586  0.30604558  0.87646438  1
  Ti  Ti154  1  0.48980099  0.69810816  0.60379994  1
  Ti  Ti155  1  0.60505027  0.58954179  0.51346399  1
  Ti  Ti156  1  0.49849967  0.70858340  0.12175770  1
  Ti  Ti157  1  0.60415718  -0.01227302  0.49074968  1
  Ti  Ti158  1  0.80614505  0.19594508  0.48287456  1
  Ti  Ti159  1  0.50788922  0.09643977  0.61758843  1
  Mo  Mo160  1  0.72047309  0.07246334  0.38585989  1
  Mo  Mo161  1  -0.00187851  0.20758921  0.74145397  1
  Mo  Mo162  1  0.40695072  0.19712399  0.50572442  1
  Mo  Mo163  1  0.18986551  0.60082598  -0.01169351  1
  Mo  Mo164  1  0.39931767  0.60508472  0.00212397  1
  Mo  Mo165  1  0.19663103  -0.00264248  -0.00818747  1
  Mo  Mo166  1  0.89714586  0.70766524  0.62032292  1
  Mo  Mo167  1  0.30380386  0.10623171  0.37948674  1
  Mo  Mo168  1  0.69402031  0.51065714  0.37913070  1
  Mo  Mo169  1  0.49345348  0.51903247  0.13260654  1
  Mo  Mo170  1  0.69948545  0.70284439  0.37890356  1
  Mo  Mo171  1  0.80395745  0.59859932  0.00213622  1
  Mo  Mo172  1  0.40123028  0.79970428  -0.00082514  1
  Mo  Mo173  1  0.00795150  0.40114500  0.24964902  1
  Mo  Mo174  1  0.09752079  0.89794460  0.60808486  1
  Mo  Mo175  1  0.50358089  0.89424749  0.40036475  1
  Mo  Mo176  1  0.10084324  0.10337737  0.61644958  1
  Mo  Mo177  1  0.39634889  0.59507907  0.49943976  1
  Mo  Mo178  1  0.40733413  0.80135411  0.49725178  1
  Mo  Mo179  1  0.80499297  0.39489139  0.75320459  1
  Mo  Mo180  1  0.30857551  0.09725867  0.63424174  1
  Mo  Mo181  1  0.69711021  0.49664862  0.61704679  1
  Mo  Mo182  1  0.89108160  0.69207474  0.87028889  1
  Mo  Mo183  1  0.19690561  0.40571622  0.24741267  1
  Mo  Mo184  1  0.29438465  0.50124482  0.12114759  1
  Mo  Mo185  1  0.59830427  0.40155837  0.49922435  1
  Mo  Mo186  1  0.49338704  0.50513993  0.60732850  1
  Mo  Mo187  1  0.59533048  0.39883281  0.00604101  1
  Mo  Mo188  1  0.18402826  0.38382413  0.49738889  1
  Mo  Mo189  1  0.10088343  0.90172586  0.13026630  1
  Mo  Mo190  1  0.79570683  -0.00251639  0.50478496  1
  Mo  Mo191  1  0.59889238  0.19096656  -0.00086832  1
  Mo  Mo192  1  0.89843026  0.89315511  0.85947060  1
  Mo  Mo193  1  0.60496560  -0.00843194  0.73697198  1
  Mo  Mo194  1  0.40069681  0.00079979  0.26117736  1
  Mo  Mo195  1  0.19600850  0.00602463  0.51829444  1
  Mo  Mo196  1  0.68923072  0.70565031  0.62892933  1
  Mo  Mo197  1  0.00184449  0.00025394  0.51601370  1
  Mo  Mo198  1  0.80668272  -0.01047133  0.74009761  1
  Mo  Mo199  1  0.30279484  0.30210531  0.62664149  1
