# generated using pymatgen
data_HfZrTaTiMo
_symmetry_space_group_name_H-M   'P 1'
_cell_length_a   15.19986957
_cell_length_b   15.21718249
_cell_length_c   16.83914574
_cell_angle_alpha   90.00475513
_cell_angle_beta   89.98993968
_cell_angle_gamma   89.96000138
_symmetry_Int_Tables_number   1
_chemical_formula_structural   HfZrTaTiMo
_chemical_formula_sum   'Hf40 Zr40 Ta40 Ti40 Mo40'
_cell_volume   3894.87973108
_cell_formula_units_Z   40
loop_
 _symmetry_equiv_pos_site_id
 _symmetry_equiv_pos_as_xyz
  1  'x, y, z'
loop_
 _atom_site_type_symbol
 _atom_site_label
 _atom_site_symmetry_multiplicity
 _atom_site_fract_x
 _atom_site_fract_y
 _atom_site_fract_z
 _atom_site_occupancy
  Hf  Hf0  1  0.80908790  0.58576310  0.50331939  1
  Hf  Hf1  1  0.71080963  0.90716606  0.87471085  1
  Hf  Hf2  1  0.59997717  0.20201448  0.48099631  1
  Hf  Hf3  1  0.90552471  0.49335457  0.63103547  1
  Hf  Hf4  1  0.29232723  0.10444382  0.87711365  1
  Hf  Hf5  1  0.09135468  0.08131036  0.87584422  1
  Hf  Hf6  1  0.59721749  0.00622837  0.75649627  1
  Hf  Hf7  1  -0.00442764  0.18165808  0.00987501  1
  Hf  Hf8  1  0.88740013  0.29529824  0.88391547  1
  Hf  Hf9  1  0.09972680  0.70055704  0.38723407  1
  Hf  Hf10  1  0.50277758  0.90824102  0.11961031  1
  Hf  Hf11  1  0.79772938  0.60042719  -0.00332368  1
  Hf  Hf12  1  0.40612423  0.20699874  0.00726608  1
  Hf  Hf13  1  0.51388770  0.11136969  0.14363251  1
  Hf  Hf14  1  0.00180112  0.00186396  0.73131859  1
  Hf  Hf15  1  0.29440303  0.90385075  0.87066411  1
  Hf  Hf16  1  0.20646698  0.80850613  0.49918314  1
  Hf  Hf17  1  0.91588606  0.49023560  0.11753411  1
  Hf  Hf18  1  0.89187372  0.68880626  0.38000871  1
  Hf  Hf19  1  0.29792059  0.68522646  0.11526548  1
  Hf  Hf20  1  0.09328191  0.70425125  0.61430413  1
  Hf  Hf21  1  0.18833350  0.79720290  0.00394936  1
  Hf  Hf22  1  0.30191856  0.29444582  0.60987690  1
  Hf  Hf23  1  0.19578939  0.19784622  0.74612538  1
  Hf  Hf24  1  0.08934434  0.30929684  0.11380899  1
  Hf  Hf25  1  0.70014698  0.70099928  0.63371977  1
  Hf  Hf26  1  0.69179575  0.48094106  0.87858162  1
  Hf  Hf27  1  0.09988495  0.30858650  0.60674422  1
  Hf  Hf28  1  -0.00628681  0.20178823  0.74868395  1
  Hf  Hf29  1  0.77741657  0.19092693  0.01129615  1
  Hf  Hf30  1  0.91038809  0.90414364  0.86479262  1
  Hf  Hf31  1  0.60791856  0.02230884  -0.00546642  1
  Hf  Hf32  1  0.38770025  0.41251466  0.25887736  1
  Hf  Hf33  1  0.60396406  0.21342819  0.74678881  1
  Hf  Hf34  1  0.70609566  0.50307824  0.37749831  1
  Hf  Hf35  1  0.09264923  0.69814293  0.13286196  1
  Hf  Hf36  1  0.90237919  0.49258249  0.88025255  1
  Hf  Hf37  1  0.70882188  0.10430473  0.61187270  1
  Hf  Hf38  1  0.59378107  0.59379067  0.00303539  1
  Hf  Hf39  1  0.79760432  0.58947786  0.75505511  1
  Zr  Zr40  1  0.17683387  0.00302842  0.01797503  1
  Zr  Zr41  1  0.50267807  0.09346356  0.61822775  1
  Zr  Zr42  1  0.19110166  0.41083879  0.24349658  1
  Zr  Zr43  1  0.59617622  0.79222658  0.24189810  1
  Zr  Zr44  1  0.31341904  0.29972298  0.87729694  1
  Zr  Zr45  1  0.60692526  0.43658566  0.23782082  1
  Zr  Zr46  1  0.42235725  0.60220391  0.24044183  1
  Zr  Zr47  1  0.08993238  0.11943318  0.38267420  1
  Zr  Zr48  1  0.28816738  0.70349875  0.86901309  1
  Zr  Zr49  1  0.39414950  0.00478774  0.00435404  1
  Zr  Zr50  1  0.69500074  0.28170778  0.15261270  1
  Zr  Zr51  1  0.31136808  0.50143087  0.88677229  1
  Zr  Zr52  1  -0.00538417  0.80708773  0.25351852  1
  Zr  Zr53  1  0.49873826  0.69512676  0.86612627  1
  Zr  Zr54  1  0.19386917  0.80381302  0.25046225  1
  Zr  Zr55  1  0.50669123  0.30624848  0.35820262  1
  Zr  Zr56  1  0.69059621  0.88695903  0.38619585  1
  Zr  Zr57  1  0.79429922  0.79375737  0.24713462  1
  Zr  Zr58  1  -0.01298456  0.40758029  0.47933438  1
  Zr  Zr59  1  0.31027480  0.10036141  0.62697537  1
  Zr  Zr60  1  0.89515147  0.29149326  0.61904705  1
  Zr  Zr61  1  0.27277623  0.29874760  0.38372508  1
  Zr  Zr62  1  0.69609909  0.90296691  0.62302800  1
  Zr  Zr63  1  0.00441806  0.58003256  0.25965091  1
  Zr  Zr64  1  0.40297910  0.79446454  0.00394164  1
  Zr  Zr65  1  0.00324439  0.62176837  -0.00899719  1
  Zr  Zr66  1  0.19191735  0.60143911  0.74733135  1
  Zr  Zr67  1  0.41184759  0.61363427  0.51766471  1
  Zr  Zr68  1  0.20010399  0.40056616  0.75164977  1
  Zr  Zr69  1  0.40672107  0.40143351  0.49290869  1
  Zr  Zr70  1  0.90325409  0.70117990  0.63113650  1
  Zr  Zr71  1  0.89632701  0.90613046  0.38537511  1
  Zr  Zr72  1  0.40624382  0.59121501  0.73490155  1
  Zr  Zr73  1  0.70695398  0.91320810  0.11762361  1
  Zr  Zr74  1  0.48919263  0.30661567  0.14550935  1
  Zr  Zr75  1  0.39791966  0.80039444  0.23869777  1
  Zr  Zr76  1  0.09856407  0.29412975  0.89140944  1
  Zr  Zr77  1  0.81304101  0.79896352  0.00196623  1
  Zr  Zr78  1  0.29618161  0.89971434  0.37057646  1
  Zr  Zr79  1  -0.01408032  0.00890417  0.51568471  1
  Ta  Ta80  1  0.41078497  0.39370375  0.73752683  1
  Ta  Ta81  1  0.20027018  -0.00695897  0.73993598  1
  Ta  Ta82  1  0.30890632  0.69418283  0.37756156  1
  Ta  Ta83  1  0.71193901  0.29636907  0.36054575  1
  Ta  Ta84  1  0.31249915  0.49337036  0.10810071  1
  Ta  Ta85  1  0.00390333  0.40344461  0.75418977  1
  Ta  Ta86  1  0.50276132  0.90199331  0.87843238  1
  Ta  Ta87  1  0.21033407  0.01425040  0.49914415  1
  Ta  Ta88  1  0.21373503  0.59685520  0.25508383  1
  Ta  Ta89  1  0.90619295  0.27416818  0.36657087  1
  Ta  Ta90  1  0.70157488  0.70411965  0.86400719  1
  Ta  Ta91  1  0.60475479  0.40592821  0.49726545  1
  Ta  Ta92  1  0.79145334  0.58879774  0.24001377  1
  Ta  Ta93  1  0.79215186  0.38480466  0.74977913  1
  Ta  Ta94  1  0.50183189  0.29690997  0.61247587  1
  Ta  Ta95  1  0.69798471  0.30127092  0.61365177  1
  Ta  Ta96  1  0.20828659  0.39315235  0.00259552  1
  Ta  Ta97  1  0.10351923  0.50018465  0.89205525  1
  Ta  Ta98  1  0.30926855  0.90463665  0.62407301  1
  Ta  Ta99  1  0.50261139  0.71117792  0.38074402  1
  Ta  Ta100  1  0.59709994  0.40383121  0.73954696  1
  Ta  Ta101  1  0.18215994  0.20329635  0.24324251  1
  Ta  Ta102  1  0.50922554  0.52247104  0.37968808  1
  Ta  Ta103  1  0.40039670  0.00281633  0.25869390  1
  Ta  Ta104  1  0.88910864  0.09333485  0.87754855  1
  Ta  Ta105  1  0.29437353  0.49556336  0.61622172  1
  Ta  Ta106  1  0.40901764  -0.01615737  0.48588090  1
  Ta  Ta107  1  0.79998666  0.00344583  0.25202995  1
  Ta  Ta108  1  0.29885950  0.71191484  0.63059280  1
  Ta  Ta109  1  0.09580493  0.50507083  0.61190457  1
  Ta  Ta110  1  0.71555673  0.09420579  0.38083770  1
  Ta  Ta111  1  0.70190771  0.49023389  0.62181145  1
  Ta  Ta112  1  0.60598743  0.79800018  -0.00463955  1
  Ta  Ta113  1  0.70127651  0.11732794  0.87078591  1
  Ta  Ta114  1  0.90375133  0.71299464  0.85492198  1
  Ta  Ta115  1  0.29682168  0.10701170  0.13758706  1
  Ta  Ta116  1  0.00033822  0.01263854  0.24861235  1
  Ta  Ta117  1  0.39436954  0.17781478  0.47537295  1
  Ta  Ta118  1  0.51758577  0.30715181  0.88050124  1
  Ta  Ta119  1  0.57183422  0.80019235  0.51574776  1
  Ti  Ti120  1  0.59415749  -0.00329395  0.48963201  1
  Ti  Ti121  1  0.79619144  0.38467381  0.48824906  1
  Ti  Ti122  1  0.38702111  0.19348872  0.26794802  1
  Ti  Ti123  1  0.40376250  0.00118670  0.75689756  1
  Ti  Ti124  1  0.60168639  0.38846787  0.01821926  1
  Ti  Ti125  1  0.80209159  0.00444847  0.74231699  1
  Ti  Ti126  1  0.89793061  0.29276479  0.13117796  1
  Ti  Ti127  1  0.69449665  0.69137259  0.12123695  1
  Ti  Ti128  1  0.00457964  0.38449043  0.26574024  1
  Ti  Ti129  1  0.30373482  0.51080072  0.38641090  1
  Ti  Ti130  1  0.40301857  0.80885387  0.74539067  1
  Ti  Ti131  1  0.89714038  0.69652634  0.13080216  1
  Ti  Ti132  1  0.79374207  0.39339974  0.01376859  1
  Ti  Ti133  1  0.19300902  0.00775145  0.24777531  1
  Ti  Ti134  1  0.10392117  0.89660421  0.62041424  1
  Ti  Ti135  1  0.10298881  0.10933371  0.61333416  1
  Ti  Ti136  1  0.88804486  0.09464546  0.12827584  1
  Ti  Ti137  1  0.09301620  0.91001489  0.38603246  1
  Ti  Ti138  1  0.11480984  0.50850003  0.10375676  1
  Ti  Ti139  1  0.89703477  0.88942639  0.62787128  1
  Ti  Ti140  1  0.29465106  0.29832822  0.12629697  1
  Ti  Ti141  1  0.79756463  0.19588097  0.74734966  1
  Ti  Ti142  1  0.49799147  0.49012351  0.87898318  1
  Ti  Ti143  1  0.49826558  0.11072825  0.87680559  1
  Ti  Ti144  1  0.29102308  0.90670176  0.13147488  1
  Ti  Ti145  1  0.60106763  -0.00143177  0.26412919  1
  Ti  Ti146  1  0.40973515  0.20319658  0.75165701  1
  Ti  Ti147  1  0.59533905  0.80481480  0.74856517  1
  Ti  Ti148  1  0.68881757  0.69290955  0.38420005  1
  Ti  Ti149  1  0.11219736  0.49706403  0.38734636  1
  Ti  Ti150  1  0.10053832  0.88079068  0.85904378  1
  Ti  Ti151  1  0.90939363  0.90701246  0.12465879  1
  Ti  Ti152  1  0.00413404  0.81773709  0.00246381  1
  Ti  Ti153  1  0.79845058  0.79893099  0.50404185  1
  Ti  Ti154  1  0.81512112  0.39976568  0.24982512  1
  Ti  Ti155  1  0.60102298  0.60277870  0.51423710  1
  Ti  Ti156  1  0.59800685  0.59191906  0.74386252  1
  Ti  Ti157  1  0.20510593  0.60060078  0.50405744  1
  Ti  Ti158  1  0.00668222  0.59800263  0.76042079  1
  Ti  Ti159  1  0.81888542  0.18579834  0.49379247  1
  Mo  Mo160  1  0.49138802  0.90139805  0.63323874  1
  Mo  Mo161  1  -0.00500947  0.80448795  0.49932144  1
  Mo  Mo162  1  0.89612471  0.09625428  0.63079267  1
  Mo  Mo163  1  0.19923435  0.59929209  -0.00368633  1
  Mo  Mo164  1  0.40395394  0.59452507  -0.00113078  1
  Mo  Mo165  1  0.00745529  0.80032411  0.74438441  1
  Mo  Mo166  1  0.29305773  0.09721840  0.36340210  1
  Mo  Mo167  1  0.89323589  0.48789243  0.36400538  1
  Mo  Mo168  1  0.00434434  0.59933586  0.49101326  1
  Mo  Mo169  1  0.50219189  0.09066228  0.36783516  1
  Mo  Mo170  1  0.69706010  0.08958680  0.13900233  1
  Mo  Mo171  1  0.50938071  0.49244140  0.62112218  1
  Mo  Mo172  1  0.50631005  0.70432009  0.11003205  1
  Mo  Mo173  1  0.39781392  0.80187467  0.50544270  1
  Mo  Mo174  1  0.81162068  0.00662747  -0.00148378  1
  Mo  Mo175  1  0.50380560  0.70512830  0.64199680  1
  Mo  Mo176  1  0.60479525  0.18394765  0.27493263  1
  Mo  Mo177  1  -0.01451773  -0.00795052  0.00508146  1
  Mo  Mo178  1  0.49930480  0.89377250  0.37290508  1
  Mo  Mo179  1  0.59562305  0.20707282  0.00126622  1
  Mo  Mo180  1  -0.00422722  0.20084753  0.23567993  1
  Mo  Mo181  1  0.69814892  0.30447675  0.87882958  1
  Mo  Mo182  1  0.20095508  0.19728709  0.50227040  1
  Mo  Mo183  1  0.79530724  0.80451771  0.75215581  1
  Mo  Mo184  1  0.79087350  -0.00382036  0.50619879  1
  Mo  Mo185  1  0.41673070  0.40060290  0.00428058  1
  Mo  Mo186  1  0.09365513  0.90630914  0.13353228  1
  Mo  Mo187  1  0.09285876  0.70701020  0.86845537  1
  Mo  Mo188  1  0.20635266  0.19851996  0.02032167  1
  Mo  Mo189  1  0.61161196  0.61443879  0.24737844  1
  Mo  Mo190  1  0.09227565  0.10281142  0.13498682  1
  Mo  Mo191  1  0.20214103  0.80809688  0.73611851  1
  Mo  Mo192  1  0.89719874  0.09601417  0.37062187  1
  Mo  Mo193  1  0.80817011  0.19004584  0.25035381  1
  Mo  Mo194  1  -0.00454429  0.40078811  -0.00113223  1
  Mo  Mo195  1  0.20016721  0.41238099  0.50022507  1
  Mo  Mo196  1  0.50022030  0.50566424  0.11496398  1
  Mo  Mo197  1  0.71293216  0.49779403  0.11614073  1
  Mo  Mo198  1  0.09413997  0.30502331  0.37911634  1
  Mo  Mo199  1  -0.00259951  0.20210959  0.50320188  1
