# generated using pymatgen
data_HfZrTaTiMo
_symmetry_space_group_name_H-M   'P 1'
_cell_length_a   15.17346929
_cell_length_b   15.17303740
_cell_length_c   16.83614382
_cell_angle_alpha   90.05724748
_cell_angle_beta   89.97848895
_cell_angle_gamma   90.00749340
_symmetry_Int_Tables_number   1
_chemical_formula_structural   HfZrTaTiMo
_chemical_formula_sum   'Hf40 Zr40 Ta40 Ti40 Mo40'
_cell_volume   3876.14303179
_cell_formula_units_Z   40
loop_
 _symmetry_equiv_pos_site_id
 _symmetry_equiv_pos_as_xyz
  1  'x, y, z'
loop_
 _atom_site_type_symbol
 _atom_site_label
 _atom_site_symmetry_multiplicity
 _atom_site_fract_x
 _atom_site_fract_y
 _atom_site_fract_z
 _atom_site_occupancy
  Hf  Hf0  1  0.38039778  0.81087906  -0.00300007  1
  Hf  Hf1  1  0.80585266  -0.00049041  0.75038807  1
  Hf  Hf2  1  0.11183288  0.89067096  0.14020635  1
  Hf  Hf3  1  0.49100631  0.48756534  0.86271846  1
  Hf  Hf4  1  0.79961467  0.81398301  0.25824862  1
  Hf  Hf5  1  0.00147732  0.00909030  0.01173947  1
  Hf  Hf6  1  0.49387978  0.10810838  0.61464730  1
  Hf  Hf7  1  0.90087637  0.70507063  0.12859110  1
  Hf  Hf8  1  0.77385046  0.00515563  0.00118228  1
  Hf  Hf9  1  0.29876535  0.30476558  0.36516925  1
  Hf  Hf10  1  0.69776750  0.68390960  0.62293419  1
  Hf  Hf11  1  0.89138224  0.90341536  0.12236708  1
  Hf  Hf12  1  0.49218391  0.92205110  0.13023934  1
  Hf  Hf13  1  0.70274040  0.69000359  0.86829285  1
  Hf  Hf14  1  0.50831441  0.29001142  0.88809667  1
  Hf  Hf15  1  0.59590024  0.81123172  0.24689618  1
  Hf  Hf16  1  0.69391778  0.89947709  0.38882982  1
  Hf  Hf17  1  0.87551083  0.11184763  0.13777002  1
  Hf  Hf18  1  0.80808033  0.19414682  0.49704502  1
  Hf  Hf19  1  0.80381827  0.79301582  -0.01213689  1
  Hf  Hf20  1  -0.00355419  0.81129031  0.73759425  1
  Hf  Hf21  1  0.29029258  0.08997017  0.62130434  1
  Hf  Hf22  1  0.10232960  0.10155271  0.88025246  1
  Hf  Hf23  1  -0.00746796  0.40376562  0.74036334  1
  Hf  Hf24  1  0.79829116  0.79932726  0.75104190  1
  Hf  Hf25  1  0.80627705  0.20371096  0.74094815  1
  Hf  Hf26  1  0.71125437  0.09338473  0.36768842  1
  Hf  Hf27  1  0.49725154  0.69908538  0.37599781  1
  Hf  Hf28  1  0.60409011  0.58203195  -0.01338879  1
  Hf  Hf29  1  0.48742632  0.70325560  0.86647593  1
  Hf  Hf30  1  0.58363743  0.80347052  0.73396197  1
  Hf  Hf31  1  0.89956343  0.70283836  0.61332398  1
  Hf  Hf32  1  0.49190709  0.50491256  0.12051799  1
  Hf  Hf33  1  0.19160341  -0.00119410  0.48271507  1
  Hf  Hf34  1  0.09631596  0.68345814  0.13394036  1
  Hf  Hf35  1  0.81335961  0.38807099  0.24563194  1
  Hf  Hf36  1  0.09361613  0.29445737  0.87664249  1
  Hf  Hf37  1  0.90562976  0.71354944  0.38586692  1
  Hf  Hf38  1  0.20615137  0.40945620  -0.00720492  1
  Hf  Hf39  1  0.79806088  0.40694422  0.50424884  1
  Zr  Zr40  1  0.69308600  0.49705965  0.13181936  1
  Zr  Zr41  1  0.00339605  0.01575026  0.74641462  1
  Zr  Zr42  1  0.01602291  0.60194548  0.49845272  1
  Zr  Zr43  1  0.60062019  0.00188848  0.73305355  1
  Zr  Zr44  1  0.19480142  0.79390000  0.49289155  1
  Zr  Zr45  1  0.78604699  0.40744520  0.00491375  1
  Zr  Zr46  1  0.90429727  0.90555165  0.88368296  1
  Zr  Zr47  1  0.39757870  -0.01586258  0.73931194  1
  Zr  Zr48  1  0.90584943  0.51781422  0.12641822  1
  Zr  Zr49  1  0.08722916  0.50535749  0.86902357  1
  Zr  Zr50  1  0.11271779  0.90141163  0.86902995  1
  Zr  Zr51  1  0.31189903  0.28632898  0.88237093  1
  Zr  Zr52  1  0.67077147  0.08935259  0.14896673  1
  Zr  Zr53  1  0.29376978  0.70594949  0.12809021  1
  Zr  Zr54  1  0.20184381  0.20361245  0.49053651  1
  Zr  Zr55  1  0.78870264  0.40344639  0.73820080  1
  Zr  Zr56  1  0.49303641  0.69962597  0.12531284  1
  Zr  Zr57  1  -0.01043429  0.21722397  0.24562113  1
  Zr  Zr58  1  0.21144185  0.39461378  0.75832236  1
  Zr  Zr59  1  0.20551288  0.18761113  0.00782202  1
  Zr  Zr60  1  0.41444922  0.18487161  0.25729271  1
  Zr  Zr61  1  0.60485904  0.39532387  0.25613770  1
  Zr  Zr62  1  0.31729786  0.49379619  0.63733201  1
  Zr  Zr63  1  -0.00101981  0.41025627  0.00848115  1
  Zr  Zr64  1  0.39911810  0.41074806  0.24893528  1
  Zr  Zr65  1  0.59445896  0.81487326  0.00038286  1
  Zr  Zr66  1  0.10870832  0.10012317  0.14634759  1
  Zr  Zr67  1  0.89697043  0.30568332  0.87699870  1
  Zr  Zr68  1  0.90749595  0.30800291  0.38099199  1
  Zr  Zr69  1  0.21583263  -0.02001197  0.00623585  1
  Zr  Zr70  1  0.70513864  0.10694469  0.61778284  1
  Zr  Zr71  1  0.01146799  0.19903627  0.49364055  1
  Zr  Zr72  1  0.70138747  0.69915531  0.12213355  1
  Zr  Zr73  1  0.49967988  0.08927704  0.87113141  1
  Zr  Zr74  1  0.52289181  0.29170271  0.11588823  1
  Zr  Zr75  1  0.39592343  0.79415815  0.51464665  1
  Zr  Zr76  1  0.31065610  0.29010928  0.12610325  1
  Zr  Zr77  1  0.21756640  0.61191460  0.76588782  1
  Zr  Zr78  1  0.08605136  0.90178329  0.36466054  1
  Zr  Zr79  1  0.80105699  0.60102306  0.26933019  1
  Ta  Ta80  1  0.67841416  0.90787610  0.86881421  1
  Ta  Ta81  1  0.59658175  -0.00365088  0.50897971  1
  Ta  Ta82  1  0.10855761  0.31370579  0.35851812  1
  Ta  Ta83  1  0.09516604  0.71343671  0.86763403  1
  Ta  Ta84  1  0.20668694  0.40905269  0.50486797  1
  Ta  Ta85  1  0.49825223  0.89624477  0.38604354  1
  Ta  Ta86  1  0.90127439  0.50586115  0.61735028  1
  Ta  Ta87  1  0.28787842  0.50564287  0.11904373  1
  Ta  Ta88  1  0.30749366  0.29216600  0.62456303  1
  Ta  Ta89  1  0.19434252  0.61378826  -0.01501639  1
  Ta  Ta90  1  0.39752223  0.58435033  0.49891959  1
  Ta  Ta91  1  0.70892066  0.89737531  0.61370556  1
  Ta  Ta92  1  -0.00668438  0.60751268  0.74714739  1
  Ta  Ta93  1  0.39916289  0.19956400  0.74718535  1
  Ta  Ta94  1  0.00065868  0.82264738  0.51152046  1
  Ta  Ta95  1  0.59872658  0.21063271  0.74463883  1
  Ta  Ta96  1  0.29667362  0.68032824  0.38064785  1
  Ta  Ta97  1  0.39873563  0.19712419  0.48860682  1
  Ta  Ta98  1  0.50530507  0.29921268  0.38168913  1
  Ta  Ta99  1  0.89862907  0.11418642  0.88557644  1
  Ta  Ta100  1  0.10643793  0.70592145  0.63227498  1
  Ta  Ta101  1  0.21362693  0.79322065  0.26606573  1
  Ta  Ta102  1  0.01882285  0.42916813  0.24405767  1
  Ta  Ta103  1  0.38103310  0.78535824  0.73438480  1
  Ta  Ta104  1  0.38377908  0.59685435  -0.01353786  1
  Ta  Ta105  1  -0.00487136  0.20861220  0.02014473  1
  Ta  Ta106  1  0.19610322  0.58056384  0.25407923  1
  Ta  Ta107  1  0.31478428  0.07850401  0.13568570  1
  Ta  Ta108  1  0.70096757  0.11047330  0.86973132  1
  Ta  Ta109  1  0.80349101  0.59405653  0.74477571  1
  Ta  Ta110  1  0.51126381  0.49274610  0.62908812  1
  Ta  Ta111  1  0.10826365  0.50905984  0.63067454  1
  Ta  Ta112  1  0.11061358  0.31475208  0.13594723  1
  Ta  Ta113  1  0.50926336  0.09395585  0.38510627  1
  Ta  Ta114  1  0.20133132  0.18883883  0.75021713  1
  Ta  Ta115  1  0.69913779  0.29621461  0.37864630  1
  Ta  Ta116  1  0.69548584  0.30119662  0.87651436  1
  Ta  Ta117  1  0.59700366  0.59134042  0.49862317  1
  Ta  Ta118  1  0.38969228  -0.00401550  0.49212091  1
  Ta  Ta119  1  0.59599922  0.79263621  0.51425708  1
  Ti  Ti120  1  0.00103482  0.20470221  0.74311266  1
  Ti  Ti121  1  0.40574176  0.00643714  -0.00819926  1
  Ti  Ti122  1  0.49428836  0.49987407  0.37640981  1
  Ti  Ti123  1  0.69767805  0.49756020  0.37611664  1
  Ti  Ti124  1  0.49482882  0.30378226  0.61891858  1
  Ti  Ti125  1  0.40528584  0.40103122  0.00229992  1
  Ti  Ti126  1  0.60637012  0.18035475  0.00213795  1
  Ti  Ti127  1  -0.00135449  0.79665808  0.25352319  1
  Ti  Ti128  1  0.01567095  0.80088997  0.00188201  1
  Ti  Ti129  1  0.28984511  0.68672892  0.61929709  1
  Ti  Ti130  1  0.69331233  0.70022721  0.38414669  1
  Ti  Ti131  1  0.89240546  0.92435796  0.38656321  1
  Ti  Ti132  1  0.01433762  0.40258032  0.50694366  1
  Ti  Ti133  1  0.09964095  0.10617725  0.62368195  1
  Ti  Ti134  1  0.11030851  0.91482710  0.62689370  1
  Ti  Ti135  1  0.40172042  0.39530797  0.49600405  1
  Ti  Ti136  1  0.39139406  0.60597049  0.25514357  1
  Ti  Ti137  1  0.60525047  0.58731336  0.74998227  1
  Ti  Ti138  1  -0.01890939  -0.00028898  0.25095697  1
  Ti  Ti139  1  0.49097862  0.67876992  0.62914800  1
  Ti  Ti140  1  0.91634130  0.50352214  0.37870620  1
  Ti  Ti141  1  0.10040600  0.69205481  0.36947348  1
  Ti  Ti142  1  0.59939571  0.39468977  0.74516570  1
  Ti  Ti143  1  0.40060939  -0.01619839  0.26997028  1
  Ti  Ti144  1  0.90871892  0.08854418  0.61378776  1
  Ti  Ti145  1  0.90881134  0.29906798  0.61516635  1
  Ti  Ti146  1  0.87940702  0.51626470  0.87745975  1
  Ti  Ti147  1  0.11047150  0.30418748  0.62884020  1
  Ti  Ti148  1  0.21482762  -0.00010441  0.26741412  1
  Ti  Ti149  1  0.59654211  0.40374099  0.49624780  1
  Ti  Ti150  1  0.30386411  0.89630698  0.86152327  1
  Ti  Ti151  1  0.68907650  0.30751789  0.61565714  1
  Ti  Ti152  1  -0.01053562  0.61461997  -0.01268339  1
  Ti  Ti153  1  0.79466768  0.20831741  0.00644170  1
  Ti  Ti154  1  0.09556949  0.10861482  0.35675370  1
  Ti  Ti155  1  0.12017868  0.49831992  0.38151399  1
  Ti  Ti156  1  0.59973691  0.20512784  0.49649933  1
  Ti  Ti157  1  0.59627097  0.59982620  0.25776107  1
  Ti  Ti158  1  0.79611816  0.59803010  0.49219301  1
  Ti  Ti159  1  0.79967507  0.80431576  0.50097485  1
  Mo  Mo160  1  0.48801497  0.10282387  0.12125336  1
  Mo  Mo161  1  0.89970597  0.90630773  0.61554308  1
  Mo  Mo162  1  0.49507675  0.89689981  0.60859635  1
  Mo  Mo163  1  0.28705066  0.89199947  0.62379683  1
  Mo  Mo164  1  0.80291922  0.60303855  -0.00755623  1
  Mo  Mo165  1  0.90263477  0.30574860  0.12384001  1
  Mo  Mo166  1  0.39618947  0.79787232  0.26121599  1
  Mo  Mo167  1  0.69538586  0.50036645  0.61666633  1
  Mo  Mo168  1  0.20476556  0.59449424  0.50680729  1
  Mo  Mo169  1  0.10664057  0.51099853  0.11581048  1
  Mo  Mo170  1  0.20367535  0.40179616  0.24345021  1
  Mo  Mo171  1  0.30365842  0.49864676  0.38000851  1
  Mo  Mo172  1  0.69398626  0.49113880  0.86828565  1
  Mo  Mo173  1  0.20297194  0.19595414  0.25119376  1
  Mo  Mo174  1  0.90750876  0.09452082  0.36580303  1
  Mo  Mo175  1  0.29806631  0.08915507  0.86510327  1
  Mo  Mo176  1  0.59326217  0.00008808  -0.00617529  1
  Mo  Mo177  1  0.69848576  0.89853039  0.12823069  1
  Mo  Mo178  1  0.59826866  0.20222343  0.26479329  1
  Mo  Mo179  1  0.58395602  0.00082793  0.26467082  1
  Mo  Mo180  1  0.20153417  0.80868170  0.73741796  1
  Mo  Mo181  1  0.80675486  -0.00360783  0.50469748  1
  Mo  Mo182  1  0.79064701  0.20571922  0.25578556  1
  Mo  Mo183  1  0.90857972  0.69674271  0.86955889  1
  Mo  Mo184  1  0.30024357  0.89920340  0.14318352  1
  Mo  Mo185  1  0.30681724  0.50032007  0.87733167  1
  Mo  Mo186  1  0.00426124  0.60512890  0.26876240  1
  Mo  Mo187  1  0.79527189  -0.00746032  0.25190660  1
  Mo  Mo188  1  0.71546376  0.28197838  0.12865647  1
  Mo  Mo189  1  0.00315115  0.00815076  0.50068207  1
  Mo  Mo190  1  0.41113948  0.59908851  0.74806442  1
  Mo  Mo191  1  0.20327847  0.00522562  0.74907242  1
  Mo  Mo192  1  0.29345444  0.71121764  0.87526636  1
  Mo  Mo193  1  0.60087106  0.38819943  -0.00040198  1
  Mo  Mo194  1  0.30557059  0.88866627  0.37229821  1
  Mo  Mo195  1  0.49332577  0.89295728  0.87005909  1
  Mo  Mo196  1  0.30303247  0.09421438  0.37192965  1
  Mo  Mo197  1  0.19159955  0.79472826  0.00150377  1
  Mo  Mo198  1  0.40304953  0.18317230  0.00539337  1
  Mo  Mo199  1  0.41383708  0.38165522  0.74562883  1
