# generated using pymatgen
data_HfZrTaTiMo
_symmetry_space_group_name_H-M   'P 1'
_cell_length_a   15.21081245
_cell_length_b   15.21006258
_cell_length_c   16.86040897
_cell_angle_alpha   89.99141768
_cell_angle_beta   89.98644026
_cell_angle_gamma   90.20935129
_symmetry_Int_Tables_number   1
_chemical_formula_structural   HfZrTaTiMo
_chemical_formula_sum   'Hf40 Zr40 Ta40 Ti40 Mo40'
_cell_volume   3900.75434450
_cell_formula_units_Z   40
loop_
 _symmetry_equiv_pos_site_id
 _symmetry_equiv_pos_as_xyz
  1  'x, y, z'
loop_
 _atom_site_type_symbol
 _atom_site_label
 _atom_site_symmetry_multiplicity
 _atom_site_fract_x
 _atom_site_fract_y
 _atom_site_fract_z
 _atom_site_occupancy
  Hf  Hf0  1  0.60419046  0.59975914  0.25012765  1
  Hf  Hf1  1  0.90822313  0.71212604  0.13030255  1
  Hf  Hf2  1  0.89783667  0.90866142  0.61885232  1
  Hf  Hf3  1  0.58999430  0.38485738  -0.00682717  1
  Hf  Hf4  1  0.70058162  0.29457108  0.36456495  1
  Hf  Hf5  1  0.20341292  0.20133653  0.77372762  1
  Hf  Hf6  1  0.49605725  0.49473508  0.87480447  1
  Hf  Hf7  1  0.78700005  0.19972926  0.50231376  1
  Hf  Hf8  1  0.01042778  0.61495284  0.50268307  1
  Hf  Hf9  1  0.80496232  0.58542863  0.51528395  1
  Hf  Hf10  1  0.70271493  0.69681119  0.87503557  1
  Hf  Hf11  1  0.08886877  0.08600351  0.36457401  1
  Hf  Hf12  1  -0.00518283  0.41400151  0.50662508  1
  Hf  Hf13  1  0.49014673  0.08405436  0.37768885  1
  Hf  Hf14  1  0.10874232  0.29189426  0.11173934  1
  Hf  Hf15  1  0.59961267  0.79739495  0.51266993  1
  Hf  Hf16  1  0.20949355  0.20087909  0.25687613  1
  Hf  Hf17  1  0.18558305  -0.00239930  -0.00217024  1
  Hf  Hf18  1  0.30506436  0.28657982  0.61733853  1
  Hf  Hf19  1  0.70133225  0.90013424  0.37659068  1
  Hf  Hf20  1  0.38374402  0.58522794  0.00268593  1
  Hf  Hf21  1  0.28582739  0.49794788  0.38929795  1
  Hf  Hf22  1  0.80484431  0.81825778  0.24797713  1
  Hf  Hf23  1  0.38418094  0.59437651  0.74063314  1
  Hf  Hf24  1  0.49640310  0.89515333  0.11479361  1
  Hf  Hf25  1  0.69704803  0.29360389  0.12715799  1
  Hf  Hf26  1  0.39013974  0.38844357  0.26742042  1
  Hf  Hf27  1  0.61789264  0.39678790  0.50381812  1
  Hf  Hf28  1  0.80089780  0.79783813  0.50719160  1
  Hf  Hf29  1  0.10971342  0.49510501  0.10936979  1
  Hf  Hf30  1  0.59089000  -0.01295750  0.24688277  1
  Hf  Hf31  1  -0.00542786  0.19118316  0.76411062  1
  Hf  Hf32  1  0.20603917  0.19696042  0.48803392  1
  Hf  Hf33  1  0.39113731  0.82141334  0.50816881  1
  Hf  Hf34  1  0.81886063  0.40589899  0.23469258  1
  Hf  Hf35  1  0.29742050  0.71087808  0.37626448  1
  Hf  Hf36  1  0.60284923  0.38953532  0.75301319  1
  Hf  Hf37  1  0.10471714  0.70809953  0.13826252  1
  Hf  Hf38  1  0.49349309  0.70297703  0.63382648  1
  Hf  Hf39  1  0.09858684  0.69746591  0.35782609  1
  Zr  Zr40  1  0.50491456  0.71142688  0.38321180  1
  Zr  Zr41  1  0.90331288  0.10306799  0.61428726  1
  Zr  Zr42  1  0.12908455  0.51083626  0.88392207  1
  Zr  Zr43  1  0.40122128  0.20298267  0.76979541  1
  Zr  Zr44  1  -0.00481486  0.21267675  0.24707597  1
  Zr  Zr45  1  0.21571603  0.40505583  0.74923005  1
  Zr  Zr46  1  0.60113724  -0.00377237  0.50352040  1
  Zr  Zr47  1  0.80909034  0.60631496  0.74608520  1
  Zr  Zr48  1  0.40107065  0.80103796  -0.00810297  1
  Zr  Zr49  1  0.49875298  0.29055331  0.61908433  1
  Zr  Zr50  1  0.38019121  0.00003005  0.23534200  1
  Zr  Zr51  1  0.40109607  0.00411572  0.76642701  1
  Zr  Zr52  1  0.11063306  0.10007262  0.62723138  1
  Zr  Zr53  1  0.09817018  0.30140965  0.62619053  1
  Zr  Zr54  1  0.80064159  0.60365383  0.23927708  1
  Zr  Zr55  1  0.80776014  0.60552421  0.00327347  1
  Zr  Zr56  1  0.88242496  0.10067285  0.36637522  1
  Zr  Zr57  1  0.40731913  0.59849364  0.25073228  1
  Zr  Zr58  1  0.48718228  0.47993891  0.12050361  1
  Zr  Zr59  1  0.50227914  0.69691524  0.86693993  1
  Zr  Zr60  1  0.69560370  0.50406192  0.10938014  1
  Zr  Zr61  1  0.79521634  0.01295921  0.74436523  1
  Zr  Zr62  1  0.59413096  0.39509054  0.25396078  1
  Zr  Zr63  1  0.89600237  0.31349684  0.37764826  1
  Zr  Zr64  1  0.09871995  0.90286142  0.63261578  1
  Zr  Zr65  1  0.39947966  0.60354028  0.50667853  1
  Zr  Zr66  1  0.89729691  0.91414933  0.86965150  1
  Zr  Zr67  1  0.28998224  0.10511396  0.11087812  1
  Zr  Zr68  1  0.31194285  0.31200684  0.11406453  1
  Zr  Zr69  1  0.69239442  0.89909535  0.87873196  1
  Zr  Zr70  1  0.21432655  0.79951278  0.73907724  1
  Zr  Zr71  1  0.20796811  0.59259795  0.24407156  1
  Zr  Zr72  1  0.50686504  0.49573826  0.39191922  1
  Zr  Zr73  1  0.00518634  0.40370639  0.76717526  1
  Zr  Zr74  1  0.89481679  0.30845241  0.62896270  1
  Zr  Zr75  1  0.20236099  -0.01219739  0.49470492  1
  Zr  Zr76  1  0.90101065  0.70408490  0.36762440  1
  Zr  Zr77  1  0.69943573  0.09845258  0.13105226  1
  Zr  Zr78  1  0.00360161  0.39831417  -0.01650093  1
  Zr  Zr79  1  0.09922887  0.70524400  0.86500999  1
  Ta  Ta80  1  0.09266400  0.89901789  0.86660061  1
  Ta  Ta81  1  0.09283101  0.90607509  0.13890066  1
  Ta  Ta82  1  0.00644309  0.61221559  0.00348483  1
  Ta  Ta83  1  0.80165560  0.39585961  -0.00680277  1
  Ta  Ta84  1  0.70110596  0.29578060  0.63043629  1
  Ta  Ta85  1  0.60558730  0.58861639  0.73800096  1
  Ta  Ta86  1  0.60291004  0.79305708  0.24469978  1
  Ta  Ta87  1  0.71123122  0.09981681  0.88360328  1
  Ta  Ta88  1  0.70616557  0.90007217  0.11691808  1
  Ta  Ta89  1  0.30861059  0.70761363  0.12516186  1
  Ta  Ta90  1  0.50021647  0.90930699  0.63367906  1
  Ta  Ta91  1  0.18850080  0.39776237  0.25325439  1
  Ta  Ta92  1  0.59800919  -0.00349715  0.00168301  1
  Ta  Ta93  1  0.18899964  0.78778560  0.50237741  1
  Ta  Ta94  1  0.19487204  0.40304935  0.50162219  1
  Ta  Ta95  1  0.59151894  0.19603110  0.49262615  1
  Ta  Ta96  1  0.09987702  0.31325797  0.37815413  1
  Ta  Ta97  1  0.41137857  0.20602154  -0.01544184  1
  Ta  Ta98  1  -0.01538685  0.79658668  0.74394265  1
  Ta  Ta99  1  0.90195905  0.29804773  0.11311654  1
  Ta  Ta100  1  0.00466076  0.81045260  0.00210177  1
  Ta  Ta101  1  0.50307642  0.49241286  0.62028007  1
  Ta  Ta102  1  0.00272969  0.19844020  0.49079012  1
  Ta  Ta103  1  0.89133628  0.29072014  0.88007281  1
  Ta  Ta104  1  0.41011582  0.80382884  0.24462067  1
  Ta  Ta105  1  0.71876812  0.49834467  0.37741649  1
  Ta  Ta106  1  0.19619691  0.79910831  0.00497216  1
  Ta  Ta107  1  0.51396291  0.09298297  0.88349262  1
  Ta  Ta108  1  0.29197627  0.89604722  0.87879498  1
  Ta  Ta109  1  0.11154100  0.51428731  0.63217318  1
  Ta  Ta110  1  0.60405626  0.18363169  0.75351477  1
  Ta  Ta111  1  0.79703979  0.40305112  0.76392202  1
  Ta  Ta112  1  0.29042808  0.68937730  0.87586590  1
  Ta  Ta113  1  0.70129051  0.69180355  0.38085821  1
  Ta  Ta114  1  0.69896748  0.50075506  0.88222906  1
  Ta  Ta115  1  -0.01680094  0.00065349  0.00991942  1
  Ta  Ta116  1  0.00024423  0.18911333  -0.00353314  1
  Ta  Ta117  1  0.91007896  0.91246257  0.38374508  1
  Ta  Ta118  1  0.90481534  0.71097537  0.87772169  1
  Ta  Ta119  1  0.20204401  0.00860631  0.76631430  1
  Ti  Ti120  1  0.40404578  0.20222554  0.25738984  1
  Ti  Ti121  1  0.69677586  0.09754583  0.36307386  1
  Ti  Ti122  1  0.48080746  0.09874185  0.61896145  1
  Ti  Ti123  1  0.68948386  0.09540735  0.62206707  1
  Ti  Ti124  1  0.00620788  0.81095938  0.50042830  1
  Ti  Ti125  1  0.69690158  0.70810805  0.11497837  1
  Ti  Ti126  1  0.81066865  0.81464876  0.00530300  1
  Ti  Ti127  1  0.79337330  0.80621156  0.73896282  1
  Ti  Ti128  1  0.91123872  0.50855886  0.63978331  1
  Ti  Ti129  1  0.10267904  0.89405985  0.35825956  1
  Ti  Ti130  1  0.27875705  0.68648597  0.61411237  1
  Ti  Ti131  1  0.30610318  0.32298298  0.88628320  1
  Ti  Ti132  1  0.61308919  0.59710206  0.51552989  1
  Ti  Ti133  1  0.89211189  0.09484033  0.13782534  1
  Ti  Ti134  1  0.79262293  0.20511544  0.75237197  1
  Ti  Ti135  1  0.39650296  0.00261671  -0.00921078  1
  Ti  Ti136  1  0.20100530  0.20621031  -0.02220872  1
  Ti  Ti137  1  0.08582604  0.09069873  0.87892719  1
  Ti  Ti138  1  -0.00050133  0.57330522  0.23898484  1
  Ti  Ti139  1  0.21706968  0.82049836  0.24088139  1
  Ti  Ti140  1  0.50919083  0.69111955  0.11641940  1
  Ti  Ti141  1  0.60176772  0.79483912  -0.00260482  1
  Ti  Ti142  1  0.58603614  0.19707456  0.25416642  1
  Ti  Ti143  1  0.69833102  0.29182214  0.87725344  1
  Ti  Ti144  1  0.30371807  0.49139548  0.60776188  1
  Ti  Ti145  1  0.60139194  0.80396897  0.74547859  1
  Ti  Ti146  1  0.70373328  0.69953150  0.63173959  1
  Ti  Ti147  1  0.90259782  0.51344255  0.87454263  1
  Ti  Ti148  1  0.40476562  0.80906031  0.75893298  1
  Ti  Ti149  1  0.49500762  0.10795659  0.11752011  1
  Ti  Ti150  1  0.08889866  0.09468410  0.13589096  1
  Ti  Ti151  1  0.59843958  -0.00446482  0.75088218  1
  Ti  Ti152  1  0.91097412  0.50452279  0.37308082  1
  Ti  Ti153  1  0.60135218  0.19380498  -0.00211895  1
  Ti  Ti154  1  0.80687131  0.19055080  0.00046751  1
  Ti  Ti155  1  0.08814976  0.69824957  0.63729913  1
  Ti  Ti156  1  0.30794511  0.90649675  0.37257369  1
  Ti  Ti157  1  0.30412401  0.92239134  0.63133413  1
  Ti  Ti158  1  0.40466703  0.39908478  0.74901709  1
  Ti  Ti159  1  0.29868045  0.09483900  0.37250782  1
  Mo  Mo160  1  0.08908871  0.49555577  0.37246255  1
  Mo  Mo161  1  0.10135939  0.29618061  0.88618297  1
  Mo  Mo162  1  0.00749726  0.40196194  0.23995956  1
  Mo  Mo163  1  0.79232841  0.20415306  0.24203884  1
  Mo  Mo164  1  0.89548689  0.10509796  0.88033117  1
  Mo  Mo165  1  0.79721497  0.00462363  0.00429290  1
  Mo  Mo166  1  0.79562213  0.00035552  0.50177667  1
  Mo  Mo167  1  0.70473508  0.49013499  0.63496905  1
  Mo  Mo168  1  0.29752231  0.29656611  0.38241891  1
  Mo  Mo169  1  0.00421120  0.80807188  0.25406597  1
  Mo  Mo170  1  0.39767333  0.38773759  0.49238911  1
  Mo  Mo171  1  0.79268704  0.00071056  0.25005509  1
  Mo  Mo172  1  0.30881635  0.50766381  0.87028223  1
  Mo  Mo173  1  0.50806259  0.29084653  0.86896160  1
  Mo  Mo174  1  0.39578262  0.00356609  0.50372469  1
  Mo  Mo175  1  0.20274140  0.61599181  0.01058340  1
  Mo  Mo176  1  0.89988623  0.90918036  0.12345682  1
  Mo  Mo177  1  0.19051557  0.59976690  0.50203196  1
  Mo  Mo178  1  0.21978250  0.41139056  -0.00446871  1
  Mo  Mo179  1  0.29623077  0.49892692  0.13087829  1
  Mo  Mo180  1  0.20125867  0.60127375  0.74155453  1
  Mo  Mo181  1  0.30535975  0.09725020  0.62787608  1
  Mo  Mo182  1  0.50248410  0.90065292  0.87879883  1
  Mo  Mo183  1  0.50076061  0.27730152  0.12620892  1
  Mo  Mo184  1  0.59750845  0.60396288  -0.00093600  1
  Mo  Mo185  1  0.00752904  0.00060910  0.75513814  1
  Mo  Mo186  1  -0.00038803  -0.00047559  0.49217245  1
  Mo  Mo187  1  0.90651598  0.70670641  0.62559979  1
  Mo  Mo188  1  0.19517897  0.00051683  0.25009454  1
  Mo  Mo189  1  0.69314646  0.89878746  0.63391136  1
  Mo  Mo190  1  -0.01246159  -0.00899603  0.24311555  1
  Mo  Mo191  1  0.40004247  0.19049926  0.49128315  1
  Mo  Mo192  1  0.40079374  0.39228024  -0.00557742  1
  Mo  Mo193  1  0.29828486  0.09719327  0.89489744  1
  Mo  Mo194  1  0.49444135  0.28762744  0.38795014  1
  Mo  Mo195  1  0.28985608  0.89455129  0.11517081  1
  Mo  Mo196  1  0.49235511  0.89020980  0.36899695  1
  Mo  Mo197  1  0.90967522  0.49542408  0.10863578  1
  Mo  Mo198  1  0.00129758  0.60294771  0.75177978  1
  Mo  Mo199  1  0.80095470  0.40397380  0.50509609  1
