# generated using pymatgen
data_HfZrTaTiMo
_symmetry_space_group_name_H-M   'P 1'
_cell_length_a   15.21138260
_cell_length_b   15.21551048
_cell_length_c   16.84757789
_cell_angle_alpha   89.99540828
_cell_angle_beta   90.05672704
_cell_angle_gamma   89.96637447
_symmetry_Int_Tables_number   1
_chemical_formula_structural   HfZrTaTiMo
_chemical_formula_sum   'Hf40 Zr40 Ta40 Ti40 Mo40'
_cell_volume   3899.35164287
_cell_formula_units_Z   40
loop_
 _symmetry_equiv_pos_site_id
 _symmetry_equiv_pos_as_xyz
  1  'x, y, z'
loop_
 _atom_site_type_symbol
 _atom_site_label
 _atom_site_symmetry_multiplicity
 _atom_site_fract_x
 _atom_site_fract_y
 _atom_site_fract_z
 _atom_site_occupancy
  Hf  Hf0  1  0.91806613  0.29045524  0.37964111  1
  Hf  Hf1  1  0.60770622  0.79650129  0.76333492  1
  Hf  Hf2  1  -0.00912170  0.21074390  0.74131970  1
  Hf  Hf3  1  0.10850504  0.68952436  0.13039494  1
  Hf  Hf4  1  0.19329041  0.00824570  0.49703666  1
  Hf  Hf5  1  0.08167536  0.70784958  0.60494224  1
  Hf  Hf6  1  0.69171420  0.89839342  0.12876906  1
  Hf  Hf7  1  0.19595141  0.39739567  -0.01746489  1
  Hf  Hf8  1  0.90049418  0.08673133  0.62881319  1
  Hf  Hf9  1  0.60272270  0.00144899  0.49564064  1
  Hf  Hf10  1  0.08664700  0.48559994  0.39367798  1
  Hf  Hf11  1  0.10782787  0.89970100  0.12422173  1
  Hf  Hf12  1  0.50193702  0.30202303  0.86872759  1
  Hf  Hf13  1  0.18725294  0.40089331  0.74407408  1
  Hf  Hf14  1  0.29600185  0.89243494  0.12671101  1
  Hf  Hf15  1  0.30065639  0.09591432  0.86377824  1
  Hf  Hf16  1  0.71106586  0.49653733  0.86116589  1
  Hf  Hf17  1  0.29027551  0.09379852  0.12620146  1
  Hf  Hf18  1  0.00651843  -0.00868836  0.75703965  1
  Hf  Hf19  1  0.69405582  0.68987481  0.12436605  1
  Hf  Hf20  1  0.49430567  0.11015586  0.38731561  1
  Hf  Hf21  1  0.50069319  0.50762644  0.11595140  1
  Hf  Hf22  1  0.81357694  0.79473054  0.23398059  1
  Hf  Hf23  1  0.80841935  -0.00691799  0.49218693  1
  Hf  Hf24  1  0.30846458  0.88264172  0.86255423  1
  Hf  Hf25  1  0.71223223  0.70218177  0.88298599  1
  Hf  Hf26  1  0.39527227  0.40482959  0.72946608  1
  Hf  Hf27  1  0.39990394  0.19819138  0.24665082  1
  Hf  Hf28  1  0.10174384  0.68106062  0.87239688  1
  Hf  Hf29  1  0.71341773  0.10718107  0.37136467  1
  Hf  Hf30  1  0.18807879  0.38535093  0.26357705  1
  Hf  Hf31  1  0.09202305  0.69837338  0.38911686  1
  Hf  Hf32  1  0.69934051  0.30665977  0.38716239  1
  Hf  Hf33  1  0.09034221  0.12370001  0.37499436  1
  Hf  Hf34  1  0.60595647  0.20920786  0.73315002  1
  Hf  Hf35  1  0.79849872  0.40422484  0.50740676  1
  Hf  Hf36  1  0.80320219  0.37570808  0.73024119  1
  Hf  Hf37  1  0.29342603  0.29116967  0.38029138  1
  Hf  Hf38  1  0.10512175  0.29211014  0.11774650  1
  Hf  Hf39  1  0.59303881  0.59724953  0.25716156  1
  Zr  Zr40  1  0.59359295  0.03525294  0.01605667  1
  Zr  Zr41  1  0.29424337  0.50335665  0.12656466  1
  Zr  Zr42  1  0.08716695  0.30143281  0.87126743  1
  Zr  Zr43  1  0.50232471  0.90877801  0.88602560  1
  Zr  Zr44  1  0.39830395  0.59293393  0.51873864  1
  Zr  Zr45  1  0.70674954  0.89560599  0.62236385  1
  Zr  Zr46  1  0.38505986  -0.00594122  0.49838966  1
  Zr  Zr47  1  0.40807451  0.79536182  0.25369351  1
  Zr  Zr48  1  0.51607492  0.70264776  0.62282644  1
  Zr  Zr49  1  0.20922548  0.81165630  0.49742326  1
  Zr  Zr50  1  -0.00830183  0.00763173  0.25356374  1
  Zr  Zr51  1  0.69944262  0.11479196  0.87796356  1
  Zr  Zr52  1  0.69762053  0.89533412  0.35592779  1
  Zr  Zr53  1  0.80527946  0.40599746  0.26162279  1
  Zr  Zr54  1  0.29900431  0.30101114  0.12505626  1
  Zr  Zr55  1  0.29944689  0.52060691  0.86550257  1
  Zr  Zr56  1  0.00001746  0.77816231  0.00992758  1
  Zr  Zr57  1  0.09790222  0.49705148  0.60491518  1
  Zr  Zr58  1  0.49820045  0.89479693  0.62014643  1
  Zr  Zr59  1  0.10420534  0.89153682  0.87788507  1
  Zr  Zr60  1  0.49066437  0.90200037  0.11720812  1
  Zr  Zr61  1  0.91634748  0.50236332  0.86032496  1
  Zr  Zr62  1  0.40606812  0.19628769  0.00195119  1
  Zr  Zr63  1  -0.00720835  0.19454928  0.00644604  1
  Zr  Zr64  1  0.49513194  0.31626531  0.39274225  1
  Zr  Zr65  1  0.19890669  0.59755140  0.26547581  1
  Zr  Zr66  1  0.59832550  0.00360554  0.75160105  1
  Zr  Zr67  1  0.60375804  0.21303704  0.24908225  1
  Zr  Zr68  1  0.58469517  0.01085383  0.24416892  1
  Zr  Zr69  1  0.89418215  0.88136279  0.88575289  1
  Zr  Zr70  1  0.80958844  0.01067596  0.02005463  1
  Zr  Zr71  1  0.60930419  0.58654353  0.49288667  1
  Zr  Zr72  1  0.40070246  0.40986921  -0.00946346  1
  Zr  Zr73  1  0.80593227  0.60165433  0.49221828  1
  Zr  Zr74  1  0.08423295  0.48988345  0.13043884  1
  Zr  Zr75  1  0.79661408  -0.01260595  0.75534252  1
  Zr  Zr76  1  0.50226024  0.69820694  0.38594159  1
  Zr  Zr77  1  0.88205603  0.30150540  0.88055053  1
  Zr  Zr78  1  0.90237335  0.10090410  0.87509749  1
  Zr  Zr79  1  0.51028010  0.51234375  0.86083432  1
  Ta  Ta80  1  0.19891310  -0.00247315  0.74525985  1
  Ta  Ta81  1  0.31070243  0.49290012  0.38550169  1
  Ta  Ta82  1  0.38598291  0.20358278  0.51876442  1
  Ta  Ta83  1  0.19445063  0.79109440  0.73825222  1
  Ta  Ta84  1  0.19682352  0.18668695  -0.01441722  1
  Ta  Ta85  1  0.01018720  0.59746309  0.74004294  1
  Ta  Ta86  1  0.71733326  0.70394134  0.63008401  1
  Ta  Ta87  1  0.49296417  0.89678665  0.37993907  1
  Ta  Ta88  1  0.29893749  0.89346910  0.63616513  1
  Ta  Ta89  1  0.80344140  0.79294613  0.01989412  1
  Ta  Ta90  1  0.21816308  0.78278569  -0.00335729  1
  Ta  Ta91  1  0.60920862  0.39936219  -0.00189155  1
  Ta  Ta92  1  0.19872170  0.00035393  0.26263664  1
  Ta  Ta93  1  0.70080856  0.51434257  0.64118386  1
  Ta  Ta94  1  0.20400971  0.60442567  0.72708654  1
  Ta  Ta95  1  0.40603117  0.40674442  0.25310049  1
  Ta  Ta96  1  0.59929086  0.39994052  0.72929579  1
  Ta  Ta97  1  0.18737695  0.20821497  0.51477531  1
  Ta  Ta98  1  0.09357664  0.90506075  0.62319039  1
  Ta  Ta99  1  0.49684421  0.10072303  0.61958617  1
  Ta  Ta100  1  0.90192397  0.50693653  0.62931550  1
  Ta  Ta101  1  0.49562784  0.11138220  0.86624452  1
  Ta  Ta102  1  0.81488105  0.19872961  0.23488364  1
  Ta  Ta103  1  0.00811774  0.79259518  0.24612265  1
  Ta  Ta104  1  0.80996589  0.79626781  0.49123869  1
  Ta  Ta105  1  0.70031690  0.31522371  0.12879286  1
  Ta  Ta106  1  0.70599905  0.70350383  0.36333141  1
  Ta  Ta107  1  0.39729411  0.61896135  0.73173469  1
  Ta  Ta108  1  0.78559474  0.20850365  0.02427190  1
  Ta  Ta109  1  0.30420712  0.70272315  0.38518729  1
  Ta  Ta110  1  0.49619732  0.69912800  0.11380941  1
  Ta  Ta111  1  0.70542103  0.10563554  0.61968524  1
  Ta  Ta112  1  0.50670699  0.30746312  0.12222406  1
  Ta  Ta113  1  -0.01511462  0.58700741  0.25833406  1
  Ta  Ta114  1  0.79764206  0.59324115  0.25741774  1
  Ta  Ta115  1  0.30715169  0.69495435  0.12624059  1
  Ta  Ta116  1  -0.00278303  -0.00280176  0.49047376  1
  Ta  Ta117  1  0.47919351  0.70475773  0.87886866  1
  Ta  Ta118  1  0.90504074  0.32112595  0.12633298  1
  Ta  Ta119  1  0.82449714  0.60045712  0.00316934  1
  Ti  Ti120  1  0.29329863  0.10058168  0.37426072  1
  Ti  Ti121  1  0.59477537  0.40471533  0.52555516  1
  Ti  Ti122  1  0.80211670  0.01098436  0.23533201  1
  Ti  Ti123  1  0.19781537  -0.00308250  -0.00986626  1
  Ti  Ti124  1  0.00047739  0.37354028  0.51588520  1
  Ti  Ti125  1  0.59871014  0.41043263  0.25512438  1
  Ti  Ti126  1  0.29309810  0.09646486  0.63167145  1
  Ti  Ti127  1  0.90518245  0.69955427  0.37137340  1
  Ti  Ti128  1  0.09609305  0.09957422  0.62469584  1
  Ti  Ti129  1  0.39877017  0.20246819  0.73245935  1
  Ti  Ti130  1  -0.00510531  0.41817254  -0.00344669  1
  Ti  Ti131  1  0.09990399  0.09610291  0.13037359  1
  Ti  Ti132  1  0.39074656  0.00120903  -0.00254451  1
  Ti  Ti133  1  0.09735740  0.89849165  0.37209452  1
  Ti  Ti134  1  0.60481807  0.59781683  -0.00664267  1
  Ti  Ti135  1  0.19556199  0.19507770  0.74620736  1
  Ti  Ti136  1  0.70393792  0.49909103  0.12221462  1
  Ti  Ti137  1  0.20539582  0.80019141  0.26283769  1
  Ti  Ti138  1  0.20665971  0.59875787  0.50349032  1
  Ti  Ti139  1  0.90574895  0.87775950  0.62390748  1
  Ti  Ti140  1  0.21281342  0.39191459  0.51112607  1
  Ti  Ti141  1  0.19719484  0.59354859  -0.00194666  1
  Ti  Ti142  1  0.80024144  0.40707768  0.00281850  1
  Ti  Ti143  1  0.61353619  0.79736272  0.49496670  1
  Ti  Ti144  1  0.40075453  0.39961382  0.52761489  1
  Ti  Ti145  1  0.59612712  0.79660619  -0.00457370  1
  Ti  Ti146  1  0.39849324  0.59472794  0.25922571  1
  Ti  Ti147  1  0.81324066  0.19795934  0.50373441  1
  Ti  Ti148  1  0.40248856  0.00119479  0.74420359  1
  Ti  Ti149  1  0.01037509  0.00341606  -0.00037469  1
  Ti  Ti150  1  0.39252555  -0.00042116  0.25862418  1
  Ti  Ti151  1  -0.01133799  0.78620074  0.75146033  1
  Ti  Ti152  1  0.00792775  0.21416640  0.24272928  1
  Ti  Ti153  1  0.91255344  0.90424860  0.12413408  1
  Ti  Ti154  1  0.30134314  0.29325300  0.86436418  1
  Ti  Ti155  1  0.90260620  0.89605779  0.36496149  1
  Ti  Ti156  1  0.60012156  0.20699393  0.51330701  1
  Ti  Ti157  1  0.70293464  0.90662584  0.89805896  1
  Ti  Ti158  1  0.69465081  0.30179514  0.87558487  1
  Ti  Ti159  1  0.81220248  0.61944411  0.75014464  1
  Mo  Mo160  1  0.10178482  0.50138273  0.86691473  1
  Mo  Mo161  1  0.60141188  0.79499524  0.24875990  1
  Mo  Mo162  1  0.00698082  0.59110791  0.00105030  1
  Mo  Mo163  1  0.90925971  0.10875347  0.12497623  1
  Mo  Mo164  1  0.49305182  0.49168977  0.37793948  1
  Mo  Mo165  1  0.89741811  0.70191895  0.62396664  1
  Mo  Mo166  1  0.89872997  0.29004360  0.61421735  1
  Mo  Mo167  1  -0.01134929  0.59801476  0.49610102  1
  Mo  Mo168  1  0.10387050  0.30004177  0.38678136  1
  Mo  Mo169  1  0.48616973  0.11360082  0.12808392  1
  Mo  Mo170  1  0.90252458  0.69507324  0.87499621  1
  Mo  Mo171  1  0.10799332  0.09689015  0.87037402  1
  Mo  Mo172  1  0.60910926  0.60506119  0.75533542  1
  Mo  Mo173  1  0.80609834  0.79709173  0.75399219  1
  Mo  Mo174  1  0.29615472  0.50330526  0.62300482  1
  Mo  Mo175  1  0.90463070  0.68933838  0.13598857  1
  Mo  Mo176  1  0.39791093  0.79984838  0.74676214  1
  Mo  Mo177  1  0.90084432  0.50095644  0.38395290  1
  Mo  Mo178  1  -0.00224990  0.18594113  0.51171255  1
  Mo  Mo179  1  0.09778324  0.29150605  0.63016037  1
  Mo  Mo180  1  0.69208777  0.49787527  0.37581310  1
  Mo  Mo181  1  -0.00994541  0.81404859  0.49001265  1
  Mo  Mo182  1  0.29579475  0.69902353  0.86558329  1
  Mo  Mo183  1  -0.00307800  0.40345222  0.73012510  1
  Mo  Mo184  1  0.70195235  0.29797454  0.60763859  1
  Mo  Mo185  1  0.29719366  0.70960726  0.61737377  1
  Mo  Mo186  1  0.60040392  0.21900471  0.00518913  1
  Mo  Mo187  1  0.88988372  0.50279511  0.12386717  1
  Mo  Mo188  1  0.69786926  0.11403829  0.13683356  1
  Mo  Mo189  1  0.49753825  0.29639636  0.61703741  1
  Mo  Mo190  1  0.29758175  0.90146936  0.36527569  1
  Mo  Mo191  1  0.29148031  0.29192227  0.63014242  1
  Mo  Mo192  1  0.39887804  0.79676066  0.00170564  1
  Mo  Mo193  1  0.39064799  0.61751337  -0.00130468  1
  Mo  Mo194  1  0.89358817  0.09780761  0.37059860  1
  Mo  Mo195  1  -0.00455583  0.39673538  0.25477219  1
  Mo  Mo196  1  0.40349414  0.80115564  0.49331049  1
  Mo  Mo197  1  0.79220904  0.19213842  0.74049205  1
  Mo  Mo198  1  0.50666844  0.50522083  0.63969800  1
  Mo  Mo199  1  0.19622633  0.18898633  0.25023927  1
