# generated using pymatgen
data_HfZrTaTiMo
_symmetry_space_group_name_H-M   'P 1'
_cell_length_a   15.20765736
_cell_length_b   15.20729614
_cell_length_c   16.81643999
_cell_angle_alpha   90.00711482
_cell_angle_beta   89.96546230
_cell_angle_gamma   90.03924072
_symmetry_Int_Tables_number   1
_chemical_formula_structural   HfZrTaTiMo
_chemical_formula_sum   'Hf40 Zr40 Ta40 Ti40 Mo40'
_cell_volume   3889.09184928
_cell_formula_units_Z   40
loop_
 _symmetry_equiv_pos_site_id
 _symmetry_equiv_pos_as_xyz
  1  'x, y, z'
loop_
 _atom_site_type_symbol
 _atom_site_label
 _atom_site_symmetry_multiplicity
 _atom_site_fract_x
 _atom_site_fract_y
 _atom_site_fract_z
 _atom_site_occupancy
  Hf  Hf0  1  0.09704171  0.10639245  0.88202686  1
  Hf  Hf1  1  0.20631447  0.41289496  0.49277442  1
  Hf  Hf2  1  0.69246721  0.70003502  0.38105081  1
  Hf  Hf3  1  0.40049695  0.39243368  0.50330003  1
  Hf  Hf4  1  0.92771118  0.09286013  0.10345737  1
  Hf  Hf5  1  0.38542515  0.78011807  0.73824840  1
  Hf  Hf6  1  0.68823113  0.09948697  0.63096271  1
  Hf  Hf7  1  0.10791730  0.29466747  0.37215397  1
  Hf  Hf8  1  0.69847154  0.31538434  0.12257525  1
  Hf  Hf9  1  0.70876308  0.08774340  0.11984658  1
  Hf  Hf10  1  0.49140424  0.89302909  0.13579006  1
  Hf  Hf11  1  0.69100818  0.47779941  0.63648033  1
  Hf  Hf12  1  0.22187520  0.39813178  0.25788806  1
  Hf  Hf13  1  0.09139966  0.90866280  0.62288907  1
  Hf  Hf14  1  0.79721569  0.79522282  0.51417943  1
  Hf  Hf15  1  0.69676112  0.89571737  0.38072674  1
  Hf  Hf16  1  0.50675557  0.10221826  0.86936523  1
  Hf  Hf17  1  0.00677453  0.60936422  0.00725911  1
  Hf  Hf18  1  -0.00122679  0.80505602  0.49976980  1
  Hf  Hf19  1  0.90767974  0.51131915  0.86071113  1
  Hf  Hf20  1  0.59590958  0.79454093  0.73388740  1
  Hf  Hf21  1  0.59762560  -0.01302550  -0.00393571  1
  Hf  Hf22  1  0.58609082  0.59379833  0.50813109  1
  Hf  Hf23  1  0.89601765  0.69419717  0.37224746  1
  Hf  Hf24  1  0.90569067  0.29652662  0.64885269  1
  Hf  Hf25  1  0.31262677  0.09597363  0.61441419  1
  Hf  Hf26  1  0.20719055  -0.00906738  -0.01357608  1
  Hf  Hf27  1  0.20235473  0.80222576  0.48130873  1
  Hf  Hf28  1  0.31433757  0.52139105  0.61861260  1
  Hf  Hf29  1  0.10160101  0.29927229  0.86227076  1
  Hf  Hf30  1  -0.00712611  0.00344434  0.75979529  1
  Hf  Hf31  1  0.21819820  0.61902148  0.75568283  1
  Hf  Hf32  1  0.39611404  0.20001737  0.74292708  1
  Hf  Hf33  1  0.00337303  0.40661185  0.50403667  1
  Hf  Hf34  1  0.19952156  0.61128616  0.24743126  1
  Hf  Hf35  1  0.10328612  0.29431525  0.11869414  1
  Hf  Hf36  1  0.41244148  0.41206840  0.74601130  1
  Hf  Hf37  1  0.08735608  0.91880882  0.13424301  1
  Hf  Hf38  1  0.91419501  0.69564251  0.64327184  1
  Hf  Hf39  1  0.79895999  0.40696243  0.24618957  1
  Zr  Zr40  1  0.78980943  0.38838798  0.77370426  1
  Zr  Zr41  1  0.48830171  0.89397787  0.86263733  1
  Zr  Zr42  1  0.70756889  0.50482609  0.37559628  1
  Zr  Zr43  1  0.90096479  0.70404809  0.86958253  1
  Zr  Zr44  1  0.81062170  0.40349137  0.50454221  1
  Zr  Zr45  1  0.30507639  0.29443411  0.11712284  1
  Zr  Zr46  1  0.10836454  0.09847892  0.38931912  1
  Zr  Zr47  1  0.18642554  0.79702178  0.01622673  1
  Zr  Zr48  1  0.39315689  0.80853767  0.00684585  1
  Zr  Zr49  1  -0.00178562  0.39302660  -0.00402399  1
  Zr  Zr50  1  0.21906684  0.40739206  0.75186202  1
  Zr  Zr51  1  0.01323739  0.18072551  0.24302688  1
  Zr  Zr52  1  0.79237154  0.40606173  -0.02105078  1
  Zr  Zr53  1  0.59575906  0.19565640  0.23671587  1
  Zr  Zr54  1  0.70347391  0.68186817  0.63341393  1
  Zr  Zr55  1  0.60823050  0.38174617  0.49132272  1
  Zr  Zr56  1  0.48784088  0.91955306  0.63268658  1
  Zr  Zr57  1  0.89120068  0.49971180  0.11605474  1
  Zr  Zr58  1  0.90400168  0.30108348  0.37223461  1
  Zr  Zr59  1  0.60032358  -0.00803121  0.24602968  1
  Zr  Zr60  1  0.09224329  0.50687189  0.36032328  1
  Zr  Zr61  1  0.31124307  0.50537513  0.11817578  1
  Zr  Zr62  1  0.69886275  0.10206532  0.37434430  1
  Zr  Zr63  1  0.30013943  0.29982552  0.88426379  1
  Zr  Zr64  1  0.81862238  -0.00361632  0.24374298  1
  Zr  Zr65  1  0.89919795  0.50660287  0.65459205  1
  Zr  Zr66  1  0.81145619  0.20739897  0.00370977  1
  Zr  Zr67  1  0.28653177  0.89669444  0.62321976  1
  Zr  Zr68  1  0.52181532  0.28692186  0.62675661  1
  Zr  Zr69  1  0.90577135  0.09592961  0.38456978  1
  Zr  Zr70  1  0.78912198  0.20750156  0.51194371  1
  Zr  Zr71  1  0.79646431  0.81326716  0.75220644  1
  Zr  Zr72  1  0.09915926  0.51415256  0.63645868  1
  Zr  Zr73  1  0.59492052  0.19864767  0.01071463  1
  Zr  Zr74  1  0.10980762  0.30130064  0.64321541  1
  Zr  Zr75  1  -0.01244456  0.79533911  0.23888805  1
  Zr  Zr76  1  0.10364496  0.10381432  0.62537235  1
  Zr  Zr77  1  0.48977863  0.89108846  0.37095300  1
  Zr  Zr78  1  0.49119144  0.68076843  0.87717186  1
  Zr  Zr79  1  0.48696113  0.28267328  0.36844573  1
  Ta  Ta80  1  0.31352840  0.51670820  0.89019824  1
  Ta  Ta81  1  0.20048871  0.61121881  0.48387831  1
  Ta  Ta82  1  0.20657129  0.00298795  0.76214101  1
  Ta  Ta83  1  0.19944517  0.81150190  0.24991872  1
  Ta  Ta84  1  0.81071077  0.20495686  0.23361623  1
  Ta  Ta85  1  0.88463062  0.70698693  0.11362085  1
  Ta  Ta86  1  0.41469004  0.40501338  -0.00350575  1
  Ta  Ta87  1  0.68782646  0.51034207  0.11981735  1
  Ta  Ta88  1  0.78766334  0.79908803  0.24566160  1
  Ta  Ta89  1  0.59930868  0.39076752  0.77205914  1
  Ta  Ta90  1  0.39725335  0.19303057  0.00084341  1
  Ta  Ta91  1  0.78142230  0.60829777  -0.01112110  1
  Ta  Ta92  1  0.10296466  0.50246891  0.13156556  1
  Ta  Ta93  1  0.79875572  0.61092759  0.24022495  1
  Ta  Ta94  1  0.00492983  0.60632543  0.50027611  1
  Ta  Ta95  1  0.79785782  -0.00680133  0.50929224  1
  Ta  Ta96  1  0.60057018  0.59742408  0.24838606  1
  Ta  Ta97  1  0.70140952  0.29375172  0.36111860  1
  Ta  Ta98  1  0.08940407  0.90860480  0.36463663  1
  Ta  Ta99  1  0.00137428  0.20452642  0.50976814  1
  Ta  Ta100  1  0.70124958  0.88502214  0.11897871  1
  Ta  Ta101  1  0.49562525  0.49671657  0.36805944  1
  Ta  Ta102  1  0.40130243  0.79193610  0.50561771  1
  Ta  Ta103  1  0.38459305  0.01932184  0.25351539  1
  Ta  Ta104  1  0.59302090  0.80091576  0.51958227  1
  Ta  Ta105  1  0.60139672  0.78787284  -0.00046564  1
  Ta  Ta106  1  0.40324585  0.59913086  0.25601687  1
  Ta  Ta107  1  0.10994099  0.50947708  0.87345958  1
  Ta  Ta108  1  0.78931453  0.80230106  -0.01177163  1
  Ta  Ta109  1  0.00015219  0.39551225  0.23718003  1
  Ta  Ta110  1  0.29712931  0.70889499  0.88855815  1
  Ta  Ta111  1  0.89818861  0.89860395  0.37916053  1
  Ta  Ta112  1  0.11544836  0.70991457  0.62478548  1
  Ta  Ta113  1  0.31272083  0.11372845  0.39152029  1
  Ta  Ta114  1  0.49768583  0.68731695  0.12600109  1
  Ta  Ta115  1  0.22519768  0.18370741  0.25111841  1
  Ta  Ta116  1  0.59070535  0.00313191  0.50418804  1
  Ta  Ta117  1  0.60143889  0.40326282  -0.01868045  1
  Ta  Ta118  1  0.00975871  0.80597738  0.75455186  1
  Ta  Ta119  1  0.09313372  0.70613378  0.36392146  1
  Ti  Ti120  1  0.29678702  0.91343728  0.36622650  1
  Ti  Ti121  1  0.49889872  0.69948021  0.37166451  1
  Ti  Ti122  1  0.49585050  0.09182680  0.38163630  1
  Ti  Ti123  1  0.68897138  0.70068530  0.86526985  1
  Ti  Ti124  1  0.49617826  0.29424385  0.87546656  1
  Ti  Ti125  1  0.90252270  0.09651387  0.62521239  1
  Ti  Ti126  1  -0.00240243  0.80746207  0.00261109  1
  Ti  Ti127  1  0.50412946  0.49485048  0.12875514  1
  Ti  Ti128  1  0.39852163  0.00194990  -0.00052143  1
  Ti  Ti129  1  0.57292367  0.58538248  0.74230678  1
  Ti  Ti130  1  0.59572200  0.78580493  0.24431857  1
  Ti  Ti131  1  0.59507461  0.40323167  0.25376112  1
  Ti  Ti132  1  0.10060103  0.70532716  0.87822140  1
  Ti  Ti133  1  0.69252487  0.26744205  0.87718656  1
  Ti  Ti134  1  0.49380977  0.30741144  0.12904188  1
  Ti  Ti135  1  0.60628588  0.00096441  0.75616424  1
  Ti  Ti136  1  0.88946552  0.90117528  0.11001685  1
  Ti  Ti137  1  0.89357647  0.90762310  0.62910895  1
  Ti  Ti138  1  0.79739643  0.18255603  0.75708396  1
  Ti  Ti139  1  0.90672338  0.50647905  0.36377549  1
  Ti  Ti140  1  0.81148026  0.59419450  0.50595437  1
  Ti  Ti141  1  0.58821054  0.58982726  -0.00233711  1
  Ti  Ti142  1  0.12622636  0.10262103  0.10697184  1
  Ti  Ti143  1  0.91320282  0.28556087  0.86309113  1
  Ti  Ti144  1  0.30902945  0.71151958  0.36223276  1
  Ti  Ti145  1  0.79595686  -0.00647513  -0.01303218  1
  Ti  Ti146  1  0.30618035  0.71099328  0.13451202  1
  Ti  Ti147  1  0.39369322  0.60218265  0.48344224  1
  Ti  Ti148  1  0.20089552  -0.00269138  0.49504209  1
  Ti  Ti149  1  0.90437358  0.90332770  0.88256612  1
  Ti  Ti150  1  0.21889741  0.22035218  0.50580243  1
  Ti  Ti151  1  0.30472881  0.10028184  0.87155839  1
  Ti  Ti152  1  0.69324360  0.69760446  0.11934815  1
  Ti  Ti153  1  0.79264202  -0.00192988  0.76187053  1
  Ti  Ti154  1  0.20183259  0.60594174  0.00999329  1
  Ti  Ti155  1  0.29412748  0.91732886  0.14007766  1
  Ti  Ti156  1  0.19957065  0.40781939  -0.00311060  1
  Ti  Ti157  1  0.48257303  0.09957445  0.12637785  1
  Ti  Ti158  1  0.89950382  0.10218640  0.88674773  1
  Ti  Ti159  1  0.19366961  0.81073485  0.76195007  1
  Mo  Mo160  1  -0.01053272  0.00098651  0.50602592  1
  Mo  Mo161  1  0.39576720  -0.00800480  0.48714416  1
  Mo  Mo162  1  0.19583035  0.00895634  0.25527531  1
  Mo  Mo163  1  0.30286912  0.09240881  0.11772979  1
  Mo  Mo164  1  0.50113429  0.09544860  0.62491309  1
  Mo  Mo165  1  0.00022446  -0.01036333  -0.01306620  1
  Mo  Mo166  1  0.30227764  0.29896015  0.62421974  1
  Mo  Mo167  1  0.68560189  0.51884200  0.86816512  1
  Mo  Mo168  1  0.09583161  0.69889188  0.13204326  1
  Mo  Mo169  1  0.00531139  0.40477827  0.76653694  1
  Mo  Mo170  1  0.20795988  0.19009686  0.74704547  1
  Mo  Mo171  1  0.69677519  0.90423998  0.62001943  1
  Mo  Mo172  1  0.49565356  0.49374052  0.87955299  1
  Mo  Mo173  1  -0.00004794  -0.00249969  0.24992370  1
  Mo  Mo174  1  0.60767745  0.19779312  0.75948636  1
  Mo  Mo175  1  0.39130366  0.79774550  0.24672734  1
  Mo  Mo176  1  0.39506775  0.59723078  0.75155418  1
  Mo  Mo177  1  0.39219861  0.00125641  0.75761683  1
  Mo  Mo178  1  0.77511141  0.60216858  0.76344088  1
  Mo  Mo179  1  0.59914339  0.18923549  0.49414072  1
  Mo  Mo180  1  0.09507567  0.89490722  0.87460523  1
  Mo  Mo181  1  0.69466448  0.89434543  0.87696749  1
  Mo  Mo182  1  0.30802109  0.51043158  0.37454605  1
  Mo  Mo183  1  0.48478817  0.68688635  0.61743860  1
  Mo  Mo184  1  0.41101898  0.19299002  0.50856733  1
  Mo  Mo185  1  0.39788202  0.60390419  0.01273062  1
  Mo  Mo186  1  0.00922993  0.19976638  -0.00142174  1
  Mo  Mo187  1  -0.00711037  0.59771249  0.23174038  1
  Mo  Mo188  1  0.29222174  0.70092540  0.60985848  1
  Mo  Mo189  1  0.29736521  0.90026265  0.86941365  1
  Mo  Mo190  1  0.90408924  0.29876066  0.12946388  1
  Mo  Mo191  1  0.02798484  0.61553557  0.75947582  1
  Mo  Mo192  1  0.41091188  0.40542435  0.25056940  1
  Mo  Mo193  1  -0.00788367  0.19240475  0.75201390  1
  Mo  Mo194  1  0.39929209  0.20129151  0.24456347  1
  Mo  Mo195  1  0.70504776  0.29031893  0.64318809  1
  Mo  Mo196  1  0.70665314  0.08786203  0.87649357  1
  Mo  Mo197  1  0.30153854  0.29872076  0.37462923  1
  Mo  Mo198  1  0.50516522  0.49773765  0.62154695  1
  Mo  Mo199  1  0.20648274  0.19892285  -0.00381364  1
