# generated using pymatgen
data_HfZrTaTiMo
_symmetry_space_group_name_H-M   'P 1'
_cell_length_a   15.22104651
_cell_length_b   15.20538597
_cell_length_c   16.84539559
_cell_angle_alpha   90.07678872
_cell_angle_beta   90.04253948
_cell_angle_gamma   90.06630673
_symmetry_Int_Tables_number   1
_chemical_formula_structural   HfZrTaTiMo
_chemical_formula_sum   'Hf40 Zr40 Ta40 Ti40 Mo40'
_cell_volume   3898.72295074
_cell_formula_units_Z   40
loop_
 _symmetry_equiv_pos_site_id
 _symmetry_equiv_pos_as_xyz
  1  'x, y, z'
loop_
 _atom_site_type_symbol
 _atom_site_label
 _atom_site_symmetry_multiplicity
 _atom_site_fract_x
 _atom_site_fract_y
 _atom_site_fract_z
 _atom_site_occupancy
  Hf  Hf0  1  0.69971815  0.31546357  0.38461074  1
  Hf  Hf1  1  -0.01548095  0.19183274  0.24559054  1
  Hf  Hf2  1  0.69362386  0.09778193  0.63568650  1
  Hf  Hf3  1  0.20808222  0.00667620  0.50063774  1
  Hf  Hf4  1  0.17410028  -0.00579607  -0.00640472  1
  Hf  Hf5  1  0.41609996  0.60180308  0.74102769  1
  Hf  Hf6  1  0.59676368  0.39489499  0.00232053  1
  Hf  Hf7  1  0.20182259  0.40179262  0.25902194  1
  Hf  Hf8  1  0.40132460  0.61147520  0.49007404  1
  Hf  Hf9  1  0.88983293  0.11428457  0.62555645  1
  Hf  Hf10  1  0.61157925  0.61050635  0.24150240  1
  Hf  Hf11  1  0.19764949  0.80636520  0.50313839  1
  Hf  Hf12  1  0.67945024  0.10118937  0.12777724  1
  Hf  Hf13  1  0.18338349  -0.01415977  0.74933950  1
  Hf  Hf14  1  0.49691871  0.50283764  0.87618729  1
  Hf  Hf15  1  0.59864992  0.59396880  0.01640465  1
  Hf  Hf16  1  0.20181065  0.59793656  0.48530799  1
  Hf  Hf17  1  0.80736478  0.77614607  0.23076894  1
  Hf  Hf18  1  0.30813304  0.73333301  0.37746722  1
  Hf  Hf19  1  0.49727271  0.11515051  0.85742502  1
  Hf  Hf20  1  0.79391743  0.40153620  -0.00899778  1
  Hf  Hf21  1  0.19813568  0.60949673  0.26273479  1
  Hf  Hf22  1  0.78695703  0.21249643  0.25393556  1
  Hf  Hf23  1  0.00015653  0.18154955  0.00362983  1
  Hf  Hf24  1  0.80665153  0.60531149  0.01282542  1
  Hf  Hf25  1  0.49463729  0.70669952  0.12960969  1
  Hf  Hf26  1  0.02117123  0.79897375  0.00047196  1
  Hf  Hf27  1  0.49591611  0.31346039  0.60864442  1
  Hf  Hf28  1  0.40117259  0.39980345  0.25896109  1
  Hf  Hf29  1  0.19541621  0.19141389  0.00062971  1
  Hf  Hf30  1  0.70054711  0.90156087  0.12286098  1
  Hf  Hf31  1  0.29741196  0.51232281  0.12460359  1
  Hf  Hf32  1  0.90468644  0.70305111  0.63848747  1
  Hf  Hf33  1  0.81219058  0.60878358  0.50127042  1
  Hf  Hf34  1  0.30680559  0.30800341  0.88450062  1
  Hf  Hf35  1  0.49818862  0.28590603  0.38322196  1
  Hf  Hf36  1  0.68209299  0.10373731  0.37882961  1
  Hf  Hf37  1  0.20110240  0.38290551  0.48488935  1
  Hf  Hf38  1  0.69228221  0.09946874  0.85767245  1
  Hf  Hf39  1  0.78959751  -0.01161058  0.50160871  1
  Zr  Zr40  1  0.90531949  0.88034634  0.36015745  1
  Zr  Zr41  1  0.21030534  0.59312479  0.74822353  1
  Zr  Zr42  1  0.00499872  0.59247505  0.48915729  1
  Zr  Zr43  1  0.30865558  0.69548017  0.87255016  1
  Zr  Zr44  1  0.61082568  0.60794893  0.49049636  1
  Zr  Zr45  1  0.29208265  0.09722393  0.86219021  1
  Zr  Zr46  1  0.40366892  0.20075786  -0.00177833  1
  Zr  Zr47  1  0.89487401  0.30733554  0.11736176  1
  Zr  Zr48  1  0.91004770  0.50425858  0.88076476  1
  Zr  Zr49  1  0.29337245  0.88821840  0.86434159  1
  Zr  Zr50  1  0.36880117  0.19943574  0.50247614  1
  Zr  Zr51  1  0.71780122  0.51059854  0.36151129  1
  Zr  Zr52  1  0.09294401  0.10403553  0.62506631  1
  Zr  Zr53  1  0.21712710  0.79662537  0.01552905  1
  Zr  Zr54  1  0.38888615  0.22148729  0.73880686  1
  Zr  Zr55  1  0.90505965  0.49140969  0.63121118  1
  Zr  Zr56  1  0.19882792  0.39335845  0.75737275  1
  Zr  Zr57  1  0.40173684  0.61005510  0.26131396  1
  Zr  Zr58  1  -0.00739438  0.78645687  0.49294212  1
  Zr  Zr59  1  0.80382423  0.00858760  0.24493194  1
  Zr  Zr60  1  0.49504537  0.10026466  0.62593064  1
  Zr  Zr61  1  0.00647090  -0.01192108  0.49805999  1
  Zr  Zr62  1  0.79602110  0.60270836  0.75688976  1
  Zr  Zr63  1  -0.00766333  -0.00232862  0.74763722  1
  Zr  Zr64  1  0.69143284  0.89769666  0.36614668  1
  Zr  Zr65  1  0.70821646  0.29721060  0.62820208  1
  Zr  Zr66  1  0.81601170  0.80291808  0.00828195  1
  Zr  Zr67  1  0.51521941  0.49614909  0.38101316  1
  Zr  Zr68  1  0.09543781  0.30466486  0.13078587  1
  Zr  Zr69  1  0.49938843  0.90583374  0.87601876  1
  Zr  Zr70  1  0.89707794  0.10113481  0.38354250  1
  Zr  Zr71  1  0.70934384  0.90373475  0.88371403  1
  Zr  Zr72  1  0.60294148  0.79167509  0.75343504  1
  Zr  Zr73  1  0.50107854  0.91745625  0.12178007  1
  Zr  Zr74  1  0.30196656  0.29398926  0.12676681  1
  Zr  Zr75  1  0.08894307  0.28819572  0.36279172  1
  Zr  Zr76  1  -0.00533650  0.60567570  0.26183552  1
  Zr  Zr77  1  0.89364367  0.09415825  0.87099813  1
  Zr  Zr78  1  0.81190812  0.38606947  0.75673135  1
  Zr  Zr79  1  0.78766737  0.19542769  -0.00189532  1
  Ta  Ta80  1  0.29791022  0.89689041  0.62804432  1
  Ta  Ta81  1  0.69174672  0.29968800  0.12737979  1
  Ta  Ta82  1  0.90016516  0.47746672  0.36510629  1
  Ta  Ta83  1  0.08771740  0.07838690  0.14052117  1
  Ta  Ta84  1  0.38129385  0.00151151  0.00142549  1
  Ta  Ta85  1  0.70370291  0.70398985  0.62648944  1
  Ta  Ta86  1  0.39491694  -0.00390080  0.73784260  1
  Ta  Ta87  1  0.50245163  0.50424408  0.61114517  1
  Ta  Ta88  1  0.18903222  0.60450479  0.00347747  1
  Ta  Ta89  1  0.40719173  0.80349862  0.00542987  1
  Ta  Ta90  1  0.39052415  0.40542969  0.48301490  1
  Ta  Ta91  1  0.10724030  0.49291393  0.61937910  1
  Ta  Ta92  1  0.68534402  0.29492340  0.86063204  1
  Ta  Ta93  1  0.60258834  0.39692770  0.24368078  1
  Ta  Ta94  1  0.10666426  0.69682494  0.62986632  1
  Ta  Ta95  1  0.10367925  0.08727145  0.36141607  1
  Ta  Ta96  1  0.89326458  0.89320201  0.62479220  1
  Ta  Ta97  1  0.30429067  0.49086311  0.61358951  1
  Ta  Ta98  1  0.60465366  0.79553945  0.00147307  1
  Ta  Ta99  1  0.50844184  0.70388586  0.61809195  1
  Ta  Ta100  1  0.50257547  0.29692485  0.13279130  1
  Ta  Ta101  1  0.30128887  0.50292063  0.89009689  1
  Ta  Ta102  1  0.40590978  0.41003904  0.01232070  1
  Ta  Ta103  1  0.58862363  0.40499161  0.74720989  1
  Ta  Ta104  1  0.59278541  0.20361926  -0.00386435  1
  Ta  Ta105  1  0.10023195  0.29800941  0.62149194  1
  Ta  Ta106  1  0.92381598  0.90903910  0.13642064  1
  Ta  Ta107  1  0.50741989  0.69959361  0.88233388  1
  Ta  Ta108  1  0.01390569  0.59723959  0.75134844  1
  Ta  Ta109  1  0.60048507  0.19717887  0.50285902  1
  Ta  Ta110  1  0.10849850  0.89210474  0.14401805  1
  Ta  Ta111  1  0.71033780  0.49297134  0.13480237  1
  Ta  Ta112  1  -0.00639512  0.38811668  0.49992016  1
  Ta  Ta113  1  0.28627956  0.10627889  0.63562550  1
  Ta  Ta114  1  0.69202229  0.50262932  0.62781200  1
  Ta  Ta115  1  0.19345424  0.40348826  -0.00001785  1
  Ta  Ta116  1  0.60748652  0.80653862  0.50157947  1
  Ta  Ta117  1  0.70196798  0.69444417  0.88290736  1
  Ta  Ta118  1  0.39477513  0.41233615  0.74539615  1
  Ta  Ta119  1  -0.00621532  0.21618097  0.75825040  1
  Ti  Ti120  1  0.79664640  -0.00949627  0.74464061  1
  Ti  Ti121  1  0.09011923  0.50578041  0.12321088  1
  Ti  Ti122  1  0.59290580  -0.00957216  0.74488239  1
  Ti  Ti123  1  0.21608270  0.79878581  0.23908971  1
  Ti  Ti124  1  0.01204051  0.39869930  0.75417766  1
  Ti  Ti125  1  0.80641099  0.21193638  0.49621965  1
  Ti  Ti126  1  0.80283775  0.40342705  0.50641477  1
  Ti  Ti127  1  0.40067106  0.83031624  0.24802198  1
  Ti  Ti128  1  0.40057221  0.79879732  0.74253828  1
  Ti  Ti129  1  0.58485030  -0.00535515  0.50092287  1
  Ti  Ti130  1  0.80636349  0.80368038  0.75979239  1
  Ti  Ti131  1  0.59031524  0.01099615  -0.00532553  1
  Ti  Ti132  1  0.20509942  0.18450363  0.24128817  1
  Ti  Ti133  1  0.39666467  0.60863985  0.00904221  1
  Ti  Ti134  1  0.59941683  0.80602498  0.24554430  1
  Ti  Ti135  1  0.93152161  0.69619620  0.12222227  1
  Ti  Ti136  1  0.81489512  0.00483588  0.01365701  1
  Ti  Ti137  1  0.09484782  0.49206955  0.37227448  1
  Ti  Ti138  1  0.10799708  0.70487405  0.86624344  1
  Ti  Ti139  1  0.29173548  0.09919273  0.37133725  1
  Ti  Ti140  1  0.90992040  0.30024331  0.88737063  1
  Ti  Ti141  1  0.91445172  0.89741199  0.87897724  1
  Ti  Ti142  1  0.69268114  0.50235784  0.86894499  1
  Ti  Ti143  1  0.47803593  0.08064344  0.38826055  1
  Ti  Ti144  1  0.30728509  0.70132885  0.61950915  1
  Ti  Ti145  1  0.69852897  0.89065832  0.62642824  1
  Ti  Ti146  1  0.51096573  0.72615241  0.37438846  1
  Ti  Ti147  1  0.58524319  0.19811396  0.25439788  1
  Ti  Ti148  1  0.39382819  0.19034366  0.25485984  1
  Ti  Ti149  1  0.12321341  0.89377687  0.35530902  1
  Ti  Ti150  1  0.90932238  0.49516344  0.12681236  1
  Ti  Ti151  1  0.01651412  0.80516584  0.75024098  1
  Ti  Ti152  1  0.00372897  0.20121995  0.49392229  1
  Ti  Ti153  1  0.91488697  0.70068979  0.87409831  1
  Ti  Ti154  1  0.48220648  0.10564409  0.12616878  1
  Ti  Ti155  1  0.18124661  0.20250715  0.76342049  1
  Ti  Ti156  1  0.57491281  0.00326224  0.25976384  1
  Ti  Ti157  1  0.09946887  0.50011791  0.88546860  1
  Ti  Ti158  1  0.71715048  0.71053418  0.37253101  1
  Ti  Ti159  1  0.49642060  0.89446017  0.62112769  1
  Mo  Mo160  1  0.18642448  0.19465861  0.49507154  1
  Mo  Mo161  1  -0.00488898  -0.01016825  0.00512882  1
  Mo  Mo162  1  0.00835520  0.60325948  0.00053097  1
  Mo  Mo163  1  0.60166750  0.59754990  0.74670247  1
  Mo  Mo164  1  0.01776791  0.79163908  0.25203180  1
  Mo  Mo165  1  0.88815820  0.68607260  0.36845468  1
  Mo  Mo166  1  0.80459334  0.39857952  0.24326976  1
  Mo  Mo167  1  0.28491855  0.30842933  0.62363758  1
  Mo  Mo168  1  -0.00025958  0.40202454  0.24797878  1
  Mo  Mo169  1  0.80654996  0.59674525  0.22896796  1
  Mo  Mo170  1  0.49014091  0.89680003  0.37980163  1
  Mo  Mo171  1  0.30562902  0.70726466  0.13049383  1
  Mo  Mo172  1  0.11147473  0.69138415  0.12953245  1
  Mo  Mo173  1  0.60430942  0.40114205  0.50720341  1
  Mo  Mo174  1  0.09164168  0.88992321  0.87273613  1
  Mo  Mo175  1  0.00751878  0.40567615  -0.00136302  1
  Mo  Mo176  1  0.59650748  0.21157806  0.74309302  1
  Mo  Mo177  1  0.21471992  -0.00497166  0.25070936  1
  Mo  Mo178  1  0.29831059  0.28765453  0.36041457  1
  Mo  Mo179  1  0.30376893  0.91038290  0.12464788  1
  Mo  Mo180  1  0.10065723  0.71368000  0.37123535  1
  Mo  Mo181  1  0.29184638  0.08844814  0.12586127  1
  Mo  Mo182  1  0.91311759  0.29618795  0.62078810  1
  Mo  Mo183  1  0.08989925  0.10428552  0.86987896  1
  Mo  Mo184  1  0.19893566  0.79154481  0.73467658  1
  Mo  Mo185  1  0.39649288  0.01396223  0.25139977  1
  Mo  Mo186  1  0.00963490  -0.00618567  0.26025699  1
  Mo  Mo187  1  0.80443406  0.20022299  0.75696749  1
  Mo  Mo188  1  0.09317746  0.88649546  0.62240720  1
  Mo  Mo189  1  0.50131317  0.31090768  0.86939043  1
  Mo  Mo190  1  0.89390434  0.30190830  0.37945445  1
  Mo  Mo191  1  0.89421095  0.09342311  0.12814190  1
  Mo  Mo192  1  0.79354907  0.79766733  0.50538742  1
  Mo  Mo193  1  0.70069646  0.70249188  0.11720285  1
  Mo  Mo194  1  0.39556380  -0.00448360  0.51490330  1
  Mo  Mo195  1  0.40846685  0.80927620  0.50961673  1
  Mo  Mo196  1  0.29995919  0.50048842  0.37701083  1
  Mo  Mo197  1  0.09250710  0.30341768  0.88519043  1
  Mo  Mo198  1  0.50100617  0.49227704  0.13059589  1
  Mo  Mo199  1  0.31552459  0.91724015  0.37917356  1
