# generated using pymatgen
data_HfZrTaTiMo
_symmetry_space_group_name_H-M   'P 1'
_cell_length_a   15.21064204
_cell_length_b   15.21776891
_cell_length_c   16.82329898
_cell_angle_alpha   90.00544082
_cell_angle_beta   89.99683634
_cell_angle_gamma   89.96447182
_symmetry_Int_Tables_number   1
_chemical_formula_structural   HfZrTaTiMo
_chemical_formula_sum   'Hf40 Zr40 Ta40 Ti40 Mo40'
_cell_volume   3894.12248718
_cell_formula_units_Z   40
loop_
 _symmetry_equiv_pos_site_id
 _symmetry_equiv_pos_as_xyz
  1  'x, y, z'
loop_
 _atom_site_type_symbol
 _atom_site_label
 _atom_site_symmetry_multiplicity
 _atom_site_fract_x
 _atom_site_fract_y
 _atom_site_fract_z
 _atom_site_occupancy
  Hf  Hf0  1  0.28831918  0.11048383  0.87145173  1
  Hf  Hf1  1  0.10147372  0.69348224  0.88786142  1
  Hf  Hf2  1  0.30581580  0.10120554  0.11548936  1
  Hf  Hf3  1  0.08816236  0.51605831  0.38374079  1
  Hf  Hf4  1  0.10779910  0.88882466  0.12426389  1
  Hf  Hf5  1  0.28835127  0.49228426  0.36825281  1
  Hf  Hf6  1  0.29630277  0.52329670  0.13980560  1
  Hf  Hf7  1  0.38911998  0.79422317  -0.00708140  1
  Hf  Hf8  1  0.90101680  0.10405754  0.87247162  1
  Hf  Hf9  1  0.81295410  0.79907742  0.75407208  1
  Hf  Hf10  1  0.23055495  0.20105449  0.50993325  1
  Hf  Hf11  1  0.49139629  0.50665718  0.85841783  1
  Hf  Hf12  1  -0.00229479  -0.00154196  0.23960299  1
  Hf  Hf13  1  0.00178088  0.01169085  0.01897741  1
  Hf  Hf14  1  0.33309377  0.29642615  0.37288675  1
  Hf  Hf15  1  0.58966704  0.79231091  0.25993340  1
  Hf  Hf16  1  0.60516687  0.19480196  0.77768793  1
  Hf  Hf17  1  0.29499288  0.70310051  0.62515316  1
  Hf  Hf18  1  0.80094990  0.00033952  0.00475360  1
  Hf  Hf19  1  0.90303951  0.09853207  0.62476951  1
  Hf  Hf20  1  0.69193208  0.50770656  0.64502399  1
  Hf  Hf21  1  0.88825417  0.69094185  0.11111109  1
  Hf  Hf22  1  0.19621192  0.40050452  0.01518514  1
  Hf  Hf23  1  0.38699157  0.00462790  0.50019136  1
  Hf  Hf24  1  0.13235415  0.30968917  0.38477931  1
  Hf  Hf25  1  0.09054123  0.50653168  0.60858583  1
  Hf  Hf26  1  0.60597438  0.40178404  -0.01084427  1
  Hf  Hf27  1  0.19055959  0.59552341  0.74735520  1
  Hf  Hf28  1  0.49575123  0.48052656  0.37188199  1
  Hf  Hf29  1  0.59799841  0.79894739  0.50108510  1
  Hf  Hf30  1  0.49276698  0.69630394  0.85958904  1
  Hf  Hf31  1  0.01073392  0.19002066  0.48420776  1
  Hf  Hf32  1  0.70502982  0.89463382  0.37493070  1
  Hf  Hf33  1  0.39832322  0.60219464  0.49099697  1
  Hf  Hf34  1  0.00006459  -0.01199478  0.49525955  1
  Hf  Hf35  1  0.40484166  0.21281233  0.75967016  1
  Hf  Hf36  1  0.59651406  0.00171002  0.23891946  1
  Hf  Hf37  1  0.80351971  0.59648802  0.49762599  1
  Hf  Hf38  1  0.49898486  0.69982240  0.63591613  1
  Hf  Hf39  1  0.43500814  0.20379488  0.52868994  1
  Zr  Zr40  1  0.80532888  0.20294389  0.25531066  1
  Zr  Zr41  1  0.49059497  0.68254849  0.12546890  1
  Zr  Zr42  1  0.11517641  0.90345596  0.36437917  1
  Zr  Zr43  1  0.90197482  0.89113177  0.62241616  1
  Zr  Zr44  1  0.09763361  0.09252034  0.87273943  1
  Zr  Zr45  1  0.48990123  0.89192544  0.11922011  1
  Zr  Zr46  1  0.01395851  0.79631237  0.75125570  1
  Zr  Zr47  1  0.59727561  0.38576974  0.76305549  1
  Zr  Zr48  1  0.89579930  0.48506260  0.13332125  1
  Zr  Zr49  1  0.11059302  0.30091133  0.61233901  1
  Zr  Zr50  1  0.70070164  0.51087722  0.13202254  1
  Zr  Zr51  1  0.19549256  0.00546822  0.50887950  1
  Zr  Zr52  1  0.59919188  0.59993679  -0.00572045  1
  Zr  Zr53  1  0.80998854  0.21086072  0.75352787  1
  Zr  Zr54  1  -0.00915266  0.60254478  0.25017764  1
  Zr  Zr55  1  0.00553576  0.39134545  0.75054452  1
  Zr  Zr56  1  0.78571048  0.79476458  -0.00515728  1
  Zr  Zr57  1  0.69353737  0.10861634  0.62347357  1
  Zr  Zr58  1  0.40120672  0.42402398  0.00943051  1
  Zr  Zr59  1  0.00314669  0.56799617  0.00051241  1
  Zr  Zr60  1  0.48952192  0.90210667  0.87412208  1
  Zr  Zr61  1  0.59406716  0.39351856  0.23450521  1
  Zr  Zr62  1  -0.01902043  0.39977767  0.48642231  1
  Zr  Zr63  1  0.59723765  0.20057175  0.23322191  1
  Zr  Zr64  1  0.20987992  0.22206345  0.23232879  1
  Zr  Zr65  1  0.60473918  0.80970211  0.74703293  1
  Zr  Zr66  1  0.69655879  0.09904579  0.37868197  1
  Zr  Zr67  1  0.58801208  0.00934499  0.50567481  1
  Zr  Zr68  1  0.01397932  0.18799615  0.26460533  1
  Zr  Zr69  1  0.49216342  0.12227099  0.37377097  1
  Zr  Zr70  1  0.91067359  0.28138305  0.12055493  1
  Zr  Zr71  1  0.80296030  -0.00699807  0.23998726  1
  Zr  Zr72  1  0.10174022  0.69092181  0.11356133  1
  Zr  Zr73  1  -0.00275058  0.38867723  0.26553930  1
  Zr  Zr74  1  0.89798188  0.68901269  0.88904294  1
  Zr  Zr75  1  0.60509079  -0.00922070  -0.00405610  1
  Zr  Zr76  1  0.58727512  0.38784219  0.51262598  1
  Zr  Zr77  1  0.78839501  0.39880607  0.50265962  1
  Zr  Zr78  1  0.60048098  0.59767479  0.49499167  1
  Zr  Zr79  1  0.39660096  0.00084994  0.24920287  1
  Ta  Ta80  1  0.01448583  0.19822175  0.74584140  1
  Ta  Ta81  1  0.40006702  0.60999000  0.27026473  1
  Ta  Ta82  1  0.79159524  -0.00016549  0.75641481  1
  Ta  Ta83  1  0.39544951  0.39609270  0.22972291  1
  Ta  Ta84  1  0.91048425  0.90162923  0.88257431  1
  Ta  Ta85  1  0.71127174  0.30293065  0.10968905  1
  Ta  Ta86  1  0.89219188  0.48809746  0.86087828  1
  Ta  Ta87  1  0.70582819  0.10925899  0.11333461  1
  Ta  Ta88  1  0.28976808  0.49828372  0.62259343  1
  Ta  Ta89  1  0.19418404  -0.00926100  0.74599100  1
  Ta  Ta90  1  0.29342825  0.49822359  0.86938765  1
  Ta  Ta91  1  0.80967295  0.40760558  -0.00664490  1
  Ta  Ta92  1  0.70561965  0.49589453  0.36010537  1
  Ta  Ta93  1  0.89203795  0.49900246  0.63796308  1
  Ta  Ta94  1  0.20571002  -0.00099226  0.00509397  1
  Ta  Ta95  1  0.00462073  0.79303570  0.25211286  1
  Ta  Ta96  1  0.29479131  0.71562763  0.13310966  1
  Ta  Ta97  1  0.09982318  0.89773140  0.88652811  1
  Ta  Ta98  1  0.49449458  0.90135204  0.37722151  1
  Ta  Ta99  1  0.38625646  0.21730665  -0.00888603  1
  Ta  Ta100  1  0.48833268  0.91282168  0.63366352  1
  Ta  Ta101  1  0.39031991  0.39492263  0.51545641  1
  Ta  Ta102  1  0.70004513  0.90329288  0.62466041  1
  Ta  Ta103  1  0.19488910  0.62869745  0.26703220  1
  Ta  Ta104  1  0.19679116  0.61275931  0.49044300  1
  Ta  Ta105  1  0.50060748  0.10378318  0.09610114  1
  Ta  Ta106  1  0.29802287  0.89891379  0.63243796  1
  Ta  Ta107  1  0.68813777  0.30027734  0.37516591  1
  Ta  Ta108  1  0.28391925  0.09914034  0.36445055  1
  Ta  Ta109  1  0.48652491  0.50087786  0.64024353  1
  Ta  Ta110  1  -0.00514290  0.59911275  0.75059742  1
  Ta  Ta111  1  0.80606286  0.20238113  0.49430164  1
  Ta  Ta112  1  0.71205913  0.70404046  0.63154083  1
  Ta  Ta113  1  0.59497270  0.00786375  0.75786429  1
  Ta  Ta114  1  0.79874028  -0.00522386  0.49953298  1
  Ta  Ta115  1  0.69690378  0.68895608  0.85902474  1
  Ta  Ta116  1  0.69992436  0.88699118  0.12941088  1
  Ta  Ta117  1  0.48972661  0.10002512  0.89318386  1
  Ta  Ta118  1  0.11626518  0.28877319  0.87533532  1
  Ta  Ta119  1  0.30855877  0.09803194  0.64896689  1
  Ti  Ti120  1  0.10386416  0.09537643  0.63398980  1
  Ti  Ti121  1  0.19605910  0.01077836  0.23983975  1
  Ti  Ti122  1  0.89881751  0.08719117  0.37890071  1
  Ti  Ti123  1  0.90349398  0.88623555  0.37509790  1
  Ti  Ti124  1  0.80855479  0.78695125  0.24980146  1
  Ti  Ti125  1  0.59788660  0.79376071  -0.00480663  1
  Ti  Ti126  1  0.70440442  0.30122811  0.63314706  1
  Ti  Ti127  1  0.20079861  0.80033449  -0.00621819  1
  Ti  Ti128  1  0.20670549  0.38414855  0.74786908  1
  Ti  Ti129  1  0.70938133  0.50668366  0.85635678  1
  Ti  Ti130  1  0.80769707  0.79825045  0.50013379  1
  Ti  Ti131  1  0.90385343  0.29923828  0.62211178  1
  Ti  Ti132  1  0.69536431  0.70040360  0.13260784  1
  Ti  Ti133  1  0.40988474  0.20481002  0.23061059  1
  Ti  Ti134  1  0.10294873  0.89066784  0.62202642  1
  Ti  Ti135  1  0.09533215  0.70392946  0.61110109  1
  Ti  Ti136  1  0.90696864  0.69393081  0.38112821  1
  Ti  Ti137  1  0.50157484  0.29779573  0.10247904  1
  Ti  Ti138  1  -0.00361482  -0.00765270  0.74829109  1
  Ti  Ti139  1  0.81266841  0.20125030  -0.00639065  1
  Ti  Ti140  1  0.21758182  0.59808931  -0.00169918  1
  Ti  Ti141  1  0.90904903  0.69200529  0.61781116  1
  Ti  Ti142  1  0.39069403  0.39893083  0.74708127  1
  Ti  Ti143  1  0.90069390  0.88406025  0.11986204  1
  Ti  Ti144  1  0.39675384  0.80454456  0.49220747  1
  Ti  Ti145  1  0.38801859  0.80857467  0.75167360  1
  Ti  Ti146  1  0.30040248  0.69205288  0.86624173  1
  Ti  Ti147  1  0.38279818  0.79746712  0.27038808  1
  Ti  Ti148  1  0.70744480  0.69550497  0.36965624  1
  Ti  Ti149  1  0.29918838  0.89834004  0.12566913  1
  Ti  Ti150  1  0.00371749  0.37903314  -0.00718618  1
  Ti  Ti151  1  0.20466907  0.80635292  0.49331011  1
  Ti  Ti152  1  0.72728225  0.30635179  0.87907282  1
  Ti  Ti153  1  0.59336889  0.60000774  0.26000877  1
  Ti  Ti154  1  0.60984190  0.20278725  -0.01768088  1
  Ti  Ti155  1  0.29326790  0.90923910  0.87137174  1
  Ti  Ti156  1  0.19917469  0.79998349  0.75548811  1
  Ti  Ti157  1  0.10162988  0.48782370  0.87158270  1
  Ti  Ti158  1  0.18463596  0.20361452  0.01759702  1
  Ti  Ti159  1  0.70470660  0.90101935  0.87138588  1
  Mo  Mo160  1  0.80499108  0.39725860  0.74726535  1
  Mo  Mo161  1  0.00150629  0.80533827  -0.00292186  1
  Mo  Mo162  1  0.00652028  0.79327749  0.49549703  1
  Mo  Mo163  1  0.89473849  0.09780507  0.12225020  1
  Mo  Mo164  1  0.91503762  0.29982876  0.88046748  1
  Mo  Mo165  1  0.30698573  0.30512052  0.12104374  1
  Mo  Mo166  1  0.20983553  0.40948808  0.50001007  1
  Mo  Mo167  1  0.38510298  0.59718815  0.74183111  1
  Mo  Mo168  1  0.79488946  0.39389788  0.25515145  1
  Mo  Mo169  1  0.19878416  0.20148764  0.74161916  1
  Mo  Mo170  1  0.49309019  0.30099335  0.89295418  1
  Mo  Mo171  1  0.30880427  0.30756782  0.63143245  1
  Mo  Mo172  1  0.29257789  0.31375242  0.87749187  1
  Mo  Mo173  1  0.20219597  0.80800505  0.25034467  1
  Mo  Mo174  1  0.09848851  0.31005118  0.12611860  1
  Mo  Mo175  1  0.49629413  0.50574069  0.13576877  1
  Mo  Mo176  1  0.38856501  0.00407430  -0.00287806  1
  Mo  Mo177  1  0.88464170  0.50395939  0.36579699  1
  Mo  Mo178  1  0.79231564  0.60850369  0.25832897  1
  Mo  Mo179  1  0.39594562  0.00130356  0.75434354  1
  Mo  Mo180  1  0.00692569  0.20306355  -0.00205187  1
  Mo  Mo181  1  0.79013020  0.58576215  -0.01005553  1
  Mo  Mo182  1  0.50461959  0.30124126  0.37259603  1
  Mo  Mo183  1  0.51177997  0.30405219  0.64154976  1
  Mo  Mo184  1  -0.00993426  0.60559761  0.50332872  1
  Mo  Mo185  1  0.19418027  0.41663490  0.23756934  1
  Mo  Mo186  1  0.10173216  0.10393555  0.12229547  1
  Mo  Mo187  1  0.10932798  0.10220290  0.37327821  1
  Mo  Mo188  1  0.49960314  0.70291135  0.37722231  1
  Mo  Mo189  1  0.61839633  0.20961547  0.50773342  1
  Mo  Mo190  1  0.30509674  0.90640125  0.37609162  1
  Mo  Mo191  1  0.38720986  0.60636228  -0.00485403  1
  Mo  Mo192  1  0.09232150  0.71217733  0.38397357  1
  Mo  Mo193  1  0.88242746  0.29496181  0.37618222  1
  Mo  Mo194  1  0.50327381  0.09754323  0.64246877  1
  Mo  Mo195  1  0.10257668  0.49805992  0.13749766  1
  Mo  Mo196  1  0.29455366  0.70930509  0.38218473  1
  Mo  Mo197  1  0.80812997  0.60511162  0.74431435  1
  Mo  Mo198  1  0.70360391  0.09668402  0.88168524  1
  Mo  Mo199  1  0.59852906  0.60303834  0.74616950  1
