# generated using pymatgen
data_HfZrTaTiMo
_symmetry_space_group_name_H-M   'P 1'
_cell_length_a   15.21943439
_cell_length_b   15.20127029
_cell_length_c   16.86400667
_cell_angle_alpha   90.01866392
_cell_angle_beta   89.94520020
_cell_angle_gamma   90.06168438
_symmetry_Int_Tables_number   1
_chemical_formula_structural   HfZrTaTiMo
_chemical_formula_sum   'Hf40 Zr40 Ta40 Ti40 Mo40'
_cell_volume   3901.56355874
_cell_formula_units_Z   40
loop_
 _symmetry_equiv_pos_site_id
 _symmetry_equiv_pos_as_xyz
  1  'x, y, z'
loop_
 _atom_site_type_symbol
 _atom_site_label
 _atom_site_symmetry_multiplicity
 _atom_site_fract_x
 _atom_site_fract_y
 _atom_site_fract_z
 _atom_site_occupancy
  Hf  Hf0  1  0.49984140  0.89517008  0.14702302  1
  Hf  Hf1  1  0.40863034  0.41048173  0.76617248  1
  Hf  Hf2  1  0.42517279  0.20539811  0.51491084  1
  Hf  Hf3  1  0.10251468  0.29082794  0.37740660  1
  Hf  Hf4  1  0.19940399  0.20313969  0.75044549  1
  Hf  Hf5  1  0.51642373  0.08045333  0.86530221  1
  Hf  Hf6  1  0.59884615  0.38164636  0.49645022  1
  Hf  Hf7  1  0.89265226  0.31368836  0.62095133  1
  Hf  Hf8  1  0.68678188  0.28822657  0.36376970  1
  Hf  Hf9  1  0.80257342  0.17884080  0.24372418  1
  Hf  Hf10  1  0.81536455  0.40779079  -0.00105822  1
  Hf  Hf11  1  0.19684008  0.39579339  0.25729943  1
  Hf  Hf12  1  0.88954737  0.68507059  0.88846491  1
  Hf  Hf13  1  0.41008177  0.19857711  0.74261387  1
  Hf  Hf14  1  0.09498994  0.90265686  0.86821393  1
  Hf  Hf15  1  0.09110489  0.69749671  0.89019051  1
  Hf  Hf16  1  0.18844638  0.59531910  0.24153149  1
  Hf  Hf17  1  0.41203637  -0.02586792  0.75168896  1
  Hf  Hf18  1  0.31386254  0.51294540  0.37172786  1
  Hf  Hf19  1  0.09424869  0.30732704  0.62117783  1
  Hf  Hf20  1  0.29981294  0.09837104  0.87664210  1
  Hf  Hf21  1  0.19562514  0.80140640  0.01318531  1
  Hf  Hf22  1  -0.01412693  0.62709558  0.49769288  1
  Hf  Hf23  1  0.91497716  0.30556788  0.14286975  1
  Hf  Hf24  1  0.29425336  0.10833461  0.11995231  1
  Hf  Hf25  1  -0.01014991  0.61545891  0.25329673  1
  Hf  Hf26  1  0.40254519  0.39232282  0.25047959  1
  Hf  Hf27  1  0.68652703  0.92209240  0.87119216  1
  Hf  Hf28  1  0.69203042  0.30029568  0.13167766  1
  Hf  Hf29  1  -0.00678382  0.81621956  0.01154137  1
  Hf  Hf30  1  0.09981802  0.50312313  0.88366555  1
  Hf  Hf31  1  0.80215898  0.19975235  0.01660153  1
  Hf  Hf32  1  0.31291141  0.68858793  0.12423988  1
  Hf  Hf33  1  0.57778708  0.80153248  0.75270338  1
  Hf  Hf34  1  0.59265809  0.61175442  0.00150864  1
  Hf  Hf35  1  0.79873643  0.20515181  0.50169052  1
  Hf  Hf36  1  -0.00602343  0.78363900  0.75088955  1
  Hf  Hf37  1  -0.01192313  0.81586215  0.23427865  1
  Hf  Hf38  1  0.18186784  0.80509459  0.22789091  1
  Hf  Hf39  1  0.50112447  0.88577255  0.61038746  1
  Zr  Zr40  1  0.08914178  0.10313782  0.86316583  1
  Zr  Zr41  1  0.19782033  0.40797072  0.75852940  1
  Zr  Zr42  1  0.49988939  0.12560814  0.36496828  1
  Zr  Zr43  1  0.41307411  0.19526593  0.00213014  1
  Zr  Zr44  1  0.79079171  0.80274188  -0.00134843  1
  Zr  Zr45  1  0.49499705  0.67333763  0.35316951  1
  Zr  Zr46  1  0.71251066  0.09154365  0.38293467  1
  Zr  Zr47  1  0.61038185  0.80116193  0.26956455  1
  Zr  Zr48  1  0.30296843  0.88973586  0.87938790  1
  Zr  Zr49  1  0.59570983  0.58653855  0.49659345  1
  Zr  Zr50  1  0.40934399  -0.01298904  0.00305906  1
  Zr  Zr51  1  0.61461783  0.01405236  0.25361436  1
  Zr  Zr52  1  0.79390457  0.01454843  0.73699524  1
  Zr  Zr53  1  0.61969592  0.39632180  0.75996293  1
  Zr  Zr54  1  0.20169484  0.19722637  0.50689764  1
  Zr  Zr55  1  0.59891022  -0.00380664  0.48531902  1
  Zr  Zr56  1  0.29712093  0.87830093  0.62494505  1
  Zr  Zr57  1  0.29039918  0.68363664  0.88953232  1
  Zr  Zr58  1  0.30285593  0.08807612  0.62652715  1
  Zr  Zr59  1  0.60727729  0.02820711  0.02267038  1
  Zr  Zr60  1  0.29624348  0.09988173  0.37417512  1
  Zr  Zr61  1  0.51110850  0.28770049  0.87764986  1
  Zr  Zr62  1  0.89193987  0.11550865  0.86685453  1
  Zr  Zr63  1  0.29573371  0.71190980  0.34870701  1
  Zr  Zr64  1  0.18844943  -0.01599637  0.49856024  1
  Zr  Zr65  1  -0.00520356  0.40635128  0.48242925  1
  Zr  Zr66  1  0.79961557  0.59925046  0.74704841  1
  Zr  Zr67  1  0.09595120  0.50744270  0.61968938  1
  Zr  Zr68  1  0.30107157  0.90054078  0.12377041  1
  Zr  Zr69  1  0.61152821  0.79066993  0.47772384  1
  Zr  Zr70  1  0.40941946  0.41210480  0.49658445  1
  Zr  Zr71  1  0.20585105  0.62158827  0.49593439  1
  Zr  Zr72  1  0.30534108  0.31237810  0.62582047  1
  Zr  Zr73  1  0.69786672  0.50355168  0.12327977  1
  Zr  Zr74  1  0.39007517  0.78042218  0.49007730  1
  Zr  Zr75  1  0.59167433  0.81443451  0.00336492  1
  Zr  Zr76  1  0.89754048  0.88528780  0.61646851  1
  Zr  Zr77  1  0.71937972  0.90293939  0.14046218  1
  Zr  Zr78  1  0.30955428  0.51989119  0.62463556  1
  Zr  Zr79  1  0.79087424  0.80231935  0.75434360  1
  Ta  Ta80  1  0.68449966  0.70099761  0.87443264  1
  Ta  Ta81  1  0.89953412  0.90928888  0.87457617  1
  Ta  Ta82  1  0.58996130  0.40398596  -0.00675314  1
  Ta  Ta83  1  0.08919205  0.73164676  0.37565279  1
  Ta  Ta84  1  0.70903659  0.50908771  0.88711406  1
  Ta  Ta85  1  0.09423835  0.48607475  0.11988379  1
  Ta  Ta86  1  0.90287864  0.50158695  0.13511226  1
  Ta  Ta87  1  0.31241609  0.29444013  0.37838604  1
  Ta  Ta88  1  0.18071784  0.00747960  0.00302434  1
  Ta  Ta89  1  0.79293994  0.41193618  0.48413343  1
  Ta  Ta90  1  0.69894455  0.69851554  0.14223627  1
  Ta  Ta91  1  -0.00530558  0.19239078  0.50225726  1
  Ta  Ta92  1  0.18817922  0.21115691  -0.00604890  1
  Ta  Ta93  1  0.29679240  0.49085132  0.11960111  1
  Ta  Ta94  1  0.09914218  0.89787762  0.63651929  1
  Ta  Ta95  1  0.51045537  0.49202724  0.63471297  1
  Ta  Ta96  1  0.89721206  0.29486259  0.36694625  1
  Ta  Ta97  1  0.29769833  0.30408666  0.11540807  1
  Ta  Ta98  1  0.69447309  0.70310903  0.62347274  1
  Ta  Ta99  1  0.40098480  0.57321475  -0.00824869  1
  Ta  Ta100  1  0.39815500  -0.00391236  0.49237267  1
  Ta  Ta101  1  0.39232508  0.01144926  0.24676647  1
  Ta  Ta102  1  0.47718984  0.90227485  0.36206859  1
  Ta  Ta103  1  0.59430722  0.59793611  0.75471899  1
  Ta  Ta104  1  0.08853340  0.09766271  0.63336021  1
  Ta  Ta105  1  0.19860248  -0.00363979  0.74738409  1
  Ta  Ta106  1  0.00745890  0.38474648  0.00101833  1
  Ta  Ta107  1  0.89538577  0.50396681  0.61909980  1
  Ta  Ta108  1  0.90994858  0.09091698  0.37958307  1
  Ta  Ta109  1  0.19743794  0.61073639  0.75027333  1
  Ta  Ta110  1  0.70641055  0.49504719  0.62500178  1
  Ta  Ta111  1  0.88455856  0.52060855  0.37204177  1
  Ta  Ta112  1  0.71486615  0.29844791  0.88374332  1
  Ta  Ta113  1  0.69355235  0.89689414  0.61771968  1
  Ta  Ta114  1  0.81087922  0.00815889  0.00027322  1
  Ta  Ta115  1  0.79900826  0.40747440  0.26205458  1
  Ta  Ta116  1  0.20265826  0.40658081  0.48726967  1
  Ta  Ta117  1  -0.00072981  0.19664499  0.00481476  1
  Ta  Ta118  1  0.18652335  0.00430120  0.24350244  1
  Ta  Ta119  1  0.72370414  0.67720204  0.35907120  1
  Ti  Ti120  1  0.69858538  0.11690256  0.87595393  1
  Ti  Ti121  1  -0.01033362  -0.00054243  0.73965982  1
  Ti  Ti122  1  0.08310424  0.30174165  0.86864239  1
  Ti  Ti123  1  0.20717849  0.19937250  0.24903544  1
  Ti  Ti124  1  0.00034155  0.00143972  0.50834965  1
  Ti  Ti125  1  0.90448538  0.92877405  0.12232293  1
  Ti  Ti126  1  0.79607549  0.21406802  0.74185967  1
  Ti  Ti127  1  0.10269995  0.71053130  0.62364487  1
  Ti  Ti128  1  0.20297643  0.79392551  0.75474187  1
  Ti  Ti129  1  0.41342449  0.77919724  -0.00250248  1
  Ti  Ti130  1  0.48257249  0.68318985  0.62561107  1
  Ti  Ti131  1  0.80980881  -0.00671334  0.50539837  1
  Ti  Ti132  1  0.74352104  0.88521146  0.37136575  1
  Ti  Ti133  1  0.69413328  0.30191304  0.62347479  1
  Ti  Ti134  1  0.10925361  0.29551977  0.12776953  1
  Ti  Ti135  1  -0.00327320  0.58610027  0.75060388  1
  Ti  Ti136  1  0.00928036  0.19575684  0.25304526  1
  Ti  Ti137  1  -0.01726793  0.58082463  0.00535858  1
  Ti  Ti138  1  0.08864523  0.10197221  0.12237873  1
  Ti  Ti139  1  0.92420279  0.89019756  0.38755202  1
  Ti  Ti140  1  0.00129994  0.41142317  0.26640511  1
  Ti  Ti141  1  0.82044954  0.40455414  0.76498923  1
  Ti  Ti142  1  0.49702999  0.30009910  0.11941581  1
  Ti  Ti143  1  0.40097656  0.60571289  0.76828631  1
  Ti  Ti144  1  0.49417323  0.49935523  0.12742097  1
  Ti  Ti145  1  0.00003560  0.00784648  0.25200181  1
  Ti  Ti146  1  0.79301286  0.61018469  0.50600322  1
  Ti  Ti147  1  0.50248020  0.69221887  0.14617435  1
  Ti  Ti148  1  0.08750720  0.68351799  0.10959520  1
  Ti  Ti149  1  0.28473204  0.90011804  0.36398848  1
  Ti  Ti150  1  0.30077228  0.30404888  0.88400315  1
  Ti  Ti151  1  0.88480057  0.69528582  0.11598893  1
  Ti  Ti152  1  0.09937521  0.51607139  0.37957142  1
  Ti  Ti153  1  0.51361651  0.08732933  0.62615613  1
  Ti  Ti154  1  0.09674393  0.09372502  0.37606655  1
  Ti  Ti155  1  -0.01438465  0.21137359  0.74010937  1
  Ti  Ti156  1  0.59504489  0.40442528  0.25738405  1
  Ti  Ti157  1  0.61052402  0.19058345  0.73856784  1
  Ti  Ti158  1  0.20662385  0.40459317  -0.00601223  1
  Ti  Ti159  1  0.70048501  0.09779734  0.61291668  1
  Mo  Mo160  1  0.50277447  0.11280659  0.14308707  1
  Mo  Mo161  1  0.09326918  0.91859904  0.11970605  1
  Mo  Mo162  1  0.91053135  0.10104862  0.12882799  1
  Mo  Mo163  1  0.18913479  0.80142663  0.49695227  1
  Mo  Mo164  1  0.82827211  -0.01498465  0.26209327  1
  Mo  Mo165  1  0.60343675  -0.00067389  0.73396645  1
  Mo  Mo166  1  0.90026675  0.68898523  0.62741036  1
  Mo  Mo167  1  0.51049771  0.50398340  0.87553124  1
  Mo  Mo168  1  0.60356524  0.19604387  0.51420521  1
  Mo  Mo169  1  -0.00706659  0.40245880  0.74967670  1
  Mo  Mo170  1  0.49538762  0.30080282  0.36992229  1
  Mo  Mo171  1  0.50695385  0.49036048  0.36583904  1
  Mo  Mo172  1  0.60268259  0.58716749  0.24549854  1
  Mo  Mo173  1  0.90696748  0.49379501  0.87801801  1
  Mo  Mo174  1  0.80883105  0.78562625  0.50159553  1
  Mo  Mo175  1  0.29555846  0.69722559  0.63578369  1
  Mo  Mo176  1  0.39645425  0.80473017  0.24917154  1
  Mo  Mo177  1  0.39317831  0.20495249  0.23561473  1
  Mo  Mo178  1  0.51309273  0.30133268  0.63982388  1
  Mo  Mo179  1  0.69822803  0.49678418  0.37136734  1
  Mo  Mo180  1  0.90516850  0.30027053  0.87471095  1
  Mo  Mo181  1  0.50086181  0.88974860  0.87842632  1
  Mo  Mo182  1  0.80403534  0.59678695  0.24312998  1
  Mo  Mo183  1  0.40993514  0.60063638  0.50204610  1
  Mo  Mo184  1  0.29881683  0.49443229  0.87996836  1
  Mo  Mo185  1  0.59317543  0.20990782  0.23742596  1
  Mo  Mo186  1  -0.00656619  0.00971729  -0.00527571  1
  Mo  Mo187  1  0.39024631  0.77730826  0.75036244  1
  Mo  Mo188  1  0.81658280  0.79192838  0.24626933  1
  Mo  Mo189  1  0.09813087  0.91295859  0.36735609  1
  Mo  Mo190  1  0.89482529  0.71699757  0.37558016  1
  Mo  Mo191  1  0.79483336  0.60282094  0.00388603  1
  Mo  Mo192  1  0.19232471  0.58962999  0.01708515  1
  Mo  Mo193  1  0.01507851  0.81176678  0.50710893  1
  Mo  Mo194  1  0.90190055  0.10502624  0.61980902  1
  Mo  Mo195  1  0.71349883  0.09770025  0.13086057  1
  Mo  Mo196  1  0.40079290  0.39578924  -0.00124701  1
  Mo  Mo197  1  0.39946947  0.58715421  0.23265320  1
  Mo  Mo198  1  0.49526339  0.69695024  0.87600091  1
  Mo  Mo199  1  0.60982083  0.21102760  0.00530669  1
