# generated using pymatgen
data_HfZrTaTiMo
_symmetry_space_group_name_H-M   'P 1'
_cell_length_a   15.21577239
_cell_length_b   15.20669006
_cell_length_c   16.86709355
_cell_angle_alpha   90.05746145
_cell_angle_beta   89.98932249
_cell_angle_gamma   89.93320791
_symmetry_Int_Tables_number   1
_chemical_formula_structural   HfZrTaTiMo
_chemical_formula_sum   'Hf40 Zr40 Ta40 Ti40 Mo40'
_cell_volume   3902.72931013
_cell_formula_units_Z   40
loop_
 _symmetry_equiv_pos_site_id
 _symmetry_equiv_pos_as_xyz
  1  'x, y, z'
loop_
 _atom_site_type_symbol
 _atom_site_label
 _atom_site_symmetry_multiplicity
 _atom_site_fract_x
 _atom_site_fract_y
 _atom_site_fract_z
 _atom_site_occupancy
  Hf  Hf0  1  0.09303539  0.50177138  0.11455014  1
  Hf  Hf1  1  0.29029075  0.49993367  0.37941966  1
  Hf  Hf2  1  0.01098884  0.00651210  0.48559686  1
  Hf  Hf3  1  0.20583623  0.40353774  0.51553553  1
  Hf  Hf4  1  0.70292330  0.69803202  0.13079606  1
  Hf  Hf5  1  0.27592494  0.70204056  0.63354176  1
  Hf  Hf6  1  0.59241937  0.41173777  -0.00306616  1
  Hf  Hf7  1  0.80447961  0.01202558  0.26139256  1
  Hf  Hf8  1  0.59266419  0.80554851  0.51186594  1
  Hf  Hf9  1  0.19974007  0.18690172  0.75914979  1
  Hf  Hf10  1  0.50895621  0.91099321  0.87410576  1
  Hf  Hf11  1  0.49090196  0.08992933  0.36993475  1
  Hf  Hf12  1  0.40325042  0.01447652  0.76394215  1
  Hf  Hf13  1  0.89694783  0.49734007  0.88103146  1
  Hf  Hf14  1  0.38999006  0.02426044  -0.01093237  1
  Hf  Hf15  1  0.60509485  0.80028913  -0.00404791  1
  Hf  Hf16  1  0.21730707  0.39719147  0.74249928  1
  Hf  Hf17  1  0.20398857  0.80288528  0.00849423  1
  Hf  Hf18  1  -0.00102096  0.41031139  0.74086838  1
  Hf  Hf19  1  0.21312812  -0.01297975  0.49092464  1
  Hf  Hf20  1  0.70980170  0.70664624  0.62372134  1
  Hf  Hf21  1  0.89414249  0.09961077  0.86763875  1
  Hf  Hf22  1  0.70164372  0.49959370  0.63297032  1
  Hf  Hf23  1  0.60208103  0.20261322  0.25852752  1
  Hf  Hf24  1  0.01183706  0.02789405  0.26494629  1
  Hf  Hf25  1  0.71016830  0.90856157  0.86457158  1
  Hf  Hf26  1  0.48704492  0.30706980  0.13007442  1
  Hf  Hf27  1  0.91169510  0.91051050  0.87563041  1
  Hf  Hf28  1  0.09593403  0.27673918  0.12672000  1
  Hf  Hf29  1  0.29306665  0.89765215  0.87885734  1
  Hf  Hf30  1  0.09632283  0.51244250  0.87949319  1
  Hf  Hf31  1  0.60515032  0.01008105  0.00570174  1
  Hf  Hf32  1  0.50462423  0.08487034  0.62466963  1
  Hf  Hf33  1  0.80096017  0.59480951  0.26201418  1
  Hf  Hf34  1  0.37937143  0.59841402  0.51580437  1
  Hf  Hf35  1  0.90589567  0.68882954  0.12425645  1
  Hf  Hf36  1  0.18971341  0.19717060  0.49621777  1
  Hf  Hf37  1  0.50028931  0.49278126  0.38661301  1
  Hf  Hf38  1  0.90563838  0.52129032  0.61947437  1
  Hf  Hf39  1  0.82053222  0.80075617  0.74659393  1
  Zr  Zr40  1  0.39415386  0.19008776  0.50480531  1
  Zr  Zr41  1  0.48017294  0.69460251  0.38324305  1
  Zr  Zr42  1  0.68759336  0.30619475  0.86458225  1
  Zr  Zr43  1  0.10384578  0.67989625  0.37121236  1
  Zr  Zr44  1  0.30855285  0.68761007  0.11617016  1
  Zr  Zr45  1  0.60837121  0.00136772  0.49699965  1
  Zr  Zr46  1  0.39500702  0.22071564  0.73777029  1
  Zr  Zr47  1  0.92370563  0.69911301  0.88804569  1
  Zr  Zr48  1  0.00287567  0.41378947  0.24422763  1
  Zr  Zr49  1  0.01312339  0.81113748  0.01285684  1
  Zr  Zr50  1  0.40373479  0.78307323  0.23500991  1
  Zr  Zr51  1  0.48566858  0.10148190  0.13033013  1
  Zr  Zr52  1  0.31227892  0.88438046  0.36511895  1
  Zr  Zr53  1  0.70096062  0.90131041  0.13540992  1
  Zr  Zr54  1  0.80599327  0.60215967  0.75461764  1
  Zr  Zr55  1  0.20157470  0.59073187  0.24347280  1
  Zr  Zr56  1  -0.00568384  0.20542512  0.50486520  1
  Zr  Zr57  1  0.20771737  0.59237176  0.00155869  1
  Zr  Zr58  1  0.50537231  0.89027994  0.36230720  1
  Zr  Zr59  1  0.69659965  0.31814353  0.37326155  1
  Zr  Zr60  1  0.00890031  0.40971226  0.51062272  1
  Zr  Zr61  1  0.39769022  0.79887741  0.75426051  1
  Zr  Zr62  1  0.60664238  0.40411184  0.51187842  1
  Zr  Zr63  1  0.70437031  0.89396044  0.36730231  1
  Zr  Zr64  1  0.29064131  0.08701301  0.62411018  1
  Zr  Zr65  1  0.11668475  0.88930807  0.62495577  1
  Zr  Zr66  1  0.20145178  0.38380292  -0.00397034  1
  Zr  Zr67  1  0.51157732  0.67583542  0.10897401  1
  Zr  Zr68  1  0.90713231  0.30700314  0.37360868  1
  Zr  Zr69  1  0.09468994  0.29718736  0.86834197  1
  Zr  Zr70  1  0.80131562  0.80194931  -0.00173189  1
  Zr  Zr71  1  0.89227280  0.10144255  0.62928297  1
  Zr  Zr72  1  0.49741257  0.69227425  0.88073575  1
  Zr  Zr73  1  0.78791207  0.20065323  -0.00562827  1
  Zr  Zr74  1  0.90605760  0.89383714  0.61319527  1
  Zr  Zr75  1  0.59819920  0.20378184  0.49508481  1
  Zr  Zr76  1  0.40387191  0.38952235  0.53202183  1
  Zr  Zr77  1  0.79358821  0.40567383  0.24613738  1
  Zr  Zr78  1  0.69195755  0.29882861  0.12524511  1
  Zr  Zr79  1  0.90864333  0.90806490  0.13643740  1
  Ta  Ta80  1  0.70315315  0.29086706  0.63347375  1
  Ta  Ta81  1  0.11273144  0.90924452  0.14636168  1
  Ta  Ta82  1  0.59184358  0.60592513  0.74205605  1
  Ta  Ta83  1  0.79319170  0.40492459  0.00113982  1
  Ta  Ta84  1  0.30672360  0.91128603  0.12776677  1
  Ta  Ta85  1  0.81144580  0.19897747  0.25499001  1
  Ta  Ta86  1  -0.00806669  0.20344016  0.74527659  1
  Ta  Ta87  1  0.59941984  0.00163403  0.24638317  1
  Ta  Ta88  1  0.40587838  0.56906230  0.24508106  1
  Ta  Ta89  1  0.80934968  0.00825831  0.00636354  1
  Ta  Ta90  1  0.00354826  0.18839128  -0.00599834  1
  Ta  Ta91  1  0.79472949  0.60026434  0.49123652  1
  Ta  Ta92  1  0.68670959  0.50879441  0.12160033  1
  Ta  Ta93  1  0.29661795  0.28923062  0.12879007  1
  Ta  Ta94  1  0.09841708  0.88748840  0.86638522  1
  Ta  Ta95  1  0.90925977  0.89861695  0.37365098  1
  Ta  Ta96  1  0.58416822  0.41962538  0.24869694  1
  Ta  Ta97  1  0.10045863  0.29299948  0.63525242  1
  Ta  Ta98  1  0.29705994  0.69090724  0.87701116  1
  Ta  Ta99  1  0.79531495  0.20131987  0.75363105  1
  Ta  Ta100  1  0.31646832  0.49161045  0.86731893  1
  Ta  Ta101  1  0.91311038  0.51187276  0.38427922  1
  Ta  Ta102  1  0.29849468  0.29767297  0.37391482  1
  Ta  Ta103  1  0.20781820  0.18295366  -0.01267196  1
  Ta  Ta104  1  0.09289937  0.08022312  0.87012546  1
  Ta  Ta105  1  0.89626701  0.30153574  0.87508650  1
  Ta  Ta106  1  0.91371236  0.11248282  0.12469230  1
  Ta  Ta107  1  0.49095499  0.70668359  0.62448900  1
  Ta  Ta108  1  0.89805607  0.29858855  0.12187191  1
  Ta  Ta109  1  0.09918715  0.70327410  0.13782221  1
  Ta  Ta110  1  0.80386382  0.00960811  0.48542981  1
  Ta  Ta111  1  0.68937590  0.69867449  0.37790063  1
  Ta  Ta112  1  0.00241979  0.79663585  0.25566212  1
  Ta  Ta113  1  0.89737467  0.70535396  0.38239521  1
  Ta  Ta114  1  0.38113750  0.19562009  0.25510667  1
  Ta  Ta115  1  0.39366271  0.40671749  0.00380859  1
  Ta  Ta116  1  -0.00966249  0.39219370  0.00288932  1
  Ta  Ta117  1  0.79317692  0.20008185  0.49608724  1
  Ta  Ta118  1  0.11125528  0.89309554  0.35970865  1
  Ta  Ta119  1  0.47910413  0.31147128  0.87334636  1
  Ti  Ti120  1  0.21244810  0.00481841  0.25512584  1
  Ti  Ti121  1  0.19829537  0.60370351  0.76025307  1
  Ti  Ti122  1  0.70593457  0.10448209  0.12875876  1
  Ti  Ti123  1  0.69750925  0.69830839  0.86776939  1
  Ti  Ti124  1  0.59735854  0.60340781  0.25848840  1
  Ti  Ti125  1  0.59758816  0.60123153  0.50909275  1
  Ti  Ti126  1  0.10531029  0.31047284  0.36942254  1
  Ti  Ti127  1  0.70140829  0.09906995  0.63377519  1
  Ti  Ti128  1  0.20124501  -0.01534994  0.75099811  1
  Ti  Ti129  1  0.00700016  0.62822838  0.74702976  1
  Ti  Ti130  1  0.18450143  0.19123674  0.26063459  1
  Ti  Ti131  1  0.40181263  0.80334677  0.00277369  1
  Ti  Ti132  1  0.21063932  0.39296749  0.24401146  1
  Ti  Ti133  1  0.50147683  0.89636974  0.13012759  1
  Ti  Ti134  1  -0.00078929  -0.00816478  0.74254296  1
  Ti  Ti135  1  0.68850626  0.09641503  0.86662093  1
  Ti  Ti136  1  0.09651804  0.09267452  0.63206855  1
  Ti  Ti137  1  0.70177637  0.91506948  0.63578926  1
  Ti  Ti138  1  0.28230267  0.10194807  0.12821939  1
  Ti  Ti139  1  0.80555377  0.39883210  0.50728667  1
  Ti  Ti140  1  0.57646292  0.20151634  -0.01045161  1
  Ti  Ti141  1  0.80209510  0.79452781  0.25590482  1
  Ti  Ti142  1  0.32214518  0.89412005  0.62288248  1
  Ti  Ti143  1  0.00906010  0.79935930  0.48472004  1
  Ti  Ti144  1  0.69262738  0.50292022  0.86272724  1
  Ti  Ti145  1  0.80038588  0.80495793  0.49681457  1
  Ti  Ti146  1  0.80461585  0.39397112  0.74509043  1
  Ti  Ti147  1  0.29989549  0.09350935  0.37316740  1
  Ti  Ti148  1  0.18184078  -0.00113310  0.00246346  1
  Ti  Ti149  1  0.21194772  0.78047969  0.48761392  1
  Ti  Ti150  1  0.58989765  0.19457504  0.75373950  1
  Ti  Ti151  1  0.48639531  0.30103639  0.36808760  1
  Ti  Ti152  1  0.78755043  0.59705538  -0.00669224  1
  Ti  Ti153  1  0.58202437  0.39867698  0.73774374  1
  Ti  Ti154  1  0.60168254  0.80608665  0.74269814  1
  Ti  Ti155  1  0.89115849  0.50144207  0.11283290  1
  Ti  Ti156  1  0.39666725  0.59069603  0.73850271  1
  Ti  Ti157  1  0.50147286  0.50303870  0.86642309  1
  Ti  Ti158  1  0.08176523  0.70214137  0.61267642  1
  Ti  Ti159  1  0.11201749  0.52060296  0.62917943  1
  Mo  Mo160  1  0.28999650  0.09814410  0.87297493  1
  Mo  Mo161  1  0.79716296  0.00530809  0.74563834  1
  Mo  Mo162  1  0.29471852  0.50709623  0.63901723  1
  Mo  Mo163  1  0.30159930  0.69035449  0.37302717  1
  Mo  Mo164  1  0.40838707  0.41065771  0.73731134  1
  Mo  Mo165  1  -0.00822321  0.60304292  0.24974786  1
  Mo  Mo166  1  0.51169982  0.29543553  0.63168137  1
  Mo  Mo167  1  -0.00211410  0.59490743  0.00392362  1
  Mo  Mo168  1  0.38732881  0.21477727  -0.00423977  1
  Mo  Mo169  1  0.40633463  0.58484359  -0.01026022  1
  Mo  Mo170  1  0.70303196  0.10671905  0.37090880  1
  Mo  Mo171  1  0.30658847  0.47828928  0.12808225  1
  Mo  Mo172  1  0.00578496  0.00673116  0.00407844  1
  Mo  Mo173  1  0.30328712  0.30158797  0.87741276  1
  Mo  Mo174  1  0.60649582  0.78977276  0.24680949  1
  Mo  Mo175  1  0.39336302  0.39070021  0.25536910  1
  Mo  Mo176  1  0.90445696  0.70770556  0.60505955  1
  Mo  Mo177  1  0.11252887  0.70411607  0.87645491  1
  Mo  Mo178  1  0.50947269  0.89664599  0.63884557  1
  Mo  Mo179  1  0.19259582  0.79078224  0.75501468  1
  Mo  Mo180  1  0.18525989  0.59623590  0.50407687  1
  Mo  Mo181  1  0.69721553  0.51264119  0.38323448  1
  Mo  Mo182  1  0.29073705  0.29349056  0.62290109  1
  Mo  Mo183  1  0.50365077  0.11800628  0.87504844  1
  Mo  Mo184  1  0.01008499  0.79959251  0.74567753  1
  Mo  Mo185  1  0.39856575  0.00297985  0.23916158  1
  Mo  Mo186  1  -0.00135347  0.20774245  0.25259442  1
  Mo  Mo187  1  0.11220723  0.10468028  0.37662920  1
  Mo  Mo188  1  0.10555706  0.09632550  0.12275283  1
  Mo  Mo189  1  0.50375251  0.51186671  0.63095707  1
  Mo  Mo190  1  0.00013622  0.60847659  0.49980340  1
  Mo  Mo191  1  0.60500309  0.00448930  0.74983826  1
  Mo  Mo192  1  0.49829321  0.49764450  0.12364749  1
  Mo  Mo193  1  0.89050174  0.30654732  0.63099688  1
  Mo  Mo194  1  0.39388337  0.80428106  0.51023934  1
  Mo  Mo195  1  0.09695130  0.48486041  0.37120321  1
  Mo  Mo196  1  0.89776542  0.10761089  0.38191108  1
  Mo  Mo197  1  0.40743042  -0.02251261  0.50292370  1
  Mo  Mo198  1  0.20130813  0.80121012  0.24113110  1
  Mo  Mo199  1  0.61442952  0.59217046  -0.01373906  1
