# generated using pymatgen
data_HfZrTaTiMo
_symmetry_space_group_name_H-M   'P 1'
_cell_length_a   15.21059455
_cell_length_b   15.21891294
_cell_length_c   16.84131479
_cell_angle_alpha   89.99816337
_cell_angle_beta   89.98309342
_cell_angle_gamma   90.02093733
_symmetry_Int_Tables_number   1
_chemical_formula_structural   HfZrTaTiMo
_chemical_formula_sum   'Hf40 Zr40 Ta40 Ti40 Mo40'
_cell_volume   3898.57387416
_cell_formula_units_Z   40
loop_
 _symmetry_equiv_pos_site_id
 _symmetry_equiv_pos_as_xyz
  1  'x, y, z'
loop_
 _atom_site_type_symbol
 _atom_site_label
 _atom_site_symmetry_multiplicity
 _atom_site_fract_x
 _atom_site_fract_y
 _atom_site_fract_z
 _atom_site_occupancy
  Hf  Hf0  1  0.58101834  0.80934334  0.24473783  1
  Hf  Hf1  1  0.68619039  0.30105285  0.61239018  1
  Hf  Hf2  1  0.89381545  0.51184595  0.62500612  1
  Hf  Hf3  1  0.71238886  0.31677091  0.13047875  1
  Hf  Hf4  1  0.48640201  0.89444457  0.63302927  1
  Hf  Hf5  1  0.80088600  0.42175877  0.49882100  1
  Hf  Hf6  1  0.59586112  -0.00024397  0.00409726  1
  Hf  Hf7  1  0.30482513  0.09474018  0.13787345  1
  Hf  Hf8  1  0.38613582  0.79356468  0.75937055  1
  Hf  Hf9  1  0.08462629  0.68984144  0.88809612  1
  Hf  Hf10  1  -0.01427329  0.00563971  0.24651895  1
  Hf  Hf11  1  0.20646644  0.38687566  -0.00146599  1
  Hf  Hf12  1  0.70880901  0.50548245  0.35244575  1
  Hf  Hf13  1  0.00157719  0.60665074  0.74329196  1
  Hf  Hf14  1  0.21075087  -0.01272858  0.00978373  1
  Hf  Hf15  1  0.48944650  0.69217770  0.37346247  1
  Hf  Hf16  1  0.38990346  0.00591395  0.50420999  1
  Hf  Hf17  1  0.40958986  0.60560207  0.76226950  1
  Hf  Hf18  1  0.87978050  0.69233125  0.13681835  1
  Hf  Hf19  1  0.88703236  0.89447372  0.37021187  1
  Hf  Hf20  1  0.59079872  0.78252545  0.74425918  1
  Hf  Hf21  1  0.69817570  0.11518271  0.85995932  1
  Hf  Hf22  1  0.09239440  0.90198528  0.36972262  1
  Hf  Hf23  1  0.59600623  0.79460718  0.50499616  1
  Hf  Hf24  1  0.70177996  0.10774118  0.38178692  1
  Hf  Hf25  1  0.09682779  0.10348677  0.11033543  1
  Hf  Hf26  1  0.31281642  0.28986624  0.12487574  1
  Hf  Hf27  1  0.89121823  0.28959042  0.61732203  1
  Hf  Hf28  1  0.38891139  0.59459025  0.23128023  1
  Hf  Hf29  1  0.08087478  0.89332620  0.11703833  1
  Hf  Hf30  1  0.90524612  0.50260653  0.87852902  1
  Hf  Hf31  1  0.51275146  0.49615009  0.12286054  1
  Hf  Hf32  1  -0.00613046  -0.00300852  0.50704238  1
  Hf  Hf33  1  0.10674243  0.49981215  0.38635965  1
  Hf  Hf34  1  0.70581743  0.48733580  0.89271673  1
  Hf  Hf35  1  0.59294328  0.01137839  0.73446945  1
  Hf  Hf36  1  0.70585494  0.67966462  0.61528693  1
  Hf  Hf37  1  0.51275872  0.29020735  0.39384596  1
  Hf  Hf38  1  0.91865492  0.49651042  0.13066864  1
  Hf  Hf39  1  0.89904989  0.09735834  0.86690672  1
  Zr  Zr40  1  0.31539921  0.51241726  0.62539651  1
  Zr  Zr41  1  0.87631036  0.90186736  0.12404791  1
  Zr  Zr42  1  0.09764535  0.70070276  0.37590524  1
  Zr  Zr43  1  0.79275187  0.79012654  0.74234850  1
  Zr  Zr44  1  0.49074458  0.90797442  0.87197895  1
  Zr  Zr45  1  0.21112264  0.39339910  0.74871390  1
  Zr  Zr46  1  0.38085611  0.78728021  0.49562146  1
  Zr  Zr47  1  0.28468330  0.90406717  0.63474808  1
  Zr  Zr48  1  0.28545991  0.91124963  0.86477840  1
  Zr  Zr49  1  0.29202084  0.10764945  0.36247634  1
  Zr  Zr50  1  0.49809459  0.09026959  0.37881068  1
  Zr  Zr51  1  0.10174497  0.29699101  0.12469110  1
  Zr  Zr52  1  0.51207003  0.50921584  0.89626126  1
  Zr  Zr53  1  0.11526095  0.29685849  0.38045450  1
  Zr  Zr54  1  0.08713082  0.89263552  0.62785448  1
  Zr  Zr55  1  0.70843735  0.10512545  0.12405797  1
  Zr  Zr56  1  0.18861466  0.59696762  0.23381493  1
  Zr  Zr57  1  0.30895296  0.50216790  0.88312344  1
  Zr  Zr58  1  0.50348627  0.48617953  0.35115950  1
  Zr  Zr59  1  0.81766874  0.19639424  0.24784975  1
  Zr  Zr60  1  0.71064410  0.30482966  0.37686490  1
  Zr  Zr61  1  0.91435412  0.29928785  0.38679069  1
  Zr  Zr62  1  0.19552021  0.58960011  0.02095580  1
  Zr  Zr63  1  0.22184719  0.40158373  0.24691323  1
  Zr  Zr64  1  0.60152531  0.20960305  0.00193022  1
  Zr  Zr65  1  0.41871280  0.39977154  0.74962425  1
  Zr  Zr66  1  0.88895782  0.89678987  0.87443651  1
  Zr  Zr67  1  0.09739768  0.09427239  0.88600373  1
  Zr  Zr68  1  0.59246379  0.00513748  0.23755250  1
  Zr  Zr69  1  0.59758888  -0.00066387  0.52076100  1
  Zr  Zr70  1  0.72260373  0.50903559  0.12791618  1
  Zr  Zr71  1  0.00642521  0.39549349  0.73983649  1
  Zr  Zr72  1  0.29470445  0.89342690  0.36885565  1
  Zr  Zr73  1  0.69015386  0.90435072  0.86387490  1
  Zr  Zr74  1  0.48970719  0.67263605  0.61532468  1
  Zr  Zr75  1  0.79777792  0.00243434  0.51564267  1
  Zr  Zr76  1  0.10265978  0.48875669  0.87553125  1
  Zr  Zr77  1  0.01160363  0.19177022  0.73934085  1
  Zr  Zr78  1  0.68289188  0.89969337  0.37695433  1
  Zr  Zr79  1  0.08490315  0.89605073  0.88615072  1
  Ta  Ta80  1  0.18913525  -0.00203532  0.23994999  1
  Ta  Ta81  1  0.01301550  0.19869306  0.25083900  1
  Ta  Ta82  1  0.29625261  0.11208119  0.62871838  1
  Ta  Ta83  1  0.79427903  0.00629240  -0.00230593  1
  Ta  Ta84  1  0.79746563  0.39595790  0.74986819  1
  Ta  Ta85  1  0.41411629  0.38906952  0.00123764  1
  Ta  Ta86  1  0.21871518  0.40521508  0.50412113  1
  Ta  Ta87  1  0.21322556  0.20088778  0.76050335  1
  Ta  Ta88  1  0.47755875  0.90680035  0.11403633  1
  Ta  Ta89  1  0.11988705  0.29609587  0.61488858  1
  Ta  Ta90  1  0.10943516  0.50651418  0.61269873  1
  Ta  Ta91  1  0.21077752  0.19825810  0.50080975  1
  Ta  Ta92  1  0.81045168  0.21443540  -0.00709171  1
  Ta  Ta93  1  0.01099811  0.18581200  0.51549305  1
  Ta  Ta94  1  0.59851958  0.20986795  0.24809540  1
  Ta  Ta95  1  0.79923941  0.79945633  0.50794589  1
  Ta  Ta96  1  0.18941613  0.00932623  0.50334962  1
  Ta  Ta97  1  0.21674406  0.61211720  0.49603435  1
  Ta  Ta98  1  0.20250565  0.60530254  0.75162714  1
  Ta  Ta99  1  0.38144634  0.81537387  -0.00092117  1
  Ta  Ta100  1  0.76681446  0.79760102  0.00258632  1
  Ta  Ta101  1  0.41208505  0.20756452  0.74424147  1
  Ta  Ta102  1  0.61698942  0.61862590  0.01380181  1
  Ta  Ta103  1  -0.00639331  0.79494800  0.75234773  1
  Ta  Ta104  1  0.42199261  0.41457372  0.50813012  1
  Ta  Ta105  1  0.90802844  0.50515847  0.36336025  1
  Ta  Ta106  1  0.49406215  0.70948631  0.11082920  1
  Ta  Ta107  1  -0.00918204  0.78894660  0.24827939  1
  Ta  Ta108  1  0.49137837  0.11442227  0.87073057  1
  Ta  Ta109  1  0.50737580  0.30380281  0.12965965  1
  Ta  Ta110  1  0.71663582  0.11469693  0.63913953  1
  Ta  Ta111  1  0.59892428  0.57494982  0.49213579  1
  Ta  Ta112  1  0.21759115  0.19182239  -0.01479356  1
  Ta  Ta113  1  -0.03093274  0.78099723  0.00175136  1
  Ta  Ta114  1  0.31891312  0.31052939  0.38396090  1
  Ta  Ta115  1  0.09611260  0.10099463  0.37327965  1
  Ta  Ta116  1  0.18372342  0.78733230  0.75721310  1
  Ta  Ta117  1  0.19446161  0.79752517  0.23369316  1
  Ta  Ta118  1  0.60778518  0.61631967  0.23572509  1
  Ta  Ta119  1  0.29300766  0.70039988  0.89208949  1
  Ti  Ti120  1  0.90485963  0.29972283  0.87124284  1
  Ti  Ti121  1  0.39981343  -0.01662478  0.25216393  1
  Ti  Ti122  1  0.60505492  0.58711207  0.75601564  1
  Ti  Ti123  1  0.00028181  0.39042772  -0.00224330  1
  Ti  Ti124  1  0.28863532  0.70389477  0.62936279  1
  Ti  Ti125  1  0.81464697  0.61067541  -0.00590597  1
  Ti  Ti126  1  0.90529501  0.70500471  0.61611000  1
  Ti  Ti127  1  0.38822502  0.79545969  0.24702135  1
  Ti  Ti128  1  -0.00953332  0.79668010  0.49673578  1
  Ti  Ti129  1  0.89056858  0.69546283  0.37074601  1
  Ti  Ti130  1  0.10051391  0.69672003  0.61763303  1
  Ti  Ti131  1  0.31718640  0.29924189  0.61682093  1
  Ti  Ti132  1  -0.00680126  0.60003509  0.49951640  1
  Ti  Ti133  1  0.69279654  0.69509689  0.87784770  1
  Ti  Ti134  1  0.90220481  0.10301320  0.38175711  1
  Ti  Ti135  1  0.77643284  0.79691168  0.24811923  1
  Ti  Ti136  1  0.69388450  0.49616076  0.62879699  1
  Ti  Ti137  1  0.30103278  0.70710979  0.11296589  1
  Ti  Ti138  1  0.38853049  0.01903352  0.74663596  1
  Ti  Ti139  1  0.78817045  -0.00270328  0.24897315  1
  Ti  Ti140  1  0.70158636  0.69723353  0.38086254  1
  Ti  Ti141  1  0.60739859  0.39153082  0.75258234  1
  Ti  Ti142  1  0.40394126  0.20688546  0.25620913  1
  Ti  Ti143  1  0.31179595  0.50997311  0.37929755  1
  Ti  Ti144  1  0.32346098  0.28630133  0.87919504  1
  Ti  Ti145  1  0.52279503  0.30468746  0.87952813  1
  Ti  Ti146  1  0.90918985  0.10628939  0.10632218  1
  Ti  Ti147  1  0.00975233  0.40018596  0.50972940  1
  Ti  Ti148  1  0.49571331  0.70609427  0.90298399  1
  Ti  Ti149  1  0.19039522  0.80461439  0.49872212  1
  Ti  Ti150  1  0.79637289  0.59632349  0.75967124  1
  Ti  Ti151  1  0.18064128  0.00992214  0.74608747  1
  Ti  Ti152  1  0.49225950  0.11147902  0.12597681  1
  Ti  Ti153  1  0.18670820  0.79260233  0.01015538  1
  Ti  Ti154  1  0.07411361  0.68498043  0.12164534  1
  Ti  Ti155  1  0.01272536  0.40282115  0.25116858  1
  Ti  Ti156  1  0.90833714  0.29938485  0.12316226  1
  Ti  Ti157  1  0.50342872  0.12916371  0.61776462  1
  Ti  Ti158  1  0.88803162  0.90311617  0.63916368  1
  Ti  Ti159  1  0.39494739  0.02297832  -0.00530510  1
  Mo  Mo160  1  0.81659788  0.39310122  -0.00182730  1
  Mo  Mo161  1  0.40520262  0.19932412  -0.00164564  1
  Mo  Mo162  1  -0.01642509  -0.00221999  0.00524485  1
  Mo  Mo163  1  0.60849937  0.19087730  0.50437271  1
  Mo  Mo164  1  0.09857665  0.48953091  0.12024119  1
  Mo  Mo165  1  0.80379827  0.61033276  0.48917900  1
  Mo  Mo166  1  0.82405337  0.39982349  0.25412287  1
  Mo  Mo167  1  0.10397438  0.28964301  0.88203398  1
  Mo  Mo168  1  0.80440564  0.61169179  0.25843497  1
  Mo  Mo169  1  0.71199772  0.30337948  0.87290256  1
  Mo  Mo170  1  0.59350113  0.21368918  0.75047651  1
  Mo  Mo171  1  0.39642168  0.20522548  0.50630460  1
  Mo  Mo172  1  0.48988967  0.89653146  0.37669781  1
  Mo  Mo173  1  0.60946603  0.39499801  0.24500041  1
  Mo  Mo174  1  0.61016173  0.40239045  0.00410802  1
  Mo  Mo175  1  0.30552505  0.10071393  0.86339508  1
  Mo  Mo176  1  0.29533385  0.89443558  0.13232035  1
  Mo  Mo177  1  0.80049804  0.00523300  0.73647105  1
  Mo  Mo178  1  0.40009635  0.59241346  0.49100841  1
  Mo  Mo179  1  0.00057855  0.20832030  -0.00903861  1
  Mo  Mo180  1  0.69730421  0.89392318  0.63287738  1
  Mo  Mo181  1  0.52118615  0.49550738  0.63004308  1
  Mo  Mo182  1  0.79963356  0.21442862  0.75415040  1
  Mo  Mo183  1  0.88593845  0.69880813  0.87680589  1
  Mo  Mo184  1  0.31424413  0.48878127  0.11314759  1
  Mo  Mo185  1  0.90634266  0.09373399  0.63925419  1
  Mo  Mo186  1  0.20206217  0.19511401  0.25381916  1
  Mo  Mo187  1  0.41314896  0.38717755  0.24932341  1
  Mo  Mo188  1  0.68829330  0.90073110  0.12216267  1
  Mo  Mo189  1  0.40022716  0.60471803  0.01505659  1
  Mo  Mo190  1  0.11214268  0.09847796  0.62697027  1
  Mo  Mo191  1  -0.00507076  0.59577924  0.00272578  1
  Mo  Mo192  1  -0.00533318  -0.00913077  0.74287342  1
  Mo  Mo193  1  0.58561980  0.80668034  0.00117732  1
  Mo  Mo194  1  0.50181363  0.30360239  0.61258380  1
  Mo  Mo195  1  0.69197359  0.70985572  0.12831505  1
  Mo  Mo196  1  0.60827577  0.40469282  0.49705825  1
  Mo  Mo197  1  0.29258464  0.69304861  0.36198310  1
  Mo  Mo198  1  0.00018541  0.59959571  0.25657998  1
  Mo  Mo199  1  0.81370093  0.19396573  0.50293045  1
