# generated using pymatgen
data_HfZrTaTiMo
_symmetry_space_group_name_H-M   'P 1'
_cell_length_a   15.16233773
_cell_length_b   15.18269163
_cell_length_c   16.80405726
_cell_angle_alpha   89.95837575
_cell_angle_beta   89.99044649
_cell_angle_gamma   89.99967954
_symmetry_Int_Tables_number   1
_chemical_formula_structural   HfZrTaTiMo
_chemical_formula_sum   'Hf40 Zr40 Ta40 Ti40 Mo40'
_cell_volume   3868.37857531
_cell_formula_units_Z   40
loop_
 _symmetry_equiv_pos_site_id
 _symmetry_equiv_pos_as_xyz
  1  'x, y, z'
loop_
 _atom_site_type_symbol
 _atom_site_label
 _atom_site_symmetry_multiplicity
 _atom_site_fract_x
 _atom_site_fract_y
 _atom_site_fract_z
 _atom_site_occupancy
  Hf  Hf0  1  0.38507871  0.60406071  0.00788257  1
  Hf  Hf1  1  0.60904054  0.60588997  0.74976164  1
  Hf  Hf2  1  0.51317430  0.90439324  0.62226751  1
  Hf  Hf3  1  0.89167816  0.30231485  0.88475120  1
  Hf  Hf4  1  0.80610826  0.80449776  0.75031569  1
  Hf  Hf5  1  0.31173749  0.72248339  0.38086116  1
  Hf  Hf6  1  -0.02090835  0.39048878  0.50652515  1
  Hf  Hf7  1  0.60474554  0.79545560  0.25496158  1
  Hf  Hf8  1  0.21775242  0.39919692  -0.00210702  1
  Hf  Hf9  1  0.20205691  0.59381203  0.74447220  1
  Hf  Hf10  1  -0.01654821  0.19914193  0.75341188  1
  Hf  Hf11  1  0.90411019  0.50232966  0.86810763  1
  Hf  Hf12  1  0.67764788  0.09934608  0.12310363  1
  Hf  Hf13  1  -0.00987186  -0.01242989  0.01333744  1
  Hf  Hf14  1  0.81229741  0.80933320  0.00139660  1
  Hf  Hf15  1  0.59581522  0.40641761  -0.00128928  1
  Hf  Hf16  1  0.29396548  0.30783007  0.61442015  1
  Hf  Hf17  1  0.20208928  -0.01751993  -0.00209904  1
  Hf  Hf18  1  0.12369161  0.89481496  0.37187374  1
  Hf  Hf19  1  0.48872441  0.29984617  0.12098219  1
  Hf  Hf20  1  0.49139732  0.89671039  0.39941200  1
  Hf  Hf21  1  0.01436430  0.79786791  0.01851465  1
  Hf  Hf22  1  0.22668801  0.00297009  0.24158790  1
  Hf  Hf23  1  0.19498619  0.19810124  0.76013524  1
  Hf  Hf24  1  0.30261270  0.70171689  0.87168052  1
  Hf  Hf25  1  0.10109841  0.70588589  0.37315146  1
  Hf  Hf26  1  0.69086784  0.10580752  0.39029422  1
  Hf  Hf27  1  0.89620874  0.70592742  0.36704092  1
  Hf  Hf28  1  0.11255178  0.10361017  0.12739177  1
  Hf  Hf29  1  0.88543226  0.50865395  0.63468679  1
  Hf  Hf30  1  0.59664907  0.61086464  -0.00208448  1
  Hf  Hf31  1  0.78781173  0.00382294  0.75818654  1
  Hf  Hf32  1  0.32305255  0.50238571  0.61842686  1
  Hf  Hf33  1  0.47933137  0.09933558  0.85921601  1
  Hf  Hf34  1  0.60281255  0.39746983  0.25503965  1
  Hf  Hf35  1  0.57827548  0.40629886  0.75078338  1
  Hf  Hf36  1  0.87873999  0.09859414  0.11600080  1
  Hf  Hf37  1  0.09873371  0.28917600  0.37064810  1
  Hf  Hf38  1  0.09273484  0.08716565  0.36411618  1
  Hf  Hf39  1  0.70477636  0.70396272  0.12160285  1
  Zr  Zr40  1  -0.00042439  0.19880721  0.00032784  1
  Zr  Zr41  1  0.60667648  0.59372524  0.24409375  1
  Zr  Zr42  1  0.49386158  0.69566803  0.61274734  1
  Zr  Zr43  1  0.91869154  0.70385044  0.86785156  1
  Zr  Zr44  1  -0.01078565  -0.01322984  0.74202997  1
  Zr  Zr45  1  0.21337640  0.59205162  0.26263481  1
  Zr  Zr46  1  0.22129787  0.18761222  -0.01974631  1
  Zr  Zr47  1  0.10202810  0.29838067  0.13740775  1
  Zr  Zr48  1  0.69397410  0.29582823  0.87819212  1
  Zr  Zr49  1  0.12224843  0.68259293  0.12084307  1
  Zr  Zr50  1  0.57767664  0.20216063  0.26273087  1
  Zr  Zr51  1  0.38852802  -0.00011230  0.51732161  1
  Zr  Zr52  1  -0.01279619  0.60450335  0.49669194  1
  Zr  Zr53  1  0.47027708  0.09630508  0.12387479  1
  Zr  Zr54  1  0.92277259  0.90093541  0.37205965  1
  Zr  Zr55  1  0.09336197  0.28488819  0.62205287  1
  Zr  Zr56  1  0.09565144  0.31024170  0.87690902  1
  Zr  Zr57  1  0.68328503  0.09684065  0.61402314  1
  Zr  Zr58  1  0.80383297  0.60271186  0.00006425  1
  Zr  Zr59  1  0.41000351  0.59336069  0.75243091  1
  Zr  Zr60  1  -0.01097817  0.18132974  0.49321595  1
  Zr  Zr61  1  0.81286641  0.00303595  0.49183111  1
  Zr  Zr62  1  0.10790142  0.48991049  0.61336379  1
  Zr  Zr63  1  0.59085560  0.18437145  -0.01214039  1
  Zr  Zr64  1  0.31481669  0.90676188  0.85628851  1
  Zr  Zr65  1  0.89278216  0.30268920  0.12327494  1
  Zr  Zr66  1  0.80390777  0.00421933  0.26089000  1
  Zr  Zr67  1  0.09862757  0.48682813  0.37836930  1
  Zr  Zr68  1  0.89097113  0.10531913  0.62562951  1
  Zr  Zr69  1  0.10953192  0.48942175  0.13002341  1
  Zr  Zr70  1  0.79112394  0.39949636  0.74620711  1
  Zr  Zr71  1  0.89948036  0.50675352  0.12496782  1
  Zr  Zr72  1  0.58644776  -0.00374940  0.26295972  1
  Zr  Zr73  1  0.18925856  -0.00151021  0.52428903  1
  Zr  Zr74  1  0.70566390  0.88523164  0.38560721  1
  Zr  Zr75  1  0.77952011  0.21183211  0.25496661  1
  Zr  Zr76  1  0.88675875  0.30994620  0.36508146  1
  Zr  Zr77  1  0.40735073  0.60938796  0.25089846  1
  Zr  Zr78  1  0.21659618  0.59475243  0.49110528  1
  Zr  Zr79  1  0.08699293  0.07897172  0.87491369  1
  Ta  Ta80  1  0.70206588  0.90827714  0.12393556  1
  Ta  Ta81  1  0.21023944  0.39958631  0.75553421  1
  Ta  Ta82  1  0.10216166  0.87603157  0.86734873  1
  Ta  Ta83  1  0.40274473  0.39987950  0.26360965  1
  Ta  Ta84  1  0.10518819  0.50682032  0.87715230  1
  Ta  Ta85  1  0.00493027  0.40130852  0.74373934  1
  Ta  Ta86  1  0.29849185  0.10564956  0.64197744  1
  Ta  Ta87  1  0.21140313  0.80281525  0.51974377  1
  Ta  Ta88  1  0.39284332  0.20122241  0.50402090  1
  Ta  Ta89  1  0.69234234  0.30871830  0.62105234  1
  Ta  Ta90  1  0.76880601  0.00265290  -0.01545628  1
  Ta  Ta91  1  0.51209427  0.90660537  0.11963107  1
  Ta  Ta92  1  0.51311876  0.50720570  0.38931083  1
  Ta  Ta93  1  0.40703820  0.82216730  0.25008488  1
  Ta  Ta94  1  0.00546383  -0.01034454  0.22782047  1
  Ta  Ta95  1  0.60999735  0.81593061  -0.01121849  1
  Ta  Ta96  1  0.59325939  0.20560452  0.74777780  1
  Ta  Ta97  1  0.41433139  0.81599939  -0.00561947  1
  Ta  Ta98  1  0.30144329  0.28580059  0.12982505  1
  Ta  Ta99  1  0.49726921  0.71650993  0.11897980  1
  Ta  Ta100  1  0.70883928  0.89550915  0.61662922  1
  Ta  Ta101  1  0.58824520  0.20915620  0.50099282  1
  Ta  Ta102  1  0.79296217  0.22480639  0.49795948  1
  Ta  Ta103  1  -0.00356785  0.60162240  0.25152534  1
  Ta  Ta104  1  0.37636829  0.19368686  0.26419011  1
  Ta  Ta105  1  0.29551318  0.29692093  0.38818593  1
  Ta  Ta106  1  0.21516188  0.80205765  0.23439960  1
  Ta  Ta107  1  0.00992087  0.80004033  0.22768328  1
  Ta  Ta108  1  0.32222849  0.90710212  0.11811389  1
  Ta  Ta109  1  0.50885198  0.70194165  0.39223265  1
  Ta  Ta110  1  0.70344153  0.68275176  0.38066151  1
  Ta  Ta111  1  0.90607611  0.90621150  0.87891263  1
  Ta  Ta112  1  0.90870527  0.70752417  0.63482991  1
  Ta  Ta113  1  0.81228405  0.78708153  0.50877667  1
  Ta  Ta114  1  0.10290851  0.69496418  0.62045675  1
  Ta  Ta115  1  0.20200097  0.79002675  0.73913788  1
  Ta  Ta116  1  0.49438301  0.31449623  0.61410379  1
  Ta  Ta117  1  0.19576550  -0.00794284  0.73954094  1
  Ta  Ta118  1  0.70026178  0.50694211  0.87310049  1
  Ta  Ta119  1  0.49908334  0.50048453  0.12232204  1
  Ti  Ti120  1  0.81208001  0.80188590  0.23699345  1
  Ti  Ti121  1  0.29270537  0.09209065  0.38434071  1
  Ti  Ti122  1  0.00642828  0.80332546  0.50452531  1
  Ti  Ti123  1  0.78816711  0.41465381  0.24252598  1
  Ti  Ti124  1  0.78569691  0.20096227  0.74666761  1
  Ti  Ti125  1  0.49355773  0.50549967  0.88407784  1
  Ti  Ti126  1  0.00971189  0.59880781  0.00240466  1
  Ti  Ti127  1  -0.01319588  0.18682742  0.25026798  1
  Ti  Ti128  1  0.70683621  0.70495139  0.87250397  1
  Ti  Ti129  1  0.50114611  0.71335251  0.87336680  1
  Ti  Ti130  1  0.61768851  0.40848038  0.49605558  1
  Ti  Ti131  1  0.48540423  0.09930654  0.39017363  1
  Ti  Ti132  1  0.08812253  0.88369161  0.63576380  1
  Ti  Ti133  1  0.31609954  0.88541035  0.64438339  1
  Ti  Ti134  1  0.79444216  0.40545016  0.00281957  1
  Ti  Ti135  1  0.00294030  -0.00828499  0.51437660  1
  Ti  Ti136  1  0.49583132  0.30203150  0.38705127  1
  Ti  Ti137  1  0.39473170  0.01424579  -0.01130340  1
  Ti  Ti138  1  0.69634970  0.30093185  0.11404280  1
  Ti  Ti139  1  0.49363078  0.11087734  0.63127441  1
  Ti  Ti140  1  0.87700087  0.10535780  0.88704297  1
  Ti  Ti141  1  0.30772068  0.49027093  0.13014636  1
  Ti  Ti142  1  0.39731335  0.22176834  0.74543950  1
  Ti  Ti143  1  0.21940702  0.78911105  0.00860613  1
  Ti  Ti144  1  0.39878930  0.40922924  0.48631833  1
  Ti  Ti145  1  0.00707507  0.60173025  0.74708031  1
  Ti  Ti146  1  0.71099701  0.69184998  0.62800005  1
  Ti  Ti147  1  0.79992639  0.60207016  0.24478322  1
  Ti  Ti148  1  0.47836801  0.31030118  0.88005222  1
  Ti  Ti149  1  -0.00728795  0.40545920  0.25241402  1
  Ti  Ti150  1  0.11079259  0.69295128  0.88107417  1
  Ti  Ti151  1  0.61401710  0.79085386  0.50636227  1
  Ti  Ti152  1  0.88380351  0.50625092  0.37235031  1
  Ti  Ti153  1  0.59790809  -0.00085871  0.75614252  1
  Ti  Ti154  1  0.30625851  0.49133512  0.87433067  1
  Ti  Ti155  1  0.21686258  0.38813700  0.25892954  1
  Ti  Ti156  1  0.19515296  0.18920125  0.50500412  1
  Ti  Ti157  1  0.00165724  0.40730454  0.00185805  1
  Ti  Ti158  1  0.78754606  0.59015785  0.50286244  1
  Ti  Ti159  1  0.60367351  0.80585238  0.75239018  1
  Mo  Mo160  1  0.30001472  0.10458796  0.12140587  1
  Mo  Mo161  1  0.20311043  0.38758709  0.49112643  1
  Mo  Mo162  1  0.58041436  -0.01192757  -0.01294334  1
  Mo  Mo163  1  0.30067919  0.90435207  0.37965804  1
  Mo  Mo164  1  0.61156866  0.59994657  0.50376334  1
  Mo  Mo165  1  0.90606268  0.69988084  0.13479412  1
  Mo  Mo166  1  0.40827170  0.59999506  0.48884206  1
  Mo  Mo167  1  0.39188056  0.20928392  -0.01002186  1
  Mo  Mo168  1  0.89129163  0.90078405  0.12633371  1
  Mo  Mo169  1  0.69960196  0.89654663  0.86915618  1
  Mo  Mo170  1  0.50454224  0.89747152  0.86226134  1
  Mo  Mo171  1  0.39893064  0.40321012  0.00495881  1
  Mo  Mo172  1  0.01280520  0.79137300  0.75148559  1
  Mo  Mo173  1  0.69517305  0.49240993  0.11973390  1
  Mo  Mo174  1  0.51198782  0.49272628  0.60501989  1
  Mo  Mo175  1  0.20098522  0.19935756  0.25878611  1
  Mo  Mo176  1  0.71051504  0.49832918  0.37302607  1
  Mo  Mo177  1  0.40619209  0.00378431  0.26176913  1
  Mo  Mo178  1  0.11580361  0.89610931  0.12636341  1
  Mo  Mo179  1  0.68743795  0.30911561  0.38612915  1
  Mo  Mo180  1  0.59823846  0.00419531  0.50293004  1
  Mo  Mo181  1  0.79542891  0.40740349  0.50780364  1
  Mo  Mo182  1  0.39869784  0.40097296  0.74777050  1
  Mo  Mo183  1  0.40425791  0.00525114  0.72973283  1
  Mo  Mo184  1  0.68843600  0.10056574  0.86441912  1
  Mo  Mo185  1  0.79790260  0.60578188  0.75444670  1
  Mo  Mo186  1  0.29907556  0.09700505  0.84830322  1
  Mo  Mo187  1  0.68715967  0.50479570  0.62693656  1
  Mo  Mo188  1  0.89675682  0.89068701  0.61959598  1
  Mo  Mo189  1  0.88822226  0.30139085  0.63026607  1
  Mo  Mo190  1  0.78918302  0.19912725  0.00105524  1
  Mo  Mo191  1  0.39649374  0.79729018  0.50981279  1
  Mo  Mo192  1  0.41344351  0.79661764  0.75031359  1
  Mo  Mo193  1  0.20232513  0.59558237  -0.00695419  1
  Mo  Mo194  1  0.30824371  0.30404756  0.86652041  1
  Mo  Mo195  1  0.29922086  0.70019977  0.62554799  1
  Mo  Mo196  1  0.31438430  0.49224500  0.37374856  1
  Mo  Mo197  1  0.31601839  0.70974115  0.12564545  1
  Mo  Mo198  1  0.10079062  0.09232805  0.63300234  1
  Mo  Mo199  1  0.90290563  0.10304104  0.36589962  1
