# generated using pymatgen
data_HfZrTaTiMo
_symmetry_space_group_name_H-M   'P 1'
_cell_length_a   15.21218691
_cell_length_b   15.21810682
_cell_length_c   16.87336151
_cell_angle_alpha   90.00432604
_cell_angle_beta   90.06026749
_cell_angle_gamma   89.99703239
_symmetry_Int_Tables_number   1
_chemical_formula_structural   HfZrTaTiMo
_chemical_formula_sum   'Hf40 Zr40 Ta40 Ti40 Mo40'
_cell_volume   3906.19257632
_cell_formula_units_Z   40
loop_
 _symmetry_equiv_pos_site_id
 _symmetry_equiv_pos_as_xyz
  1  'x, y, z'
loop_
 _atom_site_type_symbol
 _atom_site_label
 _atom_site_symmetry_multiplicity
 _atom_site_fract_x
 _atom_site_fract_y
 _atom_site_fract_z
 _atom_site_occupancy
  Hf  Hf0  1  0.59930021  0.01204594  0.50004185  1
  Hf  Hf1  1  0.69095941  0.30437556  0.36973401  1
  Hf  Hf2  1  0.09770003  0.49260349  0.87222834  1
  Hf  Hf3  1  0.17007477  0.19097465  0.72902061  1
  Hf  Hf4  1  0.30195026  0.70145221  0.88704267  1
  Hf  Hf5  1  0.29907876  0.69928907  0.12050117  1
  Hf  Hf6  1  0.20217582  0.38472585  0.51600912  1
  Hf  Hf7  1  0.01732903  0.20283171  -0.00576075  1
  Hf  Hf8  1  0.78944842  0.19744472  0.48808395  1
  Hf  Hf9  1  0.30749072  0.49409207  0.86786420  1
  Hf  Hf10  1  0.81962676  0.79963658  0.26154483  1
  Hf  Hf11  1  0.61469536  0.78826481  0.25666689  1
  Hf  Hf12  1  0.70463114  0.08771669  0.13085092  1
  Hf  Hf13  1  0.27754750  0.88078484  0.63981370  1
  Hf  Hf14  1  0.79461237  0.41141614  0.74658932  1
  Hf  Hf15  1  0.40007488  0.00244285  0.00358802  1
  Hf  Hf16  1  0.49067354  0.30106589  0.11773446  1
  Hf  Hf17  1  0.11021224  0.71239950  0.62492527  1
  Hf  Hf18  1  0.61020264  -0.01603735  -0.00461862  1
  Hf  Hf19  1  0.19042230  0.81010694  0.24510215  1
  Hf  Hf20  1  0.90799370  0.69187870  0.39280933  1
  Hf  Hf21  1  0.90871015  0.11139337  0.13253769  1
  Hf  Hf22  1  0.49532517  0.29167151  0.88034219  1
  Hf  Hf23  1  0.29272355  0.10914044  0.37642290  1
  Hf  Hf24  1  0.29159878  0.09794374  0.85476385  1
  Hf  Hf25  1  0.19458685  0.59442130  0.50383600  1
  Hf  Hf26  1  0.11781817  0.29825743  0.37493703  1
  Hf  Hf27  1  0.92004021  0.90294053  0.38693740  1
  Hf  Hf28  1  0.61454269  0.18955531  0.74643735  1
  Hf  Hf29  1  0.10230932  0.70034654  0.87969399  1
  Hf  Hf30  1  -0.01572579  0.39573572  0.00727445  1
  Hf  Hf31  1  0.60121331  0.60748735  0.49170994  1
  Hf  Hf32  1  0.19884776  0.60142003  0.74828732  1
  Hf  Hf33  1  0.29439987  0.29662643  0.85626064  1
  Hf  Hf34  1  0.51038379  0.68917652  0.12582065  1
  Hf  Hf35  1  0.81467714  0.21030044  0.00232735  1
  Hf  Hf36  1  0.49982293  0.49567801  0.62178083  1
  Hf  Hf37  1  0.49381391  0.08934505  0.36210218  1
  Hf  Hf38  1  0.39957567  0.78760306  0.75537361  1
  Hf  Hf39  1  0.61347085  0.59416856  0.74607767  1
  Zr  Zr40  1  0.89046903  0.11023944  0.62514261  1
  Zr  Zr41  1  0.69968597  0.29786351  0.61826419  1
  Zr  Zr42  1  0.60142420  -0.00756331  0.75599969  1
  Zr  Zr43  1  0.70587307  0.31076497  0.12828740  1
  Zr  Zr44  1  0.89979889  0.31439280  0.61687572  1
  Zr  Zr45  1  0.09844845  0.08608373  0.38109953  1
  Zr  Zr46  1  0.70119655  0.90491902  0.61707892  1
  Zr  Zr47  1  0.79500365  0.80775382  0.74437887  1
  Zr  Zr48  1  0.50694684  0.90742331  0.13854567  1
  Zr  Zr49  1  0.50650175  0.69059978  0.88391454  1
  Zr  Zr50  1  0.09090345  0.50694087  0.37096251  1
  Zr  Zr51  1  0.90445918  0.31331516  0.38558428  1
  Zr  Zr52  1  0.01222910  -0.01348534  0.24949718  1
  Zr  Zr53  1  0.80188040  0.40806363  0.25240301  1
  Zr  Zr54  1  0.39593902  0.19542226  0.51826436  1
  Zr  Zr55  1  0.00614603  0.02062208  0.75838769  1
  Zr  Zr56  1  0.59070955  0.39446854  0.74703174  1
  Zr  Zr57  1  0.59237862  0.19841441  0.23788014  1
  Zr  Zr58  1  0.31275058  0.90413537  0.36480124  1
  Zr  Zr59  1  0.70961813  0.69224329  0.88029966  1
  Zr  Zr60  1  0.39257506  0.59776129  0.49408869  1
  Zr  Zr61  1  0.10104214  0.50347900  0.13310940  1
  Zr  Zr62  1  0.21247146  0.39538773  0.24733061  1
  Zr  Zr63  1  0.88016496  0.91830203  0.87768256  1
  Zr  Zr64  1  0.00998872  0.19846286  0.50085591  1
  Zr  Zr65  1  0.39587744  0.58594099  0.24949240  1
  Zr  Zr66  1  0.71993638  0.09608327  0.88483319  1
  Zr  Zr67  1  0.48530044  0.70675604  0.36581837  1
  Zr  Zr68  1  -0.00317817  0.80777841  -0.00593503  1
  Zr  Zr69  1  0.88384195  0.70069159  0.11892568  1
  Zr  Zr70  1  0.59360243  0.19194464  0.00580638  1
  Zr  Zr71  1  0.39595564  0.39203988  0.50202058  1
  Zr  Zr72  1  0.91079726  0.90844760  0.61538648  1
  Zr  Zr73  1  0.89331753  0.50891082  0.86801308  1
  Zr  Zr74  1  0.39556539  -0.00795913  0.50392632  1
  Zr  Zr75  1  0.19301567  0.38559547  0.00125746  1
  Zr  Zr76  1  0.48587530  0.90217600  0.63489330  1
  Zr  Zr77  1  0.09346387  0.70512493  0.12499114  1
  Zr  Zr78  1  0.90229467  0.70432178  0.87292138  1
  Zr  Zr79  1  0.58274179  0.80983813  0.48697713  1
  Ta  Ta80  1  0.79130268  0.79918327  0.49070109  1
  Ta  Ta81  1  0.10065922  0.90984646  0.11373620  1
  Ta  Ta82  1  0.80296335  0.00627167  0.48373907  1
  Ta  Ta83  1  0.50827386  0.49202892  0.11496297  1
  Ta  Ta84  1  0.59097024  0.41128211  0.25351065  1
  Ta  Ta85  1  -0.00183912  0.01282110  -0.00657051  1
  Ta  Ta86  1  0.48623517  0.29477128  0.36921645  1
  Ta  Ta87  1  0.90071229  0.90801928  0.12087604  1
  Ta  Ta88  1  0.89934991  0.30173023  0.86248085  1
  Ta  Ta89  1  0.29950340  0.90161906  0.86836966  1
  Ta  Ta90  1  0.71264096  0.88951288  0.13384982  1
  Ta  Ta91  1  0.01023681  0.40279640  0.73477191  1
  Ta  Ta92  1  0.50077641  0.69923619  0.62541975  1
  Ta  Ta93  1  0.37879553  0.19319259  0.00201195  1
  Ta  Ta94  1  0.01189636  0.80994550  0.74906950  1
  Ta  Ta95  1  0.10933252  0.90868692  0.87770157  1
  Ta  Ta96  1  0.69735322  0.10225892  0.36076453  1
  Ta  Ta97  1  0.30199016  0.07914082  0.64630470  1
  Ta  Ta98  1  0.20027404  0.01708086  -0.00432819  1
  Ta  Ta99  1  0.29752112  0.49310665  0.64270247  1
  Ta  Ta100  1  0.39649020  0.39573693  0.00020176  1
  Ta  Ta101  1  0.49646601  0.89314850  0.87547250  1
  Ta  Ta102  1  0.70599616  0.50589720  0.38674770  1
  Ta  Ta103  1  0.20280313  0.59396613  0.00090442  1
  Ta  Ta104  1  0.59691019  0.39466834  0.49548852  1
  Ta  Ta105  1  0.40524654  0.59233263  0.00412022  1
  Ta  Ta106  1  0.69816252  0.90591227  0.37112437  1
  Ta  Ta107  1  -0.00334950  0.59304213  0.00321039  1
  Ta  Ta108  1  0.78614949  0.41718874  -0.00231128  1
  Ta  Ta109  1  -0.00326226  0.40157078  0.24647063  1
  Ta  Ta110  1  0.80711554  0.00281752  0.25963046  1
  Ta  Ta111  1  0.78880755  0.60762238  0.25860181  1
  Ta  Ta112  1  0.38664451  0.19904639  0.23880350  1
  Ta  Ta113  1  0.08861229  0.29099611  0.13581349  1
  Ta  Ta114  1  0.51123925  0.48966151  0.88772220  1
  Ta  Ta115  1  -0.00536585  0.20258611  0.25875694  1
  Ta  Ta116  1  0.58708929  0.20092865  0.50176454  1
  Ta  Ta117  1  0.90263790  0.70585755  0.61137496  1
  Ta  Ta118  1  0.11420389  0.10052832  0.12784954  1
  Ta  Ta119  1  0.40273999  0.80449033  0.00660388  1
  Ti  Ti120  1  0.59991066  0.79271351  0.00559967  1
  Ti  Ti121  1  0.90336403  0.51418785  0.60911337  1
  Ti  Ti122  1  0.28597960  0.28949028  0.11950232  1
  Ti  Ti123  1  0.20391237  0.18786551  0.52665125  1
  Ti  Ti124  1  0.71051814  0.50201413  0.60204633  1
  Ti  Ti125  1  -0.00236482  0.60518334  0.73732795  1
  Ti  Ti126  1  0.39794067  0.80446735  0.24202214  1
  Ti  Ti127  1  0.60333287  0.59343426  0.25981596  1
  Ti  Ti128  1  0.49287225  0.09336217  0.87253077  1
  Ti  Ti129  1  0.02123441  0.80657115  0.50582230  1
  Ti  Ti130  1  0.19825954  0.60162044  0.25398398  1
  Ti  Ti131  1  0.41395457  0.58898225  0.75311767  1
  Ti  Ti132  1  0.79350015  0.02047526  0.74599014  1
  Ti  Ti133  1  0.31010345  0.68858310  0.62801195  1
  Ti  Ti134  1  0.40089660  0.39355904  0.24792628  1
  Ti  Ti135  1  0.19794843  0.19229741  0.24856490  1
  Ti  Ti136  1  0.11621779  0.89224835  0.38276930  1
  Ti  Ti137  1  0.80394294  0.60714623  0.73162879  1
  Ti  Ti138  1  0.01289951  0.41652257  0.51134890  1
  Ti  Ti139  1  0.41767901  0.19274828  0.73621577  1
  Ti  Ti140  1  0.29412521  0.91741131  0.13106554  1
  Ti  Ti141  1  0.60168177  0.79251564  0.75237972  1
  Ti  Ti142  1  -0.01484868  0.60549722  0.24984853  1
  Ti  Ti143  1  0.30745724  0.49416459  0.11921615  1
  Ti  Ti144  1  0.28635355  0.70252610  0.37274890  1
  Ti  Ti145  1  0.30487112  0.30014788  0.65003765  1
  Ti  Ti146  1  0.69921189  0.51739282  0.12961763  1
  Ti  Ti147  1  0.09726932  0.70524008  0.37620832  1
  Ti  Ti148  1  0.62115142  0.58638016  0.00121855  1
  Ti  Ti149  1  0.29635705  0.48574021  0.37431819  1
  Ti  Ti150  1  0.89858490  0.50526741  0.39149849  1
  Ti  Ti151  1  0.49985249  0.49023410  0.37703103  1
  Ti  Ti152  1  0.78581231  0.80900723  0.00131046  1
  Ti  Ti153  1  0.38385193  0.79410973  0.50138209  1
  Ti  Ti154  1  0.19147614  -0.01275100  0.51344034  1
  Ti  Ti155  1  0.69918178  0.70141151  0.61734052  1
  Ti  Ti156  1  0.20839946  0.81402898  0.00428841  1
  Ti  Ti157  1  0.89141778  0.50111525  0.12668115  1
  Ti  Ti158  1  0.09656570  0.29293117  0.86041311  1
  Ti  Ti159  1  0.70036382  0.31026946  0.87868462  1
  Mo  Mo160  1  0.49397148  0.09965866  0.12565282  1
  Mo  Mo161  1  0.29849663  0.10253929  0.12508825  1
  Mo  Mo162  1  0.90244119  0.11423077  0.87655202  1
  Mo  Mo163  1  0.69836629  0.49674909  0.87321467  1
  Mo  Mo164  1  0.39735744  0.01123033  0.23636519  1
  Mo  Mo165  1  0.09855343  0.90283660  0.62739732  1
  Mo  Mo166  1  -0.01336649  0.21118319  0.74782948  1
  Mo  Mo167  1  0.50418770  0.90609448  0.35315810  1
  Mo  Mo168  1  0.00441348  0.60575722  0.50867774  1
  Mo  Mo169  1  0.40061455  -0.00229445  0.75698446  1
  Mo  Mo170  1  0.20575853  0.00430984  0.24454502  1
  Mo  Mo171  1  0.79645087  0.40863182  0.49529448  1
  Mo  Mo172  1  0.09601131  0.08456544  0.61385859  1
  Mo  Mo173  1  0.80258889  0.20686653  0.75752678  1
  Mo  Mo174  1  0.79968982  0.60646270  0.50787101  1
  Mo  Mo175  1  0.30524695  0.29424854  0.37145010  1
  Mo  Mo176  1  0.80797308  0.19755796  0.26093839  1
  Mo  Mo177  1  0.19620383  0.39787593  0.74207810  1
  Mo  Mo178  1  0.19132252  -0.01154825  0.75118273  1
  Mo  Mo179  1  0.50433037  0.10224042  0.63001202  1
  Mo  Mo180  1  0.40276703  0.39681061  0.74957344  1
  Mo  Mo181  1  0.09670900  0.50294287  0.62861489  1
  Mo  Mo182  1  0.68915225  0.88933011  0.87970616  1
  Mo  Mo183  1  0.69921463  0.69853254  0.12230013  1
  Mo  Mo184  1  0.89565404  0.10289850  0.36737463  1
  Mo  Mo185  1  0.19518828  0.79557393  0.76257811  1
  Mo  Mo186  1  0.00544810  0.79520831  0.25176759  1
  Mo  Mo187  1  0.70520969  0.69818524  0.37847903  1
  Mo  Mo188  1  0.49770135  0.29633227  0.62584825  1
  Mo  Mo189  1  0.90452205  0.30769671  0.13064524  1
  Mo  Mo190  1  0.60000265  0.40015264  -0.00142882  1
  Mo  Mo191  1  0.09838700  0.30072271  0.62279681  1
  Mo  Mo192  1  0.20946452  0.79539557  0.49312101  1
  Mo  Mo193  1  0.70044569  0.09922560  0.61866769  1
  Mo  Mo194  1  0.80716546  -0.00418107  0.01107325  1
  Mo  Mo195  1  0.00337861  -0.00062676  0.49959149  1
  Mo  Mo196  1  0.80442526  0.59735916  0.00525164  1
  Mo  Mo197  1  0.60648565  -0.00746442  0.25075495  1
  Mo  Mo198  1  0.10046292  0.10442487  0.87625945  1
  Mo  Mo199  1  0.20073405  0.19921970  -0.00480096  1
