# generated using pymatgen
data_HfZrTaTiMo
_symmetry_space_group_name_H-M   'P 1'
_cell_length_a   15.21377586
_cell_length_b   15.20749822
_cell_length_c   16.85468964
_cell_angle_alpha   90.02396673
_cell_angle_beta   89.95758292
_cell_angle_gamma   90.06906679
_symmetry_Int_Tables_number   1
_chemical_formula_structural   HfZrTaTiMo
_chemical_formula_sum   'Hf40 Zr40 Ta40 Ti40 Mo40'
_cell_volume   3899.55522684
_cell_formula_units_Z   40
loop_
 _symmetry_equiv_pos_site_id
 _symmetry_equiv_pos_as_xyz
  1  'x, y, z'
loop_
 _atom_site_type_symbol
 _atom_site_label
 _atom_site_symmetry_multiplicity
 _atom_site_fract_x
 _atom_site_fract_y
 _atom_site_fract_z
 _atom_site_occupancy
  Hf  Hf0  1  -0.01528994  0.82104680  0.01874186  1
  Hf  Hf1  1  0.70972810  0.29736333  0.62355543  1
  Hf  Hf2  1  0.39498044  0.60030935  0.26135609  1
  Hf  Hf3  1  0.49140448  0.69731235  0.87892401  1
  Hf  Hf4  1  0.49812961  0.90753545  0.88383517  1
  Hf  Hf5  1  0.60698221  0.40451134  0.75394004  1
  Hf  Hf6  1  0.18795965  0.37371819  0.51105900  1
  Hf  Hf7  1  0.09434964  0.30571109  0.13634098  1
  Hf  Hf8  1  0.71166733  0.10606557  0.11769898  1
  Hf  Hf9  1  0.70410457  0.89327375  0.87816499  1
  Hf  Hf10  1  0.81461021  -0.00237861  0.50609392  1
  Hf  Hf11  1  0.91450467  0.89892641  0.87250815  1
  Hf  Hf12  1  0.29813808  0.51156741  0.61712464  1
  Hf  Hf13  1  0.07826431  0.71595680  0.87507092  1
  Hf  Hf14  1  0.67919104  0.69800111  0.37129451  1
  Hf  Hf15  1  0.48659011  0.69563435  0.63964152  1
  Hf  Hf16  1  0.70471000  0.09210943  0.88284937  1
  Hf  Hf17  1  0.88904446  0.69148030  0.61847297  1
  Hf  Hf18  1  0.49009445  0.30312675  0.87115303  1
  Hf  Hf19  1  0.39036403  0.18942423  0.75382756  1
  Hf  Hf20  1  -0.02034122  0.59640657  0.75439351  1
  Hf  Hf21  1  0.30378434  0.09488468  0.36316978  1
  Hf  Hf22  1  0.49311563  0.68502166  0.11394657  1
  Hf  Hf23  1  0.80040442  0.79137994  0.48866937  1
  Hf  Hf24  1  -0.01029029  0.61160818  0.26134518  1
  Hf  Hf25  1  0.70310519  0.90008928  0.36294219  1
  Hf  Hf26  1  0.88605522  0.30541249  0.12754473  1
  Hf  Hf27  1  0.41684770  0.39897576  0.25860193  1
  Hf  Hf28  1  0.70302355  0.88983636  0.63015780  1
  Hf  Hf29  1  0.09040813  0.29151763  0.36913161  1
  Hf  Hf30  1  0.01711455  0.20028665  0.74701063  1
  Hf  Hf31  1  0.28570526  0.69879837  0.12206172  1
  Hf  Hf32  1  0.19548394  0.60504455  0.75275526  1
  Hf  Hf33  1  0.21096404  0.40830889  -0.00395884  1
  Hf  Hf34  1  0.70685278  0.48794406  0.12537646  1
  Hf  Hf35  1  0.68933702  0.29016633  0.38278046  1
  Hf  Hf36  1  0.29084727  0.91338031  0.88074002  1
  Hf  Hf37  1  0.30421848  0.29386106  0.37230434  1
  Hf  Hf38  1  -0.01545453  0.60766911  0.48221106  1
  Hf  Hf39  1  0.29504359  0.70280576  0.87537425  1
  Zr  Zr40  1  0.71331598  0.30317243  0.87206691  1
  Zr  Zr41  1  0.81139417  0.00378051  0.73713664  1
  Zr  Zr42  1  0.28997322  0.09417490  0.12872061  1
  Zr  Zr43  1  0.18217140  0.60055129  -0.00833285  1
  Zr  Zr44  1  0.10232158  0.50773708  0.13624726  1
  Zr  Zr45  1  0.58717642  0.58118332  0.25121007  1
  Zr  Zr46  1  0.00119565  0.40771557  -0.00249256  1
  Zr  Zr47  1  0.19595453  0.38721947  0.73960891  1
  Zr  Zr48  1  0.11053470  0.91470664  0.14318875  1
  Zr  Zr49  1  0.20581672  0.20702798  0.00011625  1
  Zr  Zr50  1  0.68889994  0.69240804  0.62096937  1
  Zr  Zr51  1  0.40298797  0.61665701  0.49210215  1
  Zr  Zr52  1  0.80276283  0.77609298  0.76148399  1
  Zr  Zr53  1  0.29383317  0.50011659  0.39256096  1
  Zr  Zr54  1  0.10020475  0.72131212  0.36745744  1
  Zr  Zr55  1  0.43176690  0.19717877  0.23981872  1
  Zr  Zr56  1  0.49002223  0.89594731  0.63026287  1
  Zr  Zr57  1  0.91254564  0.90186299  0.36148052  1
  Zr  Zr58  1  0.81327942  0.19880718  0.74440855  1
  Zr  Zr59  1  0.10708090  0.91515372  0.61071195  1
  Zr  Zr60  1  0.40793994  -0.01279653  0.22847316  1
  Zr  Zr61  1  0.61124783  0.59817551  -0.00682352  1
  Zr  Zr62  1  0.59726396  -0.00721897  0.50713049  1
  Zr  Zr63  1  0.60409267  0.01415112  0.23377449  1
  Zr  Zr64  1  0.09691170  0.70371876  0.61905059  1
  Zr  Zr65  1  0.50007764  0.47187202  0.11365598  1
  Zr  Zr66  1  0.01265465  0.00513251  0.74250922  1
  Zr  Zr67  1  0.09756239  0.49779653  0.38062162  1
  Zr  Zr68  1  0.71152594  0.09965277  0.38239895  1
  Zr  Zr69  1  0.30998031  0.30668478  0.13140966  1
  Zr  Zr70  1  0.59791432  0.00768460  0.74846226  1
  Zr  Zr71  1  0.29296364  0.89326668  0.36027872  1
  Zr  Zr72  1  0.08307646  0.49557671  0.61331619  1
  Zr  Zr73  1  0.19047136  0.81489178  0.00213149  1
  Zr  Zr74  1  0.59457179  0.79447910  0.23054082  1
  Zr  Zr75  1  0.59413406  0.39355195  0.50604836  1
  Zr  Zr76  1  0.49739709  0.29497200  0.63762363  1
  Zr  Zr77  1  0.50001689  0.89581887  0.37327933  1
  Zr  Zr78  1  0.60213149  0.59828588  0.76583254  1
  Zr  Zr79  1  0.89983018  0.50545764  0.13286315  1
  Ta  Ta80  1  0.81521561  0.41178421  0.74608284  1
  Ta  Ta81  1  0.81791723  -0.01238331  0.00718557  1
  Ta  Ta82  1  0.30309655  0.50227833  0.12988839  1
  Ta  Ta83  1  0.20896776  0.80085878  0.50025566  1
  Ta  Ta84  1  0.10834547  0.08899305  0.88867109  1
  Ta  Ta85  1  0.39121780  0.58184880  -0.00445349  1
  Ta  Ta86  1  0.20352656  0.40406841  0.25410442  1
  Ta  Ta87  1  0.38771534  0.00614436  0.50023374  1
  Ta  Ta88  1  0.39895788  0.00304937  0.75502686  1
  Ta  Ta89  1  0.59873919  0.19675735  -0.00812867  1
  Ta  Ta90  1  0.89162921  0.48716328  0.36075101  1
  Ta  Ta91  1  0.31267610  0.49783300  0.86332043  1
  Ta  Ta92  1  0.60463374  0.79877796  0.01054330  1
  Ta  Ta93  1  0.09187676  0.10519859  0.11763451  1
  Ta  Ta94  1  0.72242945  0.88807710  0.12771515  1
  Ta  Ta95  1  0.12755797  0.11656094  0.60478955  1
  Ta  Ta96  1  0.90906748  0.10249535  0.88473415  1
  Ta  Ta97  1  0.60419517  -0.00524856  0.01362964  1
  Ta  Ta98  1  0.89414764  0.50378496  0.88501963  1
  Ta  Ta99  1  0.20998180  0.02249363  0.74963329  1
  Ta  Ta100  1  0.80322438  0.40190068  0.49656951  1
  Ta  Ta101  1  0.09950933  0.29518886  0.87510204  1
  Ta  Ta102  1  0.40187046  0.00149378  0.01445690  1
  Ta  Ta103  1  0.80617205  0.20391855  -0.00248504  1
  Ta  Ta104  1  0.08494149  0.70785393  0.13702351  1
  Ta  Ta105  1  0.40550879  0.20060263  0.50246353  1
  Ta  Ta106  1  0.19239317  0.81988133  0.75330848  1
  Ta  Ta107  1  0.89284033  0.29904422  0.37901543  1
  Ta  Ta108  1  -0.00110983  0.20258939  -0.00075335  1
  Ta  Ta109  1  0.51066220  0.11309892  0.38409302  1
  Ta  Ta110  1  0.78938564  0.58962278  0.47913431  1
  Ta  Ta111  1  0.50239243  0.50564688  0.62478179  1
  Ta  Ta112  1  0.78912390  0.60493883  0.25872542  1
  Ta  Ta113  1  0.91351298  0.11319771  0.38811505  1
  Ta  Ta114  1  0.90831144  0.89257879  0.62017162  1
  Ta  Ta115  1  0.59693937  0.59414810  0.49371171  1
  Ta  Ta116  1  0.79512177  0.20317156  0.25071794  1
  Ta  Ta117  1  0.91581996  0.30510430  0.61084012  1
  Ta  Ta118  1  0.79664094  0.78078436  -0.00245975  1
  Ta  Ta119  1  0.70523881  0.50318784  0.62309175  1
  Ti  Ti120  1  0.87839411  0.71589005  0.13788332  1
  Ti  Ti121  1  0.30995088  0.10476708  0.88935167  1
  Ti  Ti122  1  0.19000141  0.19166814  0.24900943  1
  Ti  Ti123  1  0.09714605  0.49596705  0.86907680  1
  Ti  Ti124  1  -0.01098297  0.20080031  0.24871660  1
  Ti  Ti125  1  0.10642406  0.09610491  0.39327017  1
  Ti  Ti126  1  0.38863275  0.80378887  0.75516865  1
  Ti  Ti127  1  0.20043265  0.60514253  0.25379137  1
  Ti  Ti128  1  0.40007754  0.41224225  0.74235675  1
  Ti  Ti129  1  0.29534691  0.70456355  0.37487974  1
  Ti  Ti130  1  0.59951418  0.39431215  -0.01390511  1
  Ti  Ti131  1  0.41004501  0.20623470  0.00549244  1
  Ti  Ti132  1  0.29626718  0.30290191  0.86886381  1
  Ti  Ti133  1  0.00751168  0.01874297  0.25497689  1
  Ti  Ti134  1  0.39841304  0.39366978  0.50791108  1
  Ti  Ti135  1  0.29839531  0.90911277  0.62768468  1
  Ti  Ti136  1  0.81369507  0.00688124  0.24601745  1
  Ti  Ti137  1  0.69962051  0.10636117  0.61504413  1
  Ti  Ti138  1  -0.02108569  0.62075806  0.00397877  1
  Ti  Ti139  1  0.68931150  0.29999736  0.12244976  1
  Ti  Ti140  1  0.59883049  0.19252442  0.75950403  1
  Ti  Ti141  1  0.89153523  0.49780002  0.61558468  1
  Ti  Ti142  1  0.28650973  0.27025903  0.62647630  1
  Ti  Ti143  1  0.10629965  0.91155125  0.36920621  1
  Ti  Ti144  1  -0.00207099  0.39726838  0.75167746  1
  Ti  Ti145  1  0.71387264  0.50445207  0.88210933  1
  Ti  Ti146  1  -0.00128240  0.81175532  0.49447988  1
  Ti  Ti147  1  0.90549558  0.30626109  0.87797336  1
  Ti  Ti148  1  0.90692306  0.09816980  0.12039071  1
  Ti  Ti149  1  0.59548699  0.79980676  0.75974379  1
  Ti  Ti150  1  0.69633394  0.48339247  0.36367598  1
  Ti  Ti151  1  0.50337261  0.48828590  0.38483030  1
  Ti  Ti152  1  0.00023858  0.80328452  0.74288008  1
  Ti  Ti153  1  0.39616983  0.79217259  0.23834805  1
  Ti  Ti154  1  0.58640101  0.78854906  0.49931676  1
  Ti  Ti155  1  0.39893671  0.80396790  0.00970569  1
  Ti  Ti156  1  0.29371113  0.71086884  0.62958680  1
  Ti  Ti157  1  0.49737885  0.10089161  0.62115238  1
  Ti  Ti158  1  0.39674079  0.80823581  0.50003855  1
  Ti  Ti159  1  0.92637481  0.10738839  0.59983984  1
  Mo  Mo160  1  0.20328723  0.79696843  0.24578241  1
  Mo  Mo161  1  0.80550731  0.59860779  0.00636669  1
  Mo  Mo162  1  -0.00489127  0.80908516  0.23953761  1
  Mo  Mo163  1  0.19772130  0.61821496  0.50388107  1
  Mo  Mo164  1  0.88763716  0.70117533  0.36704249  1
  Mo  Mo165  1  0.79502136  0.39725802  -0.00455914  1
  Mo  Mo166  1  0.20203381  0.19363374  0.76204302  1
  Mo  Mo167  1  0.60838289  0.20284232  0.24671433  1
  Mo  Mo168  1  0.50966965  0.10441148  0.10601576  1
  Mo  Mo169  1  0.49578884  0.09827467  0.89120881  1
  Mo  Mo170  1  0.49383752  0.49381913  0.87836132  1
  Mo  Mo171  1  0.79733998  0.58364739  0.75161346  1
  Mo  Mo172  1  -0.00399489  0.39324949  0.25499377  1
  Mo  Mo173  1  0.90113012  0.91168645  0.14349243  1
  Mo  Mo174  1  0.59949297  0.18940933  0.51121375  1
  Mo  Mo175  1  0.79242793  0.39280433  0.25621540  1
  Mo  Mo176  1  0.19247178  0.01062908  0.25592628  1
  Mo  Mo177  1  0.20170809  0.00643540  0.00111220  1
  Mo  Mo178  1  0.48768363  0.70472676  0.37421235  1
  Mo  Mo179  1  -0.01049764  0.40197580  0.49420037  1
  Mo  Mo180  1  0.51467095  0.29583603  0.11121995  1
  Mo  Mo181  1  0.39497069  0.39405720  -0.00828476  1
  Mo  Mo182  1  0.00285725  0.00786205  0.00431935  1
  Mo  Mo183  1  0.09656217  0.29134278  0.62402855  1
  Mo  Mo184  1  0.60327267  0.37354311  0.25265296  1
  Mo  Mo185  1  0.80808890  0.20086314  0.50849702  1
  Mo  Mo186  1  0.69988094  0.69806101  0.87973377  1
  Mo  Mo187  1  0.01250842  0.20901572  0.49728237  1
  Mo  Mo188  1  0.39188892  0.59963394  0.74744263  1
  Mo  Mo189  1  0.70391442  0.69281358  0.12864656  1
  Mo  Mo190  1  0.20905132  -0.00697426  0.49351073  1
  Mo  Mo191  1  0.21717813  0.18961224  0.49193020  1
  Mo  Mo192  1  0.49716577  0.29514828  0.38599137  1
  Mo  Mo193  1  0.00832073  0.00153654  0.49438108  1
  Mo  Mo194  1  0.30331658  0.89330498  0.12933358  1
  Mo  Mo195  1  0.09936502  0.90760677  0.87077945  1
  Mo  Mo196  1  0.50408287  0.89257605  0.10928546  1
  Mo  Mo197  1  0.89401608  0.69430996  0.88337438  1
  Mo  Mo198  1  0.80074961  0.79542554  0.25640622  1
  Mo  Mo199  1  0.31086208  0.09223652  0.62378033  1
