# generated using pymatgen
data_HfZrTaTiMo
_symmetry_space_group_name_H-M   'P 1'
_cell_length_a   15.20110163
_cell_length_b   15.20458171
_cell_length_c   16.83002743
_cell_angle_alpha   90.00307447
_cell_angle_beta   89.95294401
_cell_angle_gamma   90.12036750
_symmetry_Int_Tables_number   1
_chemical_formula_structural   HfZrTaTiMo
_chemical_formula_sum   'Hf40 Zr40 Ta40 Ti40 Mo40'
_cell_volume   3889.85361299
_cell_formula_units_Z   40
loop_
 _symmetry_equiv_pos_site_id
 _symmetry_equiv_pos_as_xyz
  1  'x, y, z'
loop_
 _atom_site_type_symbol
 _atom_site_label
 _atom_site_symmetry_multiplicity
 _atom_site_fract_x
 _atom_site_fract_y
 _atom_site_fract_z
 _atom_site_occupancy
  Hf  Hf0  1  0.19809250  0.60563811  0.73883272  1
  Hf  Hf1  1  0.29691040  0.48250126  0.11138277  1
  Hf  Hf2  1  0.21746574  0.21990581  0.50633816  1
  Hf  Hf3  1  0.30560334  0.09176854  0.87893661  1
  Hf  Hf4  1  0.80262124  0.18416628  0.74168045  1
  Hf  Hf5  1  0.39554970  0.59820287  -0.00787042  1
  Hf  Hf6  1  0.08899935  0.89607195  0.88058990  1
  Hf  Hf7  1  0.39913162  0.00628262  0.50266718  1
  Hf  Hf8  1  0.40165582  0.60282942  0.74106724  1
  Hf  Hf9  1  0.59180158  0.58685088  0.26245682  1
  Hf  Hf10  1  0.30358064  0.28988804  0.86388258  1
  Hf  Hf11  1  0.19928485  0.01026172  0.49801310  1
  Hf  Hf12  1  0.91547795  0.30961596  0.63189291  1
  Hf  Hf13  1  0.70402243  0.70355577  0.37204062  1
  Hf  Hf14  1  0.29720352  0.11225754  0.36025045  1
  Hf  Hf15  1  0.09227811  0.89901477  0.62097678  1
  Hf  Hf16  1  0.60674754  0.19637315  0.24870684  1
  Hf  Hf17  1  0.10322961  0.10191632  0.62890099  1
  Hf  Hf18  1  0.60286591  0.80708136  0.75973579  1
  Hf  Hf19  1  0.39754786  0.39576258  0.25110566  1
  Hf  Hf20  1  0.28561029  0.69638276  0.87754665  1
  Hf  Hf21  1  0.60735430  -0.01007347  0.00796182  1
  Hf  Hf22  1  0.59291599  0.39706322  0.50412893  1
  Hf  Hf23  1  -0.00426950  0.79409324  0.49399168  1
  Hf  Hf24  1  0.89353361  0.31125604  0.87259962  1
  Hf  Hf25  1  0.60167318  0.61182770  0.50478562  1
  Hf  Hf26  1  0.11484430  0.31067796  0.09846779  1
  Hf  Hf27  1  0.79648174  0.58755016  0.25754206  1
  Hf  Hf28  1  0.50242283  0.10681332  0.87197030  1
  Hf  Hf29  1  0.70069364  0.07404687  0.62098712  1
  Hf  Hf30  1  0.81586001  0.60055433  0.49691563  1
  Hf  Hf31  1  0.09645845  0.10695534  0.36003104  1
  Hf  Hf32  1  0.59507564  -0.02824157  0.48145250  1
  Hf  Hf33  1  0.10916403  0.51505490  0.11103142  1
  Hf  Hf34  1  0.60078462  0.17614838  0.48873467  1
  Hf  Hf35  1  0.00402103  0.59602397  0.25525116  1
  Hf  Hf36  1  0.00917383  0.20317126  0.50447504  1
  Hf  Hf37  1  0.89124037  0.70735256  0.13847603  1
  Hf  Hf38  1  0.48588942  0.29414843  0.37423250  1
  Hf  Hf39  1  0.41458120  0.80839512  0.49694963  1
  Zr  Zr40  1  0.40393441  0.19739720  0.50854213  1
  Zr  Zr41  1  0.00475027  0.38748811  0.24541258  1
  Zr  Zr42  1  0.57880320  0.79674542  0.27180384  1
  Zr  Zr43  1  0.70633890  0.08792876  0.88384321  1
  Zr  Zr44  1  0.80383061  -0.00253933  0.24614416  1
  Zr  Zr45  1  -0.00724887  0.41588840  -0.01292707  1
  Zr  Zr46  1  -0.00573363  0.82045313  0.24712240  1
  Zr  Zr47  1  0.39820825  0.19126109  0.22575472  1
  Zr  Zr48  1  0.11690752  0.31354805  0.64478884  1
  Zr  Zr49  1  0.78770386  0.21544352  0.01174913  1
  Zr  Zr50  1  0.50117830  0.49908738  0.11791881  1
  Zr  Zr51  1  0.11783384  0.30671880  0.37301715  1
  Zr  Zr52  1  0.49133779  0.90469928  0.87926655  1
  Zr  Zr53  1  0.29365121  0.47727255  0.62764823  1
  Zr  Zr54  1  0.29192501  0.49012784  0.38914900  1
  Zr  Zr55  1  0.18550426  0.79435221  0.00847338  1
  Zr  Zr56  1  0.90702869  0.53251517  0.85286788  1
  Zr  Zr57  1  0.48914760  0.29694365  0.64445893  1
  Zr  Zr58  1  0.80062933  0.40621950  0.73998187  1
  Zr  Zr59  1  0.71148699  0.29562982  0.38295236  1
  Zr  Zr60  1  0.60582591  0.59643392  -0.00326663  1
  Zr  Zr61  1  0.29348197  0.69297920  0.12738232  1
  Zr  Zr62  1  0.60981604  0.60249288  0.74132136  1
  Zr  Zr63  1  0.71774387  0.69703017  0.87149908  1
  Zr  Zr64  1  0.78933544  0.80266962  0.00995774  1
  Zr  Zr65  1  0.39849188  0.60152786  0.25432103  1
  Zr  Zr66  1  0.69327368  0.29205346  0.62292177  1
  Zr  Zr67  1  0.30593611  0.71073928  0.37172142  1
  Zr  Zr68  1  0.90346457  0.49384506  0.12614701  1
  Zr  Zr69  1  0.81350642  0.18801704  0.50700587  1
  Zr  Zr70  1  0.30315579  0.89841751  0.63020210  1
  Zr  Zr71  1  0.10394327  0.70810756  0.37197845  1
  Zr  Zr72  1  -0.00924364  -0.00270057  0.75135172  1
  Zr  Zr73  1  0.81269526  0.20394636  0.23837869  1
  Zr  Zr74  1  0.90801257  0.09929493  0.89896312  1
  Zr  Zr75  1  0.69941267  0.47307468  0.12321239  1
  Zr  Zr76  1  0.80971487  0.59450780  0.00430080  1
  Zr  Zr77  1  0.19556784  0.60956680  0.51457235  1
  Zr  Zr78  1  0.00550771  0.19861841  0.75892125  1
  Zr  Zr79  1  0.79361688  -0.02236936  0.74872409  1
  Ta  Ta80  1  0.89506634  0.90059019  0.37804073  1
  Ta  Ta81  1  0.59351882  0.79400302  -0.00038651  1
  Ta  Ta82  1  0.49813620  0.70542207  0.12351321  1
  Ta  Ta83  1  0.50292225  0.29489228  0.86105478  1
  Ta  Ta84  1  0.50904707  0.30619352  0.12238258  1
  Ta  Ta85  1  0.19144773  0.80026115  0.74966174  1
  Ta  Ta86  1  0.49471670  0.70080445  0.87562648  1
  Ta  Ta87  1  0.59920466  0.40249337  0.74858736  1
  Ta  Ta88  1  0.40010941  0.00405412  0.02022286  1
  Ta  Ta89  1  0.01104317  0.62786718  -0.00501255  1
  Ta  Ta90  1  0.11124201  0.10395033  0.89788812  1
  Ta  Ta91  1  0.19613513  -0.00147403  0.75740735  1
  Ta  Ta92  1  0.40741186  0.38920370  -0.01435422  1
  Ta  Ta93  1  0.70696550  0.50562641  0.61943514  1
  Ta  Ta94  1  0.09536976  0.11355334  0.11016039  1
  Ta  Ta95  1  0.91412061  0.29753605  0.37587077  1
  Ta  Ta96  1  0.78596674  0.80472365  0.49685899  1
  Ta  Ta97  1  0.90373800  0.10254853  0.36734069  1
  Ta  Ta98  1  -0.01004102  0.00502884  0.49535352  1
  Ta  Ta99  1  0.50928347  0.72317584  0.62398387  1
  Ta  Ta100  1  0.10566991  0.30277346  0.88126619  1
  Ta  Ta101  1  0.69035686  0.29079752  0.86387137  1
  Ta  Ta102  1  0.08483734  0.50188046  0.63313217  1
  Ta  Ta103  1  0.50467721  0.09057910  0.63886316  1
  Ta  Ta104  1  0.58825631  0.19947722  0.00988127  1
  Ta  Ta105  1  0.50204539  0.49548753  0.86949125  1
  Ta  Ta106  1  0.29306775  0.89827835  0.87656342  1
  Ta  Ta107  1  0.10261234  0.91222422  0.37342297  1
  Ta  Ta108  1  0.49969435  0.89387874  0.12875698  1
  Ta  Ta109  1  0.40177295  0.60515574  0.51769170  1
  Ta  Ta110  1  0.88635495  0.90255275  0.60985313  1
  Ta  Ta111  1  0.11230580  0.51492357  0.87225692  1
  Ta  Ta112  1  0.69633755  0.88603897  0.14207291  1
  Ta  Ta113  1  0.20523887  -0.00395259  0.01662601  1
  Ta  Ta114  1  0.59527383  -0.00025598  0.25504438  1
  Ta  Ta115  1  0.88279221  0.89746749  0.88782297  1
  Ta  Ta116  1  0.09431445  0.50362747  0.38664547  1
  Ta  Ta117  1  0.70599616  0.48739384  0.87239714  1
  Ta  Ta118  1  0.20270438  0.82048207  0.24035311  1
  Ta  Ta119  1  0.39550192  0.80548275  0.00352152  1
  Ti  Ti120  1  0.19847049  0.00821471  0.22640416  1
  Ti  Ti121  1  0.68822766  0.69450135  0.13963762  1
  Ti  Ti122  1  0.90907724  0.29777209  0.11420716  1
  Ti  Ti123  1  0.30234542  0.10554325  0.64658791  1
  Ti  Ti124  1  -0.00968945  0.79951247  0.74869669  1
  Ti  Ti125  1  0.20415034  0.40325289  0.24609995  1
  Ti  Ti126  1  0.30134682  0.29184960  0.66403687  1
  Ti  Ti127  1  0.38545177  0.38950111  0.50287353  1
  Ti  Ti128  1  0.79847797  0.39097340  0.25575262  1
  Ti  Ti129  1  0.69659981  0.09487356  0.12274863  1
  Ti  Ti130  1  0.49220732  0.08779914  0.36420978  1
  Ti  Ti131  1  0.19890657  0.59599267  0.25507847  1
  Ti  Ti132  1  0.09639817  0.70680361  0.13677762  1
  Ti  Ti133  1  0.70158696  0.49119531  0.38661159  1
  Ti  Ti134  1  0.90398332  0.10236639  0.11262686  1
  Ti  Ti135  1  0.00397723  0.41012154  0.50195058  1
  Ti  Ti136  1  0.60788799  0.38508640  -0.01114000  1
  Ti  Ti137  1  0.49997282  0.49722780  0.62645481  1
  Ti  Ti138  1  0.40077986  -0.00929181  0.74811609  1
  Ti  Ti139  1  0.39391940  -0.00923841  0.23071991  1
  Ti  Ti140  1  -0.00972847  0.80806132  0.01356417  1
  Ti  Ti141  1  0.60261747  0.39395696  0.26098471  1
  Ti  Ti142  1  0.49236290  0.50137638  0.39045883  1
  Ti  Ti143  1  0.68202551  0.87649286  0.61786292  1
  Ti  Ti144  1  0.19883951  0.21302717  0.22938816  1
  Ti  Ti145  1  0.20744612  0.80915300  0.50115926  1
  Ti  Ti146  1  0.90747888  0.51255435  0.63343110  1
  Ti  Ti147  1  0.80975106  0.39855964  0.50616457  1
  Ti  Ti148  1  0.90319760  0.49051083  0.37783776  1
  Ti  Ti149  1  0.90086332  0.70205620  0.36765374  1
  Ti  Ti150  1  0.60102274  -0.00210293  0.75511543  1
  Ti  Ti151  1  0.29839460  0.91179782  0.36480141  1
  Ti  Ti152  1  0.09085003  0.70295661  0.62343021  1
  Ti  Ti153  1  0.00372190  0.00976115  0.23544687  1
  Ti  Ti154  1  0.79345314  -0.00110197  0.48336322  1
  Ti  Ti155  1  0.80323274  0.79053726  0.74461371  1
  Ti  Ti156  1  0.89784101  0.70142640  0.62284518  1
  Ti  Ti157  1  0.39326372  0.79706369  0.74822531  1
  Ti  Ti158  1  0.39832826  0.19856666  0.01478716  1
  Ti  Ti159  1  0.00048968  -0.00764706  0.01366483  1
  Mo  Mo160  1  0.40396835  0.18470633  0.75118077  1
  Mo  Mo161  1  0.29891767  0.29932820  0.36917146  1
  Mo  Mo162  1  0.19489590  0.40444171  0.50717748  1
  Mo  Mo163  1  0.59772809  0.79760490  0.48711358  1
  Mo  Mo164  1  0.79454413  0.79866006  0.25145504  1
  Mo  Mo165  1  0.50633534  0.09437383  0.12465108  1
  Mo  Mo166  1  0.40509645  0.40582092  0.76230747  1
  Mo  Mo167  1  0.49180594  0.68852353  0.38616226  1
  Mo  Mo168  1  0.01148079  0.41390675  0.76258490  1
  Mo  Mo169  1  0.79281644  0.40160579  -0.01323398  1
  Mo  Mo170  1  0.39252363  0.80759164  0.24568273  1
  Mo  Mo171  1  0.90257219  0.08826744  0.61746078  1
  Mo  Mo172  1  0.19784420  0.40257279  0.77019724  1
  Mo  Mo173  1  0.60736287  0.19123157  0.74864667  1
  Mo  Mo174  1  0.19816656  0.18477847  0.76061554  1
  Mo  Mo175  1  0.91416086  0.72290513  0.87335571  1
  Mo  Mo176  1  0.19492096  0.60004125  -0.00492999  1
  Mo  Mo177  1  0.30550754  0.30395880  0.10928237  1
  Mo  Mo178  1  0.08687925  0.70428577  0.86676262  1
  Mo  Mo179  1  -0.00466951  0.59755068  0.50077519  1
  Mo  Mo180  1  0.30450919  0.49683499  0.87097671  1
  Mo  Mo181  1  0.47817397  0.90230272  0.36042184  1
  Mo  Mo182  1  0.69520683  0.29916519  0.12866187  1
  Mo  Mo183  1  0.30123003  0.89741370  0.12572257  1
  Mo  Mo184  1  0.00279142  0.20309598  -0.00540892  1
  Mo  Mo185  1  0.70934527  0.70501428  0.62077603  1
  Mo  Mo186  1  0.29320417  0.10279676  0.12292335  1
  Mo  Mo187  1  0.89587889  0.91035752  0.12086420  1
  Mo  Mo188  1  0.00364784  0.62018611  0.74117160  1
  Mo  Mo189  1  0.70290686  0.90190465  0.36273120  1
  Mo  Mo190  1  0.80325035  0.61127502  0.73523139  1
  Mo  Mo191  1  0.70506324  0.08985578  0.37060809  1
  Mo  Mo192  1  0.50631187  0.90538660  0.63472915  1
  Mo  Mo193  1  0.30108268  0.70756188  0.62334569  1
  Mo  Mo194  1  0.69847036  0.89552695  0.87984567  1
  Mo  Mo195  1  0.21182449  0.40719245  -0.02548880  1
  Mo  Mo196  1  0.21086219  0.20055871  0.00273000  1
  Mo  Mo197  1  0.80207033  -0.00466733  0.02056907  1
  Mo  Mo198  1  0.09603750  0.90941038  0.12348104  1
  Mo  Mo199  1  0.00647509  0.19628333  0.23656815  1
