# generated using pymatgen
data_HfZrTaTiMo
_symmetry_space_group_name_H-M   'P 1'
_cell_length_a   15.21887827
_cell_length_b   15.19620416
_cell_length_c   16.85558328
_cell_angle_alpha   90.00753300
_cell_angle_beta   89.99431927
_cell_angle_gamma   90.13422208
_symmetry_Int_Tables_number   1
_chemical_formula_structural   HfZrTaTiMo
_chemical_formula_sum   'Hf40 Zr40 Ta40 Ti40 Mo40'
_cell_volume   3898.16619752
_cell_formula_units_Z   40
loop_
 _symmetry_equiv_pos_site_id
 _symmetry_equiv_pos_as_xyz
  1  'x, y, z'
loop_
 _atom_site_type_symbol
 _atom_site_label
 _atom_site_symmetry_multiplicity
 _atom_site_fract_x
 _atom_site_fract_y
 _atom_site_fract_z
 _atom_site_occupancy
  Hf  Hf0  1  0.91048467  0.11386864  0.86750091  1
  Hf  Hf1  1  0.00883650  0.79482116  -0.01002539  1
  Hf  Hf2  1  0.29769051  0.69985951  0.38383141  1
  Hf  Hf3  1  -0.01412516  0.39423303  -0.00607849  1
  Hf  Hf4  1  0.89970114  0.49545996  0.13447689  1
  Hf  Hf5  1  0.50433252  0.49264909  0.10777937  1
  Hf  Hf6  1  0.39963024  0.20413409  0.76745070  1
  Hf  Hf7  1  0.80909608  0.59935261  0.52084434  1
  Hf  Hf8  1  0.39650666  0.18805827  0.23904400  1
  Hf  Hf9  1  0.40183461  -0.00038417  0.74882166  1
  Hf  Hf10  1  -0.00069744  0.59630609  -0.00738500  1
  Hf  Hf11  1  0.30773394  0.08810417  0.10669504  1
  Hf  Hf12  1  -0.00614428  0.80549353  0.25910994  1
  Hf  Hf13  1  0.50127638  0.69865130  0.11862739  1
  Hf  Hf14  1  -0.01305455  0.78885859  0.51400729  1
  Hf  Hf15  1  0.58518286  0.19115270  0.50341461  1
  Hf  Hf16  1  0.80824501  0.01046808  0.24848035  1
  Hf  Hf17  1  0.91699628  0.51175258  0.37559603  1
  Hf  Hf18  1  0.78140632  0.80765910  0.51258045  1
  Hf  Hf19  1  0.48647048  0.91124081  0.10784099  1
  Hf  Hf20  1  0.19811384  0.20544798  -0.00873204  1
  Hf  Hf21  1  0.41736147  0.01874187  0.51445612  1
  Hf  Hf22  1  0.00669630  0.41549266  0.50954397  1
  Hf  Hf23  1  0.19275277  0.61314980  -0.01571027  1
  Hf  Hf24  1  0.61073376  0.59059455  0.75596721  1
  Hf  Hf25  1  0.17906071  0.57929161  0.50765146  1
  Hf  Hf26  1  0.10307634  0.70608514  0.13064001  1
  Hf  Hf27  1  0.09721695  0.29740377  0.12368828  1
  Hf  Hf28  1  0.60420300  0.00992245  0.76219887  1
  Hf  Hf29  1  0.80694881  0.60946338  -0.00472191  1
  Hf  Hf30  1  0.80254566  0.21293368  -0.00466782  1
  Hf  Hf31  1  0.49212274  0.90363212  0.88142376  1
  Hf  Hf32  1  0.08429829  0.50648944  0.85692820  1
  Hf  Hf33  1  0.78708309  0.80339671  0.25613019  1
  Hf  Hf34  1  0.49080544  0.09366468  0.36679652  1
  Hf  Hf35  1  0.59112604  0.00337397  0.23400760  1
  Hf  Hf36  1  0.10034596  0.07743818  0.11323439  1
  Hf  Hf37  1  0.40205499  0.39990641  0.76589873  1
  Hf  Hf38  1  0.60760399  0.40785934  0.24973636  1
  Hf  Hf39  1  0.41061126  0.58678833  0.50514307  1
  Zr  Zr40  1  0.29902702  0.48652420  0.62637284  1
  Zr  Zr41  1  0.30501044  0.48434632  0.38238090  1
  Zr  Zr42  1  0.89176207  0.89102150  0.87244383  1
  Zr  Zr43  1  0.30353511  0.08857674  0.89087122  1
  Zr  Zr44  1  0.27182791  0.89562234  0.11138644  1
  Zr  Zr45  1  0.60896356  0.80234382  -0.01432982  1
  Zr  Zr46  1  0.79662861  0.20606455  0.49702429  1
  Zr  Zr47  1  0.19966109  0.38640936  0.76217235  1
  Zr  Zr48  1  0.10031774  0.28885149  0.62344813  1
  Zr  Zr49  1  0.89760136  0.70438734  0.12895454  1
  Zr  Zr50  1  0.51056425  0.69614190  0.37226259  1
  Zr  Zr51  1  0.39443771  0.59111849  -0.01473361  1
  Zr  Zr52  1  0.19612802  0.80979153  0.26480236  1
  Zr  Zr53  1  0.40995796  0.79533764  0.50276770  1
  Zr  Zr54  1  0.79377042  0.60001736  0.25518567  1
  Zr  Zr55  1  0.10078465  0.90635785  0.39603555  1
  Zr  Zr56  1  0.69936565  0.09371989  0.37153744  1
  Zr  Zr57  1  0.00889022  0.00395818  0.74616563  1
  Zr  Zr58  1  0.07893810  0.67962944  0.38244007  1
  Zr  Zr59  1  0.18746876  0.58572108  0.25836168  1
  Zr  Zr60  1  0.29014852  0.49107263  0.11555972  1
  Zr  Zr61  1  0.69479356  0.31901125  0.63319563  1
  Zr  Zr62  1  0.29941895  0.11180457  0.62642990  1
  Zr  Zr63  1  0.91671936  0.91229967  0.11608554  1
  Zr  Zr64  1  0.40341188  0.59405868  0.24899725  1
  Zr  Zr65  1  0.69991079  0.10912467  0.63915441  1
  Zr  Zr66  1  0.51051430  0.90023858  0.37879053  1
  Zr  Zr67  1  0.70732802  0.90170937  0.11604614  1
  Zr  Zr68  1  0.30431403  0.89656298  0.62221781  1
  Zr  Zr69  1  0.30135976  0.69226473  0.63459351  1
  Zr  Zr70  1  0.40164855  0.39143052  0.24609666  1
  Zr  Zr71  1  0.30125012  0.69832355  0.84937496  1
  Zr  Zr72  1  0.19896968  0.37780557  0.25794358  1
  Zr  Zr73  1  0.07496790  0.28513590  0.87152610  1
  Zr  Zr74  1  0.49471562  0.29677565  0.37122676  1
  Zr  Zr75  1  0.60565753  0.40626937  0.49728462  1
  Zr  Zr76  1  0.39933927  0.81263640  0.24717625  1
  Zr  Zr77  1  0.71216823  0.49567344  0.87598923  1
  Zr  Zr78  1  0.89511692  0.91329225  0.38482517  1
  Zr  Zr79  1  0.52195551  0.89220002  0.63024908  1
  Ta  Ta80  1  0.09435828  0.49817222  0.12212450  1
  Ta  Ta81  1  0.40400953  0.38221225  0.50303592  1
  Ta  Ta82  1  0.50738788  0.49080744  0.87833674  1
  Ta  Ta83  1  0.80607564  0.00891211  -0.00807660  1
  Ta  Ta84  1  -0.02056506  0.39133631  0.74166141  1
  Ta  Ta85  1  0.70299944  0.30186393  0.37065917  1
  Ta  Ta86  1  0.11030645  0.10771310  0.38535250  1
  Ta  Ta87  1  0.60464889  0.60095501  -0.01428752  1
  Ta  Ta88  1  0.19805781  0.17677817  0.24766387  1
  Ta  Ta89  1  0.71995149  0.71253824  0.86745405  1
  Ta  Ta90  1  0.19642539  0.79447645  0.50448524  1
  Ta  Ta91  1  0.60732992  0.80654513  0.76638807  1
  Ta  Ta92  1  0.30341989  0.29285320  0.11000890  1
  Ta  Ta93  1  0.10278079  0.89217950  0.87219332  1
  Ta  Ta94  1  0.89507700  0.30452618  0.61320380  1
  Ta  Ta95  1  0.61402837  0.01381869  -0.00909922  1
  Ta  Ta96  1  0.70614388  0.11660553  0.86932989  1
  Ta  Ta97  1  0.19242430  0.18504940  0.76301622  1
  Ta  Ta98  1  0.80318455  0.00800719  0.51117452  1
  Ta  Ta99  1  0.49361612  0.28853265  0.63214300  1
  Ta  Ta100  1  0.10068170  0.90183856  0.61500372  1
  Ta  Ta101  1  0.89884762  0.91164803  0.62768455  1
  Ta  Ta102  1  0.19127546  0.80570152  0.74159491  1
  Ta  Ta103  1  0.81270959  0.22370365  0.75388071  1
  Ta  Ta104  1  0.19873251  -0.00324713  0.74850336  1
  Ta  Ta105  1  0.29756067  0.69724777  0.12224569  1
  Ta  Ta106  1  0.50594628  0.11238580  0.89238724  1
  Ta  Ta107  1  0.69676899  0.69749137  0.11715961  1
  Ta  Ta108  1  0.90363592  0.30746352  0.38003328  1
  Ta  Ta109  1  0.90870014  0.11589749  0.62965193  1
  Ta  Ta110  1  0.38664556  0.79055471  -0.00572293  1
  Ta  Ta111  1  0.30633580  0.92107591  0.38378725  1
  Ta  Ta112  1  0.02044743  0.01132648  0.25751814  1
  Ta  Ta113  1  0.68978239  0.71077117  0.63715400  1
  Ta  Ta114  1  0.70005331  0.50313845  0.11538539  1
  Ta  Ta115  1  0.60579613  0.20441483  0.23812864  1
  Ta  Ta116  1  0.80252209  0.39705378  0.25754056  1
  Ta  Ta117  1  0.50779975  0.48901200  0.63508876  1
  Ta  Ta118  1  0.49654026  0.69232815  0.64936496  1
  Ta  Ta119  1  0.29177328  0.89403414  0.87836909  1
  Ti  Ti120  1  0.61761585  -0.01205217  0.51175406  1
  Ti  Ti121  1  0.51188272  0.50132717  0.37723994  1
  Ti  Ti122  1  0.69363866  0.69809592  0.38499867  1
  Ti  Ti123  1  0.39781780  0.38434606  -0.01875152  1
  Ti  Ti124  1  0.29903187  0.29475868  0.62554460  1
  Ti  Ti125  1  0.50529270  0.10858606  0.10134098  1
  Ti  Ti126  1  0.00647208  0.40377206  0.25656386  1
  Ti  Ti127  1  -0.01603424  0.59079945  0.72548863  1
  Ti  Ti128  1  0.88706647  0.70374758  0.37986329  1
  Ti  Ti129  1  0.19463007  0.59231214  0.74586201  1
  Ti  Ti130  1  0.79269236  0.40011163  -0.00243919  1
  Ti  Ti131  1  0.20672805  0.37984212  0.49164126  1
  Ti  Ti132  1  0.91199769  0.11238452  0.37910739  1
  Ti  Ti133  1  0.69387627  0.89696745  0.37744062  1
  Ti  Ti134  1  0.59958132  0.79827493  0.24157382  1
  Ti  Ti135  1  0.70887538  0.50332289  0.38446107  1
  Ti  Ti136  1  0.80278876  0.20618709  0.25287531  1
  Ti  Ti137  1  0.19714550  0.40745929  -0.01730954  1
  Ti  Ti138  1  0.60831741  0.22255328  -0.00593521  1
  Ti  Ti139  1  0.09583277  0.29193331  0.38175417  1
  Ti  Ti140  1  0.09607329  0.69397137  0.62973522  1
  Ti  Ti141  1  0.89684888  0.29993107  0.13435153  1
  Ti  Ti142  1  0.80143526  0.80499121  0.73859392  1
  Ti  Ti143  1  0.90928066  0.68619373  0.85409745  1
  Ti  Ti144  1  0.10021138  0.08301615  0.88711456  1
  Ti  Ti145  1  0.50056116  0.69667577  0.86112961  1
  Ti  Ti146  1  0.00161565  0.20199359  0.25180448  1
  Ti  Ti147  1  0.90094985  0.10701348  0.12720349  1
  Ti  Ti148  1  0.10188796  0.10223504  0.61695662  1
  Ti  Ti149  1  0.70261686  0.30817366  0.12799659  1
  Ti  Ti150  1  0.50417009  0.29826358  0.11448746  1
  Ti  Ti151  1  0.70439899  0.11190578  0.11850188  1
  Ti  Ti152  1  0.79647705  0.42328814  0.74432494  1
  Ti  Ti153  1  0.60381219  0.60943651  0.51734453  1
  Ti  Ti154  1  0.20688943  0.00621795  0.50450059  1
  Ti  Ti155  1  0.80176223  0.00517427  0.75221195  1
  Ti  Ti156  1  -0.00864459  0.19274159  0.00696604  1
  Ti  Ti157  1  0.60633671  0.60280977  0.24754753  1
  Ti  Ti158  1  0.00097282  0.79786318  0.74079053  1
  Ti  Ti159  1  -0.00300684  0.01415515  0.50644191  1
  Mo  Mo160  1  0.40850929  0.20306342  0.00307126  1
  Mo  Mo161  1  0.59807686  0.39465331  0.75053331  1
  Mo  Mo162  1  0.00183641  0.59436055  0.24538339  1
  Mo  Mo163  1  0.88139122  0.31674921  0.86984467  1
  Mo  Mo164  1  0.20604575  0.00298595  0.25602240  1
  Mo  Mo165  1  0.50435261  0.10863334  0.63456261  1
  Mo  Mo166  1  0.18831678  -0.01531142  -0.00972412  1
  Mo  Mo167  1  0.60450488  0.40241431  0.00408755  1
  Mo  Mo168  1  0.29589606  0.29683566  0.88715881  1
  Mo  Mo169  1  -0.00444573  0.00290825  -0.00994827  1
  Mo  Mo170  1  0.09183229  0.70370654  0.84562773  1
  Mo  Mo171  1  0.80230913  0.61052751  0.73818921  1
  Mo  Mo172  1  0.50913038  0.30067842  0.88333738  1
  Mo  Mo173  1  0.09497809  0.48042378  0.37915974  1
  Mo  Mo174  1  0.40459828  0.80015764  0.75451354  1
  Mo  Mo175  1  -0.00260040  0.19933525  0.49475889  1
  Mo  Mo176  1  0.00263744  0.20193395  0.74408740  1
  Mo  Mo177  1  0.28893602  0.27232191  0.37875616  1
  Mo  Mo178  1  0.09665558  0.49613824  0.64532545  1
  Mo  Mo179  1  0.79987208  0.40404500  0.48770741  1
  Mo  Mo180  1  0.59818844  0.21106341  0.76301873  1
  Mo  Mo181  1  0.09227625  0.89672348  0.12690033  1
  Mo  Mo182  1  0.29861316  0.10048748  0.37962501  1
  Mo  Mo183  1  0.38294531  0.00124079  0.24798923  1
  Mo  Mo184  1  0.69387993  0.30458210  0.86436869  1
  Mo  Mo185  1  0.40501051  -0.00648003  -0.00767380  1
  Mo  Mo186  1  0.20033144  0.19839938  0.49803147  1
  Mo  Mo187  1  0.69340326  0.50973463  0.62566806  1
  Mo  Mo188  1  0.90040652  0.50160159  0.86409329  1
  Mo  Mo189  1  0.88920604  0.49122979  0.62534903  1
  Mo  Mo190  1  0.60533865  0.79125092  0.50817465  1
  Mo  Mo191  1  0.89648275  0.70784868  0.63993733  1
  Mo  Mo192  1  0.29502073  0.49582767  0.87628420  1
  Mo  Mo193  1  0.19705104  0.78900439  -0.01118510  1
  Mo  Mo194  1  -0.00053216  0.60134652  0.52516416  1
  Mo  Mo195  1  0.40617160  0.59000547  0.75750113  1
  Mo  Mo196  1  0.80208317  0.79892032  -0.00788988  1
  Mo  Mo197  1  0.71041052  0.90734821  0.63749570  1
  Mo  Mo198  1  0.70770456  0.91107171  0.87553178  1
  Mo  Mo199  1  0.39454799  0.20728336  0.50192197  1
