# generated using pymatgen
data_HfZrTaTiMo
_symmetry_space_group_name_H-M   'P 1'
_cell_length_a   15.21163606
_cell_length_b   15.20465263
_cell_length_c   16.82025315
_cell_angle_alpha   90.00490394
_cell_angle_beta   90.04816525
_cell_angle_gamma   90.08323635
_symmetry_Int_Tables_number   1
_chemical_formula_structural   HfZrTaTiMo
_chemical_formula_sum   'Hf40 Zr40 Ta40 Ti40 Mo40'
_cell_volume   3890.31119759
_cell_formula_units_Z   40
loop_
 _symmetry_equiv_pos_site_id
 _symmetry_equiv_pos_as_xyz
  1  'x, y, z'
loop_
 _atom_site_type_symbol
 _atom_site_label
 _atom_site_symmetry_multiplicity
 _atom_site_fract_x
 _atom_site_fract_y
 _atom_site_fract_z
 _atom_site_occupancy
  Hf  Hf0  1  0.31503566  0.89520186  0.87729832  1
  Hf  Hf1  1  0.30620954  0.10316554  0.87793666  1
  Hf  Hf2  1  0.72219558  0.90204714  0.12133656  1
  Hf  Hf3  1  0.18485321  0.60577442  0.76079561  1
  Hf  Hf4  1  0.09658005  0.49537900  0.89345601  1
  Hf  Hf5  1  0.20198112  0.81416985  0.00952343  1
  Hf  Hf6  1  0.08979297  0.49890095  0.11810797  1
  Hf  Hf7  1  0.09071193  0.90964363  0.38553416  1
  Hf  Hf8  1  0.18431769  0.79945929  0.24472514  1
  Hf  Hf9  1  0.91530038  0.89448570  0.86866364  1
  Hf  Hf10  1  0.21438517  0.61200475  0.00585733  1
  Hf  Hf11  1  0.40286986  0.79065156  0.24954168  1
  Hf  Hf12  1  0.19459748  0.40105304  0.74989058  1
  Hf  Hf13  1  0.79351131  0.78659406  0.26728826  1
  Hf  Hf14  1  0.79275969  0.59233387  -0.01368995  1
  Hf  Hf15  1  0.29779265  0.30168307  0.36974257  1
  Hf  Hf16  1  0.31165634  0.10412580  0.36584460  1
  Hf  Hf17  1  0.79257353  0.18309249  0.26155754  1
  Hf  Hf18  1  0.80162389  0.17888216  -0.00754615  1
  Hf  Hf19  1  0.80969328  0.41328162  0.75861269  1
  Hf  Hf20  1  0.47476073  0.69183328  0.87256598  1
  Hf  Hf21  1  0.50021572  0.31265347  0.38957621  1
  Hf  Hf22  1  0.89165262  0.29368583  0.62337347  1
  Hf  Hf23  1  0.08047375  0.70838784  0.11240203  1
  Hf  Hf24  1  0.08327540  0.70679715  0.89132198  1
  Hf  Hf25  1  0.28230032  0.50233204  0.61887425  1
  Hf  Hf26  1  0.63325592  0.02134258  0.00002099  1
  Hf  Hf27  1  0.60746750  0.00524352  0.73899103  1
  Hf  Hf28  1  0.69228218  0.28345051  0.11382413  1
  Hf  Hf29  1  0.79662712  0.59714985  0.49632245  1
  Hf  Hf30  1  0.89991917  0.08584041  0.12589129  1
  Hf  Hf31  1  0.20255976  0.79275321  0.48863503  1
  Hf  Hf32  1  0.69281839  0.71145235  0.63434757  1
  Hf  Hf33  1  0.59176307  0.60316055  0.25971949  1
  Hf  Hf34  1  0.10208290  0.29966434  0.36112822  1
  Hf  Hf35  1  0.39492555  0.77755319  0.02043210  1
  Hf  Hf36  1  0.69357876  0.28934428  0.86831419  1
  Hf  Hf37  1  0.68839970  0.70471802  0.86074500  1
  Hf  Hf38  1  0.78806489  0.39491086  0.25779470  1
  Hf  Hf39  1  0.01507140  0.20706537  0.00744581  1
  Zr  Zr40  1  0.50004020  0.91290148  0.37146241  1
  Zr  Zr41  1  0.71839777  0.11320633  0.62348216  1
  Zr  Zr42  1  0.11167989  0.10426399  0.37441151  1
  Zr  Zr43  1  0.31438330  0.51496955  0.88400576  1
  Zr  Zr44  1  0.29672492  0.48539089  0.12407937  1
  Zr  Zr45  1  0.10883398  0.89396792  0.61252790  1
  Zr  Zr46  1  0.30942702  0.89915570  0.62779946  1
  Zr  Zr47  1  0.21210132  0.00538698  0.75157920  1
  Zr  Zr48  1  0.82185612  -0.02034331  0.26057936  1
  Zr  Zr49  1  0.70265290  0.50129110  0.62398167  1
  Zr  Zr50  1  0.51287557  0.89860684  0.13490758  1
  Zr  Zr51  1  0.51225677  0.11554679  0.12308469  1
  Zr  Zr52  1  0.28821505  0.70511203  0.62697586  1
  Zr  Zr53  1  0.41109528  -0.00543474  0.00635484  1
  Zr  Zr54  1  0.62259260  0.01536316  0.24918290  1
  Zr  Zr55  1  0.39976828  0.41031125  0.74771460  1
  Zr  Zr56  1  0.70997436  0.90829082  0.86193504  1
  Zr  Zr57  1  0.69514881  0.49397661  0.11987473  1
  Zr  Zr58  1  0.01482345  -0.00485809  0.74053415  1
  Zr  Zr59  1  0.58375480  0.59475102  0.74566815  1
  Zr  Zr60  1  0.28492770  0.30155130  0.88065029  1
  Zr  Zr61  1  0.47848201  0.50581947  0.38124169  1
  Zr  Zr62  1  0.70512781  0.91408021  0.39658962  1
  Zr  Zr63  1  0.58970954  0.39461601  0.74951798  1
  Zr  Zr64  1  0.40657551  0.20581185  0.74376495  1
  Zr  Zr65  1  0.88480800  0.69611758  0.12191872  1
  Zr  Zr66  1  0.10125995  0.50421276  0.37158412  1
  Zr  Zr67  1  -0.00748013  0.60391556  0.24884015  1
  Zr  Zr68  1  0.00334844  0.38841650  0.75632843  1
  Zr  Zr69  1  0.40679204  0.79156791  0.48316687  1
  Zr  Zr70  1  0.59513400  0.80590961  -0.00615166  1
  Zr  Zr71  1  0.10090802  0.11582399  0.87684159  1
  Zr  Zr72  1  0.89935697  0.29760031  0.13216749  1
  Zr  Zr73  1  0.40110484  -0.00025148  0.50166672  1
  Zr  Zr74  1  0.90795216  0.29438608  0.37274384  1
  Zr  Zr75  1  0.91427238  0.08210134  0.38589967  1
  Zr  Zr76  1  0.51563620  0.10767235  0.87514908  1
  Zr  Zr77  1  0.68451817  0.69912053  0.12054707  1
  Zr  Zr78  1  0.28984804  0.67687441  0.36030915  1
  Zr  Zr79  1  0.49311436  0.31025950  0.11493442  1
  Ta  Ta80  1  0.39880457  0.39323423  0.24574696  1
  Ta  Ta81  1  0.51031572  0.10951947  0.61690206  1
  Ta  Ta82  1  0.19421077  0.80141862  0.76250536  1
  Ta  Ta83  1  0.29067371  0.90849872  0.36191457  1
  Ta  Ta84  1  0.09839312  0.29916312  0.61545694  1
  Ta  Ta85  1  0.20498590  0.01628543  0.01564951  1
  Ta  Ta86  1  0.09175150  0.68953330  0.62156001  1
  Ta  Ta87  1  0.89581856  0.49541169  0.37965303  1
  Ta  Ta88  1  0.29693680  0.30233551  0.61733849  1
  Ta  Ta89  1  0.40143390  0.20401461  0.50389577  1
  Ta  Ta90  1  0.20261071  0.00433546  0.23815661  1
  Ta  Ta91  1  0.30142328  0.10456592  0.62092741  1
  Ta  Ta92  1  0.49318940  0.70145555  0.62319019  1
  Ta  Ta93  1  0.08873180  0.70191277  0.37698579  1
  Ta  Ta94  1  0.61326010  0.21179795  0.49759584  1
  Ta  Ta95  1  0.50053143  0.31314157  0.60717357  1
  Ta  Ta96  1  0.51515721  0.89379625  0.62283760  1
  Ta  Ta97  1  0.70697575  0.90287014  0.61961428  1
  Ta  Ta98  1  0.18961780  0.20645921  0.73759869  1
  Ta  Ta99  1  0.60267951  0.79594217  0.26860860  1
  Ta  Ta100  1  0.49334179  0.30440881  0.88865271  1
  Ta  Ta101  1  0.90061620  0.69683990  0.38140103  1
  Ta  Ta102  1  0.89726537  0.68612470  0.63267562  1
  Ta  Ta103  1  0.11067939  0.90773853  0.88685939  1
  Ta  Ta104  1  0.80637416  0.80021381  -0.01311045  1
  Ta  Ta105  1  0.60029245  0.21315645  0.26464172  1
  Ta  Ta106  1  -0.01100036  0.39718975  -0.00318909  1
  Ta  Ta107  1  0.59292575  0.40226354  0.25110860  1
  Ta  Ta108  1  0.80383316  0.79450735  0.50256978  1
  Ta  Ta109  1  0.80256577  0.39209723  -0.01635426  1
  Ta  Ta110  1  0.68480626  0.48883207  0.38699848  1
  Ta  Ta111  1  0.82352227  0.00981596  0.73598127  1
  Ta  Ta112  1  -0.01339280  0.81256130  0.25663786  1
  Ta  Ta113  1  0.30073253  0.90669266  0.13669538  1
  Ta  Ta114  1  0.51622293  0.10836123  0.38554772  1
  Ta  Ta115  1  0.78871572  0.59106240  0.26806382  1
  Ta  Ta116  1  0.20419130  0.20046510  0.50353606  1
  Ta  Ta117  1  0.58791529  0.60934184  0.49920436  1
  Ta  Ta118  1  0.78864923  0.38910214  0.49698989  1
  Ta  Ta119  1  0.38459883  0.59499501  0.50384173  1
  Ti  Ti120  1  -0.00890820  0.79413200  0.50369720  1
  Ti  Ti121  1  0.38904699  0.20652608  0.00381515  1
  Ti  Ti122  1  0.00571152  0.78660979  0.74543181  1
  Ti  Ti123  1  0.40353200  0.79929168  0.74905319  1
  Ti  Ti124  1  0.51035939  0.89967658  0.86531633  1
  Ti  Ti125  1  0.80562429  0.80054481  0.74604338  1
  Ti  Ti126  1  -0.00386089  0.39975665  0.24543642  1
  Ti  Ti127  1  0.00303305  0.19591927  0.50595309  1
  Ti  Ti128  1  0.69404342  0.50306172  0.86884835  1
  Ti  Ti129  1  -0.00861028  0.18701345  0.74191636  1
  Ti  Ti130  1  -0.01747983  0.58465430  0.74887025  1
  Ti  Ti131  1  0.19230948  0.40386434  0.49947296  1
  Ti  Ti132  1  0.90659738  0.28042736  0.87089033  1
  Ti  Ti133  1  0.90390715  0.89024924  0.62601084  1
  Ti  Ti134  1  0.91356093  0.88748885  0.11116516  1
  Ti  Ti135  1  0.30990336  0.11236915  0.13722253  1
  Ti  Ti136  1  0.80440749  0.19775863  0.48785942  1
  Ti  Ti137  1  0.01067165  -0.00039215  0.24580177  1
  Ti  Ti138  1  0.18794792  0.36862900  0.01330808  1
  Ti  Ti139  1  0.69518875  0.29901225  0.63609300  1
  Ti  Ti140  1  0.89039640  0.49875979  0.12013893  1
  Ti  Ti141  1  0.10623479  0.09916466  0.61307823  1
  Ti  Ti142  1  0.40265159  0.41289126  0.00062313  1
  Ti  Ti143  1  0.39790144  0.59470838  0.22967001  1
  Ti  Ti144  1  0.10787067  0.11718722  0.13597484  1
  Ti  Ti145  1  0.00024967  0.00349282  -0.00359981  1
  Ti  Ti146  1  0.40899731  0.00955713  0.24821120  1
  Ti  Ti147  1  0.89400345  0.68800834  0.86541533  1
  Ti  Ti148  1  0.57611460  0.59603560  -0.00205727  1
  Ti  Ti149  1  -0.00982144  0.40067136  0.50253575  1
  Ti  Ti150  1  0.08303811  0.49994629  0.62029982  1
  Ti  Ti151  1  0.60025702  0.40631661  -0.01097894  1
  Ti  Ti152  1  0.39031186  0.60068974  0.73892453  1
  Ti  Ti153  1  0.09416811  0.91395960  0.11772893  1
  Ti  Ti154  1  0.72124859  0.10455182  0.85097753  1
  Ti  Ti155  1  -0.00259452  0.59703090  0.50191502  1
  Ti  Ti156  1  0.41238143  0.00115094  0.74144376  1
  Ti  Ti157  1  0.60241972  0.79900967  0.49144896  1
  Ti  Ti158  1  0.28787549  0.49039812  0.36564406  1
  Ti  Ti159  1  0.81806317  -0.00289950  0.51151891  1
  Mo  Mo160  1  0.38319530  0.40111910  0.50311538  1
  Mo  Mo161  1  0.81124300  0.20366304  0.75239110  1
  Mo  Mo162  1  -0.00546903  0.80975173  -0.00508283  1
  Mo  Mo163  1  0.90572790  0.49851583  0.61449308  1
  Mo  Mo164  1  0.29370497  0.70852863  0.87070052  1
  Mo  Mo165  1  0.91426880  0.09937564  0.61186479  1
  Mo  Mo166  1  0.90489757  0.09319057  0.87247563  1
  Mo  Mo167  1  0.69640609  0.30088493  0.37886666  1
  Mo  Mo168  1  0.10132479  0.30533044  0.14390550  1
  Mo  Mo169  1  0.29694842  0.28885828  0.13430843  1
  Mo  Mo170  1  0.60633673  0.00624855  0.51570765  1
  Mo  Mo171  1  0.00519145  -0.00393350  0.51720506  1
  Mo  Mo172  1  0.59923473  0.20380732  0.73982595  1
  Mo  Mo173  1  0.18418206  0.59687139  0.49948462  1
  Mo  Mo174  1  0.40570354  0.59804066  0.01878139  1
  Mo  Mo175  1  0.58841159  0.80742545  0.74728541  1
  Mo  Mo176  1  0.28929100  0.69736522  0.14304885  1
  Mo  Mo177  1  0.60070421  0.20823362  -0.00786190  1
  Mo  Mo178  1  0.70290866  0.10388341  0.39438704  1
  Mo  Mo179  1  0.20613923  0.19624776  0.01517891  1
  Mo  Mo180  1  0.81907772  -0.01066564  -0.00634416  1
  Mo  Mo181  1  0.20923387  0.00723491  0.49766747  1
  Mo  Mo182  1  0.80211709  0.60462239  0.75513449  1
  Mo  Mo183  1  0.48818977  0.50695273  0.60763609  1
  Mo  Mo184  1  0.89946069  0.49903017  0.88130531  1
  Mo  Mo185  1  -0.01681534  0.59372364  -0.00245550  1
  Mo  Mo186  1  0.50437291  0.49787326  0.88116595  1
  Mo  Mo187  1  0.19740868  0.60049734  0.23688181  1
  Mo  Mo188  1  0.70916345  0.10062944  0.12737997  1
  Mo  Mo189  1  0.50202027  0.69257451  0.12993718  1
  Mo  Mo190  1  0.41429603  0.20309828  0.25540878  1
  Mo  Mo191  1  0.50418244  0.49971057  0.12732219  1
  Mo  Mo192  1  0.90922758  0.88605887  0.39234062  1
  Mo  Mo193  1  0.19567786  0.40252265  0.24340330  1
  Mo  Mo194  1  0.59943027  0.40781654  0.51049813  1
  Mo  Mo195  1  0.00423978  0.19338360  0.24116690  1
  Mo  Mo196  1  0.69457365  0.69554795  0.38627312  1
  Mo  Mo197  1  0.20836249  0.20152174  0.24201802  1
  Mo  Mo198  1  0.09704790  0.29773529  0.87713608  1
  Mo  Mo199  1  0.49733756  0.69930790  0.37880756  1
