# generated using pymatgen
data_HfZrTaTiMo
_symmetry_space_group_name_H-M   'P 1'
_cell_length_a   15.21057276
_cell_length_b   15.20489162
_cell_length_c   16.85056167
_cell_angle_alpha   90.00654426
_cell_angle_beta   89.99184406
_cell_angle_gamma   89.95426506
_symmetry_Int_Tables_number   1
_chemical_formula_structural   HfZrTaTiMo
_chemical_formula_sum   'Hf40 Zr40 Ta40 Ti40 Mo40'
_cell_volume   3897.11420268
_cell_formula_units_Z   40
loop_
 _symmetry_equiv_pos_site_id
 _symmetry_equiv_pos_as_xyz
  1  'x, y, z'
loop_
 _atom_site_type_symbol
 _atom_site_label
 _atom_site_symmetry_multiplicity
 _atom_site_fract_x
 _atom_site_fract_y
 _atom_site_fract_z
 _atom_site_occupancy
  Hf  Hf0  1  0.79115525  0.39929568  -0.01490676  1
  Hf  Hf1  1  0.52384220  0.70189649  0.88287172  1
  Hf  Hf2  1  0.30209426  0.09981484  0.62933446  1
  Hf  Hf3  1  0.09293114  0.29440835  0.86808067  1
  Hf  Hf4  1  0.50901171  0.70202208  0.61180038  1
  Hf  Hf5  1  0.80708790  0.18846102  -0.01321250  1
  Hf  Hf6  1  0.70238567  0.71672845  0.38288861  1
  Hf  Hf7  1  0.29830699  0.49466642  0.37671279  1
  Hf  Hf8  1  0.89847905  0.30370045  0.62590723  1
  Hf  Hf9  1  0.48673159  0.31104213  0.89560672  1
  Hf  Hf10  1  0.18716539  0.41167904  0.00004324  1
  Hf  Hf11  1  0.80753827  0.40506298  0.25936391  1
  Hf  Hf12  1  0.59079992  0.39410011  0.74661192  1
  Hf  Hf13  1  0.09843994  0.69595077  0.63633030  1
  Hf  Hf14  1  0.18581037  0.40469434  0.24178676  1
  Hf  Hf15  1  0.00008679  0.02553394  -0.02573513  1
  Hf  Hf16  1  0.09637447  0.09213549  0.63168395  1
  Hf  Hf17  1  0.89766297  0.89867095  0.63995139  1
  Hf  Hf18  1  -0.00928076  0.39048341  -0.01468932  1
  Hf  Hf19  1  0.57862042  0.19711656  0.24436827  1
  Hf  Hf20  1  0.80543894  0.20104419  0.26349347  1
  Hf  Hf21  1  0.01339587  0.58749930  0.75522135  1
  Hf  Hf22  1  0.90856314  0.69899225  0.11704614  1
  Hf  Hf23  1  0.78468921  0.20534265  0.50695843  1
  Hf  Hf24  1  0.88513426  0.90568470  0.85753349  1
  Hf  Hf25  1  0.91673037  0.48974703  0.11869485  1
  Hf  Hf26  1  0.01104277  0.79688429  -0.00785311  1
  Hf  Hf27  1  0.31443741  0.70465103  0.38025460  1
  Hf  Hf28  1  0.42246434  0.59856613  0.75764761  1
  Hf  Hf29  1  0.69298260  0.30556174  0.12114595  1
  Hf  Hf30  1  0.01234714  0.58939294  0.24774201  1
  Hf  Hf31  1  0.10496644  0.90207578  0.12332800  1
  Hf  Hf32  1  0.60362582  0.80180348  0.73948549  1
  Hf  Hf33  1  0.20307309  0.80463344  0.50660971  1
  Hf  Hf34  1  0.59870896  -0.00212446  -0.00386544  1
  Hf  Hf35  1  0.29007840  0.09792003  0.13202052  1
  Hf  Hf36  1  0.29536774  0.51046316  0.11793817  1
  Hf  Hf37  1  0.08642565  0.29441266  0.12562043  1
  Hf  Hf38  1  0.50205787  0.89455312  0.37950563  1
  Hf  Hf39  1  0.79217059  0.00107392  0.25887078  1
  Zr  Zr40  1  0.41527683  0.59818375  0.24283341  1
  Zr  Zr41  1  -0.01240390  0.78734906  0.51337463  1
  Zr  Zr42  1  0.07998308  0.48989662  0.39744553  1
  Zr  Zr43  1  0.10503097  0.88665143  0.85799515  1
  Zr  Zr44  1  0.19302866  0.00469270  0.26220300  1
  Zr  Zr45  1  0.20445959  0.79777807  0.24899941  1
  Zr  Zr46  1  0.19548251  0.00624105  0.49520644  1
  Zr  Zr47  1  0.10260378  0.69562576  0.38239926  1
  Zr  Zr48  1  0.40918928  0.20418325  0.74703471  1
  Zr  Zr49  1  0.20280894  0.59336506  0.50787133  1
  Zr  Zr50  1  0.30741235  0.29081322  0.11619326  1
  Zr  Zr51  1  0.39729944  0.80195565  0.74393052  1
  Zr  Zr52  1  0.69623659  0.30272780  0.37342290  1
  Zr  Zr53  1  0.31146873  0.50427155  0.88408562  1
  Zr  Zr54  1  0.90570285  0.71020684  0.85833319  1
  Zr  Zr55  1  0.90305148  0.10332694  0.12529319  1
  Zr  Zr56  1  0.60985528  0.39606639  0.50662950  1
  Zr  Zr57  1  0.60146530  0.80335257  0.23770754  1
  Zr  Zr58  1  0.40678879  0.38970997  0.24085582  1
  Zr  Zr59  1  0.80885310  0.60515284  -0.01267562  1
  Zr  Zr60  1  0.10100147  0.29320740  0.38980947  1
  Zr  Zr61  1  0.68197955  0.28972514  0.87538357  1
  Zr  Zr62  1  0.81487076  0.61866987  0.50633786  1
  Zr  Zr63  1  0.70629908  0.51121849  0.12175328  1
  Zr  Zr64  1  0.40769704  0.80210059  0.23960082  1
  Zr  Zr65  1  0.80713518  0.80385657  0.24836199  1
  Zr  Zr66  1  0.50044604  0.49914442  0.61506957  1
  Zr  Zr67  1  0.18274063  0.18898606  -0.00887410  1
  Zr  Zr68  1  0.59437848  0.41415203  0.25017814  1
  Zr  Zr69  1  0.80566691  0.60525491  0.25379118  1
  Zr  Zr70  1  0.20323655  -0.00805057  -0.01288561  1
  Zr  Zr71  1  0.90589384  0.90661579  0.11654695  1
  Zr  Zr72  1  0.39361539  0.39969814  0.74393219  1
  Zr  Zr73  1  0.78252206  0.20177958  0.74258129  1
  Zr  Zr74  1  0.69490888  0.09810232  0.12807726  1
  Zr  Zr75  1  0.19390146  0.41114193  0.74842460  1
  Zr  Zr76  1  0.49638559  0.29081862  0.38720923  1
  Zr  Zr77  1  0.81144996  0.41960924  0.49837088  1
  Zr  Zr78  1  0.29583806  0.28962678  0.36817771  1
  Zr  Zr79  1  0.89845667  0.90358527  0.39072231  1
  Ta  Ta80  1  0.00294830  0.19328318  0.26440426  1
  Ta  Ta81  1  0.79192336  0.40930797  0.75110952  1
  Ta  Ta82  1  0.49447325  0.89798514  0.88067729  1
  Ta  Ta83  1  0.59796494  -0.00937916  0.51135903  1
  Ta  Ta84  1  0.20334804  0.61358003  -0.00751698  1
  Ta  Ta85  1  -0.01036776  0.18110031  0.50552446  1
  Ta  Ta86  1  0.30483625  0.90654884  0.62350576  1
  Ta  Ta87  1  0.68525123  0.09651902  0.38030961  1
  Ta  Ta88  1  -0.00537112  0.39470384  0.74820552  1
  Ta  Ta89  1  0.30827157  0.90841183  0.37871645  1
  Ta  Ta90  1  0.41031188  -0.00124100  0.75733603  1
  Ta  Ta91  1  0.38953090  0.39474139  0.50577036  1
  Ta  Ta92  1  0.00590622  0.79921080  0.25164139  1
  Ta  Ta93  1  0.11956571  0.69570525  0.86131484  1
  Ta  Ta94  1  0.10124108  0.29369192  0.62009420  1
  Ta  Ta95  1  0.48250191  0.09545657  0.12401172  1
  Ta  Ta96  1  0.31232683  0.72101069  0.88151047  1
  Ta  Ta97  1  0.51198145  0.69290950  0.38809511  1
  Ta  Ta98  1  0.49377039  0.08625375  0.37856615  1
  Ta  Ta99  1  0.29728276  0.29665517  0.88648341  1
  Ta  Ta100  1  0.69728949  0.89945727  0.11771010  1
  Ta  Ta101  1  0.08929271  0.10008592  0.13103479  1
  Ta  Ta102  1  0.69495503  0.51752669  0.37380796  1
  Ta  Ta103  1  0.21312023  -0.00522737  0.75689748  1
  Ta  Ta104  1  0.89750892  0.49572162  0.86265641  1
  Ta  Ta105  1  0.68154142  0.51403058  0.86902127  1
  Ta  Ta106  1  0.30778699  0.10194401  0.87023938  1
  Ta  Ta107  1  0.79732929  -0.00591310  -0.00989632  1
  Ta  Ta108  1  0.51112227  0.27946263  0.61230172  1
  Ta  Ta109  1  0.89225736  0.09253062  0.63416519  1
  Ta  Ta110  1  0.69118666  0.88497899  0.87388876  1
  Ta  Ta111  1  0.69152487  0.90920006  0.38408646  1
  Ta  Ta112  1  0.09354788  0.89733621  0.38053673  1
  Ta  Ta113  1  0.11058434  0.69079547  0.12013478  1
  Ta  Ta114  1  0.40852831  0.61431084  0.00198933  1
  Ta  Ta115  1  0.20149360  0.20120292  0.75277820  1
  Ta  Ta116  1  0.50291714  0.49117990  0.10057126  1
  Ta  Ta117  1  0.50871559  0.10509953  0.87538876  1
  Ta  Ta118  1  0.01782538  0.59035978  -0.01604341  1
  Ta  Ta119  1  0.39745149  0.18723970  0.50348251  1
  Ti  Ti120  1  0.90969698  0.30233136  0.39017244  1
  Ti  Ti121  1  0.61323932  0.60154620  0.50102543  1
  Ti  Ti122  1  0.20675796  0.60250418  0.24855419  1
  Ti  Ti123  1  0.90077354  0.51205829  0.63718841  1
  Ti  Ti124  1  0.49755713  0.08543177  0.62039367  1
  Ti  Ti125  1  0.29741233  0.50242025  0.62350331  1
  Ti  Ti126  1  0.70048209  0.50691726  0.63565933  1
  Ti  Ti127  1  0.78977174  0.60927477  0.75465037  1
  Ti  Ti128  1  0.40824184  0.81152591  0.50740582  1
  Ti  Ti129  1  0.58728816  0.20049304  0.01052663  1
  Ti  Ti130  1  0.89492904  0.29203291  0.12291424  1
  Ti  Ti131  1  0.40248181  0.59779414  0.49906337  1
  Ti  Ti132  1  0.60211955  0.61163648  0.23928271  1
  Ti  Ti133  1  0.70858550  0.70450103  0.62804350  1
  Ti  Ti134  1  0.91266428  0.68998198  0.37571036  1
  Ti  Ti135  1  -0.00866627  -0.00197574  0.25977051  1
  Ti  Ti136  1  0.21535543  0.80189628  0.00081171  1
  Ti  Ti137  1  0.29746362  0.30064471  0.62002660  1
  Ti  Ti138  1  0.70470254  0.08441736  0.86325886  1
  Ti  Ti139  1  0.31006371  0.70844718  0.11578827  1
  Ti  Ti140  1  0.61310288  0.61316938  0.00820669  1
  Ti  Ti141  1  0.68490687  0.10609260  0.62645636  1
  Ti  Ti142  1  0.50141919  0.50154819  0.38538388  1
  Ti  Ti143  1  0.31567769  0.90855147  0.12620937  1
  Ti  Ti144  1  0.80230789  0.01192317  0.50446773  1
  Ti  Ti145  1  0.20226082  0.19958618  0.50403514  1
  Ti  Ti146  1  0.39883558  -0.00026076  -0.00757946  1
  Ti  Ti147  1  0.09172041  0.48667148  0.61135091  1
  Ti  Ti148  1  0.59923833  -0.00091477  0.74597689  1
  Ti  Ti149  1  0.30501358  0.10133901  0.36694501  1
  Ti  Ti150  1  0.78662204  0.79834117  -0.00070259  1
  Ti  Ti151  1  0.08512876  0.09410762  0.38361909  1
  Ti  Ti152  1  0.30598595  0.69978772  0.62226516  1
  Ti  Ti153  1  0.10221783  0.89777382  0.63971718  1
  Ti  Ti154  1  0.78162973  0.81794344  0.51823550  1
  Ti  Ti155  1  -0.00248340  0.19680913  0.74628912  1
  Ti  Ti156  1  0.22198533  0.60837189  0.75266090  1
  Ti  Ti157  1  -0.00643268  0.39048327  0.25548019  1
  Ti  Ti158  1  0.89251299  0.29095270  0.86105807  1
  Ti  Ti159  1  -0.00040251  0.00661619  0.75933048  1
  Mo  Mo160  1  0.60981963  0.59702320  0.74469099  1
  Mo  Mo161  1  0.00560442  0.79931501  0.74547332  1
  Mo  Mo162  1  0.10265289  0.10186698  0.84978959  1
  Mo  Mo163  1  0.78241669  -0.00059060  0.74411178  1
  Mo  Mo164  1  0.59590924  0.18372229  0.50140429  1
  Mo  Mo165  1  0.70507671  0.70710269  0.87152751  1
  Mo  Mo166  1  0.60260790  0.80144307  0.01021751  1
  Mo  Mo167  1  0.79163628  0.80008092  0.74040540  1
  Mo  Mo168  1  0.89383721  0.10228427  0.85283309  1
  Mo  Mo169  1  0.09921656  0.50668930  0.12065156  1
  Mo  Mo170  1  0.39507514  -0.00195050  0.49868707  1
  Mo  Mo171  1  0.60362332  0.79850064  0.50889685  1
  Mo  Mo172  1  0.21029362  0.79760300  0.73755345  1
  Mo  Mo173  1  0.60195256  0.40847734  -0.00232089  1
  Mo  Mo174  1  0.10255633  0.50266590  0.87016604  1
  Mo  Mo175  1  0.40595692  0.81123255  0.00908637  1
  Mo  Mo176  1  0.89547678  0.69936818  0.64938363  1
  Mo  Mo177  1  -0.00527440  -0.00129024  0.50939955  1
  Mo  Mo178  1  0.18550178  0.19660338  0.25060205  1
  Mo  Mo179  1  0.49795669  0.29534111  0.10739277  1
  Mo  Mo180  1  0.58724947  0.18674711  0.74850826  1
  Mo  Mo181  1  0.49856975  0.91004461  0.11543555  1
  Mo  Mo182  1  -0.00424566  0.39004533  0.51713800  1
  Mo  Mo183  1  0.20571997  0.39021569  0.51536630  1
  Mo  Mo184  1  -0.00935867  0.20082927  -0.00895176  1
  Mo  Mo185  1  0.40915339  0.00433503  0.25051000  1
  Mo  Mo186  1  0.69420640  0.30677273  0.63101007  1
  Mo  Mo187  1  0.39462202  0.40118529  0.00722303  1
  Mo  Mo188  1  0.90104123  0.49808601  0.37676696  1
  Mo  Mo189  1  0.70600112  0.70680502  0.12173107  1
  Mo  Mo190  1  0.69673620  0.91391978  0.62285850  1
  Mo  Mo191  1  0.39705396  0.18618856  -0.00688066  1
  Mo  Mo192  1  0.50851023  0.69814743  0.11068953  1
  Mo  Mo193  1  0.49579878  0.90813342  0.62345852  1
  Mo  Mo194  1  0.50714715  0.50456953  0.89687359  1
  Mo  Mo195  1  0.39493684  0.18656667  0.25058660  1
  Mo  Mo196  1  0.30966583  0.90130818  0.87368279  1
  Mo  Mo197  1  -0.01185066  0.59009507  0.51548684  1
  Mo  Mo198  1  0.89754000  0.10434323  0.38477361  1
  Mo  Mo199  1  0.59280123  -0.00080992  0.25085184  1
