# generated using pymatgen
data_HfZrTaTiMo
_symmetry_space_group_name_H-M   'P 1'
_cell_length_a   15.22155746
_cell_length_b   15.20423068
_cell_length_c   16.84375742
_cell_angle_alpha   90.03389393
_cell_angle_beta   90.03155665
_cell_angle_gamma   89.99444260
_symmetry_Int_Tables_number   1
_chemical_formula_structural   HfZrTaTiMo
_chemical_formula_sum   'Hf40 Zr40 Ta40 Ti40 Mo40'
_cell_volume   3898.18437181
_cell_formula_units_Z   40
loop_
 _symmetry_equiv_pos_site_id
 _symmetry_equiv_pos_as_xyz
  1  'x, y, z'
loop_
 _atom_site_type_symbol
 _atom_site_label
 _atom_site_symmetry_multiplicity
 _atom_site_fract_x
 _atom_site_fract_y
 _atom_site_fract_z
 _atom_site_occupancy
  Hf  Hf0  1  0.20076285  0.60791345  0.24680498  1
  Hf  Hf1  1  0.32401616  0.90633845  0.11431683  1
  Hf  Hf2  1  0.49629357  0.70944500  0.39217444  1
  Hf  Hf3  1  0.90173932  0.28815991  0.62777008  1
  Hf  Hf4  1  0.60015965  0.19602599  0.75611080  1
  Hf  Hf5  1  -0.00219438  0.61165457  0.75561471  1
  Hf  Hf6  1  0.68234892  0.47804633  0.13760223  1
  Hf  Hf7  1  0.11378869  0.69672199  0.38504959  1
  Hf  Hf8  1  0.19799533  0.60172721  -0.00382101  1
  Hf  Hf9  1  0.21176965  0.01211716  -0.00850164  1
  Hf  Hf10  1  0.18883261  0.40293531  0.25745904  1
  Hf  Hf11  1  0.60795713  -0.01337351  0.75180320  1
  Hf  Hf12  1  0.29999208  0.30868981  0.13135179  1
  Hf  Hf13  1  0.88137777  0.70712732  0.89218380  1
  Hf  Hf14  1  0.30106686  0.51984648  0.38412659  1
  Hf  Hf15  1  0.39660127  0.20182718  -0.00886324  1
  Hf  Hf16  1  0.68290908  0.51268671  0.62798110  1
  Hf  Hf17  1  0.71050554  0.10994058  0.36674724  1
  Hf  Hf18  1  0.39608974  0.58826894  -0.00395088  1
  Hf  Hf19  1  0.68567321  0.70256383  0.13012260  1
  Hf  Hf20  1  0.00616953  0.80228621  0.24612956  1
  Hf  Hf21  1  0.89828569  0.69845648  0.36894091  1
  Hf  Hf22  1  0.30899204  0.70688641  0.87711894  1
  Hf  Hf23  1  0.79192474  0.40103947  0.75193534  1
  Hf  Hf24  1  0.89449627  0.49477598  0.88546566  1
  Hf  Hf25  1  0.49058233  0.47723222  0.87307606  1
  Hf  Hf26  1  0.88055045  0.29119441  0.37299726  1
  Hf  Hf27  1  0.91077540  0.09457783  0.88860773  1
  Hf  Hf28  1  -0.00939008  0.59691798  0.49764085  1
  Hf  Hf29  1  0.70600913  0.48817320  0.35492113  1
  Hf  Hf30  1  0.29987568  0.70964989  0.11565560  1
  Hf  Hf31  1  0.20535174  0.60621226  0.75469936  1
  Hf  Hf32  1  0.78623317  0.59878886  0.01360321  1
  Hf  Hf33  1  0.70483090  0.09358203  0.87800397  1
  Hf  Hf34  1  0.80555790  0.81508134  0.75536393  1
  Hf  Hf35  1  0.89482982  0.71598724  0.62298921  1
  Hf  Hf36  1  0.41741730  0.19188327  0.25741740  1
  Hf  Hf37  1  0.60368627  0.00243016  0.50094906  1
  Hf  Hf38  1  0.68885860  0.31175545  0.87434738  1
  Hf  Hf39  1  0.00180252  0.59605999  0.24044224  1
  Zr  Zr40  1  0.58726464  0.00730743  0.25046307  1
  Zr  Zr41  1  0.19541544  0.21365104  -0.00475688  1
  Zr  Zr42  1  0.10840239  0.50392143  0.62062058  1
  Zr  Zr43  1  0.19023458  0.19479125  0.25105507  1
  Zr  Zr44  1  0.11032407  0.71399775  0.61367403  1
  Zr  Zr45  1  0.49962133  0.09302812  0.11392080  1
  Zr  Zr46  1  0.79891473  0.19059886  0.50708763  1
  Zr  Zr47  1  0.29673998  0.89821064  0.62409263  1
  Zr  Zr48  1  0.40151289  0.21838124  0.75874221  1
  Zr  Zr49  1  0.00649159  0.82160213  0.48819404  1
  Zr  Zr50  1  0.58408548  0.80825512  0.24863697  1
  Zr  Zr51  1  0.08937454  0.09659614  0.63060567  1
  Zr  Zr52  1  0.69536796  0.69047863  0.35980554  1
  Zr  Zr53  1  0.69585356  0.90267702  0.37511615  1
  Zr  Zr54  1  0.79727527  0.40310971  0.50394858  1
  Zr  Zr55  1  0.80626572  0.81235867  0.23524191  1
  Zr  Zr56  1  0.21490805  0.81206015  0.25394572  1
  Zr  Zr57  1  0.29870036  0.09664102  0.13557795  1
  Zr  Zr58  1  0.61031422  0.78443319  0.74412996  1
  Zr  Zr59  1  0.78342495  0.61393239  0.75565239  1
  Zr  Zr60  1  0.40882914  0.40498423  0.26021358  1
  Zr  Zr61  1  0.50995321  0.88473927  0.88332693  1
  Zr  Zr62  1  0.89897725  0.50243129  0.63186059  1
  Zr  Zr63  1  0.22030689  0.40281369  0.75889619  1
  Zr  Zr64  1  0.08222840  0.71636494  0.88796916  1
  Zr  Zr65  1  -0.01253472  0.20470793  0.24954754  1
  Zr  Zr66  1  0.30022077  0.28880430  0.37359532  1
  Zr  Zr67  1  0.10355467  0.29583449  0.62048249  1
  Zr  Zr68  1  0.00499137  -0.00028391  0.25299640  1
  Zr  Zr69  1  0.81300363  0.00891963  0.74483822  1
  Zr  Zr70  1  0.18314846  0.81358014  0.75623902  1
  Zr  Zr71  1  0.31130691  0.90723215  0.86993388  1
  Zr  Zr72  1  0.20151921  0.39937691  0.49363991  1
  Zr  Zr73  1  0.80405948  0.80877782  0.49204591  1
  Zr  Zr74  1  0.90624360  0.10093334  0.11283802  1
  Zr  Zr75  1  0.49796773  0.10095019  0.62423524  1
  Zr  Zr76  1  0.00521883  0.39245549  0.75740389  1
  Zr  Zr77  1  0.59689571  0.40530215  0.49623872  1
  Zr  Zr78  1  0.10391468  0.48576610  0.11257807  1
  Zr  Zr79  1  0.89703748  0.47979741  0.12522733  1
  Ta  Ta80  1  0.61579846  -0.00871676  -0.00157387  1
  Ta  Ta81  1  0.59715297  0.20751983  0.49425748  1
  Ta  Ta82  1  0.78474369  0.60466923  0.49939954  1
  Ta  Ta83  1  0.30777701  0.71499788  0.40026412  1
  Ta  Ta84  1  0.39988303  0.62023390  0.25110930  1
  Ta  Ta85  1  0.11431248  0.90848783  0.12430456  1
  Ta  Ta86  1  0.08949694  0.29756460  0.38327291  1
  Ta  Ta87  1  0.39964961  0.19422671  0.49431183  1
  Ta  Ta88  1  -0.00919872  0.60161273  0.01085591  1
  Ta  Ta89  1  0.30165018  0.07155926  0.37130028  1
  Ta  Ta90  1  -0.00766325  0.39575667  0.49322621  1
  Ta  Ta91  1  0.19357139  0.81463362  -0.00383526  1
  Ta  Ta92  1  0.50246680  0.89227575  0.61848516  1
  Ta  Ta93  1  0.10124645  0.09989831  0.37943921  1
  Ta  Ta94  1  0.40983535  0.78094045  0.73389420  1
  Ta  Ta95  1  0.48980726  0.70364598  0.11277274  1
  Ta  Ta96  1  0.69099237  0.29637036  0.63239331  1
  Ta  Ta97  1  0.19645355  0.20614824  0.75941165  1
  Ta  Ta98  1  0.80492730  -0.01256004  0.00996494  1
  Ta  Ta99  1  0.29630463  0.10678564  0.62972674  1
  Ta  Ta100  1  -0.00618720  0.00816845  0.49314586  1
  Ta  Ta101  1  0.51572587  0.30777532  0.12211944  1
  Ta  Ta102  1  0.30662819  0.29761212  0.61619084  1
  Ta  Ta103  1  0.10111842  0.09728584  0.87037778  1
  Ta  Ta104  1  0.09618283  0.50097244  0.88564301  1
  Ta  Ta105  1  0.89741380  0.29340453  0.88972202  1
  Ta  Ta106  1  0.58441088  0.59678839  0.75320722  1
  Ta  Ta107  1  0.70787371  0.89825348  0.61789498  1
  Ta  Ta108  1  0.50552657  0.51107477  0.37403310  1
  Ta  Ta109  1  0.00749999  -0.02383394  0.75476425  1
  Ta  Ta110  1  0.30325326  0.10637423  0.86381193  1
  Ta  Ta111  1  0.20219787  0.18702075  0.49547449  1
  Ta  Ta112  1  0.09518987  0.70977253  0.11383977  1
  Ta  Ta113  1  0.59880095  0.20665984  -0.00640080  1
  Ta  Ta114  1  0.78282320  0.39241572  0.00174778  1
  Ta  Ta115  1  0.19427916  -0.00481977  0.50529119  1
  Ta  Ta116  1  0.39913157  0.59014589  0.74480180  1
  Ta  Ta117  1  0.50656946  0.68926872  0.88203619  1
  Ta  Ta118  1  0.30398489  0.50330846  0.12989534  1
  Ta  Ta119  1  0.49108902  0.50189749  0.12738208  1
  Ti  Ti120  1  0.51198587  0.89296202  0.10410500  1
  Ti  Ti121  1  0.80474278  0.00280225  0.23872544  1
  Ti  Ti122  1  0.09240457  0.29950281  0.88089103  1
  Ti  Ti123  1  0.80586174  0.59947569  0.23401631  1
  Ti  Ti124  1  -0.00605811  0.39527602  0.25562923  1
  Ti  Ti125  1  0.08494207  0.29888289  0.11506911  1
  Ti  Ti126  1  0.89527710  0.29304197  0.10581851  1
  Ti  Ti127  1  0.31400901  0.49923253  0.61092688  1
  Ti  Ti128  1  0.80275299  0.20264542  0.75350461  1
  Ti  Ti129  1  0.09265783  0.49950096  0.37975636  1
  Ti  Ti130  1  0.40705025  0.39550519  0.48913602  1
  Ti  Ti131  1  0.79233041  0.19484020  -0.00074723  1
  Ti  Ti132  1  0.49779349  0.08961814  0.88067181  1
  Ti  Ti133  1  0.59409199  0.59121960  0.00294506  1
  Ti  Ti134  1  0.30780113  0.69179974  0.60320117  1
  Ti  Ti135  1  -0.00535047  0.18878498  0.75700942  1
  Ti  Ti136  1  0.60697656  0.79178209  0.50881428  1
  Ti  Ti137  1  -0.00523889  0.19320854  0.49385927  1
  Ti  Ti138  1  0.78584021  0.36085793  0.23877542  1
  Ti  Ti139  1  0.70442872  0.10219848  0.62741266  1
  Ti  Ti140  1  0.40124389  0.39266725  0.00197995  1
  Ti  Ti141  1  0.61245984  0.22217715  0.25296937  1
  Ti  Ti142  1  0.79271072  0.80662657  0.01916994  1
  Ti  Ti143  1  0.68767387  0.51062306  0.87712630  1
  Ti  Ti144  1  0.49537099  0.30552824  0.61827848  1
  Ti  Ti145  1  0.58272035  0.59686684  0.24450984  1
  Ti  Ti146  1  0.91196878  0.89403653  0.88840780  1
  Ti  Ti147  1  0.81222449  0.00145531  0.50387578  1
  Ti  Ti148  1  0.40306615  0.81525862  0.25889051  1
  Ti  Ti149  1  0.10117821  0.10354960  0.11976047  1
  Ti  Ti150  1  0.12188112  0.90911115  0.37328187  1
  Ti  Ti151  1  0.50749046  0.67899924  0.61049071  1
  Ti  Ti152  1  0.69875288  0.10604557  0.12437775  1
  Ti  Ti153  1  0.58093355  0.39820783  0.74164646  1
  Ti  Ti154  1  0.21422145  0.40517850  -0.01532259  1
  Ti  Ti155  1  0.40596297  -0.00229535  0.74588258  1
  Ti  Ti156  1  0.19974504  0.00807612  0.75097801  1
  Ti  Ti157  1  0.01354237  -0.01219071  0.00338638  1
  Ti  Ti158  1  0.89808201  0.49778862  0.36638484  1
  Ti  Ti159  1  0.49523988  0.09229954  0.38392699  1
  Mo  Mo160  1  0.48050618  0.90688656  0.39728845  1
  Mo  Mo161  1  0.69980743  0.28864975  0.11507707  1
  Mo  Mo162  1  0.59191342  0.39606955  0.25540286  1
  Mo  Mo163  1  0.00104799  0.39190314  -0.00867842  1
  Mo  Mo164  1  0.41066148  0.59053176  0.50458558  1
  Mo  Mo165  1  0.40903128  0.79931047  0.52240119  1
  Mo  Mo166  1  0.30534396  0.31125567  0.87683633  1
  Mo  Mo167  1  0.69715015  0.91395091  0.12474785  1
  Mo  Mo168  1  0.50540130  0.29367866  0.38000567  1
  Mo  Mo169  1  0.40293081  0.40515337  0.73686194  1
  Mo  Mo170  1  0.41228112  0.00573663  -0.00973201  1
  Mo  Mo171  1  0.49967070  0.29419686  0.87837586  1
  Mo  Mo172  1  0.09555554  0.91147197  0.88510938  1
  Mo  Mo173  1  0.89961433  0.09060729  0.37251464  1
  Mo  Mo174  1  -0.00871693  0.80297275  0.75262258  1
  Mo  Mo175  1  0.71985258  0.89040298  0.88712586  1
  Mo  Mo176  1  0.60772498  0.59984200  0.49270282  1
  Mo  Mo177  1  0.60936276  0.78867061  0.00234977  1
  Mo  Mo178  1  0.09578410  0.90536580  0.62274072  1
  Mo  Mo179  1  0.20349815  0.59873170  0.50000333  1
  Mo  Mo180  1  0.40613239  -0.01399667  0.25626920  1
  Mo  Mo181  1  0.79535228  0.18886665  0.23794696  1
  Mo  Mo182  1  0.00321209  0.19566654  -0.00408609  1
  Mo  Mo183  1  0.29830930  0.50315145  0.87337227  1
  Mo  Mo184  1  0.89993587  0.69671105  0.12028519  1
  Mo  Mo185  1  0.31020260  0.89780256  0.39350178  1
  Mo  Mo186  1  -0.00970376  0.80718764  0.01869302  1
  Mo  Mo187  1  0.39687390  0.00622074  0.50911134  1
  Mo  Mo188  1  0.59210346  0.40310500  0.00075326  1
  Mo  Mo189  1  0.90888341  0.90130048  0.12055213  1
  Mo  Mo190  1  0.90073462  0.09872225  0.63072750  1
  Mo  Mo191  1  0.20419883  -0.00352091  0.25184663  1
  Mo  Mo192  1  0.49128282  0.49581450  0.62223927  1
  Mo  Mo193  1  0.40544120  0.79647443  -0.00473025  1
  Mo  Mo194  1  0.69338980  0.29686080  0.37369780  1
  Mo  Mo195  1  0.69489614  0.70650183  0.62055727  1
  Mo  Mo196  1  0.90005661  0.91729253  0.36894679  1
  Mo  Mo197  1  0.91142693  0.91180238  0.62291266  1
  Mo  Mo198  1  0.20489658  0.80700759  0.49891177  1
  Mo  Mo199  1  0.68860671  0.70174526  0.89042145  1
