# generated using pymatgen
data_HfZrTaTiMo
_symmetry_space_group_name_H-M   'P 1'
_cell_length_a   15.22416267
_cell_length_b   15.20458398
_cell_length_c   16.84788568
_cell_angle_alpha   90.02026760
_cell_angle_beta   90.00210964
_cell_angle_gamma   90.08883000
_symmetry_Int_Tables_number   1
_chemical_formula_structural   HfZrTaTiMo
_chemical_formula_sum   'Hf40 Zr40 Ta40 Ti40 Mo40'
_cell_volume   3899.89410795
_cell_formula_units_Z   40
loop_
 _symmetry_equiv_pos_site_id
 _symmetry_equiv_pos_as_xyz
  1  'x, y, z'
loop_
 _atom_site_type_symbol
 _atom_site_label
 _atom_site_symmetry_multiplicity
 _atom_site_fract_x
 _atom_site_fract_y
 _atom_site_fract_z
 _atom_site_occupancy
  Hf  Hf0  1  0.00604151  0.59893479  0.49723759  1
  Hf  Hf1  1  0.59436184  -0.00656122  0.75001952  1
  Hf  Hf2  1  0.69563191  0.10265293  0.88124952  1
  Hf  Hf3  1  0.90693067  0.69305510  0.12595500  1
  Hf  Hf4  1  0.80962227  0.38692973  0.00234408  1
  Hf  Hf5  1  0.20569995  0.79807319  0.72815445  1
  Hf  Hf6  1  0.79479554  0.39361661  0.50386662  1
  Hf  Hf7  1  0.21794043  0.20144515  0.26989227  1
  Hf  Hf8  1  0.10137994  0.70471870  0.14171547  1
  Hf  Hf9  1  0.88005864  0.09805170  0.36171962  1
  Hf  Hf10  1  0.60300296  0.79568114  0.75620031  1
  Hf  Hf11  1  0.49600776  0.89788863  0.13367810  1
  Hf  Hf12  1  0.40904149  0.40470662  0.00664932  1
  Hf  Hf13  1  0.90889838  0.88365851  0.13180998  1
  Hf  Hf14  1  0.79326056  -0.01354270  0.01547739  1
  Hf  Hf15  1  0.39473419  0.60163139  0.74530896  1
  Hf  Hf16  1  0.40300873  0.19432487  0.01290742  1
  Hf  Hf17  1  0.19340420  0.00445095  0.74379397  1
  Hf  Hf18  1  0.11497743  0.90753527  0.12716457  1
  Hf  Hf19  1  0.30044624  0.69754679  0.13725845  1
  Hf  Hf20  1  0.79235007  0.19324551  0.49536801  1
  Hf  Hf21  1  0.70601641  0.70974867  0.11294936  1
  Hf  Hf22  1  0.90640530  0.48833199  0.36157620  1
  Hf  Hf23  1  0.39648403  0.79326543  -0.00247331  1
  Hf  Hf24  1  0.29141634  0.30318590  0.12461533  1
  Hf  Hf25  1  0.67975074  0.50251848  0.11143736  1
  Hf  Hf26  1  0.70962182  0.69426809  0.63465081  1
  Hf  Hf27  1  0.50851563  0.68451043  0.12527759  1
  Hf  Hf28  1  -0.01702096  0.21550635  -0.00058026  1
  Hf  Hf29  1  0.58996805  0.40029704  0.50764594  1
  Hf  Hf30  1  0.20595142  0.20494675  0.48252042  1
  Hf  Hf31  1  0.49338177  0.09461334  0.62460533  1
  Hf  Hf32  1  0.19592264  -0.00101684  0.27345327  1
  Hf  Hf33  1  0.59747825  0.80319533  0.50306371  1
  Hf  Hf34  1  0.49151086  0.09844108  0.87351636  1
  Hf  Hf35  1  0.80103688  0.59627566  0.49539803  1
  Hf  Hf36  1  0.89361543  0.30026349  0.35860770  1
  Hf  Hf37  1  0.09454134  0.88456774  0.86980107  1
  Hf  Hf38  1  0.91478361  0.49111450  0.87564323  1
  Hf  Hf39  1  0.69896533  0.90688985  0.62202545  1
  Zr  Zr40  1  0.21401051  0.58967252  0.00067122  1
  Zr  Zr41  1  0.29256556  0.10071367  0.88421237  1
  Zr  Zr42  1  -0.01227429  0.19656031  0.76634802  1
  Zr  Zr43  1  0.28830216  0.69483534  0.86219703  1
  Zr  Zr44  1  0.60035045  0.20615077  0.73902876  1
  Zr  Zr45  1  0.91052453  0.69272940  0.35981579  1
  Zr  Zr46  1  0.80938918  0.00446381  0.75437350  1
  Zr  Zr47  1  0.90702195  0.09796155  0.12982126  1
  Zr  Zr48  1  0.10215915  0.28805044  0.61675244  1
  Zr  Zr49  1  -0.00054558  0.00758700  0.48456937  1
  Zr  Zr50  1  0.28491643  0.08628261  0.12185795  1
  Zr  Zr51  1  0.19714004  0.00187875  0.49297886  1
  Zr  Zr52  1  0.90337561  0.89248549  0.36619687  1
  Zr  Zr53  1  0.60189643  0.80292623  -0.00870213  1
  Zr  Zr54  1  0.39512140  0.01144680  0.25883053  1
  Zr  Zr55  1  0.91629679  0.10024787  0.62046341  1
  Zr  Zr56  1  0.00747002  0.79618387  0.51031981  1
  Zr  Zr57  1  0.18968842  0.20223515  0.75659173  1
  Zr  Zr58  1  0.80033430  0.39650255  0.75177730  1
  Zr  Zr59  1  0.20277915  0.59655408  0.51143729  1
  Zr  Zr60  1  0.69956378  0.30305885  0.88138650  1
  Zr  Zr61  1  0.01918580  0.20466859  0.25018483  1
  Zr  Zr62  1  0.50016260  0.49794275  0.63756014  1
  Zr  Zr63  1  0.90669971  0.51503485  0.63386766  1
  Zr  Zr64  1  0.40935028  0.57628970  0.26091446  1
  Zr  Zr65  1  0.80505157  0.60163935  -0.01094100  1
  Zr  Zr66  1  0.50507777  0.90735141  0.36949217  1
  Zr  Zr67  1  0.29475684  0.47384939  0.37600256  1
  Zr  Zr68  1  0.19233218  0.79761453  -0.00354599  1
  Zr  Zr69  1  0.59050176  0.00966491  0.01270557  1
  Zr  Zr70  1  0.39841356  0.79219397  0.50400962  1
  Zr  Zr71  1  0.70384817  0.92010668  0.37585556  1
  Zr  Zr72  1  0.68887161  0.48979395  0.37009860  1
  Zr  Zr73  1  0.80396410  0.79638068  0.49884033  1
  Zr  Zr74  1  0.11956671  0.51270294  0.85719321  1
  Zr  Zr75  1  0.40592096  0.58874067  0.50042505  1
  Zr  Zr76  1  0.49609595  0.30540014  0.87070438  1
  Zr  Zr77  1  0.90831962  0.49170562  0.12856216  1
  Zr  Zr78  1  0.39974471  0.79618758  0.25898636  1
  Zr  Zr79  1  0.09728999  0.31645859  0.88836480  1
  Ta  Ta80  1  0.10340797  0.32316037  0.38052270  1
  Ta  Ta81  1  0.60553144  0.01872251  0.50120564  1
  Ta  Ta82  1  0.08958817  0.68345520  0.64232034  1
  Ta  Ta83  1  0.29270647  0.10953840  0.61983387  1
  Ta  Ta84  1  0.51217110  0.69066330  0.37399059  1
  Ta  Ta85  1  0.00422522  0.39158719  0.74473684  1
  Ta  Ta86  1  0.40629441  0.81031775  0.73836492  1
  Ta  Ta87  1  0.59841265  0.21046447  0.50735918  1
  Ta  Ta88  1  0.80210006  0.60922430  0.76553023  1
  Ta  Ta89  1  0.89724332  0.30077761  0.62097344  1
  Ta  Ta90  1  0.40355074  0.00414254  0.49176489  1
  Ta  Ta91  1  0.01720569  0.61012099  -0.00758261  1
  Ta  Ta92  1  0.00643821  -0.00135257  0.25913310  1
  Ta  Ta93  1  0.69934782  0.50264180  0.63361091  1
  Ta  Ta94  1  0.70636318  0.10693340  0.62467514  1
  Ta  Ta95  1  0.60362592  0.60288314  0.50078424  1
  Ta  Ta96  1  0.09299197  0.09255574  0.89412342  1
  Ta  Ta97  1  0.38639361  -0.01403047  0.00682217  1
  Ta  Ta98  1  0.59381480  0.21550935  0.01818606  1
  Ta  Ta99  1  0.50676448  0.70103368  0.63223758  1
  Ta  Ta100  1  0.28901431  0.88398012  0.38660824  1
  Ta  Ta101  1  0.60680924  0.60252556  0.25241425  1
  Ta  Ta102  1  0.11639823  0.71132988  0.36291478  1
  Ta  Ta103  1  -0.00181076  -0.01605264  -0.00412492  1
  Ta  Ta104  1  0.60308857  0.02681764  0.23633277  1
  Ta  Ta105  1  0.39174757  -0.00041864  0.74490876  1
  Ta  Ta106  1  0.79299211  0.59712643  0.24584347  1
  Ta  Ta107  1  0.79392442  0.79434484  0.24910432  1
  Ta  Ta108  1  -0.00829089  0.80374651  0.73750788  1
  Ta  Ta109  1  0.78920264  0.19376050  0.01591708  1
  Ta  Ta110  1  0.30246913  0.90195627  0.86883699  1
  Ta  Ta111  1  0.41308504  0.59610750  -0.00635406  1
  Ta  Ta112  1  0.91343718  0.71782439  0.87692511  1
  Ta  Ta113  1  0.71168437  0.89734312  0.87722732  1
  Ta  Ta114  1  0.40479708  0.20015670  0.49489025  1
  Ta  Ta115  1  0.38515365  0.20619554  0.74567809  1
  Ta  Ta116  1  0.11022209  0.49979957  0.12668464  1
  Ta  Ta117  1  0.79052559  -0.00583597  0.23250191  1
  Ta  Ta118  1  0.19745167  0.79302449  0.51716633  1
  Ta  Ta119  1  0.49220562  0.31449511  0.37161959  1
  Ti  Ti120  1  0.09239001  0.31617255  0.11395082  1
  Ti  Ti121  1  0.89199707  0.09751693  0.88897522  1
  Ti  Ti122  1  0.60288610  0.40165112  0.74398228  1
  Ti  Ti123  1  0.29856373  0.30500121  0.88461287  1
  Ti  Ti124  1  0.70362532  0.70160033  0.87847074  1
  Ti  Ti125  1  0.70240037  0.70101451  0.37195142  1
  Ti  Ti126  1  0.38406050  0.38542300  0.50504571  1
  Ti  Ti127  1  0.09819169  0.10130324  0.11137011  1
  Ti  Ti128  1  0.69080770  0.50353846  0.87794359  1
  Ti  Ti129  1  0.31270612  0.48934843  0.86835691  1
  Ti  Ti130  1  0.19317021  0.20593471  0.00032016  1
  Ti  Ti131  1  0.89771040  0.30167633  0.14251179  1
  Ti  Ti132  1  0.29792375  0.48325902  0.62776798  1
  Ti  Ti133  1  0.89469670  0.90233630  0.61855212  1
  Ti  Ti134  1  0.78460757  0.39996622  0.24306914  1
  Ti  Ti135  1  0.31055607  0.90788067  0.61543933  1
  Ti  Ti136  1  0.09141764  0.91366435  0.62524698  1
  Ti  Ti137  1  0.80796648  0.80626682  0.75337685  1
  Ti  Ti138  1  0.57468749  0.40626716  0.24406234  1
  Ti  Ti139  1  -0.00112620  -0.00011092  0.75908317  1
  Ti  Ti140  1  0.60946831  0.80351151  0.25092833  1
  Ti  Ti141  1  0.01182514  0.59227041  0.25080866  1
  Ti  Ti142  1  0.30573561  0.49820443  0.13303844  1
  Ti  Ti143  1  0.68460181  0.28576762  0.36155612  1
  Ti  Ti144  1  0.80011643  0.20594064  0.74779433  1
  Ti  Ti145  1  0.68962194  0.30536592  0.12865808  1
  Ti  Ti146  1  0.00355148  0.40138591  0.50388537  1
  Ti  Ti147  1  0.10430260  0.50759776  0.36955502  1
  Ti  Ti148  1  0.48443075  0.30130300  0.63131462  1
  Ti  Ti149  1  0.21671002  0.39110366  0.74570331  1
  Ti  Ti150  1  -0.00021203  0.20615537  0.48392514  1
  Ti  Ti151  1  0.10293641  0.48976682  0.63572931  1
  Ti  Ti152  1  0.29717618  0.68908480  0.36933936  1
  Ti  Ti153  1  0.19276761  0.40096910  0.24727526  1
  Ti  Ti154  1  0.50662356  0.50020155  0.86451532  1
  Ti  Ti155  1  0.49439261  0.89985318  0.87598897  1
  Ti  Ti156  1  0.50146328  0.69347973  0.86599455  1
  Ti  Ti157  1  0.51586020  0.11739402  0.37416118  1
  Ti  Ti158  1  0.41615696  0.20621688  0.24537379  1
  Ti  Ti159  1  0.77453163  0.19072863  0.23805065  1
  Mo  Mo160  1  0.69662116  0.89659210  0.13615688  1
  Mo  Mo161  1  -0.00478291  0.60230684  0.75669363  1
  Mo  Mo162  1  0.19195618  0.40168752  0.50437216  1
  Mo  Mo163  1  0.69792266  0.30217992  0.62563208  1
  Mo  Mo164  1  0.90089295  0.90510531  0.87766447  1
  Mo  Mo165  1  0.49541239  0.50145161  0.12216849  1
  Mo  Mo166  1  0.20675522  0.40238289  0.00531294  1
  Mo  Mo167  1  0.09151073  0.10976656  0.37264693  1
  Mo  Mo168  1  0.49674099  0.90259966  0.62216650  1
  Mo  Mo169  1  0.79387869  0.00450067  0.50497588  1
  Mo  Mo170  1  0.29892928  0.89291829  0.12592581  1
  Mo  Mo171  1  0.69690720  0.10649314  0.12105440  1
  Mo  Mo172  1  0.30899895  0.29653728  0.37226073  1
  Mo  Mo173  1  0.59459159  0.21445572  0.24151428  1
  Mo  Mo174  1  0.09465643  0.69667081  0.84992992  1
  Mo  Mo175  1  0.00872526  0.40084299  0.24875860  1
  Mo  Mo176  1  0.10115111  0.09700791  0.62381194  1
  Mo  Mo177  1  0.39521118  0.39356188  0.75439360  1
  Mo  Mo178  1  0.20770255  0.80314814  0.25560717  1
  Mo  Mo179  1  0.89818167  0.70711825  0.63551868  1
  Mo  Mo180  1  0.89539277  0.29232923  0.87826114  1
  Mo  Mo181  1  0.20296170  0.58923170  0.72920612  1
  Mo  Mo182  1  0.50056262  0.31248375  0.12975983  1
  Mo  Mo183  1  0.60960192  0.59776602  0.76286117  1
  Mo  Mo184  1  0.68949022  0.10822462  0.37025138  1
  Mo  Mo185  1  0.39252002  0.38588597  0.24373118  1
  Mo  Mo186  1  0.00826719  0.80534620  0.25422744  1
  Mo  Mo187  1  0.49295045  0.10792921  0.12621948  1
  Mo  Mo188  1  0.19441680  -0.00208241  -0.00658478  1
  Mo  Mo189  1  0.59959269  0.40797457  -0.00241728  1
  Mo  Mo190  1  -0.00086081  0.79254453  -0.00099517  1
  Mo  Mo191  1  0.31943613  0.09683055  0.38189223  1
  Mo  Mo192  1  0.80948831  0.80443741  -0.00794662  1
  Mo  Mo193  1  0.10207318  0.89183383  0.37631802  1
  Mo  Mo194  1  0.30218722  0.69793464  0.62808708  1
  Mo  Mo195  1  0.01005372  0.41474882  0.00465262  1
  Mo  Mo196  1  0.59263614  0.59903473  -0.02089365  1
  Mo  Mo197  1  0.50205327  0.49634451  0.38052495  1
  Mo  Mo198  1  0.30449558  0.29721839  0.62293790  1
  Mo  Mo199  1  0.20195487  0.59284895  0.25274854  1
