# generated using pymatgen
data_HfZrTaTiMo
_symmetry_space_group_name_H-M   'P 1'
_cell_length_a   15.21363791
_cell_length_b   15.20277671
_cell_length_c   16.85516429
_cell_angle_alpha   89.98510890
_cell_angle_beta   90.02398020
_cell_angle_gamma   89.97076487
_symmetry_Int_Tables_number   1
_chemical_formula_structural   HfZrTaTiMo
_chemical_formula_sum   'Hf40 Zr40 Ta40 Ti40 Mo40'
_cell_volume   3898.42221615
_cell_formula_units_Z   40
loop_
 _symmetry_equiv_pos_site_id
 _symmetry_equiv_pos_as_xyz
  1  'x, y, z'
loop_
 _atom_site_type_symbol
 _atom_site_label
 _atom_site_symmetry_multiplicity
 _atom_site_fract_x
 _atom_site_fract_y
 _atom_site_fract_z
 _atom_site_occupancy
  Hf  Hf0  1  0.39533118  0.59936558  0.49005094  1
  Hf  Hf1  1  -0.00797027  0.38667487  -0.00758926  1
  Hf  Hf2  1  0.09556699  0.08670538  0.88326372  1
  Hf  Hf3  1  0.49442271  0.31387252  0.87523456  1
  Hf  Hf4  1  0.59724151  0.61034385  0.50639789  1
  Hf  Hf5  1  0.89272708  0.31309536  0.63652859  1
  Hf  Hf6  1  0.29952478  0.31274572  0.36108577  1
  Hf  Hf7  1  0.09992664  0.88244287  0.36112831  1
  Hf  Hf8  1  0.60009971  0.40446087  0.00682265  1
  Hf  Hf9  1  0.89457445  0.10129706  0.61880733  1
  Hf  Hf10  1  0.60239859  -0.00190702  0.73966756  1
  Hf  Hf11  1  0.40615708  0.00301817  -0.00916791  1
  Hf  Hf12  1  0.00533988  0.58103565  0.25223055  1
  Hf  Hf13  1  0.30712156  0.08162085  0.13596870  1
  Hf  Hf14  1  0.21054938  0.37947858  0.75118621  1
  Hf  Hf15  1  0.51634398  0.51912220  0.88189679  1
  Hf  Hf16  1  0.18928584  0.16771342  0.74430779  1
  Hf  Hf17  1  0.01399586  0.59140476  0.49729045  1
  Hf  Hf18  1  0.72573569  0.49752767  0.62009675  1
  Hf  Hf19  1  0.20923950  0.59115841  0.26241337  1
  Hf  Hf20  1  0.10198036  0.28541404  0.62557627  1
  Hf  Hf21  1  0.19225707  0.41424744  0.00697601  1
  Hf  Hf22  1  0.10743026  0.69236611  0.62824753  1
  Hf  Hf23  1  0.80896493  0.21439774  0.48955427  1
  Hf  Hf24  1  0.20555551  -0.01570926  0.00834789  1
  Hf  Hf25  1  0.49995825  0.50039979  0.36286879  1
  Hf  Hf26  1  0.39290890  0.81800957  0.26320378  1
  Hf  Hf27  1  0.29852306  0.89182590  0.63370443  1
  Hf  Hf28  1  0.20195155  0.19433816  0.24844972  1
  Hf  Hf29  1  -0.00397007  0.77922540  0.23190566  1
  Hf  Hf30  1  0.89884602  0.09342968  0.36496132  1
  Hf  Hf31  1  0.29064266  0.10316715  0.61007480  1
  Hf  Hf32  1  0.40248545  0.61440013  0.00702850  1
  Hf  Hf33  1  -0.00491548  -0.00242840  0.74405778  1
  Hf  Hf34  1  0.40473195  0.20227658  0.01391312  1
  Hf  Hf35  1  -0.01158747  0.39423329  0.50553287  1
  Hf  Hf36  1  0.78079900  0.79042677  0.24304737  1
  Hf  Hf37  1  0.59975443  0.40374635  0.74921572  1
  Hf  Hf38  1  0.89102943  0.90660089  0.88759923  1
  Hf  Hf39  1  0.90809760  0.70293711  0.63187890  1
  Zr  Zr40  1  0.01093676  0.58937824  -0.02358349  1
  Zr  Zr41  1  0.90618218  0.50072711  0.11168055  1
  Zr  Zr42  1  0.30831960  0.48606362  0.63412286  1
  Zr  Zr43  1  0.38868826  0.22280046  0.74441587  1
  Zr  Zr44  1  0.11163571  0.67079475  0.11514395  1
  Zr  Zr45  1  0.39276893  0.00973058  0.74708351  1
  Zr  Zr46  1  0.71322600  0.32048095  0.37421103  1
  Zr  Zr47  1  0.28870319  0.89927680  0.85626598  1
  Zr  Zr48  1  0.09889070  0.08295017  0.36167265  1
  Zr  Zr49  1  0.30694007  0.69193972  0.63318279  1
  Zr  Zr50  1  0.20057253  0.40239504  0.50200388  1
  Zr  Zr51  1  0.18941436  -0.00981856  0.50011214  1
  Zr  Zr52  1  0.70503495  0.52717335  0.11034084  1
  Zr  Zr53  1  0.89676778  0.89023125  0.36188175  1
  Zr  Zr54  1  0.60696359  -0.00742190  -0.00529063  1
  Zr  Zr55  1  0.79562782  0.21175750  0.25181462  1
  Zr  Zr56  1  0.61031383  0.61057285  0.73708532  1
  Zr  Zr57  1  0.39253922  0.80814643  0.00330199  1
  Zr  Zr58  1  0.00629603  -0.00535044  0.01747386  1
  Zr  Zr59  1  0.49905371  0.51514814  0.13272364  1
  Zr  Zr60  1  0.59632971  0.40000190  0.49959894  1
  Zr  Zr61  1  0.88089463  0.89866174  0.12774178  1
  Zr  Zr62  1  0.00158172  0.20360081  0.24089573  1
  Zr  Zr63  1  0.60812595  0.20088178  0.00881933  1
  Zr  Zr64  1  0.70863659  0.72309259  0.39472518  1
  Zr  Zr65  1  0.88560112  0.10394595  0.88949143  1
  Zr  Zr66  1  0.81997758  0.59890167  0.49858630  1
  Zr  Zr67  1  0.00299762  0.60741665  0.77208154  1
  Zr  Zr68  1  0.50378741  0.10986729  0.61807720  1
  Zr  Zr69  1  0.29882676  0.30437394  0.12948201  1
  Zr  Zr70  1  0.40852089  0.20790895  0.48535937  1
  Zr  Zr71  1  0.80181668  0.40533324  0.76924077  1
  Zr  Zr72  1  0.89932489  0.10094316  0.12717942  1
  Zr  Zr73  1  0.32054341  0.49251022  0.87078460  1
  Zr  Zr74  1  0.69446957  0.89035136  0.86837562  1
  Zr  Zr75  1  0.29425672  0.29019804  0.89738271  1
  Zr  Zr76  1  0.80566551  0.60174174  0.25510669  1
  Zr  Zr77  1  0.50941396  0.11075170  0.86714400  1
  Zr  Zr78  1  0.09885549  0.28029256  0.88330349  1
  Zr  Zr79  1  0.69891412  0.08781332  0.13600015  1
  Ta  Ta80  1  0.19851371  0.78948715  0.50040956  1
  Ta  Ta81  1  0.89552604  0.71703049  0.88263024  1
  Ta  Ta82  1  0.60648034  0.62266942  0.25635381  1
  Ta  Ta83  1  -0.01256980  -0.01267668  0.50636500  1
  Ta  Ta84  1  0.30709647  0.08510150  0.37161316  1
  Ta  Ta85  1  0.69555579  0.29298480  0.62291440  1
  Ta  Ta86  1  -0.01310661  0.19708775  0.74914273  1
  Ta  Ta87  1  0.50507234  0.71397843  0.87121901  1
  Ta  Ta88  1  0.08817747  0.89085188  0.63244080  1
  Ta  Ta89  1  0.40147682  0.80301705  0.49707984  1
  Ta  Ta90  1  0.89911624  0.47585522  0.37200331  1
  Ta  Ta91  1  0.79065394  -0.00479912  0.48754098  1
  Ta  Ta92  1  0.80057064  0.80583645  0.74585360  1
  Ta  Ta93  1  0.40997410  0.19033627  0.25726350  1
  Ta  Ta94  1  0.51554625  0.29644554  0.35345804  1
  Ta  Ta95  1  0.68058940  0.11452149  0.38158112  1
  Ta  Ta96  1  0.61602413  0.41272384  0.24407565  1
  Ta  Ta97  1  0.49184572  0.31360042  0.62531757  1
  Ta  Ta98  1  0.71207275  0.71500136  0.61620525  1
  Ta  Ta99  1  0.59640657  0.81867894  0.51127060  1
  Ta  Ta100  1  0.09359339  0.49481701  0.64152355  1
  Ta  Ta101  1  0.70137628  0.10585178  0.60836344  1
  Ta  Ta102  1  0.19971592  0.20012786  0.48726459  1
  Ta  Ta103  1  -0.00034711  0.79841012  0.50022356  1
  Ta  Ta104  1  0.69990509  0.28463483  0.87531300  1
  Ta  Ta105  1  0.79331871  0.01345244  0.74666504  1
  Ta  Ta106  1  0.20062775  0.59102468  0.76803896  1
  Ta  Ta107  1  0.80354999  0.60632259  0.76654515  1
  Ta  Ta108  1  0.70342920  0.51167494  0.37688247  1
  Ta  Ta109  1  0.50805930  0.30221846  0.14714496  1
  Ta  Ta110  1  0.00299230  0.79366073  0.00923022  1
  Ta  Ta111  1  0.49121168  0.91221115  0.13401349  1
  Ta  Ta112  1  0.49595414  0.89321037  0.86193755  1
  Ta  Ta113  1  0.09232111  0.29947638  0.37328717  1
  Ta  Ta114  1  0.40245288  0.61509572  0.25426192  1
  Ta  Ta115  1  0.00849526  0.18898684  0.49448664  1
  Ta  Ta116  1  0.79537447  0.40277491  -0.01704655  1
  Ta  Ta117  1  0.08694540  0.88520163  0.86955728  1
  Ta  Ta118  1  0.11728718  0.88260588  0.13721978  1
  Ta  Ta119  1  0.50465456  0.09863345  0.13707408  1
  Ti  Ti120  1  0.57833085  0.00771968  0.27202692  1
  Ti  Ti121  1  0.29509538  0.70796538  0.37604354  1
  Ti  Ti122  1  0.61472728  0.19842928  0.74674595  1
  Ti  Ti123  1  0.59164157  0.00597239  0.49341687  1
  Ti  Ti124  1  0.70799926  0.30872864  0.12670355  1
  Ti  Ti125  1  0.70913190  0.90934075  0.61850115  1
  Ti  Ti126  1  0.90970286  0.69755008  0.37691302  1
  Ti  Ti127  1  0.39270750  0.41386500  0.24475201  1
  Ti  Ti128  1  0.10158435  0.69446869  0.37475830  1
  Ti  Ti129  1  0.89627186  0.28972954  0.87122693  1
  Ti  Ti130  1  0.39747071  0.40224508  0.49057015  1
  Ti  Ti131  1  0.10419156  0.48536588  0.37358618  1
  Ti  Ti132  1  0.00393793  0.40416060  0.76760618  1
  Ti  Ti133  1  0.58957739  0.80174373  0.72400709  1
  Ti  Ti134  1  0.81178052  0.40609559  0.23985591  1
  Ti  Ti135  1  0.77673877  0.79821427  0.00618695  1
  Ti  Ti136  1  0.29768967  0.71572007  0.13537707  1
  Ti  Ti137  1  0.19665639  0.79099573  -0.00757990  1
  Ti  Ti138  1  0.09410762  0.28382180  0.11075081  1
  Ti  Ti139  1  0.49974231  0.50806373  0.62411944  1
  Ti  Ti140  1  0.31147328  0.70619649  0.85963740  1
  Ti  Ti141  1  0.21696907  -0.02760330  0.25040594  1
  Ti  Ti142  1  0.29050209  0.10290540  0.88302888  1
  Ti  Ti143  1  0.29137413  0.51833751  0.12432710  1
  Ti  Ti144  1  0.40312494  -0.00956359  0.49478287  1
  Ti  Ti145  1  0.41430328  0.60615939  0.74793068  1
  Ti  Ti146  1  0.69104537  0.69687305  0.87938798  1
  Ti  Ti147  1  0.20812940  0.60384068  -0.02777118  1
  Ti  Ti148  1  0.40139962  0.40788098  0.01665159  1
  Ti  Ti149  1  0.51172359  0.71810352  0.13280022  1
  Ti  Ti150  1  0.18509807  0.40129292  0.23774715  1
  Ti  Ti151  1  0.67779070  0.89210122  0.12609033  1
  Ti  Ti152  1  0.20509993  0.59245067  0.49080545  1
  Ti  Ti153  1  -0.00119245  0.38905434  0.23783766  1
  Ti  Ti154  1  0.50328551  0.71065954  0.37754813  1
  Ti  Ti155  1  0.80494215  0.20842049  0.00980144  1
  Ti  Ti156  1  0.59318635  0.81763116  0.26400319  1
  Ti  Ti157  1  0.18654635  0.79121737  0.75412894  1
  Ti  Ti158  1  0.77415392  -0.00809385  0.26714756  1
  Ti  Ti159  1  0.88175881  0.69071715  0.10300066  1
  Mo  Mo160  1  0.89687937  0.50123538  0.88007510  1
  Mo  Mo161  1  0.91617306  0.50465657  0.64031591  1
  Mo  Mo162  1  0.58640494  0.79926778  0.00164694  1
  Mo  Mo163  1  0.49701678  0.90301634  0.38852600  1
  Mo  Mo164  1  0.08900068  0.09300182  0.61438321  1
  Mo  Mo165  1  0.78919207  -0.00463903  0.00542838  1
  Mo  Mo166  1  0.79781202  0.60863615  -0.02275048  1
  Mo  Mo167  1  0.69933269  0.50668433  0.88528444  1
  Mo  Mo168  1  -0.00800595  0.80276250  0.75600952  1
  Mo  Mo169  1  0.50043343  0.70454333  0.61723014  1
  Mo  Mo170  1  0.88853891  0.89671297  0.62374535  1
  Mo  Mo171  1  0.01397678  -0.00930284  0.23132042  1
  Mo  Mo172  1  0.18632494  -0.01192303  0.74278056  1
  Mo  Mo173  1  0.69127334  0.91135869  0.38141181  1
  Mo  Mo174  1  0.49977504  0.90280296  0.61584136  1
  Mo  Mo175  1  0.69334211  0.71015008  0.12336577  1
  Mo  Mo176  1  0.79372015  0.19738247  0.74731789  1
  Mo  Mo177  1  0.80363163  0.40701612  0.50447866  1
  Mo  Mo178  1  0.30314479  0.50202786  0.36778903  1
  Mo  Mo179  1  0.10980520  0.70793402  0.88002915  1
  Mo  Mo180  1  0.60346175  0.20651015  0.50179511  1
  Mo  Mo181  1  0.40224456  0.00037970  0.26187735  1
  Mo  Mo182  1  0.91296448  0.30164558  0.37180495  1
  Mo  Mo183  1  0.10967326  0.48939533  0.86311956  1
  Mo  Mo184  1  0.19111231  0.17992051  0.02013934  1
  Mo  Mo185  1  0.20294304  0.78319676  0.25342912  1
  Mo  Mo186  1  0.29395580  0.89530872  0.38801598  1
  Mo  Mo187  1  0.40926278  0.79579600  0.74592671  1
  Mo  Mo188  1  0.10535409  0.48633083  0.12648176  1
  Mo  Mo189  1  -0.00122035  0.19558371  0.01130819  1
  Mo  Mo190  1  0.30477250  0.89050053  0.12541591  1
  Mo  Mo191  1  0.81079140  0.81382757  0.50833279  1
  Mo  Mo192  1  0.89157583  0.30514240  0.11594389  1
  Mo  Mo193  1  0.41034429  0.41156831  0.74693155  1
  Mo  Mo194  1  0.70553216  0.10177654  0.87274514  1
  Mo  Mo195  1  0.59896164  0.62631252  0.00226801  1
  Mo  Mo196  1  0.10873817  0.08538802  0.13808207  1
  Mo  Mo197  1  0.60265503  0.20441623  0.24642042  1
  Mo  Mo198  1  0.30404795  0.29276336  0.61415324  1
  Mo  Mo199  1  0.49884658  0.10396593  0.38121112  1
