# generated using pymatgen
data_HfZrTaTiMo
_symmetry_space_group_name_H-M   'P 1'
_cell_length_a   15.20884488
_cell_length_b   15.20830056
_cell_length_c   16.83820823
_cell_angle_alpha   89.99012682
_cell_angle_beta   90.03918815
_cell_angle_gamma   89.91615850
_symmetry_Int_Tables_number   1
_chemical_formula_structural   HfZrTaTiMo
_chemical_formula_sum   'Hf40 Zr40 Ta40 Ti40 Mo40'
_cell_volume   3894.68394501
_cell_formula_units_Z   40
loop_
 _symmetry_equiv_pos_site_id
 _symmetry_equiv_pos_as_xyz
  1  'x, y, z'
loop_
 _atom_site_type_symbol
 _atom_site_label
 _atom_site_symmetry_multiplicity
 _atom_site_fract_x
 _atom_site_fract_y
 _atom_site_fract_z
 _atom_site_occupancy
  Hf  Hf0  1  0.90909118  0.29879158  0.86676871  1
  Hf  Hf1  1  0.70100719  0.69394080  0.62894599  1
  Hf  Hf2  1  0.02354031  0.00569966  0.25726136  1
  Hf  Hf3  1  0.29771341  0.72459312  0.37767268  1
  Hf  Hf4  1  0.70801129  0.48344922  0.86455923  1
  Hf  Hf5  1  0.69850186  0.09095929  0.62971632  1
  Hf  Hf6  1  0.11570884  0.90694671  0.12362512  1
  Hf  Hf7  1  0.37848331  0.00331691  0.76210646  1
  Hf  Hf8  1  0.49460681  0.48436218  0.88525073  1
  Hf  Hf9  1  0.69653302  0.09619332  0.87315989  1
  Hf  Hf10  1  0.91501804  0.10413341  0.38064957  1
  Hf  Hf11  1  0.90659194  0.09869868  0.13417083  1
  Hf  Hf12  1  0.69658325  0.10050525  0.12911493  1
  Hf  Hf13  1  0.00838437  0.59697754  0.74752129  1
  Hf  Hf14  1  0.69418676  0.29247831  0.63815639  1
  Hf  Hf15  1  0.08790709  0.91323997  0.86540024  1
  Hf  Hf16  1  0.68765729  0.49100227  0.37135853  1
  Hf  Hf17  1  0.90994262  0.49754653  0.12991271  1
  Hf  Hf18  1  0.58522937  0.59998531  0.74610418  1
  Hf  Hf19  1  0.89143688  0.50865436  0.37268056  1
  Hf  Hf20  1  0.58284877  -0.00336573  0.25293221  1
  Hf  Hf21  1  0.78817777  0.80181261  -0.00463939  1
  Hf  Hf22  1  0.79988700  0.00039186  0.26125712  1
  Hf  Hf23  1  0.21313000  0.41990977  0.74958920  1
  Hf  Hf24  1  0.91544934  0.88023390  0.36831157  1
  Hf  Hf25  1  0.68698345  0.89049259  0.36544330  1
  Hf  Hf26  1  0.30801893  0.31137207  0.62068308  1
  Hf  Hf27  1  0.80768546  0.79925134  0.74799934  1
  Hf  Hf28  1  0.81768920  0.18313663  0.74432821  1
  Hf  Hf29  1  0.69866406  0.29553952  0.37307738  1
  Hf  Hf30  1  0.49810628  0.29063802  0.88842280  1
  Hf  Hf31  1  0.91099638  0.29719192  0.62693503  1
  Hf  Hf32  1  0.80635082  -0.00492348  0.00527054  1
  Hf  Hf33  1  0.70094270  0.29384252  0.85991728  1
  Hf  Hf34  1  0.91169707  0.69643729  0.88443852  1
  Hf  Hf35  1  0.59811117  0.58522209  0.50775432  1
  Hf  Hf36  1  0.29729421  0.30739291  0.36127087  1
  Hf  Hf37  1  0.79516728  0.21624493  0.00743918  1
  Hf  Hf38  1  0.59546986  -0.01548501  0.00334319  1
  Hf  Hf39  1  0.70509755  0.48833760  0.64269600  1
  Zr  Zr40  1  0.10585956  0.91518409  0.62368629  1
  Zr  Zr41  1  0.37753258  0.58408466  0.75322296  1
  Zr  Zr42  1  0.29773854  0.09325180  0.61976010  1
  Zr  Zr43  1  0.79392656  -0.00510448  0.48475745  1
  Zr  Zr44  1  0.40063288  0.19215861  0.23959023  1
  Zr  Zr45  1  0.10727532  0.49779920  0.88232394  1
  Zr  Zr46  1  0.20677201  0.19869739  0.76255043  1
  Zr  Zr47  1  0.09424904  0.11374598  0.60820885  1
  Zr  Zr48  1  0.29857725  0.72627271  0.13248313  1
  Zr  Zr49  1  0.00707401  0.39862606  0.48701296  1
  Zr  Zr50  1  0.18768984  0.18974986  0.25423768  1
  Zr  Zr51  1  0.19182830  0.60019327  0.26231139  1
  Zr  Zr52  1  0.70446742  0.69193371  0.86524357  1
  Zr  Zr53  1  0.61040079  0.59450071  -0.00160047  1
  Zr  Zr54  1  0.58576549  0.79588192  0.50506435  1
  Zr  Zr55  1  0.39874778  0.78754011  0.74199962  1
  Zr  Zr56  1  0.00102320  0.79870258  0.73957584  1
  Zr  Zr57  1  0.79835287  0.19954106  0.49794629  1
  Zr  Zr58  1  0.30047812  0.49837087  0.12971128  1
  Zr  Zr59  1  0.80452125  0.78816313  0.50204565  1
  Zr  Zr60  1  0.40869805  0.61173945  0.25072156  1
  Zr  Zr61  1  0.69542329  0.88637900  0.14317976  1
  Zr  Zr62  1  0.19934906  0.22046669  -0.00191172  1
  Zr  Zr63  1  0.00072063  0.20175204  0.00944633  1
  Zr  Zr64  1  0.48241916  0.49095429  0.62514095  1
  Zr  Zr65  1  0.50140129  0.70357343  0.11162417  1
  Zr  Zr66  1  0.79634223  0.41117699  0.50598977  1
  Zr  Zr67  1  0.70044434  0.69614825  0.13328117  1
  Zr  Zr68  1  -0.01142896  0.01799813  0.74501370  1
  Zr  Zr69  1  0.20784484  0.80558873  0.74877295  1
  Zr  Zr70  1  0.09572813  0.70483586  0.12031270  1
  Zr  Zr71  1  0.39785185  0.20019406  0.49455306  1
  Zr  Zr72  1  0.50111115  0.70070228  0.87981823  1
  Zr  Zr73  1  0.20211891  0.81221089  -0.01602500  1
  Zr  Zr74  1  0.70331545  0.69069092  0.36993127  1
  Zr  Zr75  1  0.50383580  0.31045204  0.37611269  1
  Zr  Zr76  1  0.90354619  0.70034870  0.11641129  1
  Zr  Zr77  1  0.11015273  0.30776441  0.62312676  1
  Zr  Zr78  1  0.10120603  0.50052415  0.11994640  1
  Zr  Zr79  1  0.48599820  0.91227158  0.62190975  1
  Ta  Ta80  1  0.79959016  0.20257639  0.25302371  1
  Ta  Ta81  1  -0.00595868  0.60343352  0.49214673  1
  Ta  Ta82  1  0.50118556  0.90165198  0.86944880  1
  Ta  Ta83  1  0.62037290  0.38337670  0.01139893  1
  Ta  Ta84  1  0.90190535  0.09227498  0.88237269  1
  Ta  Ta85  1  0.41209530  0.20914528  0.75120586  1
  Ta  Ta86  1  0.09055879  0.71323636  0.38277902  1
  Ta  Ta87  1  0.20441116  0.41243253  0.48491820  1
  Ta  Ta88  1  0.59513031  0.19252425  0.00961232  1
  Ta  Ta89  1  0.69731500  0.90218818  0.62573460  1
  Ta  Ta90  1  0.90991980  0.89269123  0.14157960  1
  Ta  Ta91  1  0.50440603  0.29743377  0.61728409  1
  Ta  Ta92  1  0.59949316  0.39476927  0.23363592  1
  Ta  Ta93  1  0.71105030  0.48761148  0.12630704  1
  Ta  Ta94  1  0.90534357  0.68139448  0.62035835  1
  Ta  Ta95  1  0.39163751  0.60126578  -0.00333052  1
  Ta  Ta96  1  0.49779868  0.10011330  0.87851835  1
  Ta  Ta97  1  0.59881508  0.80618538  0.73979340  1
  Ta  Ta98  1  0.00449779  -0.00151184  0.00167024  1
  Ta  Ta99  1  0.50513797  0.49317389  0.11333799  1
  Ta  Ta100  1  -0.00705054  0.61498263  0.26368564  1
  Ta  Ta101  1  0.47841581  0.89491106  0.12130364  1
  Ta  Ta102  1  0.39661823  0.80760018  -0.01544836  1
  Ta  Ta103  1  0.50146885  0.09725926  0.37428724  1
  Ta  Ta104  1  0.20488321  0.01678884  -0.02013304  1
  Ta  Ta105  1  0.20638264  0.60325199  -0.00360274  1
  Ta  Ta106  1  0.59399900  0.00621333  0.49225421  1
  Ta  Ta107  1  0.79898542  0.59666688  0.24635110  1
  Ta  Ta108  1  0.39520875  0.19309114  0.00989120  1
  Ta  Ta109  1  0.01748075  0.40748090  0.26676645  1
  Ta  Ta110  1  0.00194082  0.39667245  -0.00174415  1
  Ta  Ta111  1  0.09901410  0.51178139  0.61508662  1
  Ta  Ta112  1  0.56550922  0.79027677  0.25873794  1
  Ta  Ta113  1  0.60049050  0.19778814  0.24608456  1
  Ta  Ta114  1  0.81046668  0.58021406  -0.00159231  1
  Ta  Ta115  1  0.11605131  0.89942235  0.38584879  1
  Ta  Ta116  1  0.59623267  0.58795616  0.24404297  1
  Ta  Ta117  1  0.30316191  0.08802772  0.37828317  1
  Ta  Ta118  1  0.69407377  0.89581871  0.86818074  1
  Ta  Ta119  1  0.50358305  0.10818466  0.62728020  1
  Ti  Ti120  1  0.89610955  0.90382303  0.61353831  1
  Ti  Ti121  1  0.60145972  0.19645926  0.49499846  1
  Ti  Ti122  1  0.49744414  0.50178986  0.37552793  1
  Ti  Ti123  1  0.10717433  0.10303412  0.11988137  1
  Ti  Ti124  1  0.80232944  0.39582152  0.25111566  1
  Ti  Ti125  1  0.90407640  0.49300128  0.87879782  1
  Ti  Ti126  1  0.30467900  0.50891062  0.37245757  1
  Ti  Ti127  1  0.19570271  0.60554289  0.49747695  1
  Ti  Ti128  1  0.38928255  0.39247578  0.01043691  1
  Ti  Ti129  1  -0.00001607  0.20930366  0.25401752  1
  Ti  Ti130  1  0.29554756  0.08454611  0.12268184  1
  Ti  Ti131  1  0.59343303  0.00162502  0.75136252  1
  Ti  Ti132  1  -0.00580981  0.81344963  -0.00495468  1
  Ti  Ti133  1  0.79965030  -0.01231834  0.75272748  1
  Ti  Ti134  1  0.39031797  0.61096347  0.50877998  1
  Ti  Ti135  1  0.57564663  0.38422278  0.75159199  1
  Ti  Ti136  1  0.90734179  0.09268245  0.60111357  1
  Ti  Ti137  1  0.21139234  -0.00263967  0.49500565  1
  Ti  Ti138  1  0.19798930  0.61556128  0.73640562  1
  Ti  Ti139  1  0.50143669  0.29545787  0.12041552  1
  Ti  Ti140  1  0.09293331  0.11833099  0.87361908  1
  Ti  Ti141  1  0.40665822  0.40659334  0.24461429  1
  Ti  Ti142  1  0.19164812  0.20982050  0.48083974  1
  Ti  Ti143  1  0.39069697  -0.00095618  -0.01165589  1
  Ti  Ti144  1  0.00407923  0.40175225  0.74841099  1
  Ti  Ti145  1  0.00808352  0.79911201  0.51171476  1
  Ti  Ti146  1  0.10483517  0.69909218  0.87856221  1
  Ti  Ti147  1  0.10051172  0.31228511  0.13578036  1
  Ti  Ti148  1  0.20773988  0.80001532  0.51696951  1
  Ti  Ti149  1  0.49043805  0.09025358  0.12054113  1
  Ti  Ti150  1  0.81630383  0.58717336  0.75086108  1
  Ti  Ti151  1  0.47185168  0.89601352  0.38882268  1
  Ti  Ti152  1  0.90276684  0.30222644  0.37246952  1
  Ti  Ti153  1  0.39470173  -0.01254063  0.25179772  1
  Ti  Ti154  1  0.49350645  0.69647597  0.38356065  1
  Ti  Ti155  1  0.21510023  -0.01209099  0.25745514  1
  Ti  Ti156  1  0.29178197  0.30395487  0.13617810  1
  Ti  Ti157  1  0.89974528  0.30893643  0.13352644  1
  Ti  Ti158  1  0.30129317  0.31469798  0.87798482  1
  Ti  Ti159  1  0.39916456  0.41154236  0.49361633  1
  Mo  Mo160  1  0.81009307  0.39693918  0.00267226  1
  Mo  Mo161  1  0.20235120  0.40121922  0.26162443  1
  Mo  Mo162  1  0.28524191  0.50095692  0.60968289  1
  Mo  Mo163  1  0.00377271  0.20126968  0.48813189  1
  Mo  Mo164  1  0.19738350  0.00829248  0.76996743  1
  Mo  Mo165  1  0.59449119  0.19113990  0.75092729  1
  Mo  Mo166  1  0.30401187  0.49665721  0.89099873  1
  Mo  Mo167  1  0.19407777  0.81375755  0.25542593  1
  Mo  Mo168  1  0.30932183  0.11667241  0.88283068  1
  Mo  Mo169  1  0.00476757  -0.00929866  0.49343707  1
  Mo  Mo170  1  0.29386799  0.90637228  0.62346015  1
  Mo  Mo171  1  0.40359929  0.00202876  0.49812648  1
  Mo  Mo172  1  0.39299076  0.81591914  0.25285122  1
  Mo  Mo173  1  0.30234730  0.91698069  0.11660320  1
  Mo  Mo174  1  0.00554373  0.20665184  0.75371116  1
  Mo  Mo175  1  0.09648081  0.29710649  0.37301630  1
  Mo  Mo176  1  0.38841677  0.79888906  0.51630018  1
  Mo  Mo177  1  0.90083700  0.69946598  0.37572610  1
  Mo  Mo178  1  0.80381271  0.59420638  0.50716028  1
  Mo  Mo179  1  0.09965430  0.69863768  0.60940577  1
  Mo  Mo180  1  0.39595111  0.39018324  0.75335969  1
  Mo  Mo181  1  0.90894056  0.49775490  0.62749747  1
  Mo  Mo182  1  0.70363324  0.29773617  0.13521901  1
  Mo  Mo183  1  0.10868385  0.09537712  0.38925193  1
  Mo  Mo184  1  0.29251952  0.69208906  0.87714656  1
  Mo  Mo185  1  0.29971955  0.90383541  0.38401003  1
  Mo  Mo186  1  0.29716414  0.69603809  0.61359587  1
  Mo  Mo187  1  0.00226909  0.60041240  -0.00830801  1
  Mo  Mo188  1  0.01645625  0.80149138  0.25073244  1
  Mo  Mo189  1  0.29996305  0.90488357  0.87601250  1
  Mo  Mo190  1  0.20301329  0.39778251  0.00446361  1
  Mo  Mo191  1  0.09737379  0.30795733  0.86861019  1
  Mo  Mo192  1  0.10609048  0.50990806  0.37886131  1
  Mo  Mo193  1  0.59487647  0.80923930  -0.00629391  1
  Mo  Mo194  1  0.59107434  0.39084128  0.50380258  1
  Mo  Mo195  1  0.81531303  0.40047577  0.74524520  1
  Mo  Mo196  1  0.49773641  0.69913963  0.62101769  1
  Mo  Mo197  1  0.81955055  0.78588710  0.25371718  1
  Mo  Mo198  1  0.69004979  0.10219440  0.36678058  1
  Mo  Mo199  1  0.89301549  0.90593963  0.87871999  1
