# generated using pymatgen
data_HfZrTaTiMo
_symmetry_space_group_name_H-M   'P 1'
_cell_length_a   15.20164765
_cell_length_b   15.20842760
_cell_length_c   16.86793464
_cell_angle_alpha   90.00084506
_cell_angle_beta   89.98614640
_cell_angle_gamma   89.85502578
_symmetry_Int_Tables_number   1
_chemical_formula_structural   HfZrTaTiMo
_chemical_formula_sum   'Hf40 Zr40 Ta40 Ti40 Mo40'
_cell_volume   3899.73847785
_cell_formula_units_Z   40
loop_
 _symmetry_equiv_pos_site_id
 _symmetry_equiv_pos_as_xyz
  1  'x, y, z'
loop_
 _atom_site_type_symbol
 _atom_site_label
 _atom_site_symmetry_multiplicity
 _atom_site_fract_x
 _atom_site_fract_y
 _atom_site_fract_z
 _atom_site_occupancy
  Hf  Hf0  1  0.30747050  0.10162563  0.39270247  1
  Hf  Hf1  1  0.50310073  0.09672802  0.37175237  1
  Hf  Hf2  1  0.70619422  0.10525906  0.12392523  1
  Hf  Hf3  1  0.19040687  0.57810848  0.50306675  1
  Hf  Hf4  1  0.48684368  0.91600076  0.64155541  1
  Hf  Hf5  1  0.08800699  0.30671864  0.63320408  1
  Hf  Hf6  1  0.72707191  0.08666314  0.62975456  1
  Hf  Hf7  1  0.19384819  0.38678491  0.24861824  1
  Hf  Hf8  1  0.59759981  0.61055462  0.50193106  1
  Hf  Hf9  1  0.81133652  0.21754207  0.24497709  1
  Hf  Hf10  1  0.91350750  0.88410055  0.37817660  1
  Hf  Hf11  1  0.29722758  0.69592866  0.37828733  1
  Hf  Hf12  1  0.27955909  0.70908897  0.61968239  1
  Hf  Hf13  1  -0.00775005  0.40796854  -0.01646512  1
  Hf  Hf14  1  0.20237179  0.41133153  0.75399484  1
  Hf  Hf15  1  0.70458176  0.49635801  0.63769274  1
  Hf  Hf16  1  0.31857099  0.30049494  0.11772433  1
  Hf  Hf17  1  0.90215969  0.47927268  0.35889137  1
  Hf  Hf18  1  0.00105622  -0.00029878  0.50988309  1
  Hf  Hf19  1  0.87665417  0.50414746  0.12669342  1
  Hf  Hf20  1  0.88299530  0.67958453  0.38289646  1
  Hf  Hf21  1  0.29699719  0.50941652  0.14190266  1
  Hf  Hf22  1  -0.00200784  -0.02187215  -0.00628083  1
  Hf  Hf23  1  0.77909185  0.79883558  0.49834672  1
  Hf  Hf24  1  0.30355367  0.10956928  0.88030496  1
  Hf  Hf25  1  0.70941669  0.29017244  0.62487608  1
  Hf  Hf26  1  0.60432033  0.80019111  0.75298988  1
  Hf  Hf27  1  0.79980150  0.00734168  0.48669634  1
  Hf  Hf28  1  0.78264424  0.78100372  0.25653471  1
  Hf  Hf29  1  0.61161260  0.01116772  0.76308756  1
  Hf  Hf30  1  0.59826390  0.22154629  0.24190908  1
  Hf  Hf31  1  0.90524882  0.69720811  0.61056581  1
  Hf  Hf32  1  0.60631161  0.00013796  0.00339221  1
  Hf  Hf33  1  -0.01431115  0.20554516  0.49540169  1
  Hf  Hf34  1  0.09944681  0.09524697  0.12915296  1
  Hf  Hf35  1  0.10838026  0.29160632  0.10822302  1
  Hf  Hf36  1  0.50045450  0.88860378  0.11310502  1
  Hf  Hf37  1  0.08211030  0.69963829  0.38364764  1
  Hf  Hf38  1  0.80448048  0.17796706  0.78353586  1
  Hf  Hf39  1  0.19530983  0.60540742  0.00544971  1
  Zr  Zr40  1  0.50611476  0.69369916  0.12444029  1
  Zr  Zr41  1  0.29254111  0.89738007  0.88021168  1
  Zr  Zr42  1  0.29517725  0.30371086  0.38915389  1
  Zr  Zr43  1  0.29636133  0.68762116  0.86809141  1
  Zr  Zr44  1  0.60952098  0.21433944  0.76311517  1
  Zr  Zr45  1  0.51009613  0.31219759  0.62129774  1
  Zr  Zr46  1  0.39945671  0.43168025  0.50360722  1
  Zr  Zr47  1  0.61264725  0.41824217  0.49448302  1
  Zr  Zr48  1  0.30448786  0.90141982  0.38334005  1
  Zr  Zr49  1  0.19174793  0.79878152  0.25770365  1
  Zr  Zr50  1  0.09408885  0.69592195  0.13654900  1
  Zr  Zr51  1  0.10368244  0.09225477  0.37740181  1
  Zr  Zr52  1  0.48951384  0.50749073  0.86846988  1
  Zr  Zr53  1  0.50307151  0.31401993  0.37872999  1
  Zr  Zr54  1  0.20318434  -0.00257838  0.24857467  1
  Zr  Zr55  1  0.90892462  0.09386602  0.13377645  1
  Zr  Zr56  1  0.29295546  0.31103576  0.61081168  1
  Zr  Zr57  1  0.71386845  0.89279092  0.88295418  1
  Zr  Zr58  1  0.10600064  0.08354186  0.85747467  1
  Zr  Zr59  1  0.90295849  0.30500735  0.11265562  1
  Zr  Zr60  1  0.80125375  -0.01328840  0.25174801  1
  Zr  Zr61  1  0.11638877  0.29048820  0.87701424  1
  Zr  Zr62  1  0.31916483  0.09191700  0.61428960  1
  Zr  Zr63  1  0.39787387  0.00450210  0.23724731  1
  Zr  Zr64  1  0.82915602  0.38905885  0.50965292  1
  Zr  Zr65  1  0.72311703  0.31652430  0.37372873  1
  Zr  Zr66  1  0.49617841  0.11969353  0.11678419  1
  Zr  Zr67  1  0.70151562  0.09877206  0.35960188  1
  Zr  Zr68  1  0.09499100  0.86663086  0.62044482  1
  Zr  Zr69  1  0.20839553  0.41332857  -0.00388688  1
  Zr  Zr70  1  0.62020578  0.19641525  0.49415324  1
  Zr  Zr71  1  0.21443656  -0.01741516  0.73227882  1
  Zr  Zr72  1  -0.00584680  0.18276661  -0.01968344  1
  Zr  Zr73  1  0.58160359  0.80545512  0.51162426  1
  Zr  Zr74  1  -0.00810436  0.40238689  0.76802555  1
  Zr  Zr75  1  0.19080890  -0.00133982  -0.00006561  1
  Zr  Zr76  1  0.40167799  0.19805703  0.74811448  1
  Zr  Zr77  1  0.49229069  0.89997828  0.87679852  1
  Zr  Zr78  1  0.79061628  0.38934390  0.77224423  1
  Zr  Zr79  1  0.39689494  0.40985724  0.74593883  1
  Ta  Ta80  1  0.79352371  0.20226945  -0.01552436  1
  Ta  Ta81  1  0.30040362  0.50357592  0.36003700  1
  Ta  Ta82  1  0.60765699  0.59289763  -0.01183045  1
  Ta  Ta83  1  0.88945052  0.52740916  0.87687991  1
  Ta  Ta84  1  0.18587393  0.79762549  0.00203764  1
  Ta  Ta85  1  0.60960061  0.78195567  -0.01052909  1
  Ta  Ta86  1  0.60190936  -0.00645996  0.50479636  1
  Ta  Ta87  1  0.39914053  0.59587410  0.00339452  1
  Ta  Ta88  1  0.78380938  0.41546358  -0.01815093  1
  Ta  Ta89  1  0.08414714  0.49556747  0.13489997  1
  Ta  Ta90  1  0.29589533  0.10996260  0.11103148  1
  Ta  Ta91  1  0.88015408  0.90463759  0.62360902  1
  Ta  Ta92  1  0.01688891  0.21477409  0.25729868  1
  Ta  Ta93  1  0.08868161  0.89011565  0.12835805  1
  Ta  Ta94  1  0.29440261  0.89238401  0.11534853  1
  Ta  Ta95  1  -0.00666594  0.19243442  0.76272460  1
  Ta  Ta96  1  0.89284031  0.70021509  0.12818689  1
  Ta  Ta97  1  0.50054762  0.71559815  0.36720299  1
  Ta  Ta98  1  0.20412038  -0.01257861  0.51299796  1
  Ta  Ta99  1  0.48687192  0.69975058  0.64081946  1
  Ta  Ta100  1  -0.01067274  0.60532099  0.00100405  1
  Ta  Ta101  1  0.02753468  0.40646246  0.49440825  1
  Ta  Ta102  1  0.18426530  0.20046310  0.50822231  1
  Ta  Ta103  1  0.08912501  0.69650360  0.87225604  1
  Ta  Ta104  1  0.51905466  0.10543938  0.62272875  1
  Ta  Ta105  1  0.61369005  0.42561097  0.24679382  1
  Ta  Ta106  1  0.59867451  -0.01175239  0.23555171  1
  Ta  Ta107  1  -0.01663072  -0.00674470  0.74230159  1
  Ta  Ta108  1  0.50037777  0.10755527  0.88977354  1
  Ta  Ta109  1  0.90039645  0.88496934  0.13080940  1
  Ta  Ta110  1  0.09358701  0.88084004  0.85911886  1
  Ta  Ta111  1  0.60564477  0.60071311  0.75719358  1
  Ta  Ta112  1  0.21053940  0.19599627  0.25070610  1
  Ta  Ta113  1  0.80902052  -0.00215081  0.00242806  1
  Ta  Ta114  1  0.50012013  0.30577831  0.87930161  1
  Ta  Ta115  1  0.69665422  0.69896570  0.63290240  1
  Ta  Ta116  1  0.37859007  0.80758251  0.74574121  1
  Ta  Ta117  1  0.39647573  0.20954931  0.25194970  1
  Ta  Ta118  1  0.39710998  0.00233761  0.00694548  1
  Ta  Ta119  1  0.40508150  0.60570635  0.25241657  1
  Ti  Ti120  1  0.10095961  0.49631544  0.35781901  1
  Ti  Ti121  1  0.20284463  0.20191410  0.73867967  1
  Ti  Ti122  1  0.00548438  0.59945179  0.74713818  1
  Ti  Ti123  1  0.50433057  0.50004314  0.12714651  1
  Ti  Ti124  1  0.79590318  0.58620753  0.50898902  1
  Ti  Ti125  1  0.41444662  0.40188039  0.25000948  1
  Ti  Ti126  1  0.70416279  0.88243991  0.11741163  1
  Ti  Ti127  1  0.00870201  -0.01572309  0.25922130  1
  Ti  Ti128  1  0.30065451  0.70300726  0.13171759  1
  Ti  Ti129  1  0.49709812  0.90460118  0.37083717  1
  Ti  Ti130  1  0.80198265  0.79967241  0.74196517  1
  Ti  Ti131  1  0.61088203  0.61977267  0.25265687  1
  Ti  Ti132  1  0.50298803  0.51992658  0.36729290  1
  Ti  Ti133  1  0.70737559  0.68904353  0.11417085  1
  Ti  Ti134  1  -0.00974203  0.60241042  0.24874617  1
  Ti  Ti135  1  0.39266855  0.78866491  -0.00150414  1
  Ti  Ti136  1  0.49561870  0.70173580  0.86838495  1
  Ti  Ti137  1  0.68022937  0.88982875  0.36820700  1
  Ti  Ti138  1  0.10452299  0.51373420  0.87421506  1
  Ti  Ti139  1  0.50153920  0.51466502  0.63823919  1
  Ti  Ti140  1  0.31067089  0.30667237  0.88534988  1
  Ti  Ti141  1  0.72356847  0.68981651  0.87533451  1
  Ti  Ti142  1  0.81067713  0.60438455  0.74512485  1
  Ti  Ti143  1  0.40336188  0.61567112  0.50093693  1
  Ti  Ti144  1  0.70122568  0.32339594  0.11769805  1
  Ti  Ti145  1  0.38983732  0.81140562  0.50908946  1
  Ti  Ti146  1  0.71026563  0.52209670  0.36951717  1
  Ti  Ti147  1  0.40306087  0.80434866  0.24630531  1
  Ti  Ti148  1  0.92301847  0.49422970  0.62626708  1
  Ti  Ti149  1  0.09413879  0.10133318  0.63340048  1
  Ti  Ti150  1  0.59651288  0.40846836  0.00063940  1
  Ti  Ti151  1  0.89724154  0.27784714  0.63801824  1
  Ti  Ti152  1  0.90378165  0.10510236  0.36278544  1
  Ti  Ti153  1  0.19963076  0.60058745  0.73943261  1
  Ti  Ti154  1  0.59951614  0.21780112  0.00236826  1
  Ti  Ti155  1  0.40879177  0.40701478  0.00257667  1
  Ti  Ti156  1  0.41308436  0.20155661  0.50433404  1
  Ti  Ti157  1  -0.00585409  0.78705554  0.74455346  1
  Ti  Ti158  1  -0.00864277  0.78900188  -0.00385899  1
  Ti  Ti159  1  0.90082580  0.88532138  0.86912429  1
  Mo  Mo160  1  0.39523551  0.60937434  0.74381576  1
  Mo  Mo161  1  0.00014812  0.39770331  0.24094326  1
  Mo  Mo162  1  0.59442662  0.80744352  0.24787634  1
  Mo  Mo163  1  0.29592277  0.50131367  0.88000185  1
  Mo  Mo164  1  0.79742289  0.61179798  -0.00348626  1
  Mo  Mo165  1  0.19914695  0.59498396  0.25403719  1
  Mo  Mo166  1  0.69826374  0.89645204  0.62930312  1
  Mo  Mo167  1  0.80334639  -0.01541579  0.75751997  1
  Mo  Mo168  1  0.90718095  0.10193687  0.63160556  1
  Mo  Mo169  1  0.41936665  -0.00131301  0.49926622  1
  Mo  Mo170  1  -0.00999721  0.79372882  0.50421930  1
  Mo  Mo171  1  0.69473592  0.50936176  0.86540112  1
  Mo  Mo172  1  0.89734620  0.07623564  0.87858880  1
  Mo  Mo173  1  0.78503034  0.59136067  0.24736425  1
  Mo  Mo174  1  0.91595460  0.29828225  0.36808157  1
  Mo  Mo175  1  0.10140644  0.50009855  0.63113934  1
  Mo  Mo176  1  0.81198946  0.19221833  0.49720534  1
  Mo  Mo177  1  0.19128545  0.79655696  0.48933984  1
  Mo  Mo178  1  0.79290959  0.40264758  0.24138732  1
  Mo  Mo179  1  0.40634779  0.21081373  -0.00587200  1
  Mo  Mo180  1  0.69393283  0.09620589  0.89719348  1
  Mo  Mo181  1  0.80783631  0.79636531  0.00415647  1
  Mo  Mo182  1  0.68738338  0.30626012  0.89143273  1
  Mo  Mo183  1  0.18563932  0.78618035  0.75135667  1
  Mo  Mo184  1  0.31009327  0.51662466  0.62382297  1
  Mo  Mo185  1  0.10150452  0.30076748  0.37583297  1
  Mo  Mo186  1  0.40804654  0.00714851  0.75818795  1
  Mo  Mo187  1  0.68486306  0.69775033  0.37986186  1
  Mo  Mo188  1  0.89853028  0.30223386  0.88791889  1
  Mo  Mo189  1  0.20018301  0.40022940  0.49537632  1
  Mo  Mo190  1  0.29988032  0.89540523  0.61708677  1
  Mo  Mo191  1  -0.01237258  0.58089740  0.49656199  1
  Mo  Mo192  1  0.68367179  0.51004582  0.11865869  1
  Mo  Mo193  1  0.50961524  0.32105482  0.12643727  1
  Mo  Mo194  1  0.20790709  0.20078673  -0.00057509  1
  Mo  Mo195  1  0.10117430  0.89290867  0.39306047  1
  Mo  Mo196  1  0.08610598  0.67588480  0.61934005  1
  Mo  Mo197  1  -0.01129962  0.79988483  0.25192696  1
  Mo  Mo198  1  0.59770131  0.40589713  0.75158155  1
  Mo  Mo199  1  0.90392154  0.70831501  0.86587964  1
