# generated using pymatgen
data_HfZrTaTiMo
_symmetry_space_group_name_H-M   'P 1'
_cell_length_a   15.22094864
_cell_length_b   15.20701511
_cell_length_c   16.81837063
_cell_angle_alpha   90.04192419
_cell_angle_beta   90.00999272
_cell_angle_gamma   90.09720055
_symmetry_Int_Tables_number   1
_chemical_formula_structural   HfZrTaTiMo
_chemical_formula_sum   'Hf40 Zr40 Ta40 Ti40 Mo40'
_cell_volume   3892.86075059
_cell_formula_units_Z   40
loop_
 _symmetry_equiv_pos_site_id
 _symmetry_equiv_pos_as_xyz
  1  'x, y, z'
loop_
 _atom_site_type_symbol
 _atom_site_label
 _atom_site_symmetry_multiplicity
 _atom_site_fract_x
 _atom_site_fract_y
 _atom_site_fract_z
 _atom_site_occupancy
  Hf  Hf0  1  0.20699895  -0.00018379  0.01050014  1
  Hf  Hf1  1  0.39887261  0.41532377  0.50610153  1
  Hf  Hf2  1  0.30717559  0.11903340  0.12040007  1
  Hf  Hf3  1  0.49394777  0.30106700  0.63832166  1
  Hf  Hf4  1  0.31129443  0.90371907  0.37991256  1
  Hf  Hf5  1  0.30955869  0.91129804  0.61577030  1
  Hf  Hf6  1  0.40019962  0.21154655  0.26187469  1
  Hf  Hf7  1  0.51700231  0.10319433  0.11183269  1
  Hf  Hf8  1  0.89353744  0.46125903  0.36815856  1
  Hf  Hf9  1  0.30601524  0.70791515  0.37253942  1
  Hf  Hf10  1  0.70386812  0.91886693  0.86312709  1
  Hf  Hf11  1  0.00876412  0.78427389  0.25940175  1
  Hf  Hf12  1  0.50406353  0.49958456  0.10408488  1
  Hf  Hf13  1  0.90595264  0.08068947  0.62865448  1
  Hf  Hf14  1  -0.00926312  -0.00765275  0.00469887  1
  Hf  Hf15  1  0.80446127  0.20309492  0.74362731  1
  Hf  Hf16  1  0.49305487  0.29315824  0.87220090  1
  Hf  Hf17  1  0.51070718  0.08652261  0.88241420  1
  Hf  Hf18  1  0.60482177  0.19179287  0.75189661  1
  Hf  Hf19  1  0.49606250  0.29774553  0.11599446  1
  Hf  Hf20  1  0.60216403  0.20899345  0.25433534  1
  Hf  Hf21  1  0.18283374  0.58376231  0.74678786  1
  Hf  Hf22  1  0.00092067  0.38377686  0.51323325  1
  Hf  Hf23  1  0.08852667  0.09262000  0.13768788  1
  Hf  Hf24  1  0.42057781  0.80287639  0.50374456  1
  Hf  Hf25  1  0.08023045  0.67075372  0.88207025  1
  Hf  Hf26  1  0.41335874  0.00200778  0.23775053  1
  Hf  Hf27  1  0.09300459  0.09008587  0.36474212  1
  Hf  Hf28  1  0.61679111  0.00407817  0.24490615  1
  Hf  Hf29  1  0.18195161  0.21257292  0.48253082  1
  Hf  Hf30  1  0.50626892  0.33912453  0.36723335  1
  Hf  Hf31  1  0.30071798  0.09346822  0.38396899  1
  Hf  Hf32  1  0.80507637  0.41382278  -0.00267250  1
  Hf  Hf33  1  0.60314456  0.41102627  0.52068196  1
  Hf  Hf34  1  -0.00915712  0.79908228  0.48693932  1
  Hf  Hf35  1  0.59307768  0.60399603  0.49965599  1
  Hf  Hf36  1  0.09820538  0.90920414  0.61866375  1
  Hf  Hf37  1  0.58887969  0.59415433  0.25068589  1
  Hf  Hf38  1  0.80077876  0.38644402  0.52716490  1
  Hf  Hf39  1  0.40441951  0.80213331  0.22912688  1
  Zr  Zr40  1  0.36940154  0.59778071  0.01173962  1
  Zr  Zr41  1  0.70388304  0.69282509  0.64052048  1
  Zr  Zr42  1  0.40488557  0.21082489  0.48198071  1
  Zr  Zr43  1  0.10337067  0.11032534  0.61648533  1
  Zr  Zr44  1  -0.00635093  0.79254744  0.74131455  1
  Zr  Zr45  1  0.60685915  -0.00931446  0.49831648  1
  Zr  Zr46  1  0.01124456  0.20641552  0.75690896  1
  Zr  Zr47  1  0.39150218  0.59761428  0.75688169  1
  Zr  Zr48  1  0.10961471  0.10815657  0.88352387  1
  Zr  Zr49  1  0.60778533  0.20491239  0.50775050  1
  Zr  Zr50  1  0.88065329  0.69583484  0.13588800  1
  Zr  Zr51  1  0.49753028  0.50059573  0.88319015  1
  Zr  Zr52  1  0.20792041  0.01036949  0.75564320  1
  Zr  Zr53  1  0.38121631  0.39773783  0.75757943  1
  Zr  Zr54  1  0.29183941  0.69413737  0.87633884  1
  Zr  Zr55  1  -0.00892839  0.78380033  0.01186852  1
  Zr  Zr56  1  0.00453754  0.20137924  0.00002118  1
  Zr  Zr57  1  0.37814559  0.38431955  -0.00166173  1
  Zr  Zr58  1  0.50977486  0.69791825  0.88171727  1
  Zr  Zr59  1  0.70367748  0.51357069  0.12224520  1
  Zr  Zr60  1  0.09364079  0.69039953  0.61058258  1
  Zr  Zr61  1  0.79916275  0.19383134  -0.00441284  1
  Zr  Zr62  1  0.19652152  0.20565809  0.25735624  1
  Zr  Zr63  1  0.79266561  0.59622021  0.48476553  1
  Zr  Zr64  1  0.89599825  0.29940699  0.13022449  1
  Zr  Zr65  1  0.09579398  0.89517941  0.87526161  1
  Zr  Zr66  1  0.71142590  0.89561765  0.36790815  1
  Zr  Zr67  1  0.30185811  0.70374457  0.62556779  1
  Zr  Zr68  1  0.19604469  0.79549994  -0.00383300  1
  Zr  Zr69  1  0.20349130  0.80170041  0.75304216  1
  Zr  Zr70  1  0.00781858  0.41149509  0.01054764  1
  Zr  Zr71  1  0.39989348  0.80279086  0.01078654  1
  Zr  Zr72  1  0.29179250  0.28961009  0.62085555  1
  Zr  Zr73  1  0.48987133  0.09486336  0.62306932  1
  Zr  Zr74  1  0.71415432  0.30517960  0.37881453  1
  Zr  Zr75  1  -0.00374336  0.58937315  0.48042628  1
  Zr  Zr76  1  0.19091189  0.61153886  0.24501580  1
  Zr  Zr77  1  0.31321782  0.51288611  0.36683937  1
  Zr  Zr78  1  0.52059070  0.89662360  0.64321165  1
  Zr  Zr79  1  0.80655981  0.41004651  0.73440069  1
  Ta  Ta80  1  0.10824230  0.47990758  0.36558483  1
  Ta  Ta81  1  0.19953536  0.80594080  0.49550854  1
  Ta  Ta82  1  0.19354981  0.40886475  0.50486219  1
  Ta  Ta83  1  0.79247179  0.60400210  0.26876496  1
  Ta  Ta84  1  -0.00137365  -0.00433073  0.48741262  1
  Ta  Ta85  1  -0.01357524  0.59273904  0.74110391  1
  Ta  Ta86  1  0.88695761  0.69991026  0.87375687  1
  Ta  Ta87  1  0.72496254  0.90408143  0.12680930  1
  Ta  Ta88  1  0.40827406  -0.00179653  0.00550167  1
  Ta  Ta89  1  0.88896868  0.08879599  0.87006296  1
  Ta  Ta90  1  0.00103181  0.40464133  0.73065673  1
  Ta  Ta91  1  0.60702654  0.40200073  0.74914215  1
  Ta  Ta92  1  0.20153381  0.40276574  0.23363319  1
  Ta  Ta93  1  0.18294855  0.39077118  0.73921657  1
  Ta  Ta94  1  0.71140640  0.10252947  0.38035513  1
  Ta  Ta95  1  0.80105233  0.80063314  0.51012965  1
  Ta  Ta96  1  0.70471271  0.71417401  0.85692968  1
  Ta  Ta97  1  0.40224118  0.00076857  0.76068803  1
  Ta  Ta98  1  0.80448724  0.18849973  0.51515379  1
  Ta  Ta99  1  0.89191708  0.89277722  0.87540890  1
  Ta  Ta100  1  -0.01113918  0.59107527  0.27232145  1
  Ta  Ta101  1  0.90514460  0.50900435  0.87278903  1
  Ta  Ta102  1  0.88585840  0.08760521  0.13797526  1
  Ta  Ta103  1  0.70445596  0.51814652  0.86694166  1
  Ta  Ta104  1  0.50907565  0.89112976  0.36804474  1
  Ta  Ta105  1  0.90959464  0.90074335  0.14676393  1
  Ta  Ta106  1  0.49920393  0.70107653  0.36817307  1
  Ta  Ta107  1  0.28554380  0.32448017  0.37130807  1
  Ta  Ta108  1  0.50556545  0.69790258  0.64255107  1
  Ta  Ta109  1  0.10987772  0.88223873  0.13797690  1
  Ta  Ta110  1  0.40639255  0.60532614  0.50728042  1
  Ta  Ta111  1  0.21256805  -0.01138186  0.23948853  1
  Ta  Ta112  1  0.51060144  0.89476083  0.87825333  1
  Ta  Ta113  1  0.61129116  0.39824425  -0.01294803  1
  Ta  Ta114  1  0.29907831  0.09674924  0.60509922  1
  Ta  Ta115  1  -0.01338997  0.20483467  0.25952908  1
  Ta  Ta116  1  0.91071113  0.31164000  0.87196737  1
  Ta  Ta117  1  0.39986048  0.41480974  0.23369639  1
  Ta  Ta118  1  0.60848140  0.20473900  -0.01209967  1
  Ta  Ta119  1  0.52450184  0.89597055  0.11182981  1
  Ti  Ti120  1  0.69975147  0.07932264  0.63320956  1
  Ti  Ti121  1  0.78897983  0.62395493  -0.00343884  1
  Ti  Ti122  1  0.89652136  0.50100396  0.14418373  1
  Ti  Ti123  1  0.10266635  0.29515469  0.13151034  1
  Ti  Ti124  1  0.29386136  0.50328218  0.62496948  1
  Ti  Ti125  1  0.80790475  -0.01002307  0.50215618  1
  Ti  Ti126  1  0.11183302  0.89860861  0.36814430  1
  Ti  Ti127  1  0.78564804  0.39313883  0.24388734  1
  Ti  Ti128  1  0.68009797  0.49080370  0.36757184  1
  Ti  Ti129  1  0.21607592  0.21898993  -0.00107080  1
  Ti  Ti130  1  0.52069422  0.69533715  0.10669043  1
  Ti  Ti131  1  0.62876395  0.79659363  0.00014807  1
  Ti  Ti132  1  0.89154996  0.09005817  0.36765977  1
  Ti  Ti133  1  0.16442131  0.59164846  0.01884009  1
  Ti  Ti134  1  0.60658997  0.79477703  0.23884380  1
  Ti  Ti135  1  0.90302710  0.89952142  0.35862268  1
  Ti  Ti136  1  -0.01497731  0.19710531  0.48604902  1
  Ti  Ti137  1  0.69276977  0.30063475  0.12053543  1
  Ti  Ti138  1  0.08248631  0.50575441  0.14502459  1
  Ti  Ti139  1  0.26030304  0.48566530  0.88203872  1
  Ti  Ti140  1  0.10838187  0.69553287  0.38274679  1
  Ti  Ti141  1  0.19634334  0.40638687  0.02341193  1
  Ti  Ti142  1  -0.00432564  -0.00663179  0.75656376  1
  Ti  Ti143  1  0.61088537  0.79584596  0.50400596  1
  Ti  Ti144  1  0.70964282  0.30629718  0.87005754  1
  Ti  Ti145  1  0.50157739  0.51035497  0.64202468  1
  Ti  Ti146  1  0.10991530  0.31886834  0.88051304  1
  Ti  Ti147  1  0.26943785  0.71643298  0.12935568  1
  Ti  Ti148  1  0.79132593  0.19210943  0.24719914  1
  Ti  Ti149  1  0.39752024  0.60834312  0.22625932  1
  Ti  Ti150  1  0.40354156  0.80525843  0.75911561  1
  Ti  Ti151  1  0.31031517  0.91012533  0.87947296  1
  Ti  Ti152  1  0.89466096  0.52452218  0.61861766  1
  Ti  Ti153  1  0.80611715  0.81366211  0.73276985  1
  Ti  Ti154  1  0.20692683  0.20291917  0.75488864  1
  Ti  Ti155  1  0.20584448  0.59544278  0.49749398  1
  Ti  Ti156  1  0.69490557  0.70722098  0.37334382  1
  Ti  Ti157  1  0.38660353  0.18570569  0.75975973  1
  Ti  Ti158  1  0.63000977  0.00531624  0.00401059  1
  Ti  Ti159  1  0.50601408  0.08865536  0.37965720  1
  Mo  Mo160  1  0.69199997  0.71261409  0.12612422  1
  Mo  Mo161  1  0.20424406  0.80397718  0.25605202  1
  Mo  Mo162  1  0.60237481  0.59344548  0.75364993  1
  Mo  Mo163  1  0.90453244  0.89886633  0.61680204  1
  Mo  Mo164  1  0.60111425  0.00080286  0.75281925  1
  Mo  Mo165  1  0.69867230  0.29118755  0.63029419  1
  Mo  Mo166  1  0.10134787  0.49888255  0.61672946  1
  Mo  Mo167  1  0.80711778  0.00078157  0.74561231  1
  Mo  Mo168  1  0.70602856  0.10900203  0.12439421  1
  Mo  Mo169  1  0.30799891  0.90623331  0.12286592  1
  Mo  Mo170  1  0.80712390  -0.00477906  0.00315377  1
  Mo  Mo171  1  0.00101549  0.39387750  0.24577571  1
  Mo  Mo172  1  0.80582025  0.00467761  0.25516174  1
  Mo  Mo173  1  0.08601190  0.48660178  0.87361403  1
  Mo  Mo174  1  0.71303706  0.90348887  0.63042272  1
  Mo  Mo175  1  0.09978341  0.29618726  0.62265074  1
  Mo  Mo176  1  0.49594764  0.51664407  0.37307790  1
  Mo  Mo177  1  0.40027934  0.19181747  -0.00835508  1
  Mo  Mo178  1  0.88921299  0.27705412  0.37449825  1
  Mo  Mo179  1  0.69335480  0.50222535  0.63847479  1
  Mo  Mo180  1  -0.02613960  0.58655636  0.00790421  1
  Mo  Mo181  1  0.08412857  0.69172936  0.12802089  1
  Mo  Mo182  1  0.19457668  -0.00400771  0.49491480  1
  Mo  Mo183  1  0.00577697  -0.00529317  0.25580801  1
  Mo  Mo184  1  0.31009532  0.10299199  0.88843807  1
  Mo  Mo185  1  0.89958356  0.70260089  0.61838978  1
  Mo  Mo186  1  0.40825161  -0.00103665  0.49460856  1
  Mo  Mo187  1  0.90842631  0.28046047  0.62620842  1
  Mo  Mo188  1  0.59769380  0.40233223  0.23845657  1
  Mo  Mo189  1  0.61511924  0.60152797  -0.00827724  1
  Mo  Mo190  1  0.60086572  0.80054754  0.75751538  1
  Mo  Mo191  1  0.29006409  0.50809048  0.12728840  1
  Mo  Mo192  1  0.88677084  0.70438834  0.36798647  1
  Mo  Mo193  1  0.79626982  0.79817387  0.25388048  1
  Mo  Mo194  1  0.80890797  0.60913526  0.75189462  1
  Mo  Mo195  1  0.08438737  0.30812003  0.36747005  1
  Mo  Mo196  1  0.70636640  0.10882932  0.87179229  1
  Mo  Mo197  1  0.28342114  0.29295410  0.87031685  1
  Mo  Mo198  1  0.29760177  0.30421617  0.13155363  1
  Mo  Mo199  1  0.80145521  0.81397542  -0.00188707  1
