# generated using pymatgen
data_HfZrTaTiMo
_symmetry_space_group_name_H-M   'P 1'
_cell_length_a   15.20657224
_cell_length_b   15.19437435
_cell_length_c   16.87609915
_cell_angle_alpha   90.00979635
_cell_angle_beta   90.03194395
_cell_angle_gamma   89.82642092
_symmetry_Int_Tables_number   1
_chemical_formula_structural   HfZrTaTiMo
_chemical_formula_sum   'Hf40 Zr40 Ta40 Ti40 Mo40'
_cell_volume   3899.27758460
_cell_formula_units_Z   40
loop_
 _symmetry_equiv_pos_site_id
 _symmetry_equiv_pos_as_xyz
  1  'x, y, z'
loop_
 _atom_site_type_symbol
 _atom_site_label
 _atom_site_symmetry_multiplicity
 _atom_site_fract_x
 _atom_site_fract_y
 _atom_site_fract_z
 _atom_site_occupancy
  Hf  Hf0  1  0.79700359  0.60650375  -0.01624899  1
  Hf  Hf1  1  0.00647386  0.39209166  0.01077593  1
  Hf  Hf2  1  0.89923487  0.70805509  0.11066264  1
  Hf  Hf3  1  0.79415029  0.61142641  0.76669578  1
  Hf  Hf4  1  0.70113331  0.29058018  0.11360312  1
  Hf  Hf5  1  0.20443297  0.61577216  0.25692109  1
  Hf  Hf6  1  0.20750790  0.80437896  0.75779094  1
  Hf  Hf7  1  0.31494821  0.30232429  0.88389043  1
  Hf  Hf8  1  0.20538834  0.40582822  0.00998411  1
  Hf  Hf9  1  0.68452755  0.89663082  0.62410405  1
  Hf  Hf10  1  0.39791438  0.40891861  0.74526398  1
  Hf  Hf11  1  0.31614400  0.89793794  0.62522300  1
  Hf  Hf12  1  0.69534656  0.28608663  0.89188560  1
  Hf  Hf13  1  0.69869891  0.89074515  0.12599362  1
  Hf  Hf14  1  0.10018550  0.71384573  0.11629630  1
  Hf  Hf15  1  0.29733234  0.11080068  0.11390727  1
  Hf  Hf16  1  0.80476135  0.79000250  0.50032476  1
  Hf  Hf17  1  0.79050812  0.40081079  0.23372048  1
  Hf  Hf18  1  0.69290177  0.29712832  0.62779353  1
  Hf  Hf19  1  0.59692676  0.80007976  0.25947697  1
  Hf  Hf20  1  0.78726339  0.00293618  0.49252546  1
  Hf  Hf21  1  0.79693061  0.20856391  0.49699858  1
  Hf  Hf22  1  0.39469534  0.00171684  0.24701158  1
  Hf  Hf23  1  0.89824555  0.90493542  0.11247530  1
  Hf  Hf24  1  0.58189810  0.59350140  0.74721552  1
  Hf  Hf25  1  0.40766241  0.20014169  0.49541614  1
  Hf  Hf26  1  0.59736673  0.19658473  0.75759916  1
  Hf  Hf27  1  0.60393668  0.59853746  0.50010860  1
  Hf  Hf28  1  0.49392002  0.89342773  0.12438017  1
  Hf  Hf29  1  0.89936603  0.69996998  0.63765164  1
  Hf  Hf30  1  0.69774160  0.48535558  0.37277772  1
  Hf  Hf31  1  0.79122263  0.00009335  0.25869902  1
  Hf  Hf32  1  0.90193712  0.91249301  0.88123638  1
  Hf  Hf33  1  0.30374034  0.70854488  0.12021533  1
  Hf  Hf34  1  0.31512899  0.68399684  0.87313444  1
  Hf  Hf35  1  -0.00681537  0.60798517  0.50598572  1
  Hf  Hf36  1  0.11136513  0.30292437  0.62646726  1
  Hf  Hf37  1  0.19567799  0.80916293  -0.01868716  1
  Hf  Hf38  1  0.91643931  0.89758738  0.38439919  1
  Hf  Hf39  1  0.69978549  0.50279006  0.63014588  1
  Zr  Zr40  1  0.48874610  0.91404621  0.37751225  1
  Zr  Zr41  1  0.20089310  0.00292981  0.75189574  1
  Zr  Zr42  1  0.09868699  0.28545001  0.35972265  1
  Zr  Zr43  1  0.29212684  0.90401172  0.11273791  1
  Zr  Zr44  1  0.90053950  0.10930698  0.37711675  1
  Zr  Zr45  1  0.09960858  0.72218851  0.37938557  1
  Zr  Zr46  1  0.09652296  0.50663614  0.37369196  1
  Zr  Zr47  1  0.91365781  0.28157385  0.86735188  1
  Zr  Zr48  1  0.50385021  0.29900467  0.36354908  1
  Zr  Zr49  1  0.00110794  0.81422053  0.74726434  1
  Zr  Zr50  1  0.69686813  0.09690602  0.62790521  1
  Zr  Zr51  1  0.68038080  0.49751804  0.88526379  1
  Zr  Zr52  1  0.29926913  0.10273960  0.61540498  1
  Zr  Zr53  1  0.78971010  0.39461972  0.76209035  1
  Zr  Zr54  1  0.48952572  0.09925432  0.87861493  1
  Zr  Zr55  1  0.10601718  0.28944383  0.14416288  1
  Zr  Zr56  1  0.59780103  0.58844070  0.24936111  1
  Zr  Zr57  1  0.09577602  0.70008286  0.87309625  1
  Zr  Zr58  1  -0.00099803  -0.00180420  0.24388633  1
  Zr  Zr59  1  0.00436607  0.39790357  0.49860148  1
  Zr  Zr60  1  0.80952683  0.60589592  0.24172697  1
  Zr  Zr61  1  0.80170128  0.41554494  0.50310305  1
  Zr  Zr62  1  0.31021282  0.49187421  0.61353923  1
  Zr  Zr63  1  0.50343233  0.69298979  0.12506879  1
  Zr  Zr64  1  0.50190835  0.70520874  0.62666846  1
  Zr  Zr65  1  0.19805594  0.20180624  0.75134012  1
  Zr  Zr66  1  0.10398212  0.08298492  0.38356492  1
  Zr  Zr67  1  0.91910045  0.49259867  0.86967409  1
  Zr  Zr68  1  -0.00930875  0.41185615  0.23810939  1
  Zr  Zr69  1  0.58104271  0.18482767  0.01295785  1
  Zr  Zr70  1  0.89625207  0.31042065  0.36618135  1
  Zr  Zr71  1  0.90452822  0.29936546  0.64060043  1
  Zr  Zr72  1  0.47384751  0.49340851  0.88533922  1
  Zr  Zr73  1  0.69038024  0.51049885  0.10710412  1
  Zr  Zr74  1  -0.00583095  0.02089117  0.00084483  1
  Zr  Zr75  1  0.21481460  0.40475017  0.25099012  1
  Zr  Zr76  1  0.39633105  0.79349250  0.49858888  1
  Zr  Zr77  1  0.00171624  0.01675326  0.74457925  1
  Zr  Zr78  1  0.70758099  0.69508955  0.37636882  1
  Zr  Zr79  1  0.40132205  0.20086001  0.74416442  1
  Ta  Ta80  1  0.69596161  0.28519302  0.36292436  1
  Ta  Ta81  1  0.50126533  0.07736427  0.61741082  1
  Ta  Ta82  1  0.79528505  -0.01130658  0.75186784  1
  Ta  Ta83  1  0.08381779  0.11813660  0.87739503  1
  Ta  Ta84  1  0.79182279  0.80899325  -0.01747292  1
  Ta  Ta85  1  0.89972741  0.09943015  0.62011155  1
  Ta  Ta86  1  0.28235861  0.89824445  0.38091253  1
  Ta  Ta87  1  0.20915827  0.60762512  0.49664902  1
  Ta  Ta88  1  0.30246078  0.29666108  0.37146155  1
  Ta  Ta89  1  0.10636900  0.50596940  0.62175368  1
  Ta  Ta90  1  0.49540904  0.49601505  0.37378023  1
  Ta  Ta91  1  0.40858660  0.79814433  -0.01368892  1
  Ta  Ta92  1  0.31186141  0.91080822  0.88097592  1
  Ta  Ta93  1  0.39625475  0.19971888  0.24454348  1
  Ta  Ta94  1  0.20841072  0.58811412  0.75345809  1
  Ta  Ta95  1  0.80642896  0.39127942  0.00161478  1
  Ta  Ta96  1  0.58040738  0.39528392  0.01285100  1
  Ta  Ta97  1  0.49175671  0.30168233  0.61665991  1
  Ta  Ta98  1  0.59877560  0.80628115  0.49418352  1
  Ta  Ta99  1  0.20036240  0.00292091  0.25142013  1
  Ta  Ta100  1  0.19888312  0.79797210  0.51134374  1
  Ta  Ta101  1  0.60410333  0.78947197  -0.01036910  1
  Ta  Ta102  1  0.30087871  0.69207768  0.63636642  1
  Ta  Ta103  1  0.59833993  0.18621885  0.23595545  1
  Ta  Ta104  1  0.48941600  0.69611760  0.37228116  1
  Ta  Ta105  1  0.90854596  0.50186446  0.64268762  1
  Ta  Ta106  1  0.70447590  0.70315348  0.62793237  1
  Ta  Ta107  1  0.10419293  0.31656226  0.86841686  1
  Ta  Ta108  1  0.10060345  0.09996814  0.12854179  1
  Ta  Ta109  1  0.82097688  0.18283486  0.00725325  1
  Ta  Ta110  1  0.20225132  0.20267420  0.49817149  1
  Ta  Ta111  1  0.10869687  0.69870454  0.63126360  1
  Ta  Ta112  1  0.59124764  0.39152363  0.50026628  1
  Ta  Ta113  1  0.41522530  0.80003586  0.76093310  1
  Ta  Ta114  1  0.80248197  0.19531100  0.23755086  1
  Ta  Ta115  1  0.00794311  0.60010687  -0.00475798  1
  Ta  Ta116  1  0.10159618  0.51637863  0.12713875  1
  Ta  Ta117  1  0.21109404  0.39800800  0.49027461  1
  Ta  Ta118  1  0.00250466  0.80326338  0.24628969  1
  Ta  Ta119  1  0.18665027  0.20597531  -0.00377874  1
  Ti  Ti120  1  0.80820663  0.80281979  0.25516272  1
  Ti  Ti121  1  0.60348974  -0.01483672  -0.00077598  1
  Ti  Ti122  1  0.69241417  0.90478707  0.37846494  1
  Ti  Ti123  1  0.40127331  0.58987169  0.00961322  1
  Ti  Ti124  1  0.29079347  0.10122114  0.89191388  1
  Ti  Ti125  1  0.30115492  0.50795504  0.13000528  1
  Ti  Ti126  1  0.31090370  0.50311418  0.37903155  1
  Ti  Ti127  1  0.31035214  0.09398936  0.38236543  1
  Ti  Ti128  1  0.18876679  -0.00930732  0.51032417  1
  Ti  Ti129  1  0.40394573  0.40161309  0.23593691  1
  Ti  Ti130  1  0.89467059  0.51446496  0.37328325  1
  Ti  Ti131  1  0.59558867  -0.00691189  0.75680047  1
  Ti  Ti132  1  -0.00019507  0.61213360  0.24479599  1
  Ti  Ti133  1  0.40672388  0.00725343  0.00321713  1
  Ti  Ti134  1  0.70618124  0.08471772  0.11749107  1
  Ti  Ti135  1  0.70157800  0.70343810  0.11968646  1
  Ti  Ti136  1  0.01371146  0.59408633  0.75261196  1
  Ti  Ti137  1  0.61420355  0.79844081  0.76278572  1
  Ti  Ti138  1  0.59570692  0.00665203  0.24904510  1
  Ti  Ti139  1  0.39783206  0.38614982  0.02289365  1
  Ti  Ti140  1  0.40582388  0.59205996  0.49803102  1
  Ti  Ti141  1  0.51029514  0.69102790  0.87850025  1
  Ti  Ti142  1  0.60212063  0.18520817  0.49157223  1
  Ti  Ti143  1  0.89259981  0.90437765  0.62417144  1
  Ti  Ti144  1  0.58669286  0.39122784  0.75193467  1
  Ti  Ti145  1  0.90113431  0.50630750  0.11234801  1
  Ti  Ti146  1  0.20067455  0.81425368  0.25138864  1
  Ti  Ti147  1  0.90521786  0.70039915  0.37552367  1
  Ti  Ti148  1  0.39786810  0.60042740  0.25275215  1
  Ti  Ti149  1  0.50574593  0.89755111  0.87810350  1
  Ti  Ti150  1  0.01162999  0.81683147  0.51929209  1
  Ti  Ti151  1  0.80493693  0.18081623  0.75715517  1
  Ti  Ti152  1  0.10173291  0.90609159  0.11308739  1
  Ti  Ti153  1  0.20353525  0.59664738  -0.00472531  1
  Ti  Ti154  1  0.20267815  0.40528008  0.75137587  1
  Ti  Ti155  1  0.70888650  0.08194780  0.88481926  1
  Ti  Ti156  1  0.40516043  -0.00398451  0.75316137  1
  Ti  Ti157  1  0.90223907  0.71049995  0.87397325  1
  Ti  Ti158  1  0.00520809  0.19344403  0.50693034  1
  Ti  Ti159  1  0.58995706  0.39121456  0.23030306  1
  Mo  Mo160  1  0.21268150  0.18339778  0.25874220  1
  Mo  Mo161  1  0.11097036  0.49988802  0.87611164  1
  Mo  Mo162  1  0.50497848  0.30487002  0.88145839  1
  Mo  Mo163  1  0.79832244  0.80729412  0.75643496  1
  Mo  Mo164  1  0.10277794  0.89981215  0.38002060  1
  Mo  Mo165  1  0.39580527  0.60369373  0.74832407  1
  Mo  Mo166  1  0.48715887  0.49722194  0.12394176  1
  Mo  Mo167  1  0.19524005  0.01035674  -0.01213464  1
  Mo  Mo168  1  0.68523737  0.10285304  0.36795009  1
  Mo  Mo169  1  0.49996328  0.08713394  0.12394475  1
  Mo  Mo170  1  0.69646495  0.70375846  0.87122363  1
  Mo  Mo171  1  -0.00034638  0.19328876  0.24643070  1
  Mo  Mo172  1  -0.00202319  -0.00001123  0.51644180  1
  Mo  Mo173  1  0.38381034  0.79088052  0.26206915  1
  Mo  Mo174  1  0.59043626  0.60359485  -0.00008542  1
  Mo  Mo175  1  0.28801966  0.49428545  0.88028382  1
  Mo  Mo176  1  0.50190429  0.10487077  0.36951964  1
  Mo  Mo177  1  0.89896399  0.10804854  0.13379467  1
  Mo  Mo178  1  0.89782511  0.29803303  0.12391567  1
  Mo  Mo179  1  0.58992999  -0.00027141  0.49528836  1
  Mo  Mo180  1  0.30051434  0.30006172  0.12729950  1
  Mo  Mo181  1  0.39031007  0.20460688  0.00630121  1
  Mo  Mo182  1  0.30508299  0.69920386  0.37506017  1
  Mo  Mo183  1  0.01749457  0.40712555  0.74487823  1
  Mo  Mo184  1  0.89072801  0.10343600  0.87036994  1
  Mo  Mo185  1  0.69390963  0.90195743  0.87255602  1
  Mo  Mo186  1  0.78854223  0.00109042  0.00186190  1
  Mo  Mo187  1  0.80551612  0.59998712  0.50999205  1
  Mo  Mo188  1  0.30115943  0.30193568  0.61185050  1
  Mo  Mo189  1  -0.00441903  0.80084006  -0.00773376  1
  Mo  Mo190  1  0.10587358  0.89889468  0.62425848  1
  Mo  Mo191  1  0.09446629  0.10158523  0.61049380  1
  Mo  Mo192  1  0.00551388  0.20829442  0.00447255  1
  Mo  Mo193  1  0.49267352  0.29165313  0.13676766  1
  Mo  Mo194  1  0.40315933  0.39992950  0.49006548  1
  Mo  Mo195  1  0.10988020  0.91943418  0.88229156  1
  Mo  Mo196  1  0.50306176  0.90088075  0.63253368  1
  Mo  Mo197  1  0.50727763  0.49111894  0.61671818  1
  Mo  Mo198  1  0.39222279  0.00005346  0.49586943  1
  Mo  Mo199  1  0.00280393  0.20006186  0.74054344  1
