# generated using pymatgen
data_HfZrTaTiMo
_symmetry_space_group_name_H-M   'P 1'
_cell_length_a   15.21198128
_cell_length_b   15.21867546
_cell_length_c   16.85369083
_cell_angle_alpha   90.05064750
_cell_angle_beta   90.05719820
_cell_angle_gamma   90.01301134
_symmetry_Int_Tables_number   1
_chemical_formula_structural   HfZrTaTiMo
_chemical_formula_sum   'Hf40 Zr40 Ta40 Ti40 Mo40'
_cell_volume   3901.73045469
_cell_formula_units_Z   40
loop_
 _symmetry_equiv_pos_site_id
 _symmetry_equiv_pos_as_xyz
  1  'x, y, z'
loop_
 _atom_site_type_symbol
 _atom_site_label
 _atom_site_symmetry_multiplicity
 _atom_site_fract_x
 _atom_site_fract_y
 _atom_site_fract_z
 _atom_site_occupancy
  Hf  Hf0  1  0.90131217  0.51022077  0.61743679  1
  Hf  Hf1  1  0.20199934  0.39420210  0.23565069  1
  Hf  Hf2  1  0.40402510  0.40068491  0.23521831  1
  Hf  Hf3  1  0.49903728  0.71414247  0.61121545  1
  Hf  Hf4  1  -0.00166992  0.01235774  0.50104463  1
  Hf  Hf5  1  -0.01334554  0.59987395  0.00395000  1
  Hf  Hf6  1  0.08864115  0.89295847  0.62670778  1
  Hf  Hf7  1  0.11020889  0.11027006  0.12954345  1
  Hf  Hf8  1  0.40210266  -0.00099902  0.75009686  1
  Hf  Hf9  1  0.78871338  0.38681297  0.50637485  1
  Hf  Hf10  1  0.60716667  0.80623259  0.75285923  1
  Hf  Hf11  1  0.48815590  0.91862414  0.11323900  1
  Hf  Hf12  1  0.80320694  -0.02033544  0.76008446  1
  Hf  Hf13  1  0.39517530  0.80032019  0.24631490  1
  Hf  Hf14  1  0.09624069  0.48701806  0.88462219  1
  Hf  Hf15  1  0.61799975  0.21229882  0.49235254  1
  Hf  Hf16  1  0.69787216  0.69901734  0.36490275  1
  Hf  Hf17  1  0.79520734  0.61474521  0.74680098  1
  Hf  Hf18  1  0.19853350  0.00454720  0.50347584  1
  Hf  Hf19  1  0.39403272  0.59959658  0.50334713  1
  Hf  Hf20  1  0.30565847  0.71044448  0.11319173  1
  Hf  Hf21  1  0.90173160  0.70900937  0.36325997  1
  Hf  Hf22  1  0.50213619  0.31135160  0.38082241  1
  Hf  Hf23  1  0.79916556  -0.00048516  0.23588294  1
  Hf  Hf24  1  0.70701409  0.10164737  0.63166253  1
  Hf  Hf25  1  0.59353962  0.00127081  0.76267373  1
  Hf  Hf26  1  -0.00168191  0.59893946  0.24476118  1
  Hf  Hf27  1  0.20749530  0.20795706  0.75297028  1
  Hf  Hf28  1  0.19003566  0.80120333  0.24932004  1
  Hf  Hf29  1  0.69794604  0.70762024  0.89026572  1
  Hf  Hf30  1  0.11174424  0.51195081  0.61455692  1
  Hf  Hf31  1  0.19922496  0.59602707  0.76691120  1
  Hf  Hf32  1  0.00271837  0.39633032  0.25079748  1
  Hf  Hf33  1  0.28703874  0.68778241  0.37398750  1
  Hf  Hf34  1  0.09725082  0.70340863  0.11510508  1
  Hf  Hf35  1  0.49228711  0.70472101  0.38341936  1
  Hf  Hf36  1  0.08269793  0.89907058  0.36878807  1
  Hf  Hf37  1  0.00421499  0.18328874  -0.00188664  1
  Hf  Hf38  1  0.30545617  0.89205599  0.61711762  1
  Hf  Hf39  1  0.70727629  0.89270286  0.62080902  1
  Zr  Zr40  1  0.80255641  0.39612003  0.73841416  1
  Zr  Zr41  1  0.59384839  0.81306558  0.24827164  1
  Zr  Zr42  1  0.59947102  0.00517821  0.26618188  1
  Zr  Zr43  1  0.09555318  0.29519583  0.37856283  1
  Zr  Zr44  1  0.00334426  0.39189297  0.50864286  1
  Zr  Zr45  1  0.59107087  0.40530712  0.74824747  1
  Zr  Zr46  1  0.67796157  0.10252449  0.11776323  1
  Zr  Zr47  1  0.40272181  0.00500149  0.25944441  1
  Zr  Zr48  1  0.89290293  0.48869655  0.87530712  1
  Zr  Zr49  1  0.91177812  0.10168357  0.36148815  1
  Zr  Zr50  1  0.82984552  0.00747421  0.01291854  1
  Zr  Zr51  1  0.30965473  0.48552597  0.37844820  1
  Zr  Zr52  1  0.20930842  0.19733489  0.25476107  1
  Zr  Zr53  1  0.30101086  0.48373448  0.61508146  1
  Zr  Zr54  1  0.20138154  0.59323221  0.24024137  1
  Zr  Zr55  1  -0.00034750  0.61112724  0.75012356  1
  Zr  Zr56  1  0.17414434  0.77706783  0.49789144  1
  Zr  Zr57  1  0.59708771  0.20469514  -0.01167402  1
  Zr  Zr58  1  0.70542801  0.48988226  0.36518519  1
  Zr  Zr59  1  0.68774552  0.50032055  0.87768181  1
  Zr  Zr60  1  0.79275837  0.59386456  0.00801690  1
  Zr  Zr61  1  0.20284017  0.59896607  -0.00590069  1
  Zr  Zr62  1  0.59455549  0.60911552  0.74447262  1
  Zr  Zr63  1  0.70241947  0.89988147  0.90088512  1
  Zr  Zr64  1  0.08707051  0.71984092  0.88409000  1
  Zr  Zr65  1  0.39295061  0.38203123  0.74064586  1
  Zr  Zr66  1  0.40635476  0.59111963  0.75547758  1
  Zr  Zr67  1  0.48712138  0.30920386  0.87902144  1
  Zr  Zr68  1  0.60295351  0.39044016  0.24049373  1
  Zr  Zr69  1  0.60439589  0.40995892  0.01416061  1
  Zr  Zr70  1  0.01237466  0.38522254  0.73594916  1
  Zr  Zr71  1  0.30545708  0.89357017  0.39388811  1
  Zr  Zr72  1  0.28269914  0.69324879  0.63086712  1
  Zr  Zr73  1  0.88353306  0.29821137  0.37437134  1
  Zr  Zr74  1  0.30534732  0.70838174  0.87967159  1
  Zr  Zr75  1  0.80811564  0.21155756  0.00676070  1
  Zr  Zr76  1  0.19971563  0.38660820  0.01396569  1
  Zr  Zr77  1  0.09526192  0.11904182  0.63515449  1
  Zr  Zr78  1  0.40297266  0.38720124  0.02275555  1
  Zr  Zr79  1  0.60881409  0.00763989  0.48649229  1
  Ta  Ta80  1  0.90345479  0.50624793  0.37868403  1
  Ta  Ta81  1  0.70799782  0.10654904  0.87425516  1
  Ta  Ta82  1  0.58283069  0.60062139  0.24598329  1
  Ta  Ta83  1  0.79077929  0.80593710  0.48672681  1
  Ta  Ta84  1  0.30235801  0.29393072  0.38934952  1
  Ta  Ta85  1  0.40639002  0.19319141  0.50181880  1
  Ta  Ta86  1  0.70412826  0.51040496  0.14073759  1
  Ta  Ta87  1  0.40663325  0.80397014  0.75437891  1
  Ta  Ta88  1  0.50661286  0.49515507  0.60691267  1
  Ta  Ta89  1  0.91772324  0.89949198  0.88305966  1
  Ta  Ta90  1  0.10490693  0.50990768  0.38581985  1
  Ta  Ta91  1  0.79576430  0.80790845  0.23862623  1
  Ta  Ta92  1  0.30478717  0.10042247  0.38852576  1
  Ta  Ta93  1  0.10164966  0.91115547  0.12529320  1
  Ta  Ta94  1  0.89398512  0.72289114  0.62147515  1
  Ta  Ta95  1  0.80591249  0.60621998  0.49740724  1
  Ta  Ta96  1  0.08806710  0.49088922  0.11420927  1
  Ta  Ta97  1  0.81063296  -0.00336366  0.49412048  1
  Ta  Ta98  1  0.69826523  0.29378952  0.63375369  1
  Ta  Ta99  1  0.41108503  0.59339344  -0.00486871  1
  Ta  Ta100  1  0.31371215  0.47796825  0.88234163  1
  Ta  Ta101  1  0.20806371  0.19688999  -0.00857266  1
  Ta  Ta102  1  0.89783242  0.08771595  0.63907208  1
  Ta  Ta103  1  0.90264772  0.27007903  0.62606520  1
  Ta  Ta104  1  0.69134554  0.89840018  0.10664468  1
  Ta  Ta105  1  0.69778140  0.50209750  0.61660386  1
  Ta  Ta106  1  0.00705274  0.62222912  0.49800854  1
  Ta  Ta107  1  0.50244289  0.90654966  0.60914207  1
  Ta  Ta108  1  0.19054273  0.80712733  0.75347335  1
  Ta  Ta109  1  0.59837031  0.20254414  0.75842744  1
  Ta  Ta110  1  0.09881775  0.28928001  0.87670123  1
  Ta  Ta111  1  0.60921598  0.59984584  0.49700792  1
  Ta  Ta112  1  -0.02291455  0.81346485  0.49663807  1
  Ta  Ta113  1  0.39884130  0.17474323  -0.00341084  1
  Ta  Ta114  1  -0.00833365  0.81516350  0.01293850  1
  Ta  Ta115  1  0.79728616  0.20649510  0.23643471  1
  Ta  Ta116  1  0.21000163  0.01064736  -0.00062120  1
  Ta  Ta117  1  0.20890585  -0.00378816  0.25087099  1
  Ta  Ta118  1  0.71257715  0.30201455  0.87001952  1
  Ta  Ta119  1  0.19723459  0.82549118  -0.00019756  1
  Ti  Ti120  1  0.40662710  0.19445493  0.74561871  1
  Ti  Ti121  1  0.18510870  0.20186702  0.50090286  1
  Ti  Ti122  1  0.30512683  0.26528326  0.12641066  1
  Ti  Ti123  1  0.89096871  0.71150225  0.88020301  1
  Ti  Ti124  1  0.50714201  0.10394253  0.62262186  1
  Ti  Ti125  1  -0.01522121  0.80836392  0.75050674  1
  Ti  Ti126  1  0.20312426  0.39661690  0.75477491  1
  Ti  Ti127  1  0.00101395  0.00214884  0.23967878  1
  Ti  Ti128  1  0.49911195  0.89983896  0.40079739  1
  Ti  Ti129  1  0.50301149  0.29960186  0.61419219  1
  Ti  Ti130  1  0.49785858  0.70264722  0.11983571  1
  Ti  Ti131  1  0.90639480  0.09990508  0.86225911  1
  Ti  Ti132  1  -0.01355152  0.38474798  0.00354347  1
  Ti  Ti133  1  0.29210668  0.29220147  0.60491821  1
  Ti  Ti134  1  0.80446811  0.79754702  0.01807154  1
  Ti  Ti135  1  -0.01064395  0.80959204  0.23549524  1
  Ti  Ti136  1  0.69169953  0.70289522  0.13126396  1
  Ti  Ti137  1  0.50841608  0.27411384  0.12899734  1
  Ti  Ti138  1  0.50386888  0.50422283  0.38314898  1
  Ti  Ti139  1  0.60033904  0.19430356  0.26400040  1
  Ti  Ti140  1  0.70064549  0.70083992  0.61301306  1
  Ti  Ti141  1  0.71785361  0.11241492  0.37480041  1
  Ti  Ti142  1  0.10283360  0.08837660  0.86994393  1
  Ti  Ti143  1  0.30881709  0.09975727  0.62013872  1
  Ti  Ti144  1  0.40869480  0.19427129  0.26050686  1
  Ti  Ti145  1  0.50482012  0.70614801  0.88517635  1
  Ti  Ti146  1  0.30587842  0.10282369  0.86834956  1
  Ti  Ti147  1  0.57055064  0.00857446  -0.01924988  1
  Ti  Ti148  1  0.30734707  0.51174065  0.12229132  1
  Ti  Ti149  1  0.88705865  0.69440263  0.13497372  1
  Ti  Ti150  1  0.59330577  0.60643048  0.01206778  1
  Ti  Ti151  1  0.40337384  0.81286842  -0.00636085  1
  Ti  Ti152  1  0.29575358  0.90560493  0.87025934  1
  Ti  Ti153  1  0.88860043  0.48588110  0.12906352  1
  Ti  Ti154  1  0.20299162  -0.00110049  0.74560714  1
  Ti  Ti155  1  0.10510184  0.10131669  0.36673149  1
  Ti  Ti156  1  0.91413101  0.29353456  0.13290692  1
  Ti  Ti157  1  0.90326112  0.29044174  0.86656991  1
  Ti  Ti158  1  0.71635737  0.31330218  0.12449231  1
  Ti  Ti159  1  0.00763187  -0.00499907  0.75234581  1
  Mo  Mo160  1  0.20270674  0.39207409  0.49566534  1
  Mo  Mo161  1  0.49527387  0.51085488  0.88305521  1
  Mo  Mo162  1  0.89635802  0.90507069  0.62540784  1
  Mo  Mo163  1  0.80995050  0.18481518  0.50619880  1
  Mo  Mo164  1  0.80945251  0.40249096  0.24513521  1
  Mo  Mo165  1  0.40546443  0.60017445  0.24423721  1
  Mo  Mo166  1  0.29259932  0.90412828  0.12191240  1
  Mo  Mo167  1  0.89099724  0.90346506  0.36332104  1
  Mo  Mo168  1  0.79859705  0.60266692  0.24287345  1
  Mo  Mo169  1  -0.00688526  0.19344302  0.50403145  1
  Mo  Mo170  1  0.48814808  0.10764763  0.12575725  1
  Mo  Mo171  1  0.38579008  -0.00315132  -0.01433651  1
  Mo  Mo172  1  0.39587965  0.80053451  0.50336143  1
  Mo  Mo173  1  0.40291554  0.00808596  0.51007473  1
  Mo  Mo174  1  0.70612944  0.29326970  0.36627449  1
  Mo  Mo175  1  0.80488539  0.39498580  0.00434812  1
  Mo  Mo176  1  0.10524565  0.90908461  0.87029201  1
  Mo  Mo177  1  0.71199080  0.90129266  0.37366247  1
  Mo  Mo178  1  0.91006105  0.10376639  0.13786926  1
  Mo  Mo179  1  0.60394397  0.40351597  0.50293486  1
  Mo  Mo180  1  0.48945152  0.89016175  0.87836872  1
  Mo  Mo181  1  0.80464743  0.79543895  0.75696236  1
  Mo  Mo182  1  0.60487406  0.79931665  0.49509407  1
  Mo  Mo183  1  0.08329212  0.70293447  0.63522951  1
  Mo  Mo184  1  0.90258008  0.89741421  0.12654814  1
  Mo  Mo185  1  0.09844407  0.30007105  0.11886044  1
  Mo  Mo186  1  0.49735784  0.10080123  0.86537215  1
  Mo  Mo187  1  0.31212920  0.08967341  0.12599285  1
  Mo  Mo188  1  0.49830398  0.51481876  0.12942010  1
  Mo  Mo189  1  0.40838972  0.38783630  0.50426396  1
  Mo  Mo190  1  0.08569909  0.69655354  0.36724371  1
  Mo  Mo191  1  0.59349675  0.79738057  0.01230697  1
  Mo  Mo192  1  -0.00016526  0.19220153  0.76265259  1
  Mo  Mo193  1  0.29319768  0.29236832  0.87810293  1
  Mo  Mo194  1  0.02081338  -0.00432392  -0.00025476  1
  Mo  Mo195  1  0.19232126  0.59456052  0.49581775  1
  Mo  Mo196  1  0.11006531  0.30376174  0.62540667  1
  Mo  Mo197  1  0.49709174  0.10977050  0.38263933  1
  Mo  Mo198  1  0.00074886  0.19605245  0.24211167  1
  Mo  Mo199  1  0.79864640  0.19384139  0.75718459  1
