# generated using pymatgen
data_HfZrTaTiMo
_symmetry_space_group_name_H-M   'P 1'
_cell_length_a   15.18937563
_cell_length_b   15.17816777
_cell_length_c   16.79636189
_cell_angle_alpha   90.02350960
_cell_angle_beta   90.03084362
_cell_angle_gamma   89.88400403
_symmetry_Int_Tables_number   1
_chemical_formula_structural   HfZrTaTiMo
_chemical_formula_sum   'Hf40 Zr40 Ta40 Ti40 Mo40'
_cell_volume   3872.34020422
_cell_formula_units_Z   40
loop_
 _symmetry_equiv_pos_site_id
 _symmetry_equiv_pos_as_xyz
  1  'x, y, z'
loop_
 _atom_site_type_symbol
 _atom_site_label
 _atom_site_symmetry_multiplicity
 _atom_site_fract_x
 _atom_site_fract_y
 _atom_site_fract_z
 _atom_site_occupancy
  Hf  Hf0  1  0.70415090  0.28675852  0.87417567  1
  Hf  Hf1  1  0.08075518  0.10094285  0.12409091  1
  Hf  Hf2  1  0.89868583  0.70177025  0.11543305  1
  Hf  Hf3  1  0.19597039  0.59753239  0.25705082  1
  Hf  Hf4  1  0.69506493  0.90139007  0.37435971  1
  Hf  Hf5  1  0.09352713  0.50609565  0.11018651  1
  Hf  Hf6  1  0.70891725  0.90451825  0.60810041  1
  Hf  Hf7  1  0.30613208  0.89856804  0.38051346  1
  Hf  Hf8  1  0.90218234  0.28795425  0.13311454  1
  Hf  Hf9  1  0.60905351  0.39989171  0.00413170  1
  Hf  Hf10  1  0.39419842  0.19443665  0.00727658  1
  Hf  Hf11  1  0.50187782  0.29486590  0.12594046  1
  Hf  Hf12  1  0.90093559  0.50592436  0.63002661  1
  Hf  Hf13  1  0.40725039  0.78723169  0.25271073  1
  Hf  Hf14  1  0.70462635  0.30306548  0.13594404  1
  Hf  Hf15  1  0.41800991  0.58470392  0.26023761  1
  Hf  Hf16  1  0.19745176  0.38985133  -0.01078275  1
  Hf  Hf17  1  0.91107809  0.49553027  0.86693366  1
  Hf  Hf18  1  0.09633738  0.10849105  0.62718355  1
  Hf  Hf19  1  0.69734291  0.89628832  0.12817162  1
  Hf  Hf20  1  0.50196960  0.70142667  0.62378878  1
  Hf  Hf21  1  0.39216441  0.17086563  0.51000876  1
  Hf  Hf22  1  0.40405687  0.00142570  0.74170103  1
  Hf  Hf23  1  0.41120580  0.80068119  0.74906896  1
  Hf  Hf24  1  0.20706805  0.79833545  -0.00726350  1
  Hf  Hf25  1  0.90722094  0.71251962  0.64478404  1
  Hf  Hf26  1  0.90066936  0.30438508  0.61104766  1
  Hf  Hf27  1  0.48608365  0.30201313  0.37694579  1
  Hf  Hf28  1  -0.01075635  0.21597068  -0.01431103  1
  Hf  Hf29  1  0.58659219  0.41321498  0.24883767  1
  Hf  Hf30  1  0.59227233  0.00978065  0.50066012  1
  Hf  Hf31  1  0.48908752  0.29508208  0.62201468  1
  Hf  Hf32  1  -0.01078321  0.20723301  0.75303902  1
  Hf  Hf33  1  0.00041148  0.01065982  -0.01806892  1
  Hf  Hf34  1  0.38332776  0.20246527  0.23730564  1
  Hf  Hf35  1  0.60876673  0.60833210  -0.00435767  1
  Hf  Hf36  1  0.78728363  0.00268560  0.74888990  1
  Hf  Hf37  1  0.51178692  0.48409480  0.62738229  1
  Hf  Hf38  1  0.39853758  -0.00596256  0.01354138  1
  Hf  Hf39  1  0.90135695  0.49731671  0.12049916  1
  Zr  Zr40  1  0.29475659  0.08624399  0.87550787  1
  Zr  Zr41  1  0.19303757  0.78648523  0.50335467  1
  Zr  Zr42  1  0.61068071  0.59000278  0.50256588  1
  Zr  Zr43  1  0.19687568  0.38375590  0.25251718  1
  Zr  Zr44  1  0.90036978  0.91175783  0.11593001  1
  Zr  Zr45  1  0.00648458  0.62644433  0.50397951  1
  Zr  Zr46  1  0.40398969  0.59444929  0.49547731  1
  Zr  Zr47  1  0.30849185  0.69354543  0.12424527  1
  Zr  Zr48  1  0.29857918  0.49020194  0.11983246  1
  Zr  Zr49  1  0.59943210  0.18903516  0.74182191  1
  Zr  Zr50  1  0.89651534  0.89661803  0.38363362  1
  Zr  Zr51  1  0.19287606  0.22134917  0.48833764  1
  Zr  Zr52  1  0.50796451  0.70249480  0.87162205  1
  Zr  Zr53  1  0.40042904  0.39472409  -0.00655174  1
  Zr  Zr54  1  0.91159789  0.69880119  0.87117690  1
  Zr  Zr55  1  0.50001612  0.09270237  0.35692630  1
  Zr  Zr56  1  0.62504388  0.80898628  0.75466556  1
  Zr  Zr57  1  0.29812129  0.69005133  0.86549071  1
  Zr  Zr58  1  0.20097240  0.01116833  0.50178754  1
  Zr  Zr59  1  0.10299693  0.29899459  0.12254661  1
  Zr  Zr60  1  0.69009832  0.50451970  0.36680497  1
  Zr  Zr61  1  0.38988104  -0.01008262  0.23612756  1
  Zr  Zr62  1  0.39503573  0.19216474  0.74937266  1
  Zr  Zr63  1  0.10477502  0.51861070  0.87490962  1
  Zr  Zr64  1  0.70658915  0.10287717  0.14325675  1
  Zr  Zr65  1  0.87036551  0.11241917  0.87733246  1
  Zr  Zr66  1  0.60744982  0.58950608  0.74863775  1
  Zr  Zr67  1  0.00919615  0.81045198  -0.01680415  1
  Zr  Zr68  1  -0.00789039  0.00129140  0.25632705  1
  Zr  Zr69  1  0.30216791  0.89787781  0.62050177  1
  Zr  Zr70  1  0.00608339  0.20357855  0.27741261  1
  Zr  Zr71  1  0.71367231  0.70042117  0.61948498  1
  Zr  Zr72  1  0.09906693  0.70090476  0.12008858  1
  Zr  Zr73  1  0.29754653  0.47596338  0.38129467  1
  Zr  Zr74  1  0.90577643  0.90569241  0.62164892  1
  Zr  Zr75  1  0.81299051  0.60857129  0.26092606  1
  Zr  Zr76  1  0.20046635  0.58914029  0.50866722  1
  Zr  Zr77  1  0.09559648  0.88779546  0.37624924  1
  Zr  Zr78  1  0.89912889  0.31841647  0.39535455  1
  Zr  Zr79  1  0.68984403  0.31710907  0.61551829  1
  Ta  Ta80  1  0.50461188  0.29253023  0.87750258  1
  Ta  Ta81  1  0.19245077  0.00387693  0.25226081  1
  Ta  Ta82  1  0.40371517  0.39482800  0.76018933  1
  Ta  Ta83  1  0.50448294  0.89043629  0.12816582  1
  Ta  Ta84  1  0.78931172  0.79793483  -0.01081333  1
  Ta  Ta85  1  0.68836958  0.29878010  0.37369119  1
  Ta  Ta86  1  0.80717367  0.20065266  0.27069439  1
  Ta  Ta87  1  0.70263550  0.51659135  0.13189061  1
  Ta  Ta88  1  0.09839483  0.31378125  0.63493165  1
  Ta  Ta89  1  0.18986276  0.19049533  -0.01337997  1
  Ta  Ta90  1  0.29654496  0.09803138  0.36928798  1
  Ta  Ta91  1  0.40220627  0.59945871  -0.00448756  1
  Ta  Ta92  1  0.10615896  0.70855603  0.65361470  1
  Ta  Ta93  1  0.79696232  0.60735396  0.76017987  1
  Ta  Ta94  1  -0.00096875  0.01151319  0.76018085  1
  Ta  Ta95  1  0.30356549  0.48517581  0.63404514  1
  Ta  Ta96  1  0.80112934  0.59748162  -0.00767864  1
  Ta  Ta97  1  0.81392105  0.60172045  0.48635756  1
  Ta  Ta98  1  0.08857309  0.50355568  0.37870065  1
  Ta  Ta99  1  0.60813556  0.18239065  0.00073381  1
  Ta  Ta100  1  0.59641472  0.20128321  0.50026463  1
  Ta  Ta101  1  0.79306035  0.20037352  0.73226461  1
  Ta  Ta102  1  0.19263382  -0.00527933  0.00221638  1
  Ta  Ta103  1  0.89146983  0.10041749  0.61363877  1
  Ta  Ta104  1  0.30619811  0.89476294  0.87214828  1
  Ta  Ta105  1  0.69637131  0.10057298  0.36419519  1
  Ta  Ta106  1  0.09870002  0.90292060  0.63757530  1
  Ta  Ta107  1  0.19836062  0.80316355  0.25080656  1
  Ta  Ta108  1  0.30004039  0.69049646  0.63919729  1
  Ta  Ta109  1  0.41039303  0.79765627  0.00113398  1
  Ta  Ta110  1  0.80301244  0.40165562  0.25845742  1
  Ta  Ta111  1  0.28631722  0.29463085  0.63649989  1
  Ta  Ta112  1  0.51353362  0.09069842  0.13654334  1
  Ta  Ta113  1  0.80918485  0.39414582  -0.00016259  1
  Ta  Ta114  1  0.50499003  0.49243182  0.87296120  1
  Ta  Ta115  1  0.70682223  0.49309925  0.87501414  1
  Ta  Ta116  1  -0.00466914  0.41534543  0.25958387  1
  Ta  Ta117  1  0.79005994  0.19261009  0.49353903  1
  Ta  Ta118  1  0.50282776  0.91037171  0.88141177  1
  Ta  Ta119  1  0.78997316  0.40388186  0.74400446  1
  Ti  Ti120  1  0.81249310  0.80263527  0.25082202  1
  Ti  Ti121  1  0.29096209  0.89277672  0.12481793  1
  Ti  Ti122  1  0.81884790  0.79056124  0.49509739  1
  Ti  Ti123  1  0.11061374  0.70515200  0.85230695  1
  Ti  Ti124  1  0.59976928  0.79536907  0.49437185  1
  Ti  Ti125  1  0.51816888  0.69592492  0.12503470  1
  Ti  Ti126  1  0.08946458  0.31176790  0.86493317  1
  Ti  Ti127  1  -0.00147806  0.00456973  0.49527043  1
  Ti  Ti128  1  0.39029666  0.39264239  0.24486086  1
  Ti  Ti129  1  0.40297529  0.58853930  0.74912539  1
  Ti  Ti130  1  0.71072939  0.70861430  0.37742095  1
  Ti  Ti131  1  0.50884639  0.09415971  0.88197696  1
  Ti  Ti132  1  0.88706775  0.90650432  0.87484646  1
  Ti  Ti133  1  0.00187825  0.19787778  0.48865822  1
  Ti  Ti134  1  0.10361231  0.50613484  0.64406361  1
  Ti  Ti135  1  0.09820965  0.89804960  0.12982111  1
  Ti  Ti136  1  0.40484851  0.79440265  0.49592667  1
  Ti  Ti137  1  0.18998855  0.19275913  0.75947240  1
  Ti  Ti138  1  0.19385827  0.19570208  0.26529209  1
  Ti  Ti139  1  0.27840246  0.10213298  0.12334178  1
  Ti  Ti140  1  0.29659103  0.69835494  0.37413731  1
  Ti  Ti141  1  0.50180415  0.50655208  0.11801609  1
  Ti  Ti142  1  -0.00004708  0.81791714  0.76407588  1
  Ti  Ti143  1  0.51613623  0.69107682  0.37453024  1
  Ti  Ti144  1  0.61067008  0.78738198  0.24920269  1
  Ti  Ti145  1  0.30281314  0.49948912  0.87259703  1
  Ti  Ti146  1  0.69404879  0.91386445  0.88513022  1
  Ti  Ti147  1  0.11886918  0.91614857  0.85694025  1
  Ti  Ti148  1  0.20114998  0.40040198  0.75774378  1
  Ti  Ti149  1  0.50194232  0.89960948  0.61222984  1
  Ti  Ti150  1  0.78178341  0.01690496  0.00183668  1
  Ti  Ti151  1  0.60362653  0.80450359  -0.00085003  1
  Ti  Ti152  1  0.50188325  0.89292959  0.37335407  1
  Ti  Ti153  1  0.89162111  0.31239986  0.86469124  1
  Ti  Ti154  1  0.01731804  0.41194531  0.50368062  1
  Ti  Ti155  1  0.38490214  0.38485967  0.50441270  1
  Ti  Ti156  1  0.80344626  0.00353078  0.25478623  1
  Ti  Ti157  1  0.29788630  0.29444970  0.86809035  1
  Ti  Ti158  1  0.59524642  0.00166604  0.73798240  1
  Ti  Ti159  1  0.78285131  0.41485851  0.49778217  1
  Mo  Mo160  1  0.21091473  0.59266125  0.74163771  1
  Mo  Mo161  1  0.59842539  0.39417971  0.76203113  1
  Mo  Mo162  1  0.59941691  -0.01384926  0.25232258  1
  Mo  Mo163  1  0.49985101  0.08889962  0.61967976  1
  Mo  Mo164  1  0.89121068  0.10500229  0.12200385  1
  Mo  Mo165  1  0.19808036  0.00453375  0.74164558  1
  Mo  Mo166  1  0.30153443  0.28969876  0.37721148  1
  Mo  Mo167  1  0.40028510  -0.01274746  0.49732529  1
  Mo  Mo168  1  0.79119460  0.20648154  0.00449806  1
  Mo  Mo169  1  0.10314790  0.69887070  0.36576355  1
  Mo  Mo170  1  -0.00049727  0.39919313  0.74256436  1
  Mo  Mo171  1  0.59982341  0.20276638  0.25451244  1
  Mo  Mo172  1  0.19611628  0.40582813  0.51547038  1
  Mo  Mo173  1  0.79825486  0.00718891  0.49378461  1
  Mo  Mo174  1  0.10109736  0.31556387  0.38037187  1
  Mo  Mo175  1  0.90139022  0.50334756  0.38513785  1
  Mo  Mo176  1  0.59432229  -0.00542249  0.00637302  1
  Mo  Mo177  1  0.00413438  0.60346179  0.74397703  1
  Mo  Mo178  1  0.10025646  0.09664444  0.37898694  1
  Mo  Mo179  1  0.70160210  0.10378597  0.61621789  1
  Mo  Mo180  1  0.68307012  0.09225061  0.87418818  1
  Mo  Mo181  1  0.71191476  0.50131157  0.62483138  1
  Mo  Mo182  1  0.00174115  0.60509347  0.25740809  1
  Mo  Mo183  1  0.91768544  0.70754741  0.37123021  1
  Mo  Mo184  1  0.89347956  0.09908978  0.39211863  1
  Mo  Mo185  1  0.20572324  0.80804375  0.75200558  1
  Mo  Mo186  1  0.58947328  0.39613521  0.48972685  1
  Mo  Mo187  1  -0.00260324  0.60035101  -0.00360069  1
  Mo  Mo188  1  -0.00058768  0.78778753  0.24654272  1
  Mo  Mo189  1  0.20894440  0.60035940  -0.00607869  1
  Mo  Mo190  1  0.49630207  0.49544618  0.38054344  1
  Mo  Mo191  1  0.70565708  0.70365929  0.12220844  1
  Mo  Mo192  1  0.60209655  0.61201141  0.24413586  1
  Mo  Mo193  1  0.80291183  0.81130583  0.76788975  1
  Mo  Mo194  1  0.70921904  0.70242004  0.87783349  1
  Mo  Mo195  1  -0.00720446  0.40052841  -0.00608125  1
  Mo  Mo196  1  0.00904642  0.80662555  0.51258680  1
  Mo  Mo197  1  0.28933094  0.10368961  0.63363404  1
  Mo  Mo198  1  0.09638708  0.10625865  0.86804290  1
  Mo  Mo199  1  0.29088051  0.28511562  0.11583579  1
