# generated using pymatgen
data_HfZrTaTiMo
_symmetry_space_group_name_H-M   'P 1'
_cell_length_a   15.22171078
_cell_length_b   15.22214897
_cell_length_c   16.84567346
_cell_angle_alpha   90.05821577
_cell_angle_beta   89.94328048
_cell_angle_gamma   90.08100716
_symmetry_Int_Tables_number   1
_chemical_formula_structural   HfZrTaTiMo
_chemical_formula_sum   'Hf40 Zr40 Ta40 Ti40 Mo40'
_cell_volume   3903.25514764
_cell_formula_units_Z   40
loop_
 _symmetry_equiv_pos_site_id
 _symmetry_equiv_pos_as_xyz
  1  'x, y, z'
loop_
 _atom_site_type_symbol
 _atom_site_label
 _atom_site_symmetry_multiplicity
 _atom_site_fract_x
 _atom_site_fract_y
 _atom_site_fract_z
 _atom_site_occupancy
  Hf  Hf0  1  0.08552054  0.10943928  0.62730442  1
  Hf  Hf1  1  0.01682399  0.81743569  -0.00670374  1
  Hf  Hf2  1  0.50498976  0.09575400  0.12931694  1
  Hf  Hf3  1  0.20000719  0.78710608  0.26101510  1
  Hf  Hf4  1  0.80195375  0.78673717  0.49607732  1
  Hf  Hf5  1  0.59267783  0.38505146  0.49639209  1
  Hf  Hf6  1  0.78682633  0.80547003  0.26125823  1
  Hf  Hf7  1  0.81897180  0.80280374  0.73950910  1
  Hf  Hf8  1  0.60107930  0.37237467  0.27835970  1
  Hf  Hf9  1  0.70242148  0.29114047  0.12488836  1
  Hf  Hf10  1  0.89835884  0.29926845  0.12411119  1
  Hf  Hf11  1  0.61703006  -0.00911183  0.26043332  1
  Hf  Hf12  1  0.00174393  0.20200184  0.48966346  1
  Hf  Hf13  1  0.20546964  0.61263957  0.75083276  1
  Hf  Hf14  1  0.30532100  0.69857980  0.38497901  1
  Hf  Hf15  1  0.30258049  0.52071545  0.11870587  1
  Hf  Hf16  1  0.49630739  0.69031875  0.12343426  1
  Hf  Hf17  1  0.09370630  0.90378487  0.61262649  1
  Hf  Hf18  1  0.71293123  0.89643175  0.88188727  1
  Hf  Hf19  1  -0.00264040  0.02070231  0.00306302  1
  Hf  Hf20  1  0.57631168  0.79669615  0.49378534  1
  Hf  Hf21  1  0.41082231  0.41481480  0.24341677  1
  Hf  Hf22  1  0.50869466  0.30611719  0.12255353  1
  Hf  Hf23  1  0.71348353  0.08715079  0.12429464  1
  Hf  Hf24  1  0.69961185  0.88639081  0.11159452  1
  Hf  Hf25  1  0.30768798  0.09949754  0.36953684  1
  Hf  Hf26  1  0.50120584  0.90223503  0.87678821  1
  Hf  Hf27  1  0.51334906  0.50054353  0.63751185  1
  Hf  Hf28  1  0.41424552  0.00618903  0.74699054  1
  Hf  Hf29  1  0.09771582  0.10378078  0.14558790  1
  Hf  Hf30  1  0.09644272  0.90202849  0.14196750  1
  Hf  Hf31  1  0.09547031  0.50077959  0.63811478  1
  Hf  Hf32  1  0.79872691  0.40271644  0.26120598  1
  Hf  Hf33  1  0.50519993  0.30644529  0.85490260  1
  Hf  Hf34  1  0.19017765  0.41017325  -0.00441369  1
  Hf  Hf35  1  0.69384320  0.69233696  0.61449104  1
  Hf  Hf36  1  0.30444519  0.50419651  0.37763439  1
  Hf  Hf37  1  0.78788225  0.19072219  0.50171309  1
  Hf  Hf38  1  0.37894570  0.21068517  0.74196869  1
  Hf  Hf39  1  -0.00616854  0.41088524  0.25766838  1
  Zr  Zr40  1  0.59488554  -0.00146485  -0.00081486  1
  Zr  Zr41  1  0.69925064  0.09025472  0.85684758  1
  Zr  Zr42  1  0.89803835  0.50742434  0.87424867  1
  Zr  Zr43  1  0.20153780  0.39736625  0.50998520  1
  Zr  Zr44  1  0.80346893  0.39550455  0.73453220  1
  Zr  Zr45  1  0.89971103  0.71005288  0.11826476  1
  Zr  Zr46  1  0.77890949  0.19161860  0.27176630  1
  Zr  Zr47  1  0.29103684  0.29478446  0.88710646  1
  Zr  Zr48  1  -0.01950436  -0.00134423  0.75081622  1
  Zr  Zr49  1  0.41120040  0.40926688  -0.00352393  1
  Zr  Zr50  1  0.29971120  0.09552141  0.88376071  1
  Zr  Zr51  1  0.59927915  0.20340020  -0.01206364  1
  Zr  Zr52  1  0.41627118  0.61470193  0.51892149  1
  Zr  Zr53  1  0.19778253  0.01132373  0.49190754  1
  Zr  Zr54  1  0.10454514  0.30799759  0.36628805  1
  Zr  Zr55  1  0.19208802  -0.00430509  0.75257778  1
  Zr  Zr56  1  0.80862100  0.19500486  -0.00727413  1
  Zr  Zr57  1  0.70087076  0.48432769  0.87036807  1
  Zr  Zr58  1  0.27692275  0.88579728  0.88247273  1
  Zr  Zr59  1  0.30117362  0.29620244  0.12014370  1
  Zr  Zr60  1  0.11272166  0.69603982  0.12269818  1
  Zr  Zr61  1  0.19712234  0.59719614  0.51586703  1
  Zr  Zr62  1  0.40123765  0.20563194  0.50624419  1
  Zr  Zr63  1  -0.00014627  0.39644545  0.75394452  1
  Zr  Zr64  1  0.09610556  0.30448461  0.13019695  1
  Zr  Zr65  1  0.70485068  0.69404865  0.87794762  1
  Zr  Zr66  1  0.09484930  0.90901454  0.37164406  1
  Zr  Zr67  1  0.39033116  0.79901733  0.75170161  1
  Zr  Zr68  1  0.60034218  0.80236527  0.74464060  1
  Zr  Zr69  1  0.01410555  0.60403756  -0.01165443  1
  Zr  Zr70  1  0.07616964  0.70797564  0.62717780  1
  Zr  Zr71  1  0.59448610  0.58045447  0.25394243  1
  Zr  Zr72  1  0.68869013  0.68395353  0.38258185  1
  Zr  Zr73  1  0.29240747  0.10568394  0.62182414  1
  Zr  Zr74  1  0.00318871  0.60758884  0.25923252  1
  Zr  Zr75  1  0.81155292  0.18741432  0.73309336  1
  Zr  Zr76  1  0.30882183  0.30551639  0.36722240  1
  Zr  Zr77  1  0.69268924  0.48756936  0.12033535  1
  Zr  Zr78  1  0.69873398  0.69174210  0.12505163  1
  Zr  Zr79  1  0.30519145  0.90179020  0.61162607  1
  Ta  Ta80  1  0.59361287  0.18774109  0.51556588  1
  Ta  Ta81  1  0.79998105  0.59407369  0.00079522  1
  Ta  Ta82  1  0.58235180  0.79740216  0.26429952  1
  Ta  Ta83  1  -0.01438129  0.80615374  0.26268283  1
  Ta  Ta84  1  0.09893189  0.10314034  0.35713620  1
  Ta  Ta85  1  0.71128214  0.48901730  0.39662340  1
  Ta  Ta86  1  0.20150152  0.41996990  0.24346422  1
  Ta  Ta87  1  0.40001475  0.40549879  0.50925238  1
  Ta  Ta88  1  0.51006292  0.10402137  0.37406378  1
  Ta  Ta89  1  0.40835299  0.60547173  -0.01942366  1
  Ta  Ta90  1  0.39665937  0.79291625  -0.00690316  1
  Ta  Ta91  1  0.58912250  0.18511927  0.72850441  1
  Ta  Ta92  1  0.41578681  0.20176977  0.25041066  1
  Ta  Ta93  1  0.88853925  0.07575413  0.60484348  1
  Ta  Ta94  1  -0.00220941  0.41305506  0.49770147  1
  Ta  Ta95  1  0.70360888  0.49796866  0.61232134  1
  Ta  Ta96  1  0.88927187  0.30654159  0.38560075  1
  Ta  Ta97  1  0.31470977  0.89879681  0.38594633  1
  Ta  Ta98  1  0.40874295  0.61079786  0.74826696  1
  Ta  Ta99  1  0.69187710  0.29747957  0.62589906  1
  Ta  Ta100  1  0.39909217  0.80517967  0.25216385  1
  Ta  Ta101  1  0.89901149  0.08762056  0.38140554  1
  Ta  Ta102  1  0.19104547  -0.00726100  0.00930419  1
  Ta  Ta103  1  0.80445727  0.60415882  0.74101222  1
  Ta  Ta104  1  0.41073010  -0.00772253  0.25059845  1
  Ta  Ta105  1  0.19248690  0.79588025  0.49106145  1
  Ta  Ta106  1  -0.01404407  0.61554927  0.48427377  1
  Ta  Ta107  1  0.89161992  0.91198508  0.12344756  1
  Ta  Ta108  1  0.30216534  0.09162994  0.13059665  1
  Ta  Ta109  1  0.20609277  0.38346446  0.75335285  1
  Ta  Ta110  1  0.10554417  0.51333847  0.37685369  1
  Ta  Ta111  1  0.10889214  0.50117148  0.86396600  1
  Ta  Ta112  1  0.19715839  0.20512498  0.49382650  1
  Ta  Ta113  1  0.89187263  0.90130983  0.38622033  1
  Ta  Ta114  1  0.89965930  0.10033637  0.87322445  1
  Ta  Ta115  1  0.50483175  0.50297407  0.85434946  1
  Ta  Ta116  1  0.89845868  0.49974963  0.11610216  1
  Ta  Ta117  1  -0.01455603  0.20409183  0.26519256  1
  Ta  Ta118  1  -0.00707101  0.40155367  -0.00836323  1
  Ta  Ta119  1  0.90342803  0.51788916  0.61986799  1
  Ti  Ti120  1  0.01285621  0.81032726  0.76614973  1
  Ti  Ti121  1  0.30654060  0.50060066  0.86233775  1
  Ti  Ti122  1  -0.00594558  0.61655249  0.76167204  1
  Ti  Ti123  1  0.30325982  0.70877823  0.12203063  1
  Ti  Ti124  1  0.90102315  0.10044104  0.14028694  1
  Ti  Ti125  1  0.20864223  0.20548895  0.24802817  1
  Ti  Ti126  1  0.21541612  0.61569111  -0.01954052  1
  Ti  Ti127  1  0.91195164  0.29483469  0.61703152  1
  Ti  Ti128  1  0.89503593  0.30101661  0.87677051  1
  Ti  Ti129  1  0.40307944  0.19159282  0.00326681  1
  Ti  Ti130  1  0.71009751  0.91349473  0.62166918  1
  Ti  Ti131  1  0.10567856  0.29841953  0.62618894  1
  Ti  Ti132  1  0.09581375  0.50522043  0.12401999  1
  Ti  Ti133  1  0.29645544  0.71031294  0.62267831  1
  Ti  Ti134  1  0.30101555  0.89636032  0.12357010  1
  Ti  Ti135  1  0.50579206  0.90739229  0.61951008  1
  Ti  Ti136  1  0.30740796  0.49173122  0.64170313  1
  Ti  Ti137  1  0.89776372  0.90839333  0.88595492  1
  Ti  Ti138  1  0.00759578  0.20688228  0.76081794  1
  Ti  Ti139  1  0.39282319  -0.00499192  0.00577775  1
  Ti  Ti140  1  0.49929118  0.10522232  0.87064767  1
  Ti  Ti141  1  0.00894167  0.21134470  -0.00946242  1
  Ti  Ti142  1  0.50305257  0.51106821  0.38833393  1
  Ti  Ti143  1  0.89685223  0.71323474  0.88543488  1
  Ti  Ti144  1  0.59280719  0.58967757  -0.00747341  1
  Ti  Ti145  1  0.80660436  0.39539612  0.50986979  1
  Ti  Ti146  1  0.39665805  0.61046219  0.25268272  1
  Ti  Ti147  1  0.12073173  0.72296400  0.87154518  1
  Ti  Ti148  1  0.60683316  0.00069554  0.49450334  1
  Ti  Ti149  1  0.60742344  0.39908542  -0.00871681  1
  Ti  Ti150  1  0.21416551  -0.00566301  0.25334287  1
  Ti  Ti151  1  0.59281852  0.78407292  -0.00704853  1
  Ti  Ti152  1  0.60791494  0.60317998  0.75054434  1
  Ti  Ti153  1  0.10249421  0.10666897  0.87415844  1
  Ti  Ti154  1  0.80811164  0.59522211  0.25673013  1
  Ti  Ti155  1  0.19436258  0.18876373  0.00943545  1
  Ti  Ti156  1  0.70173679  0.29225040  0.85638066  1
  Ti  Ti157  1  0.49492634  0.88930304  0.12057716  1
  Ti  Ti158  1  0.90654265  0.88932749  0.60304703  1
  Ti  Ti159  1  0.49024247  0.30599949  0.63730277  1
  Mo  Mo160  1  0.48758550  0.69832711  0.36820064  1
  Mo  Mo161  1  0.79061026  -0.01011106  0.49610234  1
  Mo  Mo162  1  0.42093914  0.00034944  0.49347448  1
  Mo  Mo163  1  0.69878735  0.08898151  0.38367721  1
  Mo  Mo164  1  0.80405042  0.58950267  0.50306652  1
  Mo  Mo165  1  0.60045537  0.59109576  0.49912382  1
  Mo  Mo166  1  0.39496559  0.40926170  0.75034991  1
  Mo  Mo167  1  0.80983934  -0.00134698  0.00010629  1
  Mo  Mo168  1  0.60474314  -0.00409043  0.74129314  1
  Mo  Mo169  1  0.69396329  0.90004426  0.38144438  1
  Mo  Mo170  1  0.80882734  0.79485090  -0.00132183  1
  Mo  Mo171  1  0.49822883  0.09157038  0.61889467  1
  Mo  Mo172  1  0.18863594  0.80063214  0.74457876  1
  Mo  Mo173  1  -0.01279302  0.00174934  0.25083159  1
  Mo  Mo174  1  0.50511960  0.69662049  0.87609291  1
  Mo  Mo175  1  0.09377340  0.29901353  0.88137989  1
  Mo  Mo176  1  0.89767628  0.49935169  0.38524835  1
  Mo  Mo177  1  0.90109455  0.70185970  0.62678352  1
  Mo  Mo178  1  0.18355020  0.20385198  0.75282378  1
  Mo  Mo179  1  0.80287612  -0.01148825  0.74226616  1
  Mo  Mo180  1  0.49435818  0.90545675  0.37864708  1
  Mo  Mo181  1  0.39537968  0.80678476  0.50726521  1
  Mo  Mo182  1  0.30400124  0.69372002  0.87259435  1
  Mo  Mo183  1  0.89443678  0.69938349  0.36658835  1
  Mo  Mo184  1  0.09964839  0.70218060  0.37941351  1
  Mo  Mo185  1  -0.00489682  0.00358557  0.49625436  1
  Mo  Mo186  1  0.20630420  0.59558288  0.25086621  1
  Mo  Mo187  1  0.49832936  0.50281726  0.11449631  1
  Mo  Mo188  1  0.60475805  0.39321899  0.73978837  1
  Mo  Mo189  1  -0.00015733  0.79973547  0.48227942  1
  Mo  Mo190  1  0.69372463  0.08624568  0.62976222  1
  Mo  Mo191  1  0.69620691  0.28918676  0.39767031  1
  Mo  Mo192  1  0.09162336  0.91327875  0.88031052  1
  Mo  Mo193  1  0.49932347  0.70612023  0.63358348  1
  Mo  Mo194  1  0.59377395  0.18936613  0.25610201  1
  Mo  Mo195  1  0.20678811  0.80228219  0.00826249  1
  Mo  Mo196  1  0.29345523  0.30738585  0.62404463  1
  Mo  Mo197  1  0.80237986  0.39728592  -0.00324995  1
  Mo  Mo198  1  0.81167364  -0.01049514  0.25502973  1
  Mo  Mo199  1  0.49302573  0.29488984  0.38249233  1
