# generated using pymatgen
data_HfZrTaTiMo
_symmetry_space_group_name_H-M   'P 1'
_cell_length_a   15.21143688
_cell_length_b   15.20940788
_cell_length_c   16.86147439
_cell_angle_alpha   90.02387353
_cell_angle_beta   90.05618492
_cell_angle_gamma   89.97507473
_symmetry_Int_Tables_number   1
_chemical_formula_structural   HfZrTaTiMo
_chemical_formula_sum   'Hf40 Zr40 Ta40 Ti40 Mo40'
_cell_volume   3901.01666805
_cell_formula_units_Z   40
loop_
 _symmetry_equiv_pos_site_id
 _symmetry_equiv_pos_as_xyz
  1  'x, y, z'
loop_
 _atom_site_type_symbol
 _atom_site_label
 _atom_site_symmetry_multiplicity
 _atom_site_fract_x
 _atom_site_fract_y
 _atom_site_fract_z
 _atom_site_occupancy
  Hf  Hf0  1  0.30106068  0.28033812  0.62987867  1
  Hf  Hf1  1  0.71023627  0.10286190  0.86528842  1
  Hf  Hf2  1  0.88662712  0.49114890  0.88940883  1
  Hf  Hf3  1  0.50263776  0.50577680  0.87815369  1
  Hf  Hf4  1  0.29805326  0.49497476  0.13488049  1
  Hf  Hf5  1  0.89874441  0.28850994  0.14825724  1
  Hf  Hf6  1  0.09891186  0.30569449  0.14333736  1
  Hf  Hf7  1  0.60253804  0.19656983  -0.01188100  1
  Hf  Hf8  1  0.47176415  0.10807560  0.63112276  1
  Hf  Hf9  1  0.12017057  0.71073156  0.63474437  1
  Hf  Hf10  1  0.70457908  0.69289810  0.87753883  1
  Hf  Hf11  1  0.59693081  0.61419271  0.50222442  1
  Hf  Hf12  1  0.37815048  -0.00634882  0.75990017  1
  Hf  Hf13  1  0.89992396  0.49446970  0.10990051  1
  Hf  Hf14  1  0.61086091  0.60832880  0.24763547  1
  Hf  Hf15  1  0.79530739  0.60154211  0.51250581  1
  Hf  Hf16  1  0.31663624  0.09868446  0.37240126  1
  Hf  Hf17  1  0.30233942  0.29746937  0.12865359  1
  Hf  Hf18  1  0.20598399  0.60078553  0.75709712  1
  Hf  Hf19  1  0.69629518  0.89781140  0.87171962  1
  Hf  Hf20  1  0.10268790  0.70685177  0.12814608  1
  Hf  Hf21  1  0.09463213  0.28698969  0.87352610  1
  Hf  Hf22  1  0.89360818  0.11638004  0.61918705  1
  Hf  Hf23  1  0.50491403  0.09901115  0.12493439  1
  Hf  Hf24  1  0.01177330  0.82507377  0.74374303  1
  Hf  Hf25  1  0.80957751  0.00283730  0.00001194  1
  Hf  Hf26  1  0.49711301  0.29873183  0.11830750  1
  Hf  Hf27  1  0.10611032  0.49295512  0.87990652  1
  Hf  Hf28  1  0.20509098  0.80947751  -0.00759858  1
  Hf  Hf29  1  0.78900872  0.58885244  0.73969811  1
  Hf  Hf30  1  0.48953378  0.89368161  0.62928051  1
  Hf  Hf31  1  0.59148687  0.61320202  0.01138636  1
  Hf  Hf32  1  0.89795854  0.90092001  0.87097182  1
  Hf  Hf33  1  0.09955621  0.93388771  0.87818749  1
  Hf  Hf34  1  0.70183780  0.29856769  0.13525366  1
  Hf  Hf35  1  0.21786745  -0.01461671  0.26203917  1
  Hf  Hf36  1  0.00954537  0.80680126  0.50649544  1
  Hf  Hf37  1  -0.00264039  0.81383335  -0.00092711  1
  Hf  Hf38  1  0.30894358  0.09943473  0.13357331  1
  Hf  Hf39  1  0.70398499  0.09720731  0.12521061  1
  Zr  Zr40  1  0.59922611  0.80179101  0.74349029  1
  Zr  Zr41  1  0.90005223  0.51173263  0.37607692  1
  Zr  Zr42  1  0.30294317  0.89246085  0.12603434  1
  Zr  Zr43  1  0.00178296  0.60828909  -0.00926297  1
  Zr  Zr44  1  0.90683230  0.30815072  0.35289999  1
  Zr  Zr45  1  0.00653755  0.17703048  0.00651506  1
  Zr  Zr46  1  0.60770616  0.40864251  0.50858400  1
  Zr  Zr47  1  0.29490529  0.30319922  0.87609312  1
  Zr  Zr48  1  0.61186625  0.40976541  0.73552782  1
  Zr  Zr49  1  0.33132532  0.69826267  0.63317508  1
  Zr  Zr50  1  0.38930461  0.00304627  0.50399351  1
  Zr  Zr51  1  0.10282064  0.09951880  0.14847579  1
  Zr  Zr52  1  0.20301982  0.58992626  0.49228626  1
  Zr  Zr53  1  0.59173347  0.20935863  0.75087200  1
  Zr  Zr54  1  0.21782535  0.60709842  0.00005235  1
  Zr  Zr55  1  0.70167394  0.50031583  0.37119058  1
  Zr  Zr56  1  0.19339714  0.59016521  0.24673315  1
  Zr  Zr57  1  0.69115317  0.29218010  0.36050406  1
  Zr  Zr58  1  0.29768590  0.48840673  0.62258149  1
  Zr  Zr59  1  -0.01238025  0.00111674  0.26701866  1
  Zr  Zr60  1  0.88520534  0.87798650  0.38449592  1
  Zr  Zr61  1  0.59156027  0.60672301  0.73141489  1
  Zr  Zr62  1  0.49104850  0.50252472  0.13522769  1
  Zr  Zr63  1  -0.00677194  0.58947541  0.23753178  1
  Zr  Zr64  1  -0.00654397  0.60771698  0.76605753  1
  Zr  Zr65  1  0.48140019  0.30763679  0.38879893  1
  Zr  Zr66  1  0.00831015  0.20179222  0.47940882  1
  Zr  Zr67  1  0.68721319  0.90199434  0.37805460  1
  Zr  Zr68  1  0.69237787  0.09023950  0.63323785  1
  Zr  Zr69  1  0.90545380  0.70782232  0.62664716  1
  Zr  Zr70  1  0.71374019  0.30962303  0.87617779  1
  Zr  Zr71  1  0.39424008  -0.00694083  -0.01282301  1
  Zr  Zr72  1  0.00956417  0.59871853  0.50279383  1
  Zr  Zr73  1  0.59641886  0.19400057  0.50568739  1
  Zr  Zr74  1  0.21748890  0.79473473  0.49345354  1
  Zr  Zr75  1  0.30552609  0.47798475  0.36343747  1
  Zr  Zr76  1  0.81981170  0.37910584  0.74280949  1
  Zr  Zr77  1  0.91304180  0.48764426  0.62447062  1
  Zr  Zr78  1  0.10357510  0.88639730  0.36550037  1
  Zr  Zr79  1  0.49428465  0.71358485  0.14023939  1
  Ta  Ta80  1  -0.00662923  0.38091301  0.00171234  1
  Ta  Ta81  1  0.49542514  0.69974912  0.87340804  1
  Ta  Ta82  1  0.81039365  0.38729016  0.50411713  1
  Ta  Ta83  1  0.27617308  0.09300718  0.87774861  1
  Ta  Ta84  1  0.48492781  0.51135845  0.61690016  1
  Ta  Ta85  1  0.49931280  0.50594426  0.36534756  1
  Ta  Ta86  1  0.40813148  0.40134553  0.75081505  1
  Ta  Ta87  1  0.58425528  0.00416310  0.76281188  1
  Ta  Ta88  1  0.59505527  -0.00014978  -0.01479111  1
  Ta  Ta89  1  0.72152613  0.71093371  0.37740714  1
  Ta  Ta90  1  0.09699091  0.47861724  0.36956565  1
  Ta  Ta91  1  0.08993128  0.69195374  0.36468159  1
  Ta  Ta92  1  0.80473294  0.79429259  0.74365309  1
  Ta  Ta93  1  0.79480202  0.79346926  -0.00038702  1
  Ta  Ta94  1  0.20324299  0.18710624  0.49210869  1
  Ta  Ta95  1  0.90168098  0.91572103  0.61840413  1
  Ta  Ta96  1  0.40140670  0.78379369  -0.00091969  1
  Ta  Ta97  1  0.49911664  0.30726247  0.88075785  1
  Ta  Ta98  1  0.28540629  0.90020712  0.62645012  1
  Ta  Ta99  1  0.72044412  0.28778363  0.62174158  1
  Ta  Ta100  1  0.30104521  0.70247780  0.35747093  1
  Ta  Ta101  1  0.60191297  0.40164043  0.00553142  1
  Ta  Ta102  1  0.59237649  -0.00382688  0.50379197  1
  Ta  Ta103  1  0.88855138  0.70436516  0.11681335  1
  Ta  Ta104  1  0.80538885  -0.00426286  0.74522031  1
  Ta  Ta105  1  0.31155546  0.50365357  0.87286033  1
  Ta  Ta106  1  0.41285749  0.20603515  0.25507324  1
  Ta  Ta107  1  0.18703636  -0.00143802  0.49486692  1
  Ta  Ta108  1  0.81428191  0.20921916  0.00057434  1
  Ta  Ta109  1  0.70443605  0.50707170  0.11577662  1
  Ta  Ta110  1  0.40286172  0.60631375  0.47964224  1
  Ta  Ta111  1  0.80066664  0.62057616  0.24236161  1
  Ta  Ta112  1  0.20307046  0.19830025  0.00408663  1
  Ta  Ta113  1  0.80015530  0.19432009  0.48158824  1
  Ta  Ta114  1  0.91425204  0.10188659  0.86489258  1
  Ta  Ta115  1  0.48966874  0.31041201  0.61649586  1
  Ta  Ta116  1  0.20096945  0.37571583  0.49486914  1
  Ta  Ta117  1  0.59355642  0.81099432  0.00060279  1
  Ta  Ta118  1  0.39932136  0.81896423  0.26238600  1
  Ta  Ta119  1  0.89846173  0.09414851  0.13629390  1
  Ti  Ti120  1  0.60660462  0.80201047  0.50713896  1
  Ti  Ti121  1  0.10621629  0.49143151  0.62950038  1
  Ti  Ti122  1  0.78996117  -0.00023572  0.49907516  1
  Ti  Ti123  1  0.39644497  0.40824421  -0.00329453  1
  Ti  Ti124  1  0.19481411  0.39948611  0.00498613  1
  Ti  Ti125  1  0.21653245  0.81752609  0.76217806  1
  Ti  Ti126  1  0.89562817  0.90028953  0.12784665  1
  Ti  Ti127  1  0.09542547  0.29668237  0.62614895  1
  Ti  Ti128  1  0.09334397  0.09569553  0.61998818  1
  Ti  Ti129  1  0.39821190  0.19451256  -0.01420211  1
  Ti  Ti130  1  0.10044098  0.71645272  0.87017675  1
  Ti  Ti131  1  0.30815172  0.69886728  0.14549324  1
  Ti  Ti132  1  0.69722382  0.50001917  0.89225948  1
  Ti  Ti133  1  0.18479152  0.01000580  0.01163019  1
  Ti  Ti134  1  0.79864362  0.42172594  0.24415149  1
  Ti  Ti135  1  0.00867006  0.39463162  0.49968712  1
  Ti  Ti136  1  0.59078927  0.39488705  0.24691676  1
  Ti  Ti137  1  0.49383709  0.91422520  0.37275953  1
  Ti  Ti138  1  0.50194878  0.90804705  0.12693980  1
  Ti  Ti139  1  0.79201154  -0.01417342  0.25354434  1
  Ti  Ti140  1  0.19245359  0.18827614  0.74608467  1
  Ti  Ti141  1  -0.00732324  0.20375661  0.74636781  1
  Ti  Ti142  1  0.59928138  0.01025791  0.25235418  1
  Ti  Ti143  1  0.39293771  0.19732982  0.76701254  1
  Ti  Ti144  1  0.41321482  0.79895858  0.48614239  1
  Ti  Ti145  1  -0.01816308  0.78979175  0.24838321  1
  Ti  Ti146  1  -0.00381922  0.00790239  0.48585095  1
  Ti  Ti147  1  0.00917708  0.39612486  0.75215778  1
  Ti  Ti148  1  0.20215126  0.39361195  0.75019098  1
  Ti  Ti149  1  0.69859881  0.89785484  0.11937303  1
  Ti  Ti150  1  0.51131215  0.71180005  0.36505824  1
  Ti  Ti151  1  0.70286629  0.89710634  0.62485140  1
  Ti  Ti152  1  0.09353279  0.90093362  0.13651295  1
  Ti  Ti153  1  0.18096612  0.00301618  0.74068586  1
  Ti  Ti154  1  0.61354411  0.80935541  0.24535891  1
  Ti  Ti155  1  0.20244073  0.20306064  0.27011091  1
  Ti  Ti156  1  0.48702439  0.89114087  0.87144257  1
  Ti  Ti157  1  0.79822030  0.17122118  0.26898762  1
  Ti  Ti158  1  0.51416697  0.10546244  0.37340612  1
  Ti  Ti159  1  0.31354640  0.70418653  0.86608814  1
  Mo  Mo160  1  0.39433351  0.40891590  0.50570721  1
  Mo  Mo161  1  0.19831173  0.39234092  0.25067348  1
  Mo  Mo162  1  0.10031600  0.49173596  0.10357267  1
  Mo  Mo163  1  0.80924152  0.19098974  0.74865334  1
  Mo  Mo164  1  0.79564154  0.39330019  0.00870214  1
  Mo  Mo165  1  -0.00525833  0.01613089  0.73952984  1
  Mo  Mo166  1  0.10844754  0.30242567  0.36311664  1
  Mo  Mo167  1  0.39613375  0.60448458  -0.00107264  1
  Mo  Mo168  1  0.41819695  0.00440302  0.25351548  1
  Mo  Mo169  1  0.90033240  0.70250813  0.37675678  1
  Mo  Mo170  1  0.00085387  0.19334179  0.26931130  1
  Mo  Mo171  1  0.29887450  0.29154449  0.37664949  1
  Mo  Mo172  1  0.60008580  0.19684279  0.25201836  1
  Mo  Mo173  1  0.89684302  0.70719125  0.86772581  1
  Mo  Mo174  1  0.70346019  0.70981478  0.62065843  1
  Mo  Mo175  1  0.40621919  0.60837058  0.26826561  1
  Mo  Mo176  1  0.49296078  0.10238150  0.87015067  1
  Mo  Mo177  1  0.38453898  0.20778871  0.50532333  1
  Mo  Mo178  1  0.40366555  0.39507947  0.24874870  1
  Mo  Mo179  1  0.90622516  0.29167496  0.87955798  1
  Mo  Mo180  1  0.79572412  0.60389703  0.00177788  1
  Mo  Mo181  1  0.10149511  0.10766996  0.87067729  1
  Mo  Mo182  1  0.79475093  0.80147087  0.23923259  1
  Mo  Mo183  1  0.40306886  0.59478610  0.75250945  1
  Mo  Mo184  1  0.19483506  0.79390323  0.25053628  1
  Mo  Mo185  1  0.70157098  0.49208832  0.61634427  1
  Mo  Mo186  1  0.39996951  0.79826114  0.75772827  1
  Mo  Mo187  1  0.10367031  0.91408739  0.61852355  1
  Mo  Mo188  1  0.30973041  0.89356096  0.37927219  1
  Mo  Mo189  1  -0.00144687  -0.00052009  0.01418856  1
  Mo  Mo190  1  0.79428368  0.80419221  0.51594303  1
  Mo  Mo191  1  0.88801120  0.08944823  0.38220260  1
  Mo  Mo192  1  0.27540221  0.08984561  0.62862641  1
  Mo  Mo193  1  0.50065304  0.70423973  0.61133757  1
  Mo  Mo194  1  0.10336070  0.09793736  0.36905508  1
  Mo  Mo195  1  0.00367077  0.40749316  0.24245209  1
  Mo  Mo196  1  0.91349967  0.29348466  0.61244604  1
  Mo  Mo197  1  0.29379526  0.89625476  0.88183590  1
  Mo  Mo198  1  0.69441268  0.08987160  0.37757306  1
  Mo  Mo199  1  0.69884762  0.71013726  0.11853271  1
