# generated using pymatgen
data_HfZrTaTiMo
_symmetry_space_group_name_H-M   'P 1'
_cell_length_a   15.19874788
_cell_length_b   15.20877735
_cell_length_c   16.82766160
_cell_angle_alpha   90.01964263
_cell_angle_beta   90.06876028
_cell_angle_gamma   89.91022768
_symmetry_Int_Tables_number   1
_chemical_formula_structural   HfZrTaTiMo
_chemical_formula_sum   'Hf40 Zr40 Ta40 Ti40 Mo40'
_cell_volume   3889.77975442
_cell_formula_units_Z   40
loop_
 _symmetry_equiv_pos_site_id
 _symmetry_equiv_pos_as_xyz
  1  'x, y, z'
loop_
 _atom_site_type_symbol
 _atom_site_label
 _atom_site_symmetry_multiplicity
 _atom_site_fract_x
 _atom_site_fract_y
 _atom_site_fract_z
 _atom_site_occupancy
  Hf  Hf0  1  0.38807489  0.80428420  0.75861491  1
  Hf  Hf1  1  0.49893829  0.88071231  0.11562258  1
  Hf  Hf2  1  0.88870980  0.90350768  0.87110683  1
  Hf  Hf3  1  0.00683477  0.00521389  0.26393860  1
  Hf  Hf4  1  0.20782506  0.18887650  0.00747928  1
  Hf  Hf5  1  0.10383132  0.10750751  0.87672095  1
  Hf  Hf6  1  0.70058748  0.48638864  0.61314864  1
  Hf  Hf7  1  0.39006915  0.79732228  -0.01173511  1
  Hf  Hf8  1  0.10267210  0.28603966  0.36750929  1
  Hf  Hf9  1  0.09606471  0.69761403  0.12275901  1
  Hf  Hf10  1  0.50607048  0.09321576  0.36873472  1
  Hf  Hf11  1  0.21318995  -0.00962213  0.76030071  1
  Hf  Hf12  1  0.50419291  0.29605755  0.37795028  1
  Hf  Hf13  1  0.79980237  0.19994301  0.22899381  1
  Hf  Hf14  1  0.10570979  0.32137606  0.89442020  1
  Hf  Hf15  1  0.09558254  0.90400563  0.11999643  1
  Hf  Hf16  1  0.02334469  0.01322038  0.47813347  1
  Hf  Hf17  1  0.80163297  0.79824068  0.51135221  1
  Hf  Hf18  1  0.00064265  0.00342067  0.75981036  1
  Hf  Hf19  1  -0.00408672  0.80860811  0.26270876  1
  Hf  Hf20  1  0.01157548  0.20023347  0.22987766  1
  Hf  Hf21  1  0.31699237  0.28999097  0.13418869  1
  Hf  Hf22  1  0.89767401  0.51077896  0.37012193  1
  Hf  Hf23  1  0.00218493  0.60820668  0.73708803  1
  Hf  Hf24  1  0.61986222  0.39368778  0.75801091  1
  Hf  Hf25  1  0.11484792  0.90189453  0.61791554  1
  Hf  Hf26  1  0.30247955  0.29038652  0.63300335  1
  Hf  Hf27  1  0.19757890  0.60639542  0.49768365  1
  Hf  Hf28  1  0.89849437  0.13258766  0.61174110  1
  Hf  Hf29  1  0.59795304  0.81233394  0.75299785  1
  Hf  Hf30  1  0.60484975  0.59728981  0.25441556  1
  Hf  Hf31  1  0.39721918  -0.00119974  0.23838607  1
  Hf  Hf32  1  0.70413320  0.29876471  0.37360271  1
  Hf  Hf33  1  0.48182299  0.69060196  0.63403142  1
  Hf  Hf34  1  0.89421667  0.70698229  0.86509042  1
  Hf  Hf35  1  0.20264449  0.39714867  0.49003606  1
  Hf  Hf36  1  0.29912271  0.09531232  0.36996921  1
  Hf  Hf37  1  0.28754341  0.48548463  0.88165277  1
  Hf  Hf38  1  0.79204149  0.42116401  0.23731020  1
  Hf  Hf39  1  0.10570208  0.09781253  0.63039243  1
  Zr  Zr40  1  0.39945526  0.39363245  0.50319198  1
  Zr  Zr41  1  0.00212569  0.39811075  0.49822364  1
  Zr  Zr42  1  0.61468792  0.18229718  0.50372237  1
  Zr  Zr43  1  0.29314604  0.89177505  0.12432751  1
  Zr  Zr44  1  0.88207376  0.70931797  0.13562665  1
  Zr  Zr45  1  0.50380673  0.50516085  0.39129099  1
  Zr  Zr46  1  0.00136769  0.00918653  -0.00868312  1
  Zr  Zr47  1  0.58261118  0.80756572  0.50545362  1
  Zr  Zr48  1  0.59750119  0.02365714  0.01435625  1
  Zr  Zr49  1  0.10552054  0.49555899  0.62604211  1
  Zr  Zr50  1  -0.01279117  0.40403368  0.75040202  1
  Zr  Zr51  1  0.90122745  0.30893526  0.35773839  1
  Zr  Zr52  1  0.79793204  0.57707278  0.75408856  1
  Zr  Zr53  1  0.41702030  0.59515497  -0.01566335  1
  Zr  Zr54  1  -0.00512705  0.20811286  0.76157125  1
  Zr  Zr55  1  0.70433779  0.88488302  0.11457578  1
  Zr  Zr56  1  0.69323565  0.69283939  0.39165255  1
  Zr  Zr57  1  0.78697233  0.01618484  0.49505912  1
  Zr  Zr58  1  0.78660592  0.61579445  -0.00825158  1
  Zr  Zr59  1  0.20054312  0.18539493  0.50058674  1
  Zr  Zr60  1  0.78850715  0.01985383  0.75162023  1
  Zr  Zr61  1  0.91355643  0.49654998  0.89535912  1
  Zr  Zr62  1  0.30920175  0.49054919  0.11612138  1
  Zr  Zr63  1  0.51236469  0.09438387  0.63745955  1
  Zr  Zr64  1  0.69325771  0.69119644  0.62331795  1
  Zr  Zr65  1  -0.01466690  0.60795379  0.51371527  1
  Zr  Zr66  1  0.40737587  0.19293326  -0.00431146  1
  Zr  Zr67  1  0.30891927  0.50856846  0.63463879  1
  Zr  Zr68  1  0.50156611  0.91114087  0.88647689  1
  Zr  Zr69  1  0.90265923  0.91897364  0.62101009  1
  Zr  Zr70  1  0.41208935  0.39377826  0.75723772  1
  Zr  Zr71  1  0.90151817  0.51194275  0.11515433  1
  Zr  Zr72  1  0.37773764  0.79797565  0.50860277  1
  Zr  Zr73  1  0.58946210  0.59356912  0.76992208  1
  Zr  Zr74  1  0.19401454  0.58721790  0.24242667  1
  Zr  Zr75  1  0.60225331  0.00039833  0.23239662  1
  Zr  Zr76  1  0.80342339  -0.00216324  0.24974792  1
  Zr  Zr77  1  0.00317248  0.80384559  0.49110399  1
  Zr  Zr78  1  0.19548280  0.78560131  0.74336241  1
  Zr  Zr79  1  -0.01303130  0.79420959  -0.00151166  1
  Ta  Ta80  1  0.79680274  0.19584670  0.01542287  1
  Ta  Ta81  1  0.59848294  0.40591504  0.25111875  1
  Ta  Ta82  1  0.50897284  0.49728852  0.61786456  1
  Ta  Ta83  1  0.80124211  0.00561459  0.00171134  1
  Ta  Ta84  1  0.20211836  0.39236431  0.25168762  1
  Ta  Ta85  1  0.78883812  0.39628968  0.00812065  1
  Ta  Ta86  1  0.90539896  0.12103708  0.37822787  1
  Ta  Ta87  1  0.70050148  0.49713500  0.39719648  1
  Ta  Ta88  1  0.19805916  0.79623911  0.25591714  1
  Ta  Ta89  1  0.59880236  0.20750354  0.23832326  1
  Ta  Ta90  1  0.10658650  0.88335046  0.87984531  1
  Ta  Ta91  1  0.68336862  0.92215826  0.62484400  1
  Ta  Ta92  1  0.40285372  0.19130904  0.50360755  1
  Ta  Ta93  1  0.59182080  0.79482146  0.25487600  1
  Ta  Ta94  1  0.80820647  0.39453559  0.50228290  1
  Ta  Ta95  1  0.71799961  0.28475452  0.62378671  1
  Ta  Ta96  1  0.40079325  0.78714733  0.24923340  1
  Ta  Ta97  1  0.30700464  0.29185788  0.36234854  1
  Ta  Ta98  1  0.09325757  0.29046058  0.62410693  1
  Ta  Ta99  1  0.20627742  0.20044183  0.75368871  1
  Ta  Ta100  1  0.68574324  0.90382659  0.37666746  1
  Ta  Ta101  1  0.50921896  0.11327945  0.86370315  1
  Ta  Ta102  1  0.30360607  0.69698845  0.12292292  1
  Ta  Ta103  1  0.59963974  0.22295921  0.00441195  1
  Ta  Ta104  1  0.01621598  0.41268151  0.23948121  1
  Ta  Ta105  1  0.29897514  0.69553382  0.36617325  1
  Ta  Ta106  1  0.41898782  0.38749161  -0.01386745  1
  Ta  Ta107  1  0.89767455  0.90108214  0.12423702  1
  Ta  Ta108  1  0.88790680  0.69976374  0.36880698  1
  Ta  Ta109  1  0.89615001  0.29369820  0.89822527  1
  Ta  Ta110  1  -0.00091626  0.80232902  0.74195006  1
  Ta  Ta111  1  0.67506092  0.50650845  0.10936887  1
  Ta  Ta112  1  0.11188575  0.30750177  0.11600669  1
  Ta  Ta113  1  0.19661562  0.59507881  0.75919861  1
  Ta  Ta114  1  0.40305023  -0.00261075  0.50089510  1
  Ta  Ta115  1  0.19886865  0.60342023  -0.00245121  1
  Ta  Ta116  1  0.20890005  -0.00862715  -0.00838095  1
  Ta  Ta117  1  0.29923015  0.89524730  0.36819321  1
  Ta  Ta118  1  0.29773169  0.49878736  0.36897225  1
  Ta  Ta119  1  0.09586690  0.68889051  0.36869406  1
  Ti  Ti120  1  0.10209001  0.49283233  0.09943122  1
  Ti  Ti121  1  0.69066772  0.69785552  0.12512504  1
  Ti  Ti122  1  0.69672773  0.90470393  0.88504736  1
  Ti  Ti123  1  0.40487793  0.59628836  0.24862989  1
  Ti  Ti124  1  0.61212843  0.19623899  0.75035494  1
  Ti  Ti125  1  0.39114158  0.60267911  0.76985852  1
  Ti  Ti126  1  0.50574650  0.32476802  0.12822001  1
  Ti  Ti127  1  0.40807172  0.00017713  0.75466775  1
  Ti  Ti128  1  0.70287234  0.10805665  0.88415031  1
  Ti  Ti129  1  0.09077268  0.68828992  0.88254821  1
  Ti  Ti130  1  0.90694264  0.09175955  0.12178948  1
  Ti  Ti131  1  0.69281081  0.30864660  0.12319962  1
  Ti  Ti132  1  0.39391851  0.00670317  0.00598931  1
  Ti  Ti133  1  0.69826751  0.70989263  0.86752616  1
  Ti  Ti134  1  0.19343683  -0.00142381  0.24701841  1
  Ti  Ti135  1  0.30774714  0.08721378  0.62935724  1
  Ti  Ti136  1  0.90692584  0.31094010  0.11824365  1
  Ti  Ti137  1  0.70163475  0.30033703  0.88559269  1
  Ti  Ti138  1  0.19494723  0.79940503  0.49328518  1
  Ti  Ti139  1  0.49341654  0.89642037  0.37172235  1
  Ti  Ti140  1  0.20660223  0.18566405  0.23590118  1
  Ti  Ti141  1  0.59830538  0.77502845  -0.01103409  1
  Ti  Ti142  1  0.50345324  0.68112397  0.12243884  1
  Ti  Ti143  1  0.40655502  0.40369849  0.25512333  1
  Ti  Ti144  1  -0.00045831  0.20060596  0.01123336  1
  Ti  Ti145  1  0.51412630  0.29873626  0.62184669  1
  Ti  Ti146  1  0.19277591  0.39501845  0.75159712  1
  Ti  Ti147  1  0.80239820  0.21635055  0.75988343  1
  Ti  Ti148  1  -0.00670546  0.60144884  0.25011302  1
  Ti  Ti149  1  0.39264675  0.60241182  0.50099155  1
  Ti  Ti150  1  0.30884607  0.28670734  0.86858284  1
  Ti  Ti151  1  0.88694353  0.90463224  0.38048996  1
  Ti  Ti152  1  0.48812924  0.12359306  0.13274320  1
  Ti  Ti153  1  0.28324283  0.70513423  0.88146214  1
  Ti  Ti154  1  0.70325301  0.10241502  0.36368833  1
  Ti  Ti155  1  0.78475794  0.79655409  0.26056217  1
  Ti  Ti156  1  0.31234850  0.09488183  0.86904298  1
  Ti  Ti157  1  0.80096377  0.80401110  0.73219016  1
  Ti  Ti158  1  0.49098691  0.90553746  0.63041498  1
  Ti  Ti159  1  0.49136792  0.70047791  0.37985509  1
  Mo  Mo160  1  0.28820708  0.69529829  0.62798991  1
  Mo  Mo161  1  0.89791222  0.31571846  0.62643368  1
  Mo  Mo162  1  0.70531459  0.10393402  0.63051611  1
  Mo  Mo163  1  0.10015833  0.49933434  0.36599731  1
  Mo  Mo164  1  0.40003670  0.19245777  0.75100787  1
  Mo  Mo165  1  0.11596280  0.89554953  0.37223497  1
  Mo  Mo166  1  0.00053613  0.39327161  0.01157809  1
  Mo  Mo167  1  0.58782612  0.59668628  0.50537412  1
  Mo  Mo168  1  0.40709882  0.20471988  0.25030868  1
  Mo  Mo169  1  0.60427626  0.00354991  0.76384216  1
  Mo  Mo170  1  0.10299983  0.50835289  0.88521601  1
  Mo  Mo171  1  0.50056655  0.49853974  0.12739540  1
  Mo  Mo172  1  0.00311329  0.20764405  0.49694281  1
  Mo  Mo173  1  0.10172443  0.70490528  0.62237401  1
  Mo  Mo174  1  0.10941765  0.10144463  0.36623530  1
  Mo  Mo175  1  0.59240066  -0.00711967  0.49496173  1
  Mo  Mo176  1  0.69745716  0.10953751  0.12027754  1
  Mo  Mo177  1  0.21499817  0.39305823  0.00411834  1
  Mo  Mo178  1  0.88897358  0.11335641  0.88691805  1
  Mo  Mo179  1  0.59678560  0.60172016  -0.01691768  1
  Mo  Mo180  1  0.29632059  0.90502331  0.88194269  1
  Mo  Mo181  1  0.80203910  0.38485605  0.76066312  1
  Mo  Mo182  1  0.19508788  0.79252628  -0.00266463  1
  Mo  Mo183  1  0.29721741  0.09162687  0.12947470  1
  Mo  Mo184  1  0.70256801  0.49160461  0.89076732  1
  Mo  Mo185  1  0.80908441  0.20776622  0.49058621  1
  Mo  Mo186  1  0.49967639  0.49061973  0.87124133  1
  Mo  Mo187  1  0.49692934  0.70425617  0.86522286  1
  Mo  Mo188  1  0.80339595  0.59660588  0.50737084  1
  Mo  Mo189  1  0.00352854  0.60168005  -0.00093338  1
  Mo  Mo190  1  0.30632859  0.90724285  0.62453688  1
  Mo  Mo191  1  0.22113702  -0.01282563  0.49833473  1
  Mo  Mo192  1  0.59751262  0.40676971  -0.01016809  1
  Mo  Mo193  1  0.60456909  0.38832034  0.50917892  1
  Mo  Mo194  1  0.10515157  0.09761109  0.11846146  1
  Mo  Mo195  1  0.78785116  0.60556455  0.25060030  1
  Mo  Mo196  1  0.89447568  0.70794087  0.63779136  1
  Mo  Mo197  1  0.78769156  0.81066538  -0.00769212  1
  Mo  Mo198  1  0.51067781  0.29001999  0.86760393  1
  Mo  Mo199  1  0.88976414  0.49951317  0.62433099  1
