# generated using pymatgen
data_HfZrTaTiMo
_symmetry_space_group_name_H-M   'P 1'
_cell_length_a   15.21166030
_cell_length_b   15.21898149
_cell_length_c   16.86099354
_cell_angle_alpha   90.00750926
_cell_angle_beta   89.93430564
_cell_angle_gamma   89.96095755
_symmetry_Int_Tables_number   1
_chemical_formula_structural   HfZrTaTiMo
_chemical_formula_sum   'Hf40 Zr40 Ta40 Ti40 Mo40'
_cell_volume   3903.41726811
_cell_formula_units_Z   40
loop_
 _symmetry_equiv_pos_site_id
 _symmetry_equiv_pos_as_xyz
  1  'x, y, z'
loop_
 _atom_site_type_symbol
 _atom_site_label
 _atom_site_symmetry_multiplicity
 _atom_site_fract_x
 _atom_site_fract_y
 _atom_site_fract_z
 _atom_site_occupancy
  Hf  Hf0  1  -0.00366351  0.19613503  0.26112448  1
  Hf  Hf1  1  0.80751360  0.79074224  0.26175440  1
  Hf  Hf2  1  0.71661057  0.29334413  0.84628421  1
  Hf  Hf3  1  0.48489456  0.50989035  0.61654726  1
  Hf  Hf4  1  0.71341685  0.30937375  0.64036169  1
  Hf  Hf5  1  0.19734382  0.19449040  0.49830399  1
  Hf  Hf6  1  0.80158003  0.80466478  -0.00542534  1
  Hf  Hf7  1  0.79439898  0.40762841  -0.01044910  1
  Hf  Hf8  1  0.89808893  0.49944683  0.61754794  1
  Hf  Hf9  1  0.49928649  0.71961558  0.88868814  1
  Hf  Hf10  1  0.29456354  0.68207472  0.88239421  1
  Hf  Hf11  1  0.41674067  0.19184780  0.26236316  1
  Hf  Hf12  1  0.89914058  0.51708659  0.12627572  1
  Hf  Hf13  1  0.81446199  0.00575069  0.49345152  1
  Hf  Hf14  1  0.09360455  0.28519372  0.11851119  1
  Hf  Hf15  1  0.50617845  0.08641075  0.62197839  1
  Hf  Hf16  1  0.89638970  0.30907759  0.13092783  1
  Hf  Hf17  1  0.79891179  0.81581585  0.74744968  1
  Hf  Hf18  1  0.80511320  0.21243519  0.00018215  1
  Hf  Hf19  1  0.69451383  0.49612064  0.12655255  1
  Hf  Hf20  1  0.01153341  0.40805339  0.74101653  1
  Hf  Hf21  1  0.19727414  0.58217275  0.26162207  1
  Hf  Hf22  1  0.29049009  0.70480113  0.12069952  1
  Hf  Hf23  1  0.90615537  0.30944475  0.38737085  1
  Hf  Hf24  1  -0.00286895  0.80873960  0.51680922  1
  Hf  Hf25  1  0.20551067  0.78960005  0.49270550  1
  Hf  Hf26  1  0.21359367  -0.02363154  -0.01267853  1
  Hf  Hf27  1  0.00079366  -0.00723338  -0.01416299  1
  Hf  Hf28  1  0.10899277  0.10339649  0.63641624  1
  Hf  Hf29  1  0.58709107  0.80530148  0.24991034  1
  Hf  Hf30  1  0.70270515  0.31315645  0.38060774  1
  Hf  Hf31  1  0.20995629  -0.00678735  0.50501039  1
  Hf  Hf32  1  0.29802896  0.30109334  0.37436008  1
  Hf  Hf33  1  0.10038230  0.88537569  0.13976959  1
  Hf  Hf34  1  0.40322177  0.18741242  0.49382024  1
  Hf  Hf35  1  0.59359151  0.59857167  0.25158760  1
  Hf  Hf36  1  0.20524831  0.78391976  0.26291217  1
  Hf  Hf37  1  0.58661129  0.61617434  0.74471759  1
  Hf  Hf38  1  0.50817085  0.30016998  0.63346829  1
  Hf  Hf39  1  0.69168011  0.49153802  0.85112696  1
  Zr  Zr40  1  0.79506729  0.00664209  -0.00233818  1
  Zr  Zr41  1  0.48851712  0.91056407  0.12504100  1
  Zr  Zr42  1  0.20610353  0.18179909  -0.00999187  1
  Zr  Zr43  1  0.30244077  0.29081177  0.62569750  1
  Zr  Zr44  1  0.30540591  0.68487330  0.61677434  1
  Zr  Zr45  1  0.80139707  0.42135733  0.26001076  1
  Zr  Zr46  1  0.07480788  0.69033973  0.38114257  1
  Zr  Zr47  1  0.40098813  0.41003270  0.25313534  1
  Zr  Zr48  1  0.90181378  0.90467891  0.13240968  1
  Zr  Zr49  1  -0.01336265  -0.01370570  0.74251968  1
  Zr  Zr50  1  0.69354953  0.11570585  0.37611077  1
  Zr  Zr51  1  0.30883022  0.28501434  0.12921088  1
  Zr  Zr52  1  -0.00444099  0.40198903  -0.00833584  1
  Zr  Zr53  1  0.89198714  0.70170066  0.62526565  1
  Zr  Zr54  1  0.10157315  0.90478772  0.36896672  1
  Zr  Zr55  1  0.32495987  0.88619013  0.36458111  1
  Zr  Zr56  1  0.10762403  0.08462883  0.12429460  1
  Zr  Zr57  1  0.67794459  0.89865907  0.88098008  1
  Zr  Zr58  1  0.09831562  0.49510241  0.12507600  1
  Zr  Zr59  1  0.80751178  0.60635315  -0.01748905  1
  Zr  Zr60  1  0.78856022  0.01375066  0.75458874  1
  Zr  Zr61  1  0.69425650  0.90658050  0.37544482  1
  Zr  Zr62  1  0.69148087  0.90648840  0.61473028  1
  Zr  Zr63  1  0.60887118  0.41278804  0.50821238  1
  Zr  Zr64  1  0.17708845  0.78744254  -0.00939060  1
  Zr  Zr65  1  0.40286293  0.21279852  -0.02070372  1
  Zr  Zr66  1  0.21996145  0.39347826  -0.00769403  1
  Zr  Zr67  1  0.48789392  0.10757697  0.11354546  1
  Zr  Zr68  1  0.40946989  0.18684432  0.76194305  1
  Zr  Zr69  1  0.09829040  0.09673265  0.86352265  1
  Zr  Zr70  1  0.60530763  0.60146778  -0.00328634  1
  Zr  Zr71  1  0.69437400  0.11141195  0.13372821  1
  Zr  Zr72  1  0.52219081  0.30599792  0.86040567  1
  Zr  Zr73  1  0.47911051  0.50300373  0.88799102  1
  Zr  Zr74  1  0.38323327  0.59887800  0.75076871  1
  Zr  Zr75  1  0.19879881  -0.02233304  0.75622469  1
  Zr  Zr76  1  0.09999781  0.30029990  0.87138779  1
  Zr  Zr77  1  0.81051155  0.01201538  0.26019027  1
  Zr  Zr78  1  0.91769065  0.71459300  0.85500606  1
  Zr  Zr79  1  0.70340386  0.70212939  0.12831492  1
  Ta  Ta80  1  0.58518382  0.81420909  0.49370833  1
  Ta  Ta81  1  0.89795106  0.11695823  0.87131683  1
  Ta  Ta82  1  0.20214197  0.77915342  0.74986762  1
  Ta  Ta83  1  0.30712555  0.88930368  0.62748463  1
  Ta  Ta84  1  0.58922580  -0.01319314  0.75125828  1
  Ta  Ta85  1  0.91017642  0.11188001  0.12007846  1
  Ta  Ta86  1  0.69262634  0.69710410  0.38096271  1
  Ta  Ta87  1  0.59314996  0.39898839  0.25770683  1
  Ta  Ta88  1  0.30714296  0.08699234  0.63183028  1
  Ta  Ta89  1  0.28121574  0.48756615  0.61696035  1
  Ta  Ta90  1  0.38204974  0.81839827  -0.00125306  1
  Ta  Ta91  1  0.80533101  0.20861124  0.50408319  1
  Ta  Ta92  1  0.20106012  0.57796269  0.48472076  1
  Ta  Ta93  1  0.01617710  0.40067195  0.50928592  1
  Ta  Ta94  1  0.90504812  0.50402809  0.85751498  1
  Ta  Ta95  1  0.00801232  0.00235945  0.51423543  1
  Ta  Ta96  1  0.48798965  0.71125188  0.37540574  1
  Ta  Ta97  1  0.70224390  0.10768812  0.61681453  1
  Ta  Ta98  1  0.51274008  0.30702250  0.12406322  1
  Ta  Ta99  1  0.90546530  0.70613329  0.12639075  1
  Ta  Ta100  1  0.49335560  0.50994023  0.38498391  1
  Ta  Ta101  1  0.48733050  0.69955082  0.11421670  1
  Ta  Ta102  1  0.50817304  0.30098512  0.38272101  1
  Ta  Ta103  1  0.00659801  0.61278176  -0.00662110  1
  Ta  Ta104  1  0.39449775  0.61242266  0.25254107  1
  Ta  Ta105  1  0.90175473  0.51416072  0.39708122  1
  Ta  Ta106  1  0.20261440  0.18513746  0.25557392  1
  Ta  Ta107  1  0.00419677  0.40608071  0.25545306  1
  Ta  Ta108  1  0.09463578  0.48307880  0.37623503  1
  Ta  Ta109  1  0.40362128  -0.01741703  0.75285127  1
  Ta  Ta110  1  -0.00033245  0.19332726  0.50311614  1
  Ta  Ta111  1  0.10732999  0.51682987  0.87365293  1
  Ta  Ta112  1  0.30840182  0.50173346  0.12187325  1
  Ta  Ta113  1  0.39284177  0.40006853  0.75026208  1
  Ta  Ta114  1  0.08486596  0.69086936  0.13875788  1
  Ta  Ta115  1  0.19618960  0.38633465  0.24748782  1
  Ta  Ta116  1  0.69307973  0.91098727  0.13125427  1
  Ta  Ta117  1  0.90735963  0.29985041  0.62054246  1
  Ta  Ta118  1  0.78379212  0.60015864  0.50508885  1
  Ta  Ta119  1  0.41732027  -0.01811954  0.49944685  1
  Ti  Ti120  1  0.49494484  0.50178678  0.11479463  1
  Ti  Ti121  1  0.30360731  0.08431911  0.36949710  1
  Ti  Ti122  1  0.59533317  0.81508873  0.01265907  1
  Ti  Ti123  1  0.79492920  0.79903636  0.49662686  1
  Ti  Ti124  1  0.61228374  0.17799479  0.74702103  1
  Ti  Ti125  1  0.09825491  0.09539799  0.37769140  1
  Ti  Ti126  1  0.80084783  0.20796889  0.25515386  1
  Ti  Ti127  1  0.11171678  0.30688609  0.62704805  1
  Ti  Ti128  1  0.60184841  0.20097388  0.50547393  1
  Ti  Ti129  1  0.91188783  0.89329452  0.37691960  1
  Ti  Ti130  1  0.01648110  0.80502774  0.72645778  1
  Ti  Ti131  1  0.41395233  0.79798619  0.74843322  1
  Ti  Ti132  1  0.59974270  0.39210642  -0.00100169  1
  Ti  Ti133  1  0.29751836  0.91292291  0.14260187  1
  Ti  Ti134  1  -0.02731363  0.60574777  0.26261334  1
  Ti  Ti135  1  0.69600752  0.30352035  0.13484513  1
  Ti  Ti136  1  -0.00611696  0.80030117  -0.00556239  1
  Ti  Ti137  1  0.21604527  0.20469201  0.76027671  1
  Ti  Ti138  1  0.39018636  0.40493706  0.49362937  1
  Ti  Ti139  1  0.10152242  0.29458203  0.37639218  1
  Ti  Ti140  1  0.58640119  0.61872486  0.50433596  1
  Ti  Ti141  1  0.58051108  0.02036447  0.25780324  1
  Ti  Ti142  1  0.89671115  0.10418290  0.62695107  1
  Ti  Ti143  1  0.79990198  0.60339100  0.74748502  1
  Ti  Ti144  1  0.10769581  0.68215249  0.61248494  1
  Ti  Ti145  1  0.69754164  0.70315470  0.86431146  1
  Ti  Ti146  1  0.40574504  0.78842222  0.50496921  1
  Ti  Ti147  1  0.01752835  0.60465074  0.73946954  1
  Ti  Ti148  1  0.00184418  0.00233494  0.25691403  1
  Ti  Ti149  1  0.69598158  0.10278678  0.87939466  1
  Ti  Ti150  1  0.90442709  0.30416502  0.85966907  1
  Ti  Ti151  1  0.31291115  0.07983001  0.86924004  1
  Ti  Ti152  1  0.69758155  0.51033369  0.38208492  1
  Ti  Ti153  1  0.68614301  0.70817507  0.62349710  1
  Ti  Ti154  1  0.69731772  0.50603661  0.63671631  1
  Ti  Ti155  1  -0.00178046  0.20305422  0.74082240  1
  Ti  Ti156  1  0.20754067  0.40999580  0.75745893  1
  Ti  Ti157  1  0.51104824  0.07812986  0.88856282  1
  Ti  Ti158  1  0.60816499  0.20141018  -0.00411277  1
  Ti  Ti159  1  0.19595580  0.59245899  0.00451096  1
  Mo  Mo160  1  0.79482465  0.60404028  0.26271325  1
  Mo  Mo161  1  0.80540465  0.40627131  0.50100450  1
  Mo  Mo162  1  -0.00887338  0.19477359  -0.00386810  1
  Mo  Mo163  1  0.40175864  0.79121444  0.24076073  1
  Mo  Mo164  1  0.48602784  0.90542243  0.88551762  1
  Mo  Mo165  1  0.50182598  0.71058769  0.61809270  1
  Mo  Mo166  1  0.91346921  0.10018100  0.38492323  1
  Mo  Mo167  1  0.59866462  0.00925621  0.49662727  1
  Mo  Mo168  1  0.60094205  0.21481514  0.25338722  1
  Mo  Mo169  1  0.30544731  0.88109385  0.86305803  1
  Mo  Mo170  1  -0.00015233  0.59946494  0.50294012  1
  Mo  Mo171  1  0.10569942  0.50113782  0.61853211  1
  Mo  Mo172  1  0.89942041  0.90686581  0.87572939  1
  Mo  Mo173  1  0.50134579  0.09741860  0.38624981  1
  Mo  Mo174  1  0.59388306  0.41421267  0.73365756  1
  Mo  Mo175  1  0.08453768  0.87650271  0.86487224  1
  Mo  Mo176  1  0.31042449  0.30637753  0.86352688  1
  Mo  Mo177  1  0.81333473  0.40889091  0.74606054  1
  Mo  Mo178  1  0.19834015  0.38873520  0.49594313  1
  Mo  Mo179  1  0.59353953  0.80482945  0.74894725  1
  Mo  Mo180  1  0.11473631  0.88902341  0.62140402  1
  Mo  Mo181  1  0.30059617  0.08624507  0.13716622  1
  Mo  Mo182  1  0.39076239  0.60486628  0.01066171  1
  Mo  Mo183  1  0.88274646  0.70313610  0.39474514  1
  Mo  Mo184  1  0.09638764  0.69708539  0.86431643  1
  Mo  Mo185  1  0.39984641  0.00181090  0.25462326  1
  Mo  Mo186  1  0.81348829  0.19779243  0.74020466  1
  Mo  Mo187  1  0.49421924  0.89252484  0.62491204  1
  Mo  Mo188  1  0.29877739  0.49245548  0.37473618  1
  Mo  Mo189  1  0.19133100  0.58984757  0.74341731  1
  Mo  Mo190  1  0.89908638  0.90531777  0.61842649  1
  Mo  Mo191  1  0.30581815  0.68416341  0.38164576  1
  Mo  Mo192  1  -0.00566605  0.79469132  0.25468565  1
  Mo  Mo193  1  0.29376320  0.49191507  0.87958728  1
  Mo  Mo194  1  0.41125266  0.40354642  0.00937822  1
  Mo  Mo195  1  0.20148254  0.00300787  0.25634690  1
  Mo  Mo196  1  0.38876494  0.00372517  -0.00480918  1
  Mo  Mo197  1  0.39658969  0.59798339  0.49120369  1
  Mo  Mo198  1  0.50323930  0.90452108  0.36983813  1
  Mo  Mo199  1  0.59873932  0.00618978  0.00583510  1
