# generated using pymatgen
data_HfZrTaTiMo
_symmetry_space_group_name_H-M   'P 1'
_cell_length_a   15.21880794
_cell_length_b   15.20322533
_cell_length_c   16.82642628
_cell_angle_alpha   90.06001661
_cell_angle_beta   89.94522790
_cell_angle_gamma   90.08354710
_symmetry_Int_Tables_number   1
_chemical_formula_structural   HfZrTaTiMo
_chemical_formula_sum   'Hf40 Zr40 Ta40 Ti40 Mo40'
_cell_volume   3893.20576676
_cell_formula_units_Z   40
loop_
 _symmetry_equiv_pos_site_id
 _symmetry_equiv_pos_as_xyz
  1  'x, y, z'
loop_
 _atom_site_type_symbol
 _atom_site_label
 _atom_site_symmetry_multiplicity
 _atom_site_fract_x
 _atom_site_fract_y
 _atom_site_fract_z
 _atom_site_occupancy
  Hf  Hf0  1  0.30345525  0.70065741  0.12683141  1
  Hf  Hf1  1  0.70820022  0.89911224  0.61410775  1
  Hf  Hf2  1  0.61142689  0.41204775  0.24123724  1
  Hf  Hf3  1  0.49379271  0.09977813  0.36826605  1
  Hf  Hf4  1  0.78949115  0.79255220  -0.00403854  1
  Hf  Hf5  1  0.59264458  0.78903327  0.76278873  1
  Hf  Hf6  1  0.88981480  0.09909418  0.63135820  1
  Hf  Hf7  1  0.79121666  0.18293842  0.00011647  1
  Hf  Hf8  1  0.41067614  0.60030796  0.74359152  1
  Hf  Hf9  1  -0.00492376  0.79647427  0.00790292  1
  Hf  Hf10  1  0.59145108  0.80849339  -0.01501020  1
  Hf  Hf11  1  0.68877770  0.11755724  0.36395256  1
  Hf  Hf12  1  0.79663376  0.01875459  0.49120064  1
  Hf  Hf13  1  0.11820826  0.69245773  0.89623687  1
  Hf  Hf14  1  0.90643563  0.30328148  0.12741010  1
  Hf  Hf15  1  0.12002748  0.91069708  0.11631411  1
  Hf  Hf16  1  0.11406519  0.89930073  0.89233715  1
  Hf  Hf17  1  0.38562037  0.79929643  0.76329804  1
  Hf  Hf18  1  0.78653044  -0.01211556  0.25645219  1
  Hf  Hf19  1  0.51345869  0.69447282  0.37469369  1
  Hf  Hf20  1  0.59188438  0.59272966  0.51185041  1
  Hf  Hf21  1  0.09783325  0.10344641  0.87178863  1
  Hf  Hf22  1  0.09705247  0.88944682  0.62029575  1
  Hf  Hf23  1  0.89325880  0.89830258  0.12751836  1
  Hf  Hf24  1  0.59020732  -0.01571540  0.25056282  1
  Hf  Hf25  1  -0.00877652  0.20254282  0.49538138  1
  Hf  Hf26  1  0.79173171  0.78131100  0.23720059  1
  Hf  Hf27  1  0.89075962  0.10430474  0.14289111  1
  Hf  Hf28  1  0.19999481  -0.01814638  0.74941529  1
  Hf  Hf29  1  0.39788212  0.20763864  0.00902896  1
  Hf  Hf30  1  0.50278939  0.11125123  0.86676413  1
  Hf  Hf31  1  0.41063536  0.38905117  0.23979575  1
  Hf  Hf32  1  0.28683976  0.08908223  0.12185126  1
  Hf  Hf33  1  0.29552557  0.08541201  0.88466703  1
  Hf  Hf34  1  0.90022250  0.10983489  0.35879023  1
  Hf  Hf35  1  -0.00662322  0.60815253  0.23668436  1
  Hf  Hf36  1  -0.00826042  0.21113945  0.75199240  1
  Hf  Hf37  1  -0.00775118  0.00900078  0.00236930  1
  Hf  Hf38  1  0.41287764  0.20176613  0.51440536  1
  Hf  Hf39  1  0.40245487  0.21188739  0.73694870  1
  Zr  Zr40  1  0.19728979  0.20787298  0.74516868  1
  Zr  Zr41  1  0.90460672  0.70117021  0.37450655  1
  Zr  Zr42  1  0.30355963  0.50325850  0.13996953  1
  Zr  Zr43  1  0.79799966  0.39720032  0.51113188  1
  Zr  Zr44  1  0.91068912  0.71322527  0.62824374  1
  Zr  Zr45  1  0.81101652  0.59926440  0.74845065  1
  Zr  Zr46  1  0.31004613  0.49936209  0.36065484  1
  Zr  Zr47  1  0.01073553  0.40924213  -0.00118938  1
  Zr  Zr48  1  0.87881180  0.50002712  0.36947055  1
  Zr  Zr49  1  0.69105668  0.27944464  0.63231318  1
  Zr  Zr50  1  0.11059241  0.49207251  0.13202229  1
  Zr  Zr51  1  0.68722166  0.28939704  0.86532867  1
  Zr  Zr52  1  0.09622919  0.10016683  0.62614880  1
  Zr  Zr53  1  0.50563731  0.88695987  0.62285725  1
  Zr  Zr54  1  0.69993727  0.31950258  0.37881902  1
  Zr  Zr55  1  0.50401585  0.29356363  0.37599914  1
  Zr  Zr56  1  0.29415808  0.30795409  0.87861140  1
  Zr  Zr57  1  0.39186292  -0.00535079  0.50775564  1
  Zr  Zr58  1  0.70587920  0.48928129  0.87487363  1
  Zr  Zr59  1  0.68796800  0.49665490  0.64457765  1
  Zr  Zr60  1  0.91188426  0.69030130  0.87738118  1
  Zr  Zr61  1  0.20183654  0.60135916  0.48745461  1
  Zr  Zr62  1  -0.00277727  0.20323513  -0.00536444  1
  Zr  Zr63  1  0.28779837  0.31342533  0.61504552  1
  Zr  Zr64  1  0.70002433  0.08040820  0.84926624  1
  Zr  Zr65  1  0.50170953  0.10750126  0.13869092  1
  Zr  Zr66  1  0.89207251  0.89069885  0.37635006  1
  Zr  Zr67  1  0.50148722  0.71119455  0.11721156  1
  Zr  Zr68  1  0.69790353  0.30165489  0.11845687  1
  Zr  Zr69  1  0.80312711  0.81769052  0.76584150  1
  Zr  Zr70  1  0.09869178  0.12638963  0.14064854  1
  Zr  Zr71  1  0.40949894  -0.01636378  0.00376977  1
  Zr  Zr72  1  0.00856051  -0.00427616  0.25441193  1
  Zr  Zr73  1  0.91991386  0.49477707  0.62481572  1
  Zr  Zr74  1  0.20900125  0.80070634  0.48854639  1
  Zr  Zr75  1  0.61127176  0.00690642  0.00652868  1
  Zr  Zr76  1  0.88943395  0.30570487  0.88176824  1
  Zr  Zr77  1  0.39840455  0.00225128  0.73990611  1
  Zr  Zr78  1  0.79980537  0.60612942  0.51302163  1
  Zr  Zr79  1  0.31031713  0.70358149  0.36014789  1
  Ta  Ta80  1  0.09903521  0.89111334  0.37338801  1
  Ta  Ta81  1  -0.00301222  0.39636701  0.25413930  1
  Ta  Ta82  1  0.29372226  0.69889586  0.62544251  1
  Ta  Ta83  1  0.59536263  0.00849202  0.49880644  1
  Ta  Ta84  1  0.20678925  0.00035890  0.26886317  1
  Ta  Ta85  1  0.60625216  0.60222739  -0.00222856  1
  Ta  Ta86  1  0.89498593  0.49886530  0.12238278  1
  Ta  Ta87  1  0.19903018  0.80415002  0.25202995  1
  Ta  Ta88  1  0.68574289  0.70684191  0.63101461  1
  Ta  Ta89  1  0.49524325  0.89220148  0.38629316  1
  Ta  Ta90  1  0.39613832  0.41149873  0.00661250  1
  Ta  Ta91  1  0.89810301  0.30194669  0.36988814  1
  Ta  Ta92  1  0.39171297  -0.00900682  0.25205305  1
  Ta  Ta93  1  0.00913545  0.80263339  0.76173957  1
  Ta  Ta94  1  0.00710857  0.79337750  0.49595215  1
  Ta  Ta95  1  0.08928466  0.31867663  0.61623146  1
  Ta  Ta96  1  0.11390202  0.50586418  0.61993616  1
  Ta  Ta97  1  0.19361835  0.77835653  0.75215426  1
  Ta  Ta98  1  0.38070590  0.19998020  0.24474748  1
  Ta  Ta99  1  -0.00907277  -0.01257030  0.75784736  1
  Ta  Ta100  1  0.81105086  0.38813287  0.74465096  1
  Ta  Ta101  1  0.40335969  0.41099605  0.50271243  1
  Ta  Ta102  1  0.40188034  0.60004000  0.50915626  1
  Ta  Ta103  1  0.59115508  0.20474662  0.00297831  1
  Ta  Ta104  1  0.19430173  0.37653059  0.26297264  1
  Ta  Ta105  1  0.09768643  0.50804045  0.35812775  1
  Ta  Ta106  1  0.00373810  -0.00072867  0.48841822  1
  Ta  Ta107  1  0.19455718  0.41863754  0.75075313  1
  Ta  Ta108  1  0.70597540  0.50375480  0.10912120  1
  Ta  Ta109  1  0.11009114  0.69890651  0.11477564  1
  Ta  Ta110  1  0.19304716  0.20224017  0.48916127  1
  Ta  Ta111  1  0.70517160  0.69441845  0.38264501  1
  Ta  Ta112  1  0.00644406  0.40976223  0.75503479  1
  Ta  Ta113  1  0.01233908  0.60086742  0.49456241  1
  Ta  Ta114  1  0.28005080  0.29957700  0.12325259  1
  Ta  Ta115  1  0.49385730  0.31171490  0.87666563  1
  Ta  Ta116  1  0.03526916  0.60518608  0.74843794  1
  Ta  Ta117  1  0.19360997  0.00236785  0.48415804  1
  Ta  Ta118  1  0.30108543  0.10533211  0.37940150  1
  Ta  Ta119  1  0.68852184  0.88592021  0.39180002  1
  Ti  Ti120  1  0.79054745  0.22366929  0.24857389  1
  Ti  Ti121  1  0.19571595  0.40429356  0.48353921  1
  Ti  Ti122  1  0.30480195  0.29800233  0.38268814  1
  Ti  Ti123  1  0.81112063  0.59719939  0.00220177  1
  Ti  Ti124  1  0.60188661  0.79607113  0.25011486  1
  Ti  Ti125  1  0.42024787  0.59956864  0.24775190  1
  Ti  Ti126  1  0.90967984  0.50024831  0.87881750  1
  Ti  Ti127  1  0.19016452  0.20897800  -0.00057425  1
  Ti  Ti128  1  0.89123169  0.09180786  0.86250636  1
  Ti  Ti129  1  0.90359565  0.90479304  0.61550720  1
  Ti  Ti130  1  0.61087978  0.60820324  0.23977959  1
  Ti  Ti131  1  0.30720753  0.50899569  0.87554358  1
  Ti  Ti132  1  0.00638744  0.40665351  0.48483777  1
  Ti  Ti133  1  0.50326301  0.50028679  0.87818634  1
  Ti  Ti134  1  0.59440078  0.39849026  0.00140033  1
  Ti  Ti135  1  0.10136555  0.31261855  0.87398697  1
  Ti  Ti136  1  0.48886745  0.68725228  0.88585126  1
  Ti  Ti137  1  0.21885696  0.58689754  0.00350765  1
  Ti  Ti138  1  0.58830092  0.39294272  0.51257308  1
  Ti  Ti139  1  0.28943245  0.09842781  0.61671383  1
  Ti  Ti140  1  0.68522000  0.88899678  0.12269329  1
  Ti  Ti141  1  0.51234913  0.49613558  0.37499666  1
  Ti  Ti142  1  0.69675042  0.10329620  0.14020409  1
  Ti  Ti143  1  0.40845224  0.78718484  0.50433913  1
  Ti  Ti144  1  0.69674159  0.68617613  0.87031086  1
  Ti  Ti145  1  0.29388459  0.89322969  0.62210147  1
  Ti  Ti146  1  0.78778209  0.59181110  0.24062005  1
  Ti  Ti147  1  0.79728997  -0.01421494  -0.00613421  1
  Ti  Ti148  1  0.29782161  0.50445272  0.62471718  1
  Ti  Ti149  1  0.30948856  0.89069777  0.12083039  1
  Ti  Ti150  1  0.11162454  0.50331230  0.88157934  1
  Ti  Ti151  1  0.57887753  0.39659785  0.74592325  1
  Ti  Ti152  1  0.50256087  0.91288645  0.86468584  1
  Ti  Ti153  1  0.00528943  0.79719164  0.23638169  1
  Ti  Ti154  1  0.50662887  0.50581344  0.11587892  1
  Ti  Ti155  1  0.89685355  0.29536448  0.62384367  1
  Ti  Ti156  1  0.69940984  0.09160974  0.64188610  1
  Ti  Ti157  1  0.51980077  0.10655703  0.63324689  1
  Ti  Ti158  1  0.40957144  0.81016184  0.25121171  1
  Ti  Ti159  1  0.39395105  0.40513690  0.74532170  1
  Mo  Mo160  1  0.49177651  0.31044073  0.11899858  1
  Mo  Mo161  1  0.00311231  0.60000265  0.01562232  1
  Mo  Mo162  1  0.69725446  0.89472551  0.87444811  1
  Mo  Mo163  1  0.58870614  0.19991912  0.74998023  1
  Mo  Mo164  1  0.60146187  0.79308214  0.50051397  1
  Mo  Mo165  1  0.49849010  0.30760813  0.62211645  1
  Mo  Mo166  1  0.58851246  0.21047496  0.24051643  1
  Mo  Mo167  1  0.00884583  0.21774555  0.26312800  1
  Mo  Mo168  1  0.40942932  0.59302875  -0.00230262  1
  Mo  Mo169  1  0.79736600  0.40644417  -0.00213864  1
  Mo  Mo170  1  0.10498237  0.30383735  0.12935649  1
  Mo  Mo171  1  0.10388852  0.69637291  0.62361266  1
  Mo  Mo172  1  0.20188243  0.19996137  0.27062098  1
  Mo  Mo173  1  0.89783650  0.69052041  0.11996645  1
  Mo  Mo174  1  0.48873856  0.49232023  0.62737229  1
  Mo  Mo175  1  0.79580938  0.19943428  0.49791073  1
  Mo  Mo176  1  0.20213622  0.01131449  0.00236489  1
  Mo  Mo177  1  0.80716910  -0.00732285  0.74261838  1
  Mo  Mo178  1  0.21296036  0.80094045  0.00854504  1
  Mo  Mo179  1  0.60034115  -0.01199016  0.74318810  1
  Mo  Mo180  1  0.09787929  0.70157126  0.36082436  1
  Mo  Mo181  1  0.09756641  0.30803083  0.38706076  1
  Mo  Mo182  1  0.49579814  0.69567858  0.62615866  1
  Mo  Mo183  1  0.39413812  0.79561786  -0.01663521  1
  Mo  Mo184  1  0.68326050  0.51691988  0.37401820  1
  Mo  Mo185  1  0.19437164  0.60788426  0.25288428  1
  Mo  Mo186  1  0.30273880  0.69143918  0.88552585  1
  Mo  Mo187  1  0.61284976  0.18656823  0.50581716  1
  Mo  Mo188  1  0.20860348  0.39846826  -0.00510458  1
  Mo  Mo189  1  0.49466632  0.89519171  0.12974308  1
  Mo  Mo190  1  0.21326358  0.59824893  0.75240245  1
  Mo  Mo191  1  0.59761948  0.59772569  0.75675866  1
  Mo  Mo192  1  0.69841469  0.69277972  0.11566957  1
  Mo  Mo193  1  0.79975914  0.80036902  0.50559963  1
  Mo  Mo194  1  0.30762426  0.90268264  0.37280961  1
  Mo  Mo195  1  0.29871772  0.88614771  0.88190704  1
  Mo  Mo196  1  0.80295037  0.19940900  0.75015619  1
  Mo  Mo197  1  0.10050085  0.10280847  0.37581045  1
  Mo  Mo198  1  0.90401422  0.90719624  0.88257933  1
  Mo  Mo199  1  0.80246096  0.41171590  0.24649009  1
