# generated using pymatgen
data_HfZrTaTiMo
_symmetry_space_group_name_H-M   'P 1'
_cell_length_a   15.20639265
_cell_length_b   15.21884745
_cell_length_c   16.84951002
_cell_angle_alpha   89.97576751
_cell_angle_beta   90.06976531
_cell_angle_gamma   89.96044377
_symmetry_Int_Tables_number   1
_chemical_formula_structural   HfZrTaTiMo
_chemical_formula_sum   'Hf40 Zr40 Ta40 Ti40 Mo40'
_cell_volume   3899.37296229
_cell_formula_units_Z   40
loop_
 _symmetry_equiv_pos_site_id
 _symmetry_equiv_pos_as_xyz
  1  'x, y, z'
loop_
 _atom_site_type_symbol
 _atom_site_label
 _atom_site_symmetry_multiplicity
 _atom_site_fract_x
 _atom_site_fract_y
 _atom_site_fract_z
 _atom_site_occupancy
  Hf  Hf0  1  0.19986165  0.01299197  0.00014539  1
  Hf  Hf1  1  0.20716311  0.40247363  0.01529726  1
  Hf  Hf2  1  0.90130533  0.09532309  0.12754642  1
  Hf  Hf3  1  0.69261848  0.90103254  0.37604317  1
  Hf  Hf4  1  0.41006052  0.41298355  0.74509582  1
  Hf  Hf5  1  0.09149404  0.50798144  0.35868159  1
  Hf  Hf6  1  0.31243156  0.70577204  0.39006098  1
  Hf  Hf7  1  0.50272156  0.30251783  0.14556860  1
  Hf  Hf8  1  0.70965475  0.71328862  0.89708938  1
  Hf  Hf9  1  0.68282889  0.31198783  0.88246173  1
  Hf  Hf10  1  0.78073705  0.39421496  0.23283261  1
  Hf  Hf11  1  0.17341323  0.19787638  0.49135931  1
  Hf  Hf12  1  0.60534814  0.59134075  0.01558550  1
  Hf  Hf13  1  0.49743285  0.89164489  0.61762213  1
  Hf  Hf14  1  0.90649888  0.88933141  0.36944191  1
  Hf  Hf15  1  0.19369934  0.20798528  0.00253590  1
  Hf  Hf16  1  0.09452102  0.51725153  0.13242907  1
  Hf  Hf17  1  0.29594418  0.70155188  0.87633801  1
  Hf  Hf18  1  0.80036142  0.60873275  0.76144496  1
  Hf  Hf19  1  0.10679049  0.50039942  0.63532452  1
  Hf  Hf20  1  0.29233659  0.90568425  0.63491216  1
  Hf  Hf21  1  0.60939684  0.19418229  0.49946487  1
  Hf  Hf22  1  0.01151735  0.81013828  0.49952929  1
  Hf  Hf23  1  0.38440480  0.19825081  -0.00725769  1
  Hf  Hf24  1  0.19780203  0.62548225  0.24976292  1
  Hf  Hf25  1  0.39188668  -0.01058897  0.26412155  1
  Hf  Hf26  1  0.60621219  0.78717324  0.49674837  1
  Hf  Hf27  1  0.79886085  0.40562020  0.50268780  1
  Hf  Hf28  1  0.60076649  0.79761409  0.25499813  1
  Hf  Hf29  1  0.40845891  0.80368067  0.00103198  1
  Hf  Hf30  1  0.10918573  0.90704535  0.12745895  1
  Hf  Hf31  1  0.40912074  0.78182229  0.74367256  1
  Hf  Hf32  1  0.10496374  0.90360000  0.86938523  1
  Hf  Hf33  1  0.31212833  0.90560702  0.85577547  1
  Hf  Hf34  1  0.00071890  0.39376166  0.49560258  1
  Hf  Hf35  1  0.28329984  0.10017169  0.85476777  1
  Hf  Hf36  1  0.58083758  0.20033312  0.00042902  1
  Hf  Hf37  1  0.89845101  0.29669845  0.36336800  1
  Hf  Hf38  1  0.39687833  -0.00033288  0.00263059  1
  Hf  Hf39  1  0.08898479  0.70280074  0.88774619  1
  Zr  Zr40  1  0.29393086  0.10148208  0.62575476  1
  Zr  Zr41  1  0.79443690  0.19709329  0.00496132  1
  Zr  Zr42  1  0.19160871  0.60415231  0.49974805  1
  Zr  Zr43  1  0.79006142  -0.01123091  0.75924533  1
  Zr  Zr44  1  0.50362905  0.08877634  0.37830938  1
  Zr  Zr45  1  0.60534740  0.40442914  0.49443574  1
  Zr  Zr46  1  0.39961012  0.20332016  0.75194607  1
  Zr  Zr47  1  0.11511655  0.50054038  0.86833039  1
  Zr  Zr48  1  0.28232185  0.30887716  0.62616837  1
  Zr  Zr49  1  0.79405986  -0.00205276  0.24730662  1
  Zr  Zr50  1  0.48913427  0.30115133  0.60855131  1
  Zr  Zr51  1  -0.00205010  0.39800361  0.75662539  1
  Zr  Zr52  1  0.90749344  0.70504005  0.62553871  1
  Zr  Zr53  1  0.50179582  0.69761144  0.12492813  1
  Zr  Zr54  1  0.09233342  0.09755513  0.63907687  1
  Zr  Zr55  1  0.19214005  0.39867426  0.49145225  1
  Zr  Zr56  1  0.00581190  0.78273794  0.23915903  1
  Zr  Zr57  1  0.39886684  0.59238226  0.24802436  1
  Zr  Zr58  1  0.69438854  0.09525579  0.87489335  1
  Zr  Zr59  1  0.80082892  0.78721553  0.23367755  1
  Zr  Zr60  1  0.00007938  0.01815700  0.49280210  1
  Zr  Zr61  1  0.31370016  0.51246590  0.87380396  1
  Zr  Zr62  1  0.49005645  0.09728946  0.13963231  1
  Zr  Zr63  1  -0.01679505  -0.00853965  0.76185372  1
  Zr  Zr64  1  0.60159766  -0.01569266  -0.00003998  1
  Zr  Zr65  1  0.00448951  0.39858882  0.00758532  1
  Zr  Zr66  1  0.70475977  0.09456723  0.62590776  1
  Zr  Zr67  1  0.21494203  0.41219662  0.24495657  1
  Zr  Zr68  1  0.40496583  0.39499351  0.00763005  1
  Zr  Zr69  1  0.89544547  0.50554944  0.62583016  1
  Zr  Zr70  1  0.50018248  0.68255233  0.88298554  1
  Zr  Zr71  1  0.78532758  0.40535057  0.74830262  1
  Zr  Zr72  1  0.80012048  -0.00419499  0.49756493  1
  Zr  Zr73  1  0.61856479  0.20343296  0.25404810  1
  Zr  Zr74  1  0.88853220  0.51137768  0.36335727  1
  Zr  Zr75  1  0.51586283  0.47599683  0.88216800  1
  Zr  Zr76  1  0.89479628  0.30585005  0.88740796  1
  Zr  Zr77  1  0.49245538  0.30418133  0.37330417  1
  Zr  Zr78  1  0.62010122  0.78802117  0.74236155  1
  Zr  Zr79  1  0.59913516  0.20676363  0.74572805  1
  Ta  Ta80  1  0.30821356  0.70254184  0.61067519  1
  Ta  Ta81  1  0.71027701  0.10525259  0.37317716  1
  Ta  Ta82  1  0.70960967  0.50296406  0.89134079  1
  Ta  Ta83  1  0.90288576  0.51831881  0.89342952  1
  Ta  Ta84  1  0.29463815  0.71243265  0.12392974  1
  Ta  Ta85  1  0.69365376  0.09544722  0.12820346  1
  Ta  Ta86  1  0.90030753  0.29004623  0.62571488  1
  Ta  Ta87  1  0.29533050  0.29801054  0.37201778  1
  Ta  Ta88  1  0.09167522  0.70916081  0.37591708  1
  Ta  Ta89  1  0.39506616  0.79601279  0.25318027  1
  Ta  Ta90  1  -0.01146771  0.40616929  0.23499198  1
  Ta  Ta91  1  0.19263899  -0.00453933  0.48825660  1
  Ta  Ta92  1  0.58990054  -0.00748625  0.74422794  1
  Ta  Ta93  1  0.00013003  0.00413662  -0.00319256  1
  Ta  Ta94  1  0.51752472  0.88933608  0.86783942  1
  Ta  Ta95  1  0.81296090  0.20099432  0.49866242  1
  Ta  Ta96  1  0.49172874  0.09041263  0.61782715  1
  Ta  Ta97  1  0.29018535  0.31442995  0.86411538  1
  Ta  Ta98  1  0.48937006  0.08663638  0.86651352  1
  Ta  Ta99  1  0.09518679  0.10244437  0.35325711  1
  Ta  Ta100  1  0.08764576  0.11026684  0.86739899  1
  Ta  Ta101  1  0.20323019  0.81111381  0.49791256  1
  Ta  Ta102  1  0.31929005  0.50746482  0.60900389  1
  Ta  Ta103  1  0.51251723  0.50607123  0.61453586  1
  Ta  Ta104  1  0.60171527  0.58204142  0.75000543  1
  Ta  Ta105  1  0.50441693  0.90046698  0.13758567  1
  Ta  Ta106  1  0.70514888  0.67717642  0.61682949  1
  Ta  Ta107  1  0.09875636  0.29600814  0.14052292  1
  Ta  Ta108  1  -0.01078689  0.60674499  0.49457005  1
  Ta  Ta109  1  0.90197915  0.90245605  0.62353298  1
  Ta  Ta110  1  0.31454133  0.49543106  0.38759847  1
  Ta  Ta111  1  0.50419625  0.50505884  0.37259450  1
  Ta  Ta112  1  0.00605847  0.19537977  0.01038894  1
  Ta  Ta113  1  0.20766006  0.81240483  -0.00048394  1
  Ta  Ta114  1  0.82182253  0.79907762  0.75767106  1
  Ta  Ta115  1  0.81076118  0.20025224  0.75479902  1
  Ta  Ta116  1  0.90390151  0.89641004  0.11300426  1
  Ta  Ta117  1  0.10349800  0.10334001  0.14264511  1
  Ta  Ta118  1  0.80915877  0.78420190  0.49350573  1
  Ta  Ta119  1  0.20877156  0.60499942  0.00980236  1
  Ti  Ti120  1  0.38992278  0.19375841  0.49358098  1
  Ti  Ti121  1  0.48786064  0.88480741  0.38524515  1
  Ti  Ti122  1  0.50930656  0.69057205  0.37816379  1
  Ti  Ti123  1  0.69544901  0.50262021  0.36531914  1
  Ti  Ti124  1  0.38957039  -0.00782943  0.49353064  1
  Ti  Ti125  1  0.89365442  0.50425382  0.11013048  1
  Ti  Ti126  1  0.71570746  0.68587467  0.37385537  1
  Ti  Ti127  1  0.90030269  0.10137155  0.88314949  1
  Ti  Ti128  1  0.89961197  0.10612466  0.36333614  1
  Ti  Ti129  1  0.61686540  0.59627386  0.23815937  1
  Ti  Ti130  1  0.00372452  -0.00878078  0.25203413  1
  Ti  Ti131  1  0.59851768  -0.00505261  0.50410439  1
  Ti  Ti132  1  0.71027649  0.88388494  0.61909682  1
  Ti  Ti133  1  0.22435156  0.59951362  0.73671114  1
  Ti  Ti134  1  0.90177954  0.10528309  0.62866133  1
  Ti  Ti135  1  0.28864901  0.10040929  0.14135518  1
  Ti  Ti136  1  0.28872295  0.09895520  0.37377279  1
  Ti  Ti137  1  0.30243189  0.90391191  0.13168143  1
  Ti  Ti138  1  0.10451720  0.70473308  0.62745959  1
  Ti  Ti139  1  0.70348855  0.30271691  0.62605163  1
  Ti  Ti140  1  0.18270602  0.21427890  0.75104715  1
  Ti  Ti141  1  0.89132944  0.29909763  0.12089611  1
  Ti  Ti142  1  0.08355896  0.29576730  0.63017704  1
  Ti  Ti143  1  0.90738496  0.69585748  0.09460340  1
  Ti  Ti144  1  0.30190215  0.29596771  0.14032644  1
  Ti  Ti145  1  0.00015616  0.61732428  0.75782691  1
  Ti  Ti146  1  0.20716765  0.82161884  0.26725068  1
  Ti  Ti147  1  0.09852672  0.29906941  0.87306563  1
  Ti  Ti148  1  0.09671859  0.89861335  0.63728664  1
  Ti  Ti149  1  0.70616309  0.30158242  0.37421749  1
  Ti  Ti150  1  -0.00969411  0.20243286  0.23974337  1
  Ti  Ti151  1  0.19277365  0.79198569  0.74665361  1
  Ti  Ti152  1  0.80812026  0.60123501  0.22741607  1
  Ti  Ti153  1  0.09869346  0.71091094  0.10634341  1
  Ti  Ti154  1  0.89816876  0.87618003  0.89856453  1
  Ti  Ti155  1  0.50263855  0.68514290  0.61181869  1
  Ti  Ti156  1  0.09534122  0.29847030  0.35113094  1
  Ti  Ti157  1  0.50174293  0.49059445  0.13438230  1
  Ti  Ti158  1  0.79647420  -0.01078475  0.00153120  1
  Ti  Ti159  1  0.38867918  0.19958053  0.26049734  1
  Mo  Mo160  1  0.30326258  0.90247264  0.38483144  1
  Mo  Mo161  1  0.40282779  0.80158971  0.50697395  1
  Mo  Mo162  1  0.20579859  0.40296696  0.74256485  1
  Mo  Mo163  1  0.41339217  0.60000415  0.49573510  1
  Mo  Mo164  1  0.69437975  0.29979898  0.11592342  1
  Mo  Mo165  1  0.39422953  0.59648444  0.01726537  1
  Mo  Mo166  1  0.69572804  0.50034130  0.62563797  1
  Mo  Mo167  1  0.39973929  0.39872897  0.25262981  1
  Mo  Mo168  1  0.30766700  0.51251980  0.12284557  1
  Mo  Mo169  1  0.41086123  0.60393117  0.73569341  1
  Mo  Mo170  1  0.00618717  0.81196821  0.00796296  1
  Mo  Mo171  1  -0.01033542  0.20248577  0.75730662  1
  Mo  Mo172  1  0.69673551  0.90429560  0.12992783  1
  Mo  Mo173  1  0.79229661  0.80714875  0.01934769  1
  Mo  Mo174  1  -0.00570303  0.20495106  0.49189310  1
  Mo  Mo175  1  0.00196963  0.79527784  0.75068953  1
  Mo  Mo176  1  0.40886517  -0.00493617  0.74582115  1
  Mo  Mo177  1  0.60265197  0.40005718  0.74221239  1
  Mo  Mo178  1  0.60323095  0.39251956  0.01282838  1
  Mo  Mo179  1  0.80264454  0.60020919  0.00934435  1
  Mo  Mo180  1  0.59749272  -0.00629216  0.25219793  1
  Mo  Mo181  1  0.49008564  0.29004160  0.87296496  1
  Mo  Mo182  1  0.60063268  0.80589006  0.00828977  1
  Mo  Mo183  1  0.70507895  0.89586147  0.87404534  1
  Mo  Mo184  1  0.10353177  0.90417386  0.36910650  1
  Mo  Mo185  1  -0.00993229  0.60498948  0.23750076  1
  Mo  Mo186  1  0.78886964  0.40692038  0.01599091  1
  Mo  Mo187  1  0.90368493  0.69481692  0.37302130  1
  Mo  Mo188  1  0.61083603  0.59859134  0.48917851  1
  Mo  Mo189  1  0.69581393  0.50017522  0.12772955  1
  Mo  Mo190  1  0.70667098  0.70164611  0.11689839  1
  Mo  Mo191  1  0.59604880  0.41188388  0.26033102  1
  Mo  Mo192  1  0.90293389  0.70271599  0.89196996  1
  Mo  Mo193  1  0.00758225  0.60079369  -0.00064002  1
  Mo  Mo194  1  0.20049877  0.20285072  0.25556193  1
  Mo  Mo195  1  0.80264543  0.19817581  0.24159147  1
  Mo  Mo196  1  0.39609922  0.39928118  0.49671788  1
  Mo  Mo197  1  0.19958962  0.00058849  0.25794457  1
  Mo  Mo198  1  0.19367330  0.00125412  0.75008425  1
  Mo  Mo199  1  0.79409014  0.60006349  0.49333087  1
