# generated using pymatgen
data_HfZrTaTiMo
_symmetry_space_group_name_H-M   'P 1'
_cell_length_a   15.21075119
_cell_length_b   15.20377816
_cell_length_c   16.87053916
_cell_angle_alpha   90.06499475
_cell_angle_beta   90.00235329
_cell_angle_gamma   89.93078564
_symmetry_Int_Tables_number   1
_chemical_formula_structural   HfZrTaTiMo
_chemical_formula_sum   'Hf40 Zr40 Ta40 Ti40 Mo40'
_cell_volume   3901.49048504
_cell_formula_units_Z   40
loop_
 _symmetry_equiv_pos_site_id
 _symmetry_equiv_pos_as_xyz
  1  'x, y, z'
loop_
 _atom_site_type_symbol
 _atom_site_label
 _atom_site_symmetry_multiplicity
 _atom_site_fract_x
 _atom_site_fract_y
 _atom_site_fract_z
 _atom_site_occupancy
  Hf  Hf0  1  0.79140330  0.19039051  0.48886942  1
  Hf  Hf1  1  0.29664112  0.30259020  0.61897544  1
  Hf  Hf2  1  0.59174514  0.39468161  0.24124491  1
  Hf  Hf3  1  0.49936436  0.68806864  0.11912333  1
  Hf  Hf4  1  0.19432818  0.40054617  0.50494556  1
  Hf  Hf5  1  0.58901991  0.20473455  0.50930044  1
  Hf  Hf6  1  0.51019794  0.11121529  0.14167651  1
  Hf  Hf7  1  0.00511603  0.39604517  0.25665464  1
  Hf  Hf8  1  0.48849956  0.30235609  0.86534025  1
  Hf  Hf9  1  0.59562956  -0.00033263  0.74707246  1
  Hf  Hf10  1  0.30551722  0.52335924  0.11721097  1
  Hf  Hf11  1  0.28594997  0.09474282  0.38296449  1
  Hf  Hf12  1  0.71881732  0.48495043  0.12029008  1
  Hf  Hf13  1  0.00717152  0.79432842  0.22766023  1
  Hf  Hf14  1  0.80170112  0.78712227  0.23169691  1
  Hf  Hf15  1  0.89274179  0.28509466  0.62487592  1
  Hf  Hf16  1  0.28526058  0.30769848  0.38021491  1
  Hf  Hf17  1  0.22818091  0.59579445  0.26729962  1
  Hf  Hf18  1  0.82437690  0.59487656  -0.00080314  1
  Hf  Hf19  1  0.60385294  0.59496792  -0.01323840  1
  Hf  Hf20  1  0.88390006  0.31947238  0.13021964  1
  Hf  Hf21  1  0.48253793  0.31684760  0.38419888  1
  Hf  Hf22  1  0.91460076  0.89971574  0.36397426  1
  Hf  Hf23  1  0.79644765  0.79575705  0.50450010  1
  Hf  Hf24  1  0.28669024  0.09462764  0.60632026  1
  Hf  Hf25  1  0.19671498  0.40374695  0.75417551  1
  Hf  Hf26  1  0.39239250  0.21602095  0.24769995  1
  Hf  Hf27  1  0.60484171  0.00151243  0.48848642  1
  Hf  Hf28  1  0.19869366  -0.00430738  0.75509292  1
  Hf  Hf29  1  0.21660153  0.59258360  0.50113186  1
  Hf  Hf30  1  -0.01203945  0.18297296  0.76274955  1
  Hf  Hf31  1  0.08395893  0.31115909  0.88941459  1
  Hf  Hf32  1  0.39458349  -0.00222970  0.25404441  1
  Hf  Hf33  1  0.89082974  0.69603893  0.37105849  1
  Hf  Hf34  1  0.59768813  0.19116680  0.00453906  1
  Hf  Hf35  1  -0.01418124  -0.01854903  0.01431309  1
  Hf  Hf36  1  0.21073050  0.80278854  0.25151601  1
  Hf  Hf37  1  0.20185567  0.79646147  0.73588284  1
  Hf  Hf38  1  0.09137148  0.29018599  0.62716927  1
  Hf  Hf39  1  0.49291392  0.89434627  0.88197280  1
  Zr  Zr40  1  0.10842053  0.49401883  0.12987249  1
  Zr  Zr41  1  0.40180642  0.00657246  0.00885685  1
  Zr  Zr42  1  0.39161148  0.19732789  0.74138808  1
  Zr  Zr43  1  0.09060114  0.87108434  0.87997845  1
  Zr  Zr44  1  0.32690481  0.89935380  0.61373738  1
  Zr  Zr45  1  -0.01616861  0.19758325  0.00129822  1
  Zr  Zr46  1  0.59998641  0.80340378  0.76052149  1
  Zr  Zr47  1  0.81094377  0.59564320  0.76905709  1
  Zr  Zr48  1  0.69820426  0.69751014  0.63268185  1
  Zr  Zr49  1  0.59876487  0.38839332  0.00481667  1
  Zr  Zr50  1  0.79312959  0.40864539  0.48851470  1
  Zr  Zr51  1  0.60101312  0.60519011  0.49167615  1
  Zr  Zr52  1  0.89469317  0.49965531  0.63020062  1
  Zr  Zr53  1  0.19159640  0.19669249  0.76584188  1
  Zr  Zr54  1  -0.00183636  0.38801534  0.48636302  1
  Zr  Zr55  1  0.78603301  0.00847092  0.00720180  1
  Zr  Zr56  1  0.50910708  0.90119884  0.12861942  1
  Zr  Zr57  1  0.11888887  0.90961039  0.37569779  1
  Zr  Zr58  1  0.19809224  -0.00830640  -0.00324539  1
  Zr  Zr59  1  0.81608057  0.80553111  0.75743909  1
  Zr  Zr60  1  0.39905277  0.21050090  0.00691738  1
  Zr  Zr61  1  0.21154137  0.79480051  0.51078676  1
  Zr  Zr62  1  0.81555370  0.80668453  0.01208685  1
  Zr  Zr63  1  0.10363726  0.10202132  0.11997679  1
  Zr  Zr64  1  0.69733432  0.31224655  0.62882091  1
  Zr  Zr65  1  0.00192210  0.58917088  0.49015022  1
  Zr  Zr66  1  0.28542084  0.31740327  0.12051278  1
  Zr  Zr67  1  0.40082217  0.78698604  0.24614482  1
  Zr  Zr68  1  -0.01184515  0.39926633  0.75318014  1
  Zr  Zr69  1  0.80079341  0.00462386  0.75082058  1
  Zr  Zr70  1  0.59819833  0.60732203  0.77344106  1
  Zr  Zr71  1  0.59103367  0.19837280  0.73470101  1
  Zr  Zr72  1  0.61386550  0.60253611  0.25603709  1
  Zr  Zr73  1  0.10433614  0.70133038  0.37696928  1
  Zr  Zr74  1  0.08234060  0.08383871  0.62680585  1
  Zr  Zr75  1  0.81295836  0.00201633  0.49019607  1
  Zr  Zr76  1  0.69652419  0.29563378  0.86401930  1
  Zr  Zr77  1  0.89304010  0.28836372  0.35762931  1
  Zr  Zr78  1  0.70061446  0.88367879  0.36660298  1
  Zr  Zr79  1  0.68159132  0.30208212  0.37257999  1
  Ta  Ta80  1  0.69331206  0.50419779  0.63392812  1
  Ta  Ta81  1  0.09304478  0.30359798  0.10995913  1
  Ta  Ta82  1  0.18433652  0.21170802  0.25145984  1
  Ta  Ta83  1  0.31218150  0.70683685  0.86437445  1
  Ta  Ta84  1  0.50074801  0.71700871  0.37376869  1
  Ta  Ta85  1  0.70410059  0.09821567  0.62276848  1
  Ta  Ta86  1  0.00157006  -0.00442553  0.23205310  1
  Ta  Ta87  1  0.70297318  0.69467500  0.11339533  1
  Ta  Ta88  1  0.01033398  0.78503248  0.02672950  1
  Ta  Ta89  1  0.02790547  0.59631385  -0.00547708  1
  Ta  Ta90  1  0.19902704  0.20194326  -0.01249131  1
  Ta  Ta91  1  0.90907433  0.69823399  0.62559324  1
  Ta  Ta92  1  0.93203576  0.71299245  0.88095751  1
  Ta  Ta93  1  0.60673448  0.80166229  0.00019860  1
  Ta  Ta94  1  0.49756153  0.09696147  0.87328394  1
  Ta  Ta95  1  0.59012687  0.80556947  0.50309044  1
  Ta  Ta96  1  0.21468107  0.59729974  0.73895643  1
  Ta  Ta97  1  0.00880152  -0.00080406  0.49490001  1
  Ta  Ta98  1  0.39563097  0.79680656  0.00545543  1
  Ta  Ta99  1  0.48831286  0.08313502  0.61363771  1
  Ta  Ta100  1  0.10136073  0.50129259  0.62850594  1
  Ta  Ta101  1  0.88804568  0.09435237  0.88304620  1
  Ta  Ta102  1  0.01807391  0.60861432  0.75838288  1
  Ta  Ta103  1  0.29299033  0.89641042  0.12177873  1
  Ta  Ta104  1  0.78456838  0.20881493  0.01245654  1
  Ta  Ta105  1  0.79566295  0.59739984  0.49381346  1
  Ta  Ta106  1  0.49224016  0.52193008  0.63330378  1
  Ta  Ta107  1  0.32367041  0.89040210  0.39201615  1
  Ta  Ta108  1  0.49913255  0.10933357  0.37208236  1
  Ta  Ta109  1  0.39685028  0.41181084  -0.00559054  1
  Ta  Ta110  1  -0.00610769  -0.02114424  0.76110054  1
  Ta  Ta111  1  -0.01769042  0.18210559  0.49036274  1
  Ta  Ta112  1  0.59156658  0.41207801  0.74881740  1
  Ta  Ta113  1  0.91537185  0.90472245  0.62272684  1
  Ta  Ta114  1  0.00297661  0.59492647  0.25190863  1
  Ta  Ta115  1  0.09972680  0.69569436  0.62151566  1
  Ta  Ta116  1  0.30564335  0.09930024  0.87626552  1
  Ta  Ta117  1  0.88267263  0.10342147  0.13729552  1
  Ta  Ta118  1  0.08065703  0.10226904  0.36221696  1
  Ta  Ta119  1  0.00137281  0.80166445  0.50546256  1
  Ti  Ti120  1  0.77238832  0.19988857  0.24416165  1
  Ti  Ti121  1  0.49738373  0.49534337  0.12211674  1
  Ti  Ti122  1  0.91641640  0.49154183  0.88178686  1
  Ti  Ti123  1  0.48737068  0.71988843  0.63398810  1
  Ti  Ti124  1  0.39548827  0.20062541  0.50128924  1
  Ti  Ti125  1  0.71346348  0.48427395  0.87805133  1
  Ti  Ti126  1  0.30052492  0.89779656  0.87536469  1
  Ti  Ti127  1  0.69854247  0.90176533  0.62265727  1
  Ti  Ti128  1  0.39162075  0.41858606  0.74508681  1
  Ti  Ti129  1  0.81218898  0.58666937  0.24302592  1
  Ti  Ti130  1  0.29420030  0.10708418  0.12673968  1
  Ti  Ti131  1  0.59969836  -0.00061770  0.00077306  1
  Ti  Ti132  1  0.70696749  0.90543755  0.88102850  1
  Ti  Ti133  1  -0.00685867  0.19585944  0.23808957  1
  Ti  Ti134  1  0.79897023  0.00150835  0.25178350  1
  Ti  Ti135  1  0.40005462  -0.00762961  0.75084469  1
  Ti  Ti136  1  0.39822500  0.60706407  -0.01110488  1
  Ti  Ti137  1  0.19799327  0.00395857  0.24117607  1
  Ti  Ti138  1  0.48744227  0.50429795  0.87084452  1
  Ti  Ti139  1  0.39559201  0.42572683  0.50725036  1
  Ti  Ti140  1  0.49207325  0.51188825  0.37127976  1
  Ti  Ti141  1  0.29623783  0.30891397  0.87967000  1
  Ti  Ti142  1  0.49145857  0.31876686  0.62272753  1
  Ti  Ti143  1  0.17176628  0.19367543  0.49103809  1
  Ti  Ti144  1  0.79719920  0.19737387  0.74885796  1
  Ti  Ti145  1  0.38593674  0.41937274  0.25062084  1
  Ti  Ti146  1  0.12667291  0.68678059  0.12883198  1
  Ti  Ti147  1  0.71475453  0.70801108  0.88928186  1
  Ti  Ti148  1  0.60513755  0.79840083  0.24560093  1
  Ti  Ti149  1  0.59259396  0.41714783  0.50428620  1
  Ti  Ti150  1  0.69981235  0.90872464  0.13176427  1
  Ti  Ti151  1  0.40297006  0.61763375  0.50208739  1
  Ti  Ti152  1  0.19053046  0.41940198  -0.01202640  1
  Ti  Ti153  1  0.60728826  0.01063341  0.26409050  1
  Ti  Ti154  1  0.09224494  0.08809593  0.88419116  1
  Ti  Ti155  1  0.88237278  0.30286102  0.88098724  1
  Ti  Ti156  1  0.69384753  0.10234737  0.87275596  1
  Ti  Ti157  1  0.20389941  0.78216205  0.00328019  1
  Ti  Ti158  1  0.11679142  0.48409187  0.36609249  1
  Ti  Ti159  1  0.29382958  0.51140367  0.87528284  1
  Mo  Mo160  1  0.40257934  0.60551655  0.75712635  1
  Mo  Mo161  1  0.41231047  0.00595126  0.48510108  1
  Mo  Mo162  1  0.89482516  0.09461613  0.62486280  1
  Mo  Mo163  1  0.70676735  0.50510898  0.36670841  1
  Mo  Mo164  1  0.79155705  0.40219475  0.75592571  1
  Mo  Mo165  1  0.70024759  0.69856081  0.37365524  1
  Mo  Mo166  1  0.89929220  0.50258402  0.36606459  1
  Mo  Mo167  1  0.31675240  0.68778190  0.63446379  1
  Mo  Mo168  1  0.21138000  0.60868576  -0.00860752  1
  Mo  Mo169  1  0.69507596  0.10323637  0.36567597  1
  Mo  Mo170  1  0.49980839  0.70191297  0.89381481  1
  Mo  Mo171  1  0.19847679  0.00208919  0.49424239  1
  Mo  Mo172  1  0.79434538  0.41020637  0.25899778  1
  Mo  Mo173  1  0.11047105  0.89210973  0.12313213  1
  Mo  Mo174  1  0.91342961  0.50330989  0.12347528  1
  Mo  Mo175  1  -0.00846722  0.40985322  0.00061232  1
  Mo  Mo176  1  0.80571672  0.39490035  -0.00630441  1
  Mo  Mo177  1  0.30815597  0.49790190  0.62778496  1
  Mo  Mo178  1  0.10434613  0.50747127  0.87034153  1
  Mo  Mo179  1  0.00454698  0.79366631  0.74032107  1
  Mo  Mo180  1  0.50483416  0.90495169  0.36547835  1
  Mo  Mo181  1  0.51033583  0.90415273  0.62392708  1
  Mo  Mo182  1  0.09943395  0.89453896  0.61989545  1
  Mo  Mo183  1  0.30541089  0.70275781  0.12036581  1
  Mo  Mo184  1  0.11837960  0.69137382  0.87371202  1
  Mo  Mo185  1  0.31722451  0.69369042  0.38203190  1
  Mo  Mo186  1  0.89630956  0.90070626  0.13831352  1
  Mo  Mo187  1  0.41551358  0.79693088  0.49862141  1
  Mo  Mo188  1  0.91163392  0.67907223  0.12485677  1
  Mo  Mo189  1  0.20357319  0.39449375  0.25069643  1
  Mo  Mo190  1  0.31761033  0.49480056  0.38199161  1
  Mo  Mo191  1  0.58722122  0.20202352  0.25605973  1
  Mo  Mo192  1  0.69562284  0.09601305  0.13763346  1
  Mo  Mo193  1  0.48879158  0.31481055  0.12721714  1
  Mo  Mo194  1  0.89845028  0.09418264  0.34793920  1
  Mo  Mo195  1  0.90206424  0.89740276  0.88116680  1
  Mo  Mo196  1  0.41679609  0.59430567  0.25268502  1
  Mo  Mo197  1  0.40189350  0.80429416  0.75622617  1
  Mo  Mo198  1  0.69067722  0.28870998  0.13145555  1
  Mo  Mo199  1  0.09698233  0.28599263  0.37393719  1
