# generated using pymatgen
data_HfZrTaTiMo
_symmetry_space_group_name_H-M   'P 1'
_cell_length_a   15.20084189
_cell_length_b   15.20037302
_cell_length_c   16.86646507
_cell_angle_alpha   89.96581210
_cell_angle_beta   89.93468272
_cell_angle_gamma   89.96688942
_symmetry_Int_Tables_number   1
_chemical_formula_structural   HfZrTaTiMo
_chemical_formula_sum   'Hf40 Zr40 Ta40 Ti40 Mo40'
_cell_volume   3897.13568685
_cell_formula_units_Z   40
loop_
 _symmetry_equiv_pos_site_id
 _symmetry_equiv_pos_as_xyz
  1  'x, y, z'
loop_
 _atom_site_type_symbol
 _atom_site_label
 _atom_site_symmetry_multiplicity
 _atom_site_fract_x
 _atom_site_fract_y
 _atom_site_fract_z
 _atom_site_occupancy
  Hf  Hf0  1  0.70153776  0.89649551  0.60703782  1
  Hf  Hf1  1  0.28303671  0.50340563  0.37802204  1
  Hf  Hf2  1  0.46742214  0.09595427  0.37519081  1
  Hf  Hf3  1  0.31285873  0.30485871  0.87003433  1
  Hf  Hf4  1  0.89852275  0.30830525  0.11035442  1
  Hf  Hf5  1  0.41247913  0.21310291  -0.00014533  1
  Hf  Hf6  1  0.30404938  0.70834412  0.38325565  1
  Hf  Hf7  1  0.59055368  -0.00664149  0.48837413  1
  Hf  Hf8  1  0.59389796  0.60403838  -0.00174061  1
  Hf  Hf9  1  0.79835929  0.21359482  0.25017427  1
  Hf  Hf10  1  0.89393426  0.10023637  0.89051827  1
  Hf  Hf11  1  0.70046060  0.08377666  0.88598342  1
  Hf  Hf12  1  0.70607667  0.10297582  0.61417173  1
  Hf  Hf13  1  0.59570825  0.20331616  0.49480367  1
  Hf  Hf14  1  0.60982747  0.79261577  0.26953880  1
  Hf  Hf15  1  0.48599724  0.09199627  0.62375882  1
  Hf  Hf16  1  0.30372393  0.70611978  0.10852154  1
  Hf  Hf17  1  0.40146935  0.58683223  0.73908145  1
  Hf  Hf18  1  0.28602559  0.28638752  0.37043961  1
  Hf  Hf19  1  0.70959274  0.70777178  0.12615641  1
  Hf  Hf20  1  0.28456550  0.69577951  0.63586952  1
  Hf  Hf21  1  0.01429215  0.58721006  0.24890587  1
  Hf  Hf22  1  0.70077100  0.71186036  0.87163955  1
  Hf  Hf23  1  0.70785783  0.30715434  0.62560084  1
  Hf  Hf24  1  0.30690180  0.90717329  0.63387656  1
  Hf  Hf25  1  0.89497552  0.90000031  0.13544491  1
  Hf  Hf26  1  0.20775772  0.79199541  0.24891504  1
  Hf  Hf27  1  0.50139513  0.68565358  0.86119032  1
  Hf  Hf28  1  0.40940786  0.79906778  -0.01287737  1
  Hf  Hf29  1  0.01632409  -0.01682486  0.00217573  1
  Hf  Hf30  1  0.60095438  0.00131244  0.25839249  1
  Hf  Hf31  1  0.29473802  0.91476056  0.11965586  1
  Hf  Hf32  1  0.10332537  0.68868670  0.12013858  1
  Hf  Hf33  1  -0.01391881  0.78341209  0.00285412  1
  Hf  Hf34  1  0.49862309  0.49002448  0.38404475  1
  Hf  Hf35  1  0.09264849  0.70381351  0.86539774  1
  Hf  Hf36  1  0.39622053  0.00879560  -0.01173453  1
  Hf  Hf37  1  0.11569783  0.51134289  0.65271369  1
  Hf  Hf38  1  -0.01077834  0.21647229  0.76907176  1
  Hf  Hf39  1  0.51629811  0.89749720  0.86699212  1
  Zr  Zr40  1  0.80142163  0.42022443  0.25779918  1
  Zr  Zr41  1  0.69652170  0.10199564  0.12189848  1
  Zr  Zr42  1  0.60231095  0.38737021  0.25621620  1
  Zr  Zr43  1  0.40066889  0.80454460  0.50826654  1
  Zr  Zr44  1  0.70665034  0.49599425  0.11053947  1
  Zr  Zr45  1  0.39354639  0.39147881  0.25419846  1
  Zr  Zr46  1  0.37401009  0.19286752  0.51188132  1
  Zr  Zr47  1  0.90606890  0.10723415  0.37210733  1
  Zr  Zr48  1  0.61185208  0.00226609  0.74652509  1
  Zr  Zr49  1  0.62618624  0.58895187  0.26668418  1
  Zr  Zr50  1  0.69970729  0.50420001  0.87807434  1
  Zr  Zr51  1  0.49786106  0.88643802  0.13814983  1
  Zr  Zr52  1  0.10838521  0.10114840  0.12172050  1
  Zr  Zr53  1  0.48504423  0.88906416  0.36559664  1
  Zr  Zr54  1  0.09278999  0.11754881  0.63407111  1
  Zr  Zr55  1  0.81789391  0.59751794  0.50386927  1
  Zr  Zr56  1  0.10293791  0.68609957  0.37774605  1
  Zr  Zr57  1  0.21631191  0.01387494  0.50643333  1
  Zr  Zr58  1  -0.00215827  0.00529937  0.50916559  1
  Zr  Zr59  1  0.59397111  0.37079684  -0.00295974  1
  Zr  Zr60  1  0.61115955  -0.02649153  0.00800614  1
  Zr  Zr61  1  0.81158862  0.39291584  0.75742481  1
  Zr  Zr62  1  0.90660143  0.50867735  0.11383454  1
  Zr  Zr63  1  0.79957598  0.00244614  0.25780079  1
  Zr  Zr64  1  0.70893466  0.69534864  0.61802332  1
  Zr  Zr65  1  0.21443400  0.02440063  0.25228182  1
  Zr  Zr66  1  0.10650960  0.08813979  0.87501608  1
  Zr  Zr67  1  0.89685927  0.89800272  0.87493897  1
  Zr  Zr68  1  0.48540312  0.48196798  0.11239003  1
  Zr  Zr69  1  0.10335354  0.11686047  0.37327713  1
  Zr  Zr70  1  0.40414742  0.39370624  0.73376419  1
  Zr  Zr71  1  0.10039134  0.89973298  0.37190085  1
  Zr  Zr72  1  0.50216015  0.68873306  0.13003655  1
  Zr  Zr73  1  0.19709940  0.40257660  0.50995330  1
  Zr  Zr74  1  0.28294770  0.50985809  0.11176463  1
  Zr  Zr75  1  0.29178508  0.30638822  0.12003922  1
  Zr  Zr76  1  -0.00835071  -0.00050581  0.74178891  1
  Zr  Zr77  1  0.69211408  0.28904926  0.86746204  1
  Zr  Zr78  1  0.39225625  0.60258371  0.25310091  1
  Zr  Zr79  1  0.50775944  0.69539698  0.62631947  1
  Ta  Ta80  1  0.79117711  0.20935705  0.00240734  1
  Ta  Ta81  1  0.29746669  0.70306923  0.87041450  1
  Ta  Ta82  1  -0.00012586  0.40824699  0.50982115  1
  Ta  Ta83  1  0.08963628  0.31274622  0.37507649  1
  Ta  Ta84  1  0.09700118  0.30585311  0.11230447  1
  Ta  Ta85  1  0.50513623  0.11890983  0.87013567  1
  Ta  Ta86  1  0.20509213  0.19584829  -0.00986279  1
  Ta  Ta87  1  0.91900573  0.49982494  0.37910558  1
  Ta  Ta88  1  0.08999036  0.31879770  0.64636988  1
  Ta  Ta89  1  0.61015036  0.59226667  0.49233915  1
  Ta  Ta90  1  0.28806706  0.90402443  0.87008679  1
  Ta  Ta91  1  0.40067816  0.00444019  0.76121026  1
  Ta  Ta92  1  0.81471226  0.61724919  -0.00457851  1
  Ta  Ta93  1  0.10182944  0.89401606  0.62319259  1
  Ta  Ta94  1  0.60645976  0.40370972  0.50495212  1
  Ta  Ta95  1  0.89230359  0.69858588  0.86285283  1
  Ta  Ta96  1  0.50485773  0.89668403  0.63188674  1
  Ta  Ta97  1  0.79941473  0.79601745  0.26847760  1
  Ta  Ta98  1  0.50380912  0.27767699  0.13424940  1
  Ta  Ta99  1  0.39784069  0.39629230  0.51253745  1
  Ta  Ta100  1  0.90549710  0.29260952  0.62549663  1
  Ta  Ta101  1  0.19938056  -0.00022098  0.74586490  1
  Ta  Ta102  1  0.50197592  0.29801723  0.61957815  1
  Ta  Ta103  1  0.60965669  0.79663473  0.74367483  1
  Ta  Ta104  1  0.90277120  0.30791258  0.38019162  1
  Ta  Ta105  1  0.00293255  0.38813152  0.24663830  1
  Ta  Ta106  1  0.90814018  0.49172833  0.63692374  1
  Ta  Ta107  1  0.59191719  0.20773722  0.74060986  1
  Ta  Ta108  1  0.49133092  0.48297644  0.87951311  1
  Ta  Ta109  1  -0.00519465  0.78893796  0.51223606  1
  Ta  Ta110  1  0.00098503  0.39957359  -0.02706794  1
  Ta  Ta111  1  0.39692323  0.58936332  0.51249698  1
  Ta  Ta112  1  0.80505595  0.80497753  0.74090262  1
  Ta  Ta113  1  0.18712343  0.81652971  -0.00798334  1
  Ta  Ta114  1  0.19220835  0.80039792  0.50713199  1
  Ta  Ta115  1  0.91146060  0.89689969  0.37008829  1
  Ta  Ta116  1  0.37842159  0.18170767  0.24041868  1
  Ta  Ta117  1  0.91014000  0.69877186  0.36813376  1
  Ta  Ta118  1  0.49990779  0.68818049  0.38363175  1
  Ta  Ta119  1  0.78366511  0.81894255  0.00222246  1
  Ti  Ti120  1  0.20056029  0.20755838  0.75756258  1
  Ti  Ti121  1  0.09737291  0.48937764  0.11074950  1
  Ti  Ti122  1  0.80620846  0.40384282  0.50198891  1
  Ti  Ti123  1  0.00488458  0.59235373  -0.01389973  1
  Ti  Ti124  1  0.18490695  0.21165112  0.51321806  1
  Ti  Ti125  1  0.28650463  0.29917446  0.63874336  1
  Ti  Ti126  1  -0.00438736  0.79998937  0.73458786  1
  Ti  Ti127  1  0.80759846  0.20369072  0.49797079  1
  Ti  Ti128  1  0.80269544  -0.00127388  0.74149658  1
  Ti  Ti129  1  0.49017529  0.09080393  0.12896852  1
  Ti  Ti130  1  0.19119547  0.80275581  0.75096053  1
  Ti  Ti131  1  0.70246845  0.30632166  0.38341790  1
  Ti  Ti132  1  0.29843467  0.50483587  0.87295624  1
  Ti  Ti133  1  0.69969899  0.10636859  0.38019597  1
  Ti  Ti134  1  0.79425307  0.59957968  0.74034946  1
  Ti  Ti135  1  0.80262761  0.00145038  0.48793452  1
  Ti  Ti136  1  0.30273036  0.91508082  0.37377089  1
  Ti  Ti137  1  0.09350756  0.89446505  0.14221040  1
  Ti  Ti138  1  0.59322810  0.19758232  0.26305412  1
  Ti  Ti139  1  0.19553232  0.60198024  -0.02054966  1
  Ti  Ti140  1  0.60770715  0.79253373  0.48439296  1
  Ti  Ti141  1  0.90184852  0.70284360  0.14405761  1
  Ti  Ti142  1  0.90063625  0.50565352  0.87116087  1
  Ti  Ti143  1  0.00529030  0.20555834  -0.00789522  1
  Ti  Ti144  1  0.90408556  0.10226645  0.11742712  1
  Ti  Ti145  1  0.30403636  0.10460022  0.86496539  1
  Ti  Ti146  1  0.89519475  0.90133925  0.61519982  1
  Ti  Ti147  1  0.79807419  0.18769728  0.74976005  1
  Ti  Ti148  1  0.19245337  0.39958314  -0.02042939  1
  Ti  Ti149  1  -0.00255487  0.21367521  0.50598440  1
  Ti  Ti150  1  0.00826790  0.60023064  0.51671063  1
  Ti  Ti151  1  0.80577039  0.80085656  0.48369762  1
  Ti  Ti152  1  0.48971298  0.29410113  0.38078520  1
  Ti  Ti153  1  0.19606069  0.60136010  0.51066308  1
  Ti  Ti154  1  0.59993160  0.41752570  0.73731488  1
  Ti  Ti155  1  0.18422010  0.41339256  0.24897974  1
  Ti  Ti156  1  -0.00689464  0.60458133  0.74768032  1
  Ti  Ti157  1  0.69615310  0.29838211  0.12296502  1
  Ti  Ti158  1  0.40058269  0.80339017  0.75372845  1
  Ti  Ti159  1  0.00234910  0.19910581  0.24079775  1
  Mo  Mo160  1  0.88769003  0.10612108  0.62101157  1
  Mo  Mo161  1  0.71188055  0.89651273  0.86623131  1
  Mo  Mo162  1  0.29284621  0.10625181  0.64797329  1
  Mo  Mo163  1  0.39686727  -0.00098257  0.24262809  1
  Mo  Mo164  1  0.09412744  0.49388996  0.38200956  1
  Mo  Mo165  1  0.10234634  0.50312158  0.85997873  1
  Mo  Mo166  1  0.09663362  0.70444989  0.63194516  1
  Mo  Mo167  1  -0.00023389  0.40621238  0.76956267  1
  Mo  Mo168  1  0.81086090  0.60674719  0.26189645  1
  Mo  Mo169  1  0.80617378  0.40456605  -0.01133061  1
  Mo  Mo170  1  0.81066759  0.00318141  0.01237394  1
  Mo  Mo171  1  0.10738281  0.29823896  0.87839533  1
  Mo  Mo172  1  0.71496071  0.49181373  0.38807878  1
  Mo  Mo173  1  0.39531089  -0.00562014  0.50626901  1
  Mo  Mo174  1  0.30174054  0.49777718  0.62295041  1
  Mo  Mo175  1  0.51112738  0.49660810  0.61100728  1
  Mo  Mo176  1  0.39468676  0.79875060  0.25462827  1
  Mo  Mo177  1  0.00021485  0.80019463  0.24936110  1
  Mo  Mo178  1  0.29067526  0.10504005  0.37628491  1
  Mo  Mo179  1  0.70940703  0.90170687  0.39039433  1
  Mo  Mo180  1  0.50433738  0.30037985  0.86146777  1
  Mo  Mo181  1  0.20019877  0.39942794  0.76207818  1
  Mo  Mo182  1  0.90595767  0.70203950  0.63382749  1
  Mo  Mo183  1  0.20156049  0.59456739  0.24524006  1
  Mo  Mo184  1  0.39871325  0.19556818  0.74254678  1
  Mo  Mo185  1  0.10196431  0.89163054  0.86615555  1
  Mo  Mo186  1  0.20513484  0.60549234  0.76473463  1
  Mo  Mo187  1  0.39354307  0.40465697  -0.00547702  1
  Mo  Mo188  1  0.38860833  0.59681776  -0.01870887  1
  Mo  Mo189  1  0.60547200  0.59095018  0.74751603  1
  Mo  Mo190  1  0.30423372  0.11060869  0.11229928  1
  Mo  Mo191  1  0.70680567  0.49753952  0.62550311  1
  Mo  Mo192  1  0.89269997  0.29886242  0.89165401  1
  Mo  Mo193  1  0.00096963  0.00108111  0.24441460  1
  Mo  Mo194  1  0.20529214  -0.00074140  -0.00537282  1
  Mo  Mo195  1  0.70862438  0.69642486  0.38965080  1
  Mo  Mo196  1  0.18465651  0.22676780  0.24332142  1
  Mo  Mo197  1  0.70381696  0.89060039  0.13652997  1
  Mo  Mo198  1  0.60199571  0.79312849  -0.00067977  1
  Mo  Mo199  1  0.59582352  0.18654819  0.00542930  1
