# generated using pymatgen
data_HfZrTaTiMo
_symmetry_space_group_name_H-M   'P 1'
_cell_length_a   15.19481520
_cell_length_b   15.18960231
_cell_length_c   16.82553050
_cell_angle_alpha   89.99373645
_cell_angle_beta   89.98152340
_cell_angle_gamma   90.01202154
_symmetry_Int_Tables_number   1
_chemical_formula_structural   HfZrTaTiMo
_chemical_formula_sum   'Hf40 Zr40 Ta40 Ti40 Mo40'
_cell_volume   3883.38597013
_cell_formula_units_Z   40
loop_
 _symmetry_equiv_pos_site_id
 _symmetry_equiv_pos_as_xyz
  1  'x, y, z'
loop_
 _atom_site_type_symbol
 _atom_site_label
 _atom_site_symmetry_multiplicity
 _atom_site_fract_x
 _atom_site_fract_y
 _atom_site_fract_z
 _atom_site_occupancy
  Hf  Hf0  1  -0.01355663  -0.00163245  0.75287127  1
  Hf  Hf1  1  0.20328852  0.60001805  0.24977033  1
  Hf  Hf2  1  0.30529555  0.70312491  0.37532068  1
  Hf  Hf3  1  0.61700821  0.40607100  0.24652375  1
  Hf  Hf4  1  0.60316842  0.20216246  0.76341540  1
  Hf  Hf5  1  0.69212616  0.11062169  0.14067643  1
  Hf  Hf6  1  0.30301273  0.07680568  0.36721278  1
  Hf  Hf7  1  0.30022780  0.90491464  0.63360589  1
  Hf  Hf8  1  -0.01027729  0.59762244  0.25428580  1
  Hf  Hf9  1  0.19459138  0.01628588  0.75023983  1
  Hf  Hf10  1  0.41397358  0.17892715  0.24483622  1
  Hf  Hf11  1  0.59544528  0.00211698  0.01007192  1
  Hf  Hf12  1  0.18991421  0.79380995  0.73598177  1
  Hf  Hf13  1  0.20398781  0.40713530  0.73805026  1
  Hf  Hf14  1  0.19548866  0.00653726  0.51255302  1
  Hf  Hf15  1  0.49403278  0.29681515  0.62439319  1
  Hf  Hf16  1  0.69277777  0.69403105  0.39167882  1
  Hf  Hf17  1  0.89999637  0.50007155  0.87224936  1
  Hf  Hf18  1  0.20394238  0.80289274  0.00348020  1
  Hf  Hf19  1  0.30896316  0.69934951  0.11990911  1
  Hf  Hf20  1  0.21254852  0.59669293  0.51167998  1
  Hf  Hf21  1  0.80991762  0.39088732  0.73521237  1
  Hf  Hf22  1  0.41001823  0.00283014  0.50388248  1
  Hf  Hf23  1  0.51055083  0.28509305  0.37188565  1
  Hf  Hf24  1  -0.01452064  0.79115059  0.74363267  1
  Hf  Hf25  1  0.60703556  0.17779493  0.50650076  1
  Hf  Hf26  1  0.46969890  0.90103659  0.11061310  1
  Hf  Hf27  1  0.79666676  0.81858768  0.50263791  1
  Hf  Hf28  1  0.21286635  0.39348100  0.50191180  1
  Hf  Hf29  1  0.70924247  0.31563996  0.88471350  1
  Hf  Hf30  1  0.01758551  0.19099059  -0.01618497  1
  Hf  Hf31  1  0.70764189  0.49897614  0.40002699  1
  Hf  Hf32  1  0.91855749  0.30237671  0.11069773  1
  Hf  Hf33  1  0.89967528  0.69732130  0.39380491  1
  Hf  Hf34  1  0.01693908  0.58916650  0.74343594  1
  Hf  Hf35  1  0.09372615  0.70707428  0.12997757  1
  Hf  Hf36  1  0.89211484  0.89254919  0.12752630  1
  Hf  Hf37  1  0.09837926  0.49536785  0.38262268  1
  Hf  Hf38  1  0.39663992  0.20414731  0.76139252  1
  Hf  Hf39  1  0.88983310  0.49258300  0.11570764  1
  Zr  Zr40  1  0.68379874  0.91549930  0.36871033  1
  Zr  Zr41  1  0.58227247  0.81060851  0.49816689  1
  Zr  Zr42  1  0.59786665  0.61948429  0.24588760  1
  Zr  Zr43  1  0.87191390  0.11393229  0.63687087  1
  Zr  Zr44  1  0.71705425  0.30048656  0.37292149  1
  Zr  Zr45  1  0.80864892  0.18911654  -0.00007006  1
  Zr  Zr46  1  0.10910652  0.68513345  0.87137917  1
  Zr  Zr47  1  0.80164089  0.60918057  0.73922000  1
  Zr  Zr48  1  0.79775376  0.62662608  -0.00393041  1
  Zr  Zr49  1  0.79202964  0.79292272  0.26084824  1
  Zr  Zr50  1  0.67862568  0.11137273  0.34735405  1
  Zr  Zr51  1  0.81574317  0.37098076  0.52339075  1
  Zr  Zr52  1  0.71110915  0.32714700  0.10800032  1
  Zr  Zr53  1  0.68850001  0.70006615  0.61243387  1
  Zr  Zr54  1  0.89997772  0.49503753  0.39689106  1
  Zr  Zr55  1  0.31202709  0.68624460  0.88327609  1
  Zr  Zr56  1  0.49768612  0.88869367  0.88870221  1
  Zr  Zr57  1  0.50595752  0.50091361  0.38036110  1
  Zr  Zr58  1  0.10567612  0.91237090  0.38224719  1
  Zr  Zr59  1  0.21213720  0.82873121  0.24492965  1
  Zr  Zr60  1  0.51870745  0.68411112  0.88485577  1
  Zr  Zr61  1  0.60093163  0.19897379  -0.00414259  1
  Zr  Zr62  1  0.19942991  0.38472023  0.25970454  1
  Zr  Zr63  1  0.39819602  0.77323037  0.74580151  1
  Zr  Zr64  1  0.10028057  0.70445764  0.38317548  1
  Zr  Zr65  1  0.91378873  0.09429964  0.12739775  1
  Zr  Zr66  1  0.88869940  0.10464235  0.37027143  1
  Zr  Zr67  1  -0.01791166  0.79317127  -0.00808899  1
  Zr  Zr68  1  0.00459876  0.59582475  -0.00553227  1
  Zr  Zr69  1  0.50139011  0.49501829  0.11733129  1
  Zr  Zr70  1  0.09598952  0.92282972  0.11808297  1
  Zr  Zr71  1  0.09892896  0.49077116  0.13000572  1
  Zr  Zr72  1  0.08964309  0.90205941  0.87381236  1
  Zr  Zr73  1  0.49910258  0.89429051  0.63084739  1
  Zr  Zr74  1  0.29875996  0.89808915  0.87152906  1
  Zr  Zr75  1  0.59101300  0.41220638  0.74509484  1
  Zr  Zr76  1  0.60367810  0.79339181  0.74481078  1
  Zr  Zr77  1  0.68399290  0.51725892  0.87810872  1
  Zr  Zr78  1  0.20368503  0.20423022  0.49350034  1
  Zr  Zr79  1  0.30472119  0.31409354  0.88231987  1
  Ta  Ta80  1  0.47830286  0.90597219  0.36499586  1
  Ta  Ta81  1  0.59833314  0.00058377  0.75875426  1
  Ta  Ta82  1  0.91688731  0.50315188  0.61452254  1
  Ta  Ta83  1  -0.01067552  0.19991288  0.50658296  1
  Ta  Ta84  1  0.69769029  0.92908520  0.62184526  1
  Ta  Ta85  1  0.87436311  0.89316285  0.87526766  1
  Ta  Ta86  1  0.69948593  0.50045480  0.61163847  1
  Ta  Ta87  1  0.20283370  0.80292900  0.51421273  1
  Ta  Ta88  1  0.30325376  0.28590898  0.11861538  1
  Ta  Ta89  1  0.50020408  0.30958578  0.89171856  1
  Ta  Ta90  1  0.08321479  0.10672309  0.62569392  1
  Ta  Ta91  1  0.71728933  0.72188183  0.86966826  1
  Ta  Ta92  1  0.50279844  0.09586669  0.63571400  1
  Ta  Ta93  1  0.01923826  0.20352637  0.24953674  1
  Ta  Ta94  1  -0.00983120  0.39074588  0.25297323  1
  Ta  Ta95  1  0.40154445  0.38667292  0.25099573  1
  Ta  Ta96  1  0.08767415  0.10796934  0.38079896  1
  Ta  Ta97  1  0.20877787  0.19731195  0.25885607  1
  Ta  Ta98  1  0.70574998  0.08934512  0.87297605  1
  Ta  Ta99  1  0.80001741  0.81764279  0.73168062  1
  Ta  Ta100  1  0.60306620  0.38500355  0.51022593  1
  Ta  Ta101  1  0.50008125  0.29715207  0.11529922  1
  Ta  Ta102  1  0.39966446  0.59328269  0.24658845  1
  Ta  Ta103  1  0.48170983  0.49291255  0.88605905  1
  Ta  Ta104  1  0.90613323  0.30111379  0.87692382  1
  Ta  Ta105  1  0.00229554  0.20301720  0.76158651  1
  Ta  Ta106  1  0.90275448  0.90962417  0.38254118  1
  Ta  Ta107  1  0.91820013  0.29662918  0.37612710  1
  Ta  Ta108  1  0.79883360  -0.00309919  0.24558983  1
  Ta  Ta109  1  0.40721179  0.79295704  0.24687911  1
  Ta  Ta110  1  0.29968925  0.07869955  0.12500280  1
  Ta  Ta111  1  0.89020783  0.69638258  0.13476060  1
  Ta  Ta112  1  0.79172173  0.58512312  0.25173284  1
  Ta  Ta113  1  0.20839595  0.19678752  -0.00921042  1
  Ta  Ta114  1  0.22169414  0.59883594  0.73042071  1
  Ta  Ta115  1  0.81469524  0.22336680  0.23822495  1
  Ta  Ta116  1  -0.00515413  0.80585876  0.25730035  1
  Ta  Ta117  1  0.30961022  0.49630853  0.37338867  1
  Ta  Ta118  1  0.40112492  0.00614318  0.75759001  1
  Ta  Ta119  1  0.62152748  0.79757807  0.01728798  1
  Ti  Ti120  1  0.10781941  0.31209786  0.87310759  1
  Ti  Ti121  1  0.30312709  0.11210525  0.62949552  1
  Ti  Ti122  1  0.08868736  0.90732128  0.62273262  1
  Ti  Ti123  1  0.49455308  0.09474655  0.87941216  1
  Ti  Ti124  1  0.30118900  0.48330880  0.12568506  1
  Ti  Ti125  1  0.00908004  0.39795544  0.74630906  1
  Ti  Ti126  1  0.56440770  0.00999619  0.23290508  1
  Ti  Ti127  1  0.19901882  0.58050237  0.00527636  1
  Ti  Ti128  1  0.89161619  0.09616129  0.86822182  1
  Ti  Ti129  1  0.01597196  0.40173102  -0.01224091  1
  Ti  Ti130  1  0.40271507  0.39324430  0.49107809  1
  Ti  Ti131  1  0.10180553  0.29407533  0.63137349  1
  Ti  Ti132  1  0.11337534  0.11115907  0.12527349  1
  Ti  Ti133  1  0.90024056  0.70073582  0.60764612  1
  Ti  Ti134  1  0.40009116  0.19785254  0.49276254  1
  Ti  Ti135  1  0.00436252  0.81082218  0.50574389  1
  Ti  Ti136  1  0.01774914  0.39127800  0.51252654  1
  Ti  Ti137  1  0.19782995  0.01323166  -0.01427635  1
  Ti  Ti138  1  0.00355531  0.00123461  0.25369851  1
  Ti  Ti139  1  -0.01014504  0.00137862  -0.01347293  1
  Ti  Ti140  1  0.39855490  0.18504524  -0.00050079  1
  Ti  Ti141  1  0.32586389  0.49981548  0.62293768  1
  Ti  Ti142  1  0.89955055  0.91775426  0.61199623  1
  Ti  Ti143  1  0.70774266  0.27662748  0.63343056  1
  Ti  Ti144  1  0.19613591  0.20245342  0.75890800  1
  Ti  Ti145  1  0.69433407  0.90293927  0.87664654  1
  Ti  Ti146  1  0.48654752  0.67739664  0.61598233  1
  Ti  Ti147  1  0.69831914  0.51898566  0.10779149  1
  Ti  Ti148  1  0.50498927  0.69872369  0.11319769  1
  Ti  Ti149  1  0.59532714  0.81456211  0.23470770  1
  Ti  Ti150  1  0.09571339  0.69113055  0.61507232  1
  Ti  Ti151  1  0.29189569  0.49946530  0.87519466  1
  Ti  Ti152  1  0.78983318  -0.01105492  0.01082314  1
  Ti  Ti153  1  0.38915180  0.79387835  0.50360604  1
  Ti  Ti154  1  0.39801088  0.58975889  0.00657352  1
  Ti  Ti155  1  0.49478847  0.69963301  0.37993335  1
  Ti  Ti156  1  0.30608079  0.29924097  0.63021399  1
  Ti  Ti157  1  0.11296640  0.29912616  0.11762562  1
  Ti  Ti158  1  0.50572744  0.49929147  0.61236113  1
  Ti  Ti159  1  0.78400268  0.02531168  0.49620367  1
  Mo  Mo160  1  0.18714448  0.01881663  0.24947664  1
  Mo  Mo161  1  0.89610608  0.70788423  0.86093688  1
  Mo  Mo162  1  0.81077109  0.40847157  0.25158309  1
  Mo  Mo163  1  0.40510314  0.79028161  -0.00002688  1
  Mo  Mo164  1  0.80198743  0.60117537  0.51790904  1
  Mo  Mo165  1  0.80160915  0.20230792  0.76966108  1
  Mo  Mo166  1  0.50383760  0.08756237  0.37142502  1
  Mo  Mo167  1  0.79425707  0.81394108  0.00483665  1
  Mo  Mo168  1  0.28737404  0.89855948  0.11357047  1
  Mo  Mo169  1  0.29890016  0.88985862  0.38643829  1
  Mo  Mo170  1  0.00746472  0.60203257  0.51116798  1
  Mo  Mo171  1  0.59856031  0.60914750  0.00667418  1
  Mo  Mo172  1  0.59126823  0.59932308  0.74160839  1
  Mo  Mo173  1  0.59766541  0.00033777  0.49852580  1
  Mo  Mo174  1  0.39129784  0.39498321  0.00974067  1
  Mo  Mo175  1  0.68805940  0.10232311  0.63964867  1
  Mo  Mo176  1  0.59700485  0.21554939  0.23190496  1
  Mo  Mo177  1  0.38220152  -0.02062751  0.24661692  1
  Mo  Mo178  1  -0.01273714  0.00303148  0.50647340  1
  Mo  Mo179  1  0.30443781  0.69691849  0.62123343  1
  Mo  Mo180  1  0.30057524  0.10340360  0.87455857  1
  Mo  Mo181  1  0.41243477  0.57527616  0.74751976  1
  Mo  Mo182  1  0.59102635  0.59276831  0.50132232  1
  Mo  Mo183  1  0.11524110  0.49169795  0.87128179  1
  Mo  Mo184  1  0.39876002  0.40449410  0.74853381  1
  Mo  Mo185  1  0.79881844  0.19777044  0.50011207  1
  Mo  Mo186  1  0.09853195  0.10602111  0.86953855  1
  Mo  Mo187  1  0.81263318  0.41060187  -0.01162038  1
  Mo  Mo188  1  0.19793940  0.39576615  0.00597849  1
  Mo  Mo189  1  0.59634129  0.40985194  -0.00148135  1
  Mo  Mo190  1  0.79147269  -0.00391092  0.75573909  1
  Mo  Mo191  1  0.31406684  0.29727983  0.37199441  1
  Mo  Mo192  1  0.92156428  0.29271954  0.63739637  1
  Mo  Mo193  1  0.70346466  0.70519617  0.13353920  1
  Mo  Mo194  1  0.38323582  0.00494536  -0.01386214  1
  Mo  Mo195  1  0.09838362  0.29557934  0.37938498  1
  Mo  Mo196  1  0.40162762  0.59520606  0.49508352  1
  Mo  Mo197  1  0.69089965  0.90901756  0.14027575  1
  Mo  Mo198  1  0.48402206  0.10476547  0.11332669  1
  Mo  Mo199  1  0.10777177  0.49289189  0.61936535  1
