# generated using pymatgen
data_HfZrTaTiMo
_symmetry_space_group_name_H-M   'P 1'
_cell_length_a   15.21651703
_cell_length_b   15.20703319
_cell_length_c   16.85907979
_cell_angle_alpha   90.01196031
_cell_angle_beta   89.96643578
_cell_angle_gamma   90.11929776
_symmetry_Int_Tables_number   1
_chemical_formula_structural   HfZrTaTiMo
_chemical_formula_sum   'Hf40 Zr40 Ta40 Ti40 Mo40'
_cell_volume   3901.14947684
_cell_formula_units_Z   40
loop_
 _symmetry_equiv_pos_site_id
 _symmetry_equiv_pos_as_xyz
  1  'x, y, z'
loop_
 _atom_site_type_symbol
 _atom_site_label
 _atom_site_symmetry_multiplicity
 _atom_site_fract_x
 _atom_site_fract_y
 _atom_site_fract_z
 _atom_site_occupancy
  Hf  Hf0  1  -0.00148178  0.60247487  0.24509154  1
  Hf  Hf1  1  -0.01986731  0.38530499  -0.00039634  1
  Hf  Hf2  1  0.61331534  0.01725092  -0.00003926  1
  Hf  Hf3  1  0.50219470  0.70756282  0.87248536  1
  Hf  Hf4  1  0.58846001  0.59506389  0.26338894  1
  Hf  Hf5  1  0.69299010  0.49529673  0.87186124  1
  Hf  Hf6  1  0.01408471  0.80307959  0.25889011  1
  Hf  Hf7  1  0.91233391  0.08077631  0.12826697  1
  Hf  Hf8  1  0.81328080  -0.00887540  -0.00578735  1
  Hf  Hf9  1  0.59156313  0.19530721  0.25739638  1
  Hf  Hf10  1  0.40661958  0.00239598  0.74968582  1
  Hf  Hf11  1  0.72622874  0.90375519  0.13788315  1
  Hf  Hf12  1  0.70258781  0.69311532  0.14280720  1
  Hf  Hf13  1  0.28754654  0.10978579  0.86654812  1
  Hf  Hf14  1  0.00437267  0.80177670  0.74418740  1
  Hf  Hf15  1  0.40800346  0.21832858  -0.00941359  1
  Hf  Hf16  1  0.31616602  0.11561554  0.38490980  1
  Hf  Hf17  1  -0.00132073  0.81641577  -0.00383160  1
  Hf  Hf18  1  0.52362334  0.12039955  0.86819230  1
  Hf  Hf19  1  0.89946330  0.90768935  0.86086377  1
  Hf  Hf20  1  0.79970370  0.80148107  0.74241765  1
  Hf  Hf21  1  0.39048839  0.39513896  0.25845904  1
  Hf  Hf22  1  0.32397592  0.90371979  0.37156801  1
  Hf  Hf23  1  0.49290866  0.49861720  0.62079636  1
  Hf  Hf24  1  0.58570261  0.38518112  0.75370963  1
  Hf  Hf25  1  0.60010443  0.59557570  0.49040351  1
  Hf  Hf26  1  0.81124496  0.19333522  -0.00827113  1
  Hf  Hf27  1  0.49154765  0.71792414  0.37630255  1
  Hf  Hf28  1  0.69793255  0.70046046  0.87307779  1
  Hf  Hf29  1  0.29280589  0.48142964  0.62356329  1
  Hf  Hf30  1  0.50992964  0.90984844  0.12511152  1
  Hf  Hf31  1  0.11689679  0.89414172  0.38848155  1
  Hf  Hf32  1  0.69546326  0.48453912  0.62576685  1
  Hf  Hf33  1  0.10757086  0.69174831  0.38442456  1
  Hf  Hf34  1  0.36999397  0.40158120  0.76842314  1
  Hf  Hf35  1  0.19071417  0.00953041  0.25304798  1
  Hf  Hf36  1  0.17687673  0.01861326  0.00527542  1
  Hf  Hf37  1  0.31186198  0.11571649  0.62869466  1
  Hf  Hf38  1  0.09603295  0.70694634  0.62017702  1
  Hf  Hf39  1  0.60448396  0.20834800  0.50071064  1
  Zr  Zr40  1  0.39455312  0.60315038  0.49799614  1
  Zr  Zr41  1  0.90007075  0.71370331  0.12880932  1
  Zr  Zr42  1  0.08904696  0.49186464  0.36912531  1
  Zr  Zr43  1  0.59534428  0.80766544  0.72952613  1
  Zr  Zr44  1  0.40794328  0.02419339  0.23992787  1
  Zr  Zr45  1  0.71558864  0.12112724  0.62218043  1
  Zr  Zr46  1  0.68538313  0.48369235  0.13572191  1
  Zr  Zr47  1  0.50117339  0.90700688  0.87659032  1
  Zr  Zr48  1  0.47710297  0.27772280  0.38062569  1
  Zr  Zr49  1  0.87553865  0.49428045  0.35799016  1
  Zr  Zr50  1  0.19966093  0.59543968  0.74421601  1
  Zr  Zr51  1  0.09016813  0.26925949  0.88390970  1
  Zr  Zr52  1  0.01294590  0.19129482  0.26374009  1
  Zr  Zr53  1  0.09786398  0.49497731  0.12375120  1
  Zr  Zr54  1  0.28375666  0.90323324  0.13549131  1
  Zr  Zr55  1  0.89132399  0.28830099  0.13756890  1
  Zr  Zr56  1  0.80004397  0.59436283  -0.00005105  1
  Zr  Zr57  1  0.19426176  0.59159880  0.50996953  1
  Zr  Zr58  1  -0.01669634  0.39870300  0.50282721  1
  Zr  Zr59  1  0.10780221  0.27471029  0.11200663  1
  Zr  Zr60  1  0.59334757  0.81212598  0.51137215  1
  Zr  Zr61  1  0.00016495  0.59683777  0.00416915  1
  Zr  Zr62  1  0.20509206  0.80665884  -0.00542894  1
  Zr  Zr63  1  0.38881043  0.01168271  0.00205895  1
  Zr  Zr64  1  0.09030806  0.48881130  0.86196482  1
  Zr  Zr65  1  0.20923571  0.40070112  -0.01355258  1
  Zr  Zr66  1  0.80425772  0.59500367  0.74506562  1
  Zr  Zr67  1  0.91420684  0.11008333  0.60528769  1
  Zr  Zr68  1  0.70547256  0.90804338  0.38394863  1
  Zr  Zr69  1  0.90222728  0.88728793  0.60180085  1
  Zr  Zr70  1  0.71186433  0.69540526  0.37261422  1
  Zr  Zr71  1  0.48141576  0.29780446  0.61863083  1
  Zr  Zr72  1  0.49498705  0.50875273  0.87725021  1
  Zr  Zr73  1  0.10325205  0.70295713  0.86933242  1
  Zr  Zr74  1  0.40030728  0.80172379  0.01031586  1
  Zr  Zr75  1  0.39042881  0.60528908  0.00668491  1
  Zr  Zr76  1  0.60966533  0.80029824  0.01133259  1
  Zr  Zr77  1  -0.01625277  -0.00663540  0.27558932  1
  Zr  Zr78  1  0.71232336  0.70154810  0.61111513  1
  Zr  Zr79  1  0.78492931  0.39151993  -0.00112423  1
  Ta  Ta80  1  0.72015869  0.09370502  0.85772834  1
  Ta  Ta81  1  0.50430126  0.31295067  0.12825717  1
  Ta  Ta82  1  0.19024418  0.00881183  0.73658837  1
  Ta  Ta83  1  0.39480525  0.59720130  0.25509734  1
  Ta  Ta84  1  0.29501114  0.90370854  0.63198411  1
  Ta  Ta85  1  0.11408806  0.71144000  0.12590162  1
  Ta  Ta86  1  0.20297231  0.60242144  0.24761593  1
  Ta  Ta87  1  0.80901833  0.58550732  0.50378986  1
  Ta  Ta88  1  0.19444039  0.21962365  0.73895942  1
  Ta  Ta89  1  0.39777815  0.79952349  0.73626990  1
  Ta  Ta90  1  0.10095435  0.91641568  0.86311878  1
  Ta  Ta91  1  0.88318018  0.49618011  0.14394970  1
  Ta  Ta92  1  0.70808034  0.10494345  0.13039278  1
  Ta  Ta93  1  0.58973489  0.40312690  0.48047696  1
  Ta  Ta94  1  0.90235318  0.69545893  0.87305076  1
  Ta  Ta95  1  0.70541901  0.10374744  0.38883120  1
  Ta  Ta96  1  0.59582630  0.60350645  0.73883573  1
  Ta  Ta97  1  0.61489228  0.00331614  0.73701631  1
  Ta  Ta98  1  0.29587648  0.70852675  0.36719180  1
  Ta  Ta99  1  0.40290069  0.60459651  0.74270957  1
  Ta  Ta100  1  0.21741017  0.00300335  0.50617934  1
  Ta  Ta101  1  0.70757227  0.30176516  0.36685103  1
  Ta  Ta102  1  0.61367263  0.00623301  0.25175904  1
  Ta  Ta103  1  0.40566726  0.79693956  0.23887812  1
  Ta  Ta104  1  0.18611614  0.38993886  0.50214061  1
  Ta  Ta105  1  0.39924735  0.80756279  0.51800660  1
  Ta  Ta106  1  0.29725344  0.49750518  0.13039671  1
  Ta  Ta107  1  0.28884062  0.49799572  0.37435353  1
  Ta  Ta108  1  0.41519385  -0.00252801  0.51332636  1
  Ta  Ta109  1  0.68848868  0.28146895  0.87211013  1
  Ta  Ta110  1  0.30369905  0.70344987  0.86195116  1
  Ta  Ta111  1  0.59839818  0.80886737  0.25207899  1
  Ta  Ta112  1  0.89455017  0.09617914  0.39761593  1
  Ta  Ta113  1  0.90752874  0.70272777  0.38844109  1
  Ta  Ta114  1  0.78491388  0.38762082  0.50104236  1
  Ta  Ta115  1  0.59346085  0.59840177  0.01252775  1
  Ta  Ta116  1  0.81945487  0.20665513  0.75330055  1
  Ta  Ta117  1  0.22079401  0.20380034  0.25044964  1
  Ta  Ta118  1  0.11266930  0.10578307  0.39563188  1
  Ta  Ta119  1  0.58924277  0.39983903  0.27182201  1
  Ti  Ti120  1  0.10537031  0.90413063  0.61351984  1
  Ti  Ti121  1  0.39586538  0.40989717  -0.00962612  1
  Ti  Ti122  1  0.19583755  0.39688244  0.24665061  1
  Ti  Ti123  1  0.40591668  0.21542548  0.76289031  1
  Ti  Ti124  1  0.00881136  -0.00402566  0.49148759  1
  Ti  Ti125  1  0.80345249  0.79643886  -0.00580476  1
  Ti  Ti126  1  -0.00228711  0.39028343  0.24474475  1
  Ti  Ti127  1  0.30867916  0.30141447  0.11935540  1
  Ti  Ti128  1  0.50852127  0.10715756  0.63447128  1
  Ti  Ti129  1  0.80025219  0.18059106  0.25884156  1
  Ti  Ti130  1  0.69245657  0.29086287  0.13599511  1
  Ti  Ti131  1  0.29948013  0.70230608  0.63234931  1
  Ti  Ti132  1  0.21292813  0.21249848  0.50754739  1
  Ti  Ti133  1  0.79519154  0.38630369  0.75100323  1
  Ti  Ti134  1  -0.01008027  0.36087526  0.74444986  1
  Ti  Ti135  1  -0.00563413  0.59482766  0.51081419  1
  Ti  Ti136  1  -0.00886023  0.59794119  0.74083692  1
  Ti  Ti137  1  0.20235457  0.60325588  -0.00194541  1
  Ti  Ti138  1  0.81657777  0.81128898  0.26550264  1
  Ti  Ti139  1  0.58573025  0.38733238  -0.00441089  1
  Ti  Ti140  1  0.89699934  0.29487937  0.36634896  1
  Ti  Ti141  1  0.51038549  0.07607788  0.38607425  1
  Ti  Ti142  1  0.21382424  0.79916303  0.50568493  1
  Ti  Ti143  1  0.89754258  0.48810464  0.86490528  1
  Ti  Ti144  1  0.69770307  0.90209385  0.86949465  1
  Ti  Ti145  1  0.11060498  0.29908293  0.37254258  1
  Ti  Ti146  1  0.09086857  0.47881261  0.63895840  1
  Ti  Ti147  1  0.89636001  0.48793076  0.63170967  1
  Ti  Ti148  1  0.60603225  0.00187009  0.51977531  1
  Ti  Ti149  1  0.00807784  0.21514692  0.49226069  1
  Ti  Ti150  1  0.50759383  0.12041830  0.11666474  1
  Ti  Ti151  1  0.00294005  0.00922234  0.73404151  1
  Ti  Ti152  1  0.29065215  0.89940456  0.85750752  1
  Ti  Ti153  1  0.30053475  0.69689050  0.13572529  1
  Ti  Ti154  1  0.80926106  0.00172570  0.73412605  1
  Ti  Ti155  1  0.38102922  0.38621332  0.48825990  1
  Ti  Ti156  1  0.10747326  0.10544240  0.60803372  1
  Ti  Ti157  1  0.92605764  0.10741638  0.86876680  1
  Ti  Ti158  1  0.07829504  0.91189774  0.12830030  1
  Ti  Ti159  1  0.49037706  0.50234412  0.12613564  1
  Mo  Mo160  1  0.50127964  0.30819279  0.87836093  1
  Mo  Mo161  1  0.20345884  0.81299370  0.74648979  1
  Mo  Mo162  1  0.61613711  0.20909690  0.00679946  1
  Mo  Mo163  1  0.79920229  0.60337062  0.25029138  1
  Mo  Mo164  1  0.90157796  0.89300140  0.12977213  1
  Mo  Mo165  1  0.10048142  0.09117741  0.86115630  1
  Mo  Mo166  1  0.78895987  0.38489132  0.24886062  1
  Mo  Mo167  1  0.60914372  0.19959189  0.74535133  1
  Mo  Mo168  1  0.90526331  0.68615914  0.61156329  1
  Mo  Mo169  1  0.39929488  0.18816574  0.50636769  1
  Mo  Mo170  1  0.29325540  0.30202650  0.87689261  1
  Mo  Mo171  1  0.79968608  0.00565869  0.26232877  1
  Mo  Mo172  1  0.40159930  0.20624214  0.23480067  1
  Mo  Mo173  1  0.01296628  0.79482611  0.49648366  1
  Mo  Mo174  1  0.69702838  0.30594669  0.62599930  1
  Mo  Mo175  1  0.00625778  0.17307799  0.00224976  1
  Mo  Mo176  1  0.70834397  0.91171201  0.61683256  1
  Mo  Mo177  1  0.21407662  0.19562207  0.00186854  1
  Mo  Mo178  1  0.20542272  0.79828358  0.24854273  1
  Mo  Mo179  1  0.48467568  0.49786409  0.38088311  1
  Mo  Mo180  1  0.89279965  0.29467941  0.87098619  1
  Mo  Mo181  1  0.10420852  0.09465513  0.13618877  1
  Mo  Mo182  1  0.29479705  0.12016868  0.12024975  1
  Mo  Mo183  1  0.49723224  0.91246641  0.63200808  1
  Mo  Mo184  1  0.88451439  0.30018626  0.62480601  1
  Mo  Mo185  1  0.29096730  0.51689071  0.87476761  1
  Mo  Mo186  1  0.81015095  0.21375748  0.48878539  1
  Mo  Mo187  1  0.18023486  0.39482975  0.75498285  1
  Mo  Mo188  1  0.90200109  0.89308895  0.39841298  1
  Mo  Mo189  1  0.00707680  0.18693640  0.73762390  1
  Mo  Mo190  1  0.08924987  0.29133156  0.62004506  1
  Mo  Mo191  1  0.50134562  0.69631538  0.13935075  1
  Mo  Mo192  1  0.49359632  0.69786302  0.62475198  1
  Mo  Mo193  1  0.69472344  0.49330157  0.37456561  1
  Mo  Mo194  1  0.79658222  0.00190631  0.50578453  1
  Mo  Mo195  1  0.50244400  0.90598522  0.37117177  1
  Mo  Mo196  1  0.28976237  0.30408417  0.62441751  1
  Mo  Mo197  1  -0.00430720  0.00203046  -0.00628597  1
  Mo  Mo198  1  0.28275324  0.30296742  0.37615411  1
  Mo  Mo199  1  0.80704697  0.79232622  0.49324064  1
