# generated using pymatgen
data_HfZrTaTiMo
_symmetry_space_group_name_H-M   'P 1'
_cell_length_a   15.20126894
_cell_length_b   15.18211737
_cell_length_c   16.87994917
_cell_angle_alpha   89.98660614
_cell_angle_beta   90.07136894
_cell_angle_gamma   90.04862707
_symmetry_Int_Tables_number   1
_chemical_formula_structural   HfZrTaTiMo
_chemical_formula_sum   'Hf40 Zr40 Ta40 Ti40 Mo40'
_cell_volume   3895.67588144
_cell_formula_units_Z   40
loop_
 _symmetry_equiv_pos_site_id
 _symmetry_equiv_pos_as_xyz
  1  'x, y, z'
loop_
 _atom_site_type_symbol
 _atom_site_label
 _atom_site_symmetry_multiplicity
 _atom_site_fract_x
 _atom_site_fract_y
 _atom_site_fract_z
 _atom_site_occupancy
  Hf  Hf0  1  0.29577666  0.51471887  0.37652638  1
  Hf  Hf1  1  0.12090013  0.09402578  0.61582870  1
  Hf  Hf2  1  0.80044732  0.57407289  0.77208429  1
  Hf  Hf3  1  0.30639410  0.88032919  0.35909332  1
  Hf  Hf4  1  0.48590141  0.70412080  0.37757723  1
  Hf  Hf5  1  0.10812380  0.09717111  0.12461859  1
  Hf  Hf6  1  0.71521618  0.70010676  0.64622412  1
  Hf  Hf7  1  0.88945462  0.69410724  0.12153288  1
  Hf  Hf8  1  0.69909959  0.10126958  0.62834449  1
  Hf  Hf9  1  0.18234468  0.40012611  0.75988947  1
  Hf  Hf10  1  0.79365748  -0.02344767  0.51246377  1
  Hf  Hf11  1  0.41031184  0.19754799  0.77340865  1
  Hf  Hf12  1  0.27909830  0.69475257  0.14431059  1
  Hf  Hf13  1  0.59519237  0.61250165  0.50737892  1
  Hf  Hf14  1  0.50262344  0.09528012  0.10999598  1
  Hf  Hf15  1  0.69446484  0.50334675  0.12324533  1
  Hf  Hf16  1  0.88630256  0.49170632  0.61828013  1
  Hf  Hf17  1  0.71013642  0.08903055  0.11272171  1
  Hf  Hf18  1  0.88674207  0.28754373  0.11740977  1
  Hf  Hf19  1  0.47755834  0.29602349  0.36589830  1
  Hf  Hf20  1  0.30821679  0.91482461  0.13432051  1
  Hf  Hf21  1  0.39937147  0.80497631  0.01091835  1
  Hf  Hf22  1  0.29319735  0.49891235  0.63528480  1
  Hf  Hf23  1  -0.00120836  -0.00759712  0.25868678  1
  Hf  Hf24  1  0.20732396  0.19948597  -0.00714143  1
  Hf  Hf25  1  0.10055101  0.08326262  0.87644899  1
  Hf  Hf26  1  0.62129392  0.21761489  -0.00273555  1
  Hf  Hf27  1  0.91724272  0.10349522  0.62402321  1
  Hf  Hf28  1  0.39895036  0.81010069  0.51603426  1
  Hf  Hf29  1  -0.00246886  0.60596675  0.48361568  1
  Hf  Hf30  1  0.49047769  0.09305892  0.63005351  1
  Hf  Hf31  1  0.20559472  -0.00684144  0.00524522  1
  Hf  Hf32  1  0.08794584  0.49879085  0.62037825  1
  Hf  Hf33  1  0.29166175  0.51540312  0.86599758  1
  Hf  Hf34  1  -0.02710773  0.38902343  0.75584742  1
  Hf  Hf35  1  0.59123313  0.62615228  0.23802092  1
  Hf  Hf36  1  0.68938139  0.49114149  0.63162235  1
  Hf  Hf37  1  0.40866887  0.41396401  -0.01051439  1
  Hf  Hf38  1  0.59305967  0.19447044  0.50195956  1
  Hf  Hf39  1  0.29474894  0.28640657  0.63973414  1
  Zr  Zr40  1  0.38595104  0.19889121  0.23723125  1
  Zr  Zr41  1  0.58771621  0.40959700  0.24621318  1
  Zr  Zr42  1  -0.00254607  0.18969335  0.25162282  1
  Zr  Zr43  1  0.92364577  0.89438674  0.86955736  1
  Zr  Zr44  1  0.59704967  0.01228005  0.77138787  1
  Zr  Zr45  1  0.88112962  0.29893483  0.89426637  1
  Zr  Zr46  1  0.79745770  0.61265524  0.48927968  1
  Zr  Zr47  1  0.42200031  0.78966588  0.23085211  1
  Zr  Zr48  1  0.89321596  0.28234907  0.37065496  1
  Zr  Zr49  1  0.39063812  0.61325322  0.52179173  1
  Zr  Zr50  1  0.61998919  0.82113050  0.51217428  1
  Zr  Zr51  1  0.89224792  0.89224631  0.12069487  1
  Zr  Zr52  1  0.28181909  0.72033000  0.86769495  1
  Zr  Zr53  1  0.79718980  0.58398752  -0.01281496  1
  Zr  Zr54  1  0.38041055  0.60603260  0.00845258  1
  Zr  Zr55  1  0.51226771  0.71909454  0.64956315  1
  Zr  Zr56  1  0.50913765  0.30284873  0.63884417  1
  Zr  Zr57  1  0.18035555  0.62058471  0.74139176  1
  Zr  Zr58  1  0.39380439  0.39583044  0.50777445  1
  Zr  Zr59  1  0.59458235  0.40045588  0.49854719  1
  Zr  Zr60  1  -0.00559684  0.39142413  0.49030887  1
  Zr  Zr61  1  0.48630992  0.70407709  0.86480865  1
  Zr  Zr62  1  0.11884982  0.70196863  0.35673824  1
  Zr  Zr63  1  0.70333841  0.08502212  0.38505092  1
  Zr  Zr64  1  0.20991230  0.01497656  0.25472486  1
  Zr  Zr65  1  0.52672556  0.90103820  0.37138084  1
  Zr  Zr66  1  0.69508871  0.29212892  0.36988876  1
  Zr  Zr67  1  0.48978014  0.50669913  0.37405043  1
  Zr  Zr68  1  0.69588133  0.50933569  0.36841436  1
  Zr  Zr69  1  0.50374577  0.31226020  0.11947906  1
  Zr  Zr70  1  0.00867491  0.40048075  0.25637305  1
  Zr  Zr71  1  0.90618372  0.49521831  0.12785622  1
  Zr  Zr72  1  0.80946176  0.00117588  0.75609309  1
  Zr  Zr73  1  0.40629569  0.00459860  0.49383420  1
  Zr  Zr74  1  0.19625344  0.39321803  0.50069116  1
  Zr  Zr75  1  -0.01128365  0.60266080  0.74729898  1
  Zr  Zr76  1  0.19727032  0.18841009  0.76202978  1
  Zr  Zr77  1  0.09798967  0.31076156  0.11755609  1
  Zr  Zr78  1  0.60987909  0.18883529  0.24116579  1
  Zr  Zr79  1  0.90417815  0.88458213  0.63237278  1
  Ta  Ta80  1  0.39111324  0.60994438  0.73991353  1
  Ta  Ta81  1  0.50304904  0.09888625  0.37106816  1
  Ta  Ta82  1  0.01006197  0.78770747  0.00418817  1
  Ta  Ta83  1  0.07780960  0.51174364  0.88144610  1
  Ta  Ta84  1  0.79561575  0.39280698  0.24561640  1
  Ta  Ta85  1  0.10129745  0.90038688  0.37412836  1
  Ta  Ta86  1  0.40441761  0.20501685  -0.01372738  1
  Ta  Ta87  1  0.40472342  0.40859396  0.76274381  1
  Ta  Ta88  1  0.11163076  0.88880161  0.61345439  1
  Ta  Ta89  1  0.51803521  0.31865049  0.87585209  1
  Ta  Ta90  1  0.58437613  0.59688534  -0.00525075  1
  Ta  Ta91  1  0.02265190  -0.00518026  0.74262842  1
  Ta  Ta92  1  0.08698395  0.29812431  0.88262191  1
  Ta  Ta93  1  0.42028935  0.00347160  0.24751748  1
  Ta  Ta94  1  0.80346887  0.00404789  0.25209920  1
  Ta  Ta95  1  0.19543818  0.79883194  0.01480948  1
  Ta  Ta96  1  0.60980001  0.80548379  -0.01776681  1
  Ta  Ta97  1  0.08581006  0.69699431  0.14189781  1
  Ta  Ta98  1  0.39480584  0.00890449  0.76311314  1
  Ta  Ta99  1  0.00069201  0.18799763  0.00026945  1
  Ta  Ta100  1  0.19598601  0.61370621  0.50796356  1
  Ta  Ta101  1  0.53083593  0.90000364  0.11105461  1
  Ta  Ta102  1  0.10432137  0.10042741  0.38537370  1
  Ta  Ta103  1  0.21759724  0.40269855  0.25032295  1
  Ta  Ta104  1  0.81510683  0.21367741  0.74247002  1
  Ta  Ta105  1  0.80139177  0.79579808  -0.02062581  1
  Ta  Ta106  1  0.79331136  0.39396083  0.49725620  1
  Ta  Ta107  1  0.19598784  0.41284890  -0.01150727  1
  Ta  Ta108  1  0.00775005  -0.00944386  0.49467398  1
  Ta  Ta109  1  0.79860258  -0.00773727  -0.01913824  1
  Ta  Ta110  1  0.29844522  0.30980066  0.11137273  1
  Ta  Ta111  1  0.21195093  -0.01344954  0.74667639  1
  Ta  Ta112  1  0.29862518  0.30766958  0.87636077  1
  Ta  Ta113  1  0.49879256  0.90400370  0.87772746  1
  Ta  Ta114  1  0.79727668  0.60994962  0.25417911  1
  Ta  Ta115  1  0.81329096  0.78369708  0.77205125  1
  Ta  Ta116  1  0.69450642  0.69188124  0.87103349  1
  Ta  Ta117  1  0.90268985  0.08875920  0.11677197  1
  Ta  Ta118  1  0.00373211  -0.01101582  0.00342282  1
  Ta  Ta119  1  0.40444398  0.00899599  -0.01002271  1
  Ti  Ti120  1  0.78424682  0.80699536  0.24651619  1
  Ti  Ti121  1  0.61853125  0.21548931  0.75934501  1
  Ti  Ti122  1  0.39140106  0.57825793  0.23254618  1
  Ti  Ti123  1  -0.00578859  0.59749667  0.26089037  1
  Ti  Ti124  1  0.89163589  0.49604287  0.36859576  1
  Ti  Ti125  1  0.09878471  0.89012997  0.13764638  1
  Ti  Ti126  1  0.39067291  0.20099110  0.50014218  1
  Ti  Ti127  1  0.02236240  0.79142892  0.74556826  1
  Ti  Ti128  1  0.49573483  0.50397179  0.63641079  1
  Ti  Ti129  1  0.88815124  0.88963195  0.37847593  1
  Ti  Ti130  1  0.70103740  0.72604650  0.37232424  1
  Ti  Ti131  1  0.38950685  0.82580103  0.73983839  1
  Ti  Ti132  1  0.21245576  -0.00482113  0.49125095  1
  Ti  Ti133  1  0.11327459  0.88254988  0.87586418  1
  Ti  Ti134  1  0.61535204  -0.01657079  0.24232895  1
  Ti  Ti135  1  0.90093980  0.08832221  0.38827995  1
  Ti  Ti136  1  0.71456722  0.11076965  0.87854413  1
  Ti  Ti137  1  0.30557448  0.11065240  0.37350302  1
  Ti  Ti138  1  0.80479916  0.20407248  0.51277175  1
  Ti  Ti139  1  -0.00454255  0.79710704  0.48814074  1
  Ti  Ti140  1  -0.00626056  0.40970421  -0.00244330  1
  Ti  Ti141  1  0.91227650  0.10328565  0.86944663  1
  Ti  Ti142  1  0.20164390  0.80074335  0.49299415  1
  Ti  Ti143  1  0.10419128  0.49881407  0.37372834  1
  Ti  Ti144  1  0.07923348  0.28836321  0.63329793  1
  Ti  Ti145  1  0.27719914  0.72888837  0.63386497  1
  Ti  Ti146  1  0.69141409  0.71910745  0.11165102  1
  Ti  Ti147  1  0.11259547  0.50770764  0.12670727  1
  Ti  Ti148  1  0.11217584  0.29527679  0.37258262  1
  Ti  Ti149  1  0.92039014  0.68146827  0.88786574  1
  Ti  Ti150  1  0.20716560  0.19853195  0.49587428  1
  Ti  Ti151  1  0.90709361  0.69820554  0.62270714  1
  Ti  Ti152  1  0.19977305  0.21007764  0.24838127  1
  Ti  Ti153  1  0.59249654  0.58757348  0.76270543  1
  Ti  Ti154  1  0.30047159  0.90557778  0.87902857  1
  Ti  Ti155  1  0.68927644  0.89325605  0.65538135  1
  Ti  Ti156  1  0.68571767  0.46938800  0.87938349  1
  Ti  Ti157  1  0.17757606  0.61083963  -0.00029078  1
  Ti  Ti158  1  0.00685082  0.19776600  0.49589883  1
  Ti  Ti159  1  -0.01411886  0.79550610  0.25874726  1
  Mo  Mo160  1  0.60498289  0.80366090  0.77084161  1
  Mo  Mo161  1  0.18991174  0.80837546  0.24320472  1
  Mo  Mo162  1  0.61229195  0.80327257  0.24098852  1
  Mo  Mo163  1  0.89468623  0.70417931  0.36074899  1
  Mo  Mo164  1  0.19341970  0.81523795  0.74542697  1
  Mo  Mo165  1  0.30106228  0.10127040  0.62159487  1
  Mo  Mo166  1  0.19116120  0.58903069  0.24710802  1
  Mo  Mo167  1  0.59897168  0.40103714  0.74991663  1
  Mo  Mo168  1  0.49647640  0.50928232  0.86623678  1
  Mo  Mo169  1  0.00616747  0.59646841  0.00956307  1
  Mo  Mo170  1  0.50249741  0.90859237  0.64356981  1
  Mo  Mo171  1  0.71410159  0.90128278  0.37210777  1
  Mo  Mo172  1  0.29969647  0.92094818  0.62197529  1
  Mo  Mo173  1  0.30414413  0.09551800  0.87965119  1
  Mo  Mo174  1  0.29021546  0.29581776  0.37455991  1
  Mo  Mo175  1  0.31083094  0.11005196  0.11695245  1
  Mo  Mo176  1  0.49166784  0.51086433  0.12333643  1
  Mo  Mo177  1  0.60419509  0.41290758  0.00335244  1
  Mo  Mo178  1  0.89961192  0.29553059  0.61579303  1
  Mo  Mo179  1  0.70904373  0.89689628  0.11144689  1
  Mo  Mo180  1  0.30289030  0.69914315  0.36489372  1
  Mo  Mo181  1  0.78318482  0.38730194  0.74936167  1
  Mo  Mo182  1  0.77744497  0.38519226  0.01120421  1
  Mo  Mo183  1  0.08943373  0.71000357  0.60765444  1
  Mo  Mo184  1  0.81130320  0.79060285  0.50228773  1
  Mo  Mo185  1  0.51055050  0.10939214  0.89012928  1
  Mo  Mo186  1  0.80631400  0.18413682  0.24750274  1
  Mo  Mo187  1  0.89456485  0.49005961  0.88649491  1
  Mo  Mo188  1  0.38969821  0.40090558  0.24079213  1
  Mo  Mo189  1  0.60011847  -0.00094262  0.51140158  1
  Mo  Mo190  1  0.71129480  0.29781651  0.62329832  1
  Mo  Mo191  1  0.09192941  0.70949598  0.88099556  1
  Mo  Mo192  1  0.70758086  0.30026818  0.13202957  1
  Mo  Mo193  1  0.80994566  0.18098395  -0.00330017  1
  Mo  Mo194  1  0.00187427  0.19363427  0.75451857  1
  Mo  Mo195  1  0.70859115  0.89407002  0.86499677  1
  Mo  Mo196  1  0.70232540  0.29535616  0.87289109  1
  Mo  Mo197  1  0.60580898  0.00006172  -0.02073869  1
  Mo  Mo198  1  0.28660706  0.49176169  0.11635702  1
  Mo  Mo199  1  0.50594746  0.70168800  0.10839002  1
