# generated using pymatgen
data_HfZrTaTiMo
_symmetry_space_group_name_H-M   'P 1'
_cell_length_a   15.22163006
_cell_length_b   15.21549472
_cell_length_c   16.84355755
_cell_angle_alpha   89.97197280
_cell_angle_beta   90.00543542
_cell_angle_gamma   89.82465758
_symmetry_Int_Tables_number   1
_chemical_formula_structural   HfZrTaTiMo
_chemical_formula_sum   'Hf40 Zr40 Ta40 Ti40 Mo40'
_cell_volume   3901.02718997
_cell_formula_units_Z   40
loop_
 _symmetry_equiv_pos_site_id
 _symmetry_equiv_pos_as_xyz
  1  'x, y, z'
loop_
 _atom_site_type_symbol
 _atom_site_label
 _atom_site_symmetry_multiplicity
 _atom_site_fract_x
 _atom_site_fract_y
 _atom_site_fract_z
 _atom_site_occupancy
  Hf  Hf0  1  0.11124946  0.30118988  0.87288232  1
  Hf  Hf1  1  0.29983669  0.71228220  0.36486832  1
  Hf  Hf2  1  0.30524974  0.49721449  0.36531335  1
  Hf  Hf3  1  0.70510644  0.48962064  0.38467555  1
  Hf  Hf4  1  0.81623101  0.00364099  -0.00170650  1
  Hf  Hf5  1  -0.01639034  0.79834970  -0.01844971  1
  Hf  Hf6  1  0.90395261  0.50872750  0.11578471  1
  Hf  Hf7  1  0.06108126  0.30482907  0.36193902  1
  Hf  Hf8  1  0.69773219  0.49931076  0.11843820  1
  Hf  Hf9  1  0.41468559  0.60947517  0.25041151  1
  Hf  Hf10  1  0.27859222  0.30346808  0.13609359  1
  Hf  Hf11  1  0.39081584  0.61159897  0.00273510  1
  Hf  Hf12  1  0.69675777  0.49219802  0.87777394  1
  Hf  Hf13  1  0.09916674  0.48372146  0.12588451  1
  Hf  Hf14  1  0.49594680  0.92558949  0.11401561  1
  Hf  Hf15  1  0.01057768  0.19614510  0.75349332  1
  Hf  Hf16  1  0.89698707  0.51585205  0.63032115  1
  Hf  Hf17  1  0.79987789  0.39145176  0.73717042  1
  Hf  Hf18  1  0.81081284  0.19349152  0.73548334  1
  Hf  Hf19  1  0.11146984  0.11141854  0.12231678  1
  Hf  Hf20  1  0.77971210  0.80535067  -0.01643244  1
  Hf  Hf21  1  0.89871509  0.87921254  0.13071808  1
  Hf  Hf22  1  0.29846905  0.49930346  0.13733800  1
  Hf  Hf23  1  0.80818997  0.39362177  0.24477629  1
  Hf  Hf24  1  0.71286560  0.70079546  0.12742776  1
  Hf  Hf25  1  0.49187819  0.70666748  0.87679269  1
  Hf  Hf26  1  0.78909983  0.80960633  0.74168621  1
  Hf  Hf27  1  0.30364658  0.90136891  0.88568218  1
  Hf  Hf28  1  0.59573812  0.40089731  0.25060311  1
  Hf  Hf29  1  0.20394166  0.20305641  0.48390580  1
  Hf  Hf30  1  0.21572359  -0.00441055  0.24479405  1
  Hf  Hf31  1  0.39804295  0.19797702  0.48636905  1
  Hf  Hf32  1  0.80097160  0.59815896  0.26146282  1
  Hf  Hf33  1  0.38699576  0.38744450  -0.00263626  1
  Hf  Hf34  1  0.19533891  0.39753278  0.48422944  1
  Hf  Hf35  1  0.10787270  0.30370762  0.62861847  1
  Hf  Hf36  1  0.51068889  0.71910342  0.11468075  1
  Hf  Hf37  1  0.49807707  0.10440147  0.62423075  1
  Hf  Hf38  1  0.91351137  0.09374709  0.13541806  1
  Hf  Hf39  1  0.29589499  0.50294795  0.61700999  1
  Zr  Zr40  1  0.80222475  0.60553299  -0.01377700  1
  Zr  Zr41  1  0.09810781  0.08473900  0.38165576  1
  Zr  Zr42  1  0.50077408  0.50188677  0.11899331  1
  Zr  Zr43  1  0.79619234  0.20054973  0.00365617  1
  Zr  Zr44  1  0.80924866  0.78271764  0.51003913  1
  Zr  Zr45  1  0.09476639  0.51356955  0.62854791  1
  Zr  Zr46  1  0.08493497  0.71591144  0.37077138  1
  Zr  Zr47  1  0.20459914  0.19727856  0.26812704  1
  Zr  Zr48  1  0.20430704  0.40089664  0.74738953  1
  Zr  Zr49  1  0.29363070  0.71094548  0.13471197  1
  Zr  Zr50  1  0.81134938  -0.01656933  0.49896345  1
  Zr  Zr51  1  0.61448197  -0.00036501  -0.01750379  1
  Zr  Zr52  1  0.79760090  -0.01644061  0.26688909  1
  Zr  Zr53  1  -0.01124275  0.20904578  0.50857961  1
  Zr  Zr54  1  0.70340759  0.08663379  0.61347363  1
  Zr  Zr55  1  0.29650871  0.48854197  0.87650811  1
  Zr  Zr56  1  0.60991768  0.40828399  0.72779320  1
  Zr  Zr57  1  0.90278657  0.10494946  0.37278985  1
  Zr  Zr58  1  0.39524113  -0.00669153  0.74336146  1
  Zr  Zr59  1  0.07596352  0.69641969  0.12758826  1
  Zr  Zr60  1  0.19888609  0.78775322  -0.00404877  1
  Zr  Zr61  1  0.50978257  0.30928937  0.86885237  1
  Zr  Zr62  1  0.50390459  0.50419796  0.38502363  1
  Zr  Zr63  1  0.58392470  0.18670599  0.26686168  1
  Zr  Zr64  1  0.49968939  0.11173596  0.85547021  1
  Zr  Zr65  1  0.39442561  0.61696995  0.49871897  1
  Zr  Zr66  1  0.48551189  0.28795057  0.13237186  1
  Zr  Zr67  1  0.18673299  0.60340694  0.48844972  1
  Zr  Zr68  1  0.10507345  0.09698301  0.61765438  1
  Zr  Zr69  1  0.40633429  0.82775896  0.24695972  1
  Zr  Zr70  1  0.30223510  0.90494626  0.37914119  1
  Zr  Zr71  1  0.68748502  0.09265830  0.13431699  1
  Zr  Zr72  1  0.39433149  0.60056973  0.74706520  1
  Zr  Zr73  1  0.41200643  0.39677804  0.73649496  1
  Zr  Zr74  1  0.79538996  0.20114897  0.25142245  1
  Zr  Zr75  1  0.69232937  0.89313098  0.13380919  1
  Zr  Zr76  1  0.08595011  0.89700557  0.62172006  1
  Zr  Zr77  1  0.09827806  0.90935849  0.10571443  1
  Zr  Zr78  1  0.61576878  -0.01183027  0.74803207  1
  Zr  Zr79  1  0.21664926  0.19974219  -0.00927813  1
  Ta  Ta80  1  0.09890416  0.91090242  0.88402625  1
  Ta  Ta81  1  -0.00478085  0.00378160  0.75968014  1
  Ta  Ta82  1  -0.00589721  0.40030871  0.75246458  1
  Ta  Ta83  1  0.19148151  0.58762337  -0.00410884  1
  Ta  Ta84  1  0.58931244  0.19592353  0.00041929  1
  Ta  Ta85  1  0.61113521  0.60725299  0.50348204  1
  Ta  Ta86  1  0.92300026  0.88101133  0.37936196  1
  Ta  Ta87  1  0.79573633  0.20431836  0.50549785  1
  Ta  Ta88  1  0.20045405  0.80660597  0.75393523  1
  Ta  Ta89  1  0.91020231  0.48606173  0.37960344  1
  Ta  Ta90  1  0.19212668  0.00343001  0.75570084  1
  Ta  Ta91  1  -0.00730148  0.59536535  0.25940466  1
  Ta  Ta92  1  0.59764858  0.60208041  0.74476978  1
  Ta  Ta93  1  0.49822686  0.70087015  0.62479050  1
  Ta  Ta94  1  -0.00440608  0.41072017  0.50645487  1
  Ta  Ta95  1  0.80573671  0.39303258  0.51570897  1
  Ta  Ta96  1  0.80465578  0.39181683  0.00148466  1
  Ta  Ta97  1  0.60845852  0.21170820  0.73272653  1
  Ta  Ta98  1  0.32707860  0.10870734  0.12664759  1
  Ta  Ta99  1  0.50375597  0.89329160  0.87981918  1
  Ta  Ta100  1  0.90060965  0.48883427  0.87459885  1
  Ta  Ta101  1  0.18918875  0.60020205  0.25795925  1
  Ta  Ta102  1  0.01251479  -0.01510838  0.25347533  1
  Ta  Ta103  1  0.00491444  0.80166179  0.76639068  1
  Ta  Ta104  1  0.60408413  0.39084289  0.00078991  1
  Ta  Ta105  1  0.51013381  0.72025258  0.38318927  1
  Ta  Ta106  1  0.50330676  0.50595813  0.88269696  1
  Ta  Ta107  1  0.00224114  0.59962741  -0.01954422  1
  Ta  Ta108  1  0.39931393  -0.00305143  0.50745203  1
  Ta  Ta109  1  0.20632749  0.80012855  0.51048369  1
  Ta  Ta110  1  0.88762558  0.91412506  0.86221558  1
  Ta  Ta111  1  0.60258987  0.79871561  0.51514931  1
  Ta  Ta112  1  0.50416631  0.50815098  0.60959808  1
  Ta  Ta113  1  0.41308579  0.03035170  0.26538429  1
  Ta  Ta114  1  0.19020967  0.61275756  0.76002854  1
  Ta  Ta115  1  0.40006993  0.02770782  -0.01306248  1
  Ta  Ta116  1  0.69188307  0.09099378  0.39127218  1
  Ta  Ta117  1  0.60467792  0.39313293  0.51319238  1
  Ta  Ta118  1  0.39588763  0.80292462  0.73933010  1
  Ta  Ta119  1  -0.00202419  0.60252418  0.76864595  1
  Ti  Ti120  1  0.91122264  0.08474502  0.61843809  1
  Ti  Ti121  1  0.00764580  0.39112068  -0.00375821  1
  Ti  Ti122  1  -0.00939338  0.61268069  0.49335445  1
  Ti  Ti123  1  0.70305630  0.68536229  0.63077391  1
  Ti  Ti124  1  0.70160396  0.29509769  0.38315424  1
  Ti  Ti125  1  0.29405442  0.70028467  0.87282721  1
  Ti  Ti126  1  0.79227935  0.59519829  0.75610455  1
  Ti  Ti127  1  0.39958229  0.39269676  0.50498438  1
  Ti  Ti128  1  0.18075112  0.81025167  0.24310980  1
  Ti  Ti129  1  0.59760857  0.20154978  0.49925839  1
  Ti  Ti130  1  0.70285053  0.29110623  0.87438975  1
  Ti  Ti131  1  0.91847176  0.29747851  0.12191116  1
  Ti  Ti132  1  0.71942040  0.09809887  0.86195337  1
  Ti  Ti133  1  0.30782141  0.28709558  0.62937776  1
  Ti  Ti134  1  0.60284844  0.60681209  -0.00607047  1
  Ti  Ti135  1  0.91439750  0.70930849  0.63893402  1
  Ti  Ti136  1  0.10459364  0.89810696  0.39080061  1
  Ti  Ti137  1  0.09713575  0.70182245  0.63015517  1
  Ti  Ti138  1  0.29482787  0.10076823  0.63065610  1
  Ti  Ti139  1  0.60635402  0.79741900  0.26170664  1
  Ti  Ti140  1  0.69568692  0.88035625  0.38518655  1
  Ti  Ti141  1  0.29082085  0.70697400  0.63072183  1
  Ti  Ti142  1  0.59290428  -0.01577077  0.50117772  1
  Ti  Ti143  1  0.69345606  0.29762769  0.12298195  1
  Ti  Ti144  1  0.30163876  0.91638559  0.10198748  1
  Ti  Ti145  1  0.00112764  0.19097935  -0.00932056  1
  Ti  Ti146  1  0.80369419  0.59385959  0.49505391  1
  Ti  Ti147  1  0.80923032  0.78475659  0.26973052  1
  Ti  Ti148  1  0.49721035  0.30848648  0.37680383  1
  Ti  Ti149  1  0.59159165  -0.01279252  0.27223575  1
  Ti  Ti150  1  0.40368742  0.81339949  0.51473063  1
  Ti  Ti151  1  0.59087859  0.80113572  0.73467524  1
  Ti  Ti152  1  0.31637712  0.27633066  0.85640563  1
  Ti  Ti153  1  0.68310098  0.70970467  0.86371167  1
  Ti  Ti154  1  0.60723394  0.60858068  0.25973618  1
  Ti  Ti155  1  0.21077416  -0.00346430  0.50741513  1
  Ti  Ti156  1  0.09893923  0.49683370  0.87637063  1
  Ti  Ti157  1  0.89910333  0.29610284  0.87757723  1
  Ti  Ti158  1  0.88978146  0.70058942  0.86148770  1
  Ti  Ti159  1  0.18436317  0.40199656  0.26544831  1
  Mo  Mo160  1  0.40704452  0.20274308  -0.00412170  1
  Mo  Mo161  1  0.40073093  0.81325740  0.00023364  1
  Mo  Mo162  1  0.90111970  0.90013647  0.64143372  1
  Mo  Mo163  1  0.39806652  0.20603704  0.27177646  1
  Mo  Mo164  1  0.50615451  0.09367582  0.39593840  1
  Mo  Mo165  1  0.18913354  0.40224524  0.00117972  1
  Mo  Mo166  1  0.00049777  -0.00960035  0.49777847  1
  Mo  Mo167  1  0.70182605  0.29245889  0.61454865  1
  Mo  Mo168  1  0.69633107  0.90169865  0.86765002  1
  Mo  Mo169  1  0.90395984  0.10670601  0.87430230  1
  Mo  Mo170  1  0.20639600  0.00716092  -0.00101909  1
  Mo  Mo171  1  0.08671903  0.29270552  0.13208187  1
  Mo  Mo172  1  0.50163809  0.10028542  0.12566004  1
  Mo  Mo173  1  0.00201768  0.00715834  -0.01359781  1
  Mo  Mo174  1  0.30185474  0.09529606  0.38291839  1
  Mo  Mo175  1  0.09250354  0.50420164  0.37023414  1
  Mo  Mo176  1  0.40449877  0.20079413  0.73392884  1
  Mo  Mo177  1  0.10353267  0.09568390  0.88001600  1
  Mo  Mo178  1  0.39626920  0.39482141  0.25535747  1
  Mo  Mo179  1  -0.00877800  0.40250955  0.24426662  1
  Mo  Mo180  1  0.89637089  0.69089617  0.38157525  1
  Mo  Mo181  1  0.29142939  0.89978921  0.62438561  1
  Mo  Mo182  1  0.50831656  0.90067744  0.38561700  1
  Mo  Mo183  1  0.70315773  0.50912434  0.61437943  1
  Mo  Mo184  1  0.00387083  0.79596074  0.51020189  1
  Mo  Mo185  1  0.69772450  0.88772628  0.61620267  1
  Mo  Mo186  1  -0.00623238  0.80150714  0.24967002  1
  Mo  Mo187  1  0.80963916  0.00241308  0.74040287  1
  Mo  Mo188  1  0.21179918  0.19061170  0.75338547  1
  Mo  Mo189  1  0.49932772  0.29922096  0.61201337  1
  Mo  Mo190  1  0.89877572  0.69601664  0.12281761  1
  Mo  Mo191  1  -0.00751107  0.19757681  0.24447080  1
  Mo  Mo192  1  0.09985155  0.70016512  0.87366879  1
  Mo  Mo193  1  0.59528957  0.79833701  -0.00651399  1
  Mo  Mo194  1  0.29752389  0.09990705  0.86120849  1
  Mo  Mo195  1  0.87755532  0.30758930  0.38039901  1
  Mo  Mo196  1  0.49786698  0.89671742  0.62275118  1
  Mo  Mo197  1  0.30781504  0.30968775  0.36809963  1
  Mo  Mo198  1  0.90941544  0.30198481  0.62732990  1
  Mo  Mo199  1  0.69682707  0.69533335  0.38064588  1
