# generated using pymatgen
data_HfZrTaTiMo
_symmetry_space_group_name_H-M   'P 1'
_cell_length_a   15.22503674
_cell_length_b   15.20709024
_cell_length_c   16.79104718
_cell_angle_alpha   90.00784241
_cell_angle_beta   90.00910794
_cell_angle_gamma   89.98214383
_symmetry_Int_Tables_number   1
_chemical_formula_structural   HfZrTaTiMo
_chemical_formula_sum   'Hf40 Zr40 Ta40 Ti40 Mo40'
_cell_volume   3887.60582206
_cell_formula_units_Z   40
loop_
 _symmetry_equiv_pos_site_id
 _symmetry_equiv_pos_as_xyz
  1  'x, y, z'
loop_
 _atom_site_type_symbol
 _atom_site_label
 _atom_site_symmetry_multiplicity
 _atom_site_fract_x
 _atom_site_fract_y
 _atom_site_fract_z
 _atom_site_occupancy
  Hf  Hf0  1  0.01251554  0.00668050  0.50221340  1
  Hf  Hf1  1  0.30594306  0.28839311  0.36645192  1
  Hf  Hf2  1  0.20833082  0.59830485  0.49390888  1
  Hf  Hf3  1  0.60595977  0.00630535  0.75494227  1
  Hf  Hf4  1  0.80769121  0.40703377  -0.00497084  1
  Hf  Hf5  1  0.20741533  0.19881249  0.01403792  1
  Hf  Hf6  1  0.09370480  0.88757471  0.89360307  1
  Hf  Hf7  1  0.80814997  0.38853393  0.75578675  1
  Hf  Hf8  1  0.40681900  0.40256548  0.01022542  1
  Hf  Hf9  1  0.40629260  0.80579960  0.49961705  1
  Hf  Hf10  1  0.49246409  0.88582774  0.12902118  1
  Hf  Hf11  1  0.31088247  0.50429291  0.63260723  1
  Hf  Hf12  1  0.79373385  0.59183852  0.74656959  1
  Hf  Hf13  1  0.10442537  0.09527734  0.88520401  1
  Hf  Hf14  1  0.18114195  0.79763864  0.75924718  1
  Hf  Hf15  1  0.80446991  0.01387812  0.76046663  1
  Hf  Hf16  1  0.00253353  -0.00820478  0.75280376  1
  Hf  Hf17  1  0.39177903  0.61328990  0.26137815  1
  Hf  Hf18  1  0.90243393  0.11359351  0.62132170  1
  Hf  Hf19  1  0.37675962  0.00933041  0.50165723  1
  Hf  Hf20  1  0.41037674  0.19999928  0.01170713  1
  Hf  Hf21  1  0.50814971  0.11243268  0.62877574  1
  Hf  Hf22  1  0.49216405  0.10124596  0.36417068  1
  Hf  Hf23  1  0.77986939  0.00320050  0.24564371  1
  Hf  Hf24  1  0.89223280  0.91413481  0.38191743  1
  Hf  Hf25  1  0.69783766  0.89383046  0.88162675  1
  Hf  Hf26  1  0.09714096  0.68611933  0.12509986  1
  Hf  Hf27  1  -0.00922669  0.79242369  0.24662255  1
  Hf  Hf28  1  0.40318650  0.60358406  0.48731492  1
  Hf  Hf29  1  0.70527264  0.90394915  0.61511429  1
  Hf  Hf30  1  0.50100616  0.50249488  0.14169997  1
  Hf  Hf31  1  0.60952565  0.19977793  0.00164990  1
  Hf  Hf32  1  0.20146868  0.81834044  0.49116403  1
  Hf  Hf33  1  0.89130446  0.71567357  0.39670231  1
  Hf  Hf34  1  0.79662569  0.01885262  -0.00428722  1
  Hf  Hf35  1  0.58953888  0.00404210  -0.01055506  1
  Hf  Hf36  1  0.60053417  0.79047563  0.75470689  1
  Hf  Hf37  1  0.89807751  0.70452701  0.60607950  1
  Hf  Hf38  1  0.19934960  0.38533276  0.23241219  1
  Hf  Hf39  1  0.30205564  0.48139672  0.37086702  1
  Zr  Zr40  1  0.09172566  0.31389812  0.88480938  1
  Zr  Zr41  1  0.70908908  0.30125219  0.12805154  1
  Zr  Zr42  1  0.80582995  0.80062603  0.75005566  1
  Zr  Zr43  1  0.88788457  0.88451520  0.11970834  1
  Zr  Zr44  1  0.19886875  0.40618464  0.00985732  1
  Zr  Zr45  1  0.61209087  0.79671370  0.24847035  1
  Zr  Zr46  1  0.20055639  0.78517820  0.25310412  1
  Zr  Zr47  1  0.90251285  0.89741546  0.88700894  1
  Zr  Zr48  1  0.60238266  0.39948307  0.74769524  1
  Zr  Zr49  1  0.18186652  -0.00424208  0.22293194  1
  Zr  Zr50  1  0.48869401  0.89809354  0.64056267  1
  Zr  Zr51  1  0.71619679  0.30207593  0.61255484  1
  Zr  Zr52  1  0.60167864  0.58963965  0.00025046  1
  Zr  Zr53  1  0.71448372  0.50563613  0.13799326  1
  Zr  Zr54  1  0.61752666  0.19249466  0.25666446  1
  Zr  Zr55  1  0.00314741  0.40747772  0.25801157  1
  Zr  Zr56  1  0.31187751  0.30602445  0.86733493  1
  Zr  Zr57  1  0.09291344  0.69846919  0.60714779  1
  Zr  Zr58  1  0.68727612  0.68605878  0.62135107  1
  Zr  Zr59  1  0.18155390  0.58801921  0.26221408  1
  Zr  Zr60  1  0.29952173  0.70921565  0.63237615  1
  Zr  Zr61  1  0.69172140  0.90581274  0.11408474  1
  Zr  Zr62  1  0.29194953  0.10204015  0.35856124  1
  Zr  Zr63  1  0.82440475  0.21543184  0.48238846  1
  Zr  Zr64  1  0.39302311  0.79187975  -0.01114984  1
  Zr  Zr65  1  0.88747774  0.48742832  0.61176741  1
  Zr  Zr66  1  0.11329447  0.09595810  0.63730987  1
  Zr  Zr67  1  0.28385612  0.91487761  0.64491458  1
  Zr  Zr68  1  0.77654363  0.58914405  0.48973977  1
  Zr  Zr69  1  0.10945509  0.28347007  0.37740854  1
  Zr  Zr70  1  0.29998835  0.50872764  0.86699480  1
  Zr  Zr71  1  0.58459624  -0.00357169  0.49908057  1
  Zr  Zr72  1  0.30614304  0.89873350  0.35744721  1
  Zr  Zr73  1  -0.00994350  0.00417446  0.23138006  1
  Zr  Zr74  1  0.31063728  0.10738599  0.65629939  1
  Zr  Zr75  1  0.49493331  0.30914655  0.36302922  1
  Zr  Zr76  1  0.29052025  0.91675252  0.87308309  1
  Zr  Zr77  1  0.81841435  0.20725182  0.26370405  1
  Zr  Zr78  1  0.30164591  0.29990354  0.63637296  1
  Zr  Zr79  1  0.59180032  0.78084812  -0.00297822  1
  Ta  Ta80  1  0.51890266  0.09284485  0.13564432  1
  Ta  Ta81  1  0.90980271  0.32135857  0.12564853  1
  Ta  Ta82  1  0.60818361  0.41097327  0.48787568  1
  Ta  Ta83  1  0.58458211  0.59668898  0.47912822  1
  Ta  Ta84  1  0.00368512  0.39870112  0.74234129  1
  Ta  Ta85  1  0.09459107  0.48936904  0.39934570  1
  Ta  Ta86  1  0.70767853  0.08792329  0.39091248  1
  Ta  Ta87  1  0.49595287  0.48965469  0.86599299  1
  Ta  Ta88  1  0.80539492  0.40968693  0.27283460  1
  Ta  Ta89  1  -0.00972485  0.20384728  0.76275328  1
  Ta  Ta90  1  -0.00057687  0.59410925  0.74386676  1
  Ta  Ta91  1  -0.01061136  0.37651758  0.50072421  1
  Ta  Ta92  1  0.39637550  0.00334662  0.23076753  1
  Ta  Ta93  1  0.50903838  0.31116985  0.61663929  1
  Ta  Ta94  1  0.61857397  0.20206919  0.75373628  1
  Ta  Ta95  1  0.80057210  0.61737854  0.26709030  1
  Ta  Ta96  1  0.20497541  0.38476108  0.50856869  1
  Ta  Ta97  1  0.39572756  0.00554155  0.00786211  1
  Ta  Ta98  1  0.49128981  0.68272666  0.86030709  1
  Ta  Ta99  1  0.49665318  0.10801339  0.86911380  1
  Ta  Ta100  1  0.79937721  0.77862189  -0.00431687  1
  Ta  Ta101  1  0.29585301  0.51187110  0.12848130  1
  Ta  Ta102  1  0.69876785  0.30077463  0.87974529  1
  Ta  Ta103  1  0.40902971  0.40369274  0.50166822  1
  Ta  Ta104  1  -0.00075503  0.00461401  0.01611311  1
  Ta  Ta105  1  0.49301842  0.68870809  0.63603353  1
  Ta  Ta106  1  0.01938455  0.20314603  0.23042912  1
  Ta  Ta107  1  0.18924891  0.40763903  0.74299296  1
  Ta  Ta108  1  -0.00503189  0.77903885  0.00798326  1
  Ta  Ta109  1  0.91091662  0.49523183  0.87028859  1
  Ta  Ta110  1  0.18485763  0.59940891  0.74613977  1
  Ta  Ta111  1  0.09668969  0.49121558  0.60968770  1
  Ta  Ta112  1  0.49044630  0.90164711  0.86818945  1
  Ta  Ta113  1  0.60025356  0.60257531  0.26857898  1
  Ta  Ta114  1  0.70083776  0.89080893  0.38568353  1
  Ta  Ta115  1  -0.00388199  0.78609482  0.75157861  1
  Ta  Ta116  1  0.10436061  0.09317620  0.36799533  1
  Ta  Ta117  1  0.40374654  0.20797634  0.50339861  1
  Ta  Ta118  1  0.29436659  0.89071256  0.12110665  1
  Ta  Ta119  1  0.08741983  0.69699429  0.39078938  1
  Ti  Ti120  1  0.31256034  0.70047882  0.12229427  1
  Ti  Ti121  1  0.40359764  0.60090859  0.00180978  1
  Ti  Ti122  1  0.80570988  0.19990901  0.76524409  1
  Ti  Ti123  1  0.69801688  0.50001153  0.87603960  1
  Ti  Ti124  1  0.20149538  0.60223913  0.00159228  1
  Ti  Ti125  1  0.42729755  0.22349423  0.75725881  1
  Ti  Ti126  1  0.30674602  0.10559098  0.86561498  1
  Ti  Ti127  1  0.09220176  0.90128869  0.37285074  1
  Ti  Ti128  1  0.50290529  0.90679356  0.35585210  1
  Ti  Ti129  1  0.90071369  0.90213427  0.61059040  1
  Ti  Ti130  1  0.09222410  0.89421191  0.62397994  1
  Ti  Ti131  1  0.49362170  0.71856876  0.36895806  1
  Ti  Ti132  1  0.60148050  0.20981941  0.48682519  1
  Ti  Ti133  1  0.39200333  0.79653892  0.76247583  1
  Ti  Ti134  1  0.28502029  0.69524698  0.87211941  1
  Ti  Ti135  1  0.09232086  0.29038318  0.62350338  1
  Ti  Ti136  1  0.09725084  0.51353708  0.87696157  1
  Ti  Ti137  1  0.80869795  0.20737217  -0.01163599  1
  Ti  Ti138  1  0.08121267  0.49158099  0.11991921  1
  Ti  Ti139  1  -0.01264210  0.59803997  0.26030564  1
  Ti  Ti140  1  0.20824186  0.19104093  0.21713170  1
  Ti  Ti141  1  -0.00707509  0.58915790  0.00218404  1
  Ti  Ti142  1  0.19959274  -0.00204929  0.01827350  1
  Ti  Ti143  1  0.20750531  0.17991550  0.50539642  1
  Ti  Ti144  1  0.70100935  0.68716787  0.87254477  1
  Ti  Ti145  1  0.70631586  0.10352229  0.60882572  1
  Ti  Ti146  1  0.70945076  0.69962025  0.12906233  1
  Ti  Ti147  1  0.19474979  0.78822845  0.00204682  1
  Ti  Ti148  1  0.50491714  0.29996215  0.14268469  1
  Ti  Ti149  1  0.18792076  0.20972027  0.76155211  1
  Ti  Ti150  1  0.90342625  0.50225213  0.39125311  1
  Ti  Ti151  1  0.51045237  0.50650682  0.62942506  1
  Ti  Ti152  1  0.80841338  0.59913253  -0.00179075  1
  Ti  Ti153  1  0.92099089  0.10806125  0.37426613  1
  Ti  Ti154  1  0.59888818  0.39661561  0.00058056  1
  Ti  Ti155  1  -0.00573268  0.20964358  0.00525358  1
  Ti  Ti156  1  0.90896925  0.68958950  0.87365347  1
  Ti  Ti157  1  0.89077363  0.11831745  0.12175367  1
  Ti  Ti158  1  0.60815547  0.40311341  0.26324879  1
  Ti  Ti159  1  0.59778790  0.78893004  0.49873594  1
  Mo  Mo160  1  0.40072311  0.80059248  0.24249997  1
  Mo  Mo161  1  0.02155004  0.19803644  0.49816409  1
  Mo  Mo162  1  0.19822203  0.00386567  0.49411916  1
  Mo  Mo163  1  0.70134862  0.10848615  0.87291820  1
  Mo  Mo164  1  0.29522960  0.70252393  0.37896204  1
  Mo  Mo165  1  0.70505540  0.10624081  0.12248591  1
  Mo  Mo166  1  0.69739122  0.50209502  0.36200238  1
  Mo  Mo167  1  0.09356675  0.10372047  0.10703689  1
  Mo  Mo168  1  0.91238443  0.29617445  0.62920530  1
  Mo  Mo169  1  0.89857609  0.51162771  0.13368187  1
  Mo  Mo170  1  0.40691588  0.00992237  0.76135248  1
  Mo  Mo171  1  0.79020738  0.81017457  0.50774352  1
  Mo  Mo172  1  0.40543036  0.40445928  0.74427551  1
  Mo  Mo173  1  -0.00538499  0.40984488  0.00147458  1
  Mo  Mo174  1  0.30871318  0.09510719  0.12346439  1
  Mo  Mo175  1  0.70196952  0.30015356  0.37971367  1
  Mo  Mo176  1  0.59987641  -0.00087254  0.25814899  1
  Mo  Mo177  1  0.00156175  0.80960097  0.49519125  1
  Mo  Mo178  1  0.80059926  0.79568063  0.25187561  1
  Mo  Mo179  1  0.59966056  0.59374514  0.75657285  1
  Mo  Mo180  1  0.68337499  0.48957370  0.61730505  1
  Mo  Mo181  1  0.49800560  0.68845428  0.12966457  1
  Mo  Mo182  1  0.89160903  0.68056124  0.12681212  1
  Mo  Mo183  1  0.19127820  0.00553607  0.76675709  1
  Mo  Mo184  1  0.90976166  0.11004251  0.88379546  1
  Mo  Mo185  1  0.90176732  0.30199915  0.87947757  1
  Mo  Mo186  1  0.69115584  0.70907901  0.38128397  1
  Mo  Mo187  1  0.49604523  0.50024743  0.36435383  1
  Mo  Mo188  1  0.50796098  0.30207253  0.87880683  1
  Mo  Mo189  1  0.39748071  0.60292603  0.75140699  1
  Mo  Mo190  1  0.80110497  0.00927094  0.49902056  1
  Mo  Mo191  1  0.09815529  0.88599826  0.10289446  1
  Mo  Mo192  1  0.39784359  0.40316994  0.23381436  1
  Mo  Mo193  1  0.40034954  0.20100996  0.22712822  1
  Mo  Mo194  1  0.31260953  0.30617953  0.12746652  1
  Mo  Mo195  1  0.09591069  0.30090273  0.11570942  1
  Mo  Mo196  1  -0.00230394  0.59027769  0.49659949  1
  Mo  Mo197  1  0.91833830  0.30427474  0.36402433  1
  Mo  Mo198  1  0.79707575  0.39702113  0.47628888  1
  Mo  Mo199  1  0.09364539  0.68477295  0.88202390  1
