# generated using pymatgen
data_HfZrTaTiMo
_symmetry_space_group_name_H-M   'P 1'
_cell_length_a   15.20881903
_cell_length_b   15.21143265
_cell_length_c   16.86122804
_cell_angle_alpha   90.01155070
_cell_angle_beta   89.95970178
_cell_angle_gamma   90.07345085
_symmetry_Int_Tables_number   1
_chemical_formula_structural   HfZrTaTiMo
_chemical_formula_sum   'Hf40 Zr40 Ta40 Ti40 Mo40'
_cell_volume   3900.80589355
_cell_formula_units_Z   40
loop_
 _symmetry_equiv_pos_site_id
 _symmetry_equiv_pos_as_xyz
  1  'x, y, z'
loop_
 _atom_site_type_symbol
 _atom_site_label
 _atom_site_symmetry_multiplicity
 _atom_site_fract_x
 _atom_site_fract_y
 _atom_site_fract_z
 _atom_site_occupancy
  Hf  Hf0  1  0.89856074  0.69051014  0.39369721  1
  Hf  Hf1  1  0.20931987  0.19887474  0.24627826  1
  Hf  Hf2  1  0.19844455  0.00809747  0.50574172  1
  Hf  Hf3  1  0.19320126  0.60004561  0.24333239  1
  Hf  Hf4  1  0.01224382  0.19738319  0.49401836  1
  Hf  Hf5  1  -0.00272959  0.19612957  0.26222329  1
  Hf  Hf6  1  0.08104604  0.91110736  0.13149323  1
  Hf  Hf7  1  0.89352907  0.09781398  0.61649360  1
  Hf  Hf8  1  0.91594910  0.09408329  0.11938770  1
  Hf  Hf9  1  0.71422704  0.88976230  0.11663559  1
  Hf  Hf10  1  0.29926364  0.11679773  0.63419974  1
  Hf  Hf11  1  0.71580564  0.90120248  0.88776641  1
  Hf  Hf12  1  -0.00210132  0.40888685  0.23390167  1
  Hf  Hf13  1  0.41999877  0.40915291  -0.01641167  1
  Hf  Hf14  1  0.49541484  0.49432785  0.63516010  1
  Hf  Hf15  1  0.60107326  0.00694459  0.00482246  1
  Hf  Hf16  1  0.69629792  0.30705345  0.37320173  1
  Hf  Hf17  1  0.79320301  0.18971662  0.49292525  1
  Hf  Hf18  1  0.31052712  0.51363433  0.11325403  1
  Hf  Hf19  1  0.20066478  0.80215421  0.50769613  1
  Hf  Hf20  1  0.19974254  0.79868693  0.74720789  1
  Hf  Hf21  1  0.40177912  0.80669251  0.25610162  1
  Hf  Hf22  1  0.12554921  0.50687952  0.63413057  1
  Hf  Hf23  1  0.31398491  0.28778205  0.88385035  1
  Hf  Hf24  1  -0.02735649  0.79958566  0.24534608  1
  Hf  Hf25  1  0.19899218  0.18565346  0.00560355  1
  Hf  Hf26  1  0.19721729  0.41081780  -0.00453332  1
  Hf  Hf27  1  0.20271478  0.00208716  0.24320793  1
  Hf  Hf28  1  0.58215183  0.59033235  -0.00437707  1
  Hf  Hf29  1  -0.00394506  0.00305044  0.48473722  1
  Hf  Hf30  1  0.09879942  0.91861293  0.86803860  1
  Hf  Hf31  1  0.71160521  0.49689531  0.87536493  1
  Hf  Hf32  1  0.58407949  0.20679566  0.01485915  1
  Hf  Hf33  1  0.40152679  0.00982391  0.01240665  1
  Hf  Hf34  1  0.89866764  0.30804066  0.38309213  1
  Hf  Hf35  1  0.71044146  0.09516687  0.13029023  1
  Hf  Hf36  1  0.58118763  0.80034116  -0.01039182  1
  Hf  Hf37  1  0.32234415  0.30460523  0.10871580  1
  Hf  Hf38  1  0.38938058  0.58622296  0.50537365  1
  Hf  Hf39  1  0.40189532  0.80508557  0.74626342  1
  Zr  Zr40  1  0.89616919  0.07994045  0.88446190  1
  Zr  Zr41  1  -0.00775435  0.19845490  0.74561995  1
  Zr  Zr42  1  0.11243555  0.31695599  0.37508503  1
  Zr  Zr43  1  -0.00935753  0.80526741  0.75096817  1
  Zr  Zr44  1  0.40423614  0.59611158  0.25841154  1
  Zr  Zr45  1  0.01414324  0.39455824  0.74325157  1
  Zr  Zr46  1  0.50736620  0.70725357  0.39031179  1
  Zr  Zr47  1  0.88739809  0.68852196  0.89014691  1
  Zr  Zr48  1  0.31213979  0.31692072  0.63851521  1
  Zr  Zr49  1  0.09017481  0.28816965  0.11877179  1
  Zr  Zr50  1  -0.02334566  0.84278525  -0.00736265  1
  Zr  Zr51  1  0.61274253  0.39148910  0.74185541  1
  Zr  Zr52  1  0.40465866  0.20220302  0.23849375  1
  Zr  Zr53  1  0.40532560  0.81792634  0.50714417  1
  Zr  Zr54  1  0.80987243  0.60466475  0.24855589  1
  Zr  Zr55  1  0.87935196  0.88312141  0.39034655  1
  Zr  Zr56  1  0.79010462  -0.01060072  0.74327736  1
  Zr  Zr57  1  0.49178301  0.30203102  0.36938231  1
  Zr  Zr58  1  0.90874889  0.48959579  0.88083937  1
  Zr  Zr59  1  0.30150749  0.71144590  0.11847447  1
  Zr  Zr60  1  0.78813443  0.78040165  0.74619838  1
  Zr  Zr61  1  0.88672239  0.89830361  0.60932437  1
  Zr  Zr62  1  0.60554660  0.59912295  0.25542514  1
  Zr  Zr63  1  0.90230193  0.69655492  0.61107740  1
  Zr  Zr64  1  0.09385112  0.70682553  0.88738845  1
  Zr  Zr65  1  0.88988245  0.70083490  0.09968567  1
  Zr  Zr66  1  0.40395039  0.01911566  0.50627062  1
  Zr  Zr67  1  0.58257064  0.19185233  0.49882580  1
  Zr  Zr68  1  0.68954060  0.69384988  0.11291591  1
  Zr  Zr69  1  0.20984224  0.40383897  0.23578120  1
  Zr  Zr70  1  0.81114154  0.38997075  0.73944190  1
  Zr  Zr71  1  0.19177155  0.20801300  0.75931227  1
  Zr  Zr72  1  0.19748460  -0.01002099  0.00844390  1
  Zr  Zr73  1  0.78483816  0.19419548  0.74778584  1
  Zr  Zr74  1  0.90811366  0.49930563  0.38397804  1
  Zr  Zr75  1  0.80032236  -0.01098631  0.26283398  1
  Zr  Zr76  1  0.50587528  0.71081053  0.62388196  1
  Zr  Zr77  1  0.09984089  0.70493433  0.10159589  1
  Zr  Zr78  1  0.09293724  0.70066901  0.37317124  1
  Zr  Zr79  1  0.29204158  0.70033170  0.38073509  1
  Ta  Ta80  1  0.30287930  0.91768412  0.37233254  1
  Ta  Ta81  1  0.67503067  0.07805138  0.62230265  1
  Ta  Ta82  1  0.70771617  0.70941365  0.38410087  1
  Ta  Ta83  1  0.41278083  0.01099493  0.74503350  1
  Ta  Ta84  1  0.48957712  0.11755444  0.87761932  1
  Ta  Ta85  1  0.60539770  0.40526390  0.51154112  1
  Ta  Ta86  1  0.60675718  0.80448047  0.25381581  1
  Ta  Ta87  1  0.22088982  0.20903400  0.49151729  1
  Ta  Ta88  1  0.70432234  0.29902675  0.13318759  1
  Ta  Ta89  1  0.22058470  0.60689905  -0.02253642  1
  Ta  Ta90  1  0.40527450  0.38681303  0.50442734  1
  Ta  Ta91  1  0.90837740  0.49759871  0.61869840  1
  Ta  Ta92  1  0.78820007  0.58966089  0.51141484  1
  Ta  Ta93  1  0.21464397  0.41512908  0.50428488  1
  Ta  Ta94  1  0.11336861  0.29349534  0.61579221  1
  Ta  Ta95  1  -0.00669235  0.39251636  0.01174915  1
  Ta  Ta96  1  0.30030454  0.08902961  0.86965683  1
  Ta  Ta97  1  0.08939111  0.30232470  0.88876243  1
  Ta  Ta98  1  0.59726307  0.81270425  0.76168715  1
  Ta  Ta99  1  0.09648985  0.91082942  0.62707194  1
  Ta  Ta100  1  0.60883374  0.61018839  0.74683614  1
  Ta  Ta101  1  0.30648602  0.48303042  0.37226043  1
  Ta  Ta102  1  0.19991580  0.00463566  0.74227596  1
  Ta  Ta103  1  0.50969748  0.49401993  0.38498665  1
  Ta  Ta104  1  0.11441941  0.09891498  0.37283017  1
  Ta  Ta105  1  0.61068041  0.39738702  -0.00077935  1
  Ta  Ta106  1  0.50800013  0.50484539  0.85791990  1
  Ta  Ta107  1  0.40033273  0.00392637  0.23649322  1
  Ta  Ta108  1  0.60315676  0.19394320  0.24484203  1
  Ta  Ta109  1  0.80001531  0.40070309  0.24486664  1
  Ta  Ta110  1  0.50048775  0.89107475  0.12592697  1
  Ta  Ta111  1  0.29174914  0.68430023  0.62672994  1
  Ta  Ta112  1  0.70135671  0.49180225  0.12210752  1
  Ta  Ta113  1  0.50261119  0.49183986  0.12740837  1
  Ta  Ta114  1  0.69015699  0.69134300  0.88249952  1
  Ta  Ta115  1  0.58148741  0.19144401  0.74485017  1
  Ta  Ta116  1  -0.00015265  0.59989821  0.74627286  1
  Ta  Ta117  1  0.30391697  0.90088976  0.87080775  1
  Ta  Ta118  1  0.79663320  0.19775831  0.00291394  1
  Ta  Ta119  1  0.01405017  0.40326342  0.51138056  1
  Ti  Ti120  1  0.49137332  0.09098511  0.36497767  1
  Ti  Ti121  1  0.20532977  0.60239450  0.76852209  1
  Ti  Ti122  1  0.68921601  0.10196009  0.87872081  1
  Ti  Ti123  1  0.09880307  0.50273473  0.87474191  1
  Ti  Ti124  1  0.10868116  0.50845579  0.38008615  1
  Ti  Ti125  1  0.80110417  0.38712378  0.00820433  1
  Ti  Ti126  1  0.79775021  0.40045982  0.51151243  1
  Ti  Ti127  1  0.38567243  0.79768186  -0.01136442  1
  Ti  Ti128  1  0.00118145  0.00692822  0.74023857  1
  Ti  Ti129  1  0.10125235  0.70149837  0.62745518  1
  Ti  Ti130  1  0.30320236  0.90377680  0.63178204  1
  Ti  Ti131  1  0.80295209  0.19808781  0.25937304  1
  Ti  Ti132  1  0.58869837  -0.01561548  0.49005859  1
  Ti  Ti133  1  0.69486203  0.28632658  0.61804381  1
  Ti  Ti134  1  0.89572536  0.28938076  0.88188288  1
  Ti  Ti135  1  0.67846043  0.88393601  0.62036142  1
  Ti  Ti136  1  0.09588727  0.10769311  0.87723677  1
  Ti  Ti137  1  0.69114085  0.09206656  0.37021821  1
  Ti  Ti138  1  0.90487164  0.29735166  0.61181792  1
  Ti  Ti139  1  0.60635016  0.60164630  0.50935605  1
  Ti  Ti140  1  0.41288845  0.38849825  0.76548863  1
  Ti  Ti141  1  0.48963716  0.69570751  0.12207036  1
  Ti  Ti142  1  0.48839706  0.70010347  0.86678049  1
  Ti  Ti143  1  0.79934609  0.58833501  0.73465087  1
  Ti  Ti144  1  0.59689345  0.39977908  0.24843633  1
  Ti  Ti145  1  0.01869027  0.59573688  0.50842077  1
  Ti  Ti146  1  0.59253395  -0.00627011  0.24880829  1
  Ti  Ti147  1  0.77670607  -0.00782500  0.49248441  1
  Ti  Ti148  1  0.00326276  0.59902990  0.23579261  1
  Ti  Ti149  1  0.70453464  0.50125580  0.37879035  1
  Ti  Ti150  1  0.49753066  0.91765714  0.87311929  1
  Ti  Ti151  1  0.29833466  0.89451926  0.12324782  1
  Ti  Ti152  1  0.10368711  0.89768944  0.37068140  1
  Ti  Ti153  1  0.21275828  0.40864981  0.76973202  1
  Ti  Ti154  1  0.69493810  0.29058337  0.87810553  1
  Ti  Ti155  1  -0.00520822  0.00283035  0.26919236  1
  Ti  Ti156  1  0.89740999  0.50119573  0.11174050  1
  Ti  Ti157  1  0.00801197  0.80395579  0.50284593  1
  Ti  Ti158  1  0.39316694  0.59775633  0.75317823  1
  Ti  Ti159  1  0.19523189  0.80338026  0.25155867  1
  Mo  Mo160  1  0.77815455  0.79003522  0.51020859  1
  Mo  Mo161  1  0.69468254  0.69619917  0.62509534  1
  Mo  Mo162  1  0.59884785  0.00162331  0.76081943  1
  Mo  Mo163  1  0.20055906  0.59627997  0.50214868  1
  Mo  Mo164  1  0.10006219  0.10033808  0.13597370  1
  Mo  Mo165  1  0.30468368  0.10326443  0.37307592  1
  Mo  Mo166  1  0.10020536  0.50748475  0.11370030  1
  Mo  Mo167  1  0.78948236  0.79243064  -0.00959455  1
  Mo  Mo168  1  0.40304934  0.19654019  0.00921975  1
  Mo  Mo169  1  0.49674793  0.90842501  0.36532643  1
  Mo  Mo170  1  0.40960919  0.40929939  0.24870473  1
  Mo  Mo171  1  0.50375862  0.29521110  0.62165313  1
  Mo  Mo172  1  0.78766652  0.57945330  0.00049442  1
  Mo  Mo173  1  0.60247830  0.80629173  0.49776479  1
  Mo  Mo174  1  0.88342306  0.29714124  0.12808724  1
  Mo  Mo175  1  0.51509594  0.31114981  0.13302675  1
  Mo  Mo176  1  0.88927165  0.90724972  0.12916920  1
  Mo  Mo177  1  0.51511813  0.30029566  0.87504398  1
  Mo  Mo178  1  0.90251140  0.90014855  0.86120373  1
  Mo  Mo179  1  0.30339711  0.09586059  0.12359166  1
  Mo  Mo180  1  0.10167677  0.10211304  0.62215032  1
  Mo  Mo181  1  0.40725457  0.60850686  -0.01162887  1
  Mo  Mo182  1  0.81065459  -0.00644696  0.00313343  1
  Mo  Mo183  1  0.51337659  0.92004332  0.63464339  1
  Mo  Mo184  1  0.39555774  0.20488043  0.49529731  1
  Mo  Mo185  1  0.30373320  0.30322143  0.37524889  1
  Mo  Mo186  1  0.70296670  0.49973353  0.62445987  1
  Mo  Mo187  1  0.01556552  0.57630146  0.00198674  1
  Mo  Mo188  1  0.68002223  0.89760875  0.37730309  1
  Mo  Mo189  1  -0.00736259  0.20404451  -0.00532375  1
  Mo  Mo190  1  0.30440055  0.70553660  0.86829399  1
  Mo  Mo191  1  0.30625542  0.50289608  0.64468777  1
  Mo  Mo192  1  0.50791818  0.09454061  0.13575780  1
  Mo  Mo193  1  0.78915434  0.78894584  0.25305711  1
  Mo  Mo194  1  0.49900848  0.10638000  0.62782654  1
  Mo  Mo195  1  0.00863149  0.02125099  -0.00011742  1
  Mo  Mo196  1  0.20268836  0.80713875  -0.01037661  1
  Mo  Mo197  1  0.30935336  0.50253761  0.86610503  1
  Mo  Mo198  1  0.40093957  0.20223537  0.75703827  1
  Mo  Mo199  1  0.89263526  0.10108031  0.37977645  1
