# generated using pymatgen
data_HfZrTaTiMo
_symmetry_space_group_name_H-M   'P 1'
_cell_length_a   15.21457885
_cell_length_b   15.21140854
_cell_length_c   16.85814372
_cell_angle_alpha   90.00523191
_cell_angle_beta   89.93435106
_cell_angle_gamma   89.99112762
_symmetry_Int_Tables_number   1
_chemical_formula_structural   HfZrTaTiMo
_chemical_formula_sum   'Hf40 Zr40 Ta40 Ti40 Mo40'
_cell_volume   3901.56481096
_cell_formula_units_Z   40
loop_
 _symmetry_equiv_pos_site_id
 _symmetry_equiv_pos_as_xyz
  1  'x, y, z'
loop_
 _atom_site_type_symbol
 _atom_site_label
 _atom_site_symmetry_multiplicity
 _atom_site_fract_x
 _atom_site_fract_y
 _atom_site_fract_z
 _atom_site_occupancy
  Hf  Hf0  1  -0.00760552  0.80287335  0.00380290  1
  Hf  Hf1  1  -0.00788147  0.60300099  0.25860270  1
  Hf  Hf2  1  0.70185199  0.10439310  0.62890868  1
  Hf  Hf3  1  0.08622576  0.70597209  0.38713936  1
  Hf  Hf4  1  0.91001075  0.29983026  0.36765737  1
  Hf  Hf5  1  0.79890455  0.59212882  0.25408873  1
  Hf  Hf6  1  0.38854815  -0.00117167  0.50338306  1
  Hf  Hf7  1  0.19329177  0.79734583  0.25453738  1
  Hf  Hf8  1  0.30278953  0.09160683  0.35815862  1
  Hf  Hf9  1  0.59387560  0.58612637  0.24990050  1
  Hf  Hf10  1  0.70644634  0.90865116  0.37331932  1
  Hf  Hf11  1  0.10510645  0.09594667  0.88567093  1
  Hf  Hf12  1  0.39324250  0.38544833  0.76740257  1
  Hf  Hf13  1  0.80865731  0.39958985  0.75107680  1
  Hf  Hf14  1  0.80198799  0.79603925  0.25100360  1
  Hf  Hf15  1  0.70205903  0.49947775  0.38705065  1
  Hf  Hf16  1  0.89943827  0.70611001  0.86874391  1
  Hf  Hf17  1  -0.00375253  0.81630299  0.24780797  1
  Hf  Hf18  1  0.19753129  0.59697547  0.25894034  1
  Hf  Hf19  1  0.92196547  0.50344228  0.63403570  1
  Hf  Hf20  1  0.19234725  0.58605841  0.49404506  1
  Hf  Hf21  1  0.81709194  0.00485687  0.24280733  1
  Hf  Hf22  1  0.00935552  0.37469697  0.50498921  1
  Hf  Hf23  1  0.10153366  0.89014806  0.87767330  1
  Hf  Hf24  1  0.70995169  0.11317139  0.10059934  1
  Hf  Hf25  1  0.79702371  0.00006782  0.75470902  1
  Hf  Hf26  1  0.19355189  0.58297710  0.76296509  1
  Hf  Hf27  1  0.41194484  0.00044588  0.00050216  1
  Hf  Hf28  1  0.40223324  0.58194513  -0.01665059  1
  Hf  Hf29  1  0.59826264  0.79175744  0.25008516  1
  Hf  Hf30  1  0.00026869  0.00142851  0.75113621  1
  Hf  Hf31  1  0.48165923  0.89438072  0.64073254  1
  Hf  Hf32  1  0.31278940  0.09376580  0.13474574  1
  Hf  Hf33  1  -0.00418771  0.79280876  0.73727328  1
  Hf  Hf34  1  0.10982673  0.10604249  0.62935356  1
  Hf  Hf35  1  0.70287843  0.71198712  0.88170516  1
  Hf  Hf36  1  0.39896781  0.79829822  0.49826583  1
  Hf  Hf37  1  0.59856264  0.00381167  0.50432390  1
  Hf  Hf38  1  0.09123074  0.67691474  0.62309869  1
  Hf  Hf39  1  0.89398127  0.10258393  0.88744917  1
  Zr  Zr40  1  0.49339035  0.90467127  0.36312312  1
  Zr  Zr41  1  0.18191167  0.20346517  0.48620005  1
  Zr  Zr42  1  0.59376729  0.00724804  0.75191923  1
  Zr  Zr43  1  0.30026857  0.70026476  0.62581872  1
  Zr  Zr44  1  0.59726870  0.21037734  0.49728308  1
  Zr  Zr45  1  -0.00185301  0.60191019  0.00311512  1
  Zr  Zr46  1  0.57835892  0.81772696  0.00235816  1
  Zr  Zr47  1  0.47553579  0.11490537  0.86480796  1
  Zr  Zr48  1  0.69915140  0.49750653  0.11059515  1
  Zr  Zr49  1  0.39395449  0.20686919  0.49141710  1
  Zr  Zr50  1  0.22090071  0.19037726  0.76549488  1
  Zr  Zr51  1  0.01167134  0.40684574  0.00021171  1
  Zr  Zr52  1  0.31756189  0.48903606  0.37832400  1
  Zr  Zr53  1  0.60631322  0.60504281  0.75322828  1
  Zr  Zr54  1  0.70767292  0.50518819  0.87507659  1
  Zr  Zr55  1  0.31638888  0.30961314  0.12403599  1
  Zr  Zr56  1  0.49309631  0.91664389  0.14165104  1
  Zr  Zr57  1  0.40231521  0.59390574  0.24247021  1
  Zr  Zr58  1  0.50506783  0.33449205  0.36521542  1
  Zr  Zr59  1  0.30361392  0.69834055  0.38545367  1
  Zr  Zr60  1  0.08191828  0.09457073  0.36774060  1
  Zr  Zr61  1  -0.00721401  0.18711846  0.23030113  1
  Zr  Zr62  1  0.29437904  0.69961391  0.10702598  1
  Zr  Zr63  1  0.70570410  0.30372879  0.63040108  1
  Zr  Zr64  1  0.81799992  0.21051922  0.50700227  1
  Zr  Zr65  1  0.48355263  0.11084003  0.63391355  1
  Zr  Zr66  1  0.59699672  0.79887924  0.50541519  1
  Zr  Zr67  1  0.38794624  0.80042918  0.24941162  1
  Zr  Zr68  1  0.00629639  0.20656225  0.00414840  1
  Zr  Zr69  1  0.10999815  0.49926268  0.13247973  1
  Zr  Zr70  1  0.30525279  0.49648433  0.62494431  1
  Zr  Zr71  1  0.61510045  0.21655392  0.24507814  1
  Zr  Zr72  1  0.88473484  0.29844433  0.11946904  1
  Zr  Zr73  1  0.50815658  0.10316928  0.35612656  1
  Zr  Zr74  1  0.70074726  0.91552874  0.11931174  1
  Zr  Zr75  1  0.69331362  0.69988465  0.11354561  1
  Zr  Zr76  1  -0.00698826  0.80279898  0.51438628  1
  Zr  Zr77  1  0.28733605  0.29225666  0.62402877  1
  Zr  Zr78  1  0.48948392  0.71541589  0.87362707  1
  Zr  Zr79  1  0.19221366  -0.01336789  0.24733091  1
  Ta  Ta80  1  0.80653621  0.40382988  -0.01317024  1
  Ta  Ta81  1  0.19553152  0.20367126  0.24529097  1
  Ta  Ta82  1  0.90653872  0.30518083  0.87392716  1
  Ta  Ta83  1  0.60060327  0.60352115  0.51447893  1
  Ta  Ta84  1  0.20924845  -0.01201423  0.00652884  1
  Ta  Ta85  1  0.70985181  0.10556465  0.37644422  1
  Ta  Ta86  1  0.68589622  0.31136769  0.10333386  1
  Ta  Ta87  1  0.09468540  0.90105357  0.11297882  1
  Ta  Ta88  1  0.50088921  0.49924739  0.64016795  1
  Ta  Ta89  1  0.91358264  0.50724395  0.86233464  1
  Ta  Ta90  1  0.90759728  0.11381620  0.63233209  1
  Ta  Ta91  1  0.35985957  0.00196338  0.74650449  1
  Ta  Ta92  1  0.69274047  0.69852366  0.38310805  1
  Ta  Ta93  1  0.70553841  0.50725587  0.62728339  1
  Ta  Ta94  1  0.81310572  0.41326623  0.50783465  1
  Ta  Ta95  1  -0.00400097  0.39988802  0.24608991  1
  Ta  Ta96  1  0.20831499  0.80287426  0.74805508  1
  Ta  Ta97  1  0.89584860  0.09497267  0.37826144  1
  Ta  Ta98  1  0.69464567  0.90729359  0.88319252  1
  Ta  Ta99  1  0.60082208  0.41233767  0.51255717  1
  Ta  Ta100  1  0.71019946  0.30805408  0.38270922  1
  Ta  Ta101  1  0.70019418  0.90008982  0.62487327  1
  Ta  Ta102  1  0.49539178  0.69437354  0.64141862  1
  Ta  Ta103  1  0.29902356  0.29880858  0.35938260  1
  Ta  Ta104  1  0.30312988  0.89248394  0.88080193  1
  Ta  Ta105  1  0.39418173  0.59457738  0.76896357  1
  Ta  Ta106  1  0.60011517  0.40046554  0.75838836  1
  Ta  Ta107  1  0.21944865  0.19812986  -0.00129866  1
  Ta  Ta108  1  0.80842242  0.60298494  -0.00196252  1
  Ta  Ta109  1  0.81100778  0.61360452  0.73704368  1
  Ta  Ta110  1  0.91189208  0.90676272  0.38400237  1
  Ta  Ta111  1  0.19460240  -0.00683364  0.49196610  1
  Ta  Ta112  1  0.49782502  0.47182026  0.11694045  1
  Ta  Ta113  1  0.80739536  0.00170536  0.50683872  1
  Ta  Ta114  1  0.10540913  0.09471215  0.11367201  1
  Ta  Ta115  1  0.60529142  0.80650894  0.74782510  1
  Ta  Ta116  1  0.19433872  0.58823873  -0.01334700  1
  Ta  Ta117  1  0.69189026  0.10458199  0.88844761  1
  Ta  Ta118  1  0.09870992  0.70191628  0.12301442  1
  Ta  Ta119  1  0.49694406  0.30922612  0.63332080  1
  Ti  Ti120  1  0.02131798  0.40074050  0.75676700  1
  Ti  Ti121  1  0.51254150  0.10893588  0.13273858  1
  Ti  Ti122  1  0.20547955  0.39824540  0.25240514  1
  Ti  Ti123  1  0.80036357  0.60998213  0.51455178  1
  Ti  Ti124  1  0.59703144  0.21273718  0.75756985  1
  Ti  Ti125  1  0.49015223  0.90595033  0.86112284  1
  Ti  Ti126  1  0.79738546  0.80096761  0.50804929  1
  Ti  Ti127  1  0.58073639  0.20601256  -0.00481685  1
  Ti  Ti128  1  0.19872197  0.80890938  0.49969907  1
  Ti  Ti129  1  0.09770825  0.69353884  0.87120576  1
  Ti  Ti130  1  0.28566441  0.47122538  0.88474696  1
  Ti  Ti131  1  0.12321909  0.31296500  0.88060193  1
  Ti  Ti132  1  0.79979980  0.20146633  0.24927803  1
  Ti  Ti133  1  0.88529184  0.69858300  0.38456435  1
  Ti  Ti134  1  0.79443890  0.80363120  0.74081175  1
  Ti  Ti135  1  0.49313102  0.69107444  0.10972011  1
  Ti  Ti136  1  0.59631299  0.59619174  -0.01027664  1
  Ti  Ti137  1  0.89274840  0.90269956  0.88009599  1
  Ti  Ti138  1  0.30332430  0.49539468  0.11309592  1
  Ti  Ti139  1  0.58491135  0.40183256  -0.02235727  1
  Ti  Ti140  1  0.90642462  0.07363984  0.09770946  1
  Ti  Ti141  1  0.29121868  0.70776417  0.88323252  1
  Ti  Ti142  1  0.11507724  0.47362012  0.62658835  1
  Ti  Ti143  1  0.40654395  0.21347697  0.24592293  1
  Ti  Ti144  1  0.80488132  0.20218994  0.75735832  1
  Ti  Ti145  1  0.89656744  0.70004000  0.12598472  1
  Ti  Ti146  1  0.70360106  0.29503219  0.88221442  1
  Ti  Ti147  1  0.08908764  0.47952715  0.37063097  1
  Ti  Ti148  1  0.00093214  0.00654575  0.51052538  1
  Ti  Ti149  1  0.11211031  0.30149675  0.12420157  1
  Ti  Ti150  1  0.78851732  0.39565509  0.24799157  1
  Ti  Ti151  1  -0.01525687  0.58059504  0.48640015  1
  Ti  Ti152  1  0.89563898  0.90761965  0.62551712  1
  Ti  Ti153  1  0.79925055  0.80657402  0.00590522  1
  Ti  Ti154  1  0.00613342  0.21113546  0.75951788  1
  Ti  Ti155  1  0.40806590  0.40212569  0.50535619  1
  Ti  Ti156  1  0.20362905  0.39046904  0.48696611  1
  Ti  Ti157  1  0.41841980  0.59624644  0.50161053  1
  Ti  Ti158  1  0.11219615  0.90226593  0.63010465  1
  Ti  Ti159  1  0.89657917  0.49919848  0.12498538  1
  Mo  Mo160  1  0.50897935  0.68843433  0.38008277  1
  Mo  Mo161  1  0.61531148  0.01371782  0.25230099  1
  Mo  Mo162  1  0.39297982  0.79678688  0.75315733  1
  Mo  Mo163  1  0.29016530  0.90002865  0.37972350  1
  Mo  Mo164  1  0.00237145  0.59659545  0.75073834  1
  Mo  Mo165  1  0.28833236  0.08727515  0.61776861  1
  Mo  Mo166  1  0.18942131  -0.01157714  0.75462559  1
  Mo  Mo167  1  0.29259554  0.89546565  0.11472361  1
  Mo  Mo168  1  0.09085215  0.29644707  0.63687074  1
  Mo  Mo169  1  0.49735026  0.50162431  0.86433237  1
  Mo  Mo170  1  0.40016969  0.19730740  0.74363543  1
  Mo  Mo171  1  0.38517822  0.80591003  0.00474531  1
  Mo  Mo172  1  -0.00400081  -0.00424740  0.23997988  1
  Mo  Mo173  1  0.89771737  0.49440681  0.37958171  1
  Mo  Mo174  1  0.89902185  0.89495547  0.11638637  1
  Mo  Mo175  1  0.20712894  0.39575685  0.00404979  1
  Mo  Mo176  1  0.59616307  0.01211815  -0.01010609  1
  Mo  Mo177  1  0.69900749  0.70717580  0.62651884  1
  Mo  Mo178  1  0.40937116  0.40641432  0.24572610  1
  Mo  Mo179  1  0.89261494  0.69949940  0.62154053  1
  Mo  Mo180  1  0.39995651  0.00753205  0.24592879  1
  Mo  Mo181  1  0.50997859  0.29911009  0.86990430  1
  Mo  Mo182  1  0.51022643  0.51526850  0.38782398  1
  Mo  Mo183  1  0.31422389  0.28030627  0.89070360  1
  Mo  Mo184  1  0.09322743  0.89995111  0.38566559  1
  Mo  Mo185  1  0.40797230  0.19785876  0.00891930  1
  Mo  Mo186  1  0.40676750  0.38533198  -0.01724611  1
  Mo  Mo187  1  0.91604905  0.29818648  0.64460560  1
  Mo  Mo188  1  -0.00511157  0.18901682  0.50089773  1
  Mo  Mo189  1  0.61224089  0.40773365  0.24629543  1
  Mo  Mo190  1  0.10133794  0.49776565  0.87584807  1
  Mo  Mo191  1  0.50924095  0.29908163  0.12187350  1
  Mo  Mo192  1  0.00505204  -0.00444264  -0.00588228  1
  Mo  Mo193  1  0.80028816  -0.00433228  -0.01149705  1
  Mo  Mo194  1  0.10354589  0.30172087  0.35648421  1
  Mo  Mo195  1  0.19145212  0.78931294  -0.00433003  1
  Mo  Mo196  1  0.29588711  0.08438773  0.88585245  1
  Mo  Mo197  1  0.28510068  0.90130656  0.62300265  1
  Mo  Mo198  1  0.79567040  0.21124815  -0.01157128  1
  Mo  Mo199  1  0.19776454  0.38883011  0.75698058  1
