# generated using pymatgen
data_HfZrTaTiMo
_symmetry_space_group_name_H-M   'P 1'
_cell_length_a   15.19748427
_cell_length_b   15.21103191
_cell_length_c   16.82303819
_cell_angle_alpha   89.97430653
_cell_angle_beta   90.07098917
_cell_angle_gamma   90.01089338
_symmetry_Int_Tables_number   1
_chemical_formula_structural   HfZrTaTiMo
_chemical_formula_sum   'Hf40 Zr40 Ta40 Ti40 Mo40'
_cell_volume   3888.96850403
_cell_formula_units_Z   40
loop_
 _symmetry_equiv_pos_site_id
 _symmetry_equiv_pos_as_xyz
  1  'x, y, z'
loop_
 _atom_site_type_symbol
 _atom_site_label
 _atom_site_symmetry_multiplicity
 _atom_site_fract_x
 _atom_site_fract_y
 _atom_site_fract_z
 _atom_site_occupancy
  Hf  Hf0  1  0.08998883  0.30920371  0.62678662  1
  Hf  Hf1  1  0.69248101  0.50290436  0.11938817  1
  Hf  Hf2  1  0.10513687  0.29979006  0.37000299  1
  Hf  Hf3  1  0.59017613  0.40845248  0.25861290  1
  Hf  Hf4  1  -0.00278803  0.40760688  0.48828038  1
  Hf  Hf5  1  0.08981751  0.88618727  0.12248602  1
  Hf  Hf6  1  0.40295283  0.79193181  0.49842728  1
  Hf  Hf7  1  0.59222798  0.60533609  0.25818450  1
  Hf  Hf8  1  0.50419745  0.48820267  0.61774542  1
  Hf  Hf9  1  0.29554356  0.68314570  0.38289137  1
  Hf  Hf10  1  0.11008338  0.89117951  0.61900081  1
  Hf  Hf11  1  0.79682983  0.02412097  0.74245900  1
  Hf  Hf12  1  0.91372736  0.69697392  0.63091198  1
  Hf  Hf13  1  0.30492192  0.70075075  0.11558574  1
  Hf  Hf14  1  0.80123340  0.81116471  0.74679299  1
  Hf  Hf15  1  0.19120556  0.79425924  -0.01406420  1
  Hf  Hf16  1  0.80667851  0.39793539  0.48558631  1
  Hf  Hf17  1  0.90955472  0.91315699  0.86906814  1
  Hf  Hf18  1  0.49620102  0.09647441  0.36092542  1
  Hf  Hf19  1  0.70548827  0.48812708  0.61739152  1
  Hf  Hf20  1  0.80786052  0.81894287  -0.00922421  1
  Hf  Hf21  1  0.29771715  0.49745043  0.11214257  1
  Hf  Hf22  1  0.38879301  -0.01464890  0.22824012  1
  Hf  Hf23  1  0.31007256  0.89834165  0.63213191  1
  Hf  Hf24  1  0.69940063  0.70107646  0.38486684  1
  Hf  Hf25  1  0.69890300  0.71077474  0.86691826  1
  Hf  Hf26  1  0.30457399  0.10065958  0.88756959  1
  Hf  Hf27  1  0.11213160  0.51616017  0.38206174  1
  Hf  Hf28  1  0.10733250  0.10492109  0.62759939  1
  Hf  Hf29  1  0.90589636  0.71566389  0.12404936  1
  Hf  Hf30  1  0.29065215  0.49009519  0.87122965  1
  Hf  Hf31  1  0.61003211  0.00958682  0.00804003  1
  Hf  Hf32  1  0.30000976  0.89918008  0.38031011  1
  Hf  Hf33  1  0.20823000  0.80095569  0.24381305  1
  Hf  Hf34  1  0.89444631  0.29594409  0.13468723  1
  Hf  Hf35  1  0.40786654  -0.00381922  0.00857691  1
  Hf  Hf36  1  0.69681908  0.12178660  0.87226465  1
  Hf  Hf37  1  0.49974305  0.69196900  0.11414121  1
  Hf  Hf38  1  0.40892698  0.38933117  -0.00787122  1
  Hf  Hf39  1  0.80395597  -0.00824572  0.24061222  1
  Zr  Zr40  1  0.69965623  0.70577598  0.11300333  1
  Zr  Zr41  1  0.00853101  0.01125288  0.49989198  1
  Zr  Zr42  1  0.20688304  -0.00788502  0.76283145  1
  Zr  Zr43  1  0.90129005  0.10551131  0.36930028  1
  Zr  Zr44  1  0.29531798  0.69459849  0.86297118  1
  Zr  Zr45  1  0.00416396  0.61107535  -0.00675365  1
  Zr  Zr46  1  0.58902990  0.59646034  -0.01845673  1
  Zr  Zr47  1  0.70869650  0.47918596  0.88084363  1
  Zr  Zr48  1  0.50887556  0.28419947  0.60805708  1
  Zr  Zr49  1  0.89966704  0.10978285  0.88415653  1
  Zr  Zr50  1  0.49540259  0.29072666  0.38566791  1
  Zr  Zr51  1  0.89171774  0.90283859  0.38766768  1
  Zr  Zr52  1  0.79993045  0.79479858  0.50968781  1
  Zr  Zr53  1  0.19933958  -0.00602563  0.00979794  1
  Zr  Zr54  1  0.50951426  0.89516053  0.64070871  1
  Zr  Zr55  1  -0.00128681  0.40315759  0.24575328  1
  Zr  Zr56  1  0.49930333  0.50128698  0.39595004  1
  Zr  Zr57  1  0.41380815  0.78355801  0.25991930  1
  Zr  Zr58  1  0.29535398  0.28657358  0.63415919  1
  Zr  Zr59  1  0.29874927  0.13256181  0.12048154  1
  Zr  Zr60  1  0.88875125  0.11409345  0.61485764  1
  Zr  Zr61  1  -0.01465618  0.20646368  0.75217760  1
  Zr  Zr62  1  0.90699548  0.90784651  0.62469140  1
  Zr  Zr63  1  0.10790465  0.91372911  0.37352983  1
  Zr  Zr64  1  0.59842150  0.58673697  0.75767661  1
  Zr  Zr65  1  0.81888050  0.58768615  0.76084591  1
  Zr  Zr66  1  0.30169525  0.29426821  0.87220779  1
  Zr  Zr67  1  0.80964991  0.60182777  -0.01333598  1
  Zr  Zr68  1  0.01246249  0.60215667  0.25143042  1
  Zr  Zr69  1  0.61124659  0.80176140  0.25307880  1
  Zr  Zr70  1  0.29633217  0.10420088  0.35802894  1
  Zr  Zr71  1  0.48950994  0.69980070  0.64315235  1
  Zr  Zr72  1  0.60703362  0.36504286  0.75647287  1
  Zr  Zr73  1  0.69410518  0.10036081  0.36888193  1
  Zr  Zr74  1  -0.00707656  0.80510057  0.26289650  1
  Zr  Zr75  1  0.09374752  0.29989982  0.88463089  1
  Zr  Zr76  1  0.69165702  0.70306520  0.63354745  1
  Zr  Zr77  1  0.48552870  0.29739087  0.13020292  1
  Zr  Zr78  1  0.19978624  0.40991586  0.24143167  1
  Zr  Zr79  1  0.69000271  0.29715068  0.14082577  1
  Ta  Ta80  1  0.21908223  0.01178424  0.50616196  1
  Ta  Ta81  1  0.39206823  0.58400796  0.25295599  1
  Ta  Ta82  1  0.09496741  0.09298698  0.89080244  1
  Ta  Ta83  1  0.01534318  0.19074171  0.23205150  1
  Ta  Ta84  1  0.00148244  0.40668363  0.01274778  1
  Ta  Ta85  1  0.29510493  0.49721251  0.63119782  1
  Ta  Ta86  1  0.30033792  0.48863200  0.38511677  1
  Ta  Ta87  1  0.59890353  -0.00812516  0.23844149  1
  Ta  Ta88  1  0.19380670  0.19175203  0.75883708  1
  Ta  Ta89  1  0.38803717  0.59332819  0.51425060  1
  Ta  Ta90  1  0.80154663  0.60163583  0.25384421  1
  Ta  Ta91  1  0.69488213  0.91934091  0.87011038  1
  Ta  Ta92  1  0.19465559  0.59041838  -0.00707048  1
  Ta  Ta93  1  0.00743077  0.79493317  0.49532928  1
  Ta  Ta94  1  0.49504475  0.08867462  0.63547898  1
  Ta  Ta95  1  0.19579407  0.20076919  0.49954684  1
  Ta  Ta96  1  0.69602452  0.29623182  0.36492608  1
  Ta  Ta97  1  0.89672753  0.50686340  0.12665005  1
  Ta  Ta98  1  0.69539917  0.91028489  0.39030473  1
  Ta  Ta99  1  0.50413348  0.09385110  0.86582120  1
  Ta  Ta100  1  0.40491946  0.39448017  0.74834453  1
  Ta  Ta101  1  0.88753581  0.30824660  0.88814420  1
  Ta  Ta102  1  0.50616442  0.90239835  0.37641886  1
  Ta  Ta103  1  0.40103546  0.80407516  -0.01940842  1
  Ta  Ta104  1  0.11074156  0.70934723  0.38876345  1
  Ta  Ta105  1  0.38872367  0.39053466  0.50621055  1
  Ta  Ta106  1  -0.00508591  0.41373078  0.75447867  1
  Ta  Ta107  1  -0.00346781  0.21378429  0.49466906  1
  Ta  Ta108  1  0.39215763  0.39571367  0.25270000  1
  Ta  Ta109  1  0.78980168  0.20521329  0.49105119  1
  Ta  Ta110  1  0.90821789  0.49624367  0.62434747  1
  Ta  Ta111  1  0.39588139  0.58937973  0.75047216  1
  Ta  Ta112  1  0.79326651  0.19456083  0.01224907  1
  Ta  Ta113  1  0.79978390  0.39469111  0.01051522  1
  Ta  Ta114  1  0.10483173  0.10798559  0.36844321  1
  Ta  Ta115  1  0.41123417  -0.00061714  0.50201556  1
  Ta  Ta116  1  0.50350448  0.88800074  0.11777425  1
  Ta  Ta117  1  0.80927397  0.38623982  0.74967843  1
  Ta  Ta118  1  0.50709502  0.10662105  0.13693924  1
  Ta  Ta119  1  0.69694039  0.91753234  0.61776353  1
  Ti  Ti120  1  0.89215622  0.30646602  0.62082976  1
  Ti  Ti121  1  0.00035671  0.60116309  0.49883630  1
  Ti  Ti122  1  0.39987521  0.60254039  -0.01989797  1
  Ti  Ti123  1  0.58745758  0.21316270  -0.00139083  1
  Ti  Ti124  1  0.59388321  0.80438791  0.49910017  1
  Ti  Ti125  1  0.79858349  0.41326427  0.25828201  1
  Ti  Ti126  1  0.68257789  0.10733582  0.61599193  1
  Ti  Ti127  1  0.18365324  0.79890546  0.76496471  1
  Ti  Ti128  1  0.90395303  0.68954232  0.37972108  1
  Ti  Ti129  1  0.89650793  0.29555788  0.35703327  1
  Ti  Ti130  1  -0.00015766  0.00498565  0.23440169  1
  Ti  Ti131  1  0.10942497  0.68468251  0.12619113  1
  Ti  Ti132  1  0.01254432  -0.00052797  0.75103971  1
  Ti  Ti133  1  0.58831069  0.80738080  -0.02048771  1
  Ti  Ti134  1  0.59745279  0.60697466  0.50431099  1
  Ti  Ti135  1  0.10812939  0.69882707  0.61809996  1
  Ti  Ti136  1  -0.01558367  -0.00551872  0.01538784  1
  Ti  Ti137  1  0.70207405  0.50188680  0.38366462  1
  Ti  Ti138  1  0.70557930  0.10663075  0.13753221  1
  Ti  Ti139  1  0.19340636  0.59491358  0.74612822  1
  Ti  Ti140  1  0.12084957  0.29581176  0.11370749  1
  Ti  Ti141  1  0.70270163  0.29038542  0.61487718  1
  Ti  Ti142  1  0.09556517  0.49962763  0.87394628  1
  Ti  Ti143  1  0.40576823  0.19257849  0.74920536  1
  Ti  Ti144  1  0.29718698  0.29437612  0.37574905  1
  Ti  Ti145  1  0.80904977  0.59431372  0.49975311  1
  Ti  Ti146  1  0.38672020  0.18180871  0.50568778  1
  Ti  Ti147  1  0.01130745  0.60560812  0.75576114  1
  Ti  Ti148  1  0.20173690  0.40273689  0.50672162  1
  Ti  Ti149  1  0.18839248  0.01352486  0.22578149  1
  Ti  Ti150  1  0.92190721  0.71648359  0.86512738  1
  Ti  Ti151  1  0.49567734  0.49824855  0.11819510  1
  Ti  Ti152  1  0.40211419  0.81247355  0.77627509  1
  Ti  Ti153  1  0.19310871  0.39863089  0.74628508  1
  Ti  Ti154  1  0.70521033  0.89931993  0.11679853  1
  Ti  Ti155  1  0.79974704  0.79847622  0.25410108  1
  Ti  Ti156  1  0.09835123  0.50827146  0.62250589  1
  Ti  Ti157  1  0.49786784  0.48261168  0.86981526  1
  Ti  Ti158  1  0.00035493  0.19673916  0.01715808  1
  Ti  Ti159  1  0.29146068  0.70113150  0.63488726  1
  Mo  Mo160  1  0.60483131  0.00245307  0.75014692  1
  Mo  Mo161  1  0.19273882  0.40103790  0.00112969  1
  Mo  Mo162  1  0.59780154  0.19704475  0.24764682  1
  Mo  Mo163  1  0.80591044  0.20262277  0.25149783  1
  Mo  Mo164  1  0.30553868  0.09643846  0.62827344  1
  Mo  Mo165  1  0.21155920  0.60478380  0.24860837  1
  Mo  Mo166  1  0.59617002  0.18805419  0.49957865  1
  Mo  Mo167  1  0.09403218  0.10094843  0.11358037  1
  Mo  Mo168  1  0.61350558  0.39027425  0.49139836  1
  Mo  Mo169  1  0.60131792  0.39557677  -0.00344939  1
  Mo  Mo170  1  0.09690711  0.50302488  0.11702709  1
  Mo  Mo171  1  0.29786111  0.30810981  0.11535384  1
  Mo  Mo172  1  0.59230094  0.00002094  0.50055848  1
  Mo  Mo173  1  0.78696912  0.21813367  0.74435220  1
  Mo  Mo174  1  0.01072556  0.80263081  0.74654702  1
  Mo  Mo175  1  0.78865623  0.01092107  0.50766203  1
  Mo  Mo176  1  0.29991660  0.90161126  0.87420614  1
  Mo  Mo177  1  0.60215724  0.18811878  0.74462927  1
  Mo  Mo178  1  0.60179238  0.80761705  0.76544407  1
  Mo  Mo179  1  0.20417283  0.79996759  0.50582071  1
  Mo  Mo180  1  0.89426170  0.51103094  0.37113736  1
  Mo  Mo181  1  0.19618538  0.20759807  0.24684047  1
  Mo  Mo182  1  0.08877000  0.89924311  0.88005687  1
  Mo  Mo183  1  0.40264981  0.00308429  0.75861305  1
  Mo  Mo184  1  0.50395241  0.28179448  0.87284029  1
  Mo  Mo185  1  0.19121371  0.20304772  -0.00875503  1
  Mo  Mo186  1  0.49691629  0.69814069  0.86135280  1
  Mo  Mo187  1  0.00169327  0.80655178  -0.00388168  1
  Mo  Mo188  1  0.79660759  0.00941677  0.00893268  1
  Mo  Mo189  1  0.41087413  0.19360662  -0.00691094  1
  Mo  Mo190  1  0.70321455  0.29448711  0.88959851  1
  Mo  Mo191  1  0.19883279  0.59848370  0.51737551  1
  Mo  Mo192  1  0.49999005  0.69627227  0.38897270  1
  Mo  Mo193  1  0.09878732  0.69449222  0.86564189  1
  Mo  Mo194  1  0.89348109  0.90098055  0.12560299  1
  Mo  Mo195  1  0.50505386  0.90580445  0.87372698  1
  Mo  Mo196  1  0.91297278  0.48822057  0.87937646  1
  Mo  Mo197  1  0.39505290  0.20911573  0.25239604  1
  Mo  Mo198  1  0.30455345  0.88787315  0.12061234  1
  Mo  Mo199  1  0.89653818  0.09935486  0.12381299  1
