# generated using pymatgen
data_HfZrTaTiMo
_symmetry_space_group_name_H-M   'P 1'
_cell_length_a   15.20222098
_cell_length_b   15.20329076
_cell_length_c   16.87213664
_cell_angle_alpha   89.95355439
_cell_angle_beta   89.98798246
_cell_angle_gamma   89.80989801
_symmetry_Int_Tables_number   1
_chemical_formula_structural   HfZrTaTiMo
_chemical_formula_sum   'Hf40 Zr40 Ta40 Ti40 Mo40'
_cell_volume   3899.52926604
_cell_formula_units_Z   40
loop_
 _symmetry_equiv_pos_site_id
 _symmetry_equiv_pos_as_xyz
  1  'x, y, z'
loop_
 _atom_site_type_symbol
 _atom_site_label
 _atom_site_symmetry_multiplicity
 _atom_site_fract_x
 _atom_site_fract_y
 _atom_site_fract_z
 _atom_site_occupancy
  Hf  Hf0  1  0.69159915  0.51103448  0.87625048  1
  Hf  Hf1  1  0.58623502  -0.00016532  0.48704266  1
  Hf  Hf2  1  0.70522840  0.30454693  0.88365263  1
  Hf  Hf3  1  0.20887825  0.18563551  0.24404974  1
  Hf  Hf4  1  0.60301283  0.60705149  0.48041924  1
  Hf  Hf5  1  0.41634592  0.78464667  0.75019174  1
  Hf  Hf6  1  0.38911919  0.62281427  0.47718524  1
  Hf  Hf7  1  0.00213007  0.20833973  0.49781454  1
  Hf  Hf8  1  0.79769184  0.78106018  0.25541952  1
  Hf  Hf9  1  0.29743392  0.11640874  0.87706583  1
  Hf  Hf10  1  0.79671051  0.79241010  0.01039786  1
  Hf  Hf11  1  0.00575351  0.38900948  0.01463211  1
  Hf  Hf12  1  0.20418054  0.00056768  0.50619615  1
  Hf  Hf13  1  0.69900860  0.09576374  0.13089609  1
  Hf  Hf14  1  0.11400690  0.89257650  0.37871405  1
  Hf  Hf15  1  0.38206784  0.42169723  0.75432875  1
  Hf  Hf16  1  0.90004927  0.48654149  0.87159019  1
  Hf  Hf17  1  0.70122845  0.09121587  0.88106750  1
  Hf  Hf18  1  -0.01439469  -0.00047152  0.74017948  1
  Hf  Hf19  1  0.22202635  0.78641573  0.50201147  1
  Hf  Hf20  1  0.08596749  0.10744094  0.87133518  1
  Hf  Hf21  1  0.90324669  0.08823416  0.13259193  1
  Hf  Hf22  1  0.91925834  0.70034036  0.62126867  1
  Hf  Hf23  1  0.50815964  0.88471432  0.87966991  1
  Hf  Hf24  1  0.80345237  0.58422150  0.50704177  1
  Hf  Hf25  1  0.59686892  0.21176529  0.49221014  1
  Hf  Hf26  1  0.19604924  0.63502060  0.25303251  1
  Hf  Hf27  1  0.28891846  0.50686117  0.61020703  1
  Hf  Hf28  1  0.19656923  0.40163640  0.48445131  1
  Hf  Hf29  1  0.61646850  0.79314840  0.74227227  1
  Hf  Hf30  1  0.50860786  0.50155409  0.35306102  1
  Hf  Hf31  1  0.21002542  0.80429306  0.00316333  1
  Hf  Hf32  1  0.31021230  0.89374519  0.63343613  1
  Hf  Hf33  1  0.80224992  -0.01243281  0.00630423  1
  Hf  Hf34  1  0.80548878  0.39981821  0.01082700  1
  Hf  Hf35  1  0.38820278  -0.00996514  0.00317502  1
  Hf  Hf36  1  0.80424540  0.19962167  0.25916781  1
  Hf  Hf37  1  0.29698482  0.89298327  0.86498206  1
  Hf  Hf38  1  0.48993472  0.31033781  0.89075462  1
  Hf  Hf39  1  0.29919936  0.50340317  0.35158253  1
  Zr  Zr40  1  0.32343232  0.68184402  0.88871174  1
  Zr  Zr41  1  0.09340029  0.51205489  0.13839161  1
  Zr  Zr42  1  -0.00194053  0.59633472  -0.00680534  1
  Zr  Zr43  1  0.29837415  0.10784152  0.62966369  1
  Zr  Zr44  1  0.70139584  0.29514131  0.12957850  1
  Zr  Zr45  1  0.58366693  0.78634141  0.26050877  1
  Zr  Zr46  1  0.80840682  0.19559607  0.74961398  1
  Zr  Zr47  1  0.58769371  0.40790788  0.76034137  1
  Zr  Zr48  1  0.88450549  0.11402113  0.61092704  1
  Zr  Zr49  1  0.79038812  0.00281357  0.49383327  1
  Zr  Zr50  1  0.01190300  0.59261501  0.75728531  1
  Zr  Zr51  1  0.09175412  0.90264818  0.12483768  1
  Zr  Zr52  1  0.70182107  0.51145410  0.13975421  1
  Zr  Zr53  1  0.18903580  -0.00754640  0.74952965  1
  Zr  Zr54  1  0.12129368  0.68466306  0.61961016  1
  Zr  Zr55  1  0.18987741  0.01088888  -0.00628803  1
  Zr  Zr56  1  0.79934113  -0.01202759  0.25831457  1
  Zr  Zr57  1  0.60246972  -0.01426657  0.00840021  1
  Zr  Zr58  1  0.39979755  0.41505047  0.02582924  1
  Zr  Zr59  1  0.49916435  0.09917511  0.62127323  1
  Zr  Zr60  1  0.61197581  0.19935294  0.74330388  1
  Zr  Zr61  1  0.09306982  0.10666767  0.12911634  1
  Zr  Zr62  1  0.19519549  0.21516319  0.74940366  1
  Zr  Zr63  1  0.58106500  -0.00103757  0.25854353  1
  Zr  Zr64  1  0.00997950  0.78101799  0.24651403  1
  Zr  Zr65  1  0.49933792  0.10203438  0.88355366  1
  Zr  Zr66  1  0.80616011  0.39262193  0.72891037  1
  Zr  Zr67  1  0.49457815  0.10070714  0.12067459  1
  Zr  Zr68  1  0.67164744  0.48574653  0.61767867  1
  Zr  Zr69  1  0.91113488  0.88479478  0.38419007  1
  Zr  Zr70  1  0.89283360  0.70106135  0.86874295  1
  Zr  Zr71  1  0.41603617  0.40175840  0.48663256  1
  Zr  Zr72  1  0.10413279  0.29705217  0.36318408  1
  Zr  Zr73  1  0.69215056  0.31777308  0.36919414  1
  Zr  Zr74  1  0.80531615  0.38262429  0.51023396  1
  Zr  Zr75  1  0.78924673  0.78670553  0.50617745  1
  Zr  Zr76  1  0.78434619  0.60619356  0.73010409  1
  Zr  Zr77  1  0.40200668  0.21607744  0.75452895  1
  Zr  Zr78  1  0.30521840  0.52456961  0.14422665  1
  Zr  Zr79  1  0.50879385  0.31799969  0.62169107  1
  Ta  Ta80  1  0.09355587  0.50291078  0.35636713  1
  Ta  Ta81  1  0.78621976  -0.00630585  0.73844191  1
  Ta  Ta82  1  0.31804587  0.90279510  0.37737914  1
  Ta  Ta83  1  0.21821384  0.58748704  0.75863956  1
  Ta  Ta84  1  0.31847293  0.28872762  0.36837651  1
  Ta  Ta85  1  0.00430454  -0.00239252  0.50277296  1
  Ta  Ta86  1  0.37199124  0.00811418  0.24195847  1
  Ta  Ta87  1  0.89499867  0.89894514  0.86762285  1
  Ta  Ta88  1  0.09400776  0.48875839  0.62333213  1
  Ta  Ta89  1  0.46811654  0.11636160  0.37218416  1
  Ta  Ta90  1  0.59908651  -0.00702269  0.74656792  1
  Ta  Ta91  1  0.90624138  0.10131859  0.37915079  1
  Ta  Ta92  1  0.09721246  0.69816418  0.38974942  1
  Ta  Ta93  1  0.40783441  -0.00190393  0.75442347  1
  Ta  Ta94  1  0.59201338  0.78369088  0.01255553  1
  Ta  Ta95  1  0.39859254  0.21348915  0.23048058  1
  Ta  Ta96  1  0.80732387  0.80772591  0.73341433  1
  Ta  Ta97  1  0.90949129  0.28833896  0.87823972  1
  Ta  Ta98  1  0.10195985  0.09369783  0.37373595  1
  Ta  Ta99  1  0.60058664  0.20862496  0.00487032  1
  Ta  Ta100  1  0.69185191  0.89078360  0.37550214  1
  Ta  Ta101  1  0.79336985  0.59876413  0.00301758  1
  Ta  Ta102  1  0.48014729  0.88203071  0.12888462  1
  Ta  Ta103  1  0.00929610  0.80187270  0.75183241  1
  Ta  Ta104  1  -0.00212900  0.39203430  0.24113153  1
  Ta  Ta105  1  0.28511987  0.32254561  0.89294078  1
  Ta  Ta106  1  0.09362387  0.10115663  0.62087659  1
  Ta  Ta107  1  0.09353110  0.88701585  0.61790934  1
  Ta  Ta108  1  0.59648544  0.41013309  0.01155084  1
  Ta  Ta109  1  0.30139282  0.30793436  0.61366940  1
  Ta  Ta110  1  0.48448550  0.52017295  0.88527770  1
  Ta  Ta111  1  -0.00988210  -0.00705300  -0.00730846  1
  Ta  Ta112  1  0.09712166  0.30609204  0.88054996  1
  Ta  Ta113  1  0.12267080  0.49491262  0.88704024  1
  Ta  Ta114  1  0.80865942  0.19427701  0.00115842  1
  Ta  Ta115  1  0.68553665  0.90143696  0.61607261  1
  Ta  Ta116  1  0.11475202  0.69797165  0.88225500  1
  Ta  Ta117  1  0.00763403  0.58631008  0.49685780  1
  Ta  Ta118  1  0.80985907  0.40587474  0.24593645  1
  Ta  Ta119  1  0.89963926  0.67334427  0.12991042  1
  Ti  Ti120  1  0.90239440  0.68423691  0.38186979  1
  Ti  Ti121  1  0.70734522  0.89076054  0.87235922  1
  Ti  Ti122  1  0.57867202  0.60676860  0.74505793  1
  Ti  Ti123  1  0.89514430  0.09346981  0.87398035  1
  Ti  Ti124  1  -0.00146691  0.19450287  0.00012386  1
  Ti  Ti125  1  0.89977403  0.88595785  0.13128366  1
  Ti  Ti126  1  0.90348722  0.30040516  0.37029185  1
  Ti  Ti127  1  -0.00096692  0.40358398  0.49788764  1
  Ti  Ti128  1  0.19308257  0.40251419  0.75098135  1
  Ti  Ti129  1  0.38827819  0.21000632  0.01809154  1
  Ti  Ti130  1  0.50851104  0.71042062  0.61075103  1
  Ti  Ti131  1  0.39756559  0.00172241  0.49942035  1
  Ti  Ti132  1  0.50202193  0.52203578  0.15071447  1
  Ti  Ti133  1  0.32389529  0.71964492  0.12213880  1
  Ti  Ti134  1  0.19949977  0.40908397  0.02129438  1
  Ti  Ti135  1  0.09006492  0.89247639  0.87486245  1
  Ti  Ti136  1  0.21559432  0.82337853  0.24127779  1
  Ti  Ti137  1  0.91038523  0.28516353  0.13220098  1
  Ti  Ti138  1  0.00476537  0.39192602  0.74738059  1
  Ti  Ti139  1  0.10525867  0.70029375  0.10955811  1
  Ti  Ti140  1  0.69395572  0.70297423  0.87965298  1
  Ti  Ti141  1  0.69310920  0.10384777  0.36973656  1
  Ti  Ti142  1  0.69191610  0.89040295  0.13716238  1
  Ti  Ti143  1  0.59255416  0.59977661  0.00782520  1
  Ti  Ti144  1  0.69319744  0.69426305  0.13399240  1
  Ti  Ti145  1  0.31822542  0.69018789  0.63059727  1
  Ti  Ti146  1  0.21016644  0.38672655  0.23772241  1
  Ti  Ti147  1  0.48356578  0.51890463  0.61583668  1
  Ti  Ti148  1  0.00703620  -0.00139704  0.25957104  1
  Ti  Ti149  1  0.90119395  0.89931747  0.61439880  1
  Ti  Ti150  1  0.10833728  0.29943891  0.61826341  1
  Ti  Ti151  1  0.59190952  0.39324975  0.23767017  1
  Ti  Ti152  1  -0.00717816  0.79892453  -0.00294043  1
  Ti  Ti153  1  0.20040918  0.78391416  0.75006487  1
  Ti  Ti154  1  0.90054927  0.49365076  0.36978835  1
  Ti  Ti155  1  0.19222400  0.21766129  0.01370930  1
  Ti  Ti156  1  0.58609441  0.80444204  0.48741143  1
  Ti  Ti157  1  0.58729116  0.20403505  0.25367762  1
  Ti  Ti158  1  0.00056060  0.20725711  0.74143686  1
  Ti  Ti159  1  0.21119233  0.19748819  0.49304778  1
  Mo  Mo160  1  0.70383611  0.69933494  0.37855030  1
  Mo  Mo161  1  0.39148708  0.80798504  0.25128111  1
  Mo  Mo162  1  -0.00719865  0.59682203  0.26022579  1
  Mo  Mo163  1  0.69274042  0.09681000  0.61954063  1
  Mo  Mo164  1  0.79819832  0.19766587  0.48036514  1
  Mo  Mo165  1  0.40812634  0.63218313  0.26411755  1
  Mo  Mo166  1  0.19640654  0.58835604  0.48112661  1
  Mo  Mo167  1  0.20391892  0.60313219  0.00985209  1
  Mo  Mo168  1  0.71221937  0.50431768  0.36315254  1
  Mo  Mo169  1  0.29563842  0.90700781  0.12385765  1
  Mo  Mo170  1  0.48970191  0.71891186  0.38090631  1
  Mo  Mo171  1  0.89786807  0.49552852  0.12900480  1
  Mo  Mo172  1  0.19690516  -0.00392681  0.25434931  1
  Mo  Mo173  1  0.49718825  0.30011687  0.36111171  1
  Mo  Mo174  1  0.29361830  0.09902539  0.37769880  1
  Mo  Mo175  1  0.61324131  0.60626232  0.26878200  1
  Mo  Mo176  1  0.29771999  0.49856484  0.89023270  1
  Mo  Mo177  1  0.60253776  0.41013453  0.49113837  1
  Mo  Mo178  1  0.09826700  0.30061559  0.13497006  1
  Mo  Mo179  1  0.92487105  0.30589357  0.62353467  1
  Mo  Mo180  1  0.29516409  0.10255594  0.11434720  1
  Mo  Mo181  1  0.41386734  0.60992617  0.01517443  1
  Mo  Mo182  1  0.80911942  0.59733370  0.26210306  1
  Mo  Mo183  1  0.52224558  0.69112849  0.87799635  1
  Mo  Mo184  1  0.40182866  0.39584076  0.23703099  1
  Mo  Mo185  1  0.50111806  0.69073928  0.13192496  1
  Mo  Mo186  1  0.69598906  0.70018507  0.61951898  1
  Mo  Mo187  1  0.50064327  0.89979103  0.62645300  1
  Mo  Mo188  1  0.28940619  0.71930675  0.36724778  1
  Mo  Mo189  1  0.00507130  0.79625497  0.50097709  1
  Mo  Mo190  1  -0.00324700  0.19558717  0.26125673  1
  Mo  Mo191  1  0.91766667  0.49836936  0.62575239  1
  Mo  Mo192  1  0.29368938  0.30306751  0.12134541  1
  Mo  Mo193  1  0.40989632  0.79935535  0.00089361  1
  Mo  Mo194  1  0.41063468  0.81474302  0.50559225  1
  Mo  Mo195  1  0.50499736  0.30584313  0.12018463  1
  Mo  Mo196  1  0.39164009  0.20212654  0.49869887  1
  Mo  Mo197  1  0.71514374  0.27362005  0.60857812  1
  Mo  Mo198  1  0.49226159  0.91416707  0.37125004  1
  Mo  Mo199  1  0.40609303  0.59748815  0.74484117  1
