# generated using pymatgen
data_HfZrTaTiMo
_symmetry_space_group_name_H-M   'P 1'
_cell_length_a   15.21577290
_cell_length_b   15.22611527
_cell_length_c   16.84768243
_cell_angle_alpha   89.97402174
_cell_angle_beta   90.02845691
_cell_angle_gamma   90.00916241
_symmetry_Int_Tables_number   1
_chemical_formula_structural   HfZrTaTiMo
_chemical_formula_sum   'Hf40 Zr40 Ta40 Ti40 Mo40'
_cell_volume   3903.22147886
_cell_formula_units_Z   40
loop_
 _symmetry_equiv_pos_site_id
 _symmetry_equiv_pos_as_xyz
  1  'x, y, z'
loop_
 _atom_site_type_symbol
 _atom_site_label
 _atom_site_symmetry_multiplicity
 _atom_site_fract_x
 _atom_site_fract_y
 _atom_site_fract_z
 _atom_site_occupancy
  Hf  Hf0  1  0.70241566  0.71269758  0.12296144  1
  Hf  Hf1  1  0.51916529  0.09713578  0.10898267  1
  Hf  Hf2  1  0.09383681  0.47822664  0.87057641  1
  Hf  Hf3  1  0.30531668  0.49045856  0.87259377  1
  Hf  Hf4  1  0.78768935  0.59844332  0.74698325  1
  Hf  Hf5  1  0.89249188  0.89585000  0.88895880  1
  Hf  Hf6  1  0.40418602  -0.01646629  0.50763706  1
  Hf  Hf7  1  0.79960976  0.00247788  0.76055701  1
  Hf  Hf8  1  0.38699172  0.38204862  0.24879771  1
  Hf  Hf9  1  0.80476094  0.60199357  0.00022354  1
  Hf  Hf10  1  0.10050795  0.10056111  0.12058184  1
  Hf  Hf11  1  0.79151573  0.19261780  0.50537248  1
  Hf  Hf12  1  0.19080684  -0.01168665  0.76540001  1
  Hf  Hf13  1  0.48833232  0.72076905  0.36591459  1
  Hf  Hf14  1  0.60706196  0.39510948  0.49677806  1
  Hf  Hf15  1  0.69115219  0.49256439  0.87628479  1
  Hf  Hf16  1  0.58967656  0.39187652  0.24943830  1
  Hf  Hf17  1  0.71157753  0.50734590  0.36418192  1
  Hf  Hf18  1  0.58956540  0.58898902  0.00725951  1
  Hf  Hf19  1  0.69950559  0.28194509  0.36744055  1
  Hf  Hf20  1  0.82264623  0.38664164  0.25933103  1
  Hf  Hf21  1  0.28078697  0.48468008  0.12897102  1
  Hf  Hf22  1  0.69081671  0.71047829  0.88874074  1
  Hf  Hf23  1  0.19804042  -0.02056974  0.24782212  1
  Hf  Hf24  1  0.28371990  0.49635818  0.37647324  1
  Hf  Hf25  1  0.21975765  0.20864113  0.24284064  1
  Hf  Hf26  1  0.79728498  0.20981766  -0.00395754  1
  Hf  Hf27  1  0.70735291  0.49730748  0.13820843  1
  Hf  Hf28  1  0.09023669  0.68685379  0.87935695  1
  Hf  Hf29  1  0.59415001  0.81624060  0.49636484  1
  Hf  Hf30  1  0.31344037  0.08994194  0.88603451  1
  Hf  Hf31  1  0.90398334  0.69669379  0.13109565  1
  Hf  Hf32  1  0.50133275  0.91957782  0.35648794  1
  Hf  Hf33  1  0.20008020  0.21353258  -0.00737090  1
  Hf  Hf34  1  0.11573051  0.70575762  0.37625484  1
  Hf  Hf35  1  0.38980346  0.60111927  0.24451516  1
  Hf  Hf36  1  0.70133045  0.29895956  0.86709617  1
  Hf  Hf37  1  0.59246905  0.00786987  0.75340178  1
  Hf  Hf38  1  -0.00536280  0.21828316  0.25508836  1
  Hf  Hf39  1  0.69443461  0.69867294  0.61608160  1
  Zr  Zr40  1  0.10383308  0.50992363  0.62294416  1
  Zr  Zr41  1  0.39419370  0.39846332  0.00699719  1
  Zr  Zr42  1  -0.01063506  -0.00544973  0.25811877  1
  Zr  Zr43  1  0.20174270  0.39004609  0.51285248  1
  Zr  Zr44  1  0.41421882  0.40373558  0.74144900  1
  Zr  Zr45  1  0.56671410  0.60407081  0.76537006  1
  Zr  Zr46  1  0.68296847  0.91035038  0.11655597  1
  Zr  Zr47  1  0.59645578  0.60553192  0.24914777  1
  Zr  Zr48  1  0.89451740  0.09564607  0.62810550  1
  Zr  Zr49  1  0.80877204  0.81372828  0.25587192  1
  Zr  Zr50  1  0.50577693  0.51054392  0.60809160  1
  Zr  Zr51  1  0.30841879  0.69108877  0.88597287  1
  Zr  Zr52  1  0.29185755  0.70675475  0.11293989  1
  Zr  Zr53  1  0.10683920  0.10559410  0.37523517  1
  Zr  Zr54  1  0.09025262  0.08438791  0.62210651  1
  Zr  Zr55  1  0.49617598  0.12543333  0.37906947  1
  Zr  Zr56  1  0.40713672  0.79039225  0.76164911  1
  Zr  Zr57  1  0.00764169  0.81003836  0.75848998  1
  Zr  Zr58  1  0.49822286  0.71509561  0.12601165  1
  Zr  Zr59  1  0.31016543  0.09760779  0.11113117  1
  Zr  Zr60  1  0.20059071  0.18946082  0.75912006  1
  Zr  Zr61  1  -0.00654151  0.40522211  0.51238047  1
  Zr  Zr62  1  0.31447154  0.28054203  0.39475050  1
  Zr  Zr63  1  0.00589887  0.39923945  0.73185142  1
  Zr  Zr64  1  0.92214400  0.89544753  0.61900095  1
  Zr  Zr65  1  0.81169820  0.40612058  0.00341637  1
  Zr  Zr66  1  0.89792091  0.90289598  0.11214599  1
  Zr  Zr67  1  0.48889484  0.49880905  0.38385409  1
  Zr  Zr68  1  0.70632113  0.90604717  0.37296613  1
  Zr  Zr69  1  0.30327796  0.08154446  0.38127854  1
  Zr  Zr70  1  0.19759093  0.59658572  0.75075361  1
  Zr  Zr71  1  0.70400221  0.90523487  0.62223309  1
  Zr  Zr72  1  0.80705513  0.39458553  0.49539370  1
  Zr  Zr73  1  0.49235261  0.91114474  0.88306200  1
  Zr  Zr74  1  0.89733350  0.11318197  0.12162669  1
  Zr  Zr75  1  0.80094781  0.79623239  0.74764522  1
  Zr  Zr76  1  0.88110832  0.10049342  0.36953542  1
  Zr  Zr77  1  0.07785433  0.50682731  0.37576793  1
  Zr  Zr78  1  0.02227982  0.80276355  0.25191121  1
  Zr  Zr79  1  0.48890631  0.70833869  0.61292041  1
  Ta  Ta80  1  -0.00112379  -0.00583840  0.48221867  1
  Ta  Ta81  1  0.91466110  0.31345923  0.87131333  1
  Ta  Ta82  1  0.70401814  0.70503528  0.37275910  1
  Ta  Ta83  1  0.89878632  0.11007667  0.88185468  1
  Ta  Ta84  1  0.79377395  0.00996286  -0.00288416  1
  Ta  Ta85  1  -0.01192327  0.61667228  0.51356598  1
  Ta  Ta86  1  0.68562563  0.09209873  0.37585094  1
  Ta  Ta87  1  0.91076093  0.50321678  0.14095910  1
  Ta  Ta88  1  0.80537113  0.40109007  0.74334036  1
  Ta  Ta89  1  0.80359606  0.59744935  0.50170141  1
  Ta  Ta90  1  0.69272528  0.90383326  0.89051912  1
  Ta  Ta91  1  0.31083851  0.50382962  0.61878117  1
  Ta  Ta92  1  0.50512001  0.31097981  0.87469142  1
  Ta  Ta93  1  0.00189606  0.19667805  0.76308546  1
  Ta  Ta94  1  0.09891681  0.69180300  0.11382402  1
  Ta  Ta95  1  -0.00239732  0.20433571  0.49317744  1
  Ta  Ta96  1  0.90060482  0.29048179  0.63207483  1
  Ta  Ta97  1  0.59817228  0.39041366  0.01326994  1
  Ta  Ta98  1  0.21021470  0.38657009  0.73508602  1
  Ta  Ta99  1  -0.01740610  0.60997405  0.73232211  1
  Ta  Ta100  1  0.70182154  0.29817980  0.63509981  1
  Ta  Ta101  1  0.49586740  0.29092153  0.12568327  1
  Ta  Ta102  1  0.00591166  0.00630108  -0.00995053  1
  Ta  Ta103  1  0.19222335  0.58204106  -0.00002428  1
  Ta  Ta104  1  0.48951794  0.90654856  0.12531194  1
  Ta  Ta105  1  0.20276121  0.80008844  0.76308368  1
  Ta  Ta106  1  0.10689848  0.30624662  0.37689414  1
  Ta  Ta107  1  0.90495208  0.68454587  0.36742126  1
  Ta  Ta108  1  0.39041713  0.00370802  0.74395928  1
  Ta  Ta109  1  0.18700931  0.60333130  0.24460048  1
  Ta  Ta110  1  0.10176191  0.72158643  0.62269419  1
  Ta  Ta111  1  0.22184389  0.79199250  0.49947904  1
  Ta  Ta112  1  0.70407678  0.28525430  0.13287506  1
  Ta  Ta113  1  0.31110361  0.28352763  0.62148141  1
  Ta  Ta114  1  0.29646191  0.69449168  0.63090184  1
  Ta  Ta115  1  0.19546998  -0.02222337  0.49760202  1
  Ta  Ta116  1  0.29545794  0.88851831  0.63185600  1
  Ta  Ta117  1  -0.00071834  0.79271876  -0.00210936  1
  Ta  Ta118  1  0.29173053  0.09143520  0.61838790  1
  Ta  Ta119  1  0.40546570  0.19610205  0.75055955  1
  Ti  Ti120  1  0.91539992  0.31210455  0.11986418  1
  Ti  Ti121  1  0.40118277  0.01550742  0.24113307  1
  Ti  Ti122  1  0.00621552  0.21639475  -0.01012728  1
  Ti  Ti123  1  0.09071657  0.49477135  0.12932827  1
  Ti  Ti124  1  0.38205416  0.62106717  0.48784540  1
  Ti  Ti125  1  0.82005802  0.79147538  0.49309363  1
  Ti  Ti126  1  0.30362871  0.87247039  0.36478684  1
  Ti  Ti127  1  0.77876244  0.02054841  0.23682504  1
  Ti  Ti128  1  0.89554787  0.69630662  0.87852104  1
  Ti  Ti129  1  0.49931163  0.90259589  0.63492441  1
  Ti  Ti130  1  0.60272171  0.18571298  0.24450823  1
  Ti  Ti131  1  0.90208685  0.50506115  0.86704212  1
  Ti  Ti132  1  0.39683565  0.81097902  -0.00574104  1
  Ti  Ti133  1  0.00260158  0.00519615  0.77527414  1
  Ti  Ti134  1  0.69286198  0.10370540  0.87821610  1
  Ti  Ti135  1  0.40177620  0.59073691  0.01012938  1
  Ti  Ti136  1  0.40924649  0.20822697  -0.00486507  1
  Ti  Ti137  1  0.59280936  0.20737804  0.74681688  1
  Ti  Ti138  1  0.01775947  0.80850864  0.48952039  1
  Ti  Ti139  1  0.19502349  0.80103012  -0.01483520  1
  Ti  Ti140  1  0.60548839  0.40412122  0.74191385  1
  Ti  Ti141  1  0.60280018  0.80371987  0.75514649  1
  Ti  Ti142  1  0.70164330  0.49873949  0.62086693  1
  Ti  Ti143  1  0.60365704  0.60753151  0.48446039  1
  Ti  Ti144  1  0.20004999  -0.01022704  -0.01150502  1
  Ti  Ti145  1  0.11081806  0.31382822  0.12653888  1
  Ti  Ti146  1  0.30231089  0.29986817  0.86803674  1
  Ti  Ti147  1  0.10492055  0.89165436  0.11069828  1
  Ti  Ti148  1  0.10574416  0.27736153  0.62101795  1
  Ti  Ti149  1  0.49136718  0.10808976  0.62574123  1
  Ti  Ti150  1  0.29935192  0.89868499  0.11932521  1
  Ti  Ti151  1  0.80180820  -0.00869148  0.49838035  1
  Ti  Ti152  1  0.80378778  0.20169916  0.75569473  1
  Ti  Ti153  1  0.41250832  0.38249895  0.51004542  1
  Ti  Ti154  1  0.58938410  0.20681691  0.51215726  1
  Ti  Ti155  1  0.19528105  0.60343398  0.50402481  1
  Ti  Ti156  1  -0.00319654  0.58376132  0.00101489  1
  Ti  Ti157  1  0.60334451  0.01391485  0.51051121  1
  Ti  Ti158  1  0.69410603  0.10575573  0.63365087  1
  Ti  Ti159  1  0.50650009  0.11278119  0.88425170  1
  Mo  Mo160  1  0.80123314  0.80134727  -0.00062947  1
  Mo  Mo161  1  0.38797205  0.81706683  0.23998426  1
  Mo  Mo162  1  0.88745743  0.50446789  0.62784251  1
  Mo  Mo163  1  0.39256407  0.59685443  0.74825305  1
  Mo  Mo164  1  0.60109241  0.21337136  -0.00615155  1
  Mo  Mo165  1  0.29931959  0.69114148  0.36776388  1
  Mo  Mo166  1  0.09803797  0.89556065  0.89035001  1
  Mo  Mo167  1  0.01352818  0.40054371  0.24913731  1
  Mo  Mo168  1  0.49742035  0.49594949  0.88206132  1
  Mo  Mo169  1  0.18966111  0.39834196  -0.00132558  1
  Mo  Mo170  1  0.50552543  0.30091021  0.37875448  1
  Mo  Mo171  1  0.19447099  0.18837893  0.50923571  1
  Mo  Mo172  1  0.90770582  0.88770567  0.38947584  1
  Mo  Mo173  1  0.91402116  0.29786281  0.38012964  1
  Mo  Mo174  1  0.59999376  0.01035947  -0.01208401  1
  Mo  Mo175  1  0.10480788  0.29980455  0.86728196  1
  Mo  Mo176  1  0.50980561  0.29433354  0.63271552  1
  Mo  Mo177  1  0.79633142  0.19945242  0.24605421  1
  Mo  Mo178  1  0.11556235  0.90085369  0.37637927  1
  Mo  Mo179  1  0.80437092  0.60284321  0.25309067  1
  Mo  Mo180  1  0.09533003  0.10224070  0.88764742  1
  Mo  Mo181  1  0.90079272  0.50719160  0.36984930  1
  Mo  Mo182  1  0.40258908  0.19286018  0.51799372  1
  Mo  Mo183  1  0.49580189  0.49234008  0.12889909  1
  Mo  Mo184  1  0.11318192  0.89692668  0.62256233  1
  Mo  Mo185  1  0.59599691  0.00461991  0.24617004  1
  Mo  Mo186  1  0.39588864  0.80769492  0.49986612  1
  Mo  Mo187  1  0.49775569  0.69975445  0.89900322  1
  Mo  Mo188  1  0.39571348  -0.00035251  0.00336228  1
  Mo  Mo189  1  0.58976062  0.80315217  -0.00218035  1
  Mo  Mo190  1  0.21048214  0.79270544  0.23797410  1
  Mo  Mo191  1  0.29732896  0.89763421  0.87659387  1
  Mo  Mo192  1  0.00270454  0.60240141  0.24405565  1
  Mo  Mo193  1  0.29744916  0.29174613  0.12208178  1
  Mo  Mo194  1  0.41362275  0.20083123  0.24214162  1
  Mo  Mo195  1  0.59641904  0.80832502  0.25225918  1
  Mo  Mo196  1  0.70262434  0.10570786  0.11712782  1
  Mo  Mo197  1  0.18989979  0.39689064  0.25641823  1
  Mo  Mo198  1  0.00921024  0.40081970  0.00391829  1
  Mo  Mo199  1  0.89844860  0.70328747  0.61890251  1
