# generated using pymatgen
data_HfZrTaTiMo
_symmetry_space_group_name_H-M   'P 1'
_cell_length_a   15.18703187
_cell_length_b   15.17329886
_cell_length_c   16.82126654
_cell_angle_alpha   90.00645382
_cell_angle_beta   90.05978093
_cell_angle_gamma   89.92075475
_symmetry_Int_Tables_number   1
_chemical_formula_structural   HfZrTaTiMo
_chemical_formula_sum   'Hf40 Zr40 Ta40 Ti40 Mo40'
_cell_volume   3876.24263574
_cell_formula_units_Z   40
loop_
 _symmetry_equiv_pos_site_id
 _symmetry_equiv_pos_as_xyz
  1  'x, y, z'
loop_
 _atom_site_type_symbol
 _atom_site_label
 _atom_site_symmetry_multiplicity
 _atom_site_fract_x
 _atom_site_fract_y
 _atom_site_fract_z
 _atom_site_occupancy
  Hf  Hf0  1  0.30543607  0.31939502  0.85925741  1
  Hf  Hf1  1  0.68889883  0.90712114  0.36445397  1
  Hf  Hf2  1  0.60605353  0.79434255  -0.00501519  1
  Hf  Hf3  1  -0.00908168  0.40075975  0.73449770  1
  Hf  Hf4  1  0.89139178  0.71148353  0.86131750  1
  Hf  Hf5  1  0.79173629  -0.00633932  0.50695947  1
  Hf  Hf6  1  0.79339555  0.58804077  0.74257282  1
  Hf  Hf7  1  0.80496058  0.18985084  -0.00734346  1
  Hf  Hf8  1  0.52586227  0.29221740  0.39410978  1
  Hf  Hf9  1  0.41182853  0.00355200  -0.01372447  1
  Hf  Hf10  1  0.70147336  0.89422485  0.86440680  1
  Hf  Hf11  1  0.19897174  0.39587144  0.49762980  1
  Hf  Hf12  1  0.59098955  0.39350726  0.24745175  1
  Hf  Hf13  1  0.59260648  0.80027653  0.50053015  1
  Hf  Hf14  1  0.19512987  0.78729988  0.01189691  1
  Hf  Hf15  1  0.40419951  0.17990620  0.49079357  1
  Hf  Hf16  1  0.50138869  0.29344820  0.86136621  1
  Hf  Hf17  1  0.81231329  0.00995461  0.26432897  1
  Hf  Hf18  1  0.12052381  0.10025992  0.62311822  1
  Hf  Hf19  1  0.89165580  0.49523717  0.87408427  1
  Hf  Hf20  1  0.49921299  0.08415600  0.62248251  1
  Hf  Hf21  1  0.58226098  0.38880840  0.00535546  1
  Hf  Hf22  1  0.00285398  0.00450661  0.74799243  1
  Hf  Hf23  1  0.29893865  0.09356069  0.36829223  1
  Hf  Hf24  1  0.50423305  0.67711546  0.11489661  1
  Hf  Hf25  1  0.70091879  0.48022220  0.37826747  1
  Hf  Hf26  1  0.80669357  0.39671297  0.01296142  1
  Hf  Hf27  1  0.68644148  0.49527766  0.88266715  1
  Hf  Hf28  1  0.80212607  -0.00600217  -0.00114455  1
  Hf  Hf29  1  0.41904234  -0.00233052  0.77239079  1
  Hf  Hf30  1  0.49136237  0.87876762  0.36265108  1
  Hf  Hf31  1  0.79467058  0.20917155  0.51072979  1
  Hf  Hf32  1  0.00096768  0.01094057  -0.00586512  1
  Hf  Hf33  1  0.81628857  0.79730424  0.26148509  1
  Hf  Hf34  1  -0.00179286  0.80854276  0.73793359  1
  Hf  Hf35  1  0.00796541  0.60047080  0.74343604  1
  Hf  Hf36  1  0.50951592  0.89384838  0.12684571  1
  Hf  Hf37  1  0.70270771  0.90257521  0.14011119  1
  Hf  Hf38  1  0.40395540  -0.00668138  0.24730595  1
  Hf  Hf39  1  0.10700371  0.89276480  0.87302192  1
  Zr  Zr40  1  0.70361201  0.29721315  0.87275325  1
  Zr  Zr41  1  0.00238387  0.60651397  -0.00069212  1
  Zr  Zr42  1  -0.01359860  0.41023652  0.25152486  1
  Zr  Zr43  1  0.30562937  0.28333248  0.63049882  1
  Zr  Zr44  1  0.10252273  0.49884537  0.87158319  1
  Zr  Zr45  1  0.08079421  0.70237067  0.14899511  1
  Zr  Zr46  1  0.30933682  0.71204783  0.37180862  1
  Zr  Zr47  1  0.49117609  0.69561140  0.62378230  1
  Zr  Zr48  1  0.08323712  0.90442894  0.36183892  1
  Zr  Zr49  1  0.11137513  0.29557255  0.86399932  1
  Zr  Zr50  1  0.69811745  0.70890033  0.63068106  1
  Zr  Zr51  1  0.40929512  0.41489656  0.73625435  1
  Zr  Zr52  1  0.39104606  0.79527240  -0.00296335  1
  Zr  Zr53  1  0.79041940  0.61098885  0.00553673  1
  Zr  Zr54  1  0.58632437  0.58769212  0.75169419  1
  Zr  Zr55  1  0.09072685  0.50998462  0.37528735  1
  Zr  Zr56  1  0.20203758  0.81353425  0.48877284  1
  Zr  Zr57  1  0.89821006  0.70796587  0.62356675  1
  Zr  Zr58  1  0.30650152  0.11307896  0.12777023  1
  Zr  Zr59  1  0.19994128  0.20961168  0.00568919  1
  Zr  Zr60  1  0.79797408  -0.00196994  0.73396221  1
  Zr  Zr61  1  -0.00853725  0.80494500  0.00146229  1
  Zr  Zr62  1  0.11272146  0.50407312  0.14118008  1
  Zr  Zr63  1  0.51937926  0.10099838  0.11561575  1
  Zr  Zr64  1  0.69634247  0.28107382  0.12458884  1
  Zr  Zr65  1  0.89343014  0.30700125  0.37755568  1
  Zr  Zr66  1  0.00296816  0.20126879  0.00137724  1
  Zr  Zr67  1  0.29732018  0.11911482  0.86436914  1
  Zr  Zr68  1  0.00710397  0.39763639  0.01151790  1
  Zr  Zr69  1  0.60427128  0.18109051  0.74011649  1
  Zr  Zr70  1  0.80711266  0.19945479  0.73754213  1
  Zr  Zr71  1  0.80590690  0.60465790  0.48998003  1
  Zr  Zr72  1  0.00492589  0.19754199  0.74485476  1
  Zr  Zr73  1  0.68250279  0.50702066  0.12151797  1
  Zr  Zr74  1  0.57108594  0.80238773  0.76251555  1
  Zr  Zr75  1  0.20234270  0.00195554  0.00303399  1
  Zr  Zr76  1  0.81003550  0.59099543  0.25935198  1
  Zr  Zr77  1  0.30569387  0.51640009  0.60844344  1
  Zr  Zr78  1  0.09356045  0.10961185  0.37066925  1
  Zr  Zr79  1  0.41359847  0.20199072  0.26446259  1
  Ta  Ta80  1  0.39401637  0.61445046  0.75387615  1
  Ta  Ta81  1  0.40785307  0.21709914  -0.00312752  1
  Ta  Ta82  1  0.61111316  0.39743035  0.73100678  1
  Ta  Ta83  1  0.40537459  0.78187726  0.23585453  1
  Ta  Ta84  1  0.11090796  0.30270411  0.14389207  1
  Ta  Ta85  1  0.50910769  0.49545188  0.60297856  1
  Ta  Ta86  1  0.69231825  0.11256425  0.38507289  1
  Ta  Ta87  1  0.90011821  0.09972157  0.13314242  1
  Ta  Ta88  1  0.50823577  0.29346014  0.61324683  1
  Ta  Ta89  1  0.29345578  0.51508374  0.86721590  1
  Ta  Ta90  1  0.40513885  0.58753839  0.26143164  1
  Ta  Ta91  1  0.29405254  0.68297502  0.13604524  1
  Ta  Ta92  1  0.48944504  0.29663731  0.12903401  1
  Ta  Ta93  1  0.00677784  0.20738351  0.50522199  1
  Ta  Ta94  1  0.36713216  0.80658635  0.77093078  1
  Ta  Ta95  1  0.09371239  0.90996609  0.13747872  1
  Ta  Ta96  1  0.20501218  0.80735848  0.24943122  1
  Ta  Ta97  1  0.39397256  0.39528822  0.27038397  1
  Ta  Ta98  1  0.90261205  0.30006736  0.87229153  1
  Ta  Ta99  1  -0.00565546  0.40281864  0.50475634  1
  Ta  Ta100  1  0.20789419  0.61541602  0.73911251  1
  Ta  Ta101  1  0.47117586  0.89161609  0.62543613  1
  Ta  Ta102  1  0.19815855  0.00638237  0.24196399  1
  Ta  Ta103  1  0.30138374  0.49778514  0.38370522  1
  Ta  Ta104  1  0.21683537  0.41621191  0.00393340  1
  Ta  Ta105  1  0.19770154  0.41305528  0.73281413  1
  Ta  Ta106  1  0.10097872  0.50856965  0.61336044  1
  Ta  Ta107  1  -0.00108779  0.80624863  0.50433302  1
  Ta  Ta108  1  0.21110200  -0.01234249  0.75794222  1
  Ta  Ta109  1  0.80074102  0.80080848  0.00635846  1
  Ta  Ta110  1  0.90916426  0.09696418  0.60988165  1
  Ta  Ta111  1  0.37686755  0.58488515  0.00126395  1
  Ta  Ta112  1  0.59241327  0.59850343  0.25928388  1
  Ta  Ta113  1  0.69595932  0.69587168  0.86809959  1
  Ta  Ta114  1  0.20548821  0.00410261  0.49522849  1
  Ta  Ta115  1  0.30343690  0.31693176  0.13228276  1
  Ta  Ta116  1  0.40700514  0.60979265  0.48719798  1
  Ta  Ta117  1  0.68951657  0.70265481  0.36869017  1
  Ta  Ta118  1  0.10435395  0.30220195  0.62342323  1
  Ta  Ta119  1  0.30188916  0.72642671  0.61821361  1
  Ti  Ti120  1  0.89624798  0.90671348  0.86929841  1
  Ti  Ti121  1  0.29867964  0.89554863  0.12742897  1
  Ti  Ti122  1  0.79306395  0.39436966  0.24175536  1
  Ti  Ti123  1  0.30894349  0.08488212  0.63461009  1
  Ti  Ti124  1  0.80341831  0.80381696  0.48586266  1
  Ti  Ti125  1  -0.00638134  0.19856060  0.25385145  1
  Ti  Ti126  1  0.58598317  -0.00066912  0.49492407  1
  Ti  Ti127  1  0.10530638  0.30486141  0.36895346  1
  Ti  Ti128  1  0.90426675  0.29304510  0.13330939  1
  Ti  Ti129  1  0.69919626  0.70451146  0.13914486  1
  Ti  Ti130  1  0.20265605  0.60252171  0.26703207  1
  Ti  Ti131  1  0.11247286  0.90045461  0.62456330  1
  Ti  Ti132  1  0.10813281  0.70370223  0.61982217  1
  Ti  Ti133  1  0.79991289  0.20320139  0.25909437  1
  Ti  Ti134  1  0.89908427  0.50264664  0.61452387  1
  Ti  Ti135  1  0.69261724  0.09021535  0.87707513  1
  Ti  Ti136  1  0.19969026  0.61311563  0.49136365  1
  Ti  Ti137  1  0.92448345  0.70574804  0.37650573  1
  Ti  Ti138  1  0.40247283  0.39307774  0.49463251  1
  Ti  Ti139  1  0.11391768  0.69438461  0.87107651  1
  Ti  Ti140  1  0.09496955  0.10802750  0.13941840  1
  Ti  Ti141  1  0.21074891  0.21628218  0.25676442  1
  Ti  Ti142  1  0.48007671  0.48847021  0.12453736  1
  Ti  Ti143  1  0.79866189  0.39384368  0.73032488  1
  Ti  Ti144  1  0.39061094  -0.02447685  0.48863055  1
  Ti  Ti145  1  0.20405230  0.20077666  0.49220526  1
  Ti  Ti146  1  0.50397979  0.49719174  0.38963239  1
  Ti  Ti147  1  0.90477902  0.51874087  0.12661963  1
  Ti  Ti148  1  0.00465107  -0.00525555  0.50680314  1
  Ti  Ti149  1  0.90601801  0.90006270  0.13199997  1
  Ti  Ti150  1  0.29984298  0.49698432  0.14276243  1
  Ti  Ti151  1  0.60794769  0.18757589  0.25670972  1
  Ti  Ti152  1  0.90454142  0.09549799  0.39129632  1
  Ti  Ti153  1  0.60807112  0.59565050  0.49595443  1
  Ti  Ti154  1  0.70536555  0.09278628  0.12671225  1
  Ti  Ti155  1  0.67628205  0.90697651  0.63424470  1
  Ti  Ti156  1  0.79361458  0.40297195  0.51427033  1
  Ti  Ti157  1  0.00645863  0.60843541  0.49914285  1
  Ti  Ti158  1  0.48585127  0.49379783  0.88196310  1
  Ti  Ti159  1  0.48849697  0.68642387  0.88722044  1
  Mo  Mo160  1  0.29395421  0.89964803  0.88467048  1
  Mo  Mo161  1  0.60530345  0.18855814  0.51210218  1
  Mo  Mo162  1  0.60385027  0.00783110  0.25704412  1
  Mo  Mo163  1  0.50374108  0.89740380  0.88631563  1
  Mo  Mo164  1  0.90021254  0.90038920  0.61078159  1
  Mo  Mo165  1  0.50759786  0.68894265  0.37457529  1
  Mo  Mo166  1  -0.01113883  0.61148879  0.25815522  1
  Mo  Mo167  1  0.51358231  0.10478866  0.88557588  1
  Mo  Mo168  1  0.60118889  0.78834551  0.24438502  1
  Mo  Mo169  1  0.58420284  0.59757416  -0.00907213  1
  Mo  Mo170  1  0.69895640  0.30178405  0.62724075  1
  Mo  Mo171  1  0.10034027  0.70384863  0.36570483  1
  Mo  Mo172  1  0.19847372  0.60006632  0.00773262  1
  Mo  Mo173  1  0.89886604  0.50266847  0.39343574  1
  Mo  Mo174  1  0.89737853  0.90424166  0.39011058  1
  Mo  Mo175  1  0.28819123  0.69582871  0.87892743  1
  Mo  Mo176  1  0.59783394  0.18891675  -0.00491612  1
  Mo  Mo177  1  0.39116734  0.39848404  -0.00096375  1
  Mo  Mo178  1  0.61037003  0.39563781  0.51108748  1
  Mo  Mo179  1  0.40573371  0.19903929  0.74129132  1
  Mo  Mo180  1  0.29438248  0.90476929  0.35717494  1
  Mo  Mo181  1  0.69991207  0.50147080  0.61632020  1
  Mo  Mo182  1  -0.00516167  0.81038666  0.25108001  1
  Mo  Mo183  1  0.09672627  0.09523942  0.86553628  1
  Mo  Mo184  1  0.20706118  0.19689479  0.74262541  1
  Mo  Mo185  1  0.69444135  0.09275108  0.61103978  1
  Mo  Mo186  1  0.70526790  0.29570244  0.36905211  1
  Mo  Mo187  1  0.39894148  0.80313584  0.49754421  1
  Mo  Mo188  1  0.19200045  0.79726187  0.74483726  1
  Mo  Mo189  1  0.90634107  0.30392153  0.61541051  1
  Mo  Mo190  1  0.29590850  0.91339203  0.62745386  1
  Mo  Mo191  1  0.89877984  0.09768558  0.87117856  1
  Mo  Mo192  1  0.88697693  0.70866151  0.12853131  1
  Mo  Mo193  1  0.51211869  0.08138215  0.37696852  1
  Mo  Mo194  1  0.79222208  0.80170143  0.74632405  1
  Mo  Mo195  1  0.30251919  0.30022356  0.38560118  1
  Mo  Mo196  1  0.59908162  -0.00621763  0.74813671  1
  Mo  Mo197  1  0.61345520  -0.00363852  -0.00290639  1
  Mo  Mo198  1  0.20580396  0.40023492  0.26540993  1
  Mo  Mo199  1  -0.00537594  0.01004636  0.24676007  1
