# generated using pymatgen
data_HfZrTaTiMo
_symmetry_space_group_name_H-M   'P 1'
_cell_length_a   15.21225527
_cell_length_b   15.20866474
_cell_length_c   16.85771859
_cell_angle_alpha   89.96321051
_cell_angle_beta   89.93184502
_cell_angle_gamma   90.05124771
_symmetry_Int_Tables_number   1
_chemical_formula_structural   HfZrTaTiMo
_chemical_formula_sum   'Hf40 Zr40 Ta40 Ti40 Mo40'
_cell_volume   3900.16445647
_cell_formula_units_Z   40
loop_
 _symmetry_equiv_pos_site_id
 _symmetry_equiv_pos_as_xyz
  1  'x, y, z'
loop_
 _atom_site_type_symbol
 _atom_site_label
 _atom_site_symmetry_multiplicity
 _atom_site_fract_x
 _atom_site_fract_y
 _atom_site_fract_z
 _atom_site_occupancy
  Hf  Hf0  1  0.39962696  0.61247257  0.25423906  1
  Hf  Hf1  1  0.71517008  0.09320494  0.64054391  1
  Hf  Hf2  1  0.70816013  0.09435865  0.86663705  1
  Hf  Hf3  1  0.20751668  -0.00415074  0.50424609  1
  Hf  Hf4  1  0.20492033  0.79113750  0.73749611  1
  Hf  Hf5  1  0.10019739  0.51560623  0.37472798  1
  Hf  Hf6  1  0.38706840  0.60339028  0.75606395  1
  Hf  Hf7  1  0.29933532  0.51329795  0.12237153  1
  Hf  Hf8  1  0.40086887  0.40297299  0.24322494  1
  Hf  Hf9  1  0.90743283  0.09854889  0.36517153  1
  Hf  Hf10  1  0.08512899  0.29951231  0.87872178  1
  Hf  Hf11  1  -0.01473245  0.80749791  0.25084183  1
  Hf  Hf12  1  0.29520918  0.90132052  0.86743743  1
  Hf  Hf13  1  0.80513029  0.40206930  0.50880669  1
  Hf  Hf14  1  0.69488896  0.70129915  0.86627175  1
  Hf  Hf15  1  0.50020935  0.50755328  0.87868338  1
  Hf  Hf16  1  0.18695872  0.19606071  -0.00441052  1
  Hf  Hf17  1  0.59797314  0.20240364  0.51032417  1
  Hf  Hf18  1  0.60562281  0.59301425  0.49617151  1
  Hf  Hf19  1  0.69277355  0.87388929  0.13132978  1
  Hf  Hf20  1  0.71018671  0.49417508  0.37517407  1
  Hf  Hf21  1  0.40637278  0.60739965  -0.00171812  1
  Hf  Hf22  1  0.29266353  0.30885530  0.63477261  1
  Hf  Hf23  1  0.70694955  0.29704802  0.37056359  1
  Hf  Hf24  1  0.50164737  0.09576505  0.86382456  1
  Hf  Hf25  1  0.79857992  0.81595732  0.75196904  1
  Hf  Hf26  1  0.82920242  -0.01678366  0.23782896  1
  Hf  Hf27  1  -0.00282781  0.20089997  0.50780922  1
  Hf  Hf28  1  0.40132233  0.00529914  0.25133194  1
  Hf  Hf29  1  0.70483684  0.69757986  0.62631738  1
  Hf  Hf30  1  0.09815143  0.09402549  0.13725193  1
  Hf  Hf31  1  0.08434291  0.68428820  0.62531179  1
  Hf  Hf32  1  0.38392857  0.19979195  -0.02044830  1
  Hf  Hf33  1  0.27387058  0.70205190  0.38171621  1
  Hf  Hf34  1  0.10200580  0.09013558  0.37007409  1
  Hf  Hf35  1  0.10722595  0.88803116  0.11854437  1
  Hf  Hf36  1  0.60176696  0.40353090  0.24128138  1
  Hf  Hf37  1  0.71915429  0.90226803  0.37304653  1
  Hf  Hf38  1  0.71282799  0.29883633  0.86634209  1
  Hf  Hf39  1  0.58749720  0.39574464  0.74493632  1
  Zr  Zr40  1  0.70274951  0.09208444  0.13883638  1
  Zr  Zr41  1  0.79749338  0.19549483  0.49995140  1
  Zr  Zr42  1  0.09320666  0.69891354  0.87913258  1
  Zr  Zr43  1  0.30121401  0.70592991  0.88410666  1
  Zr  Zr44  1  0.61045160  0.60519569  0.25368366  1
  Zr  Zr45  1  0.39831070  -0.01001221  -0.00628617  1
  Zr  Zr46  1  0.49783072  0.90777858  0.38354730  1
  Zr  Zr47  1  0.30020302  0.09169904  0.12605729  1
  Zr  Zr48  1  0.50473890  0.11143418  0.64608463  1
  Zr  Zr49  1  0.48175997  0.49920064  0.62377551  1
  Zr  Zr50  1  0.29922707  0.49836266  0.37014248  1
  Zr  Zr51  1  0.38427340  0.81039268  0.26261433  1
  Zr  Zr52  1  0.07462108  0.30672148  0.36806420  1
  Zr  Zr53  1  0.51146579  0.10911644  0.37140109  1
  Zr  Zr54  1  0.71105932  0.89274304  0.61207185  1
  Zr  Zr55  1  0.50318757  0.71059565  0.12870430  1
  Zr  Zr56  1  0.90460919  0.49857592  0.87292943  1
  Zr  Zr57  1  0.00994261  0.41026384  0.74261725  1
  Zr  Zr58  1  0.71315287  0.50243640  0.63678031  1
  Zr  Zr59  1  0.49902540  0.31073082  0.37770335  1
  Zr  Zr60  1  0.61694918  0.40728597  -0.00010830  1
  Zr  Zr61  1  0.49489469  0.70425170  0.61450337  1
  Zr  Zr62  1  0.00252338  0.20380301  0.73890310  1
  Zr  Zr63  1  0.19994948  0.20225345  0.25109843  1
  Zr  Zr64  1  0.29627053  0.30533767  0.11890155  1
  Zr  Zr65  1  0.60420658  -0.02654474  0.75231716  1
  Zr  Zr66  1  0.60499007  -0.00309004  0.00027295  1
  Zr  Zr67  1  0.40266468  0.01042850  0.50701751  1
  Zr  Zr68  1  0.69558116  0.30032833  0.12422229  1
  Zr  Zr69  1  0.19662523  0.39357570  0.49900256  1
  Zr  Zr70  1  0.50615897  0.11475909  0.11617089  1
  Zr  Zr71  1  0.01265386  0.60495291  0.24316938  1
  Zr  Zr72  1  0.50470587  0.30175737  0.88658527  1
  Zr  Zr73  1  0.00109726  0.81198332  0.74654916  1
  Zr  Zr74  1  0.79885872  0.19198662  0.00710669  1
  Zr  Zr75  1  -0.00589255  0.00874396  0.00931773  1
  Zr  Zr76  1  0.10356173  0.10177116  0.62658447  1
  Zr  Zr77  1  0.39070159  0.20878657  0.50791550  1
  Zr  Zr78  1  0.61875902  0.60868823  0.00592629  1
  Zr  Zr79  1  0.60031701  0.79701944  0.48293130  1
  Ta  Ta80  1  0.41451117  0.80164111  0.74535317  1
  Ta  Ta81  1  0.19255653  0.58317716  0.75219451  1
  Ta  Ta82  1  0.00033071  0.39949342  0.01026021  1
  Ta  Ta83  1  0.10485094  0.50199638  0.88739195  1
  Ta  Ta84  1  0.89534873  0.70045383  0.87244988  1
  Ta  Ta85  1  0.18424200  0.77850042  0.24910997  1
  Ta  Ta86  1  0.29053692  0.72230749  0.11254240  1
  Ta  Ta87  1  0.50245538  0.50354819  0.38220510  1
  Ta  Ta88  1  0.59878319  0.39396059  0.51475183  1
  Ta  Ta89  1  0.70404137  0.89558783  0.88506964  1
  Ta  Ta90  1  0.81268994  0.21237531  0.24622065  1
  Ta  Ta91  1  0.18515821  -0.00817102  0.74644935  1
  Ta  Ta92  1  0.81759132  -0.00506983  0.49644958  1
  Ta  Ta93  1  0.09896954  0.88470250  0.37905484  1
  Ta  Ta94  1  0.18350470  0.40967551  0.24147627  1
  Ta  Ta95  1  0.10243777  0.50021727  0.11198779  1
  Ta  Ta96  1  0.89711805  0.30391831  0.62677504  1
  Ta  Ta97  1  0.90911997  0.48769678  0.37438980  1
  Ta  Ta98  1  0.59441152  0.79292534  0.27019526  1
  Ta  Ta99  1  0.90624555  0.10803713  0.87498618  1
  Ta  Ta100  1  0.88902867  0.69370881  0.11840813  1
  Ta  Ta101  1  0.00383997  -0.01517897  0.50872620  1
  Ta  Ta102  1  0.59223408  0.60983999  0.75104626  1
  Ta  Ta103  1  -0.00970878  0.20869904  0.01528901  1
  Ta  Ta104  1  0.50093100  0.90054179  0.61564334  1
  Ta  Ta105  1  0.39130553  0.21466697  0.76243121  1
  Ta  Ta106  1  0.69599190  0.29341665  0.64080333  1
  Ta  Ta107  1  0.18615571  0.80172107  0.51556160  1
  Ta  Ta108  1  0.38168499  0.80391266  0.49350277  1
  Ta  Ta109  1  -0.01476357  0.79778798  0.00002584  1
  Ta  Ta110  1  0.20019431  -0.00061511  -0.00847296  1
  Ta  Ta111  1  0.40384687  0.20835463  0.24887094  1
  Ta  Ta112  1  0.09820810  0.09363830  0.86645925  1
  Ta  Ta113  1  0.20519948  -0.02571988  0.25726978  1
  Ta  Ta114  1  0.29642988  0.10291656  0.64855725  1
  Ta  Ta115  1  0.09363574  0.90176082  0.88130384  1
  Ta  Ta116  1  0.61598125  0.00999601  0.50095161  1
  Ta  Ta117  1  0.29379693  0.29797576  0.36818821  1
  Ta  Ta118  1  0.72973746  0.50739828  0.13131609  1
  Ta  Ta119  1  0.89429503  0.90825553  0.88324999  1
  Ti  Ti120  1  0.79100740  0.79240253  0.00127925  1
  Ti  Ti121  1  0.81642543  0.39571760  0.00019214  1
  Ti  Ti122  1  0.91172722  0.52137283  0.63312883  1
  Ti  Ti123  1  0.39440320  -0.00420050  0.74960034  1
  Ti  Ti124  1  0.30402135  0.89811710  0.62987190  1
  Ti  Ti125  1  -0.00519301  0.20757950  0.23192068  1
  Ti  Ti126  1  0.81040137  0.59629466  -0.00267929  1
  Ti  Ti127  1  0.38502731  0.40872648  0.76022402  1
  Ti  Ti128  1  0.29821128  0.68937149  0.61854469  1
  Ti  Ti129  1  0.70833260  0.50589272  0.85822448  1
  Ti  Ti130  1  0.81726336  0.59466232  0.25498201  1
  Ti  Ti131  1  -0.00145665  0.40762294  0.51203660  1
  Ti  Ti132  1  0.50579579  0.49924598  0.11635316  1
  Ti  Ti133  1  0.19206609  0.59915715  0.50687138  1
  Ti  Ti134  1  0.80693845  -0.01170692  0.01811078  1
  Ti  Ti135  1  0.48643646  0.89831429  0.12753693  1
  Ti  Ti136  1  0.20259206  0.39359799  0.76185727  1
  Ti  Ti137  1  0.19985680  0.19954056  0.49705480  1
  Ti  Ti138  1  -0.01435877  0.78939934  0.49639514  1
  Ti  Ti139  1  0.71491030  0.69588970  0.38133493  1
  Ti  Ti140  1  0.81152504  0.39796865  0.74828405  1
  Ti  Ti141  1  0.58850253  0.79720705  -0.00078637  1
  Ti  Ti142  1  -0.01767189  0.40012274  0.22925815  1
  Ti  Ti143  1  0.39315708  0.60173288  0.49209870  1
  Ti  Ti144  1  0.19877996  0.60129595  -0.00414085  1
  Ti  Ti145  1  0.20889606  0.39901957  -0.00703130  1
  Ti  Ti146  1  0.82431070  0.60796735  0.49411223  1
  Ti  Ti147  1  0.79703314  0.78118856  0.25274357  1
  Ti  Ti148  1  0.09741858  0.69418421  0.10670469  1
  Ti  Ti149  1  0.11106858  0.49185950  0.62424853  1
  Ti  Ti150  1  0.59844631  0.20370062  0.24844134  1
  Ti  Ti151  1  -0.01637631  0.00027668  0.73923268  1
  Ti  Ti152  1  0.81419460  0.19676291  0.74850645  1
  Ti  Ti153  1  0.50163518  0.87901853  0.87439834  1
  Ti  Ti154  1  0.89309295  0.70618952  0.62942043  1
  Ti  Ti155  1  0.30300206  0.09973542  0.37146499  1
  Ti  Ti156  1  0.60042149  -0.01097995  0.24923954  1
  Ti  Ti157  1  0.49467179  0.30474219  0.10230002  1
  Ti  Ti158  1  0.39750463  0.40354528  0.50252550  1
  Ti  Ti159  1  0.70536912  0.09634179  0.36079315  1
  Mo  Mo160  1  0.59620980  0.79763123  0.74649601  1
  Mo  Mo161  1  0.39862011  0.40807780  0.00220707  1
  Mo  Mo162  1  0.50187239  0.70622920  0.87257719  1
  Mo  Mo163  1  0.28320328  0.90388873  0.38268933  1
  Mo  Mo164  1  0.29153287  0.30728876  0.87289726  1
  Mo  Mo165  1  0.19852046  0.60495454  0.23687493  1
  Mo  Mo166  1  0.59762546  0.19436196  -0.00277950  1
  Mo  Mo167  1  0.90243737  0.10065111  0.13562660  1
  Mo  Mo168  1  0.70833970  0.69734834  0.13118669  1
  Mo  Mo169  1  0.10142306  0.30357023  0.61994924  1
  Mo  Mo170  1  0.20055002  0.20110300  0.75985209  1
  Mo  Mo171  1  0.90174261  0.68997739  0.37431459  1
  Mo  Mo172  1  0.09160366  0.70256599  0.38672920  1
  Mo  Mo173  1  0.19385856  0.80839854  -0.00285119  1
  Mo  Mo174  1  0.10033910  0.89408839  0.62145744  1
  Mo  Mo175  1  0.90024981  0.30671961  0.37218924  1
  Mo  Mo176  1  0.00114796  0.60407297  0.75192181  1
  Mo  Mo177  1  0.90454127  0.50458150  0.11861167  1
  Mo  Mo178  1  0.89559541  0.30652781  0.12397835  1
  Mo  Mo179  1  0.81482578  -0.00092595  0.75665490  1
  Mo  Mo180  1  0.29105918  0.49771977  0.88289021  1
  Mo  Mo181  1  0.80753647  0.60517554  0.75302236  1
  Mo  Mo182  1  0.89801113  0.88519534  0.11360037  1
  Mo  Mo183  1  0.49060132  0.69356363  0.38563958  1
  Mo  Mo184  1  0.81313739  0.79651489  0.49166240  1
  Mo  Mo185  1  0.89853011  0.29431905  0.87680598  1
  Mo  Mo186  1  0.89786249  0.09406889  0.62221652  1
  Mo  Mo187  1  0.28991126  0.51088297  0.62431235  1
  Mo  Mo188  1  0.09828074  0.30826877  0.12243652  1
  Mo  Mo189  1  0.29573758  0.89797429  0.12316790  1
  Mo  Mo190  1  0.40148315  0.80714051  0.00214714  1
  Mo  Mo191  1  0.80780758  0.40517904  0.24993242  1
  Mo  Mo192  1  0.60300273  0.20161491  0.74837705  1
  Mo  Mo193  1  0.28869415  0.09782229  0.85300108  1
  Mo  Mo194  1  0.90541830  0.89791525  0.61710192  1
  Mo  Mo195  1  0.49413904  0.30593745  0.63212466  1
  Mo  Mo196  1  -0.00338291  0.59192550  0.50084750  1
  Mo  Mo197  1  0.01315596  -0.00411994  0.24742940  1
  Mo  Mo198  1  0.91146527  0.89628367  0.38044376  1
  Mo  Mo199  1  -0.00227145  0.60048397  0.00402428  1
