# generated using pymatgen
data_HfZrTaTiMo
_symmetry_space_group_name_H-M   'P 1'
_cell_length_a   15.19815903
_cell_length_b   15.21427658
_cell_length_c   16.81732187
_cell_angle_alpha   89.96879067
_cell_angle_beta   90.00735009
_cell_angle_gamma   89.96467955
_symmetry_Int_Tables_number   1
_chemical_formula_structural   HfZrTaTiMo
_chemical_formula_sum   'Hf40 Zr40 Ta40 Ti40 Mo40'
_cell_volume   3888.65108557
_cell_formula_units_Z   40
loop_
 _symmetry_equiv_pos_site_id
 _symmetry_equiv_pos_as_xyz
  1  'x, y, z'
loop_
 _atom_site_type_symbol
 _atom_site_label
 _atom_site_symmetry_multiplicity
 _atom_site_fract_x
 _atom_site_fract_y
 _atom_site_fract_z
 _atom_site_occupancy
  Hf  Hf0  1  0.90507421  0.49926978  0.61250966  1
  Hf  Hf1  1  0.60527085  0.79413096  0.23523803  1
  Hf  Hf2  1  0.90562306  0.90039505  0.37410979  1
  Hf  Hf3  1  0.69077896  0.09762196  0.87519898  1
  Hf  Hf4  1  0.20814597  0.00813332  0.49884360  1
  Hf  Hf5  1  0.59432571  0.18685045  0.24671411  1
  Hf  Hf6  1  0.31394693  0.68892443  0.88152075  1
  Hf  Hf7  1  -0.00726675  0.59937568  0.24242606  1
  Hf  Hf8  1  0.48710197  0.28777495  0.87295897  1
  Hf  Hf9  1  0.60322693  0.39136447  0.75147429  1
  Hf  Hf10  1  0.78108276  0.61692965  0.51264737  1
  Hf  Hf11  1  0.90901071  0.10862095  0.12183537  1
  Hf  Hf12  1  0.07578268  0.49575244  0.88496154  1
  Hf  Hf13  1  0.30950710  0.92646007  0.12851819  1
  Hf  Hf14  1  0.40294150  0.79160642  0.24456240  1
  Hf  Hf15  1  0.82192070  0.58247085  0.00203519  1
  Hf  Hf16  1  0.29117993  0.28911600  0.13459454  1
  Hf  Hf17  1  0.40278566  -0.01210653  0.49370048  1
  Hf  Hf18  1  0.60409445  0.60298670  0.74210832  1
  Hf  Hf19  1  0.10099316  0.28490453  0.85630302  1
  Hf  Hf20  1  0.89610658  0.10150147  0.37974849  1
  Hf  Hf21  1  0.11969107  0.10191507  0.13949294  1
  Hf  Hf22  1  0.69116943  0.49166841  0.62036322  1
  Hf  Hf23  1  0.20328878  0.59266690  0.75150727  1
  Hf  Hf24  1  0.39764573  0.59793997  0.73418911  1
  Hf  Hf25  1  0.89642008  0.32893498  0.88051058  1
  Hf  Hf26  1  0.60364479  0.79060595  0.51663777  1
  Hf  Hf27  1  0.29936228  0.11252318  0.85001083  1
  Hf  Hf28  1  0.92076025  0.30619980  0.38922636  1
  Hf  Hf29  1  0.70152348  0.90446514  0.62683875  1
  Hf  Hf30  1  0.69892032  0.90649504  0.37874505  1
  Hf  Hf31  1  0.50552636  0.08477011  0.61857700  1
  Hf  Hf32  1  0.38308991  0.40167418  0.25432303  1
  Hf  Hf33  1  0.90619975  0.89533147  0.12243010  1
  Hf  Hf34  1  0.39300315  0.39512269  0.74200706  1
  Hf  Hf35  1  0.31756012  0.90001306  0.86088492  1
  Hf  Hf36  1  0.38867469  0.19268897  -0.00135938  1
  Hf  Hf37  1  0.20498215  0.80087093  -0.00218261  1
  Hf  Hf38  1  0.79840587  0.21140622  0.74931768  1
  Hf  Hf39  1  0.59343164  0.38786337  0.49362651  1
  Zr  Zr40  1  0.01143760  0.00802418  -0.01973123  1
  Zr  Zr41  1  0.90477098  0.71996339  0.63075825  1
  Zr  Zr42  1  0.20709807  0.80446916  0.25465214  1
  Zr  Zr43  1  0.59607425  0.19033213  0.01089477  1
  Zr  Zr44  1  0.61539193  0.80314384  0.01066376  1
  Zr  Zr45  1  0.00145906  0.79584898  -0.01495559  1
  Zr  Zr46  1  0.70090022  0.10587327  0.63128218  1
  Zr  Zr47  1  0.09724213  0.89533743  0.63423265  1
  Zr  Zr48  1  0.19766368  0.19663533  -0.00632309  1
  Zr  Zr49  1  0.89791921  0.70593724  0.37900968  1
  Zr  Zr50  1  0.69079677  0.29983852  0.36453500  1
  Zr  Zr51  1  0.80789355  0.20761874  0.24960225  1
  Zr  Zr52  1  0.49185632  0.50333418  0.87610011  1
  Zr  Zr53  1  0.00337819  0.21661975  -0.00022033  1
  Zr  Zr54  1  0.80512934  0.79462441  0.24347935  1
  Zr  Zr55  1  0.18932938  0.39349827  -0.00406449  1
  Zr  Zr56  1  0.10649658  0.90427862  0.12480507  1
  Zr  Zr57  1  0.19534999  0.79828570  0.50036302  1
  Zr  Zr58  1  0.00284498  -0.00267966  0.50458016  1
  Zr  Zr59  1  0.59328148  0.40081716  0.00122010  1
  Zr  Zr60  1  0.01114719  0.62371161  0.50374613  1
  Zr  Zr61  1  0.50383509  0.87682980  0.38078370  1
  Zr  Zr62  1  0.41074562  0.81230562  0.01133139  1
  Zr  Zr63  1  0.20609415  0.21277866  0.50782511  1
  Zr  Zr64  1  0.50601235  0.70491541  0.87916733  1
  Zr  Zr65  1  0.79002348  0.20417746  0.49772718  1
  Zr  Zr66  1  0.46865375  0.09237813  0.13129298  1
  Zr  Zr67  1  0.89604439  0.50811177  0.38635051  1
  Zr  Zr68  1  0.20138962  0.40198899  0.74784090  1
  Zr  Zr69  1  0.10127672  0.49029904  0.38551461  1
  Zr  Zr70  1  0.10716464  0.69549227  0.87088861  1
  Zr  Zr71  1  0.39498009  -0.00247696  0.27835645  1
  Zr  Zr72  1  0.79212380  -0.00217041  -0.00527207  1
  Zr  Zr73  1  0.48787459  0.49830696  0.38022394  1
  Zr  Zr74  1  0.79258786  0.00645968  0.23855729  1
  Zr  Zr75  1  0.70187761  0.30525251  0.13237659  1
  Zr  Zr76  1  0.00350522  0.01398634  0.75422886  1
  Zr  Zr77  1  0.22093191  0.00723674  -0.01123072  1
  Zr  Zr78  1  0.80777956  0.79426898  -0.01613754  1
  Zr  Zr79  1  0.79200521  0.80178610  0.76807335  1
  Ta  Ta80  1  0.69153423  0.51103122  0.37491010  1
  Ta  Ta81  1  0.00870064  0.20472659  0.25360091  1
  Ta  Ta82  1  0.80478231  0.00261469  0.76459572  1
  Ta  Ta83  1  0.09128752  0.30284005  0.13256574  1
  Ta  Ta84  1  0.00876188  0.79879593  0.24670716  1
  Ta  Ta85  1  0.20672158  0.58936720  0.00583176  1
  Ta  Ta86  1  0.79923964  0.20859420  0.00417449  1
  Ta  Ta87  1  0.71536744  0.49339210  0.87391871  1
  Ta  Ta88  1  0.80064222  0.41724314  0.25667628  1
  Ta  Ta89  1  0.59274834  0.19647144  0.75032561  1
  Ta  Ta90  1  0.50852550  0.29345461  0.62088118  1
  Ta  Ta91  1  0.39907797  0.77891682  0.51792993  1
  Ta  Ta92  1  0.10871202  0.69750339  0.36826932  1
  Ta  Ta93  1  0.29736943  0.69498421  0.12105863  1
  Ta  Ta94  1  0.90131393  0.11916780  0.87484007  1
  Ta  Ta95  1  0.10485412  0.50369250  0.61175703  1
  Ta  Ta96  1  0.09655569  0.11416393  0.37949916  1
  Ta  Ta97  1  0.69659178  0.50165041  0.13286347  1
  Ta  Ta98  1  0.00733158  0.00248305  0.25764652  1
  Ta  Ta99  1  0.79165747  0.40359569  0.49687945  1
  Ta  Ta100  1  -0.00748315  0.39732919  0.24287906  1
  Ta  Ta101  1  0.20130478  0.20167886  0.72025103  1
  Ta  Ta102  1  0.59969784  -0.00906276  0.23069336  1
  Ta  Ta103  1  0.38301623  0.39957848  0.00403822  1
  Ta  Ta104  1  0.80222178  0.40377220  0.74160659  1
  Ta  Ta105  1  0.40365719  0.58571584  0.01983269  1
  Ta  Ta106  1  0.90408934  0.10513584  0.62052771  1
  Ta  Ta107  1  0.40829075  0.79509209  0.72926530  1
  Ta  Ta108  1  0.72045119  0.68788330  0.12323249  1
  Ta  Ta109  1  0.80294706  0.59521082  0.74526923  1
  Ta  Ta110  1  0.48884963  0.30500623  0.13269206  1
  Ta  Ta111  1  0.11582903  0.90758679  0.85908678  1
  Ta  Ta112  1  0.61043615  0.59492957  0.00560407  1
  Ta  Ta113  1  0.09019698  0.30974835  0.61782552  1
  Ta  Ta114  1  0.58736453  -0.00814016  0.01289078  1
  Ta  Ta115  1  0.30862842  0.69079061  0.37856475  1
  Ta  Ta116  1  0.69023739  0.69943071  0.37342633  1
  Ta  Ta117  1  0.50917690  0.68505699  0.12309711  1
  Ta  Ta118  1  -0.00291023  0.80522574  0.76775801  1
  Ta  Ta119  1  0.39740287  0.59405218  0.23534302  1
  Ti  Ti120  1  0.49387026  0.08720856  0.86951762  1
  Ti  Ti121  1  0.59921046  0.59460990  0.24589508  1
  Ti  Ti122  1  0.49999939  0.68452890  0.37543833  1
  Ti  Ti123  1  0.40905145  -0.00650640  0.73661268  1
  Ti  Ti124  1  0.29468924  0.50370995  0.60445045  1
  Ti  Ti125  1  0.20517836  0.21184224  0.26941397  1
  Ti  Ti126  1  0.29295273  0.50594965  0.38924327  1
  Ti  Ti127  1  0.21175937  0.79695565  0.74643517  1
  Ti  Ti128  1  0.47771239  0.28400474  0.37293838  1
  Ti  Ti129  1  0.09938731  0.69733621  0.12189688  1
  Ti  Ti130  1  0.09992690  0.89673808  0.37707376  1
  Ti  Ti131  1  0.09237231  0.50008307  0.12030869  1
  Ti  Ti132  1  0.38615811  0.38628968  0.50033438  1
  Ti  Ti133  1  0.18714822  0.40349824  0.25199910  1
  Ti  Ti134  1  0.10747190  0.70138755  0.63453149  1
  Ti  Ti135  1  0.89708449  0.90934508  0.63138425  1
  Ti  Ti136  1  0.79115728  0.00500099  0.50072119  1
  Ti  Ti137  1  0.80677949  0.80941724  0.50372129  1
  Ti  Ti138  1  0.58689987  0.60133494  0.50733228  1
  Ti  Ti139  1  0.20641215  0.00856450  0.73225903  1
  Ti  Ti140  1  0.90697083  0.67750330  0.86875316  1
  Ti  Ti141  1  0.51160958  0.90025696  0.87009752  1
  Ti  Ti142  1  0.20626994  0.59417173  0.24330548  1
  Ti  Ti143  1  0.60200808  -0.00879128  0.75265797  1
  Ti  Ti144  1  -0.00343807  0.20683815  0.73628798  1
  Ti  Ti145  1  -0.00580858  0.40518136  0.73995361  1
  Ti  Ti146  1  0.69948922  0.29893680  0.88076476  1
  Ti  Ti147  1  0.49015773  0.49269766  0.61248686  1
  Ti  Ti148  1  0.20413486  0.00817117  0.27811655  1
  Ti  Ti149  1  0.59771618  0.18954400  0.49416237  1
  Ti  Ti150  1  0.59524678  0.79856842  0.73838849  1
  Ti  Ti151  1  0.00035658  0.59618204  0.74177996  1
  Ti  Ti152  1  0.51597112  0.09047244  0.38007840  1
  Ti  Ti153  1  0.39737584  0.19871357  0.72803096  1
  Ti  Ti154  1  0.40098600  0.19764419  0.51237108  1
  Ti  Ti155  1  0.89347027  0.30264650  0.61242460  1
  Ti  Ti156  1  0.30695372  0.89894731  0.62618102  1
  Ti  Ti157  1  0.31242267  0.12622126  0.37848031  1
  Ti  Ti158  1  0.58857225  0.40293401  0.25221525  1
  Ti  Ti159  1  0.69993101  0.68771700  0.87707912  1
  Mo  Mo160  1  0.91313558  0.69687791  0.12505827  1
  Mo  Mo161  1  0.50281811  0.68910942  0.62414751  1
  Mo  Mo162  1  0.10373245  0.29975351  0.37408242  1
  Mo  Mo163  1  0.50057889  0.49247085  0.12978741  1
  Mo  Mo164  1  0.69475177  0.09891972  0.11446610  1
  Mo  Mo165  1  0.90092399  0.30952916  0.12608745  1
  Mo  Mo166  1  0.68616487  0.89807126  0.86459775  1
  Mo  Mo167  1  0.39991591  0.59735010  0.50597969  1
  Mo  Mo168  1  0.39798078  0.20514892  0.26128069  1
  Mo  Mo169  1  0.88875994  0.50126389  0.13512191  1
  Mo  Mo170  1  0.00880025  0.59959348  0.01377407  1
  Mo  Mo171  1  0.20873695  0.60721285  0.50041321  1
  Mo  Mo172  1  -0.00014883  0.39856223  0.50808122  1
  Mo  Mo173  1  0.10424875  0.10495304  0.85332979  1
  Mo  Mo174  1  0.29251878  0.31563029  0.37659797  1
  Mo  Mo175  1  0.78761948  0.60200879  0.25182385  1
  Mo  Mo176  1  0.60617270  0.00050185  0.49725101  1
  Mo  Mo177  1  0.29202054  0.10513256  0.14725387  1
  Mo  Mo178  1  0.29169288  0.69829313  0.62714784  1
  Mo  Mo179  1  0.29858626  0.49809238  0.88307243  1
  Mo  Mo180  1  0.90242149  0.90960474  0.87106485  1
  Mo  Mo181  1  -0.02326769  0.41668875  0.02220096  1
  Mo  Mo182  1  0.30687913  0.09441188  0.62857915  1
  Mo  Mo183  1  0.19966581  0.40465218  0.50562147  1
  Mo  Mo184  1  -0.00070126  0.80667319  0.50031157  1
  Mo  Mo185  1  0.29340674  0.88370233  0.38515241  1
  Mo  Mo186  1  0.30543789  0.30380862  0.86732569  1
  Mo  Mo187  1  0.70419888  0.69984041  0.63368069  1
  Mo  Mo188  1  0.70199483  0.89946983  0.12168279  1
  Mo  Mo189  1  0.69008845  0.09218495  0.37624712  1
  Mo  Mo190  1  0.90044019  0.50460315  0.86442227  1
  Mo  Mo191  1  0.79161657  0.39857618  0.00315342  1
  Mo  Mo192  1  0.50013446  0.89598920  0.62499378  1
  Mo  Mo193  1  0.49825378  0.89442286  0.13005561  1
  Mo  Mo194  1  0.00290966  0.19870368  0.51132804  1
  Mo  Mo195  1  0.40896251  0.00352202  -0.01596779  1
  Mo  Mo196  1  0.09716955  0.10729841  0.62372704  1
  Mo  Mo197  1  0.69755703  0.30187407  0.62362305  1
  Mo  Mo198  1  0.28794895  0.49856118  0.12998867  1
  Mo  Mo199  1  0.30777584  0.30769349  0.61983297  1
