# generated using pymatgen
data_HfZrTaTiMo
_symmetry_space_group_name_H-M   'P 1'
_cell_length_a   15.21042087
_cell_length_b   15.20189710
_cell_length_c   16.86205632
_cell_angle_alpha   90.01339547
_cell_angle_beta   90.02074456
_cell_angle_gamma   90.07204887
_symmetry_Int_Tables_number   1
_chemical_formula_structural   HfZrTaTiMo
_chemical_formula_sum   'Hf40 Zr40 Ta40 Ti40 Mo40'
_cell_volume   3898.96351419
_cell_formula_units_Z   40
loop_
 _symmetry_equiv_pos_site_id
 _symmetry_equiv_pos_as_xyz
  1  'x, y, z'
loop_
 _atom_site_type_symbol
 _atom_site_label
 _atom_site_symmetry_multiplicity
 _atom_site_fract_x
 _atom_site_fract_y
 _atom_site_fract_z
 _atom_site_occupancy
  Hf  Hf0  1  -0.00070107  0.59430773  0.25507552  1
  Hf  Hf1  1  0.30162053  0.10136788  0.36803836  1
  Hf  Hf2  1  0.51393006  0.30711230  0.61699809  1
  Hf  Hf3  1  0.59762279  0.20828609  0.74574592  1
  Hf  Hf4  1  0.80169098  0.60830482  0.26026650  1
  Hf  Hf5  1  0.42111092  0.21576022  0.00585704  1
  Hf  Hf6  1  0.08902915  0.70103491  0.11248557  1
  Hf  Hf7  1  0.88990003  0.90048481  0.37893282  1
  Hf  Hf8  1  0.59785034  -0.01206657  0.24390985  1
  Hf  Hf9  1  0.21578893  0.19392683  0.74094953  1
  Hf  Hf10  1  0.31999901  0.11080404  0.12641320  1
  Hf  Hf11  1  0.62132543  0.40990522  0.76257035  1
  Hf  Hf12  1  0.59681457  0.00624509  -0.00674591  1
  Hf  Hf13  1  0.80411913  0.19621786  -0.00506255  1
  Hf  Hf14  1  0.51179901  0.51127256  0.62143755  1
  Hf  Hf15  1  0.92611923  0.09663654  0.86051265  1
  Hf  Hf16  1  0.88963627  0.10473808  0.13615978  1
  Hf  Hf17  1  0.20072606  0.40585565  0.24714958  1
  Hf  Hf18  1  0.68983557  0.71682446  0.37412818  1
  Hf  Hf19  1  0.01378149  0.40082925  0.74992945  1
  Hf  Hf20  1  0.89288558  0.31627867  0.13698676  1
  Hf  Hf21  1  0.78837285  0.40266196  -0.01099765  1
  Hf  Hf22  1  0.40121623  0.79319253  0.24998500  1
  Hf  Hf23  1  0.38424416  0.00347917  0.76149514  1
  Hf  Hf24  1  0.58291637  0.39183859  0.25742937  1
  Hf  Hf25  1  0.70189142  0.89619131  0.11040946  1
  Hf  Hf26  1  0.30147166  0.89592421  0.37829540  1
  Hf  Hf27  1  -0.00796079  0.00155905  0.00568375  1
  Hf  Hf28  1  0.40754932  0.19651878  0.49287295  1
  Hf  Hf29  1  0.18693791  0.59505774  0.73591998  1
  Hf  Hf30  1  0.91565632  0.30218685  0.87376708  1
  Hf  Hf31  1  0.69790184  0.49703029  0.13032649  1
  Hf  Hf32  1  0.00215776  0.18589736  0.50163051  1
  Hf  Hf33  1  0.09865373  0.49526002  0.11883005  1
  Hf  Hf34  1  0.10569764  0.48991423  0.88322710  1
  Hf  Hf35  1  0.29701763  0.48545487  0.61702370  1
  Hf  Hf36  1  0.29176755  0.91139058  0.62662972  1
  Hf  Hf37  1  0.41269814  0.38964671  0.75130054  1
  Hf  Hf38  1  0.80581317  0.60823293  0.48654548  1
  Hf  Hf39  1  0.60295404  -0.01549440  0.51719761  1
  Zr  Zr40  1  0.39980338  0.59988632  0.74736182  1
  Zr  Zr41  1  0.19715646  0.80249311  0.75334719  1
  Zr  Zr42  1  0.02060844  0.21620122  0.24174272  1
  Zr  Zr43  1  0.81073637  0.21887144  0.49697606  1
  Zr  Zr44  1  0.87324167  0.69475106  0.64054550  1
  Zr  Zr45  1  0.88951801  0.89296190  0.11964667  1
  Zr  Zr46  1  0.28995419  0.68722193  0.38070472  1
  Zr  Zr47  1  0.49871105  0.11366998  0.86845932  1
  Zr  Zr48  1  0.19918770  0.00234294  0.24831031  1
  Zr  Zr49  1  0.71486317  0.09938809  0.63294577  1
  Zr  Zr50  1  0.48763218  0.47625470  0.11368180  1
  Zr  Zr51  1  0.02169676  0.20521470  0.01462278  1
  Zr  Zr52  1  0.77501705  0.81150374  0.51379860  1
  Zr  Zr53  1  0.50011184  0.49597003  0.88612675  1
  Zr  Zr54  1  0.39761601  0.79470860  -0.00996337  1
  Zr  Zr55  1  0.08812914  0.70469523  0.38877135  1
  Zr  Zr56  1  0.61013561  0.19965353  0.49954708  1
  Zr  Zr57  1  0.49478757  0.89647807  0.11567782  1
  Zr  Zr58  1  0.19261235  0.01160245  -0.00182154  1
  Zr  Zr59  1  0.81686100  0.01076414  0.50695972  1
  Zr  Zr60  1  0.30064236  0.69242322  0.12537310  1
  Zr  Zr61  1  0.08340161  0.68653516  0.87923380  1
  Zr  Zr62  1  -0.01020196  0.80064267  0.75148931  1
  Zr  Zr63  1  0.60069638  0.18905821  0.25293503  1
  Zr  Zr64  1  0.20582311  0.20070332  0.49877362  1
  Zr  Zr65  1  0.19358289  0.80702093  -0.01514399  1
  Zr  Zr66  1  -0.01289858  0.79671934  0.25393733  1
  Zr  Zr67  1  0.11026589  0.49857054  0.38141134  1
  Zr  Zr68  1  -0.00315245  0.39855566  0.49238503  1
  Zr  Zr69  1  0.79966850  0.61336075  -0.01058726  1
  Zr  Zr70  1  0.80455386  0.21310711  0.75402708  1
  Zr  Zr71  1  0.70396975  0.08853795  0.37747113  1
  Zr  Zr72  1  0.90630220  0.11244470  0.35749695  1
  Zr  Zr73  1  0.60222340  -0.01254280  0.74678718  1
  Zr  Zr74  1  0.09290020  0.90968796  0.38720712  1
  Zr  Zr75  1  0.21447614  0.38558004  0.00176562  1
  Zr  Zr76  1  0.49287201  0.68722649  0.37509490  1
  Zr  Zr77  1  0.11177653  0.31159153  0.62005115  1
  Zr  Zr78  1  0.71116442  0.50983506  0.62336933  1
  Zr  Zr79  1  0.29387284  0.90153995  0.12688776  1
  Ta  Ta80  1  0.40408365  0.39989296  0.49355347  1
  Ta  Ta81  1  0.39781276  0.80069558  0.50439244  1
  Ta  Ta82  1  0.09111235  0.89711382  0.12310319  1
  Ta  Ta83  1  0.59975735  0.79412367  0.24299922  1
  Ta  Ta84  1  0.79230141  -0.00253884  0.24919419  1
  Ta  Ta85  1  0.31704362  0.28988874  0.62354255  1
  Ta  Ta86  1  0.21571205  0.39794858  0.75863444  1
  Ta  Ta87  1  -0.00037771  -0.00127898  0.24151686  1
  Ta  Ta88  1  0.50214437  0.69549425  0.87547416  1
  Ta  Ta89  1  0.80218841  0.40938217  0.48614147  1
  Ta  Ta90  1  0.60505317  0.78602111  -0.00903583  1
  Ta  Ta91  1  0.39339836  0.00026827  -0.01614675  1
  Ta  Ta92  1  0.90425913  0.30270249  0.63123626  1
  Ta  Ta93  1  0.28977862  0.11697933  0.88540865  1
  Ta  Ta94  1  0.40112214  -0.00365074  0.50321804  1
  Ta  Ta95  1  -0.01661575  0.80087785  0.51669583  1
  Ta  Ta96  1  0.90814074  0.51485593  0.87562541  1
  Ta  Ta97  1  0.18874457  0.79775269  0.24920588  1
  Ta  Ta98  1  0.30648015  0.31574349  0.37147721  1
  Ta  Ta99  1  0.90207450  0.49080492  0.62601843  1
  Ta  Ta100  1  0.50028142  0.08530728  0.38029934  1
  Ta  Ta101  1  -0.00215236  0.40209596  0.00051078  1
  Ta  Ta102  1  0.19095314  0.79815918  0.51543772  1
  Ta  Ta103  1  0.89104234  0.69943313  0.11902825  1
  Ta  Ta104  1  0.69517023  0.50144164  0.36849937  1
  Ta  Ta105  1  0.08120286  0.91624656  0.87093187  1
  Ta  Ta106  1  0.48851678  0.88967611  0.63196928  1
  Ta  Ta107  1  0.69908778  0.70117878  0.12474507  1
  Ta  Ta108  1  0.30359564  0.70492534  0.62240595  1
  Ta  Ta109  1  -0.02176085  0.79635009  -0.01686406  1
  Ta  Ta110  1  0.20785690  0.59412282  -0.00263257  1
  Ta  Ta111  1  0.89830632  0.50782104  0.12203395  1
  Ta  Ta112  1  0.50801154  0.68530235  0.11967143  1
  Ta  Ta113  1  0.19191737  0.59709912  0.51943629  1
  Ta  Ta114  1  0.51030967  0.89087416  0.38086903  1
  Ta  Ta115  1  0.32221393  0.31868309  0.13470829  1
  Ta  Ta116  1  0.70444421  0.10167159  0.87143762  1
  Ta  Ta117  1  0.89001189  0.91059616  0.63849390  1
  Ta  Ta118  1  0.29892843  0.68737850  0.87235064  1
  Ta  Ta119  1  0.11778589  0.27807110  0.87233048  1
  Ti  Ti120  1  -0.00839965  0.59607170  0.73816126  1
  Ti  Ti121  1  0.10692161  0.09210468  0.62854860  1
  Ti  Ti122  1  0.39641827  0.79951537  0.75741889  1
  Ti  Ti123  1  0.80206693  -0.00998292  0.76389387  1
  Ti  Ti124  1  0.79854743  -0.00664878  -0.02245073  1
  Ti  Ti125  1  0.69210755  0.29852332  0.12677532  1
  Ti  Ti126  1  0.39359900  0.58994687  -0.00250116  1
  Ti  Ti127  1  0.58755484  0.78868458  0.51996748  1
  Ti  Ti128  1  0.19603541  0.00425154  0.50222656  1
  Ti  Ti129  1  0.39355440  0.57306379  0.24820031  1
  Ti  Ti130  1  0.70971457  0.30331718  0.36258532  1
  Ti  Ti131  1  0.89777775  0.32022055  0.34707875  1
  Ti  Ti132  1  0.47822543  0.10014374  0.63313857  1
  Ti  Ti133  1  0.40975443  0.00474365  0.25149679  1
  Ti  Ti134  1  0.18972874  0.00152069  0.76243062  1
  Ti  Ti135  1  0.69501287  0.10333923  0.12045706  1
  Ti  Ti136  1  0.60516163  0.58974420  -0.00067645  1
  Ti  Ti137  1  0.11265239  0.10446797  0.13097564  1
  Ti  Ti138  1  0.08899114  0.90467834  0.62503501  1
  Ti  Ti139  1  0.21437678  0.21086455  0.24737249  1
  Ti  Ti140  1  0.50075681  0.89178895  0.87317391  1
  Ti  Ti141  1  0.59101118  0.78615168  0.74265793  1
  Ti  Ti142  1  0.81014994  0.41169419  0.76418491  1
  Ti  Ti143  1  0.49194650  0.49214752  0.37914327  1
  Ti  Ti144  1  0.77877046  0.80289552  0.76008471  1
  Ti  Ti145  1  0.10087545  0.10060989  0.37105929  1
  Ti  Ti146  1  0.91881746  0.10305768  0.64399988  1
  Ti  Ti147  1  0.60191699  0.60108895  0.49630880  1
  Ti  Ti148  1  0.20265440  0.60294048  0.24661487  1
  Ti  Ti149  1  0.69091112  0.68782735  0.86139841  1
  Ti  Ti150  1  0.41536474  0.21288341  0.25771443  1
  Ti  Ti151  1  0.59187936  0.59894979  0.24736973  1
  Ti  Ti152  1  0.79228628  0.80372357  -0.02757692  1
  Ti  Ti153  1  0.60718770  0.39964229  0.48596560  1
  Ti  Ti154  1  0.39984712  0.60170785  0.50539129  1
  Ti  Ti155  1  0.71473854  0.31725218  0.62138171  1
  Ti  Ti156  1  -0.00414700  0.60194038  0.51061329  1
  Ti  Ti157  1  0.32062536  0.30102648  0.87531117  1
  Ti  Ti158  1  0.79054026  0.80465260  0.25274811  1
  Ti  Ti159  1  0.10581779  0.29941057  0.37729804  1
  Mo  Mo160  1  0.30629325  0.50779682  0.38736383  1
  Mo  Mo161  1  0.21560186  0.20267213  0.00828413  1
  Mo  Mo162  1  0.00497182  -0.00238464  0.51832467  1
  Mo  Mo163  1  0.29875777  0.50642930  0.12575782  1
  Mo  Mo164  1  0.49074635  0.70014177  0.62271198  1
  Mo  Mo165  1  0.69022749  0.89932875  0.37249822  1
  Mo  Mo166  1  0.01535652  0.20151068  0.73964517  1
  Mo  Mo167  1  0.89029356  0.69949496  0.85765536  1
  Mo  Mo168  1  0.89696930  0.50247015  0.37360456  1
  Mo  Mo169  1  0.40077918  0.20249527  0.74677542  1
  Mo  Mo170  1  0.68849763  0.89478542  0.87616687  1
  Mo  Mo171  1  0.59664641  0.37731043  -0.00425631  1
  Mo  Mo172  1  0.50323314  0.09592577  0.12262897  1
  Mo  Mo173  1  0.21142326  0.40006217  0.49405364  1
  Mo  Mo174  1  0.70322212  0.50046267  0.87858002  1
  Mo  Mo175  1  0.60009724  0.60529703  0.75361943  1
  Mo  Mo176  1  0.11094055  0.30050262  0.12673732  1
  Mo  Mo177  1  0.39931622  0.40217793  -0.00603479  1
  Mo  Mo178  1  0.69814455  0.88964343  0.63947900  1
  Mo  Mo179  1  0.61645126  0.20502352  -0.00055464  1
  Mo  Mo180  1  -0.00214041  0.41254915  0.25058687  1
  Mo  Mo181  1  -0.00514175  0.59724844  0.00204202  1
  Mo  Mo182  1  0.67873126  0.69187066  0.63544559  1
  Mo  Mo183  1  0.51117199  0.30085297  0.87500926  1
  Mo  Mo184  1  0.50503165  0.29835787  0.38514815  1
  Mo  Mo185  1  0.50345792  0.28547240  0.12980394  1
  Mo  Mo186  1  0.90016997  0.70597185  0.38695838  1
  Mo  Mo187  1  0.79083211  0.41033962  0.25350432  1
  Mo  Mo188  1  0.39760458  0.39925023  0.26141322  1
  Mo  Mo189  1  0.79544878  0.59195225  0.76308408  1
  Mo  Mo190  1  0.29845079  0.50056979  0.87088431  1
  Mo  Mo191  1  0.00569904  -0.00107377  0.73980174  1
  Mo  Mo192  1  0.09444973  0.50177164  0.62184809  1
  Mo  Mo193  1  0.79149925  0.20568930  0.24362226  1
  Mo  Mo194  1  0.69837845  0.29394304  0.87988888  1
  Mo  Mo195  1  0.89098172  0.90125249  0.86753396  1
  Mo  Mo196  1  0.30110580  0.09503352  0.61982586  1
  Mo  Mo197  1  0.09136508  0.70279683  0.61841198  1
  Mo  Mo198  1  0.10354247  0.10599798  0.87129830  1
  Mo  Mo199  1  0.29754310  0.90423456  0.87123725  1
