# generated using pymatgen
data_HfZrTaTiMo
_symmetry_space_group_name_H-M   'P 1'
_cell_length_a   15.21614339
_cell_length_b   15.22285036
_cell_length_c   16.82399085
_cell_angle_alpha   90.03420115
_cell_angle_beta   89.96871923
_cell_angle_gamma   90.03340423
_symmetry_Int_Tables_number   1
_chemical_formula_structural   HfZrTaTiMo
_chemical_formula_sum   'Hf40 Zr40 Ta40 Ti40 Mo40'
_cell_volume   3896.99077754
_cell_formula_units_Z   40
loop_
 _symmetry_equiv_pos_site_id
 _symmetry_equiv_pos_as_xyz
  1  'x, y, z'
loop_
 _atom_site_type_symbol
 _atom_site_label
 _atom_site_symmetry_multiplicity
 _atom_site_fract_x
 _atom_site_fract_y
 _atom_site_fract_z
 _atom_site_occupancy
  Hf  Hf0  1  0.20413575  0.79819449  0.00149763  1
  Hf  Hf1  1  0.90115867  0.68025294  0.87544790  1
  Hf  Hf2  1  0.30375408  0.69580193  0.86953517  1
  Hf  Hf3  1  0.80401353  0.81175002  0.25320967  1
  Hf  Hf4  1  0.60522138  -0.00263500  0.48653916  1
  Hf  Hf5  1  0.79746693  0.79792534  0.00078706  1
  Hf  Hf6  1  0.00089137  0.59969312  0.50113930  1
  Hf  Hf7  1  0.89197197  0.09782330  0.86379488  1
  Hf  Hf8  1  0.19108774  0.58388577  0.01585699  1
  Hf  Hf9  1  0.40112916  0.40381462  0.75110194  1
  Hf  Hf10  1  0.30302488  0.71541884  0.36630341  1
  Hf  Hf11  1  0.80378074  0.59592402  0.49771204  1
  Hf  Hf12  1  0.50766553  0.70395267  0.87194912  1
  Hf  Hf13  1  0.40283672  0.21055882  0.48704665  1
  Hf  Hf14  1  0.28089661  0.10167920  0.38669466  1
  Hf  Hf15  1  -0.00822222  0.40166653  0.76479422  1
  Hf  Hf16  1  0.09995241  0.69318939  0.87376179  1
  Hf  Hf17  1  0.40676671  0.59263645  0.48139955  1
  Hf  Hf18  1  0.09880903  0.30271122  0.89499726  1
  Hf  Hf19  1  0.70601035  0.10314644  0.13942067  1
  Hf  Hf20  1  0.60438736  0.59501738  0.75464588  1
  Hf  Hf21  1  0.40718126  0.79879276  0.73601817  1
  Hf  Hf22  1  0.59121113  0.20105191  0.25826994  1
  Hf  Hf23  1  0.00040402  0.79142112  0.72604916  1
  Hf  Hf24  1  0.29079613  0.30999405  0.61089066  1
  Hf  Hf25  1  0.19883237  0.59438875  0.73673060  1
  Hf  Hf26  1  0.30152615  0.29931312  0.89296596  1
  Hf  Hf27  1  0.40771400  0.20206911  0.73445005  1
  Hf  Hf28  1  0.39614512  0.01125626  0.72528916  1
  Hf  Hf29  1  -0.00981854  0.19348859  0.00648319  1
  Hf  Hf30  1  0.30603831  0.10068030  0.87395700  1
  Hf  Hf31  1  0.28553457  0.49705717  0.88282203  1
  Hf  Hf32  1  0.51889866  0.90682500  0.62397238  1
  Hf  Hf33  1  0.69331793  0.70449018  0.13358397  1
  Hf  Hf34  1  0.50367119  0.91383579  0.86776775  1
  Hf  Hf35  1  0.19209088  0.40002819  0.75215434  1
  Hf  Hf36  1  0.31151364  0.70908552  0.14091661  1
  Hf  Hf37  1  0.71325890  0.69579669  0.36467171  1
  Hf  Hf38  1  0.40259810  0.79955167  0.50590076  1
  Hf  Hf39  1  0.70938124  0.29579143  0.62226945  1
  Zr  Zr40  1  0.49670861  0.49825893  0.89267181  1
  Zr  Zr41  1  0.69988843  0.90683096  0.12323084  1
  Zr  Zr42  1  0.60768987  0.79469997  0.48829191  1
  Zr  Zr43  1  0.10892387  0.48140064  0.37089554  1
  Zr  Zr44  1  0.39931872  0.60272750  0.01721200  1
  Zr  Zr45  1  0.71579033  0.09638846  0.36710895  1
  Zr  Zr46  1  0.61036245  0.60273640  0.01208776  1
  Zr  Zr47  1  0.90480754  0.89923391  0.86094264  1
  Zr  Zr48  1  0.70732941  0.91535869  0.87410590  1
  Zr  Zr49  1  0.80807893  0.80285632  0.50925657  1
  Zr  Zr50  1  0.90694773  0.90558183  0.38295717  1
  Zr  Zr51  1  0.90577660  0.69884695  0.13061140  1
  Zr  Zr52  1  0.79196050  0.20709872  0.01141963  1
  Zr  Zr53  1  0.60744486  0.20939838  0.75506068  1
  Zr  Zr54  1  0.20245672  -0.00028588  -0.00234308  1
  Zr  Zr55  1  0.40527493  0.80683304  -0.00000686  1
  Zr  Zr56  1  0.49769348  0.08936118  0.13814666  1
  Zr  Zr57  1  0.10163085  0.70094398  0.13431281  1
  Zr  Zr58  1  -0.00080806  0.81036924  0.00159365  1
  Zr  Zr59  1  0.00298647  0.38004037  0.49358361  1
  Zr  Zr60  1  0.50380329  0.30133312  0.89210739  1
  Zr  Zr61  1  0.68156376  0.49262962  0.61942687  1
  Zr  Zr62  1  0.60614511  0.20498652  0.48046214  1
  Zr  Zr63  1  0.20646730  0.58726096  0.24998308  1
  Zr  Zr64  1  0.19925981  0.81331714  0.51140357  1
  Zr  Zr65  1  0.71402925  0.49413999  0.88653153  1
  Zr  Zr66  1  0.01312695  0.20881545  0.23487719  1
  Zr  Zr67  1  0.60173390  0.58675224  0.47780842  1
  Zr  Zr68  1  0.08998004  0.10487756  0.38083110  1
  Zr  Zr69  1  0.79426312  0.38618284  0.48533925  1
  Zr  Zr70  1  0.19972720  0.80369445  0.72775315  1
  Zr  Zr71  1  -0.00248703  0.00735237  0.52272729  1
  Zr  Zr72  1  0.20606921  0.59685198  0.49359960  1
  Zr  Zr73  1  0.51134212  0.68099955  0.62426943  1
  Zr  Zr74  1  0.29952351  0.90409290  0.86253669  1
  Zr  Zr75  1  0.89424019  0.48063444  0.62284600  1
  Zr  Zr76  1  0.49923796  0.88604837  0.13623717  1
  Zr  Zr77  1  0.50619030  0.32039703  0.61156535  1
  Zr  Zr78  1  0.19699443  0.19708094  0.74823402  1
  Zr  Zr79  1  0.39558708  0.00153239  0.50598254  1
  Ta  Ta80  1  0.08958351  0.48004439  0.13454441  1
  Ta  Ta81  1  0.90255865  0.10981800  0.37062295  1
  Ta  Ta82  1  0.60293677  0.59721584  0.24957985  1
  Ta  Ta83  1  0.20055437  0.82344302  0.25555999  1
  Ta  Ta84  1  0.61274069  0.80462793  0.74901633  1
  Ta  Ta85  1  0.30075905  0.10143868  0.12908363  1
  Ta  Ta86  1  0.79624292  0.40280958  0.02674592  1
  Ta  Ta87  1  0.09870654  0.90392566  0.86240108  1
  Ta  Ta88  1  0.38543761  -0.00461338  0.26255543  1
  Ta  Ta89  1  0.09498925  0.09145995  0.87558287  1
  Ta  Ta90  1  0.00273264  0.79585446  0.52265091  1
  Ta  Ta91  1  0.27841992  0.29168231  0.11586026  1
  Ta  Ta92  1  0.89907422  0.49569695  0.35847428  1
  Ta  Ta93  1  0.80695559  0.59328081  0.74376166  1
  Ta  Ta94  1  0.60307132  0.39754112  0.23705118  1
  Ta  Ta95  1  0.48369507  0.29707559  0.13490255  1
  Ta  Ta96  1  0.00331508  0.59242612  0.73501644  1
  Ta  Ta97  1  0.59919710  0.40202329  0.75718600  1
  Ta  Ta98  1  0.00572823  0.81114284  0.25241172  1
  Ta  Ta99  1  0.00211220  0.00069444  0.24563828  1
  Ta  Ta100  1  0.00361906  0.00385657  0.73225594  1
  Ta  Ta101  1  0.11070478  0.10746401  0.11720778  1
  Ta  Ta102  1  0.39930019  0.19364196  0.01128476  1
  Ta  Ta103  1  0.69472257  0.09988339  0.62271433  1
  Ta  Ta104  1  0.29774543  0.91125697  0.13153285  1
  Ta  Ta105  1  0.09653038  0.91031970  0.12596593  1
  Ta  Ta106  1  0.80151728  0.79272248  0.74007506  1
  Ta  Ta107  1  0.48633433  0.89065885  0.37054612  1
  Ta  Ta108  1  0.60353950  0.39380055  0.03064294  1
  Ta  Ta109  1  0.60051792  0.01477661  0.74640448  1
  Ta  Ta110  1  0.49749976  0.48892748  0.34902016  1
  Ta  Ta111  1  0.37778407  0.20563680  0.26060331  1
  Ta  Ta112  1  -0.01207849  0.42022641  -0.00344930  1
  Ta  Ta113  1  0.09556301  0.71261856  0.37184415  1
  Ta  Ta114  1  0.82453299  0.00471597  0.01143460  1
  Ta  Ta115  1  0.59644097  0.20166606  0.01324584  1
  Ta  Ta116  1  0.49296994  0.50190902  0.13994082  1
  Ta  Ta117  1  0.60315473  -0.01272167  0.26821262  1
  Ta  Ta118  1  0.30599169  0.69079473  0.62071288  1
  Ta  Ta119  1  0.90234492  0.28226533  0.63557683  1
  Ti  Ti120  1  0.81417218  0.00295005  0.24528581  1
  Ti  Ti121  1  0.59179017  0.79436328  0.26559907  1
  Ti  Ti122  1  0.49042437  0.09593932  0.36705446  1
  Ti  Ti123  1  0.17418346  0.21409256  0.50167064  1
  Ti  Ti124  1  0.90832140  0.29796674  0.35758788  1
  Ti  Ti125  1  0.00296537  0.59810937  0.25687736  1
  Ti  Ti126  1  0.40272786  0.59246581  0.74574270  1
  Ti  Ti127  1  0.80422996  0.58968054  0.24124608  1
  Ti  Ti128  1  0.70494901  0.69953823  0.62622383  1
  Ti  Ti129  1  0.90418874  0.31186824  0.13476710  1
  Ti  Ti130  1  0.37956925  0.39832645  0.24934538  1
  Ti  Ti131  1  0.80113673  0.00207838  0.50561582  1
  Ti  Ti132  1  0.87773864  0.30623811  0.88245549  1
  Ti  Ti133  1  0.28112395  0.10617828  0.60630314  1
  Ti  Ti134  1  0.82000879  0.58579228  0.01538662  1
  Ti  Ti135  1  0.10911979  0.48886748  0.61331824  1
  Ti  Ti136  1  0.70673070  0.70383243  0.87161395  1
  Ti  Ti137  1  0.59957358  0.80564998  -0.00280814  1
  Ti  Ti138  1  0.70788915  0.48837724  0.35647804  1
  Ti  Ti139  1  0.38820706  0.40478292  0.02285293  1
  Ti  Ti140  1  0.39155136  0.40342491  0.47378308  1
  Ti  Ti141  1  0.69924927  0.11416433  0.87730262  1
  Ti  Ti142  1  0.50359545  0.10482220  0.88111176  1
  Ti  Ti143  1  0.79020441  0.38989523  0.75772609  1
  Ti  Ti144  1  0.71311280  0.90830511  0.63476794  1
  Ti  Ti145  1  0.81320523  0.19435253  0.49823809  1
  Ti  Ti146  1  0.10803343  0.90732665  0.38401952  1
  Ti  Ti147  1  0.88415212  0.10138204  0.64132141  1
  Ti  Ti148  1  0.19309231  0.01093047  0.24940652  1
  Ti  Ti149  1  0.71718334  0.29854218  0.34890002  1
  Ti  Ti150  1  -0.00245912  0.20221180  0.75936208  1
  Ti  Ti151  1  0.40683509  0.60539536  0.25492919  1
  Ti  Ti152  1  0.40979597  0.00180483  0.00383220  1
  Ti  Ti153  1  0.08969244  0.29659264  0.62860809  1
  Ti  Ti154  1  0.19072205  0.00483794  0.72917506  1
  Ti  Ti155  1  0.19079179  0.36984732  0.24515002  1
  Ti  Ti156  1  0.58906999  0.39297900  0.46744405  1
  Ti  Ti157  1  0.31473151  0.49775602  0.61599598  1
  Ti  Ti158  1  0.60635248  0.00965182  -0.00090819  1
  Ti  Ti159  1  0.91029989  0.69900507  0.37030555  1
  Mo  Mo160  1  0.50395162  0.69780034  0.14361367  1
  Mo  Mo161  1  0.10149339  0.68625613  0.61791959  1
  Mo  Mo162  1  0.50204996  0.69611624  0.36224028  1
  Mo  Mo163  1  -0.00040679  0.59521177  0.00323456  1
  Mo  Mo164  1  0.08678584  0.12051495  0.62855977  1
  Mo  Mo165  1  0.90511499  0.50055475  0.14120073  1
  Mo  Mo166  1  0.79143104  0.00589214  0.74340898  1
  Mo  Mo167  1  0.51116157  0.11125919  0.61657223  1
  Mo  Mo168  1  0.00387371  0.40260814  0.25308710  1
  Mo  Mo169  1  0.29812443  0.48673367  0.13778165  1
  Mo  Mo170  1  0.28943706  0.90956775  0.37504342  1
  Mo  Mo171  1  0.20604906  0.39898460  0.50007962  1
  Mo  Mo172  1  0.10086521  0.90860369  0.62447099  1
  Mo  Mo173  1  0.27955205  0.30753854  0.37986026  1
  Mo  Mo174  1  0.39610544  0.80589071  0.25524406  1
  Mo  Mo175  1  0.30395315  0.90559392  0.62843281  1
  Mo  Mo176  1  0.69592071  0.29682317  0.14072083  1
  Mo  Mo177  1  0.70223588  0.90009152  0.37104406  1
  Mo  Mo178  1  0.69861728  0.30398129  0.88723150  1
  Mo  Mo179  1  0.70411670  0.50165223  0.13250956  1
  Mo  Mo180  1  0.49085933  0.49395266  0.61922762  1
  Mo  Mo181  1  -0.01747916  0.20268710  0.50306343  1
  Mo  Mo182  1  0.10113494  0.28818154  0.37435412  1
  Mo  Mo183  1  0.81079649  0.19938769  0.24325538  1
  Mo  Mo184  1  0.19937490  0.19311768  -0.00429177  1
  Mo  Mo185  1  0.90889532  0.09257691  0.13059704  1
  Mo  Mo186  1  0.48942744  0.30396952  0.35455861  1
  Mo  Mo187  1  0.20384802  0.19542385  0.24639292  1
  Mo  Mo188  1  0.08492387  0.50971316  0.87872191  1
  Mo  Mo189  1  0.30528205  0.49379818  0.35997570  1
  Mo  Mo190  1  0.80161033  0.20654687  0.75622922  1
  Mo  Mo191  1  0.80537349  0.39730839  0.23820518  1
  Mo  Mo192  1  0.89180890  0.90420268  0.63454030  1
  Mo  Mo193  1  0.90651279  0.90582254  0.12836066  1
  Mo  Mo194  1  0.19322326  0.39965062  0.00883107  1
  Mo  Mo195  1  0.89498339  0.68890794  0.62752012  1
  Mo  Mo196  1  0.19303664  0.00659192  0.51596946  1
  Mo  Mo197  1  0.89550241  0.49593441  0.87434557  1
  Mo  Mo198  1  0.09577010  0.30221216  0.10514052  1
  Mo  Mo199  1  0.00478190  0.00102233  -0.00321731  1
