# generated using pymatgen
data_HfZrTaTiMo
_symmetry_space_group_name_H-M   'P 1'
_cell_length_a   15.21071627
_cell_length_b   15.20058206
_cell_length_c   16.85068265
_cell_angle_alpha   90.01531524
_cell_angle_beta   89.97902393
_cell_angle_gamma   90.06629800
_symmetry_Int_Tables_number   1
_chemical_formula_structural   HfZrTaTiMo
_chemical_formula_sum   'Hf40 Zr40 Ta40 Ti40 Mo40'
_cell_volume   3896.07266192
_cell_formula_units_Z   40
loop_
 _symmetry_equiv_pos_site_id
 _symmetry_equiv_pos_as_xyz
  1  'x, y, z'
loop_
 _atom_site_type_symbol
 _atom_site_label
 _atom_site_symmetry_multiplicity
 _atom_site_fract_x
 _atom_site_fract_y
 _atom_site_fract_z
 _atom_site_occupancy
  Hf  Hf0  1  0.30077244  0.12848552  0.36069425  1
  Hf  Hf1  1  0.09771296  0.70596819  0.39015300  1
  Hf  Hf2  1  0.30518809  0.08717447  0.13649160  1
  Hf  Hf3  1  0.10776489  0.09693305  0.13250537  1
  Hf  Hf4  1  0.00153902  0.59298511  -0.01038123  1
  Hf  Hf5  1  0.09971902  0.69956804  0.12214812  1
  Hf  Hf6  1  0.50840894  0.49211109  0.63674468  1
  Hf  Hf7  1  0.31550210  0.90583042  0.85753047  1
  Hf  Hf8  1  0.49996374  0.08980081  0.62806221  1
  Hf  Hf9  1  0.79274740  0.19214889  0.49173032  1
  Hf  Hf10  1  0.12472992  0.89474874  0.12563866  1
  Hf  Hf11  1  -0.00603778  0.19700721  0.00833125  1
  Hf  Hf12  1  0.40585919  0.59221045  0.25079847  1
  Hf  Hf13  1  0.89261307  0.91277252  0.86527911  1
  Hf  Hf14  1  0.89741024  0.70548884  0.10877559  1
  Hf  Hf15  1  -0.01905482  0.38127074  0.75146333  1
  Hf  Hf16  1  0.18976480  0.38140582  0.50300490  1
  Hf  Hf17  1  0.89421679  0.90568210  0.62416982  1
  Hf  Hf18  1  0.59588752  0.58800885  0.50254675  1
  Hf  Hf19  1  0.68497592  0.28879837  0.36355758  1
  Hf  Hf20  1  0.79853164  0.00653678  0.00307708  1
  Hf  Hf21  1  0.79967193  0.60153384  0.25640398  1
  Hf  Hf22  1  0.69442456  0.89033894  0.87434289  1
  Hf  Hf23  1  0.59678428  0.79196786  0.25802695  1
  Hf  Hf24  1  0.78079454  0.79758868  0.73918391  1
  Hf  Hf25  1  0.00970354  0.20149416  0.49917060  1
  Hf  Hf26  1  0.20471539  0.59918337  -0.00316131  1
  Hf  Hf27  1  0.40746990  0.61594461  0.75298581  1
  Hf  Hf28  1  0.60600105  0.19797336  0.75499862  1
  Hf  Hf29  1  0.89419434  0.49417406  0.61934528  1
  Hf  Hf30  1  0.88154772  0.49160623  0.88023836  1
  Hf  Hf31  1  0.90207634  0.29908564  0.37383475  1
  Hf  Hf32  1  0.30661413  0.70872425  0.39829649  1
  Hf  Hf33  1  0.00898290  0.00208665  -0.00768794  1
  Hf  Hf34  1  0.41010490  0.00281149  0.26496554  1
  Hf  Hf35  1  -0.00696463  0.40532944  0.24399626  1
  Hf  Hf36  1  -0.01833269  0.18699544  0.24427591  1
  Hf  Hf37  1  0.70837656  0.70102048  0.38618066  1
  Hf  Hf38  1  0.28440915  0.49848720  0.64965411  1
  Hf  Hf39  1  0.78971973  0.40377624  0.25295165  1
  Zr  Zr40  1  0.82133232  0.79990298  0.25395235  1
  Zr  Zr41  1  -0.00252444  0.59887635  0.74583640  1
  Zr  Zr42  1  0.52894449  0.49537942  0.86512291  1
  Zr  Zr43  1  0.60262310  0.79545623  0.00497557  1
  Zr  Zr44  1  0.09298163  0.49836195  0.37639140  1
  Zr  Zr45  1  0.49930108  0.30601484  0.11922922  1
  Zr  Zr46  1  0.39632799  0.40708051  -0.01232624  1
  Zr  Zr47  1  0.91451679  0.89263916  0.39255831  1
  Zr  Zr48  1  0.20082812  0.40471176  0.24095007  1
  Zr  Zr49  1  0.86482705  0.70283202  0.88755551  1
  Zr  Zr50  1  0.39985572  0.18560169  -0.00207920  1
  Zr  Zr51  1  0.39655079  0.40735895  0.50840229  1
  Zr  Zr52  1  0.50098595  0.68460143  0.12374454  1
  Zr  Zr53  1  0.79251664  0.20436398  -0.00487691  1
  Zr  Zr54  1  0.40302881  0.38940857  0.76253348  1
  Zr  Zr55  1  0.41296392  0.60732168  -0.01461434  1
  Zr  Zr56  1  0.28937675  0.28950587  0.63874942  1
  Zr  Zr57  1  0.49614382  0.90563148  0.13003631  1
  Zr  Zr58  1  0.10157019  0.48919661  0.86304499  1
  Zr  Zr59  1  0.47420668  0.29229529  0.36774432  1
  Zr  Zr60  1  0.00941648  0.01661421  0.74791442  1
  Zr  Zr61  1  0.28772390  0.29146029  0.11624337  1
  Zr  Zr62  1  0.39312841  0.79627790  0.25726130  1
  Zr  Zr63  1  0.30079936  0.09472370  0.87059649  1
  Zr  Zr64  1  0.88709805  0.50390657  0.11598593  1
  Zr  Zr65  1  0.70483007  0.90884337  0.14071369  1
  Zr  Zr66  1  -0.00162787  0.79614733  0.75146026  1
  Zr  Zr67  1  0.01284116  0.80262375  -0.01965296  1
  Zr  Zr68  1  0.39876914  0.18826985  0.75733276  1
  Zr  Zr69  1  0.10796803  0.90950950  0.62393722  1
  Zr  Zr70  1  0.91193367  0.90416974  0.12019636  1
  Zr  Zr71  1  0.69626595  0.29963500  0.62177500  1
  Zr  Zr72  1  0.30845801  0.49813743  0.37955145  1
  Zr  Zr73  1  0.62027192  0.61068575  0.73901454  1
  Zr  Zr74  1  0.20040023  0.59045367  0.51531148  1
  Zr  Zr75  1  0.10184917  0.09286402  0.36525252  1
  Zr  Zr76  1  0.70886309  0.91108365  0.36614002  1
  Zr  Zr77  1  0.20087414  0.61343500  0.24880909  1
  Zr  Zr78  1  0.30204535  0.71131099  0.87122525  1
  Zr  Zr79  1  0.31882077  0.91000175  0.62015207  1
  Ta  Ta80  1  0.67547900  0.49709764  0.12750161  1
  Ta  Ta81  1  0.69467280  0.90723877  0.61576605  1
  Ta  Ta82  1  0.00250585  0.00990062  0.50826475  1
  Ta  Ta83  1  0.30686642  0.50727151  0.11799008  1
  Ta  Ta84  1  0.70501669  0.69379403  0.12592396  1
  Ta  Ta85  1  0.00426949  -0.01614929  0.25386522  1
  Ta  Ta86  1  0.40986439  0.02002153  0.48552816  1
  Ta  Ta87  1  0.49938023  0.89701936  0.38591328  1
  Ta  Ta88  1  0.11204163  0.29004843  0.36246138  1
  Ta  Ta89  1  0.27396765  0.29711670  0.87793132  1
  Ta  Ta90  1  0.50488362  0.28765531  0.88524133  1
  Ta  Ta91  1  0.80283832  0.00714504  0.49889132  1
  Ta  Ta92  1  0.29634701  0.91296107  0.39112086  1
  Ta  Ta93  1  0.88396927  0.29366103  0.12828233  1
  Ta  Ta94  1  0.59912356  0.59135876  0.26132074  1
  Ta  Ta95  1  0.90102220  0.70529188  0.60542720  1
  Ta  Ta96  1  0.21005006  0.79407739  0.73484865  1
  Ta  Ta97  1  0.51203548  0.07962681  0.87333684  1
  Ta  Ta98  1  0.49906799  0.29188644  0.62270914  1
  Ta  Ta99  1  0.69541193  0.31893591  0.87397428  1
  Ta  Ta100  1  0.60894959  0.00989537  0.48838061  1
  Ta  Ta101  1  -0.01181989  0.38953453  0.00213122  1
  Ta  Ta102  1  0.81033523  0.21252293  0.75790749  1
  Ta  Ta103  1  0.89684737  0.50588582  0.38506988  1
  Ta  Ta104  1  0.29550265  0.71850186  0.11470924  1
  Ta  Ta105  1  0.60341285  0.80419865  0.49523090  1
  Ta  Ta106  1  0.18558269  0.39552671  -0.00027730  1
  Ta  Ta107  1  0.10895766  0.89950732  0.39085302  1
  Ta  Ta108  1  0.69092486  0.29601190  0.13686898  1
  Ta  Ta109  1  0.77795823  0.41136095  0.74586623  1
  Ta  Ta110  1  0.28906365  0.50071294  0.85742884  1
  Ta  Ta111  1  0.89951298  0.10912487  0.63205727  1
  Ta  Ta112  1  0.79257850  0.40030078  0.49226468  1
  Ta  Ta113  1  0.90746154  0.69573871  0.40096114  1
  Ta  Ta114  1  0.58500411  0.19156930  0.49614244  1
  Ta  Ta115  1  -0.00773744  0.60778828  0.25339269  1
  Ta  Ta116  1  0.59656301  0.39088516  0.49311939  1
  Ta  Ta117  1  0.10844777  0.10283725  0.88082065  1
  Ta  Ta118  1  0.21489563  -0.00855053  -0.00168829  1
  Ta  Ta119  1  0.12295884  0.90322327  0.86127858  1
  Ti  Ti120  1  0.60386227  -0.01646110  0.74564010  1
  Ti  Ti121  1  0.00535347  0.59253038  0.51338510  1
  Ti  Ti122  1  0.50751948  0.89955073  0.60786878  1
  Ti  Ti123  1  0.20160510  0.80552928  0.51376765  1
  Ti  Ti124  1  0.69315631  0.49663681  0.37791831  1
  Ti  Ti125  1  0.10474305  0.69347759  0.62722693  1
  Ti  Ti126  1  0.29248429  0.09603024  0.63296135  1
  Ti  Ti127  1  -0.00251947  0.39938978  0.50284251  1
  Ti  Ti128  1  0.08344692  0.28918498  0.87660243  1
  Ti  Ti129  1  0.80365170  0.60337977  0.73858083  1
  Ti  Ti130  1  0.50031370  0.70818141  0.60993027  1
  Ti  Ti131  1  0.39411634  0.39832718  0.24296581  1
  Ti  Ti132  1  0.17761778  0.19117062  0.75082099  1
  Ti  Ti133  1  0.09257954  0.29861515  0.12530194  1
  Ti  Ti134  1  0.51813775  0.10480892  0.13769878  1
  Ti  Ti135  1  0.77850503  0.40443039  0.00514318  1
  Ti  Ti136  1  0.20498110  0.81427055  0.26070043  1
  Ti  Ti137  1  0.70337784  0.70649598  0.60658207  1
  Ti  Ti138  1  0.01244598  0.79310724  0.25607912  1
  Ti  Ti139  1  0.50456089  0.89232098  0.87246365  1
  Ti  Ti140  1  0.38448434  0.20316960  0.50469594  1
  Ti  Ti141  1  0.20378951  0.02481062  0.50184231  1
  Ti  Ti142  1  0.41193200  -0.00512426  0.00346315  1
  Ti  Ti143  1  0.09742827  0.49972031  0.12067420  1
  Ti  Ti144  1  0.09188965  0.29707347  0.63401073  1
  Ti  Ti145  1  0.79745200  0.59311934  0.50345724  1
  Ti  Ti146  1  0.60325938  0.00698954  0.00331292  1
  Ti  Ti147  1  0.90498124  0.11328195  0.86478936  1
  Ti  Ti148  1  0.89300598  0.29599291  0.61789819  1
  Ti  Ti149  1  0.70639932  0.09333442  0.86513487  1
  Ti  Ti150  1  0.60574320  0.19613639  -0.00237693  1
  Ti  Ti151  1  0.70639063  0.09584524  0.63159667  1
  Ti  Ti152  1  0.49703502  0.68832088  0.39063166  1
  Ti  Ti153  1  0.71158479  0.10657314  0.15179543  1
  Ti  Ti154  1  0.31246045  0.70324893  0.61662769  1
  Ti  Ti155  1  0.39375778  0.80958175  -0.00034322  1
  Ti  Ti156  1  0.61194389  0.58863856  -0.00488723  1
  Ti  Ti157  1  0.11235509  0.69910461  0.86362643  1
  Ti  Ti158  1  0.42348993  0.80619278  0.74179219  1
  Ti  Ti159  1  0.58113253  0.40694666  0.25656736  1
  Mo  Mo160  1  0.18500122  0.38659368  0.75697229  1
  Mo  Mo161  1  0.79054557  0.01476662  0.74790580  1
  Mo  Mo162  1  0.79804662  0.80328677  0.50809199  1
  Mo  Mo163  1  0.40391413  0.60386037  0.51678032  1
  Mo  Mo164  1  0.20628046  0.80573275  -0.00964072  1
  Mo  Mo165  1  0.18800253  0.19636991  -0.00349701  1
  Mo  Mo166  1  0.82506207  0.01910183  0.25568740  1
  Mo  Mo167  1  0.68427485  0.69452585  0.87322017  1
  Mo  Mo168  1  0.40085443  0.20743470  0.23762066  1
  Mo  Mo169  1  0.19392476  0.20226343  0.24184884  1
  Mo  Mo170  1  0.70842550  0.50944539  0.87503834  1
  Mo  Mo171  1  0.59348197  0.80260635  0.73315301  1
  Mo  Mo172  1  0.50847373  0.10399648  0.37140912  1
  Mo  Mo173  1  0.28813900  0.30529217  0.36861245  1
  Mo  Mo174  1  0.20390513  -0.01165978  0.26049846  1
  Mo  Mo175  1  0.50424851  0.49809289  0.37786975  1
  Mo  Mo176  1  -0.00287209  0.20333521  0.74968728  1
  Mo  Mo177  1  0.09156565  0.48706092  0.63220337  1
  Mo  Mo178  1  0.79733836  0.20474693  0.25329428  1
  Mo  Mo179  1  0.60509904  0.00558493  0.26371776  1
  Mo  Mo180  1  0.00977823  0.79824598  0.51362464  1
  Mo  Mo181  1  0.10634269  0.11082462  0.62169898  1
  Mo  Mo182  1  0.42069602  -0.00699684  0.74561758  1
  Mo  Mo183  1  0.40623979  0.80730512  0.49758208  1
  Mo  Mo184  1  0.70106821  0.10151999  0.36216899  1
  Mo  Mo185  1  0.88970579  0.30120342  0.88140601  1
  Mo  Mo186  1  0.89792301  0.09109397  0.37915871  1
  Mo  Mo187  1  0.70282301  0.49687279  0.61254214  1
  Mo  Mo188  1  0.89602088  0.09624631  0.12774287  1
  Mo  Mo189  1  0.19741484  0.60830423  0.74081704  1
  Mo  Mo190  1  0.20051973  0.19775188  0.50406128  1
  Mo  Mo191  1  0.60612144  0.38980463  0.00153800  1
  Mo  Mo192  1  0.30462540  0.89904305  0.12475184  1
  Mo  Mo193  1  0.78426296  0.60010712  0.00641884  1
  Mo  Mo194  1  0.51380605  0.71572961  0.86963109  1
  Mo  Mo195  1  0.59101695  0.19877342  0.24627641  1
  Mo  Mo196  1  0.20791328  0.00352170  0.74593424  1
  Mo  Mo197  1  0.49820358  0.49646128  0.12378044  1
  Mo  Mo198  1  0.60109136  0.39026619  0.74764457  1
  Mo  Mo199  1  0.79045261  0.80326321  0.00305079  1
