# generated using pymatgen
data_HfZrTaTiMo
_symmetry_space_group_name_H-M   'P 1'
_cell_length_a   15.21469114
_cell_length_b   15.20782155
_cell_length_c   16.82613407
_cell_angle_alpha   90.07767099
_cell_angle_beta   89.99954679
_cell_angle_gamma   90.10768921
_symmetry_Int_Tables_number   1
_chemical_formula_structural   HfZrTaTiMo
_chemical_formula_sum   'Hf40 Zr40 Ta40 Ti40 Mo40'
_cell_volume   3893.25927797
_cell_formula_units_Z   40
loop_
 _symmetry_equiv_pos_site_id
 _symmetry_equiv_pos_as_xyz
  1  'x, y, z'
loop_
 _atom_site_type_symbol
 _atom_site_label
 _atom_site_symmetry_multiplicity
 _atom_site_fract_x
 _atom_site_fract_y
 _atom_site_fract_z
 _atom_site_occupancy
  Hf  Hf0  1  0.68249680  0.68920536  0.87566744  1
  Hf  Hf1  1  0.60007958  0.60790327  0.49627750  1
  Hf  Hf2  1  0.88897944  0.89710124  0.38091968  1
  Hf  Hf3  1  0.50378346  0.10625589  0.62777267  1
  Hf  Hf4  1  0.20765724  0.21976683  0.49558063  1
  Hf  Hf5  1  0.10557835  0.30170447  0.11889644  1
  Hf  Hf6  1  0.00685426  -0.00537849  0.24869607  1
  Hf  Hf7  1  0.59980449  0.00983843  0.24788699  1
  Hf  Hf8  1  0.71541543  0.30448242  0.63060652  1
  Hf  Hf9  1  0.70630222  0.10008179  0.87488955  1
  Hf  Hf10  1  0.61314873  0.21527889  0.49988505  1
  Hf  Hf11  1  0.69217249  0.50368363  0.62444084  1
  Hf  Hf12  1  0.90663478  0.09968536  0.37056869  1
  Hf  Hf13  1  0.09903010  0.49415589  0.62589216  1
  Hf  Hf14  1  0.31821757  0.70261249  0.86216681  1
  Hf  Hf15  1  0.19331012  0.40369348  0.76517803  1
  Hf  Hf16  1  0.19325922  0.78925654  0.25924751  1
  Hf  Hf17  1  0.30772597  0.70915531  0.63906460  1
  Hf  Hf18  1  0.39065045  0.39950147  0.49960287  1
  Hf  Hf19  1  0.79533401  -0.01121787  0.24670709  1
  Hf  Hf20  1  -0.00468185  0.39078136  0.48721581  1
  Hf  Hf21  1  0.59417195  0.58913015  0.23397928  1
  Hf  Hf22  1  0.20347908  0.79121311  0.49724871  1
  Hf  Hf23  1  0.21226509  0.00140707  0.50163145  1
  Hf  Hf24  1  0.50429495  0.52666225  0.89088829  1
  Hf  Hf25  1  0.01435272  0.40421740  0.25089275  1
  Hf  Hf26  1  0.60658870  0.20672664  0.75334290  1
  Hf  Hf27  1  0.42454738  0.40338022  0.23025141  1
  Hf  Hf28  1  0.10586326  0.69811872  0.86708222  1
  Hf  Hf29  1  0.79664570  0.59543126  0.48544693  1
  Hf  Hf30  1  -0.00270777  0.61174154  0.26087406  1
  Hf  Hf31  1  0.81658723  0.20714996  0.50112236  1
  Hf  Hf32  1  0.88175098  0.48852963  0.35750735  1
  Hf  Hf33  1  0.10544908  0.10811588  0.38025505  1
  Hf  Hf34  1  0.22024755  0.39578586  0.24460575  1
  Hf  Hf35  1  0.77391479  0.79168869  0.49101771  1
  Hf  Hf36  1  0.30269390  0.89417129  0.12451650  1
  Hf  Hf37  1  0.89287524  0.70956473  0.86351079  1
  Hf  Hf38  1  0.29648143  0.30612113  0.63713474  1
  Hf  Hf39  1  0.09972671  0.88863108  0.11828830  1
  Zr  Zr40  1  0.69234242  0.88872538  0.12690987  1
  Zr  Zr41  1  0.40317520  0.19994845  0.49046493  1
  Zr  Zr42  1  0.60506300  0.00116037  0.00261295  1
  Zr  Zr43  1  0.21357773  0.00096083  0.26229832  1
  Zr  Zr44  1  0.49802544  0.88981669  0.86970084  1
  Zr  Zr45  1  0.88914692  0.28607023  0.88351424  1
  Zr  Zr46  1  0.40268648  0.41677229  0.75811274  1
  Zr  Zr47  1  0.00000220  0.59489042  0.48421545  1
  Zr  Zr48  1  0.60202533  0.40813191  0.75945362  1
  Zr  Zr49  1  0.31310854  0.28240715  0.10669578  1
  Zr  Zr50  1  0.89511183  0.50387467  0.87767243  1
  Zr  Zr51  1  0.88958784  0.68405791  0.63616919  1
  Zr  Zr52  1  0.50038729  0.12890255  0.11519411  1
  Zr  Zr53  1  0.90431276  0.09724348  0.12868531  1
  Zr  Zr54  1  0.60320191  -0.01071428  0.50343162  1
  Zr  Zr55  1  0.11939044  0.09770764  0.12263162  1
  Zr  Zr56  1  0.49009592  0.72127976  0.14250720  1
  Zr  Zr57  1  0.20191674  0.19513710  -0.01930138  1
  Zr  Zr58  1  0.39518886  0.60645002  0.49592216  1
  Zr  Zr59  1  0.89380736  0.47598250  0.62917174  1
  Zr  Zr60  1  0.00472611  0.39802656  -0.00332560  1
  Zr  Zr61  1  0.79606158  -0.01083000  0.74493021  1
  Zr  Zr62  1  0.30969344  0.09641952  0.63662402  1
  Zr  Zr63  1  0.39660492  0.20805775  0.26366431  1
  Zr  Zr64  1  0.70828308  0.10509960  0.37501897  1
  Zr  Zr65  1  -0.00332914  0.00450693  0.74565496  1
  Zr  Zr66  1  0.38498252  0.60033709  0.24736622  1
  Zr  Zr67  1  0.89099454  0.89227161  0.62005854  1
  Zr  Zr68  1  0.08636777  0.89560653  0.88035152  1
  Zr  Zr69  1  -0.00652495  0.78733158  0.50073890  1
  Zr  Zr70  1  0.90476676  0.49914674  0.13160610  1
  Zr  Zr71  1  0.79177061  0.59913119  0.01937331  1
  Zr  Zr72  1  0.29787106  0.89718760  0.86737674  1
  Zr  Zr73  1  0.40437823  0.00414418  0.25698356  1
  Zr  Zr74  1  0.40457936  0.80421748  0.48833733  1
  Zr  Zr75  1  0.79624974  0.79279668  0.00777431  1
  Zr  Zr76  1  0.19734379  -0.00171821  0.74909479  1
  Zr  Zr77  1  0.09632832  0.89715326  0.38411770  1
  Zr  Zr78  1  0.38811608  0.01235413  0.00231810  1
  Zr  Zr79  1  0.61260047  0.79763780  0.73196361  1
  Ta  Ta80  1  0.50078004  0.10383534  0.87217651  1
  Ta  Ta81  1  0.50637279  0.31243449  0.62268971  1
  Ta  Ta82  1  0.19725319  0.60696765  -0.00044547  1
  Ta  Ta83  1  0.90348759  0.88629035  0.12876298  1
  Ta  Ta84  1  0.58497419  0.78224763  0.00185671  1
  Ta  Ta85  1  -0.00048545  0.80054542  0.74453887  1
  Ta  Ta86  1  0.30321931  0.30793396  0.88149807  1
  Ta  Ta87  1  0.00022869  0.00689403  0.51070638  1
  Ta  Ta88  1  0.40625503  0.40891422  0.00206219  1
  Ta  Ta89  1  0.60209737  0.21960308  0.25044577  1
  Ta  Ta90  1  0.29682989  0.50305109  0.10768037  1
  Ta  Ta91  1  0.40277702  -0.00388517  0.48300637  1
  Ta  Ta92  1  0.00501934  0.58800258  0.75448905  1
  Ta  Ta93  1  0.10857735  0.89425191  0.62387732  1
  Ta  Ta94  1  0.68059859  0.48322849  0.36461260  1
  Ta  Ta95  1  0.19511681  0.59297534  0.49497034  1
  Ta  Ta96  1  0.50461195  0.30334399  0.89331515  1
  Ta  Ta97  1  -0.00465960  0.19245356  -0.00106800  1
  Ta  Ta98  1  0.69943484  0.49598772  0.88584267  1
  Ta  Ta99  1  0.47882172  0.90119004  0.63306310  1
  Ta  Ta100  1  0.49434764  0.50177037  0.37443471  1
  Ta  Ta101  1  0.80749548  -0.00630808  0.00411089  1
  Ta  Ta102  1  0.10272098  0.69413102  0.63676206  1
  Ta  Ta103  1  0.52084410  0.31904379  0.37781018  1
  Ta  Ta104  1  0.50865825  0.10640240  0.37737762  1
  Ta  Ta105  1  0.30061303  0.50952735  0.89226119  1
  Ta  Ta106  1  0.18822517  0.58824388  0.25325042  1
  Ta  Ta107  1  0.40399913  0.62720410  0.01028741  1
  Ta  Ta108  1  0.89370890  0.29385074  0.35301757  1
  Ta  Ta109  1  0.00019309  0.38838269  0.76268977  1
  Ta  Ta110  1  0.79995154  0.00062454  0.50726223  1
  Ta  Ta111  1  0.89716690  0.29660206  0.13300577  1
  Ta  Ta112  1  0.90555724  0.11228917  0.62411677  1
  Ta  Ta113  1  0.59710475  -0.00088907  0.74604317  1
  Ta  Ta114  1  0.69014289  0.29493697  0.11334058  1
  Ta  Ta115  1  0.01061805  0.20420092  0.24959438  1
  Ta  Ta116  1  0.70903121  0.89112666  0.87714379  1
  Ta  Ta117  1  0.19140034  0.20577838  0.76214090  1
  Ta  Ta118  1  0.10215259  0.11040459  0.62183783  1
  Ta  Ta119  1  0.09089367  0.29913140  0.62852636  1
  Ti  Ti120  1  0.09147347  0.69605748  0.12257347  1
  Ti  Ti121  1  0.30811872  0.10178571  0.86056375  1
  Ti  Ti122  1  -0.00310439  0.60895659  0.00207277  1
  Ti  Ti123  1  0.89968970  0.08634962  0.88033310  1
  Ti  Ti124  1  0.10844559  0.50505758  0.11401484  1
  Ti  Ti125  1  -0.00656974  0.79561443  0.25694117  1
  Ti  Ti126  1  0.81154024  0.19747397  0.74789685  1
  Ti  Ti127  1  0.79034070  0.59935381  0.24065305  1
  Ti  Ti128  1  0.80125943  0.78389488  0.25618842  1
  Ti  Ti129  1  0.20757239  0.59602729  0.75389130  1
  Ti  Ti130  1  0.39854893  0.81235742  0.27429822  1
  Ti  Ti131  1  -0.00775628  0.79542269  0.00046242  1
  Ti  Ti132  1  0.59186049  0.79838193  0.50886579  1
  Ti  Ti133  1  -0.00520135  -0.00479333  0.00184465  1
  Ti  Ti134  1  0.49525650  0.90591467  0.12069958  1
  Ti  Ti135  1  0.79692167  0.39500282  0.01048306  1
  Ti  Ti136  1  0.28531725  0.69929294  0.12877798  1
  Ti  Ti137  1  0.19596852  -0.00262793  -0.00691463  1
  Ti  Ti138  1  0.70670010  0.09719351  0.62729614  1
  Ti  Ti139  1  0.79482298  0.18741921  0.01323694  1
  Ti  Ti140  1  0.78393853  0.39348107  0.48895701  1
  Ti  Ti141  1  0.69815129  0.30025505  0.89149725  1
  Ti  Ti142  1  0.78272127  0.59878125  0.75119968  1
  Ti  Ti143  1  0.11355620  0.31115540  0.37214518  1
  Ti  Ti144  1  0.00136372  0.20199776  0.75546528  1
  Ti  Ti145  1  0.49068853  0.50656136  0.62052615  1
  Ti  Ti146  1  0.29415261  0.50578862  0.62506598  1
  Ti  Ti147  1  0.58108381  0.60525910  0.74054231  1
  Ti  Ti148  1  0.00479408  0.20486165  0.49739451  1
  Ti  Ti149  1  0.20792966  0.79381723  -0.00070213  1
  Ti  Ti150  1  0.60938493  0.80456299  0.26451274  1
  Ti  Ti151  1  0.79255575  0.19857947  0.23870439  1
  Ti  Ti152  1  0.20901227  0.19974945  0.25709191  1
  Ti  Ti153  1  0.80096789  0.39462392  0.76164254  1
  Ti  Ti154  1  0.09142209  0.10090402  0.87715168  1
  Ti  Ti155  1  0.10264757  0.49997116  0.88459822  1
  Ti  Ti156  1  0.29341992  0.69108985  0.37140344  1
  Ti  Ti157  1  0.51079124  0.70132432  0.36575627  1
  Ti  Ti158  1  0.40537633  0.21061474  0.75907348  1
  Ti  Ti159  1  0.29159099  0.48874652  0.37753887  1
  Mo  Mo160  1  0.89361325  0.90149174  0.88177525  1
  Mo  Mo161  1  0.20436911  0.40811115  -0.00905771  1
  Mo  Mo162  1  0.30440752  0.10527900  0.38238080  1
  Mo  Mo163  1  0.60249017  0.39725555  0.23829188  1
  Mo  Mo164  1  0.90697990  0.70613717  0.13140161  1
  Mo  Mo165  1  0.10294553  0.69282312  0.37466926  1
  Mo  Mo166  1  0.19572043  0.40641093  0.50246055  1
  Mo  Mo167  1  0.10597309  0.49578563  0.37498893  1
  Mo  Mo168  1  0.29564303  0.09844467  0.12065100  1
  Mo  Mo169  1  0.69821754  0.48843484  0.12498272  1
  Mo  Mo170  1  0.69674343  0.68727470  0.35769561  1
  Mo  Mo171  1  0.50160371  0.69481138  0.62330888  1
  Mo  Mo172  1  0.69756172  0.69565099  0.62557509  1
  Mo  Mo173  1  0.30830755  0.31073273  0.36978380  1
  Mo  Mo174  1  0.49848975  0.50594322  0.10485083  1
  Mo  Mo175  1  0.90954844  0.29601267  0.63189021  1
  Mo  Mo176  1  0.30033679  0.90230767  0.63072905  1
  Mo  Mo177  1  0.40920031  0.00916755  0.75500246  1
  Mo  Mo178  1  0.39559057  0.80351092  0.00532788  1
  Mo  Mo179  1  0.50987110  0.30781993  0.10010767  1
  Mo  Mo180  1  0.59561265  0.40756362  0.50299759  1
  Mo  Mo181  1  0.60909980  0.40874674  -0.00356743  1
  Mo  Mo182  1  0.69309017  0.89360815  0.37218407  1
  Mo  Mo183  1  0.69812226  0.70002789  0.14312681  1
  Mo  Mo184  1  0.78790993  0.38976437  0.23590857  1
  Mo  Mo185  1  0.09587104  0.29549016  0.87482869  1
  Mo  Mo186  1  0.19235884  0.79784546  0.74307479  1
  Mo  Mo187  1  0.40214422  0.20202199  -0.02009801  1
  Mo  Mo188  1  0.69170551  0.90442931  0.62159899  1
  Mo  Mo189  1  0.30303344  0.89572599  0.37532886  1
  Mo  Mo190  1  0.71059528  0.30774173  0.36749555  1
  Mo  Mo191  1  0.40210209  0.59551005  0.74630871  1
  Mo  Mo192  1  0.80025261  0.79417868  0.75315169  1
  Mo  Mo193  1  0.60080564  0.60438730  0.02342607  1
  Mo  Mo194  1  0.51242680  0.89929377  0.37299081  1
  Mo  Mo195  1  0.50048500  0.70325004  0.87487765  1
  Mo  Mo196  1  0.70436345  0.10520143  0.12523714  1
  Mo  Mo197  1  0.60809916  0.20078018  -0.01000799  1
  Mo  Mo198  1  0.40699732  0.80159684  0.74202022  1
  Mo  Mo199  1  0.88942323  0.69743348  0.36661371  1
