# generated using pymatgen
data_HfZrTaTiMo
_symmetry_space_group_name_H-M   'P 1'
_cell_length_a   15.20553216
_cell_length_b   15.20851147
_cell_length_c   16.79784550
_cell_angle_alpha   90.02817718
_cell_angle_beta   89.97591310
_cell_angle_gamma   90.03093907
_symmetry_Int_Tables_number   1
_chemical_formula_structural   HfZrTaTiMo
_chemical_formula_sum   'Hf40 Zr40 Ta40 Ti40 Mo40'
_cell_volume   3884.55935939
_cell_formula_units_Z   40
loop_
 _symmetry_equiv_pos_site_id
 _symmetry_equiv_pos_as_xyz
  1  'x, y, z'
loop_
 _atom_site_type_symbol
 _atom_site_label
 _atom_site_symmetry_multiplicity
 _atom_site_fract_x
 _atom_site_fract_y
 _atom_site_fract_z
 _atom_site_occupancy
  Hf  Hf0  1  0.49854837  0.09833561  0.14366692  1
  Hf  Hf1  1  -0.01753483  0.61237301  0.49356707  1
  Hf  Hf2  1  0.49610640  0.68331118  0.62598495  1
  Hf  Hf3  1  0.20480560  0.17804649  -0.00617586  1
  Hf  Hf4  1  0.49708364  0.89495626  0.62319651  1
  Hf  Hf5  1  0.79911832  0.01951443  0.26177849  1
  Hf  Hf6  1  0.01106242  0.40707602  0.74307666  1
  Hf  Hf7  1  0.90572191  0.11588194  0.12750295  1
  Hf  Hf8  1  0.68592066  0.50692558  0.62665344  1
  Hf  Hf9  1  -0.00201875  0.00786826  0.51052885  1
  Hf  Hf10  1  0.49896215  0.88335147  0.35706842  1
  Hf  Hf11  1  0.18469689  0.39787913  0.25135159  1
  Hf  Hf12  1  0.80737130  0.79516021  0.00763159  1
  Hf  Hf13  1  0.80569042  -0.00314415  0.75284121  1
  Hf  Hf14  1  0.28457260  0.70114128  0.12727529  1
  Hf  Hf15  1  0.59293661  -0.00504060  0.75573835  1
  Hf  Hf16  1  0.09989613  0.10350100  0.37915759  1
  Hf  Hf17  1  0.88982361  0.71305260  0.63063029  1
  Hf  Hf18  1  -0.00868683  0.40007244  0.52005461  1
  Hf  Hf19  1  0.10887876  0.92067023  0.87180966  1
  Hf  Hf20  1  0.51169002  0.08360042  0.36791551  1
  Hf  Hf21  1  0.20559746  0.80093184  -0.01100823  1
  Hf  Hf22  1  0.10746248  0.89629040  0.63494889  1
  Hf  Hf23  1  0.59514738  0.40798814  0.00326222  1
  Hf  Hf24  1  0.70423317  0.29241110  0.86700559  1
  Hf  Hf25  1  0.41494609  0.20310244  0.47953276  1
  Hf  Hf26  1  0.60121919  0.19471148  -0.00548921  1
  Hf  Hf27  1  0.89169390  0.51287892  0.63241294  1
  Hf  Hf28  1  0.19922904  0.59916250  0.76170700  1
  Hf  Hf29  1  0.20965443  0.40345158  0.74732709  1
  Hf  Hf30  1  0.20082810  0.80660584  0.48642480  1
  Hf  Hf31  1  0.90466211  0.90412603  0.36575679  1
  Hf  Hf32  1  0.50728356  0.10055566  0.61069199  1
  Hf  Hf33  1  0.09112198  0.52030189  0.12912757  1
  Hf  Hf34  1  0.70871659  0.68977069  0.37321721  1
  Hf  Hf35  1  0.19091731  0.59316923  -0.01289994  1
  Hf  Hf36  1  0.39503010  -0.00796508  0.49102481  1
  Hf  Hf37  1  0.80977351  0.20547463  0.48989422  1
  Hf  Hf38  1  0.91076901  0.29140899  0.86791952  1
  Hf  Hf39  1  0.49375248  0.90244325  0.13853371  1
  Zr  Zr40  1  0.40896167  0.18861915  0.76483582  1
  Zr  Zr41  1  0.70218951  0.29430029  0.62602298  1
  Zr  Zr42  1  0.50119103  0.30266221  0.14508946  1
  Zr  Zr43  1  0.67771503  0.68795652  0.89010989  1
  Zr  Zr44  1  0.70973556  0.29775353  0.12972884  1
  Zr  Zr45  1  0.79073568  0.61615499  0.76257741  1
  Zr  Zr46  1  0.30123069  0.50381260  0.60891951  1
  Zr  Zr47  1  0.40467457  0.18838479  -0.00750008  1
  Zr  Zr48  1  0.10567181  0.09796458  0.13306028  1
  Zr  Zr49  1  0.11265791  0.30986299  0.88489914  1
  Zr  Zr50  1  0.00866717  0.01282155  -0.00783172  1
  Zr  Zr51  1  0.29013556  0.70001581  0.62242310  1
  Zr  Zr52  1  0.07688815  0.49479929  0.37759549  1
  Zr  Zr53  1  0.01180392  0.21347246  0.25921440  1
  Zr  Zr54  1  0.01248389  0.78607534  0.25429959  1
  Zr  Zr55  1  0.80029460  0.39558104  -0.00560460  1
  Zr  Zr56  1  0.50782269  0.50884443  0.87780591  1
  Zr  Zr57  1  0.62453503  0.19776648  0.26877715  1
  Zr  Zr58  1  0.00378390  0.80509791  0.49787319  1
  Zr  Zr59  1  0.40141656  0.77743499  0.48596147  1
  Zr  Zr60  1  0.39103987  0.61147290  0.26210474  1
  Zr  Zr61  1  0.30393230  0.29444010  0.13569208  1
  Zr  Zr62  1  0.10035726  0.30477612  0.10802862  1
  Zr  Zr63  1  0.70143837  0.09576323  0.12124720  1
  Zr  Zr64  1  0.80516665  0.58913363  -0.00832281  1
  Zr  Zr65  1  -0.02009414  0.81075561  0.76509278  1
  Zr  Zr66  1  0.91034445  0.32502184  0.37561037  1
  Zr  Zr67  1  0.21450237  0.19544341  0.50354576  1
  Zr  Zr68  1  0.58132716  0.59352799  0.48558073  1
  Zr  Zr69  1  0.90702853  0.90919432  0.13625707  1
  Zr  Zr70  1  0.20184406  0.19670253  0.74768485  1
  Zr  Zr71  1  0.80110480  -0.00189023  -0.00735275  1
  Zr  Zr72  1  0.00020997  0.42425544  -0.01160717  1
  Zr  Zr73  1  0.32110833  0.29835991  0.62179516  1
  Zr  Zr74  1  0.69399006  0.90108169  0.36372261  1
  Zr  Zr75  1  0.70319622  0.09517910  0.61708893  1
  Zr  Zr76  1  0.40001921  0.60215983  0.00455929  1
  Zr  Zr77  1  0.59192963  0.39603834  0.74960443  1
  Zr  Zr78  1  0.10772647  0.89124511  0.12389756  1
  Zr  Zr79  1  0.70140497  0.88591240  0.87486301  1
  Ta  Ta80  1  0.69660709  0.89745226  0.13280088  1
  Ta  Ta81  1  0.30054151  0.48845047  0.88138922  1
  Ta  Ta82  1  0.60314895  0.80078753  0.49794270  1
  Ta  Ta83  1  0.59134778  0.79548041  0.01599859  1
  Ta  Ta84  1  -0.00961913  0.20476781  0.72265426  1
  Ta  Ta85  1  0.58499653  -0.00680010  -0.00484980  1
  Ta  Ta86  1  0.00209723  0.20282071  0.51803689  1
  Ta  Ta87  1  0.09887866  0.70625889  0.86899435  1
  Ta  Ta88  1  -0.00170895  0.80072875  -0.01297459  1
  Ta  Ta89  1  0.80167678  0.79626300  0.49541243  1
  Ta  Ta90  1  0.00284182  0.01376436  0.74143415  1
  Ta  Ta91  1  0.90671956  0.30938563  0.12897983  1
  Ta  Ta92  1  0.11252533  0.30624685  0.39456862  1
  Ta  Ta93  1  0.20987883  0.79604270  0.26208951  1
  Ta  Ta94  1  0.89198363  0.50168365  0.13504893  1
  Ta  Ta95  1  0.30136278  0.90592235  0.13340182  1
  Ta  Ta96  1  0.18228193  0.60976028  0.26438312  1
  Ta  Ta97  1  0.49338909  0.49762540  0.14108843  1
  Ta  Ta98  1  0.30500053  0.09625361  0.14573983  1
  Ta  Ta99  1  0.60043077  0.78418813  0.74621766  1
  Ta  Ta100  1  0.80399441  0.78343195  0.24016222  1
  Ta  Ta101  1  0.30947565  0.08620142  0.62504461  1
  Ta  Ta102  1  0.28708952  0.49353828  0.37962342  1
  Ta  Ta103  1  0.40084994  0.80804498  0.00160859  1
  Ta  Ta104  1  0.79878836  -0.00249306  0.49286774  1
  Ta  Ta105  1  0.69234798  0.48763924  0.36874779  1
  Ta  Ta106  1  0.39835657  0.59535111  0.75787989  1
  Ta  Ta107  1  0.48864780  0.48741572  0.62083646  1
  Ta  Ta108  1  0.40451335  0.40181005  0.48194319  1
  Ta  Ta109  1  0.19250871  0.60984354  0.48366122  1
  Ta  Ta110  1  0.19654056  0.00117350  0.25836071  1
  Ta  Ta111  1  0.10422688  0.51547133  0.61579165  1
  Ta  Ta112  1  0.70075254  0.89094056  0.62278012  1
  Ta  Ta113  1  0.59432990  0.38477568  0.49169212  1
  Ta  Ta114  1  0.60035071  0.78348049  0.23852806  1
  Ta  Ta115  1  0.80875237  0.39485454  0.74813686  1
  Ta  Ta116  1  0.69284990  0.49955180  0.13523149  1
  Ta  Ta117  1  0.39969374  0.79515157  0.75602515  1
  Ta  Ta118  1  0.20689346  0.80075056  0.76141562  1
  Ta  Ta119  1  0.70110995  0.69008697  0.12144831  1
  Ti  Ti120  1  0.91539496  0.69155459  0.12146600  1
  Ti  Ti121  1  0.09492257  0.69945810  0.63647955  1
  Ti  Ti122  1  0.30349116  0.90607140  0.36184217  1
  Ti  Ti123  1  0.11500382  0.30902482  0.61559904  1
  Ti  Ti124  1  0.21021608  0.00293934  0.74816809  1
  Ti  Ti125  1  0.69657776  0.69975194  0.61743351  1
  Ti  Ti126  1  0.49209242  0.70481786  0.87806937  1
  Ti  Ti127  1  0.29674225  0.49454963  0.13215041  1
  Ti  Ti128  1  0.09245917  0.11570078  0.86444891  1
  Ti  Ti129  1  -0.01702176  0.60188262  0.25948570  1
  Ti  Ti130  1  0.20401128  -0.00116694  0.49680382  1
  Ti  Ti131  1  0.30175094  0.89738300  0.62932477  1
  Ti  Ti132  1  0.30788555  0.90075568  0.87382172  1
  Ti  Ti133  1  0.60102205  0.18994441  0.75725371  1
  Ti  Ti134  1  0.79610747  0.40291269  0.25381893  1
  Ti  Ti135  1  0.39516658  0.39820544  0.00499135  1
  Ti  Ti136  1  0.39112304  0.00105572  -0.00399708  1
  Ti  Ti137  1  0.50854854  0.29448608  0.61992310  1
  Ti  Ti138  1  0.10050581  0.90583899  0.36946483  1
  Ti  Ti139  1  0.60287610  0.59610600  0.25155759  1
  Ti  Ti140  1  0.40165668  0.39814631  0.75543381  1
  Ti  Ti141  1  0.50732907  0.30728656  0.35576714  1
  Ti  Ti142  1  0.70045860  0.09684841  0.87435632  1
  Ti  Ti143  1  0.89155830  0.90749762  0.62390570  1
  Ti  Ti144  1  0.81328036  0.20879973  0.27430669  1
  Ti  Ti145  1  0.49975794  0.30137654  0.87844816  1
  Ti  Ti146  1  0.81277537  0.19834531  -0.00426807  1
  Ti  Ti147  1  0.90249239  0.10337524  0.86718831  1
  Ti  Ti148  1  0.30254235  0.29771380  0.36192284  1
  Ti  Ti149  1  -0.00347094  0.60185883  0.76696383  1
  Ti  Ti150  1  0.79276487  0.41461333  0.50194702  1
  Ti  Ti151  1  -0.00664591  0.61310128  -0.01927246  1
  Ti  Ti152  1  0.30472316  0.29750461  0.88282059  1
  Ti  Ti153  1  0.49579927  0.69583656  0.12816687  1
  Ti  Ti154  1  0.49333701  0.49377015  0.35850689  1
  Ti  Ti155  1  0.87324890  0.52131995  0.37206413  1
  Ti  Ti156  1  0.70040485  0.49330000  0.86514022  1
  Ti  Ti157  1  0.11094319  0.09816076  0.62434083  1
  Ti  Ti158  1  0.39830159  -0.00348383  0.75745471  1
  Ti  Ti159  1  0.49975918  0.89319310  0.87734993  1
  Mo  Mo160  1  0.09357219  0.69802824  0.11925575  1
  Mo  Mo161  1  0.39573578  0.58804279  0.47900773  1
  Mo  Mo162  1  0.58562452  0.60286143  0.74536908  1
  Mo  Mo163  1  0.90376586  0.91057846  0.87572472  1
  Mo  Mo164  1  -0.01029629  0.40963882  0.24568162  1
  Mo  Mo165  1  0.29736404  0.70015498  0.37368350  1
  Mo  Mo166  1  0.79707895  0.59969426  0.24142910  1
  Mo  Mo167  1  0.21991295  -0.00381657  0.00090666  1
  Mo  Mo168  1  0.39513070  0.79677600  0.24651057  1
  Mo  Mo169  1  0.60843763  -0.00784192  0.24568325  1
  Mo  Mo170  1  0.10081689  0.50524380  0.87312245  1
  Mo  Mo171  1  0.50953671  0.69480115  0.36422730  1
  Mo  Mo172  1  0.39341493  -0.00303612  0.25637824  1
  Mo  Mo173  1  0.39966991  0.19869232  0.26727745  1
  Mo  Mo174  1  0.09613877  0.70206827  0.37535867  1
  Mo  Mo175  1  0.19974573  0.40318818  0.49772699  1
  Mo  Mo176  1  0.90779931  0.10352571  0.38134142  1
  Mo  Mo177  1  0.78971667  0.60158378  0.50263092  1
  Mo  Mo178  1  0.39201957  0.40538363  0.26146045  1
  Mo  Mo179  1  0.70552027  0.09967724  0.39442955  1
  Mo  Mo180  1  0.89959814  0.09899358  0.62508828  1
  Mo  Mo181  1  0.28919750  0.08237101  0.87114347  1
  Mo  Mo182  1  0.78528324  0.80651144  0.74508991  1
  Mo  Mo183  1  0.89909571  0.50039434  0.85620051  1
  Mo  Mo184  1  0.89492736  0.30386160  0.62759340  1
  Mo  Mo185  1  0.21644353  0.40429994  0.00383678  1
  Mo  Mo186  1  0.89523150  0.70899557  0.87769594  1
  Mo  Mo187  1  0.30133729  0.10018043  0.35993939  1
  Mo  Mo188  1  0.60109790  0.40561696  0.25277690  1
  Mo  Mo189  1  0.89258922  0.70360550  0.37201995  1
  Mo  Mo190  1  0.80087501  0.19341971  0.75311288  1
  Mo  Mo191  1  0.30863911  0.70302148  0.87386137  1
  Mo  Mo192  1  0.00313118  0.00308920  0.25825243  1
  Mo  Mo193  1  0.50410578  0.08603205  0.87592465  1
  Mo  Mo194  1  0.60382338  -0.01366086  0.50232728  1
  Mo  Mo195  1  0.20439415  0.20147596  0.26038991  1
  Mo  Mo196  1  0.70423412  0.30994171  0.38087972  1
  Mo  Mo197  1  -0.00647636  0.20400746  -0.00437639  1
  Mo  Mo198  1  0.59389920  0.59854512  0.01959161  1
  Mo  Mo199  1  0.60466817  0.20080745  0.48266213  1
