# generated using pymatgen
data_HfZrTaTiMo
_symmetry_space_group_name_H-M   'P 1'
_cell_length_a   15.22608011
_cell_length_b   15.22029961
_cell_length_c   16.81858318
_cell_angle_alpha   90.03412218
_cell_angle_beta   90.00094230
_cell_angle_gamma   89.95058597
_symmetry_Int_Tables_number   1
_chemical_formula_structural   HfZrTaTiMo
_chemical_formula_sum   'Hf40 Zr40 Ta40 Ti40 Mo40'
_cell_volume   3897.62884785
_cell_formula_units_Z   40
loop_
 _symmetry_equiv_pos_site_id
 _symmetry_equiv_pos_as_xyz
  1  'x, y, z'
loop_
 _atom_site_type_symbol
 _atom_site_label
 _atom_site_symmetry_multiplicity
 _atom_site_fract_x
 _atom_site_fract_y
 _atom_site_fract_z
 _atom_site_occupancy
  Hf  Hf0  1  0.50040380  0.50117473  0.11874768  1
  Hf  Hf1  1  0.00615296  0.39034857  -0.01535831  1
  Hf  Hf2  1  0.59448066  0.18705132  0.74089694  1
  Hf  Hf3  1  -0.00345594  0.19223955  0.23603567  1
  Hf  Hf4  1  0.10064906  0.08630437  0.37814124  1
  Hf  Hf5  1  0.19060077  0.21221654  0.74226484  1
  Hf  Hf6  1  0.29105396  0.71186059  0.87432951  1
  Hf  Hf7  1  0.29876012  0.91354103  0.88478753  1
  Hf  Hf8  1  -0.00590005  0.58558247  0.25694280  1
  Hf  Hf9  1  0.10526514  0.48801408  0.63602581  1
  Hf  Hf10  1  0.60827922  0.40121350  0.25454135  1
  Hf  Hf11  1  0.40717164  0.62677906  0.49086893  1
  Hf  Hf12  1  0.39242150  0.21652187  0.75553336  1
  Hf  Hf13  1  0.50928611  0.89868471  0.87709739  1
  Hf  Hf14  1  0.69652139  0.50313627  0.88118597  1
  Hf  Hf15  1  0.70435230  0.09033890  0.87358864  1
  Hf  Hf16  1  0.29964373  0.30962261  0.12655705  1
  Hf  Hf17  1  -0.00171685  0.59758361  0.76180733  1
  Hf  Hf18  1  0.60776159  0.79353364  0.74411528  1
  Hf  Hf19  1  0.20355018  -0.00781660  0.51421951  1
  Hf  Hf20  1  0.50738405  0.29661106  0.12735031  1
  Hf  Hf21  1  0.20115501  0.18224699  0.23231378  1
  Hf  Hf22  1  0.31510952  0.10932001  0.62407347  1
  Hf  Hf23  1  0.10027978  0.08551209  0.88366259  1
  Hf  Hf24  1  0.40461110  0.40949111  0.26110448  1
  Hf  Hf25  1  0.89088603  0.09359250  0.61802324  1
  Hf  Hf26  1  0.90236835  0.49238008  0.10758620  1
  Hf  Hf27  1  0.49388134  0.29915804  0.87856358  1
  Hf  Hf28  1  0.89148508  0.68781172  0.11388638  1
  Hf  Hf29  1  0.00589203  0.78988780  0.25014087  1
  Hf  Hf30  1  0.39263681  0.59950547  0.75181441  1
  Hf  Hf31  1  0.21310528  0.60076813  0.00003314  1
  Hf  Hf32  1  0.19887896  0.20633580  0.50859470  1
  Hf  Hf33  1  0.30194805  0.10228659  0.37694015  1
  Hf  Hf34  1  0.60453975  -0.01056862  0.49942952  1
  Hf  Hf35  1  0.79125376  0.61079248  0.75431019  1
  Hf  Hf36  1  0.01811780  0.78814460  0.50925251  1
  Hf  Hf37  1  0.49960864  0.69913304  0.89135497  1
  Hf  Hf38  1  0.61185552  -0.01620049  0.01003262  1
  Hf  Hf39  1  0.18484717  0.40931029  0.48444481  1
  Zr  Zr40  1  0.70145234  0.30277982  0.37807816  1
  Zr  Zr41  1  0.41501732  0.00785269  0.74893875  1
  Zr  Zr42  1  0.60159561  0.39321364  0.50416452  1
  Zr  Zr43  1  0.90843183  0.90316402  0.38318459  1
  Zr  Zr44  1  0.59302013  0.19322947  0.51375925  1
  Zr  Zr45  1  0.49362481  0.88768322  0.37630191  1
  Zr  Zr46  1  0.89442211  0.89557038  0.12567819  1
  Zr  Zr47  1  0.78960426  0.79474769  0.25887290  1
  Zr  Zr48  1  0.70108694  0.50738978  0.10507561  1
  Zr  Zr49  1  -0.00734442  0.18924083  0.75555105  1
  Zr  Zr50  1  0.60112418  0.39240982  0.74325881  1
  Zr  Zr51  1  0.90734825  0.49710293  0.62850630  1
  Zr  Zr52  1  0.29582495  0.50966889  0.61357828  1
  Zr  Zr53  1  0.29538089  0.11645215  0.89083532  1
  Zr  Zr54  1  0.67433776  0.69854153  0.39479060  1
  Zr  Zr55  1  0.28541853  0.71092075  0.62874466  1
  Zr  Zr56  1  -0.00355364  -0.01402370  0.74627250  1
  Zr  Zr57  1  0.19779075  -0.01062512  0.74005175  1
  Zr  Zr58  1  0.80134423  0.21316662  0.23997516  1
  Zr  Zr59  1  0.30487020  0.72639083  0.36763102  1
  Zr  Zr60  1  0.02175226  0.79009602  0.73638068  1
  Zr  Zr61  1  0.20982745  0.82353792  0.22564417  1
  Zr  Zr62  1  0.19374240  0.40516170  0.25633674  1
  Zr  Zr63  1  0.79999771  0.19198993  0.00469427  1
  Zr  Zr64  1  0.48383077  0.09190968  0.11969224  1
  Zr  Zr65  1  0.69306298  0.09841651  0.36976175  1
  Zr  Zr66  1  0.39496135  0.81163902  0.01926252  1
  Zr  Zr67  1  0.09470288  0.29133366  0.36903088  1
  Zr  Zr68  1  0.69302684  0.09855174  0.13522125  1
  Zr  Zr69  1  0.80565209  -0.00289394  0.25384122  1
  Zr  Zr70  1  0.70647234  0.50548102  0.62100744  1
  Zr  Zr71  1  0.89312171  0.71559739  0.88104454  1
  Zr  Zr72  1  0.90247979  0.10504248  0.38630466  1
  Zr  Zr73  1  0.49571643  0.50543668  0.62046225  1
  Zr  Zr74  1  0.19508707  0.61278986  0.25433506  1
  Zr  Zr75  1  0.10603836  0.49285187  0.11722553  1
  Zr  Zr76  1  0.59170346  0.79709974  0.24194280  1
  Zr  Zr77  1  0.80616867  0.41219161  0.24947745  1
  Zr  Zr78  1  0.89491991  0.68744473  0.38924764  1
  Zr  Zr79  1  0.49274012  0.49993847  0.87472830  1
  Ta  Ta80  1  0.69511246  0.70179561  0.10642988  1
  Ta  Ta81  1  0.00371100  0.79988941  0.00055044  1
  Ta  Ta82  1  0.89812333  0.89501225  0.61417221  1
  Ta  Ta83  1  0.60304454  0.60013806  0.24854185  1
  Ta  Ta84  1  0.70639712  0.89750337  0.62154333  1
  Ta  Ta85  1  0.01276047  0.38822664  0.76815303  1
  Ta  Ta86  1  0.79609139  0.20533227  0.51268339  1
  Ta  Ta87  1  0.29883989  0.91449805  0.37524969  1
  Ta  Ta88  1  0.80763000  0.39247212  0.75674771  1
  Ta  Ta89  1  0.59821580  0.19841183  -0.00322522  1
  Ta  Ta90  1  0.90109324  0.30166512  0.38553919  1
  Ta  Ta91  1  0.48348403  0.30041452  0.62529129  1
  Ta  Ta92  1  0.49715393  0.69161156  0.11324961  1
  Ta  Ta93  1  0.00707049  0.60086655  -0.01685451  1
  Ta  Ta94  1  0.38996485  0.41325495  -0.00025459  1
  Ta  Ta95  1  0.30364723  0.29721975  0.36877063  1
  Ta  Ta96  1  0.40194743  0.20765173  0.49697697  1
  Ta  Ta97  1  0.00845127  -0.00665056  0.51198361  1
  Ta  Ta98  1  0.89785720  0.49588500  0.87758950  1
  Ta  Ta99  1  0.80670971  0.80724094  0.74153958  1
  Ta  Ta100  1  0.71126512  0.89195632  0.87129852  1
  Ta  Ta101  1  0.11151200  0.89091233  0.37427301  1
  Ta  Ta102  1  0.39720840  0.39992528  0.48292815  1
  Ta  Ta103  1  0.01118757  0.58283817  0.49583906  1
  Ta  Ta104  1  0.89265980  0.69436583  0.61333016  1
  Ta  Ta105  1  0.90779336  0.30148527  0.63339017  1
  Ta  Ta106  1  -0.00036114  -0.00725986  0.00200968  1
  Ta  Ta107  1  -0.00045921  0.19206883  0.00016779  1
  Ta  Ta108  1  0.80161942  0.39026565  -0.01114793  1
  Ta  Ta109  1  0.30413799  0.51106844  0.37598174  1
  Ta  Ta110  1  0.79027304  0.80872307  0.49760028  1
  Ta  Ta111  1  0.89681554  0.28739461  0.87223049  1
  Ta  Ta112  1  -0.00741914  0.38826755  0.24474496  1
  Ta  Ta113  1  0.00141093  0.20846584  0.51318279  1
  Ta  Ta114  1  0.69381066  0.70560810  0.89385819  1
  Ta  Ta115  1  0.38244576  -0.00838164  0.24014607  1
  Ta  Ta116  1  0.78897498  0.59998677  0.25320498  1
  Ta  Ta117  1  0.09516446  0.69724742  0.11576349  1
  Ta  Ta118  1  0.29499381  0.31944829  0.62017272  1
  Ta  Ta119  1  0.51259945  0.51405553  0.38013696  1
  Ti  Ti120  1  0.90431841  0.09446921  0.11892060  1
  Ti  Ti121  1  0.02346130  -0.00682028  0.23570735  1
  Ti  Ti122  1  0.79243753  0.19942186  0.74499504  1
  Ti  Ti123  1  0.79035206  0.81867967  0.00466738  1
  Ti  Ti124  1  0.49718471  0.71004532  0.62390564  1
  Ti  Ti125  1  0.18987198  0.61273345  0.48312199  1
  Ti  Ti126  1  0.70346017  0.30460669  0.11884397  1
  Ti  Ti127  1  0.10595421  0.88029982  0.88015681  1
  Ti  Ti128  1  0.69578887  0.70090702  0.60810929  1
  Ti  Ti129  1  0.40111227  0.19686767  0.24665074  1
  Ti  Ti130  1  0.39284867  0.21215711  0.00292052  1
  Ti  Ti131  1  0.89857425  0.91300614  0.88089374  1
  Ti  Ti132  1  0.59886613  0.39113870  -0.00376214  1
  Ti  Ti133  1  0.59720360  0.60508347  0.74876958  1
  Ti  Ti134  1  0.59486573  -0.00670345  0.24836898  1
  Ti  Ti135  1  0.70981442  0.50824053  0.39276913  1
  Ti  Ti136  1  0.09413303  0.29393176  0.11621152  1
  Ti  Ti137  1  0.80281160  -0.00084049  0.74991479  1
  Ti  Ti138  1  0.50057791  0.29018947  0.36869795  1
  Ti  Ti139  1  0.50179504  0.90143427  0.62285492  1
  Ti  Ti140  1  0.21842878  0.40460455  0.76374750  1
  Ti  Ti141  1  0.70000389  0.09106499  0.62537514  1
  Ti  Ti142  1  0.40077674  0.80520471  0.75183052  1
  Ti  Ti143  1  0.49739202  0.09536123  0.89066516  1
  Ti  Ti144  1  0.18874101  0.61508577  0.75778537  1
  Ti  Ti145  1  0.11319242  0.50158093  0.87341269  1
  Ti  Ti146  1  0.20696887  0.80040621  0.49951297  1
  Ti  Ti147  1  0.30902857  0.51754226  0.13297843  1
  Ti  Ti148  1  0.40751147  0.00556860  0.50430072  1
  Ti  Ti149  1  0.40920887  0.61782989  0.25408396  1
  Ti  Ti150  1  0.19520084  0.80716569  0.01815954  1
  Ti  Ti151  1  0.60872204  -0.00833681  0.74413610  1
  Ti  Ti152  1  0.90153418  0.48776798  0.38812580  1
  Ti  Ti153  1  0.20872269  0.39558590  -0.00959823  1
  Ti  Ti154  1  0.80885150  0.39502406  0.51019868  1
  Ti  Ti155  1  0.11497582  0.28602630  0.88421646  1
  Ti  Ti156  1  0.69842969  0.29409335  0.87352022  1
  Ti  Ti157  1  0.30885842  0.89657368  0.62750147  1
  Ti  Ti158  1  0.09583861  0.09996235  0.62505431  1
  Ti  Ti159  1  0.49341554  0.09752974  0.36440487  1
  Mo  Mo160  1  0.69899310  0.90099820  0.38785619  1
  Mo  Mo161  1  0.58298143  0.79567179  0.51549978  1
  Mo  Mo162  1  0.69873607  0.89635917  0.12805101  1
  Mo  Mo163  1  0.80436752  0.59838685  0.50193636  1
  Mo  Mo164  1  0.29896664  0.31184615  0.88400049  1
  Mo  Mo165  1  0.30184541  0.92595191  0.10933043  1
  Mo  Mo166  1  0.09929871  0.67897888  0.62086792  1
  Mo  Mo167  1  0.80464642  0.60214558  -0.01368031  1
  Mo  Mo168  1  0.20737558  0.80170905  0.75075987  1
  Mo  Mo169  1  -0.00337379  0.39126966  0.50253820  1
  Mo  Mo170  1  0.11267590  0.88882770  0.61945140  1
  Mo  Mo171  1  0.71322904  0.29232390  0.63328474  1
  Mo  Mo172  1  0.50197419  0.09656943  0.62554645  1
  Mo  Mo173  1  0.58763414  0.19614378  0.25365780  1
  Mo  Mo174  1  0.39406031  0.59968151  0.00311004  1
  Mo  Mo175  1  0.59593061  0.60098276  0.50640611  1
  Mo  Mo176  1  0.89616661  0.09265785  0.87862426  1
  Mo  Mo177  1  0.09418537  0.90024702  0.11752839  1
  Mo  Mo178  1  0.10172896  0.70309835  0.37511766  1
  Mo  Mo179  1  0.10218573  0.70324733  0.88806636  1
  Mo  Mo180  1  0.09031029  0.50270923  0.37270370  1
  Mo  Mo181  1  0.79969430  -0.00046625  0.50100017  1
  Mo  Mo182  1  0.19488619  -0.00446304  0.00354814  1
  Mo  Mo183  1  0.39593222  0.81992729  0.50697954  1
  Mo  Mo184  1  0.60111854  0.80042947  0.00881793  1
  Mo  Mo185  1  0.39136337  0.40234852  0.74606164  1
  Mo  Mo186  1  0.40492086  0.00936811  -0.00373992  1
  Mo  Mo187  1  0.19281718  0.20705615  0.01401173  1
  Mo  Mo188  1  0.49314439  0.69867558  0.36935771  1
  Mo  Mo189  1  0.29330778  0.10466677  0.10628239  1
  Mo  Mo190  1  0.09959599  0.30398974  0.63125219  1
  Mo  Mo191  1  0.39995955  0.80482814  0.22635048  1
  Mo  Mo192  1  0.50141964  0.90085794  0.13344803  1
  Mo  Mo193  1  0.09723998  0.09277093  0.10945768  1
  Mo  Mo194  1  0.29778950  0.50326233  0.87148043  1
  Mo  Mo195  1  0.30176312  0.69829299  0.12879298  1
  Mo  Mo196  1  0.80841147  -0.00222126  -0.00258339  1
  Mo  Mo197  1  0.90434377  0.30097634  0.11327512  1
  Mo  Mo198  1  0.59712501  0.59812219  -0.00066925  1
  Mo  Mo199  1  0.19614992  0.00445988  0.24617001  1
