# generated using pymatgen
data_HfZrTaTiMo
_symmetry_space_group_name_H-M   'P 1'
_cell_length_a   15.21261105
_cell_length_b   15.19887636
_cell_length_c   16.82339553
_cell_angle_alpha   89.95501159
_cell_angle_beta   90.03152431
_cell_angle_gamma   90.09270062
_symmetry_Int_Tables_number   1
_chemical_formula_structural   HfZrTaTiMo
_chemical_formula_sum   'Hf40 Zr40 Ta40 Ti40 Mo40'
_cell_volume   3889.80769585
_cell_formula_units_Z   40
loop_
 _symmetry_equiv_pos_site_id
 _symmetry_equiv_pos_as_xyz
  1  'x, y, z'
loop_
 _atom_site_type_symbol
 _atom_site_label
 _atom_site_symmetry_multiplicity
 _atom_site_fract_x
 _atom_site_fract_y
 _atom_site_fract_z
 _atom_site_occupancy
  Hf  Hf0  1  0.29950953  0.49714794  0.35419485  1
  Hf  Hf1  1  0.29637180  0.69004936  0.87976296  1
  Hf  Hf2  1  0.79606164  0.78954539  -0.01125595  1
  Hf  Hf3  1  0.62239970  0.41322463  0.25863091  1
  Hf  Hf4  1  0.58826627  0.79869116  0.74632014  1
  Hf  Hf5  1  0.19891374  -0.00069879  0.01805685  1
  Hf  Hf6  1  0.69722512  0.89961627  0.37454743  1
  Hf  Hf7  1  0.29137108  0.70804904  0.35369246  1
  Hf  Hf8  1  0.20026502  0.78517022  0.01435244  1
  Hf  Hf9  1  0.79511601  0.00849250  0.00428824  1
  Hf  Hf10  1  0.09048454  0.49298705  0.36620594  1
  Hf  Hf11  1  0.69501686  0.88015452  0.12811901  1
  Hf  Hf12  1  0.30106336  0.29423248  0.37265367  1
  Hf  Hf13  1  0.79797741  0.78694523  0.25458776  1
  Hf  Hf14  1  0.80427093  0.20498121  0.50839501  1
  Hf  Hf15  1  0.19574474  0.20341451  0.51514748  1
  Hf  Hf16  1  0.31250283  0.09327963  0.88405879  1
  Hf  Hf17  1  0.79127441  0.57772332  0.25073801  1
  Hf  Hf18  1  0.48696476  0.09642249  0.36434637  1
  Hf  Hf19  1  0.11745604  0.69530486  0.15217993  1
  Hf  Hf20  1  0.01375522  0.39995481  0.51644449  1
  Hf  Hf21  1  0.50643011  0.29670997  0.62362031  1
  Hf  Hf22  1  0.48549715  0.49465971  0.61571778  1
  Hf  Hf23  1  0.58252713  -0.01302527  0.24663176  1
  Hf  Hf24  1  0.01061707  0.41444837  0.00984108  1
  Hf  Hf25  1  0.59998544  0.40279866  0.75144171  1
  Hf  Hf26  1  0.91267551  0.88389703  0.38563020  1
  Hf  Hf27  1  0.09770957  0.89753122  0.88144953  1
  Hf  Hf28  1  0.00335302  0.19402027  0.53581164  1
  Hf  Hf29  1  0.21440247  -0.00479033  0.74864684  1
  Hf  Hf30  1  0.69556813  0.89664965  0.61801864  1
  Hf  Hf31  1  0.18455627  0.20605933  0.73482695  1
  Hf  Hf32  1  0.08783262  0.67964038  0.86998962  1
  Hf  Hf33  1  0.40158430  0.60750656  0.01782387  1
  Hf  Hf34  1  0.61459509  0.40008271  0.50277751  1
  Hf  Hf35  1  0.08625045  0.70933993  0.36900387  1
  Hf  Hf36  1  -0.00937593  0.80039109  0.75072008  1
  Hf  Hf37  1  0.39085527  0.19328869  0.74382171  1
  Hf  Hf38  1  0.08492546  0.70377422  0.61457060  1
  Hf  Hf39  1  0.48525559  0.90893754  0.88531564  1
  Zr  Zr40  1  0.28493858  0.68756486  0.60808402  1
  Zr  Zr41  1  0.60253612  0.60343817  0.50225453  1
  Zr  Zr42  1  0.80327879  0.59554267  -0.01674590  1
  Zr  Zr43  1  0.38771303  0.59622515  0.74978000  1
  Zr  Zr44  1  0.87767420  0.69233538  0.62506581  1
  Zr  Zr45  1  -0.00100445  0.61094476  0.01928892  1
  Zr  Zr46  1  0.29661154  0.50580817  0.14811735  1
  Zr  Zr47  1  -0.00485957  0.00493006  0.24538648  1
  Zr  Zr48  1  0.70171334  0.10603974  0.13415510  1
  Zr  Zr49  1  0.39101177  0.81205331  0.74634212  1
  Zr  Zr50  1  0.93015999  0.29420107  0.38460826  1
  Zr  Zr51  1  0.81291349  0.21237959  0.25372580  1
  Zr  Zr52  1  0.80360888  -0.00124698  0.25127703  1
  Zr  Zr53  1  0.10086375  0.11147164  0.88573587  1
  Zr  Zr54  1  0.40562569  0.19780140  0.50344032  1
  Zr  Zr55  1  0.58916393  0.00247361  0.01337558  1
  Zr  Zr56  1  0.19380314  0.57820899  0.01166699  1
  Zr  Zr57  1  0.50438372  0.09262304  0.62715035  1
  Zr  Zr58  1  0.02245550  0.20265384  0.23054669  1
  Zr  Zr59  1  0.51527613  0.49606252  0.12552002  1
  Zr  Zr60  1  0.78689295  0.79820282  0.75900813  1
  Zr  Zr61  1  0.71264739  0.28887386  0.87210290  1
  Zr  Zr62  1  0.48832785  0.70578037  0.61355297  1
  Zr  Zr63  1  0.29901246  0.89120744  0.89271641  1
  Zr  Zr64  1  0.79832178  0.00682644  0.49345982  1
  Zr  Zr65  1  0.01383360  -0.00193478  0.50516373  1
  Zr  Zr66  1  -0.01468462  0.39918966  0.23262371  1
  Zr  Zr67  1  0.19557627  0.79020529  0.74645383  1
  Zr  Zr68  1  0.31736189  0.30377230  0.11289420  1
  Zr  Zr69  1  0.68333688  0.90136984  0.87894528  1
  Zr  Zr70  1  0.19204692  0.01222202  0.23543862  1
  Zr  Zr71  1  0.69346765  0.30760351  0.11161987  1
  Zr  Zr72  1  0.29079880  0.09454776  0.37352545  1
  Zr  Zr73  1  -0.00402297  0.02381001  0.73799064  1
  Zr  Zr74  1  0.49559714  0.29810831  0.87486581  1
  Zr  Zr75  1  0.28969811  0.30107891  0.88992922  1
  Zr  Zr76  1  0.60057377  0.60453106  0.75422252  1
  Zr  Zr77  1  0.89683380  0.91784050  0.87439151  1
  Zr  Zr78  1  0.92924133  0.50347175  0.86048272  1
  Zr  Zr79  1  0.59449455  0.21808141  0.25787093  1
  Ta  Ta80  1  0.89874623  0.89909530  0.61990615  1
  Ta  Ta81  1  0.30080325  0.07963390  0.61461649  1
  Ta  Ta82  1  0.70098107  0.69294790  0.38127096  1
  Ta  Ta83  1  0.21546992  0.41049425  0.50076116  1
  Ta  Ta84  1  0.39672297  0.00015316  0.03099838  1
  Ta  Ta85  1  0.09130906  0.30967194  0.88381439  1
  Ta  Ta86  1  0.59364759  0.80343813  0.48755021  1
  Ta  Ta87  1  0.70276745  0.09772328  0.63154957  1
  Ta  Ta88  1  0.60168844  0.60021673  -0.01091181  1
  Ta  Ta89  1  0.72285280  0.31625717  0.38260106  1
  Ta  Ta90  1  0.48894142  0.90626500  0.61026640  1
  Ta  Ta91  1  0.81453277  0.19057465  0.74264255  1
  Ta  Ta92  1  0.39699581  0.40023770  0.75127204  1
  Ta  Ta93  1  0.89828868  0.89695705  0.11763573  1
  Ta  Ta94  1  0.88806421  0.70166229  0.12863882  1
  Ta  Ta95  1  0.11573681  0.51214293  0.62543964  1
  Ta  Ta96  1  0.42017654  0.38443305  0.25202391  1
  Ta  Ta97  1  0.50092712  0.49801489  0.37680419  1
  Ta  Ta98  1  -0.01056512  0.59575030  0.49821921  1
  Ta  Ta99  1  0.70658038  0.29984327  0.63552400  1
  Ta  Ta100  1  0.21148934  0.40964355  0.74551753  1
  Ta  Ta101  1  0.41275763  0.81051703  0.24724706  1
  Ta  Ta102  1  0.09844379  0.12064671  0.37846101  1
  Ta  Ta103  1  0.38863864  0.59263473  0.48282115  1
  Ta  Ta104  1  -0.00646110  0.80251369  0.24306035  1
  Ta  Ta105  1  0.89033411  0.30267758  0.10505463  1
  Ta  Ta106  1  0.48784897  0.11790110  0.13855936  1
  Ta  Ta107  1  0.88602020  0.48879476  0.37934060  1
  Ta  Ta108  1  0.30024005  0.89339875  0.60434837  1
  Ta  Ta109  1  0.18998331  0.37930089  0.24408887  1
  Ta  Ta110  1  0.71608215  0.50724775  0.63663935  1
  Ta  Ta111  1  0.59145315  0.00314547  0.48958260  1
  Ta  Ta112  1  0.81193367  0.40736958  0.51769185  1
  Ta  Ta113  1  0.49396183  0.70671949  0.88378602  1
  Ta  Ta114  1  0.61416219  0.19512760  0.49380814  1
  Ta  Ta115  1  0.60130859  0.19456624  -0.00301272  1
  Ta  Ta116  1  0.02024028  0.39295420  0.74042598  1
  Ta  Ta117  1  0.68911753  0.68241097  0.12427884  1
  Ta  Ta118  1  -0.01442085  0.59878589  0.24194950  1
  Ta  Ta119  1  0.89807186  0.12518394  0.88372560  1
  Ti  Ti120  1  0.09072760  0.89661559  0.12705329  1
  Ti  Ti121  1  0.11514868  0.29063201  0.10147404  1
  Ti  Ti122  1  0.59411469  0.40038439  -0.01138491  1
  Ti  Ti123  1  0.18649607  0.81125597  0.48822779  1
  Ti  Ti124  1  0.79671743  0.59091108  0.50079317  1
  Ti  Ti125  1  0.90212934  0.30467282  0.63971891  1
  Ti  Ti126  1  0.90524737  0.10992382  0.11083213  1
  Ti  Ti127  1  0.30456145  0.90846295  0.36573564  1
  Ti  Ti128  1  0.58933853  0.78796833  0.00563346  1
  Ti  Ti129  1  0.50483148  0.09766555  0.87032688  1
  Ti  Ti130  1  0.40369996  0.79972160  0.02972625  1
  Ti  Ti131  1  0.90600397  0.09922744  0.37752068  1
  Ti  Ti132  1  0.79728279  0.78985049  0.49921465  1
  Ti  Ti133  1  0.41295918  0.19673090  0.00192948  1
  Ti  Ti134  1  -0.00204780  0.00504185  0.00619852  1
  Ti  Ti135  1  0.29103307  0.11787229  0.12770509  1
  Ti  Ti136  1  0.19029910  0.59926906  0.48257492  1
  Ti  Ti137  1  0.41527903  0.60963260  0.24954329  1
  Ti  Ti138  1  0.30814109  0.31771662  0.61814341  1
  Ti  Ti139  1  0.59914469  0.60607665  0.26355260  1
  Ti  Ti140  1  0.10932874  0.91086555  0.36843928  1
  Ti  Ti141  1  0.60727295  0.19432998  0.75136012  1
  Ti  Ti142  1  0.29500802  0.88929091  0.14169763  1
  Ti  Ti143  1  0.48793580  0.50333481  0.88133445  1
  Ti  Ti144  1  0.91095822  0.50466332  0.64078210  1
  Ti  Ti145  1  0.80314069  0.60601400  0.76742235  1
  Ti  Ti146  1  -0.00535080  0.79976833  0.00221963  1
  Ti  Ti147  1  0.81045216  0.39627018  -0.01934086  1
  Ti  Ti148  1  0.10686430  0.90327943  0.62057790  1
  Ti  Ti149  1  0.69920735  0.10910658  0.36841708  1
  Ti  Ti150  1  0.89745908  0.68805276  0.37890011  1
  Ti  Ti151  1  0.70305991  0.09423363  0.86660832  1
  Ti  Ti152  1  0.50684017  0.30260009  0.38548066  1
  Ti  Ti153  1  0.69860781  0.49730749  0.87106974  1
  Ti  Ti154  1  0.71696715  0.49341123  0.10850772  1
  Ti  Ti155  1  0.39902781  0.80009248  0.47785919  1
  Ti  Ti156  1  0.29859484  0.49305742  0.88486832  1
  Ti  Ti157  1  0.59284583  0.78751537  0.26158279  1
  Ti  Ti158  1  0.80927218  0.39913782  0.75523656  1
  Ti  Ti159  1  0.59586062  -0.00357366  0.74790411  1
  Mo  Mo160  1  0.90222255  0.70717082  0.87130843  1
  Mo  Mo161  1  0.11035544  0.09354636  0.62896665  1
  Mo  Mo162  1  -0.00260911  0.20591079  0.00703844  1
  Mo  Mo163  1  0.09864715  0.49364833  0.14527543  1
  Mo  Mo164  1  0.51328934  0.70141381  0.13205057  1
  Mo  Mo165  1  0.11321115  0.31440355  0.62643552  1
  Mo  Mo166  1  0.40019592  -0.01110717  0.49180728  1
  Mo  Mo167  1  -0.00766999  0.79691142  0.50414387  1
  Mo  Mo168  1  0.89226683  0.09325001  0.62667438  1
  Mo  Mo169  1  0.09729096  0.10325231  0.10407778  1
  Mo  Mo170  1  0.50494744  0.30356542  0.11438007  1
  Mo  Mo171  1  0.19143202  0.59429725  0.26466350  1
  Mo  Mo172  1  0.88829426  0.49908990  0.11887460  1
  Mo  Mo173  1  -0.00244737  0.21192869  0.74085958  1
  Mo  Mo174  1  0.20205639  -0.00547496  0.49594056  1
  Mo  Mo175  1  0.19603557  0.81267649  0.25564380  1
  Mo  Mo176  1  0.19459106  0.58996332  0.75092273  1
  Mo  Mo177  1  0.39245529  0.00143660  0.22997887  1
  Mo  Mo178  1  0.80238335  0.39347611  0.24796373  1
  Mo  Mo179  1  0.91097335  0.30167073  0.87074102  1
  Mo  Mo180  1  0.68496436  0.69407704  0.87811793  1
  Mo  Mo181  1  0.39465055  0.20522610  0.24856002  1
  Mo  Mo182  1  0.20210019  0.40084830  0.00627216  1
  Mo  Mo183  1  0.49622890  0.69765428  0.37575459  1
  Mo  Mo184  1  0.69559120  0.70020175  0.61281442  1
  Mo  Mo185  1  0.79723601  0.20084484  -0.00472333  1
  Mo  Mo186  1  0.49083860  0.89841373  0.37675416  1
  Mo  Mo187  1  0.30112772  0.50011157  0.61462303  1
  Mo  Mo188  1  0.00281142  0.59647693  0.74074345  1
  Mo  Mo189  1  0.20377355  0.19828473  -0.00420574  1
  Mo  Mo190  1  0.49873770  0.89670077  0.12506958  1
  Mo  Mo191  1  0.10981839  0.29927457  0.38023117  1
  Mo  Mo192  1  0.31024768  0.70399560  0.15221042  1
  Mo  Mo193  1  0.70581359  0.50092412  0.38537111  1
  Mo  Mo194  1  0.78890431  0.00794667  0.75107323  1
  Mo  Mo195  1  0.40358844  -0.00226589  0.74688037  1
  Mo  Mo196  1  0.19914861  0.20566002  0.24431112  1
  Mo  Mo197  1  0.40415648  0.40384322  0.48728652  1
  Mo  Mo198  1  0.40806888  0.41286351  -0.00290392  1
  Mo  Mo199  1  0.11945971  0.48953880  0.86740960  1
