# generated using pymatgen
data_HfZrTaTiMo
_symmetry_space_group_name_H-M   'P 1'
_cell_length_a   15.20240628
_cell_length_b   15.21636574
_cell_length_c   16.84817328
_cell_angle_alpha   90.04011010
_cell_angle_beta   89.85786141
_cell_angle_gamma   90.04551569
_symmetry_Int_Tables_number   1
_chemical_formula_structural   HfZrTaTiMo
_chemical_formula_sum   'Hf40 Zr40 Ta40 Ti40 Mo40'
_cell_volume   3897.39581590
_cell_formula_units_Z   40
loop_
 _symmetry_equiv_pos_site_id
 _symmetry_equiv_pos_as_xyz
  1  'x, y, z'
loop_
 _atom_site_type_symbol
 _atom_site_label
 _atom_site_symmetry_multiplicity
 _atom_site_fract_x
 _atom_site_fract_y
 _atom_site_fract_z
 _atom_site_occupancy
  Hf  Hf0  1  0.41158019  0.79748389  0.74397446  1
  Hf  Hf1  1  0.49483957  0.08609789  0.86239336  1
  Hf  Hf2  1  0.09399789  0.69575076  0.87346969  1
  Hf  Hf3  1  0.19785968  0.79059305  0.74907806  1
  Hf  Hf4  1  0.69554793  0.68261336  0.37299242  1
  Hf  Hf5  1  0.18674009  0.20911085  0.73252845  1
  Hf  Hf6  1  0.78896847  0.00333894  -0.00018590  1
  Hf  Hf7  1  0.58632445  0.60937450  0.74547606  1
  Hf  Hf8  1  0.51685402  0.51847164  0.37085613  1
  Hf  Hf9  1  0.80279644  0.37534371  0.25357049  1
  Hf  Hf10  1  0.49121809  0.10919560  0.36036425  1
  Hf  Hf11  1  0.30231752  0.30282868  0.11210381  1
  Hf  Hf12  1  0.20533232  0.00188043  -0.00653044  1
  Hf  Hf13  1  0.29457670  0.12100992  0.87597746  1
  Hf  Hf14  1  0.19260979  0.19700587  0.25178707  1
  Hf  Hf15  1  -0.00774509  0.41127735  0.25784240  1
  Hf  Hf16  1  0.80682350  0.39147672  0.75390536  1
  Hf  Hf17  1  0.80423370  0.78186853  0.50012059  1
  Hf  Hf18  1  -0.00622121  0.61674307  0.49702563  1
  Hf  Hf19  1  0.80665177  0.58163016  0.26147898  1
  Hf  Hf20  1  0.81930572  0.41927668  -0.02812803  1
  Hf  Hf21  1  0.38766923  0.01527339  0.50746953  1
  Hf  Hf22  1  0.61717763  0.41283537  0.25657365  1
  Hf  Hf23  1  0.79423765  0.79769710  0.74159729  1
  Hf  Hf24  1  0.60757763  0.60559741  -0.00593827  1
  Hf  Hf25  1  0.61606396  0.38972112  -0.00653127  1
  Hf  Hf26  1  0.07820781  0.10408288  0.62180672  1
  Hf  Hf27  1  0.22835712  0.41122957  0.75554155  1
  Hf  Hf28  1  0.89207872  0.10955503  0.12777205  1
  Hf  Hf29  1  0.69040559  0.88274212  0.11485771  1
  Hf  Hf30  1  0.29202324  0.08587800  0.36312333  1
  Hf  Hf31  1  0.60009982  -0.01398687  0.25182294  1
  Hf  Hf32  1  0.29679413  0.90774517  0.63323424  1
  Hf  Hf33  1  0.89226756  0.88906609  0.87685101  1
  Hf  Hf34  1  0.19081608  0.79961562  0.50289156  1
  Hf  Hf35  1  0.72688345  0.50021165  0.11608513  1
  Hf  Hf36  1  0.20026203  0.60582571  0.26501720  1
  Hf  Hf37  1  -0.01757362  0.58769039  -0.00043113  1
  Hf  Hf38  1  0.10026753  0.29957008  0.11851805  1
  Hf  Hf39  1  -0.01399743  0.00403020  0.49746132  1
  Zr  Zr40  1  0.50282151  0.72233354  0.36670852  1
  Zr  Zr41  1  -0.00250739  0.41265713  0.50428546  1
  Zr  Zr42  1  0.70803675  0.10147887  0.37588068  1
  Zr  Zr43  1  0.18900882  0.80047189  0.25323435  1
  Zr  Zr44  1  0.51292835  0.29564477  0.87216047  1
  Zr  Zr45  1  0.50683500  0.29635954  0.12717166  1
  Zr  Zr46  1  0.30921453  0.28535078  0.38130408  1
  Zr  Zr47  1  0.09695245  0.49223041  0.87047849  1
  Zr  Zr48  1  0.68181688  0.89129494  0.88368035  1
  Zr  Zr49  1  0.89844864  0.90374457  0.62112252  1
  Zr  Zr50  1  0.39950053  0.40219092  0.25872888  1
  Zr  Zr51  1  0.61508860  0.40038912  0.49712710  1
  Zr  Zr52  1  0.39289603  0.61034893  0.25282144  1
  Zr  Zr53  1  0.40360085  0.80106922  0.50753081  1
  Zr  Zr54  1  0.28274482  0.50645113  0.61026407  1
  Zr  Zr55  1  0.93398792  0.29808508  0.85629252  1
  Zr  Zr56  1  0.08927373  0.10235460  0.87345381  1
  Zr  Zr57  1  0.50867882  0.50811026  0.12688157  1
  Zr  Zr58  1  0.10356152  0.50311317  0.12946746  1
  Zr  Zr59  1  0.09131633  0.28867067  0.38937958  1
  Zr  Zr60  1  0.00862300  -0.00187318  0.25512696  1
  Zr  Zr61  1  0.80352134  -0.01315046  0.24701747  1
  Zr  Zr62  1  0.59637004  0.00263051  0.49742808  1
  Zr  Zr63  1  0.50107538  0.71726752  0.12469413  1
  Zr  Zr64  1  0.39071765  0.21946574  0.74986613  1
  Zr  Zr65  1  0.48683948  0.49681228  0.87226745  1
  Zr  Zr66  1  0.31405241  0.30861376  0.61007483  1
  Zr  Zr67  1  0.59723092  0.60904707  0.51983387  1
  Zr  Zr68  1  0.48210535  0.49654321  0.63203133  1
  Zr  Zr69  1  0.31284197  0.90594066  0.86622111  1
  Zr  Zr70  1  0.10238358  0.10161614  0.12111346  1
  Zr  Zr71  1  0.09578033  0.89603214  0.12224262  1
  Zr  Zr72  1  0.13783679  0.29396351  0.89306944  1
  Zr  Zr73  1  0.49778655  0.11030769  0.63597438  1
  Zr  Zr74  1  0.79995607  0.21397668  -0.01598349  1
  Zr  Zr75  1  -0.00939680  -0.00563833  -0.00196034  1
  Zr  Zr76  1  0.31030987  0.09491306  0.13711741  1
  Zr  Zr77  1  0.20155976  0.40399432  0.26373757  1
  Zr  Zr78  1  0.87753557  0.30118098  0.39635111  1
  Zr  Zr79  1  0.79398410  0.59930136  0.73917124  1
  Ta  Ta80  1  0.29719435  0.89636186  0.37775668  1
  Ta  Ta81  1  0.60349485  0.79782613  0.73382087  1
  Ta  Ta82  1  0.89170278  0.68748525  0.87172652  1
  Ta  Ta83  1  0.59706295  -0.01032986  0.74584726  1
  Ta  Ta84  1  -0.01619944  0.21033687  0.25132732  1
  Ta  Ta85  1  0.09719940  0.89650679  0.86899517  1
  Ta  Ta86  1  0.37460057  0.59910762  0.75853669  1
  Ta  Ta87  1  0.40820810  -0.00292858  0.00125649  1
  Ta  Ta88  1  0.00542266  0.39741719  0.00148140  1
  Ta  Ta89  1  0.08996642  0.70033317  0.12032237  1
  Ta  Ta90  1  0.50389473  0.09993160  0.13536218  1
  Ta  Ta91  1  0.20643303  0.18739298  0.51052775  1
  Ta  Ta92  1  0.91492331  0.28316839  0.62745480  1
  Ta  Ta93  1  0.19764124  0.79828123  -0.00466071  1
  Ta  Ta94  1  0.90064956  0.88698125  0.38222804  1
  Ta  Ta95  1  0.39407840  0.60587644  0.00099846  1
  Ta  Ta96  1  0.19579675  0.60585725  0.48057981  1
  Ta  Ta97  1  0.19672329  0.60100664  0.00178728  1
  Ta  Ta98  1  0.19409592  0.00582479  0.74595192  1
  Ta  Ta99  1  0.71097953  0.29077142  0.62794084  1
  Ta  Ta100  1  0.69394479  0.10126186  0.86630156  1
  Ta  Ta101  1  -0.00292848  0.61328485  0.25711897  1
  Ta  Ta102  1  -0.00930411  0.78906724  -0.00202031  1
  Ta  Ta103  1  0.40904930  0.40903052  0.48193553  1
  Ta  Ta104  1  0.29816396  0.69346817  0.62306351  1
  Ta  Ta105  1  0.51354338  0.29856843  0.37013424  1
  Ta  Ta106  1  -0.00879534  -0.00038768  0.75147137  1
  Ta  Ta107  1  0.70062804  0.90267705  0.61581763  1
  Ta  Ta108  1  0.61787578  0.20783125  0.25089823  1
  Ta  Ta109  1  0.79916219  0.57488389  0.50359944  1
  Ta  Ta110  1  0.81000496  0.17892202  0.51436528  1
  Ta  Ta111  1  0.90466513  0.10246704  0.37201805  1
  Ta  Ta112  1  0.30198437  0.89542233  0.12103679  1
  Ta  Ta113  1  0.88664184  0.68946543  0.12268359  1
  Ta  Ta114  1  0.39228037  0.81616087  0.25057270  1
  Ta  Ta115  1  0.29973081  0.69851243  0.88308309  1
  Ta  Ta116  1  0.60444537  0.18387219  -0.00265642  1
  Ta  Ta117  1  0.70373202  0.09207481  0.62929281  1
  Ta  Ta118  1  0.00478198  0.59232459  0.74083886  1
  Ta  Ta119  1  0.49821667  0.71926521  0.88448151  1
  Ti  Ti120  1  0.29283281  0.70466692  0.11791610  1
  Ti  Ti121  1  0.89539785  0.09649091  0.87002644  1
  Ti  Ti122  1  0.40783032  0.19684001  -0.00097291  1
  Ti  Ti123  1  0.89959191  0.31170586  0.11721516  1
  Ti  Ti124  1  -0.00076557  0.19986902  0.00087952  1
  Ti  Ti125  1  0.69513508  0.10008173  0.12808304  1
  Ti  Ti126  1  0.58997434  -0.00046439  0.00089717  1
  Ti  Ti127  1  0.39151208  0.60795653  0.48756349  1
  Ti  Ti128  1  0.08232979  0.72044296  0.37757861  1
  Ti  Ti129  1  0.09164340  0.89438169  0.63102284  1
  Ti  Ti130  1  0.89005387  0.88326069  0.11709764  1
  Ti  Ti131  1  0.09911996  0.90920858  0.37981790  1
  Ti  Ti132  1  0.30379683  0.50342702  0.11865706  1
  Ti  Ti133  1  0.10064355  0.69168528  0.62628716  1
  Ti  Ti134  1  0.41407913  0.20756024  0.50429057  1
  Ti  Ti135  1  0.69853147  0.70354686  0.87735477  1
  Ti  Ti136  1  0.50090044  0.90736200  0.62572434  1
  Ti  Ti137  1  0.59892071  0.79824402  0.51622292  1
  Ti  Ti138  1  0.69491809  0.88648663  0.38391586  1
  Ti  Ti139  1  0.51525205  0.31111650  0.63371213  1
  Ti  Ti140  1  0.90762242  0.49020835  0.63204972  1
  Ti  Ti141  1  0.09838883  0.09955033  0.38227865  1
  Ti  Ti142  1  0.69664057  0.69482550  0.13213302  1
  Ti  Ti143  1  0.10583134  0.31662847  0.61253524  1
  Ti  Ti144  1  0.80893860  0.18800877  0.74916954  1
  Ti  Ti145  1  0.61562359  0.20498185  0.74945821  1
  Ti  Ti146  1  0.79258571  0.79049384  0.25717795  1
  Ti  Ti147  1  0.19238280  -0.00130541  0.50942689  1
  Ti  Ti148  1  -0.01881020  0.79730730  0.24681388  1
  Ti  Ti149  1  0.69610050  0.48795989  0.63447939  1
  Ti  Ti150  1  0.90281428  0.69745607  0.62587010  1
  Ti  Ti151  1  0.69753625  0.50106670  0.86280385  1
  Ti  Ti152  1  0.09175467  0.50755697  0.37602374  1
  Ti  Ti153  1  0.70949618  0.28930005  0.12022533  1
  Ti  Ti154  1  0.60754108  0.20316463  0.50275929  1
  Ti  Ti155  1  -0.00448777  0.79476308  0.75088883  1
  Ti  Ti156  1  0.20440977  0.40620648  0.48403875  1
  Ti  Ti157  1  0.49307374  0.91006055  0.37429646  1
  Ti  Ti158  1  0.79153948  -0.00361284  0.75404714  1
  Ti  Ti159  1  0.49320337  0.90403698  0.12419695  1
  Mo  Mo160  1  0.79661062  0.78122055  0.00155445  1
  Mo  Mo161  1  0.29484998  0.70921613  0.37942045  1
  Mo  Mo162  1  0.20357414  -0.01384945  0.25544714  1
  Mo  Mo163  1  0.02032808  0.39479406  0.72841431  1
  Mo  Mo164  1  0.90849781  0.50429161  0.85563453  1
  Mo  Mo165  1  0.29524554  0.50586499  0.89009260  1
  Mo  Mo166  1  0.39477902  0.00520244  0.73963057  1
  Mo  Mo167  1  0.00500956  0.80273066  0.50485664  1
  Mo  Mo168  1  0.71770935  0.48412630  0.38518497  1
  Mo  Mo169  1  0.28990127  0.10200255  0.62573986  1
  Mo  Mo170  1  0.00203608  0.19710554  0.50006437  1
  Mo  Mo171  1  0.41005063  0.40917872  0.00910411  1
  Mo  Mo172  1  0.39042562  0.80634511  0.00226209  1
  Mo  Mo173  1  0.70732525  0.29188114  0.86396914  1
  Mo  Mo174  1  0.79674979  0.60655275  -0.00990939  1
  Mo  Mo175  1  0.61348481  0.60648785  0.24555995  1
  Mo  Mo176  1  0.40746392  0.40950394  0.75104022  1
  Mo  Mo177  1  0.50001343  0.89996520  0.87241292  1
  Mo  Mo178  1  0.69783572  0.28786242  0.38758388  1
  Mo  Mo179  1  0.39988809  -0.00764139  0.24687330  1
  Mo  Mo180  1  0.21059068  0.41343757  0.00464578  1
  Mo  Mo181  1  0.80216540  0.39160653  0.52537258  1
  Mo  Mo182  1  0.79408226  -0.00889771  0.49111788  1
  Mo  Mo183  1  0.09975226  0.50704554  0.62355404  1
  Mo  Mo184  1  0.60942487  0.39767394  0.74588371  1
  Mo  Mo185  1  0.89817539  0.50377702  0.38376014  1
  Mo  Mo186  1  -0.00049938  0.19508423  0.74732921  1
  Mo  Mo187  1  0.90626479  0.49824234  0.12464330  1
  Mo  Mo188  1  0.70014451  0.70024535  0.62023956  1
  Mo  Mo189  1  0.80164919  0.19549643  0.24588418  1
  Mo  Mo190  1  0.48872312  0.70200582  0.62689265  1
  Mo  Mo191  1  0.58939806  0.80295173  -0.00038946  1
  Mo  Mo192  1  0.88564978  0.09531832  0.63441185  1
  Mo  Mo193  1  0.40907067  0.20161999  0.24891152  1
  Mo  Mo194  1  0.30096106  0.50443225  0.38727140  1
  Mo  Mo195  1  0.21214002  0.19866068  0.00835588  1
  Mo  Mo196  1  0.19731526  0.60722475  0.75009952  1
  Mo  Mo197  1  0.32623767  0.32639081  0.90359912  1
  Mo  Mo198  1  0.89872610  0.70409269  0.37123365  1
  Mo  Mo199  1  0.60312706  0.80279725  0.25381556  1
