# generated using pymatgen
data_HfZrTaTiMo
_symmetry_space_group_name_H-M   'P 1'
_cell_length_a   15.18743893
_cell_length_b   15.18816503
_cell_length_c   16.79124882
_cell_angle_alpha   89.96520269
_cell_angle_beta   90.03000245
_cell_angle_gamma   89.88202427
_symmetry_Int_Tables_number   1
_chemical_formula_structural   HfZrTaTiMo
_chemical_formula_sum   'Hf40 Zr40 Ta40 Ti40 Mo40'
_cell_volume   3873.21663916
_cell_formula_units_Z   40
loop_
 _symmetry_equiv_pos_site_id
 _symmetry_equiv_pos_as_xyz
  1  'x, y, z'
loop_
 _atom_site_type_symbol
 _atom_site_label
 _atom_site_symmetry_multiplicity
 _atom_site_fract_x
 _atom_site_fract_y
 _atom_site_fract_z
 _atom_site_occupancy
  Hf  Hf0  1  0.69721646  0.49435415  0.87958927  1
  Hf  Hf1  1  0.91210010  0.91082714  0.10695503  1
  Hf  Hf2  1  0.09951203  0.68322836  0.10540034  1
  Hf  Hf3  1  0.50059293  0.30741630  0.38441282  1
  Hf  Hf4  1  0.71278527  0.70482837  0.88643046  1
  Hf  Hf5  1  0.10251899  0.30572113  0.37879700  1
  Hf  Hf6  1  0.89839041  0.31954579  0.13280403  1
  Hf  Hf7  1  0.89015557  0.10846301  0.11508260  1
  Hf  Hf8  1  0.50024655  0.29535414  0.60021348  1
  Hf  Hf9  1  0.50653355  0.29037600  0.13285198  1
  Hf  Hf10  1  0.20296173  0.60573361  0.52199916  1
  Hf  Hf11  1  -0.00304374  0.60637616  0.49610337  1
  Hf  Hf12  1  0.70177199  0.70026123  0.12267022  1
  Hf  Hf13  1  0.81016374  0.19878686  0.49383977  1
  Hf  Hf14  1  0.70677087  0.48980603  0.13038342  1
  Hf  Hf15  1  0.02087289  0.79862048  0.74936343  1
  Hf  Hf16  1  0.49810977  0.51210477  0.38985192  1
  Hf  Hf17  1  0.30359839  0.89404004  0.86436448  1
  Hf  Hf18  1  0.08784782  0.30957578  0.86621239  1
  Hf  Hf19  1  0.60678685  0.77312930  0.51876870  1
  Hf  Hf20  1  0.81662501  0.58908295  -0.00220972  1
  Hf  Hf21  1  0.91027062  0.90207437  0.62380427  1
  Hf  Hf22  1  -0.00152974  0.80597728  0.25558977  1
  Hf  Hf23  1  0.50087442  0.87947362  0.38450748  1
  Hf  Hf24  1  0.18622639  0.39911409  -0.00268708  1
  Hf  Hf25  1  0.68252329  0.11729336  0.87659399  1
  Hf  Hf26  1  0.50207615  0.90708577  0.86511603  1
  Hf  Hf27  1  0.01120826  0.60698596  0.25828163  1
  Hf  Hf28  1  0.90012353  0.89301643  0.88899801  1
  Hf  Hf29  1  -0.00154633  0.40621442  0.51468951  1
  Hf  Hf30  1  0.59496020  -0.01319819  0.25350648  1
  Hf  Hf31  1  0.89911471  0.90926959  0.38060425  1
  Hf  Hf32  1  0.30030513  0.69245880  0.12592831  1
  Hf  Hf33  1  0.19727485  0.19919883  0.74446817  1
  Hf  Hf34  1  0.89232617  0.10451213  0.63312119  1
  Hf  Hf35  1  0.40343801  0.79261794  0.73572702  1
  Hf  Hf36  1  0.50268423  0.68433862  0.86604137  1
  Hf  Hf37  1  0.61617685  0.78157721  0.73654801  1
  Hf  Hf38  1  0.30986064  0.28874887  0.87647622  1
  Hf  Hf39  1  0.59381698  0.80799119  0.00164830  1
  Zr  Zr40  1  0.39021302  0.58572202  0.24883392  1
  Zr  Zr41  1  0.79249265  0.60391663  0.49416953  1
  Zr  Zr42  1  0.39519808  -0.00609123  0.50008845  1
  Zr  Zr43  1  0.70121904  0.30690973  0.37181013  1
  Zr  Zr44  1  0.90416438  0.70963746  0.10884073  1
  Zr  Zr45  1  0.00214406  0.19504689  0.24936339  1
  Zr  Zr46  1  0.00781237  0.79936260  0.49720515  1
  Zr  Zr47  1  0.39691279  0.77386741  0.52223448  1
  Zr  Zr48  1  0.90378870  0.30332217  0.37184538  1
  Zr  Zr49  1  0.29100462  0.89863481  0.37926412  1
  Zr  Zr50  1  0.69549551  0.30401981  0.61127838  1
  Zr  Zr51  1  0.29095319  0.29908826  0.37792115  1
  Zr  Zr52  1  0.20317786  0.20028022  0.23601915  1
  Zr  Zr53  1  0.21199488  -0.00167080  0.00251701  1
  Zr  Zr54  1  0.38822240  0.18588055  0.48529683  1
  Zr  Zr55  1  0.69554451  0.89982275  0.38996085  1
  Zr  Zr56  1  0.78877860  0.40161485  0.74593977  1
  Zr  Zr57  1  0.40415551  0.37552369  0.74570490  1
  Zr  Zr58  1  0.68673305  0.10838214  0.13116761  1
  Zr  Zr59  1  0.59225083  0.58969907  0.00629494  1
  Zr  Zr60  1  0.39904399  0.79533715  -0.00249278  1
  Zr  Zr61  1  0.00035646  0.22527556  0.00317365  1
  Zr  Zr62  1  0.39515643  0.57952649  0.74010551  1
  Zr  Zr63  1  0.79590027  0.80820344  0.25277819  1
  Zr  Zr64  1  0.19111346  -0.00585281  0.74771960  1
  Zr  Zr65  1  0.00387448  0.00910485  0.76070115  1
  Zr  Zr66  1  0.50051693  0.49789267  0.60285488  1
  Zr  Zr67  1  0.70250913  0.90614302  0.11563766  1
  Zr  Zr68  1  0.50630614  0.90819138  0.62090717  1
  Zr  Zr69  1  0.89830782  0.11813236  0.87692492  1
  Zr  Zr70  1  0.20270844  0.41053358  0.73738458  1
  Zr  Zr71  1  0.09528381  0.09036602  0.12273255  1
  Zr  Zr72  1  0.19493035  0.79183950  0.24145321  1
  Zr  Zr73  1  0.00654534  0.01496810  0.49573727  1
  Zr  Zr74  1  0.70021002  0.90589389  0.87814888  1
  Zr  Zr75  1  0.40266374  0.39157854  0.00285627  1
  Zr  Zr76  1  0.90097787  0.49545538  0.36800485  1
  Zr  Zr77  1  0.71600759  0.90446132  0.61779374  1
  Zr  Zr78  1  0.30435318  0.69159084  0.37544200  1
  Zr  Zr79  1  0.59842572  0.01221038  0.74426304  1
  Ta  Ta80  1  0.91609488  0.69675664  0.88167677  1
  Ta  Ta81  1  0.59321541  0.40702867  0.74811145  1
  Ta  Ta82  1  0.20486669  0.41238324  0.24455832  1
  Ta  Ta83  1  0.70197075  0.09857290  0.36603703  1
  Ta  Ta84  1  0.39947485  0.18523294  0.00861429  1
  Ta  Ta85  1  0.48689348  0.90686046  0.12879564  1
  Ta  Ta86  1  0.29902539  0.49221421  0.39468566  1
  Ta  Ta87  1  0.40520136  0.80514323  0.24712461  1
  Ta  Ta88  1  0.77703140  0.21891310  -0.00162482  1
  Ta  Ta89  1  0.91260004  0.49907764  0.86006599  1
  Ta  Ta90  1  0.49490951  0.09707108  0.13787230  1
  Ta  Ta91  1  0.09406923  0.49205600  0.12046258  1
  Ta  Ta92  1  0.00783950  0.20489274  0.50913776  1
  Ta  Ta93  1  0.68320795  0.69886780  0.36592904  1
  Ta  Ta94  1  0.59517518  0.60211017  0.24536191  1
  Ta  Ta95  1  0.79940615  0.20005235  0.25485776  1
  Ta  Ta96  1  0.49616545  0.49420744  0.12435455  1
  Ta  Ta97  1  0.10593242  0.89228481  0.88662246  1
  Ta  Ta98  1  0.11374537  0.50194709  0.38004952  1
  Ta  Ta99  1  0.20358691  0.19918353  0.00686837  1
  Ta  Ta100  1  0.48152135  0.11428891  0.87076530  1
  Ta  Ta101  1  0.10604537  0.69171219  0.88238446  1
  Ta  Ta102  1  0.79941785  0.00421247  0.75664823  1
  Ta  Ta103  1  0.40327525  0.18918375  0.26130079  1
  Ta  Ta104  1  0.49895390  0.70026952  0.13001046  1
  Ta  Ta105  1  0.40431164  -0.00195328  -0.00074314  1
  Ta  Ta106  1  0.20745955  0.79174165  -0.00026008  1
  Ta  Ta107  1  0.29944375  0.09909022  0.62815688  1
  Ta  Ta108  1  0.79436735  0.01346250  -0.00731001  1
  Ta  Ta109  1  0.58477206  0.21753782  0.74756991  1
  Ta  Ta110  1  0.49790860  0.48093586  0.87973431  1
  Ta  Ta111  1  0.90322294  0.69750546  0.63375277  1
  Ta  Ta112  1  0.19340986  0.39806524  0.52083039  1
  Ta  Ta113  1  0.69594979  0.50019201  0.36671245  1
  Ta  Ta114  1  0.80362199  0.60559924  0.25527790  1
  Ta  Ta115  1  0.59087874  0.40490801  0.25205452  1
  Ta  Ta116  1  0.90265399  0.30432257  0.63231826  1
  Ta  Ta117  1  0.69904496  0.30005184  0.13993675  1
  Ta  Ta118  1  0.29216803  0.69084393  0.86216063  1
  Ta  Ta119  1  0.89129958  0.50970205  0.63797793  1
  Ti  Ti120  1  0.29077251  0.49840814  0.11803156  1
  Ti  Ti121  1  0.39276639  0.59490096  -0.00316765  1
  Ti  Ti122  1  0.79412368  0.61017967  0.75553274  1
  Ti  Ti123  1  0.10686396  0.90378798  0.37665398  1
  Ti  Ti124  1  0.31232037  0.08399650  0.13363162  1
  Ti  Ti125  1  0.29159998  0.89767940  0.63183808  1
  Ti  Ti126  1  0.78598498  0.20278094  0.75086339  1
  Ti  Ti127  1  0.20484656  -0.00914499  0.24373799  1
  Ti  Ti128  1  0.11059012  0.70221835  0.37799703  1
  Ti  Ti129  1  0.30174288  0.29835098  0.12567268  1
  Ti  Ti130  1  0.10568083  0.89080215  0.11147043  1
  Ti  Ti131  1  0.00060636  0.20721619  0.74353172  1
  Ti  Ti132  1  0.09849971  0.51008647  0.86302347  1
  Ti  Ti133  1  0.81258566  0.00701709  0.25149022  1
  Ti  Ti134  1  0.29367835  0.50124952  0.87708074  1
  Ti  Ti135  1  0.11615990  0.09955728  0.37278637  1
  Ti  Ti136  1  0.49834676  0.10589864  0.61953644  1
  Ti  Ti137  1  0.79657356  0.01091329  0.49704659  1
  Ti  Ti138  1  0.00522649  0.00188017  0.25751688  1
  Ti  Ti139  1  0.81286623  0.80330684  0.75162390  1
  Ti  Ti140  1  0.79971461  0.40863408  0.50738274  1
  Ti  Ti141  1  0.58739493  0.01823030  0.00160895  1
  Ti  Ti142  1  0.30256867  0.29494458  0.61668050  1
  Ti  Ti143  1  0.88851661  0.31019615  0.86585306  1
  Ti  Ti144  1  0.50056454  0.08838648  0.37035271  1
  Ti  Ti145  1  0.19565270  0.80309338  0.52027699  1
  Ti  Ti146  1  0.19007993  0.19316942  0.51180082  1
  Ti  Ti147  1  0.29512849  0.09678730  0.87277920  1
  Ti  Ti148  1  0.80446458  0.39637871  -0.00431977  1
  Ti  Ti149  1  0.69036143  0.51747788  0.62367440  1
  Ti  Ti150  1  0.01236352  0.40320427  0.24893682  1
  Ti  Ti151  1  0.39652297  0.01033176  0.74309711  1
  Ti  Ti152  1  0.90851657  0.50976849  0.13212185  1
  Ti  Ti153  1  0.60402576  0.18346964  0.48824385  1
  Ti  Ti154  1  0.39509745  0.39465504  0.24925574  1
  Ti  Ti155  1  0.19633089  0.00445839  0.51034527  1
  Ti  Ti156  1  0.08726801  0.51326004  0.64095539  1
  Ti  Ti157  1  0.80947918  0.78917281  0.49668960  1
  Ti  Ti158  1  0.69204044  0.10438790  0.62335097  1
  Ti  Ti159  1  0.01075233  0.01369245  -0.01630844  1
  Mo  Mo160  1  0.80433866  0.80348250  -0.00018122  1
  Mo  Mo161  1  0.09877020  0.10573652  0.62304625  1
  Mo  Mo162  1  0.61457759  0.40683730  0.49308594  1
  Mo  Mo163  1  0.38875330  0.39808578  0.50103895  1
  Mo  Mo164  1  0.29437042  0.69515504  0.64231273  1
  Mo  Mo165  1  0.72286564  0.68897214  0.63272787  1
  Mo  Mo166  1  0.89417743  0.70384750  0.37042269  1
  Mo  Mo167  1  0.10641238  0.90570009  0.61971424  1
  Mo  Mo168  1  0.80032977  0.40773868  0.24565976  1
  Mo  Mo169  1  0.59461766  0.19768486  0.26484003  1
  Mo  Mo170  1  0.30085294  0.89775526  0.12899437  1
  Mo  Mo171  1  0.39280595  -0.00095980  0.25900406  1
  Mo  Mo172  1  0.19097072  0.60907122  0.73918060  1
  Mo  Mo173  1  0.60367418  0.01199015  0.49845166  1
  Mo  Mo174  1  0.09451419  0.70461607  0.62878771  1
  Mo  Mo175  1  0.10762863  0.31161506  0.12490278  1
  Mo  Mo176  1  0.21233146  0.59101022  -0.00972311  1
  Mo  Mo177  1  0.39838058  0.60145477  0.50876361  1
  Mo  Mo178  1  0.10998687  0.11096455  0.88585903  1
  Mo  Mo179  1  -0.00335299  0.39968504  0.73950357  1
  Mo  Mo180  1  0.20270975  0.79520518  0.74654023  1
  Mo  Mo181  1  0.51160318  0.29238228  0.88100657  1
  Mo  Mo182  1  0.69387363  0.30479334  0.87303184  1
  Mo  Mo183  1  0.61427476  0.38145603  0.00433305  1
  Mo  Mo184  1  0.50151644  0.70061797  0.36829565  1
  Mo  Mo185  1  0.60358185  0.60180822  0.49489233  1
  Mo  Mo186  1  0.29912916  0.49195873  0.61277728  1
  Mo  Mo187  1  0.09688140  0.30000106  0.62854625  1
  Mo  Mo188  1  0.39852670  0.18999197  0.74132902  1
  Mo  Mo189  1  0.89992519  0.10054710  0.37152165  1
  Mo  Mo190  1  0.59244078  0.79349661  0.24358819  1
  Mo  Mo191  1  0.00947131  0.58470523  -0.00887531  1
  Mo  Mo192  1  0.19479784  0.58679722  0.25286155  1
  Mo  Mo193  1  0.51410362  0.68202305  0.64048669  1
  Mo  Mo194  1  0.60558963  0.58661035  0.75481136  1
  Mo  Mo195  1  0.28728244  0.09188569  0.36786018  1
  Mo  Mo196  1  -0.00639265  0.60276114  0.75221127  1
  Mo  Mo197  1  -0.01609198  0.41687654  -0.00400274  1
  Mo  Mo198  1  0.58736884  0.20576841  0.00185765  1
  Mo  Mo199  1  0.01343642  0.80235575  -0.00770948  1
