# generated using pymatgen
data_HfZrTaTiMo
_symmetry_space_group_name_H-M   'P 1'
_cell_length_a   15.21277322
_cell_length_b   15.20244722
_cell_length_c   16.83825682
_cell_angle_alpha   90.03651225
_cell_angle_beta   90.01225232
_cell_angle_gamma   90.12939342
_symmetry_Int_Tables_number   1
_chemical_formula_structural   HfZrTaTiMo
_chemical_formula_sum   'Hf40 Zr40 Ta40 Ti40 Mo40'
_cell_volume   3894.19611362
_cell_formula_units_Z   40
loop_
 _symmetry_equiv_pos_site_id
 _symmetry_equiv_pos_as_xyz
  1  'x, y, z'
loop_
 _atom_site_type_symbol
 _atom_site_label
 _atom_site_symmetry_multiplicity
 _atom_site_fract_x
 _atom_site_fract_y
 _atom_site_fract_z
 _atom_site_occupancy
  Hf  Hf0  1  -0.00724540  -0.00677123  0.22762512  1
  Hf  Hf1  1  0.89188862  0.08751646  0.35372528  1
  Hf  Hf2  1  0.89673225  0.68378657  0.12510686  1
  Hf  Hf3  1  0.39911807  0.58900655  0.51151056  1
  Hf  Hf4  1  0.60540054  0.01863421  0.75544026  1
  Hf  Hf5  1  0.40664045  0.81397617  0.26398135  1
  Hf  Hf6  1  0.00040809  0.78421076  0.25004540  1
  Hf  Hf7  1  0.11676897  0.28896052  0.36835091  1
  Hf  Hf8  1  0.49419243  0.30157947  0.38410978  1
  Hf  Hf9  1  0.80900903  0.00897553  0.01316157  1
  Hf  Hf10  1  0.88831789  0.27036035  0.88302108  1
  Hf  Hf11  1  0.31061401  0.90008707  0.12846422  1
  Hf  Hf12  1  0.09153612  0.70778123  0.87125402  1
  Hf  Hf13  1  0.18313409  0.00519063  0.49134919  1
  Hf  Hf14  1  0.30825155  0.88192926  0.87110695  1
  Hf  Hf15  1  0.70221498  0.12903556  0.88271355  1
  Hf  Hf16  1  0.09839725  0.68822329  0.39349604  1
  Hf  Hf17  1  0.19576720  0.21467571  0.75795568  1
  Hf  Hf18  1  -0.00215729  0.18043461  0.49679629  1
  Hf  Hf19  1  0.40353138  0.00156844  -0.00211632  1
  Hf  Hf20  1  0.29941515  0.10085944  0.88246793  1
  Hf  Hf21  1  0.90303454  0.48179492  0.86065671  1
  Hf  Hf22  1  0.29628967  0.29779669  0.89905778  1
  Hf  Hf23  1  0.90761507  0.90301575  0.63287556  1
  Hf  Hf24  1  0.90377043  0.49287230  0.62324745  1
  Hf  Hf25  1  0.39379013  0.62112188  0.00638710  1
  Hf  Hf26  1  0.00037009  0.38285869  0.48804364  1
  Hf  Hf27  1  0.01859490  0.38915655  0.74352601  1
  Hf  Hf28  1  0.50933571  0.51011468  0.87838044  1
  Hf  Hf29  1  0.88331532  0.69206936  0.86788996  1
  Hf  Hf30  1  0.39851212  0.60348149  0.24070297  1
  Hf  Hf31  1  0.11988740  0.49713187  0.38722273  1
  Hf  Hf32  1  0.29585619  0.11854482  0.36758422  1
  Hf  Hf33  1  0.41284582  0.80418386  0.48834961  1
  Hf  Hf34  1  0.29873594  0.50593923  0.87871863  1
  Hf  Hf35  1  0.88640988  0.28585085  0.62533481  1
  Hf  Hf36  1  0.09004417  0.49816834  0.12415842  1
  Hf  Hf37  1  0.00546839  0.39389842  0.26191511  1
  Hf  Hf38  1  0.09241868  0.09980786  0.35733890  1
  Hf  Hf39  1  0.80268457  0.59532024  0.26601127  1
  Zr  Zr40  1  -0.01040819  0.58910760  -0.00514989  1
  Zr  Zr41  1  0.78781959  0.59552816  0.49389655  1
  Zr  Zr42  1  0.59191094  0.20392226  0.23783479  1
  Zr  Zr43  1  0.79450976  0.38752096  0.47762863  1
  Zr  Zr44  1  0.50984994  0.50531171  0.12381016  1
  Zr  Zr45  1  0.47804733  0.71673828  0.87624182  1
  Zr  Zr46  1  0.61568979  0.40630676  -0.00329514  1
  Zr  Zr47  1  0.20887522  0.80901029  0.48988874  1
  Zr  Zr48  1  0.70664667  0.49527614  0.63897291  1
  Zr  Zr49  1  0.68798192  0.90173439  0.35929989  1
  Zr  Zr50  1  0.80804640  0.38972254  0.27572642  1
  Zr  Zr51  1  0.41673359  0.19548001  0.75737613  1
  Zr  Zr52  1  0.79518360  0.81902359  0.49225606  1
  Zr  Zr53  1  0.70572445  0.90984566  0.63440888  1
  Zr  Zr54  1  0.29916569  0.90030192  0.63264703  1
  Zr  Zr55  1  0.60182987  -0.00990433  0.49716389  1
  Zr  Zr56  1  0.30156923  0.49720211  0.11880739  1
  Zr  Zr57  1  0.51643551  0.70845908  0.37253053  1
  Zr  Zr58  1  0.50586955  0.11748759  0.60644832  1
  Zr  Zr59  1  0.09019840  0.70257436  0.60868930  1
  Zr  Zr60  1  0.18723431  0.80210274  0.74984562  1
  Zr  Zr61  1  0.38598712  0.00091493  0.49085421  1
  Zr  Zr62  1  0.70080782  0.90863263  0.88160084  1
  Zr  Zr63  1  0.11132513  0.29578210  0.61907231  1
  Zr  Zr64  1  0.79303266  0.79431222  -0.00277459  1
  Zr  Zr65  1  0.29388037  0.10940796  0.63097699  1
  Zr  Zr66  1  -0.00293518  0.60227189  0.74382796  1
  Zr  Zr67  1  0.10941276  0.88225660  0.12864040  1
  Zr  Zr68  1  0.70982735  0.50903077  0.85709964  1
  Zr  Zr69  1  0.71568924  0.11191502  0.62257896  1
  Zr  Zr70  1  0.21124891  0.79458647  -0.00557590  1
  Zr  Zr71  1  0.60765301  0.40919169  0.25792600  1
  Zr  Zr72  1  0.09054355  0.30056047  0.89921939  1
  Zr  Zr73  1  0.49572063  0.50847523  0.36849951  1
  Zr  Zr74  1  0.40061319  0.38873238  0.76155423  1
  Zr  Zr75  1  0.39990914  0.60213457  0.73865988  1
  Zr  Zr76  1  0.50084809  0.10765506  0.38102675  1
  Zr  Zr77  1  -0.01074151  0.17679865  0.75336823  1
  Zr  Zr78  1  0.41323229  -0.00925695  0.75640739  1
  Zr  Zr79  1  0.88804893  0.70443652  0.61880103  1
  Ta  Ta80  1  0.20518798  0.19441875  0.22428042  1
  Ta  Ta81  1  0.59419126  0.61035053  0.73321085  1
  Ta  Ta82  1  0.00224698  -0.00878285  0.01489175  1
  Ta  Ta83  1  0.30965714  0.28945609  0.10866946  1
  Ta  Ta84  1  0.51468374  0.28031448  0.89389081  1
  Ta  Ta85  1  0.08602594  0.89589987  0.36664996  1
  Ta  Ta86  1  -0.01121765  0.18113183  0.02115427  1
  Ta  Ta87  1  0.90608234  0.71089922  0.38787442  1
  Ta  Ta88  1  0.19621402  0.58788355  0.74095926  1
  Ta  Ta89  1  0.29515607  0.69539743  0.62078803  1
  Ta  Ta90  1  0.68057876  0.70514897  0.86596517  1
  Ta  Ta91  1  0.22894379  0.38929805  0.49638835  1
  Ta  Ta92  1  0.79792733  0.80572520  0.75823195  1
  Ta  Ta93  1  0.59399985  0.60963006  0.51916716  1
  Ta  Ta94  1  0.60697444  0.62132586  0.00329016  1
  Ta  Ta95  1  0.69742503  0.10629583  0.36504373  1
  Ta  Ta96  1  0.79935916  0.79982212  0.25402728  1
  Ta  Ta97  1  0.21191859  0.39399987  0.23755553  1
  Ta  Ta98  1  0.69939516  0.70639963  0.12968413  1
  Ta  Ta99  1  0.19566606  0.60018899  0.25000079  1
  Ta  Ta100  1  0.10612646  0.49947581  0.87583045  1
  Ta  Ta101  1  0.20393064  -0.00534457  0.24964956  1
  Ta  Ta102  1  0.11073889  0.49999982  0.60332906  1
  Ta  Ta103  1  0.60058341  0.41484847  0.49441171  1
  Ta  Ta104  1  0.39930755  0.01579629  0.25148757  1
  Ta  Ta105  1  0.10079313  0.29875059  0.11424075  1
  Ta  Ta106  1  0.82046993  0.01318918  0.76811403  1
  Ta  Ta107  1  0.30324088  0.47662973  0.63002012  1
  Ta  Ta108  1  0.19386634  0.60423147  -0.00164143  1
  Ta  Ta109  1  0.58494474  0.80872655  0.74984761  1
  Ta  Ta110  1  0.60434031  0.01882661  0.01128453  1
  Ta  Ta111  1  0.70528142  0.31268512  0.12796235  1
  Ta  Ta112  1  0.49057039  0.31574671  0.60943563  1
  Ta  Ta113  1  0.89563175  0.48701061  0.12981307  1
  Ta  Ta114  1  0.09186668  0.09481939  0.89257534  1
  Ta  Ta115  1  0.68458654  0.29984664  0.61569608  1
  Ta  Ta116  1  0.30050141  0.68445418  0.37721275  1
  Ta  Ta117  1  0.78822583  0.20033175  0.02358450  1
  Ta  Ta118  1  0.71311753  0.50896797  0.12652570  1
  Ta  Ta119  1  0.81191178  0.39850296  -0.00127557  1
  Ti  Ti120  1  0.69420346  0.90029512  0.13041881  1
  Ti  Ti121  1  0.79061453  0.59131491  -0.00272217  1
  Ti  Ti122  1  0.50668336  0.90418382  0.12191628  1
  Ti  Ti123  1  0.80363981  0.00905026  0.49107708  1
  Ti  Ti124  1  0.00307395  0.79702879  0.00463749  1
  Ti  Ti125  1  0.50374632  0.89141967  0.62381619  1
  Ti  Ti126  1  0.60929950  0.61390354  0.24506996  1
  Ti  Ti127  1  0.19640323  0.00310237  0.00710679  1
  Ti  Ti128  1  0.68989799  0.71748952  0.62783614  1
  Ti  Ti129  1  0.48458310  0.10939575  0.12306865  1
  Ti  Ti130  1  0.59387283  0.00039877  0.24203801  1
  Ti  Ti131  1  0.40888975  0.40300170  -0.00552320  1
  Ti  Ti132  1  0.90105674  0.30399424  0.12359423  1
  Ti  Ti133  1  0.59257463  0.39722704  0.75305882  1
  Ti  Ti134  1  0.91472461  0.51292513  0.38860168  1
  Ti  Ti135  1  0.60840147  0.21803417  0.75096675  1
  Ti  Ti136  1  0.09542827  0.08807916  0.63031193  1
  Ti  Ti137  1  0.50389442  0.71951728  0.12435566  1
  Ti  Ti138  1  0.49734612  0.30506117  0.11542971  1
  Ti  Ti139  1  0.29305370  0.70786502  0.13313444  1
  Ti  Ti140  1  0.69916724  0.70139831  0.37752962  1
  Ti  Ti141  1  0.30899390  0.30663000  0.35870087  1
  Ti  Ti142  1  0.30690047  0.49257746  0.36553533  1
  Ti  Ti143  1  0.09409163  0.90127766  0.62152596  1
  Ti  Ti144  1  0.79740809  0.19710323  0.24068899  1
  Ti  Ti145  1  0.78911107  0.36755243  0.75513730  1
  Ti  Ti146  1  0.01240129  -0.01786946  0.76417559  1
  Ti  Ti147  1  -0.01192433  -0.01624295  0.48946699  1
  Ti  Ti148  1  0.88906395  0.88533961  0.12503648  1
  Ti  Ti149  1  0.90322245  0.09016231  0.62318155  1
  Ti  Ti150  1  0.19359424  0.00528901  0.76211754  1
  Ti  Ti151  1  0.19395700  0.40530175  0.00842425  1
  Ti  Ti152  1  0.10194855  0.69103847  0.12530118  1
  Ti  Ti153  1  0.20494609  0.19900511  0.50230979  1
  Ti  Ti154  1  -0.00058649  0.19961032  0.23037461  1
  Ti  Ti155  1  0.20600546  0.79407432  0.26660886  1
  Ti  Ti156  1  0.51154821  0.90266343  0.88886623  1
  Ti  Ti157  1  0.00166631  0.59236814  0.25711133  1
  Ti  Ti158  1  0.80026877  0.19981219  0.48138835  1
  Ti  Ti159  1  0.91775282  0.89493537  0.88026038  1
  Mo  Mo160  1  0.79335019  0.19273107  0.74718521  1
  Mo  Mo161  1  0.30092821  0.09461034  0.12354676  1
  Mo  Mo162  1  0.90432385  0.08593219  0.88878478  1
  Mo  Mo163  1  0.28325203  0.68613474  0.86393289  1
  Mo  Mo164  1  0.19967901  0.40612098  0.75403530  1
  Mo  Mo165  1  0.40037493  0.79730953  0.74008635  1
  Mo  Mo166  1  0.39403579  0.21256980  0.23900661  1
  Mo  Mo167  1  0.51102723  0.09615483  0.88532305  1
  Mo  Mo168  1  0.40624602  0.80630493  0.00999093  1
  Mo  Mo169  1  -0.00582043  0.39268954  0.00256907  1
  Mo  Mo170  1  -0.00923672  0.80953085  0.75376765  1
  Mo  Mo171  1  0.70091070  0.30791818  0.87998278  1
  Mo  Mo172  1  0.60330650  0.80343211  0.23590291  1
  Mo  Mo173  1  0.37956382  0.22101896  0.50083927  1
  Mo  Mo174  1  0.09951818  0.91200601  0.88698736  1
  Mo  Mo175  1  0.60174359  0.79738988  0.50435884  1
  Mo  Mo176  1  0.59988169  0.20420010  0.02251337  1
  Mo  Mo177  1  0.30458961  0.29530703  0.62704031  1
  Mo  Mo178  1  0.00046205  0.81226565  0.49217398  1
  Mo  Mo179  1  0.29299623  0.90694766  0.36245797  1
  Mo  Mo180  1  0.39791187  0.38893097  0.23915109  1
  Mo  Mo181  1  0.10291769  0.09455220  0.12253009  1
  Mo  Mo182  1  0.40692546  0.19681071  0.00147036  1
  Mo  Mo183  1  0.69377990  0.28946882  0.37613748  1
  Mo  Mo184  1  0.91006524  0.27447627  0.36603949  1
  Mo  Mo185  1  -0.00098788  0.59411337  0.50169799  1
  Mo  Mo186  1  0.78873883  -0.00214467  0.23126193  1
  Mo  Mo187  1  0.49582087  0.70991458  0.62452269  1
  Mo  Mo188  1  0.68997399  0.51336930  0.38081012  1
  Mo  Mo189  1  0.89381713  0.10241639  0.13969596  1
  Mo  Mo190  1  0.69207868  0.09871230  0.13557635  1
  Mo  Mo191  1  0.89689084  0.89821527  0.36218185  1
  Mo  Mo192  1  0.50907784  0.49463022  0.62819826  1
  Mo  Mo193  1  0.21373073  0.59185260  0.50722015  1
  Mo  Mo194  1  0.19666537  0.18825178  0.01745928  1
  Mo  Mo195  1  0.78808607  0.61623340  0.74254885  1
  Mo  Mo196  1  0.40120044  0.40399988  0.49745682  1
  Mo  Mo197  1  0.61255662  0.21235037  0.49411504  1
  Mo  Mo198  1  0.59517013  0.80898449  0.01050192  1
  Mo  Mo199  1  0.49914006  0.91293595  0.36541886  1
