# generated using pymatgen
data_HfZrTaTiMo
_symmetry_space_group_name_H-M   'P 1'
_cell_length_a   15.21206034
_cell_length_b   15.21401539
_cell_length_c   16.81119639
_cell_angle_alpha   90.06725893
_cell_angle_beta   89.93250894
_cell_angle_gamma   90.09138578
_symmetry_Int_Tables_number   1
_chemical_formula_structural   HfZrTaTiMo
_chemical_formula_sum   'Hf40 Zr40 Ta40 Ti40 Mo40'
_cell_volume   3890.71447165
_cell_formula_units_Z   40
loop_
 _symmetry_equiv_pos_site_id
 _symmetry_equiv_pos_as_xyz
  1  'x, y, z'
loop_
 _atom_site_type_symbol
 _atom_site_label
 _atom_site_symmetry_multiplicity
 _atom_site_fract_x
 _atom_site_fract_y
 _atom_site_fract_z
 _atom_site_occupancy
  Hf  Hf0  1  0.09867912  0.69806917  0.38342868  1
  Hf  Hf1  1  0.50782864  0.08218989  0.63603551  1
  Hf  Hf2  1  0.60996385  0.80988311  0.76488923  1
  Hf  Hf3  1  0.19138923  0.60436298  0.00972987  1
  Hf  Hf4  1  0.09384692  0.48759481  0.87401509  1
  Hf  Hf5  1  0.21364125  0.82034662  0.01141596  1
  Hf  Hf6  1  0.30071594  0.50081445  0.88360215  1
  Hf  Hf7  1  0.78728295  -0.00253512  0.75720883  1
  Hf  Hf8  1  0.50593250  0.89385756  0.63371042  1
  Hf  Hf9  1  0.30945986  0.88035564  0.62917572  1
  Hf  Hf10  1  0.19208833  0.20605423  0.72573895  1
  Hf  Hf11  1  0.10817390  0.89326552  0.87297242  1
  Hf  Hf12  1  0.90171454  0.70664317  0.87533336  1
  Hf  Hf13  1  0.80177885  0.58454593  0.25802995  1
  Hf  Hf14  1  0.69859296  0.69656283  0.12796103  1
  Hf  Hf15  1  0.58622671  0.60800579  0.48920431  1
  Hf  Hf16  1  0.59009714  0.59424653  0.75614990  1
  Hf  Hf17  1  0.39624017  0.19431693  0.74491492  1
  Hf  Hf18  1  0.69585329  0.89802381  0.13988258  1
  Hf  Hf19  1  0.40521161  0.78739695  0.48702493  1
  Hf  Hf20  1  0.28821513  0.28656314  0.87444671  1
  Hf  Hf21  1  0.00467377  0.60524102  0.74219172  1
  Hf  Hf22  1  0.00661833  0.79805501  -0.00276785  1
  Hf  Hf23  1  0.91768662  0.29822895  0.86797482  1
  Hf  Hf24  1  0.60086445  0.38014559  0.50354567  1
  Hf  Hf25  1  0.29601532  0.69475667  0.36055089  1
  Hf  Hf26  1  0.90154372  0.11177838  0.13099692  1
  Hf  Hf27  1  0.69078438  0.10400452  0.87895751  1
  Hf  Hf28  1  0.20135086  0.40447682  0.73836643  1
  Hf  Hf29  1  0.30185156  0.08060284  0.61294254  1
  Hf  Hf30  1  0.88866362  0.49476875  0.85935728  1
  Hf  Hf31  1  0.40978295  0.40353749  0.76195151  1
  Hf  Hf32  1  0.11252276  0.10832531  0.39496469  1
  Hf  Hf33  1  0.48835662  0.70007492  0.63273140  1
  Hf  Hf34  1  0.50147848  0.30228458  0.12659452  1
  Hf  Hf35  1  0.89240802  0.50373232  0.40554465  1
  Hf  Hf36  1  0.19187635  0.37885738  0.24597007  1
  Hf  Hf37  1  0.60104706  0.82870904  0.48098436  1
  Hf  Hf38  1  0.39521056  0.58955936  0.48564814  1
  Hf  Hf39  1  0.80723457  0.40256798  0.00253172  1
  Zr  Zr40  1  0.60747841  0.19690507  0.01309036  1
  Zr  Zr41  1  0.90386040  0.50406541  0.60874010  1
  Zr  Zr42  1  0.80507995  0.20020365  0.73629898  1
  Zr  Zr43  1  0.00786315  0.01491373  -0.00346278  1
  Zr  Zr44  1  0.49462973  0.90104863  0.13374044  1
  Zr  Zr45  1  0.71963556  0.30751282  0.35697548  1
  Zr  Zr46  1  0.09994182  0.12224922  0.86866290  1
  Zr  Zr47  1  0.78454442  0.19613837  0.50907442  1
  Zr  Zr48  1  0.19131695  0.58315741  0.24212786  1
  Zr  Zr49  1  0.69929915  0.50655584  0.61348797  1
  Zr  Zr50  1  -0.00788330  0.00298267  0.74967218  1
  Zr  Zr51  1  -0.01046571  0.41678255  0.26697893  1
  Zr  Zr52  1  0.00257301  0.00638913  0.26553994  1
  Zr  Zr53  1  0.51585227  0.28734830  0.36274833  1
  Zr  Zr54  1  0.51185302  0.29092105  0.88031547  1
  Zr  Zr55  1  0.70523071  0.70486255  0.37995797  1
  Zr  Zr56  1  0.30914545  0.69681307  0.13173281  1
  Zr  Zr57  1  0.89501884  0.69636431  0.12673354  1
  Zr  Zr58  1  0.01156328  0.21582158  0.26135519  1
  Zr  Zr59  1  0.18913007  0.80390276  0.24590395  1
  Zr  Zr60  1  0.18695995  0.37827560  0.00571039  1
  Zr  Zr61  1  0.49263028  0.69877444  0.87819987  1
  Zr  Zr62  1  0.41177754  0.20127332  0.50643754  1
  Zr  Zr63  1  0.19953339  -0.00131077  0.74606262  1
  Zr  Zr64  1  0.89983721  0.89869741  0.12696487  1
  Zr  Zr65  1  0.07565774  0.48685480  0.12106317  1
  Zr  Zr66  1  0.10774545  0.92132721  0.12964504  1
  Zr  Zr67  1  0.49030811  0.48855807  0.62307110  1
  Zr  Zr68  1  0.50695703  0.70576115  0.12907639  1
  Zr  Zr69  1  0.50724181  0.50780611  0.12066526  1
  Zr  Zr70  1  0.29363920  0.28926353  0.37842566  1
  Zr  Zr71  1  0.28199152  0.70912834  0.87956478  1
  Zr  Zr72  1  0.79155108  0.61070353  0.74190313  1
  Zr  Zr73  1  0.29230613  0.08324206  0.13023854  1
  Zr  Zr74  1  0.40277386  0.18600276  0.24989644  1
  Zr  Zr75  1  -0.01211005  0.58913269  -0.00473840  1
  Zr  Zr76  1  0.68415658  0.11550213  0.36256676  1
  Zr  Zr77  1  0.78757223  -0.00465858  0.00088790  1
  Zr  Zr78  1  0.89519136  0.90495108  0.61492897  1
  Zr  Zr79  1  0.30049656  0.90447107  0.36578447  1
  Ta  Ta80  1  0.00178806  0.80859521  0.49466780  1
  Ta  Ta81  1  0.90872312  0.31648246  0.12915335  1
  Ta  Ta82  1  0.09008851  0.09376353  0.60410571  1
  Ta  Ta83  1  0.10321476  0.49973853  0.39669760  1
  Ta  Ta84  1  0.39425569  0.18812716  -0.00081714  1
  Ta  Ta85  1  0.10363517  0.90672332  0.38591505  1
  Ta  Ta86  1  0.38345557  0.60463608  0.75282445  1
  Ta  Ta87  1  0.29461235  0.48959441  0.37133385  1
  Ta  Ta88  1  -0.00873324  0.80202048  0.26690774  1
  Ta  Ta89  1  0.39887191  0.40019689  0.25221881  1
  Ta  Ta90  1  0.78146741  -0.00852481  0.47906296  1
  Ta  Ta91  1  0.41948649  -0.01170161  0.48886944  1
  Ta  Ta92  1  0.80047149  0.00426266  0.26255638  1
  Ta  Ta93  1  0.30761386  0.48409978  0.12062193  1
  Ta  Ta94  1  0.00513850  0.39317827  0.73107375  1
  Ta  Ta95  1  0.38631730  -0.00781672  -0.00649050  1
  Ta  Ta96  1  0.40712220  0.58621660  0.25965860  1
  Ta  Ta97  1  0.80711153  0.80494716  0.74700190  1
  Ta  Ta98  1  0.69868812  0.72345171  0.61221109  1
  Ta  Ta99  1  0.60855512  0.39034842  0.74717928  1
  Ta  Ta100  1  0.69176062  0.49529314  0.87233830  1
  Ta  Ta101  1  0.61324316  0.80750160  -0.00914713  1
  Ta  Ta102  1  0.00417388  0.80034361  0.74458846  1
  Ta  Ta103  1  0.81043582  0.20604952  0.00414363  1
  Ta  Ta104  1  0.08956879  0.70644551  0.13147685  1
  Ta  Ta105  1  0.71363036  0.30284527  0.87138814  1
  Ta  Ta106  1  0.48775836  0.08574337  0.86737182  1
  Ta  Ta107  1  0.89578678  0.10634990  0.88015057  1
  Ta  Ta108  1  0.10599927  0.50679496  0.60845793  1
  Ta  Ta109  1  0.40343042  0.39277873  -0.00376328  1
  Ta  Ta110  1  0.60472247  0.41454618  0.25000313  1
  Ta  Ta111  1  0.90604214  0.30334721  0.39900489  1
  Ta  Ta112  1  0.89818530  0.70360181  0.39472871  1
  Ta  Ta113  1  0.58692001  0.01226580  0.25417378  1
  Ta  Ta114  1  0.89727511  0.70662784  0.60616294  1
  Ta  Ta115  1  0.60802697  0.40352330  -0.00066842  1
  Ta  Ta116  1  0.10277198  0.70825421  0.61442396  1
  Ta  Ta117  1  0.20583317  0.20463933  0.51751694  1
  Ta  Ta118  1  0.60657784  0.19642423  0.74057351  1
  Ta  Ta119  1  0.90063520  0.30392194  0.60509528  1
  Ti  Ti120  1  0.10120234  0.30574136  0.40046159  1
  Ti  Ti121  1  0.71341014  0.29924069  0.14247278  1
  Ti  Ti122  1  0.21440452  0.40564083  0.50838280  1
  Ti  Ti123  1  0.31768979  0.31242113  0.62154723  1
  Ti  Ti124  1  0.10294621  0.90532210  0.61147847  1
  Ti  Ti125  1  0.20557252  0.80266251  0.50108547  1
  Ti  Ti126  1  0.10517865  0.11442496  0.13175839  1
  Ti  Ti127  1  0.40678725  0.39779744  0.48627846  1
  Ti  Ti128  1  0.20784117  0.60709511  0.50326112  1
  Ti  Ti129  1  0.30223349  0.09330798  0.38512224  1
  Ti  Ti130  1  0.89315648  0.89984429  0.88112455  1
  Ti  Ti131  1  0.59833269  0.18559832  0.51861587  1
  Ti  Ti132  1  0.30995803  0.89965657  0.14693085  1
  Ti  Ti133  1  0.89297471  0.11277718  0.37784304  1
  Ti  Ti134  1  0.29512421  0.28651494  0.12434434  1
  Ti  Ti135  1  0.78905564  0.59867865  -0.00137853  1
  Ti  Ti136  1  0.09355685  0.30479257  0.60426188  1
  Ti  Ti137  1  0.79915916  0.39580713  0.73641476  1
  Ti  Ti138  1  0.70908213  0.70412293  0.88150338  1
  Ti  Ti139  1  0.19991147  0.18221590  0.00037453  1
  Ti  Ti140  1  0.89407598  0.09466446  0.61100159  1
  Ti  Ti141  1  0.31500497  0.90561558  0.86186227  1
  Ti  Ti142  1  0.70742318  0.49481876  0.12769956  1
  Ti  Ti143  1  0.69700466  0.49639095  0.38810368  1
  Ti  Ti144  1  0.70173931  0.10470994  0.13869428  1
  Ti  Ti145  1  0.00923731  0.22148841  0.00384589  1
  Ti  Ti146  1  -0.00150234  0.20152959  0.72902392  1
  Ti  Ti147  1  0.19434403  0.60318164  0.74551733  1
  Ti  Ti148  1  0.49585510  0.09405974  0.12135504  1
  Ti  Ti149  1  0.59751079  0.60416469  0.26613893  1
  Ti  Ti150  1  0.30168017  0.51254012  0.62470592  1
  Ti  Ti151  1  0.69469465  0.91813140  0.62190131  1
  Ti  Ti152  1  0.20015474  0.78829095  0.74326597  1
  Ti  Ti153  1  -0.01225016  0.00156272  0.48508086  1
  Ti  Ti154  1  0.80300968  0.80160089  0.26167040  1
  Ti  Ti155  1  0.40109447  0.59575911  -0.00015612  1
  Ti  Ti156  1  0.58584429  -0.00589256  -0.00397676  1
  Ti  Ti157  1  0.60073408  0.59781719  -0.00983035  1
  Ti  Ti158  1  -0.00475448  0.60847319  0.25876191  1
  Ti  Ti159  1  0.40997681  0.80512070  -0.00215832  1
  Mo  Mo160  1  -0.00812927  0.39104036  -0.00315869  1
  Mo  Mo161  1  0.29170969  0.69038158  0.62429985  1
  Mo  Mo162  1  0.19824744  0.01728757  0.25987680  1
  Mo  Mo163  1  0.10020953  0.70201679  0.86494477  1
  Mo  Mo164  1  0.70175119  0.08690729  0.62553785  1
  Mo  Mo165  1  0.50379579  0.49176715  0.36951829  1
  Mo  Mo166  1  0.80467488  0.40326458  0.25038599  1
  Mo  Mo167  1  0.50204746  0.49622795  0.88588471  1
  Mo  Mo168  1  0.88513476  0.50234885  0.12713737  1
  Mo  Mo169  1  0.60290917  0.20330004  0.22709869  1
  Mo  Mo170  1  0.79388288  0.39846262  0.50672912  1
  Mo  Mo171  1  0.39965784  -0.00099162  0.26103119  1
  Mo  Mo172  1  0.89807832  0.90067388  0.37713081  1
  Mo  Mo173  1  0.69730503  0.29810279  0.63132300  1
  Mo  Mo174  1  0.70506563  0.89572742  0.88131056  1
  Mo  Mo175  1  0.79004153  0.61025690  0.50604935  1
  Mo  Mo176  1  -0.00412946  0.19496592  0.50316882  1
  Mo  Mo177  1  0.49853013  0.70107508  0.36031455  1
  Mo  Mo178  1  0.50256613  0.29485159  0.63332438  1
  Mo  Mo179  1  0.50084059  0.90053605  0.88018990  1
  Mo  Mo180  1  0.79768475  0.81148200  0.49825678  1
  Mo  Mo181  1  0.81522520  0.20045174  0.24559856  1
  Mo  Mo182  1  0.60438528  0.80247588  0.26165943  1
  Mo  Mo183  1  0.59889791  0.00851494  0.49123895  1
  Mo  Mo184  1  0.20427719  -0.00774705  0.50595591  1
  Mo  Mo185  1  0.09753844  0.29952784  0.85819375  1
  Mo  Mo186  1  0.19954270  0.19099560  0.25618947  1
  Mo  Mo187  1  0.40245938  -0.01032323  0.75608883  1
  Mo  Mo188  1  0.70074602  0.90718828  0.35323221  1
  Mo  Mo189  1  0.09873499  0.28767753  0.12650156  1
  Mo  Mo190  1  0.29942378  0.09556942  0.87548790  1
  Mo  Mo191  1  0.60058839  0.00143886  0.76049126  1
  Mo  Mo192  1  0.39549544  0.79389407  0.75534470  1
  Mo  Mo193  1  0.49359736  0.09594993  0.37857458  1
  Mo  Mo194  1  0.20793696  0.00567009  -0.01216514  1
  Mo  Mo195  1  0.00994969  0.40020360  0.50263486  1
  Mo  Mo196  1  0.00832948  0.61053436  0.50569969  1
  Mo  Mo197  1  0.40661760  0.79190805  0.25756508  1
  Mo  Mo198  1  0.79572567  0.79283584  -0.00098130  1
  Mo  Mo199  1  0.50075114  0.90125747  0.35523705  1
