# generated using pymatgen
data_HfZrTaTiMo
_symmetry_space_group_name_H-M   'P 1'
_cell_length_a   15.19569044
_cell_length_b   15.20129582
_cell_length_c   16.78216221
_cell_angle_alpha   90.04681619
_cell_angle_beta   89.99990177
_cell_angle_gamma   89.98289421
_symmetry_Int_Tables_number   1
_chemical_formula_structural   HfZrTaTiMo
_chemical_formula_sum   'Hf40 Zr40 Ta40 Ti40 Mo40'
_cell_volume   3876.58042411
_cell_formula_units_Z   40
loop_
 _symmetry_equiv_pos_site_id
 _symmetry_equiv_pos_as_xyz
  1  'x, y, z'
loop_
 _atom_site_type_symbol
 _atom_site_label
 _atom_site_symmetry_multiplicity
 _atom_site_fract_x
 _atom_site_fract_y
 _atom_site_fract_z
 _atom_site_occupancy
  Hf  Hf0  1  0.57742021  0.81213888  0.75442983  1
  Hf  Hf1  1  0.71419916  0.10401831  0.61087593  1
  Hf  Hf2  1  0.80392774  0.40831305  -0.00178479  1
  Hf  Hf3  1  0.90616767  0.70086294  0.63604913  1
  Hf  Hf4  1  0.88270894  0.48739052  0.38729337  1
  Hf  Hf5  1  0.09676787  0.49238749  0.61640865  1
  Hf  Hf6  1  0.89363308  0.90155708  0.62860818  1
  Hf  Hf7  1  0.31024911  0.09849030  0.63513288  1
  Hf  Hf8  1  0.49684879  0.93027659  0.10982291  1
  Hf  Hf9  1  0.09951187  0.68682640  0.11935266  1
  Hf  Hf10  1  0.41095990  -0.01921208  0.75556070  1
  Hf  Hf11  1  0.90879792  0.09379286  0.61417000  1
  Hf  Hf12  1  0.69731055  0.71309825  0.63324341  1
  Hf  Hf13  1  0.09673940  0.69698519  0.88336308  1
  Hf  Hf14  1  0.80162513  0.81281729  0.24407579  1
  Hf  Hf15  1  0.29348908  0.48276586  0.35083531  1
  Hf  Hf16  1  0.49231034  0.70805079  0.89395272  1
  Hf  Hf17  1  0.81186124  0.20526990  0.26413992  1
  Hf  Hf18  1  0.28861445  0.90550176  0.37271006  1
  Hf  Hf19  1  0.30711740  0.69120960  0.10828039  1
  Hf  Hf20  1  0.10958271  0.08293043  0.38403797  1
  Hf  Hf21  1  0.89897203  0.71329841  0.37813937  1
  Hf  Hf22  1  0.40109530  0.60286567  0.76017696  1
  Hf  Hf23  1  0.29400050  0.48925254  0.13820099  1
  Hf  Hf24  1  0.09817316  0.31784354  0.89122101  1
  Hf  Hf25  1  0.10215370  0.28945870  0.12198954  1
  Hf  Hf26  1  0.80405764  0.80694913  -0.00578839  1
  Hf  Hf27  1  0.79733115  0.59459987  0.76158905  1
  Hf  Hf28  1  -0.00070888  -0.00744823  0.24167225  1
  Hf  Hf29  1  0.39561266  0.00615570  0.25200161  1
  Hf  Hf30  1  0.90696094  0.29115858  0.63072203  1
  Hf  Hf31  1  0.90743609  0.70539205  0.86972000  1
  Hf  Hf32  1  0.49731523  0.31542904  0.36487201  1
  Hf  Hf33  1  0.20058121  0.60070520  0.75989873  1
  Hf  Hf34  1  0.69089363  0.10529915  0.12220459  1
  Hf  Hf35  1  0.80606771  0.18056349  0.76829184  1
  Hf  Hf36  1  0.19281094  0.56750732  -0.00356120  1
  Hf  Hf37  1  0.20468556  0.20643331  0.76184619  1
  Hf  Hf38  1  0.10510105  0.70042845  0.62775376  1
  Hf  Hf39  1  0.49293035  0.51371179  0.36658633  1
  Zr  Zr40  1  0.89461644  0.49056487  0.61978320  1
  Zr  Zr41  1  0.10089110  0.10498042  0.62041818  1
  Zr  Zr42  1  0.71022458  0.30607265  0.62733520  1
  Zr  Zr43  1  0.50915912  0.08829728  0.37942464  1
  Zr  Zr44  1  0.29725275  0.50417399  0.62919636  1
  Zr  Zr45  1  0.00080166  0.37704100  0.49135852  1
  Zr  Zr46  1  0.11818800  0.29441943  0.36059878  1
  Zr  Zr47  1  0.58581541  0.60787579  0.49979573  1
  Zr  Zr48  1  0.90068325  0.10304645  0.12224070  1
  Zr  Zr49  1  0.40115957  0.19837512  0.48772480  1
  Zr  Zr50  1  0.79076166  0.81140963  0.76234782  1
  Zr  Zr51  1  0.19123882  0.80402004  0.23257404  1
  Zr  Zr52  1  -0.00386037  0.60340289  0.25034002  1
  Zr  Zr53  1  0.09883119  0.90248628  0.62708578  1
  Zr  Zr54  1  0.09094829  0.88559846  0.38244418  1
  Zr  Zr55  1  0.59817861  0.80535241  0.50177678  1
  Zr  Zr56  1  -0.01102807  0.39309668  0.24748479  1
  Zr  Zr57  1  0.61385639  0.20011452  0.26288536  1
  Zr  Zr58  1  0.29961975  0.70231575  0.89572880  1
  Zr  Zr59  1  0.49758900  0.29060719  0.12775476  1
  Zr  Zr60  1  0.20946539  0.21040252  0.49956005  1
  Zr  Zr61  1  0.59611348  0.20008027  0.75953247  1
  Zr  Zr62  1  0.20489891  -0.00348151  0.75641518  1
  Zr  Zr63  1  0.51454479  0.08858222  0.61956792  1
  Zr  Zr64  1  0.38154669  0.40153426  0.49865900  1
  Zr  Zr65  1  0.61685927  0.21148273  0.48454325  1
  Zr  Zr66  1  0.20993534  0.19512037  -0.00431616  1
  Zr  Zr67  1  0.79418592  0.59775709  0.25093257  1
  Zr  Zr68  1  0.69601567  0.50391044  0.63083339  1
  Zr  Zr69  1  0.40147199  0.80513991  0.23010083  1
  Zr  Zr70  1  0.49340039  0.29690022  0.62729304  1
  Zr  Zr71  1  0.68585017  0.91453569  0.88510556  1
  Zr  Zr72  1  0.59726614  0.40656067  0.76141879  1
  Zr  Zr73  1  0.29610431  0.69035456  0.35930312  1
  Zr  Zr74  1  0.60129347  0.41338154  0.23570081  1
  Zr  Zr75  1  0.09493451  0.89375200  0.87149535  1
  Zr  Zr76  1  0.79076290  0.61229878  0.49721010  1
  Zr  Zr77  1  0.10253632  0.50262905  0.37207932  1
  Zr  Zr78  1  0.39002100  -0.01165064  0.49830539  1
  Zr  Zr79  1  0.59668268  0.59469715  0.01008870  1
  Ta  Ta80  1  0.59523660  0.61318167  0.23141395  1
  Ta  Ta81  1  0.69591765  0.91498523  0.61872908  1
  Ta  Ta82  1  0.60103168  0.19944734  -0.00911641  1
  Ta  Ta83  1  0.70687298  0.91319450  0.11628022  1
  Ta  Ta84  1  0.20588200  0.59762518  0.49739713  1
  Ta  Ta85  1  0.50536336  0.89066852  0.37040597  1
  Ta  Ta86  1  0.59832136  0.40911786  0.49738349  1
  Ta  Ta87  1  0.89411525  0.69599460  0.11875299  1
  Ta  Ta88  1  0.59489695  0.60813114  0.76070199  1
  Ta  Ta89  1  0.89179013  0.91399166  0.38696511  1
  Ta  Ta90  1  0.90742055  0.29675730  0.88392453  1
  Ta  Ta91  1  0.69897361  0.50195921  0.87946387  1
  Ta  Ta92  1  -0.01197002  0.58682611  0.00449929  1
  Ta  Ta93  1  0.89912575  0.30415134  0.11304537  1
  Ta  Ta94  1  -0.00484179  0.80373257  0.01215722  1
  Ta  Ta95  1  0.49518289  0.50260937  0.63048582  1
  Ta  Ta96  1  0.39809770  0.78720076  0.49369160  1
  Ta  Ta97  1  0.50481175  0.09311569  0.87801552  1
  Ta  Ta98  1  0.08904293  0.09636271  0.87663524  1
  Ta  Ta99  1  0.31728758  0.09851511  0.11788314  1
  Ta  Ta100  1  0.48827959  0.69939378  0.63223097  1
  Ta  Ta101  1  0.91569329  0.48918171  0.87513378  1
  Ta  Ta102  1  0.79578062  0.39810434  0.24116261  1
  Ta  Ta103  1  0.70454028  0.70677203  0.12066660  1
  Ta  Ta104  1  0.00344356  0.60513369  0.49609870  1
  Ta  Ta105  1  0.18770392  0.40447612  0.75663396  1
  Ta  Ta106  1  0.60056539  0.80817216  0.23277507  1
  Ta  Ta107  1  0.39161349  0.39165442  0.75686684  1
  Ta  Ta108  1  0.39510062  0.40266667  0.00356784  1
  Ta  Ta109  1  0.82325257  0.21119621  0.47845620  1
  Ta  Ta110  1  0.79858680  0.00520132  0.25497525  1
  Ta  Ta111  1  0.49929063  0.70513307  0.36053860  1
  Ta  Ta112  1  0.19372459  0.00232510  0.00778029  1
  Ta  Ta113  1  0.80708453  0.00935504  -0.00745396  1
  Ta  Ta114  1  0.00582426  0.58389086  0.75370096  1
  Ta  Ta115  1  0.59582306  0.39604703  0.00044838  1
  Ta  Ta116  1  0.79770073  0.20101379  -0.01152549  1
  Ta  Ta117  1  0.68844671  0.71090741  0.36455429  1
  Ta  Ta118  1  0.30482554  0.89782509  0.89638830  1
  Ta  Ta119  1  0.59800667  0.80446397  0.01602945  1
  Ti  Ti120  1  0.00411081  0.20048622  0.76117106  1
  Ti  Ti121  1  0.10227992  0.30094100  0.62852271  1
  Ti  Ti122  1  0.90823549  0.91598204  0.86218717  1
  Ti  Ti123  1  0.61796873  0.00672194  0.75157381  1
  Ti  Ti124  1  0.69832568  0.90006909  0.38120702  1
  Ti  Ti125  1  0.10487677  0.69795972  0.37546781  1
  Ti  Ti126  1  0.68841605  0.50391869  0.37238246  1
  Ti  Ti127  1  0.71802866  0.08504397  0.38726795  1
  Ti  Ti128  1  0.49038992  0.89194227  0.61989110  1
  Ti  Ti129  1  0.70505969  0.29919161  0.11653444  1
  Ti  Ti130  1  0.30921159  0.09663693  0.87481197  1
  Ti  Ti131  1  0.20922771  0.18191131  0.24488537  1
  Ti  Ti132  1  0.80138016  0.60358214  -0.00662673  1
  Ti  Ti133  1  0.81100624  0.39469452  0.76477484  1
  Ti  Ti134  1  0.00638731  0.18763265  0.25016111  1
  Ti  Ti135  1  0.48988245  0.90288913  0.90046167  1
  Ti  Ti136  1  -0.00670981  0.80333052  0.23487268  1
  Ti  Ti137  1  0.39786280  0.19861745  0.25633973  1
  Ti  Ti138  1  0.60586737  -0.00272689  0.25111553  1
  Ti  Ti139  1  -0.00053031  0.19037360  -0.00020089  1
  Ti  Ti140  1  0.70818063  0.50272841  0.11861197  1
  Ti  Ti141  1  0.30571143  0.30101299  0.87869072  1
  Ti  Ti142  1  0.69979425  0.30429158  0.87832930  1
  Ti  Ti143  1  0.09361894  0.48694903  0.13122203  1
  Ti  Ti144  1  0.69111459  0.70279646  0.88173448  1
  Ti  Ti145  1  0.40799584  0.19827056  -0.00183918  1
  Ti  Ti146  1  0.40911610  0.59783747  0.23311533  1
  Ti  Ti147  1  0.29409055  0.30393441  0.63526666  1
  Ti  Ti148  1  0.21638148  0.80175644  0.75286469  1
  Ti  Ti149  1  0.19744117  -0.00070201  0.22462787  1
  Ti  Ti150  1  0.30014988  0.29613310  0.13269162  1
  Ti  Ti151  1  0.19299207  0.80917853  0.01396572  1
  Ti  Ti152  1  0.20783835  0.80078737  0.50469400  1
  Ti  Ti153  1  0.29807202  0.48674629  0.87869844  1
  Ti  Ti154  1  0.00055738  -0.00575668  0.00981090  1
  Ti  Ti155  1  0.30436539  0.70909181  0.62654819  1
  Ti  Ti156  1  0.39460787  0.60324969  0.49866636  1
  Ti  Ti157  1  0.49466263  0.49769185  0.88131106  1
  Ti  Ti158  1  0.49218939  0.29928658  0.87792060  1
  Ti  Ti159  1  -0.00783649  0.80000292  0.50432794  1
  Mo  Mo160  1  0.30248113  0.88391944  0.62234703  1
  Mo  Mo161  1  0.89529719  0.50139350  0.12126003  1
  Mo  Mo162  1  0.69914192  0.10514235  0.88197544  1
  Mo  Mo163  1  0.89151510  0.90111443  0.12187301  1
  Mo  Mo164  1  -0.00997363  0.01052211  0.75603401  1
  Mo  Mo165  1  0.40098862  0.58511087  0.00021913  1
  Mo  Mo166  1  0.39815030  0.80598074  0.01603559  1
  Mo  Mo167  1  0.78608125  0.39452196  0.49521126  1
  Mo  Mo168  1  0.90843115  0.29673161  0.36600537  1
  Mo  Mo169  1  0.49929422  0.11190365  0.12719165  1
  Mo  Mo170  1  0.79813145  0.80442087  0.49994207  1
  Mo  Mo171  1  0.10523060  0.09835402  0.12280680  1
  Mo  Mo172  1  0.79780607  0.00363227  0.75262567  1
  Mo  Mo173  1  0.39701749  0.19753963  0.76426959  1
  Mo  Mo174  1  0.19425337  0.59958549  0.24318748  1
  Mo  Mo175  1  0.00031043  0.39150461  0.75037692  1
  Mo  Mo176  1  0.40163339  0.39347150  0.24137631  1
  Mo  Mo177  1  0.00570573  0.19396296  0.49245210  1
  Mo  Mo178  1  0.09199455  0.89975520  0.11799968  1
  Mo  Mo179  1  0.30251082  0.29164776  0.35472074  1
  Mo  Mo180  1  0.39250249  0.01649619  -0.00956363  1
  Mo  Mo181  1  0.29574941  0.90684353  0.10606487  1
  Mo  Mo182  1  0.50261440  0.70562478  0.11800185  1
  Mo  Mo183  1  0.49476069  0.50124425  0.11878950  1
  Mo  Mo184  1  0.91335453  0.09665232  0.37935046  1
  Mo  Mo185  1  0.00989866  0.79823758  0.75235587  1
  Mo  Mo186  1  0.60160433  -0.00404970  0.49700184  1
  Mo  Mo187  1  0.09840196  0.49947716  0.87597904  1
  Mo  Mo188  1  0.39196948  0.80125201  0.75487711  1
  Mo  Mo189  1  0.90966792  0.09772350  0.88507397  1
  Mo  Mo190  1  0.79915247  -0.00239002  0.49501464  1
  Mo  Mo191  1  0.20447744  0.40251121  0.50209487  1
  Mo  Mo192  1  0.60144323  0.01241387  -0.00005927  1
  Mo  Mo193  1  0.71301499  0.32498952  0.37593162  1
  Mo  Mo194  1  0.20900840  0.39060929  0.00704787  1
  Mo  Mo195  1  0.00189627  -0.00514823  0.49717498  1
  Mo  Mo196  1  0.19633322  0.38459904  0.23686109  1
  Mo  Mo197  1  0.20657330  -0.00748604  0.50706214  1
  Mo  Mo198  1  0.29379459  0.10101476  0.36503925  1
  Mo  Mo199  1  0.00348551  0.40189042  0.01196693  1
