# generated using pymatgen
data_HfZrTaTiMo
_symmetry_space_group_name_H-M   'P 1'
_cell_length_a   15.20709185
_cell_length_b   15.20511300
_cell_length_c   16.84494813
_cell_angle_alpha   89.98651254
_cell_angle_beta   89.99994270
_cell_angle_gamma   90.07449644
_symmetry_Int_Tables_number   1
_chemical_formula_structural   HfZrTaTiMo
_chemical_formula_sum   'Hf40 Zr40 Ta40 Ti40 Mo40'
_cell_volume   3894.97899621
_cell_formula_units_Z   40
loop_
 _symmetry_equiv_pos_site_id
 _symmetry_equiv_pos_as_xyz
  1  'x, y, z'
loop_
 _atom_site_type_symbol
 _atom_site_label
 _atom_site_symmetry_multiplicity
 _atom_site_fract_x
 _atom_site_fract_y
 _atom_site_fract_z
 _atom_site_occupancy
  Hf  Hf0  1  0.69544584  0.89895221  0.60715062  1
  Hf  Hf1  1  0.58494134  0.00957304  0.50532209  1
  Hf  Hf2  1  0.79231815  -0.00000735  0.73757062  1
  Hf  Hf3  1  0.49037739  0.91125260  0.87457739  1
  Hf  Hf4  1  0.10869899  0.71137722  0.12879504  1
  Hf  Hf5  1  0.39317693  0.61030117  0.74993047  1
  Hf  Hf6  1  0.91128008  0.07943352  0.13195083  1
  Hf  Hf7  1  0.41613382  0.40707601  0.50632702  1
  Hf  Hf8  1  0.29700810  0.10546833  0.12914967  1
  Hf  Hf9  1  0.58904569  0.82007586  0.73940153  1
  Hf  Hf10  1  0.29616508  0.08135736  0.37597866  1
  Hf  Hf11  1  0.80742097  0.79631396  0.48606019  1
  Hf  Hf12  1  0.79219527  0.39925818  0.00775511  1
  Hf  Hf13  1  0.49700172  0.50317903  0.87394588  1
  Hf  Hf14  1  0.71711869  0.51232599  0.64917360  1
  Hf  Hf15  1  0.89353876  0.49420558  0.36652650  1
  Hf  Hf16  1  0.58442947  0.59402010  0.23322048  1
  Hf  Hf17  1  0.40409881  0.40820333  0.25326943  1
  Hf  Hf18  1  0.18973735  0.00724296  -0.00390962  1
  Hf  Hf19  1  0.10213153  0.29651173  0.11991318  1
  Hf  Hf20  1  0.00732603  0.59235815  0.25008160  1
  Hf  Hf21  1  -0.00215134  -0.02322795  -0.00504230  1
  Hf  Hf22  1  0.90014248  0.68558455  0.88383839  1
  Hf  Hf23  1  0.60693488  0.62723248  0.76063648  1
  Hf  Hf24  1  0.00211782  -0.00443838  0.50336995  1
  Hf  Hf25  1  0.10586965  0.70037766  0.37052144  1
  Hf  Hf26  1  0.10057102  0.09419439  0.63530881  1
  Hf  Hf27  1  0.48575121  0.29847865  0.11208664  1
  Hf  Hf28  1  0.89454667  0.88498179  0.13645549  1
  Hf  Hf29  1  0.70225730  0.11116191  0.13696646  1
  Hf  Hf30  1  0.11905989  0.68611231  0.62867497  1
  Hf  Hf31  1  0.00395317  0.37558048  0.74893173  1
  Hf  Hf32  1  0.69680899  0.69871556  0.61083991  1
  Hf  Hf33  1  0.89860629  0.89460110  0.62822419  1
  Hf  Hf34  1  0.09484360  0.09408322  0.37901926  1
  Hf  Hf35  1  0.50006832  0.90702676  0.13416157  1
  Hf  Hf36  1  0.09920616  0.90459192  0.84989658  1
  Hf  Hf37  1  0.29135855  0.30210151  0.60948486  1
  Hf  Hf38  1  0.69885439  0.12317324  0.38911514  1
  Hf  Hf39  1  0.18436648  0.80344664  -0.01200511  1
  Zr  Zr40  1  0.47860624  0.90469620  0.37796949  1
  Zr  Zr41  1  0.60859077  0.61147622  0.00905187  1
  Zr  Zr42  1  -0.00258779  0.77385629  0.75045130  1
  Zr  Zr43  1  0.18914379  0.40228689  -0.01419401  1
  Zr  Zr44  1  0.29486098  0.51470435  0.62299428  1
  Zr  Zr45  1  0.69878473  0.69138168  0.36995087  1
  Zr  Zr46  1  0.00553768  0.39174310  0.25427880  1
  Zr  Zr47  1  0.71422970  0.51620352  0.86598541  1
  Zr  Zr48  1  0.71683628  0.31043431  0.64268375  1
  Zr  Zr49  1  -0.00328089  0.18633392  0.25381613  1
  Zr  Zr50  1  0.30166513  0.09774428  0.85759840  1
  Zr  Zr51  1  0.80438822  0.19022631  -0.00802561  1
  Zr  Zr52  1  0.59046199  0.20586083  0.73683732  1
  Zr  Zr53  1  0.68692219  0.48522650  0.36380618  1
  Zr  Zr54  1  0.89373849  0.89344582  0.86213978  1
  Zr  Zr55  1  0.60017430  0.19757560  -0.00576596  1
  Zr  Zr56  1  0.70604926  0.71623497  0.13944457  1
  Zr  Zr57  1  0.78646421  -0.00471388  -0.00043482  1
  Zr  Zr58  1  0.10791353  0.89393829  0.64118313  1
  Zr  Zr59  1  0.20106540  0.60895258  0.49417172  1
  Zr  Zr60  1  0.19823766  0.40694240  0.75531029  1
  Zr  Zr61  1  0.91472030  0.28850661  0.88535538  1
  Zr  Zr62  1  0.41249685  0.20198558  0.25313463  1
  Zr  Zr63  1  0.30575950  0.50728660  0.38265250  1
  Zr  Zr64  1  0.89696764  0.28329267  0.12028239  1
  Zr  Zr65  1  0.88744039  0.28666990  0.37569027  1
  Zr  Zr66  1  0.40002864  0.00499555  0.00514894  1
  Zr  Zr67  1  0.59339827  0.80814331  0.26413711  1
  Zr  Zr68  1  0.20183907  0.20713570  0.25500009  1
  Zr  Zr69  1  0.61140437  0.41634585  0.51676361  1
  Zr  Zr70  1  0.01348217  0.79028271  0.49752810  1
  Zr  Zr71  1  0.68698658  0.90357580  0.86911616  1
  Zr  Zr72  1  0.70263879  0.10672735  0.85739090  1
  Zr  Zr73  1  0.30861729  0.29321276  0.39405947  1
  Zr  Zr74  1  0.90222511  0.67306278  0.62387914  1
  Zr  Zr75  1  0.49776712  0.10388463  0.86682421  1
  Zr  Zr76  1  0.59540617  0.40948301  0.00699938  1
  Zr  Zr77  1  0.29235172  0.88466057  0.12665162  1
  Zr  Zr78  1  0.90902783  0.69396714  0.12292239  1
  Zr  Zr79  1  0.59605553  0.81531627  0.00712989  1
  Ta  Ta80  1  0.90931273  0.48995285  0.11887048  1
  Ta  Ta81  1  0.52109383  0.31338969  0.37843194  1
  Ta  Ta82  1  0.70309850  0.10365250  0.61678037  1
  Ta  Ta83  1  0.20425295  0.60453192  -0.00607053  1
  Ta  Ta84  1  0.10710055  0.50184196  0.12298643  1
  Ta  Ta85  1  0.01559308  0.59225985  -0.00336352  1
  Ta  Ta86  1  0.30112763  0.71869497  0.37430289  1
  Ta  Ta87  1  0.09386803  0.48967549  0.61526479  1
  Ta  Ta88  1  0.40159867  0.60015169  0.00178322  1
  Ta  Ta89  1  0.20250312  0.40801427  0.25161216  1
  Ta  Ta90  1  0.91008946  0.48838503  0.88288568  1
  Ta  Ta91  1  0.59073594  0.21904102  0.51739773  1
  Ta  Ta92  1  0.70390520  0.91632471  0.38933602  1
  Ta  Ta93  1  0.80033957  0.79580367  -0.00153986  1
  Ta  Ta94  1  0.59606515  0.39932524  0.22825355  1
  Ta  Ta95  1  0.20936082  0.19873599  -0.00860632  1
  Ta  Ta96  1  0.69810620  0.91634308  0.14010103  1
  Ta  Ta97  1  0.80455331  0.40036556  0.50319737  1
  Ta  Ta98  1  0.30155241  0.50410134  0.87528582  1
  Ta  Ta99  1  0.39486810  0.60446261  0.24136391  1
  Ta  Ta100  1  0.79776660  0.00406694  0.26453778  1
  Ta  Ta101  1  0.59490511  0.01923158  0.26746404  1
  Ta  Ta102  1  0.12453906  0.90145042  0.36464387  1
  Ta  Ta103  1  0.21027022  0.60247267  0.24827397  1
  Ta  Ta104  1  0.30203519  0.89846041  0.86371194  1
  Ta  Ta105  1  0.30430581  0.50028721  0.11722407  1
  Ta  Ta106  1  0.10414501  0.29861670  0.39779439  1
  Ta  Ta107  1  0.79692230  0.58594821  0.49461208  1
  Ta  Ta108  1  0.49162881  0.11757525  0.38953803  1
  Ta  Ta109  1  0.09072088  0.29138983  0.60427096  1
  Ta  Ta110  1  0.02111185  0.17910438  -0.00126283  1
  Ta  Ta111  1  0.38008112  0.00096365  0.51330439  1
  Ta  Ta112  1  0.19281820  0.21246063  0.74727444  1
  Ta  Ta113  1  0.78479993  0.77694451  0.75051677  1
  Ta  Ta114  1  0.39455384  0.20984940  0.73265526  1
  Ta  Ta115  1  0.09244051  0.91540260  0.14438633  1
  Ta  Ta116  1  0.40350950  0.39835034  0.74385316  1
  Ta  Ta117  1  0.78630524  0.38165903  0.23380444  1
  Ta  Ta118  1  0.39852726  0.80266703  0.74269996  1
  Ta  Ta119  1  0.58596683  0.79691114  0.48890272  1
  Ti  Ti120  1  0.91286463  0.08974763  0.85993920  1
  Ti  Ti121  1  0.70572355  0.31041460  0.85973689  1
  Ti  Ti122  1  0.47724992  0.70812227  0.11775395  1
  Ti  Ti123  1  0.80570488  0.20621305  0.51282214  1
  Ti  Ti124  1  0.20113327  0.17797178  0.50304765  1
  Ti  Ti125  1  0.90015052  0.68999140  0.36984755  1
  Ti  Ti126  1  0.82279405  0.20916692  0.74529655  1
  Ti  Ti127  1  -0.00739533  0.39452774  0.49852189  1
  Ti  Ti128  1  0.80174043  0.59684854  0.01118231  1
  Ti  Ti129  1  0.48961082  0.30321439  0.87901851  1
  Ti  Ti130  1  0.90242543  0.48095019  0.63342048  1
  Ti  Ti131  1  0.59587928  0.40578210  0.75268738  1
  Ti  Ti132  1  0.50617250  0.09997688  0.12601573  1
  Ti  Ti133  1  0.41557920  -0.00136061  0.72670167  1
  Ti  Ti134  1  0.38648347  0.80242134  0.50793299  1
  Ti  Ti135  1  0.61099716  0.21726189  0.25393128  1
  Ti  Ti136  1  0.00270988  0.80252458  0.26112819  1
  Ti  Ti137  1  0.01693615  0.57727302  0.75981392  1
  Ti  Ti138  1  0.91014232  0.90425144  0.37467784  1
  Ti  Ti139  1  0.39497123  0.00014830  0.24942837  1
  Ti  Ti140  1  0.49690739  0.71503837  0.88378923  1
  Ti  Ti141  1  0.79721909  0.58467588  0.23663670  1
  Ti  Ti142  1  0.79997201  0.80742114  0.26904717  1
  Ti  Ti143  1  0.90454247  0.10821485  0.62319970  1
  Ti  Ti144  1  0.40678080  0.61079411  0.50485658  1
  Ti  Ti145  1  0.29506840  0.09700528  0.63153508  1
  Ti  Ti146  1  0.48935870  0.68771111  0.37470847  1
  Ti  Ti147  1  0.30743606  0.30009710  0.87369012  1
  Ti  Ti148  1  0.29434778  0.89609251  0.63570148  1
  Ti  Ti149  1  -0.00808848  0.58715091  0.49354400  1
  Ti  Ti150  1  0.30663737  0.70402334  0.88136940  1
  Ti  Ti151  1  0.89168231  0.09087376  0.38726647  1
  Ti  Ti152  1  0.29660835  0.30839816  0.11617597  1
  Ti  Ti153  1  0.38750474  0.79211649  0.24894699  1
  Ti  Ti154  1  0.09870537  0.10372299  0.85326998  1
  Ti  Ti155  1  0.49541614  0.70892134  0.61826779  1
  Ti  Ti156  1  0.21008356  0.77899495  0.75923152  1
  Ti  Ti157  1  0.59145439  0.60044891  0.49510380  1
  Ti  Ti158  1  0.10372158  0.49151945  0.38285309  1
  Ti  Ti159  1  0.50770439  0.51286016  0.63766430  1
  Mo  Mo160  1  0.90703709  0.29828004  0.61774817  1
  Mo  Mo161  1  0.48991509  0.10765382  0.61691972  1
  Mo  Mo162  1  0.10990648  0.28440853  0.87847384  1
  Mo  Mo163  1  0.48735357  0.89678110  0.60974292  1
  Mo  Mo164  1  0.10256838  0.09717912  0.12415432  1
  Mo  Mo165  1  -0.00757913  0.00384408  0.74358736  1
  Mo  Mo166  1  0.79259041  0.19262046  0.25425032  1
  Mo  Mo167  1  0.60122547  0.00516782  0.01192118  1
  Mo  Mo168  1  0.49582126  0.31542551  0.63027770  1
  Mo  Mo169  1  0.70694862  0.50275422  0.12981039  1
  Mo  Mo170  1  -0.00136252  0.79510244  -0.00224255  1
  Mo  Mo171  1  0.20103757  -0.01237969  0.50670107  1
  Mo  Mo172  1  0.19939441  0.00130700  0.24472070  1
  Mo  Mo173  1  0.70443214  0.71165064  0.88147688  1
  Mo  Mo174  1  0.49918147  0.50943620  0.37364394  1
  Mo  Mo175  1  -0.00046686  0.39665934  0.00473358  1
  Mo  Mo176  1  0.80319577  0.00819250  0.50347747  1
  Mo  Mo177  1  0.39108658  0.79432805  -0.00706642  1
  Mo  Mo178  1  0.19832957  0.60162495  0.76336657  1
  Mo  Mo179  1  0.10704640  0.68880212  0.87288202  1
  Mo  Mo180  1  0.09523036  0.49618099  0.87815981  1
  Mo  Mo181  1  0.30549981  0.71066429  0.62691983  1
  Mo  Mo182  1  0.39072558  0.20854782  -0.00340252  1
  Mo  Mo183  1  0.20109755  0.79623470  0.24712596  1
  Mo  Mo184  1  0.21233225  -0.00035616  0.75133910  1
  Mo  Mo185  1  0.30011976  0.89634868  0.37008110  1
  Mo  Mo186  1  0.69820197  0.30291995  0.38055780  1
  Mo  Mo187  1  0.40386442  0.19526555  0.50989005  1
  Mo  Mo188  1  0.00302064  0.19451529  0.74672093  1
  Mo  Mo189  1  0.38930187  0.40006096  -0.00769876  1
  Mo  Mo190  1  0.82297452  0.60122063  0.75450103  1
  Mo  Mo191  1  0.48975411  0.50522609  0.11683599  1
  Mo  Mo192  1  -0.00505297  -0.00914132  0.26536846  1
  Mo  Mo193  1  0.21178926  0.81593967  0.50207805  1
  Mo  Mo194  1  0.19131626  0.40062324  0.50076710  1
  Mo  Mo195  1  -0.00353708  0.19504626  0.49748684  1
  Mo  Mo196  1  0.29830890  0.69207957  0.11849322  1
  Mo  Mo197  1  0.69298323  0.29724696  0.12359832  1
  Mo  Mo198  1  0.59323545  0.00804594  0.72051052  1
  Mo  Mo199  1  0.81058731  0.39875719  0.76325292  1
