# generated using pymatgen
data_HfZrTaTiMo
_symmetry_space_group_name_H-M   'P 1'
_cell_length_a   15.21839131
_cell_length_b   15.22010365
_cell_length_c   16.82914035
_cell_angle_alpha   89.95058923
_cell_angle_beta   89.97753473
_cell_angle_gamma   89.81783119
_symmetry_Int_Tables_number   1
_chemical_formula_structural   HfZrTaTiMo
_chemical_formula_sum   'Hf40 Zr40 Ta40 Ti40 Mo40'
_cell_volume   3898.03648490
_cell_formula_units_Z   40
loop_
 _symmetry_equiv_pos_site_id
 _symmetry_equiv_pos_as_xyz
  1  'x, y, z'
loop_
 _atom_site_type_symbol
 _atom_site_label
 _atom_site_symmetry_multiplicity
 _atom_site_fract_x
 _atom_site_fract_y
 _atom_site_fract_z
 _atom_site_occupancy
  Hf  Hf0  1  0.80716657  0.00538740  0.74535890  1
  Hf  Hf1  1  0.50389498  0.09619555  0.61375526  1
  Hf  Hf2  1  0.90642411  0.47884293  0.63575570  1
  Hf  Hf3  1  0.11055548  0.88843870  0.63458457  1
  Hf  Hf4  1  0.67536283  0.52421597  0.12179288  1
  Hf  Hf5  1  0.49626862  0.70605838  0.62825372  1
  Hf  Hf6  1  0.19428133  0.19928815  0.47983644  1
  Hf  Hf7  1  0.81823460  0.20995632  0.01792960  1
  Hf  Hf8  1  0.01556978  0.20498748  0.01801779  1
  Hf  Hf9  1  0.08678794  0.31162744  0.61052331  1
  Hf  Hf10  1  0.28380915  0.69822903  0.62605021  1
  Hf  Hf11  1  0.18660949  0.59581036  0.00837942  1
  Hf  Hf12  1  0.30996958  0.09755887  0.87321539  1
  Hf  Hf13  1  0.89822064  0.68914693  0.63331428  1
  Hf  Hf14  1  0.60243090  0.21310260  0.24754782  1
  Hf  Hf15  1  0.51132444  0.09795696  0.87908500  1
  Hf  Hf16  1  0.88849287  0.48822195  0.14182781  1
  Hf  Hf17  1  0.40488817  0.20169779  0.74208821  1
  Hf  Hf18  1  0.29066163  0.91174061  0.13731842  1
  Hf  Hf19  1  -0.00995438  0.60626751  0.25001205  1
  Hf  Hf20  1  0.40994723  0.39519358  0.75614850  1
  Hf  Hf21  1  0.08762858  0.90646557  0.13446102  1
  Hf  Hf22  1  0.50082901  0.69060387  0.37583878  1
  Hf  Hf23  1  0.90937774  0.31951190  0.86674707  1
  Hf  Hf24  1  0.38367937  0.60553564  0.75722440  1
  Hf  Hf25  1  0.20095656  0.79473634  0.00105500  1
  Hf  Hf26  1  0.50406085  0.90001366  0.35758625  1
  Hf  Hf27  1  0.69875834  0.70614439  0.63017863  1
  Hf  Hf28  1  0.39570200  0.59164430  0.49891998  1
  Hf  Hf29  1  -0.00594009  0.20688692  0.73916934  1
  Hf  Hf30  1  0.89852431  0.69271646  0.88841048  1
  Hf  Hf31  1  0.00618055  -0.00204093  0.50207231  1
  Hf  Hf32  1  0.19909548  0.40924157  0.48651774  1
  Hf  Hf33  1  0.90237822  0.11125928  0.87557437  1
  Hf  Hf34  1  0.60343210  0.19832044  0.01650858  1
  Hf  Hf35  1  0.10574153  0.50924665  0.62974576  1
  Hf  Hf36  1  0.57891980  0.41551875  0.24392661  1
  Hf  Hf37  1  0.20404087  0.20389249  0.74371870  1
  Hf  Hf38  1  0.90032330  0.08940450  0.36585633  1
  Hf  Hf39  1  0.59330408  0.60763316  0.76451265  1
  Zr  Zr40  1  0.20267759  0.39856411  0.75191670  1
  Zr  Zr41  1  0.70506986  0.49733976  0.62534760  1
  Zr  Zr42  1  0.78354785  0.61411928  0.25272470  1
  Zr  Zr43  1  0.21934603  0.19545266  0.26405542  1
  Zr  Zr44  1  0.50392547  0.47729084  0.62037361  1
  Zr  Zr45  1  0.40334712  0.20146352  0.48820625  1
  Zr  Zr46  1  0.10497269  0.10140943  0.86756758  1
  Zr  Zr47  1  0.80248628  0.42100390  -0.00365229  1
  Zr  Zr48  1  0.32535453  0.30648437  0.13020281  1
  Zr  Zr49  1  0.60027336  0.21712443  0.74515277  1
  Zr  Zr50  1  0.71246174  0.09892616  0.13517866  1
  Zr  Zr51  1  0.08756402  0.70585008  0.36661441  1
  Zr  Zr52  1  0.20064621  0.60793331  0.48054638  1
  Zr  Zr53  1  -0.00056113  0.58353206  0.49209776  1
  Zr  Zr54  1  0.01672812  0.18940999  0.25269216  1
  Zr  Zr55  1  0.89795518  0.88675365  0.62344015  1
  Zr  Zr56  1  0.61117858  -0.00125065  0.75126515  1
  Zr  Zr57  1  0.70360363  0.11187578  0.61452357  1
  Zr  Zr58  1  0.21184243  -0.00447908  0.48696927  1
  Zr  Zr59  1  0.89280627  0.90027116  0.88277026  1
  Zr  Zr60  1  0.11060654  0.31314541  0.14250662  1
  Zr  Zr61  1  0.31465102  0.89288819  0.63541397  1
  Zr  Zr62  1  0.41561680  -0.01144495  0.00800499  1
  Zr  Zr63  1  0.58724484  0.40569012  0.00083459  1
  Zr  Zr64  1  0.79890559  0.60063177  0.49570953  1
  Zr  Zr65  1  0.70398977  0.29841214  0.87924479  1
  Zr  Zr66  1  0.42560883  0.58852225  0.23311071  1
  Zr  Zr67  1  0.39759961  0.80357570  0.49276535  1
  Zr  Zr68  1  0.89444073  0.88419519  0.37815300  1
  Zr  Zr69  1  0.60350518  0.78439626  0.23503636  1
  Zr  Zr70  1  0.39625624  0.78690453  0.23003515  1
  Zr  Zr71  1  0.78995511  -0.00341593  0.50028433  1
  Zr  Zr72  1  0.20650551  -0.00188001  -0.00429393  1
  Zr  Zr73  1  0.10023390  0.09807266  0.62345281  1
  Zr  Zr74  1  0.69096415  0.91379711  0.12157315  1
  Zr  Zr75  1  0.30331217  0.09330823  0.62300949  1
  Zr  Zr76  1  0.00196522  0.00253690  0.00138172  1
  Zr  Zr77  1  0.39318995  0.59028595  0.00961912  1
  Zr  Zr78  1  0.20097758  0.40036830  0.00100349  1
  Zr  Zr79  1  0.69029941  0.71050128  0.89301661  1
  Ta  Ta80  1  0.70066317  0.90676845  0.36079162  1
  Ta  Ta81  1  0.09635431  0.69846760  0.13130465  1
  Ta  Ta82  1  0.09102832  0.90692214  0.36319387  1
  Ta  Ta83  1  0.10231195  0.89073252  0.86705093  1
  Ta  Ta84  1  0.89700391  0.70131497  0.10926858  1
  Ta  Ta85  1  0.57892452  0.81287220  0.01239805  1
  Ta  Ta86  1  0.81150440  0.21172408  0.24641589  1
  Ta  Ta87  1  0.38973959  0.01350632  0.25323961  1
  Ta  Ta88  1  0.70623450  0.70797065  0.09797524  1
  Ta  Ta89  1  0.50113324  0.09101086  0.13726641  1
  Ta  Ta90  1  0.19476285  0.80252492  0.48581625  1
  Ta  Ta91  1  0.09577735  0.48724928  0.35369233  1
  Ta  Ta92  1  0.31412014  0.50170910  0.35747226  1
  Ta  Ta93  1  0.60894551  0.80900934  0.49701191  1
  Ta  Ta94  1  0.88636320  0.90002965  0.11849811  1
  Ta  Ta95  1  0.50903663  0.88930576  0.87066895  1
  Ta  Ta96  1  0.68335000  0.50394131  0.37603841  1
  Ta  Ta97  1  0.30012706  0.49801292  0.62663980  1
  Ta  Ta98  1  0.00010533  0.79330663  0.75755490  1
  Ta  Ta99  1  0.79937740  0.20745687  0.48465187  1
  Ta  Ta100  1  0.88946908  0.48945117  0.36188684  1
  Ta  Ta101  1  0.20596496  0.78081071  0.76477063  1
  Ta  Ta102  1  0.50866192  0.10258626  0.36721046  1
  Ta  Ta103  1  0.29620889  0.89386165  0.35840661  1
  Ta  Ta104  1  0.59806429  0.60190942  0.50040102  1
  Ta  Ta105  1  0.08393539  0.49215121  0.87176441  1
  Ta  Ta106  1  0.71214431  0.31987295  0.13390558  1
  Ta  Ta107  1  0.79694173  0.58477409  0.76684298  1
  Ta  Ta108  1  0.28932747  0.49567560  0.14388797  1
  Ta  Ta109  1  0.00033779  0.40283732  0.00932543  1
  Ta  Ta110  1  0.78929849  0.79821723  0.75919170  1
  Ta  Ta111  1  0.39427414  0.79088928  0.02169612  1
  Ta  Ta112  1  0.19290034  0.79777319  0.25059924  1
  Ta  Ta113  1  0.00359228  -0.00486649  0.74845518  1
  Ta  Ta114  1  0.31587891  0.88027715  0.87065109  1
  Ta  Ta115  1  0.71109938  0.09614320  0.88952872  1
  Ta  Ta116  1  0.29027740  0.50329115  0.87395471  1
  Ta  Ta117  1  0.31031804  0.30991904  0.61145616  1
  Ta  Ta118  1  0.21101234  0.19511043  0.01043768  1
  Ta  Ta119  1  0.10313157  0.29870487  0.87893680  1
  Ti  Ti120  1  0.88362030  0.29575607  0.61718559  1
  Ti  Ti121  1  0.20865870  0.60926667  0.25488302  1
  Ti  Ti122  1  0.00497765  0.79444574  0.00071188  1
  Ti  Ti123  1  0.51093697  0.89548755  0.63154521  1
  Ti  Ti124  1  0.09556882  0.50103653  0.14774350  1
  Ti  Ti125  1  0.69984168  0.71274463  0.38190607  1
  Ti  Ti126  1  0.69836072  0.89637707  0.62677418  1
  Ti  Ti127  1  0.41191405  0.20628956  0.25738993  1
  Ti  Ti128  1  -0.00057041  0.79195497  0.50183030  1
  Ti  Ti129  1  0.89959464  0.10574876  0.61584608  1
  Ti  Ti130  1  0.00162174  0.59575529  0.75734430  1
  Ti  Ti131  1  0.79418459  0.20693056  0.74628628  1
  Ti  Ti132  1  0.80073416  0.39654103  0.49056556  1
  Ti  Ti133  1  0.49466206  0.29690042  0.88360480  1
  Ti  Ti134  1  0.69804879  0.90876418  0.89526931  1
  Ti  Ti135  1  0.70239867  0.10122006  0.36149825  1
  Ti  Ti136  1  0.40882958  -0.00820147  0.75403236  1
  Ti  Ti137  1  0.40626813  -0.00317338  0.48300510  1
  Ti  Ti138  1  0.61560072  0.40946016  0.76549095  1
  Ti  Ti139  1  0.18696022  0.01223962  0.25971213  1
  Ti  Ti140  1  0.09408460  0.70031023  0.62948841  1
  Ti  Ti141  1  0.50313803  0.32059565  0.38343395  1
  Ti  Ti142  1  0.48012556  0.70956177  0.88201029  1
  Ti  Ti143  1  0.91277917  0.08790053  0.13923900  1
  Ti  Ti144  1  0.60747122  0.20771187  0.48789042  1
  Ti  Ti145  1  0.88986840  0.69946746  0.37924367  1
  Ti  Ti146  1  0.40479526  0.19855684  0.00942957  1
  Ti  Ti147  1  -0.00687598  0.20547017  0.48819815  1
  Ti  Ti148  1  0.70472757  0.30980901  0.36794203  1
  Ti  Ti149  1  -0.01223382  0.80254693  0.24314920  1
  Ti  Ti150  1  0.10269974  0.68878179  0.87513011  1
  Ti  Ti151  1  -0.00845070  0.58627564  0.00673980  1
  Ti  Ti152  1  0.30558357  0.31181738  0.37132771  1
  Ti  Ti153  1  0.20671652  -0.00974754  0.75809031  1
  Ti  Ti154  1  0.90528259  0.30564956  0.36717920  1
  Ti  Ti155  1  0.49536036  0.50127687  0.88081158  1
  Ti  Ti156  1  0.69091265  0.31089952  0.61513961  1
  Ti  Ti157  1  0.30393744  0.29659018  0.88407358  1
  Ti  Ti158  1  0.59822942  0.00042806  0.48870012  1
  Ti  Ti159  1  0.80096061  0.80321909  0.24091283  1
  Mo  Mo160  1  0.12225849  0.09606358  0.12679268  1
  Mo  Mo161  1  0.78460456  0.39893743  0.25739617  1
  Mo  Mo162  1  0.59508203  0.00635291  0.25710507  1
  Mo  Mo163  1  0.80348422  -0.00296913  0.25303523  1
  Mo  Mo164  1  0.80259247  0.80928856  0.00208520  1
  Mo  Mo165  1  0.30401641  0.10495129  0.12685762  1
  Mo  Mo166  1  0.31051356  0.09499787  0.37288489  1
  Mo  Mo167  1  0.18951632  0.59988768  0.75688490  1
  Mo  Mo168  1  0.20367758  0.40359906  0.26160756  1
  Mo  Mo169  1  0.80261732  0.01113543  0.00103831  1
  Mo  Mo170  1  -0.00297855  -0.00839700  0.24555306  1
  Mo  Mo171  1  0.09340317  0.30248849  0.37902041  1
  Mo  Mo172  1  0.29809674  0.70267000  0.36853278  1
  Mo  Mo173  1  0.50703921  0.29166012  0.12378760  1
  Mo  Mo174  1  0.40826393  0.79834707  0.75373585  1
  Mo  Mo175  1  0.90237289  0.30018768  0.13468198  1
  Mo  Mo176  1  0.80188084  0.60092404  -0.00237142  1
  Mo  Mo177  1  0.58955063  0.60685060  -0.01474395  1
  Mo  Mo178  1  0.09577477  0.09525101  0.38106652  1
  Mo  Mo179  1  0.29565877  0.69510200  0.88239087  1
  Mo  Mo180  1  -0.00885940  0.39436562  0.25641269  1
  Mo  Mo181  1  -0.00973310  0.39297833  0.48315662  1
  Mo  Mo182  1  0.39419424  0.40040212  0.49569725  1
  Mo  Mo183  1  0.00199901  0.39730772  0.74783869  1
  Mo  Mo184  1  0.49434286  0.90217738  0.13856167  1
  Mo  Mo185  1  0.50460757  0.29545688  0.60961714  1
  Mo  Mo186  1  0.28522488  0.69323126  0.12906264  1
  Mo  Mo187  1  0.51544367  0.68475976  0.10759015  1
  Mo  Mo188  1  0.50239394  0.49805156  0.38608259  1
  Mo  Mo189  1  0.90410859  0.50383647  0.87010517  1
  Mo  Mo190  1  0.47943916  0.47957932  0.11049037  1
  Mo  Mo191  1  0.59853765  0.00326148  -0.00150472  1
  Mo  Mo192  1  0.60652142  0.39561940  0.49129490  1
  Mo  Mo193  1  0.60372714  0.80469644  0.75474686  1
  Mo  Mo194  1  0.79014649  0.79691308  0.49986520  1
  Mo  Mo195  1  0.79439881  0.39041837  0.74663424  1
  Mo  Mo196  1  0.40094627  0.39061849  0.25616550  1
  Mo  Mo197  1  0.39292607  0.39258619  -0.01377897  1
  Mo  Mo198  1  0.69858028  0.50567053  0.87447025  1
  Mo  Mo199  1  0.60361059  0.60862557  0.25246306  1
