# generated using pymatgen
data_HfZrTaTiMo
_symmetry_space_group_name_H-M   'P 1'
_cell_length_a   15.18782138
_cell_length_b   15.16242261
_cell_length_c   16.80228773
_cell_angle_alpha   90.02049231
_cell_angle_beta   90.00417867
_cell_angle_gamma   90.01418125
_symmetry_Int_Tables_number   1
_chemical_formula_structural   HfZrTaTiMo
_chemical_formula_sum   'Hf40 Zr40 Ta40 Ti40 Mo40'
_cell_volume   3869.30044423
_cell_formula_units_Z   40
loop_
 _symmetry_equiv_pos_site_id
 _symmetry_equiv_pos_as_xyz
  1  'x, y, z'
loop_
 _atom_site_type_symbol
 _atom_site_label
 _atom_site_symmetry_multiplicity
 _atom_site_fract_x
 _atom_site_fract_y
 _atom_site_fract_z
 _atom_site_occupancy
  Hf  Hf0  1  0.62463613  0.19505272  0.49881370  1
  Hf  Hf1  1  0.57348747  0.40240379  0.24250727  1
  Hf  Hf2  1  0.21717202  0.78877972  0.49856184  1
  Hf  Hf3  1  0.48448010  0.70085346  0.62861997  1
  Hf  Hf4  1  0.90363236  0.91290430  0.62456369  1
  Hf  Hf5  1  0.79843226  0.01580617  0.49182342  1
  Hf  Hf6  1  0.30667296  0.29661431  0.61895461  1
  Hf  Hf7  1  0.30644446  0.88984689  0.36070795  1
  Hf  Hf8  1  0.69479101  0.69552787  0.61835813  1
  Hf  Hf9  1  0.31903229  0.09384991  0.38386519  1
  Hf  Hf10  1  0.79053204  0.40956590  0.77071705  1
  Hf  Hf11  1  0.71339920  0.11083316  0.12586217  1
  Hf  Hf12  1  0.20858320  -0.00452458  0.74754603  1
  Hf  Hf13  1  0.68765754  0.52038042  0.11475608  1
  Hf  Hf14  1  0.69541191  0.29960437  0.36146754  1
  Hf  Hf15  1  0.49621108  0.89605341  0.88227220  1
  Hf  Hf16  1  0.00569606  0.21550497  0.25337152  1
  Hf  Hf17  1  0.39003604  0.56636436  0.00293685  1
  Hf  Hf18  1  0.90154340  0.68856849  0.61052581  1
  Hf  Hf19  1  0.79058662  0.39519546  -0.01075559  1
  Hf  Hf20  1  0.10740738  0.68354919  0.61206575  1
  Hf  Hf21  1  0.58344207  0.39478920  0.74836216  1
  Hf  Hf22  1  0.80845649  0.79417532  0.74751813  1
  Hf  Hf23  1  0.17541301  0.59448843  -0.00906985  1
  Hf  Hf24  1  -0.00884832  0.40453277  0.75828241  1
  Hf  Hf25  1  0.41617864  0.19535745  0.24897435  1
  Hf  Hf26  1  0.21547072  0.21348202  -0.00669183  1
  Hf  Hf27  1  0.81361597  0.00701549  -0.00581459  1
  Hf  Hf28  1  0.10339779  0.32507481  0.12089418  1
  Hf  Hf29  1  0.70047802  0.90799487  0.35927850  1
  Hf  Hf30  1  0.29321422  0.69756711  0.87543492  1
  Hf  Hf31  1  0.59554843  0.01188333  0.76357520  1
  Hf  Hf32  1  0.82248338  0.21135985  0.77705487  1
  Hf  Hf33  1  0.28207994  0.49581280  0.39016904  1
  Hf  Hf34  1  0.70627633  0.89617911  0.87371195  1
  Hf  Hf35  1  0.79474729  0.80894509  0.50293528  1
  Hf  Hf36  1  0.69338000  0.90849965  0.63399399  1
  Hf  Hf37  1  0.09739679  0.68346991  0.38225211  1
  Hf  Hf38  1  0.40600871  0.00756472  -0.00421132  1
  Hf  Hf39  1  0.79210321  0.39893030  0.49707054  1
  Zr  Zr40  1  0.29230488  0.29141494  0.39651244  1
  Zr  Zr41  1  0.29405413  0.90295926  0.13081913  1
  Zr  Zr42  1  0.39900459  -0.00007413  0.75697081  1
  Zr  Zr43  1  -0.00953676  0.60008936  0.74729941  1
  Zr  Zr44  1  0.71042046  0.29804600  0.63546455  1
  Zr  Zr45  1  0.72080453  0.10421124  0.63882799  1
  Zr  Zr46  1  0.09756162  0.90040358  0.13809616  1
  Zr  Zr47  1  0.39612113  0.79321437  0.01288827  1
  Zr  Zr48  1  0.69231101  0.30057557  0.12901338  1
  Zr  Zr49  1  0.91255763  0.70274918  0.88196768  1
  Zr  Zr50  1  0.60410064  0.80117498  0.01648731  1
  Zr  Zr51  1  0.50001052  0.68269241  0.88349499  1
  Zr  Zr52  1  0.59572932  0.58911410  0.74897228  1
  Zr  Zr53  1  0.60857175  0.78354490  0.23468570  1
  Zr  Zr54  1  0.27675704  0.50301424  0.61924264  1
  Zr  Zr55  1  0.40160650  0.78550749  0.22753947  1
  Zr  Zr56  1  0.01242060  0.00724233  0.74801072  1
  Zr  Zr57  1  0.39586181  0.58236345  0.23979591  1
  Zr  Zr58  1  0.56610430  0.40379217  0.00123539  1
  Zr  Zr59  1  0.59535352  0.79666388  0.75333856  1
  Zr  Zr60  1  0.80861836  0.40861518  0.24570340  1
  Zr  Zr61  1  0.31336882  0.10147478  0.12250841  1
  Zr  Zr62  1  0.18877464  0.58271031  0.24261378  1
  Zr  Zr63  1  0.11267808  0.10874999  0.61675508  1
  Zr  Zr64  1  0.10714773  0.90074444  0.36893322  1
  Zr  Zr65  1  0.00568425  0.20796811  -0.01291817  1
  Zr  Zr66  1  0.89101896  0.70069169  0.11795024  1
  Zr  Zr67  1  0.78970259  0.61640781  0.25351029  1
  Zr  Zr68  1  0.11050116  0.10565884  0.12201161  1
  Zr  Zr69  1  0.36807155  0.38833661  0.24342241  1
  Zr  Zr70  1  0.57680592  0.80831021  0.50092840  1
  Zr  Zr71  1  0.58762972  0.39296535  0.50822776  1
  Zr  Zr72  1  0.90678984  0.90491608  0.37572069  1
  Zr  Zr73  1  0.49789143  0.90537290  0.35435486  1
  Zr  Zr74  1  0.11007900  0.11598442  0.38709723  1
  Zr  Zr75  1  0.80940934  0.80883782  0.00127874  1
  Zr  Zr76  1  0.83954087  0.20507233  0.48102561  1
  Zr  Zr77  1  0.69307864  0.69879545  0.38602219  1
  Zr  Zr78  1  0.72300151  0.90712176  0.14093047  1
  Zr  Zr79  1  -0.01044617  0.79163742  0.25154816  1
  Ta  Ta80  1  0.19846101  0.79712903  0.74737697  1
  Ta  Ta81  1  0.49325548  0.30070604  0.37997882  1
  Ta  Ta82  1  0.90676409  0.49695608  0.10564065  1
  Ta  Ta83  1  0.30687935  0.89139254  0.62103420  1
  Ta  Ta84  1  0.01198750  0.80138802  0.73926127  1
  Ta  Ta85  1  0.60282393  0.00386835  0.49773066  1
  Ta  Ta86  1  0.01330863  -0.00832738  -0.00371949  1
  Ta  Ta87  1  0.18957653  0.80375328  -0.00098484  1
  Ta  Ta88  1  0.20748162  0.01273964  0.25682726  1
  Ta  Ta89  1  0.21052814  0.21577232  0.24974747  1
  Ta  Ta90  1  0.10121121  0.30354650  0.64545518  1
  Ta  Ta91  1  0.29824028  0.69695603  0.63566361  1
  Ta  Ta92  1  0.50993072  0.66716246  0.11274363  1
  Ta  Ta93  1  0.80390956  0.20292448  -0.01438116  1
  Ta  Ta94  1  0.18704260  0.59259265  0.75994350  1
  Ta  Ta95  1  0.51264661  0.10189394  0.62318413  1
  Ta  Ta96  1  0.81206615  0.19816071  0.26082415  1
  Ta  Ta97  1  0.31625619  0.09447976  0.61337338  1
  Ta  Ta98  1  0.17412689  0.38823145  0.50926085  1
  Ta  Ta99  1  0.51958676  0.10596748  0.37620810  1
  Ta  Ta100  1  0.41368102  -0.01117077  0.50206756  1
  Ta  Ta101  1  0.58579534  0.59335381  0.50155125  1
  Ta  Ta102  1  0.80898825  0.00421952  0.76336817  1
  Ta  Ta103  1  -0.00040906  0.01641122  0.50263413  1
  Ta  Ta104  1  -0.01583218  0.39961032  0.51234611  1
  Ta  Ta105  1  0.00478665  0.80431419  0.50260767  1
  Ta  Ta106  1  0.70708423  0.68847060  0.88443078  1
  Ta  Ta107  1  0.89732871  0.50217093  0.37922636  1
  Ta  Ta108  1  0.60527574  0.20253953  -0.01356103  1
  Ta  Ta109  1  0.60622412  0.00904844  -0.00095106  1
  Ta  Ta110  1  0.41453195  0.19773875  0.74544752  1
  Ta  Ta111  1  0.47888230  0.49469658  0.61680194  1
  Ta  Ta112  1  0.90124470  0.69458053  0.39088941  1
  Ta  Ta113  1  0.38498477  0.61333113  0.49887152  1
  Ta  Ta114  1  0.11329952  0.30821524  0.85797473  1
  Ta  Ta115  1  0.48582318  0.69454975  0.37630837  1
  Ta  Ta116  1  0.91120901  0.09840096  0.12483711  1
  Ta  Ta117  1  -0.01198287  0.58312939  0.24823308  1
  Ta  Ta118  1  0.89995501  0.29738285  0.11517049  1
  Ta  Ta119  1  0.91639515  0.90140351  0.86849071  1
  Ti  Ti120  1  0.50298399  0.92037668  0.13254605  1
  Ti  Ti121  1  0.91636382  0.11699392  0.63410382  1
  Ti  Ti122  1  0.70324974  0.10399043  0.87663212  1
  Ti  Ti123  1  0.39103128  0.58779045  0.75582659  1
  Ti  Ti124  1  0.28507939  0.48222095  0.87132272  1
  Ti  Ti125  1  0.41363342  0.21061452  0.00222472  1
  Ti  Ti126  1  0.69634288  0.50078772  0.62420370  1
  Ti  Ti127  1  0.48456045  0.49679536  0.38754275  1
  Ti  Ti128  1  0.60397996  0.20406040  0.76416621  1
  Ti  Ti129  1  0.51751987  0.11272003  0.12227670  1
  Ti  Ti130  1  0.10271187  0.89395375  0.87420884  1
  Ti  Ti131  1  0.10761956  0.89789263  0.61514814  1
  Ti  Ti132  1  0.67721498  0.50329681  0.88475495  1
  Ti  Ti133  1  0.92091350  0.09821195  0.87506129  1
  Ti  Ti134  1  0.42307051  0.20040355  0.50722844  1
  Ti  Ti135  1  0.09429530  0.69178230  0.12736820  1
  Ti  Ti136  1  0.39131424  0.39758475  0.74484118  1
  Ti  Ti137  1  0.68554648  0.50112828  0.37661261  1
  Ti  Ti138  1  0.26881586  0.47195781  0.11345948  1
  Ti  Ti139  1  0.29524662  0.69481180  0.36278013  1
  Ti  Ti140  1  0.21351452  0.19614911  0.75068516  1
  Ti  Ti141  1  0.20908851  -0.00507532  0.49941968  1
  Ti  Ti142  1  0.11779032  0.09701206  0.87672635  1
  Ti  Ti143  1  0.89369154  0.51160455  0.89152707  1
  Ti  Ti144  1  0.79544305  0.59665304  0.75041664  1
  Ti  Ti145  1  0.49171798  0.30024341  0.87321182  1
  Ti  Ti146  1  0.58754485  0.59416919  0.25576565  1
  Ti  Ti147  1  0.08340769  0.48693033  0.38198272  1
  Ti  Ti148  1  0.49273084  0.90498250  0.63112921  1
  Ti  Ti149  1  0.60424707  0.02472416  0.24759852  1
  Ti  Ti150  1  0.30659027  0.30023258  0.86302943  1
  Ti  Ti151  1  0.29012978  0.90147809  0.88402827  1
  Ti  Ti152  1  0.00883545  0.79899280  0.00442313  1
  Ti  Ti153  1  0.01502104  0.41498870  -0.01745467  1
  Ti  Ti154  1  0.82632517  0.00801704  0.25462822  1
  Ti  Ti155  1  0.90750184  0.30035062  0.63397759  1
  Ti  Ti156  1  0.31091190  0.10541021  0.87706198  1
  Ti  Ti157  1  0.39147686  0.80044479  0.75725781  1
  Ti  Ti158  1  0.79574704  0.58838412  0.50032166  1
  Ti  Ti159  1  0.28426081  0.69153837  0.12009038  1
  Mo  Mo160  1  0.47281747  0.48704004  0.86431908  1
  Mo  Mo161  1  0.08492155  0.50513339  0.11904941  1
  Mo  Mo162  1  0.19886752  0.40041671  -0.01430252  1
  Mo  Mo163  1  0.17642440  0.39360875  0.25785038  1
  Mo  Mo164  1  0.20208014  0.40094450  0.74817628  1
  Mo  Mo165  1  0.91783011  0.10235100  0.36931874  1
  Mo  Mo166  1  -0.00509073  0.60631042  -0.00178304  1
  Mo  Mo167  1  0.10152495  0.71403774  0.86998779  1
  Mo  Mo168  1  0.87676230  0.49242168  0.62860785  1
  Mo  Mo169  1  0.02140613  0.22340131  0.50373829  1
  Mo  Mo170  1  0.19302081  0.59211025  0.49469641  1
  Mo  Mo171  1  0.01520725  0.20188371  0.76397388  1
  Mo  Mo172  1  0.37348737  0.37926766  -0.00218273  1
  Mo  Mo173  1  0.48587783  0.48719557  0.12589999  1
  Mo  Mo174  1  0.59231848  0.59449111  -0.00953226  1
  Mo  Mo175  1  0.69102526  0.30018882  0.87568656  1
  Mo  Mo176  1  -0.00455090  0.40814239  0.24710015  1
  Mo  Mo177  1  0.69758152  0.69864865  0.11832891  1
  Mo  Mo178  1  0.60627137  0.20465650  0.25258817  1
  Mo  Mo179  1  0.70919943  0.09894197  0.36292379  1
  Mo  Mo180  1  0.91319446  0.91557533  0.12894335  1
  Mo  Mo181  1  -0.00831823  0.58721496  0.50207905  1
  Mo  Mo182  1  0.80468578  0.80323540  0.25490414  1
  Mo  Mo183  1  0.08171369  0.49435257  0.62200642  1
  Mo  Mo184  1  0.09762534  0.31190906  0.37943927  1
  Mo  Mo185  1  0.39801102  0.79943505  0.49789731  1
  Mo  Mo186  1  0.49880369  0.28917994  0.63140317  1
  Mo  Mo187  1  0.39797974  0.40387594  0.50208222  1
  Mo  Mo188  1  0.79345621  0.59668640  -0.00512043  1
  Mo  Mo189  1  0.19924348  0.78780692  0.24558425  1
  Mo  Mo190  1  0.20928689  0.19736150  0.51084278  1
  Mo  Mo191  1  0.49087737  0.28913588  0.11952973  1
  Mo  Mo192  1  0.91250238  0.31479779  0.37071259  1
  Mo  Mo193  1  0.00615875  0.01614794  0.25101577  1
  Mo  Mo194  1  0.09316364  0.50614819  0.86909563  1
  Mo  Mo195  1  0.29376091  0.29177424  0.12335312  1
  Mo  Mo196  1  0.90813077  0.30805705  0.88823116  1
  Mo  Mo197  1  0.50237807  0.11018242  0.88181156  1
  Mo  Mo198  1  0.20001786  -0.00134118  -0.01417419  1
  Mo  Mo199  1  0.41137321  0.00405075  0.24632117  1
