# generated using pymatgen
data_HfZrTaTiMo
_symmetry_space_group_name_H-M   'P 1'
_cell_length_a   15.21559936
_cell_length_b   15.20533415
_cell_length_c   16.83191242
_cell_angle_alpha   90.05908278
_cell_angle_beta   89.96195140
_cell_angle_gamma   90.04062989
_symmetry_Int_Tables_number   1
_chemical_formula_structural   HfZrTaTiMo
_chemical_formula_sum   'Hf40 Zr40 Ta40 Ti40 Mo40'
_cell_volume   3894.19827431
_cell_formula_units_Z   40
loop_
 _symmetry_equiv_pos_site_id
 _symmetry_equiv_pos_as_xyz
  1  'x, y, z'
loop_
 _atom_site_type_symbol
 _atom_site_label
 _atom_site_symmetry_multiplicity
 _atom_site_fract_x
 _atom_site_fract_y
 _atom_site_fract_z
 _atom_site_occupancy
  Hf  Hf0  1  0.20468073  0.39298368  0.24983588  1
  Hf  Hf1  1  0.91084626  0.30277050  0.61801637  1
  Hf  Hf2  1  0.80093450  0.40605948  0.74995834  1
  Hf  Hf3  1  0.61889811  0.80077491  0.22589000  1
  Hf  Hf4  1  0.21242962  0.19197633  0.50383664  1
  Hf  Hf5  1  0.20613235  0.39563290  0.74944267  1
  Hf  Hf6  1  0.69496713  0.07640750  0.36789535  1
  Hf  Hf7  1  0.10702890  0.10141427  0.12314010  1
  Hf  Hf8  1  0.09556670  0.09703253  0.37349194  1
  Hf  Hf9  1  0.59117304  0.18591480  0.25723929  1
  Hf  Hf10  1  0.50099283  0.31789128  0.12944714  1
  Hf  Hf11  1  0.49939222  0.91165195  0.11631885  1
  Hf  Hf12  1  0.39961616  0.21361524  0.76823793  1
  Hf  Hf13  1  0.80090049  0.58968335  0.01637392  1
  Hf  Hf14  1  0.09855767  0.49764811  0.62330327  1
  Hf  Hf15  1  0.80100325  0.79249175  0.52127391  1
  Hf  Hf16  1  0.10342725  0.90144976  0.12865219  1
  Hf  Hf17  1  0.39772657  0.00357648  -0.01372759  1
  Hf  Hf18  1  0.11162247  0.28511649  0.87442383  1
  Hf  Hf19  1  0.69651812  0.28512509  0.12663684  1
  Hf  Hf20  1  0.79224796  0.60938695  0.23084014  1
  Hf  Hf21  1  0.90538174  0.29965021  0.87188236  1
  Hf  Hf22  1  0.69284063  0.68635891  0.37182837  1
  Hf  Hf23  1  0.60235804  0.40284011  -0.00955772  1
  Hf  Hf24  1  0.29998675  0.49556707  0.38233387  1
  Hf  Hf25  1  0.71286442  0.89663979  0.88294187  1
  Hf  Hf26  1  0.19593973  0.79949894  0.74912047  1
  Hf  Hf27  1  0.69733540  0.29398930  0.62201526  1
  Hf  Hf28  1  0.50397733  0.71391643  0.37536524  1
  Hf  Hf29  1  0.38574124  0.00665255  0.76190864  1
  Hf  Hf30  1  0.50732873  0.50894485  0.85648930  1
  Hf  Hf31  1  0.70067657  0.30095357  0.87647671  1
  Hf  Hf32  1  0.20425437  0.79732622  0.24525639  1
  Hf  Hf33  1  0.59737704  0.79305766  -0.00183135  1
  Hf  Hf34  1  0.19825203  0.19649136  0.25630484  1
  Hf  Hf35  1  0.00674408  0.60418887  -0.00479435  1
  Hf  Hf36  1  0.39612133  0.00848191  0.50210168  1
  Hf  Hf37  1  0.91832842  0.30564373  0.38214538  1
  Hf  Hf38  1  0.79072535  0.59705780  0.50564104  1
  Hf  Hf39  1  0.70471853  0.09453494  0.86877040  1
  Zr  Zr40  1  0.81093469  0.38849745  0.24192350  1
  Zr  Zr41  1  0.79370002  -0.02134704  0.23474385  1
  Zr  Zr42  1  0.10314074  0.08723443  0.62352357  1
  Zr  Zr43  1  0.29672343  0.52231122  0.87409358  1
  Zr  Zr44  1  0.00326227  0.19567042  -0.00236384  1
  Zr  Zr45  1  0.80458918  -0.01151978  0.50661722  1
  Zr  Zr46  1  0.89374265  0.72418922  0.35979106  1
  Zr  Zr47  1  0.08258981  0.31546626  0.12318986  1
  Zr  Zr48  1  0.09310385  0.48618070  0.39312389  1
  Zr  Zr49  1  0.79996946  0.18497078  0.00519270  1
  Zr  Zr50  1  0.17840841  0.59007243  0.24186934  1
  Zr  Zr51  1  0.30647873  0.50034228  0.11269235  1
  Zr  Zr52  1  0.40390880  0.81231217  0.50684347  1
  Zr  Zr53  1  -0.00393623  0.81293477  0.50833875  1
  Zr  Zr54  1  0.29223676  0.29200520  0.10799069  1
  Zr  Zr55  1  0.50129464  0.69709374  0.63924390  1
  Zr  Zr56  1  0.80437843  0.18766650  0.50015083  1
  Zr  Zr57  1  0.40257158  0.41557389  0.50517342  1
  Zr  Zr58  1  0.70940653  0.87898385  0.37460618  1
  Zr  Zr59  1  0.40705909  0.01724726  0.25192200  1
  Zr  Zr60  1  0.80286999  0.19997198  0.74473188  1
  Zr  Zr61  1  0.70089570  0.67731366  0.88102915  1
  Zr  Zr62  1  0.79746895  0.79543612  0.74669480  1
  Zr  Zr63  1  0.40609191  0.20688698  -0.01399247  1
  Zr  Zr64  1  0.40265697  0.21063357  0.48577172  1
  Zr  Zr65  1  0.09769548  0.69668373  0.37675050  1
  Zr  Zr66  1  0.08732022  0.90022565  0.36382572  1
  Zr  Zr67  1  0.39115308  0.21926492  0.26334184  1
  Zr  Zr68  1  -0.00824760  0.60781435  0.50461057  1
  Zr  Zr69  1  0.93119617  0.49559227  0.13936189  1
  Zr  Zr70  1  0.29947504  0.70282314  0.39209555  1
  Zr  Zr71  1  0.90951469  0.08177411  0.85991812  1
  Zr  Zr72  1  0.68956980  0.50212213  0.63264624  1
  Zr  Zr73  1  0.28960852  0.70958868  0.10753939  1
  Zr  Zr74  1  0.38875441  0.61232397  0.24770310  1
  Zr  Zr75  1  0.49540351  0.10652377  0.63605213  1
  Zr  Zr76  1  0.70691799  0.29992052  0.37066103  1
  Zr  Zr77  1  0.50306037  0.30872892  0.63247257  1
  Zr  Zr78  1  0.40067360  0.81812984  0.24747334  1
  Zr  Zr79  1  0.59695051  0.19274216  0.48833618  1
  Ta  Ta80  1  0.39001863  0.80153758  0.75752443  1
  Ta  Ta81  1  0.58753566  0.59196034  0.23713813  1
  Ta  Ta82  1  0.00339367  0.39945348  0.75230803  1
  Ta  Ta83  1  0.30132047  0.69865963  0.62366647  1
  Ta  Ta84  1  -0.00032745  -0.01199503  -0.00373798  1
  Ta  Ta85  1  0.60513358  0.41020942  0.49573875  1
  Ta  Ta86  1  0.49596586  0.69590575  0.11829517  1
  Ta  Ta87  1  0.27485385  0.11008275  0.88419216  1
  Ta  Ta88  1  0.80838048  0.39552928  0.01129051  1
  Ta  Ta89  1  0.18800742  0.41371792  -0.00659781  1
  Ta  Ta90  1  0.91159679  0.89173574  0.12203145  1
  Ta  Ta91  1  0.90231938  0.49955437  0.62992790  1
  Ta  Ta92  1  0.49921026  0.90318469  0.64256600  1
  Ta  Ta93  1  0.91264590  0.69700881  0.64316582  1
  Ta  Ta94  1  0.91004970  0.70170111  0.86818118  1
  Ta  Ta95  1  0.68376985  0.48631007  0.13197745  1
  Ta  Ta96  1  0.59761866  0.79523153  0.75837975  1
  Ta  Ta97  1  0.90321120  0.09102900  0.36046554  1
  Ta  Ta98  1  0.81482873  0.79184683  0.00918428  1
  Ta  Ta99  1  0.11048069  0.69849649  0.87575605  1
  Ta  Ta100  1  0.21202332  -0.00414248  0.24735834  1
  Ta  Ta101  1  0.10554046  0.29999280  0.61624539  1
  Ta  Ta102  1  0.89302649  0.50526621  0.87284001  1
  Ta  Ta103  1  0.59263062  0.19617713  -0.00973138  1
  Ta  Ta104  1  0.90633395  0.09350332  0.13138604  1
  Ta  Ta105  1  0.50661427  0.51571113  0.37627390  1
  Ta  Ta106  1  0.20906999  0.59510893  0.51513878  1
  Ta  Ta107  1  0.49195561  0.50454437  0.64924077  1
  Ta  Ta108  1  0.58685172  0.60017095  0.50707422  1
  Ta  Ta109  1  0.18371278  0.80744640  -0.00443848  1
  Ta  Ta110  1  0.59951685  0.00553224  -0.01115245  1
  Ta  Ta111  1  0.49856087  0.89692698  0.87053681  1
  Ta  Ta112  1  0.89747589  0.50865545  0.36350569  1
  Ta  Ta113  1  0.60461432  0.79986051  0.51395216  1
  Ta  Ta114  1  0.00280581  0.19248891  0.50186853  1
  Ta  Ta115  1  0.69569308  0.08892327  0.63705630  1
  Ta  Ta116  1  0.59628542  -0.01057561  0.50981836  1
  Ta  Ta117  1  0.59777021  -0.00190637  0.76062264  1
  Ta  Ta118  1  0.90383833  0.09144754  0.63702777  1
  Ta  Ta119  1  0.28581921  0.90046487  0.88060372  1
  Ti  Ti120  1  0.08966583  0.90380600  0.87089269  1
  Ti  Ti121  1  0.40743713  0.41197653  -0.00919652  1
  Ti  Ti122  1  -0.00534018  0.21276566  0.24738736  1
  Ti  Ti123  1  0.19191038  0.00373483  0.75354459  1
  Ti  Ti124  1  0.30504777  0.29936195  0.62823064  1
  Ti  Ti125  1  0.20154629  0.60657884  0.74222614  1
  Ti  Ti126  1  0.07801705  0.70133071  0.12581822  1
  Ti  Ti127  1  0.29856272  0.09479854  0.37523792  1
  Ti  Ti128  1  0.29547536  0.90158297  0.38005837  1
  Ti  Ti129  1  0.30802749  0.50199039  0.63355578  1
  Ti  Ti130  1  0.69589040  0.49515032  0.36528385  1
  Ti  Ti131  1  0.00612148  0.60101172  0.75297959  1
  Ti  Ti132  1  0.59421805  0.59245418  0.00878027  1
  Ti  Ti133  1  0.50247017  0.32111592  0.37017874  1
  Ti  Ti134  1  0.51706608  0.91834935  0.37018359  1
  Ti  Ti135  1  0.29889480  0.08826855  0.11196745  1
  Ti  Ti136  1  0.09165458  0.89172847  0.63530419  1
  Ti  Ti137  1  0.09589315  0.50012781  0.86840988  1
  Ti  Ti138  1  0.80539536  0.40615749  0.49656493  1
  Ti  Ti139  1  0.20817436  0.19086584  0.73795086  1
  Ti  Ti140  1  -0.00513845  0.40553940  -0.00874014  1
  Ti  Ti141  1  0.68983356  0.08125740  0.12035750  1
  Ti  Ti142  1  0.69283803  0.89709530  0.63765479  1
  Ti  Ti143  1  0.29514651  0.91049357  0.62926064  1
  Ti  Ti144  1  0.01582290  0.19534928  0.74487181  1
  Ti  Ti145  1  0.40471626  0.60872610  -0.00548313  1
  Ti  Ti146  1  -0.00743437  0.00109502  0.50005668  1
  Ti  Ti147  1  0.30101492  0.31461909  0.88391640  1
  Ti  Ti148  1  0.50025839  0.11013166  0.11911663  1
  Ti  Ti149  1  0.39467534  0.80257169  -0.00960153  1
  Ti  Ti150  1  0.79700618  0.59947009  0.74738081  1
  Ti  Ti151  1  0.41211820  0.41996661  0.25202534  1
  Ti  Ti152  1  0.59712156  0.38977710  0.76012058  1
  Ti  Ti153  1  0.19309227  0.79872817  0.51546128  1
  Ti  Ti154  1  0.48803033  0.69847843  0.86475636  1
  Ti  Ti155  1  0.90542061  0.89159044  0.87039450  1
  Ti  Ti156  1  0.11344802  0.30138823  0.39464296  1
  Ti  Ti157  1  0.19555243  -0.01259363  0.50205844  1
  Ti  Ti158  1  0.90545790  0.90503755  0.64736420  1
  Ti  Ti159  1  0.80288316  0.18734607  0.24188958  1
  Mo  Mo160  1  0.00076190  0.79986467  -0.00942420  1
  Mo  Mo161  1  -0.00698839  0.80258249  0.24421845  1
  Mo  Mo162  1  0.80717091  -0.00802260  0.01040589  1
  Mo  Mo163  1  0.19211721  0.00204015  -0.00576963  1
  Mo  Mo164  1  0.10184263  0.09126073  0.86799060  1
  Mo  Mo165  1  0.50181052  0.09932436  0.86835799  1
  Mo  Mo166  1  0.29944338  0.09745312  0.62992629  1
  Mo  Mo167  1  -0.00364162  0.60115136  0.25613407  1
  Mo  Mo168  1  0.39306892  0.40496911  0.75280122  1
  Mo  Mo169  1  0.38863661  0.61124116  0.75369356  1
  Mo  Mo170  1  0.60609343  0.60267380  0.75361618  1
  Mo  Mo171  1  0.71097309  0.49666462  0.87536015  1
  Mo  Mo172  1  0.40372511  0.60233366  0.50757145  1
  Mo  Mo173  1  0.59818967  0.19574301  0.76135571  1
  Mo  Mo174  1  0.10581109  0.69853672  0.62735974  1
  Mo  Mo175  1  0.79706113  -0.00745857  0.74158349  1
  Mo  Mo176  1  0.69486504  0.69168839  0.10829089  1
  Mo  Mo177  1  0.19302873  0.60539614  0.00040597  1
  Mo  Mo178  1  0.49827455  0.30811510  0.87263186  1
  Mo  Mo179  1  0.10921582  0.50654647  0.11630115  1
  Mo  Mo180  1  0.90189326  0.91324798  0.36642910  1
  Mo  Mo181  1  0.50283368  0.09222971  0.38001390  1
  Mo  Mo182  1  0.29945328  0.71298910  0.88591316  1
  Mo  Mo183  1  0.01362268  0.40172803  0.26108060  1
  Mo  Mo184  1  0.90616805  0.70354417  0.12863886  1
  Mo  Mo185  1  0.20643855  0.39336661  0.51543628  1
  Mo  Mo186  1  0.00483891  0.79249137  0.75469075  1
  Mo  Mo187  1  -0.00419041  0.39805051  0.50677582  1
  Mo  Mo188  1  0.20085223  0.20394157  0.00084222  1
  Mo  Mo189  1  0.00213761  0.01077493  0.24354564  1
  Mo  Mo190  1  0.80230621  0.79535346  0.22341395  1
  Mo  Mo191  1  0.59652089  -0.00424214  0.23694804  1
  Mo  Mo192  1  0.29752823  0.30735999  0.37658413  1
  Mo  Mo193  1  0.70371391  0.90025197  0.09596734  1
  Mo  Mo194  1  0.49778133  0.50580680  0.11781590  1
  Mo  Mo195  1  0.59536808  0.40199001  0.25789837  1
  Mo  Mo196  1  0.69809552  0.69999664  0.63077823  1
  Mo  Mo197  1  0.00488202  -0.00931750  0.75070477  1
  Mo  Mo198  1  0.89751998  0.29070103  0.12686422  1
  Mo  Mo199  1  0.29442550  0.91086821  0.10669028  1
