# generated using pymatgen
data_HfZrTaTiMo
_symmetry_space_group_name_H-M   'P 1'
_cell_length_a   15.17028334
_cell_length_b   15.16753163
_cell_length_c   16.83375220
_cell_angle_alpha   89.98473129
_cell_angle_beta   90.01154447
_cell_angle_gamma   90.10293853
_symmetry_Int_Tables_number   1
_chemical_formula_structural   HfZrTaTiMo
_chemical_formula_sum   'Hf40 Zr40 Ta40 Ti40 Mo40'
_cell_volume   3873.36841044
_cell_formula_units_Z   40
loop_
 _symmetry_equiv_pos_site_id
 _symmetry_equiv_pos_as_xyz
  1  'x, y, z'
loop_
 _atom_site_type_symbol
 _atom_site_label
 _atom_site_symmetry_multiplicity
 _atom_site_fract_x
 _atom_site_fract_y
 _atom_site_fract_z
 _atom_site_occupancy
  Hf  Hf0  1  0.00034721  0.01035647  0.50192230  1
  Hf  Hf1  1  0.38676069  0.41367834  0.25353360  1
  Hf  Hf2  1  0.58302945  -0.00234261  0.49520708  1
  Hf  Hf3  1  0.09946533  0.71557624  0.12324850  1
  Hf  Hf4  1  0.31088184  0.69114752  0.38360734  1
  Hf  Hf5  1  0.60691588  0.79769468  0.50262406  1
  Hf  Hf6  1  0.89625559  0.29395890  0.11874390  1
  Hf  Hf7  1  0.58925459  0.39835159  0.48476871  1
  Hf  Hf8  1  0.61101046  0.81086335  -0.01037171  1
  Hf  Hf9  1  0.01080009  0.20270500  -0.01191759  1
  Hf  Hf10  1  0.30182557  0.31166488  0.12615604  1
  Hf  Hf11  1  0.59265724  0.60179283  0.24496012  1
  Hf  Hf12  1  0.81698180  0.20125156  0.25878475  1
  Hf  Hf13  1  -0.00886920  0.80062809  0.50947755  1
  Hf  Hf14  1  0.90185666  0.10697783  0.63560032  1
  Hf  Hf15  1  0.07961300  0.48744104  0.63304233  1
  Hf  Hf16  1  0.31828753  0.11303461  0.60493459  1
  Hf  Hf17  1  0.20168332  0.80042862  0.25934368  1
  Hf  Hf18  1  0.20281940  0.59011157  0.24810579  1
  Hf  Hf19  1  0.59630862  0.59402622  0.76289181  1
  Hf  Hf20  1  0.10134481  0.90792247  0.62618971  1
  Hf  Hf21  1  0.71850877  0.30097070  0.60638242  1
  Hf  Hf22  1  0.81103979  0.00135904  0.25046718  1
  Hf  Hf23  1  0.38579883  0.59814382  0.76177166  1
  Hf  Hf24  1  -0.00053072  0.79021148  0.76033677  1
  Hf  Hf25  1  0.01390454  0.21583734  0.75779901  1
  Hf  Hf26  1  0.49163101  0.92452424  0.88060973  1
  Hf  Hf27  1  -0.02285205  0.58473654  0.76069683  1
  Hf  Hf28  1  0.50007548  0.89003594  0.35055347  1
  Hf  Hf29  1  0.59317786  0.36645131  0.00129028  1
  Hf  Hf30  1  0.60604803  0.19499848  0.26828750  1
  Hf  Hf31  1  -0.00544321  0.60704008  0.24444778  1
  Hf  Hf32  1  0.48639424  0.49686704  0.61732663  1
  Hf  Hf33  1  0.39364218  0.81910178  0.75589825  1
  Hf  Hf34  1  0.70411308  0.48200666  0.88943442  1
  Hf  Hf35  1  0.70697462  0.09777286  0.12767063  1
  Hf  Hf36  1  0.79138618  0.18774810  -0.00619812  1
  Hf  Hf37  1  0.19192958  0.39085568  -0.00862624  1
  Hf  Hf38  1  0.19510936  0.80406988  0.49680438  1
  Hf  Hf39  1  0.18405280  0.60510120  0.76629013  1
  Zr  Zr40  1  0.60204875  0.80239360  0.76796135  1
  Zr  Zr41  1  0.69407214  0.10950481  0.62062554  1
  Zr  Zr42  1  0.48631096  0.69575157  0.88608873  1
  Zr  Zr43  1  0.41526661  0.18497364  0.75104548  1
  Zr  Zr44  1  0.70142071  0.89274675  0.36821778  1
  Zr  Zr45  1  0.40628245  0.01309866  0.24756064  1
  Zr  Zr46  1  0.31371070  0.13023161  0.37787328  1
  Zr  Zr47  1  0.19961334  0.80235127  0.74324634  1
  Zr  Zr48  1  0.31752281  0.91454822  0.60833744  1
  Zr  Zr49  1  0.12616118  0.09453599  0.87369412  1
  Zr  Zr50  1  0.89397647  0.48308412  0.35914224  1
  Zr  Zr51  1  0.28720863  0.48982569  0.62161027  1
  Zr  Zr52  1  -0.02180515  0.58573812  0.49977643  1
  Zr  Zr53  1  0.29739645  0.69033786  0.61295078  1
  Zr  Zr54  1  0.89051836  0.70682698  0.11179071  1
  Zr  Zr55  1  0.07504800  0.48264464  0.88303255  1
  Zr  Zr56  1  0.69555839  0.48827202  0.11474992  1
  Zr  Zr57  1  0.89141178  0.49405555  0.12016360  1
  Zr  Zr58  1  0.49178525  0.49545738  0.11662348  1
  Zr  Zr59  1  0.92217006  0.27824159  0.38655528  1
  Zr  Zr60  1  0.08799193  0.70066441  0.37628853  1
  Zr  Zr61  1  0.38423946  0.81389189  -0.00207951  1
  Zr  Zr62  1  0.49886804  0.69989691  0.63289985  1
  Zr  Zr63  1  0.88544890  0.69048130  0.63182402  1
  Zr  Zr64  1  0.52131243  0.11556189  0.88990583  1
  Zr  Zr65  1  0.60586796  0.38672235  0.74729670  1
  Zr  Zr66  1  0.70387954  0.89760079  0.63626068  1
  Zr  Zr67  1  0.29686090  0.10676709  0.12968024  1
  Zr  Zr68  1  0.79843206  0.78982734  0.24312447  1
  Zr  Zr69  1  0.00306457  0.80880736  -0.01543333  1
  Zr  Zr70  1  0.19189476  0.39024779  0.76368995  1
  Zr  Zr71  1  0.89870518  0.32163741  0.88789577  1
  Zr  Zr72  1  0.80343369  -0.00760567  0.50158212  1
  Zr  Zr73  1  0.48926965  0.70078422  0.11375535  1
  Zr  Zr74  1  0.00469789  0.00050694  -0.00787497  1
  Zr  Zr75  1  0.41608316  0.80238881  0.49793014  1
  Zr  Zr76  1  0.70007976  0.50742158  0.61412966  1
  Zr  Zr77  1  0.19275286  0.01081597  0.26123481  1
  Zr  Zr78  1  0.91250612  0.89113793  0.36762283  1
  Zr  Zr79  1  0.50235902  0.28337238  0.61886032  1
  Ta  Ta80  1  0.79898687  0.78572015  0.49990070  1
  Ta  Ta81  1  0.69730962  0.69656087  0.62971598  1
  Ta  Ta82  1  0.00940908  0.38444470  0.24157561  1
  Ta  Ta83  1  0.09779907  0.49121015  0.37022391  1
  Ta  Ta84  1  0.20052804  0.01695216  0.48819259  1
  Ta  Ta85  1  0.88722077  0.90898423  0.86068726  1
  Ta  Ta86  1  0.29562786  0.51310544  0.10659918  1
  Ta  Ta87  1  0.37965372  0.38298493  0.49180536  1
  Ta  Ta88  1  0.09252063  0.12467301  0.38289969  1
  Ta  Ta89  1  0.09367511  0.69072890  0.62212518  1
  Ta  Ta90  1  0.60620141  0.40045700  0.26633540  1
  Ta  Ta91  1  0.49264940  0.48802181  0.88129802  1
  Ta  Ta92  1  0.19167771  0.61140881  -0.01025544  1
  Ta  Ta93  1  0.89711973  0.09971309  0.86107088  1
  Ta  Ta94  1  0.79951722  0.21150681  0.75360455  1
  Ta  Ta95  1  0.19411141  0.21830805  0.25037031  1
  Ta  Ta96  1  0.59935000  0.19766497  0.47712468  1
  Ta  Ta97  1  0.40586815  0.00864800  0.02029258  1
  Ta  Ta98  1  0.29742942  0.89434066  0.13585651  1
  Ta  Ta99  1  0.30482293  0.28335091  0.88065062  1
  Ta  Ta100  1  0.69751526  0.50772824  0.37963263  1
  Ta  Ta101  1  0.09921613  0.49892774  0.11661517  1
  Ta  Ta102  1  0.88251332  0.69026319  0.37260678  1
  Ta  Ta103  1  0.30444290  0.90626450  0.37894447  1
  Ta  Ta104  1  0.01043503  0.00037214  0.75447557  1
  Ta  Ta105  1  0.21746859  0.20110703  0.74249516  1
  Ta  Ta106  1  0.78673770  0.59961692  0.76672436  1
  Ta  Ta107  1  0.58773058  0.01173832  0.74353534  1
  Ta  Ta108  1  0.69570568  0.69456926  0.10764083  1
  Ta  Ta109  1  0.22177288  0.00692763  0.74523711  1
  Ta  Ta110  1  0.39539468  0.39604696  -0.00542876  1
  Ta  Ta111  1  0.41436814  0.20850108  0.00925580  1
  Ta  Ta112  1  0.78565105  0.59025654  0.24671935  1
  Ta  Ta113  1  0.10079047  0.29339578  0.12125366  1
  Ta  Ta114  1  0.20714801  0.23133615  0.50668572  1
  Ta  Ta115  1  0.48156290  0.29439692  0.36526996  1
  Ta  Ta116  1  0.48628382  0.50855319  0.37782366  1
  Ta  Ta117  1  0.50894417  0.90127938  0.13350454  1
  Ta  Ta118  1  -0.00543519  0.59841527  -0.00394689  1
  Ta  Ta119  1  0.81440117  0.40865144  0.74560880  1
  Ti  Ti120  1  0.32011012  0.08760160  0.88566455  1
  Ti  Ti121  1  0.10056396  0.90918418  0.37772129  1
  Ti  Ti122  1  0.70042893  0.29670476  0.13504774  1
  Ti  Ti123  1  0.61253848  0.00355523  0.00728727  1
  Ti  Ti124  1  0.11607594  0.30940933  0.37161323  1
  Ti  Ti125  1  0.39192871  0.39298935  0.75531663  1
  Ti  Ti126  1  0.21206901  0.18991661  0.00155546  1
  Ti  Ti127  1  0.49980011  0.29995492  0.86839487  1
  Ti  Ti128  1  0.20762392  -0.01769527  0.00843133  1
  Ti  Ti129  1  0.71890586  0.30811846  0.38326969  1
  Ti  Ti130  1  0.80531761  -0.01674083  -0.00037498  1
  Ti  Ti131  1  0.59402052  0.59509019  -0.00923880  1
  Ti  Ti132  1  0.91008565  0.09594589  0.12118593  1
  Ti  Ti133  1  0.39238205  0.61038957  0.24515027  1
  Ti  Ti134  1  0.91613912  0.30511427  0.61912158  1
  Ti  Ti135  1  0.27932880  0.71962413  0.88461584  1
  Ti  Ti136  1  0.70906647  0.08277104  0.86463511  1
  Ti  Ti137  1  0.01755142  0.38669751  0.50052254  1
  Ti  Ti138  1  0.69313648  0.27887972  0.87355608  1
  Ti  Ti139  1  0.79132351  0.79334415  0.76763415  1
  Ti  Ti140  1  0.61212160  -0.00234041  0.24933317  1
  Ti  Ti141  1  0.29503299  0.70141252  0.11612992  1
  Ti  Ti142  1  0.50183343  0.70027915  0.36321334  1
  Ti  Ti143  1  0.51094834  0.10781999  0.12743734  1
  Ti  Ti144  1  0.70950708  0.89108386  0.12490985  1
  Ti  Ti145  1  0.88617402  0.69679089  0.88819351  1
  Ti  Ti146  1  0.09894791  0.09678715  0.12455307  1
  Ti  Ti147  1  0.00394688  0.01386897  0.25555492  1
  Ti  Ti148  1  0.11011874  0.10881155  0.62471574  1
  Ti  Ti149  1  0.50521471  0.29724741  0.14291324  1
  Ti  Ti150  1  0.69138562  0.69784932  0.36945566  1
  Ti  Ti151  1  0.71839171  0.10212709  0.38569090  1
  Ti  Ti152  1  0.18677056  0.59126995  0.49811814  1
  Ti  Ti153  1  0.92173097  0.90085823  0.13180584  1
  Ti  Ti154  1  0.11710999  0.89444806  0.86901984  1
  Ti  Ti155  1  0.28869235  0.49354956  0.38491313  1
  Ti  Ti156  1  0.89702073  0.89908466  0.64539427  1
  Ti  Ti157  1  0.30016082  0.49949611  0.88565530  1
  Ti  Ti158  1  0.81733237  0.41201867  0.49984199  1
  Ti  Ti159  1  0.59055669  0.60686641  0.49427344  1
  Mo  Mo160  1  0.61538474  0.19947617  0.74757640  1
  Mo  Mo161  1  0.30555546  0.30543150  0.63065351  1
  Mo  Mo162  1  0.00345537  0.81416379  0.24896066  1
  Mo  Mo163  1  0.79090518  0.60406495  -0.00784045  1
  Mo  Mo164  1  0.80013207  0.81209220  -0.00613093  1
  Mo  Mo165  1  0.60121036  0.79477392  0.23194168  1
  Mo  Mo166  1  -0.00109839  0.39948323  0.01897948  1
  Mo  Mo167  1  0.01655161  0.19968436  0.51491341  1
  Mo  Mo168  1  0.09177114  0.69942095  0.88138232  1
  Mo  Mo169  1  0.39537041  0.79646142  0.24215137  1
  Mo  Mo170  1  -0.01064549  0.39183896  0.74975744  1
  Mo  Mo171  1  0.29126019  0.91837122  0.88011654  1
  Mo  Mo172  1  0.40223287  0.00502637  0.47843412  1
  Mo  Mo173  1  0.11101332  0.28865320  0.88315825  1
  Mo  Mo174  1  0.88677950  0.50433771  0.89166340  1
  Mo  Mo175  1  0.19036158  0.40731324  0.49991650  1
  Mo  Mo176  1  0.88651950  0.48959935  0.62285075  1
  Mo  Mo177  1  0.50215678  0.91294949  0.63012094  1
  Mo  Mo178  1  0.79046493  0.38688407  0.00350869  1
  Mo  Mo179  1  0.51054342  0.09804688  0.36603427  1
  Mo  Mo180  1  0.70058069  0.91242714  0.87083844  1
  Mo  Mo181  1  0.39913746  0.00678677  0.75057871  1
  Mo  Mo182  1  0.80133971  0.00399792  0.74770665  1
  Mo  Mo183  1  0.40561570  0.21147138  0.23942359  1
  Mo  Mo184  1  0.50243715  0.08826667  0.61606632  1
  Mo  Mo185  1  0.38530732  0.59677684  -0.01243764  1
  Mo  Mo186  1  0.19135123  0.41060404  0.24061198  1
  Mo  Mo187  1  0.79221963  0.39219223  0.25692776  1
  Mo  Mo188  1  0.41455951  0.20544467  0.49434144  1
  Mo  Mo189  1  0.40271127  0.58743774  0.49337182  1
  Mo  Mo190  1  0.29104536  0.31295642  0.36676463  1
  Mo  Mo191  1  0.01254963  0.18991618  0.24322633  1
  Mo  Mo192  1  0.90668595  0.09582726  0.37973074  1
  Mo  Mo193  1  0.80959671  0.20034828  0.49614349  1
  Mo  Mo194  1  0.70138823  0.69655024  0.88960763  1
  Mo  Mo195  1  0.19442177  0.80917203  0.00567422  1
  Mo  Mo196  1  0.10092826  0.91092114  0.13410378  1
  Mo  Mo197  1  0.78288146  0.60312355  0.49101423  1
  Mo  Mo198  1  0.60468244  0.19366935  0.01247577  1
  Mo  Mo199  1  0.10750039  0.29607082  0.62698752  1
