# generated using pymatgen
data_HfZrTaTiMo
_symmetry_space_group_name_H-M   'P 1'
_cell_length_a   15.21018818
_cell_length_b   15.21171639
_cell_length_c   16.81472017
_cell_angle_alpha   90.10356242
_cell_angle_beta   89.96360308
_cell_angle_gamma   90.06616920
_symmetry_Int_Tables_number   1
_chemical_formula_structural   HfZrTaTiMo
_chemical_formula_sum   'Hf40 Zr40 Ta40 Ti40 Mo40'
_cell_volume   3890.46367932
_cell_formula_units_Z   40
loop_
 _symmetry_equiv_pos_site_id
 _symmetry_equiv_pos_as_xyz
  1  'x, y, z'
loop_
 _atom_site_type_symbol
 _atom_site_label
 _atom_site_symmetry_multiplicity
 _atom_site_fract_x
 _atom_site_fract_y
 _atom_site_fract_z
 _atom_site_occupancy
  Hf  Hf0  1  0.69241350  0.09851620  0.88906356  1
  Hf  Hf1  1  0.59564877  0.41659949  0.24344978  1
  Hf  Hf2  1  0.59543395  0.20151311  0.23414756  1
  Hf  Hf3  1  0.60518438  0.00569042  0.49249154  1
  Hf  Hf4  1  0.20365367  0.78975692  -0.00683583  1
  Hf  Hf5  1  0.01468653  0.40649505  0.24233037  1
  Hf  Hf6  1  0.20674476  -0.01284679  -0.00738904  1
  Hf  Hf7  1  0.90850495  0.29499316  0.13298880  1
  Hf  Hf8  1  0.30007554  0.89457393  0.13170857  1
  Hf  Hf9  1  0.80249762  0.00801157  0.75630099  1
  Hf  Hf10  1  0.71052008  0.30996410  0.35501856  1
  Hf  Hf11  1  0.57971363  0.61527022  0.27315879  1
  Hf  Hf12  1  0.31741502  0.29277723  0.86082159  1
  Hf  Hf13  1  0.21942963  0.19362224  -0.00661412  1
  Hf  Hf14  1  0.21759284  0.41252965  0.25367885  1
  Hf  Hf15  1  0.19830103  0.20035792  0.25875539  1
  Hf  Hf16  1  0.78218832  0.59397857  0.48699902  1
  Hf  Hf17  1  0.09004713  0.09330760  0.38502924  1
  Hf  Hf18  1  0.78154553  0.59499116  0.27190522  1
  Hf  Hf19  1  0.50634986  0.30041815  0.37707541  1
  Hf  Hf20  1  0.10553493  0.31374676  0.38103125  1
  Hf  Hf21  1  0.58059420  0.20102267  0.01717243  1
  Hf  Hf22  1  0.50732260  0.29701462  0.62527180  1
  Hf  Hf23  1  0.38918831  -0.01083160  0.52309125  1
  Hf  Hf24  1  0.80561973  0.20033217  0.75878517  1
  Hf  Hf25  1  0.60211094  0.60067117  0.75389148  1
  Hf  Hf26  1  0.80088065  0.40593196  0.75391592  1
  Hf  Hf27  1  0.91721858  0.90907088  0.88258960  1
  Hf  Hf28  1  0.80832454  0.40399178  0.00634834  1
  Hf  Hf29  1  0.52182111  0.09470093  0.63059861  1
  Hf  Hf30  1  0.69176968  0.51453873  0.11813539  1
  Hf  Hf31  1  0.80709904  0.39335531  0.49732852  1
  Hf  Hf32  1  0.59821779  0.00471453  0.25184070  1
  Hf  Hf33  1  0.00040233  0.61612398  0.25857839  1
  Hf  Hf34  1  0.49963882  0.91058735  0.85370684  1
  Hf  Hf35  1  0.11329650  0.31620632  0.88156017  1
  Hf  Hf36  1  0.88420905  0.51044616  0.62740731  1
  Hf  Hf37  1  0.38224826  0.58285149  0.25893517  1
  Hf  Hf38  1  0.11573349  0.30452147  0.11511810  1
  Hf  Hf39  1  0.09675434  0.09156421  0.61388907  1
  Zr  Zr40  1  0.80476840  0.79730177  0.24886114  1
  Zr  Zr41  1  0.18658088  0.59455274  -0.01622767  1
  Zr  Zr42  1  0.70554851  0.69802794  0.62330366  1
  Zr  Zr43  1  0.90360999  0.90930585  0.38595667  1
  Zr  Zr44  1  -0.00667390  0.61540540  -0.00401828  1
  Zr  Zr45  1  0.29905227  0.48709726  0.10511259  1
  Zr  Zr46  1  -0.00163560  0.59765918  0.49730926  1
  Zr  Zr47  1  0.38857012  0.59520309  0.75521275  1
  Zr  Zr48  1  0.21124755  0.41318887  0.51265983  1
  Zr  Zr49  1  0.10630490  0.89650967  0.39273008  1
  Zr  Zr50  1  0.30431925  0.89558201  0.38539874  1
  Zr  Zr51  1  0.90167236  0.48439176  0.36916971  1
  Zr  Zr52  1  0.57506454  0.60998502  0.49825976  1
  Zr  Zr53  1  0.09860684  0.08816785  0.87317325  1
  Zr  Zr54  1  0.70414778  0.29184047  0.62287426  1
  Zr  Zr55  1  0.20290304  0.19778655  0.73729347  1
  Zr  Zr56  1  0.69860667  0.89382179  0.87441582  1
  Zr  Zr57  1  0.91185835  0.27985982  0.34961562  1
  Zr  Zr58  1  0.89462180  0.51231152  0.13174502  1
  Zr  Zr59  1  0.40884809  0.19202162  0.49819088  1
  Zr  Zr60  1  0.50587495  0.87658994  0.38269292  1
  Zr  Zr61  1  -0.00365667  0.20588114  0.50108863  1
  Zr  Zr62  1  0.39591655  0.18374427  0.25625423  1
  Zr  Zr63  1  0.00522572  0.81094714  0.24821444  1
  Zr  Zr64  1  0.70826891  0.89492413  0.11494996  1
  Zr  Zr65  1  0.00025994  0.19799394  0.75528421  1
  Zr  Zr66  1  0.58809997  0.60901965  -0.01608442  1
  Zr  Zr67  1  0.68621376  0.72916527  0.39342038  1
  Zr  Zr68  1  0.40161601  0.80563289  -0.01216730  1
  Zr  Zr69  1  0.21476113  0.19551692  0.50442725  1
  Zr  Zr70  1  0.79497659  0.18323649  0.48319169  1
  Zr  Zr71  1  0.49854929  0.69418060  0.11977348  1
  Zr  Zr72  1  0.49697490  0.90644725  0.12736047  1
  Zr  Zr73  1  0.40369444  0.78379921  0.25500424  1
  Zr  Zr74  1  0.91771687  0.30634906  0.62602373  1
  Zr  Zr75  1  0.10242437  0.09491386  0.12138450  1
  Zr  Zr76  1  0.48846858  0.49437311  0.62537222  1
  Zr  Zr77  1  0.69509252  0.49569960  0.88514355  1
  Zr  Zr78  1  0.69949897  0.29861797  0.88491993  1
  Zr  Zr79  1  0.81255903  0.79903138  0.75238770  1
  Ta  Ta80  1  0.39692176  0.78045897  0.53206965  1
  Ta  Ta81  1  0.58867873  -0.00083980  0.00194942  1
  Ta  Ta82  1  0.00768161  0.40817606  0.75613109  1
  Ta  Ta83  1  0.19725919  0.61659346  0.52194410  1
  Ta  Ta84  1  0.20149732  0.79080096  0.25162031  1
  Ta  Ta85  1  0.29787331  0.89644994  0.84838874  1
  Ta  Ta86  1  0.00991886  0.80900441  0.00217211  1
  Ta  Ta87  1  -0.01033955  0.61031779  0.75033507  1
  Ta  Ta88  1  0.91079992  0.50292472  0.87694764  1
  Ta  Ta89  1  -0.00239771  0.19741274  -0.00810798  1
  Ta  Ta90  1  0.89123907  0.09289515  0.62169911  1
  Ta  Ta91  1  0.10833797  0.89240714  0.86246765  1
  Ta  Ta92  1  0.60492401  0.79914720  -0.00643708  1
  Ta  Ta93  1  0.79537253  0.61679297  -0.01612949  1
  Ta  Ta94  1  0.60910071  0.40880728  0.49691228  1
  Ta  Ta95  1  0.31791797  0.30814979  0.63250862  1
  Ta  Ta96  1  0.89938429  0.71181355  0.39163777  1
  Ta  Ta97  1  0.58846320  0.39703260  0.01225364  1
  Ta  Ta98  1  0.91106187  0.91047876  0.11358804  1
  Ta  Ta99  1  0.30934628  0.08849190  0.85690528  1
  Ta  Ta100  1  0.01407949  0.41140517  0.00089902  1
  Ta  Ta101  1  0.70291556  0.09571990  0.11521707  1
  Ta  Ta102  1  0.29395644  0.68766514  0.12202951  1
  Ta  Ta103  1  0.38915228  0.60383540  -0.02347427  1
  Ta  Ta104  1  0.69553216  0.91490965  0.63400929  1
  Ta  Ta105  1  0.28658201  0.48583056  0.87554068  1
  Ta  Ta106  1  0.31191118  0.31418296  0.38058300  1
  Ta  Ta107  1  0.80407797  0.19929489  0.00646232  1
  Ta  Ta108  1  0.80404015  0.00213266  0.24437111  1
  Ta  Ta109  1  0.20309645  0.40504403  0.73660149  1
  Ta  Ta110  1  0.59964628  0.39909750  0.74850878  1
  Ta  Ta111  1  -0.00089752  -0.01071311  0.73997681  1
  Ta  Ta112  1  0.39824005  0.00064222  0.73086748  1
  Ta  Ta113  1  0.50667847  0.29429462  0.86758433  1
  Ta  Ta114  1  0.10512936  0.51212750  0.12453002  1
  Ta  Ta115  1  0.80027574  0.60572762  0.76954946  1
  Ta  Ta116  1  0.48775481  0.48356081  0.87584602  1
  Ta  Ta117  1  0.08695641  0.49794918  0.62651644  1
  Ta  Ta118  1  0.20921869  -0.00037914  0.25679057  1
  Ta  Ta119  1  0.08947892  0.70910040  0.85649396  1
  Ti  Ti120  1  0.31259260  0.08945085  0.12586695  1
  Ti  Ti121  1  0.28998818  0.70620250  0.85551432  1
  Ti  Ti122  1  0.70796911  0.91357180  0.37372664  1
  Ti  Ti123  1  0.11206399  0.51033863  0.38483259  1
  Ti  Ti124  1  0.89779129  0.89920861  0.61605548  1
  Ti  Ti125  1  0.40131130  0.01358794  -0.00848916  1
  Ti  Ti126  1  0.61033481  0.19705159  0.48673034  1
  Ti  Ti127  1  0.40491938  0.38936830  0.24375891  1
  Ti  Ti128  1  0.47669571  0.49202790  0.38784619  1
  Ti  Ti129  1  0.60835953  0.80291572  0.24686393  1
  Ti  Ti130  1  0.29622635  0.69371931  0.38960920  1
  Ti  Ti131  1  0.10669502  0.70560079  0.38434374  1
  Ti  Ti132  1  0.18579612  0.59542430  0.74273139  1
  Ti  Ti133  1  0.48743822  0.08357304  0.37557494  1
  Ti  Ti134  1  0.20392992  0.80463340  0.52857190  1
  Ti  Ti135  1  0.00007311  0.01313877  0.24856242  1
  Ti  Ti136  1  0.00454641  0.80002537  0.51270015  1
  Ti  Ti137  1  0.49431082  0.10710411  0.86320327  1
  Ti  Ti138  1  0.70569771  0.30612431  0.12975959  1
  Ti  Ti139  1  0.31531976  0.28574342  0.12078154  1
  Ti  Ti140  1  0.81031998  0.00551715  -0.00217853  1
  Ti  Ti141  1  0.90705410  0.30281312  0.88307492  1
  Ti  Ti142  1  0.59100774  0.80970559  0.52661667  1
  Ti  Ti143  1  0.37785291  0.58841550  0.51104846  1
  Ti  Ti144  1  0.40059296  0.37906095  -0.00274082  1
  Ti  Ti145  1  0.49972121  0.71483016  0.85724511  1
  Ti  Ti146  1  0.70150087  0.70115223  0.12308661  1
  Ti  Ti147  1  0.48699238  0.50151732  0.11338771  1
  Ti  Ti148  1  0.10191923  0.70509923  0.12684955  1
  Ti  Ti149  1  0.19453826  0.60610753  0.25421453  1
  Ti  Ti150  1  0.10452820  0.90223593  0.12802770  1
  Ti  Ti151  1  0.19629784  -0.00758270  0.73248863  1
  Ti  Ti152  1  0.90606698  0.09818376  0.12086777  1
  Ti  Ti153  1  0.61015048  0.19256813  0.75141376  1
  Ti  Ti154  1  0.89535977  0.71040486  0.12131135  1
  Ti  Ti155  1  0.90103716  0.70512399  0.61846841  1
  Ti  Ti156  1  0.79709766  -0.00249319  0.50170205  1
  Ti  Ti157  1  0.79994041  0.18432145  0.24210194  1
  Ti  Ti158  1  0.19000607  0.79555053  0.72724311  1
  Ti  Ti159  1  0.80760818  0.79655192  -0.00806955  1
  Mo  Mo160  1  0.41203817  0.19515079  0.74385986  1
  Mo  Mo161  1  0.08845692  0.69766987  0.63473172  1
  Mo  Mo162  1  0.49263513  0.09431299  0.12321019  1
  Mo  Mo163  1  0.00924602  0.40448714  0.50321079  1
  Mo  Mo164  1  0.20513047  0.39571412  -0.00310096  1
  Mo  Mo165  1  0.29282579  0.89650738  0.63775198  1
  Mo  Mo166  1  0.69410189  0.49237444  0.63060127  1
  Mo  Mo167  1  0.40339234  0.39598954  0.75547061  1
  Mo  Mo168  1  0.50538605  0.89529411  0.63708055  1
  Mo  Mo169  1  0.59769632  0.80234635  0.73672812  1
  Mo  Mo170  1  0.00598919  -0.00134744  0.00341087  1
  Mo  Mo171  1  0.40161543  0.18751898  -0.00401470  1
  Mo  Mo172  1  0.49075230  0.30945506  0.12776335  1
  Mo  Mo173  1  0.89348655  0.08803352  0.36448786  1
  Mo  Mo174  1  0.29312675  0.69271192  0.63691233  1
  Mo  Mo175  1  0.29473386  0.09219820  0.37736933  1
  Mo  Mo176  1  0.29310404  0.49944928  0.63367546  1
  Mo  Mo177  1  0.47213120  0.69570287  0.39435452  1
  Mo  Mo178  1  0.39463164  0.79746631  0.73606353  1
  Mo  Mo179  1  0.68370631  0.49584256  0.37481674  1
  Mo  Mo180  1  0.69604303  0.70750125  0.87044671  1
  Mo  Mo181  1  0.00123610  0.80604585  0.73888653  1
  Mo  Mo182  1  0.60430557  0.00607644  0.75366828  1
  Mo  Mo183  1  0.10428904  0.30884585  0.62364213  1
  Mo  Mo184  1  0.20062643  -0.00512785  0.51438105  1
  Mo  Mo185  1  0.70857417  0.09724871  0.62508492  1
  Mo  Mo186  1  0.09808363  0.50411735  0.86129991  1
  Mo  Mo187  1  0.29314111  0.50744791  0.38124352  1
  Mo  Mo188  1  0.40573331  0.39832146  0.49985140  1
  Mo  Mo189  1  0.39278542  -0.00363194  0.25708268  1
  Mo  Mo190  1  0.90206517  0.70936751  0.87754505  1
  Mo  Mo191  1  0.89952762  0.10574453  0.88616435  1
  Mo  Mo192  1  0.49831313  0.70140472  0.64114116  1
  Mo  Mo193  1  0.80116653  0.80839451  0.51110226  1
  Mo  Mo194  1  -0.01176926  -0.00202165  0.51023321  1
  Mo  Mo195  1  0.30549663  0.10377552  0.63829617  1
  Mo  Mo196  1  0.69729131  0.09823642  0.36300805  1
  Mo  Mo197  1  0.79308702  0.39837488  0.23464616  1
  Mo  Mo198  1  0.09088857  0.89780440  0.61696685  1
  Mo  Mo199  1  0.00592181  0.19139365  0.24550530  1
