# generated using pymatgen
data_HfZrTaTiMo
_symmetry_space_group_name_H-M   'P 1'
_cell_length_a   15.19903132
_cell_length_b   15.22802779
_cell_length_c   16.86704997
_cell_angle_alpha   89.98824565
_cell_angle_beta   90.02722411
_cell_angle_gamma   89.94709879
_symmetry_Int_Tables_number   1
_chemical_formula_structural   HfZrTaTiMo
_chemical_formula_sum   'Hf40 Zr40 Ta40 Ti40 Mo40'
_cell_volume   3903.89797177
_cell_formula_units_Z   40
loop_
 _symmetry_equiv_pos_site_id
 _symmetry_equiv_pos_as_xyz
  1  'x, y, z'
loop_
 _atom_site_type_symbol
 _atom_site_label
 _atom_site_symmetry_multiplicity
 _atom_site_fract_x
 _atom_site_fract_y
 _atom_site_fract_z
 _atom_site_occupancy
  Hf  Hf0  1  0.27834187  0.69492812  0.14747580  1
  Hf  Hf1  1  0.00513096  0.79042505  0.50774019  1
  Hf  Hf2  1  0.48935245  0.91756748  0.86127079  1
  Hf  Hf3  1  0.10370250  0.30344559  0.62093493  1
  Hf  Hf4  1  0.69075871  0.48690533  0.11492033  1
  Hf  Hf5  1  0.49478312  0.69765752  0.36560511  1
  Hf  Hf6  1  0.09286075  0.50079842  0.61151561  1
  Hf  Hf7  1  0.49447211  0.70360588  0.87543613  1
  Hf  Hf8  1  0.80725938  0.18830250  0.74960926  1
  Hf  Hf9  1  0.50277919  0.32572206  0.87160474  1
  Hf  Hf10  1  0.90711041  0.88671005  0.88132747  1
  Hf  Hf11  1  0.70310617  0.09451797  0.12527260  1
  Hf  Hf12  1  0.09215766  0.70591614  0.35714797  1
  Hf  Hf13  1  0.00644557  0.19528809  0.74653495  1
  Hf  Hf14  1  0.00431304  0.77942004  0.74080030  1
  Hf  Hf15  1  0.59902893  0.79126942  0.74115339  1
  Hf  Hf16  1  0.59050317  0.79049933  0.50942625  1
  Hf  Hf17  1  0.50622225  0.30458468  0.38058952  1
  Hf  Hf18  1  0.80325393  0.38454627  -0.00614954  1
  Hf  Hf19  1  0.30925889  0.90546953  0.13610620  1
  Hf  Hf20  1  0.31402806  0.09833837  0.85075846  1
  Hf  Hf21  1  0.51103695  0.11649637  0.86619111  1
  Hf  Hf22  1  0.90547330  0.09477686  0.87861550  1
  Hf  Hf23  1  0.19961045  0.00894306  0.48718352  1
  Hf  Hf24  1  0.40010826  0.01804599  0.00281239  1
  Hf  Hf25  1  0.50816214  0.30920643  0.13322250  1
  Hf  Hf26  1  0.42409897  0.21422697  0.72593899  1
  Hf  Hf27  1  0.00722955  -0.01535030  0.74927489  1
  Hf  Hf28  1  0.92079957  0.29270419  0.38423409  1
  Hf  Hf29  1  0.18163134  0.62141368  0.73773868  1
  Hf  Hf30  1  0.20456599  0.41071499  0.75007304  1
  Hf  Hf31  1  0.30784012  0.50935304  0.86631135  1
  Hf  Hf32  1  0.90328121  0.88996839  0.38041572  1
  Hf  Hf33  1  0.79352225  -0.00360296  0.25495240  1
  Hf  Hf34  1  0.69661155  0.88449532  0.86820520  1
  Hf  Hf35  1  0.90369504  0.88330170  0.11420964  1
  Hf  Hf36  1  0.12494459  0.08771891  0.63461394  1
  Hf  Hf37  1  0.30020251  0.50982171  0.39094951  1
  Hf  Hf38  1  0.92030378  0.68563375  0.89067787  1
  Hf  Hf39  1  0.79946565  0.58187575  -0.01238106  1
  Zr  Zr40  1  -0.01738572  0.59525305  0.49684109  1
  Zr  Zr41  1  0.79265535  0.60357564  0.77057402  1
  Zr  Zr42  1  0.69319703  0.68955608  0.12167777  1
  Zr  Zr43  1  0.69454346  0.28400784  0.86599669  1
  Zr  Zr44  1  0.10525032  0.90546872  0.12442882  1
  Zr  Zr45  1  0.58918301  0.58250381  0.75965167  1
  Zr  Zr46  1  0.61064164  0.41170111  0.26222847  1
  Zr  Zr47  1  0.20811553  0.19625171  -0.01044771  1
  Zr  Zr48  1  0.79699889  0.40533985  0.76193057  1
  Zr  Zr49  1  0.60135390  -0.01397117  0.00811630  1
  Zr  Zr50  1  0.00404539  0.18988333  0.51411363  1
  Zr  Zr51  1  0.88556479  0.69029349  0.36760512  1
  Zr  Zr52  1  0.49319922  0.10386007  0.13627496  1
  Zr  Zr53  1  0.88349486  0.48076798  0.37777667  1
  Zr  Zr54  1  0.90617689  0.09435650  0.11500158  1
  Zr  Zr55  1  0.00028313  -0.00641658  0.25591293  1
  Zr  Zr56  1  0.19238823  0.62132097  0.50176347  1
  Zr  Zr57  1  0.41744866  0.20190601  0.51458374  1
  Zr  Zr58  1  0.79556657  0.79373664  0.24429672  1
  Zr  Zr59  1  0.39267563  0.61539517  0.72553254  1
  Zr  Zr60  1  0.69719591  0.49022952  0.62284699  1
  Zr  Zr61  1  0.11017941  0.31221586  0.11147295  1
  Zr  Zr62  1  0.51829551  0.09683398  0.37593581  1
  Zr  Zr63  1  0.37653787  0.82504290  0.74289455  1
  Zr  Zr64  1  0.59886937  0.20432681  0.00516329  1
  Zr  Zr65  1  0.39643240  -0.00069850  0.51571782  1
  Zr  Zr66  1  0.39580633  0.81430518  0.00078547  1
  Zr  Zr67  1  0.01877557  0.00115648  -0.01047784  1
  Zr  Zr68  1  0.27996852  0.71528914  0.87552898  1
  Zr  Zr69  1  0.30457573  0.71798714  0.36465427  1
  Zr  Zr70  1  -0.00317047  0.40361781  0.75189070  1
  Zr  Zr71  1  -0.00425555  0.57988756  0.24710133  1
  Zr  Zr72  1  0.10370041  0.30701893  0.88197742  1
  Zr  Zr73  1  0.48776115  0.89441442  0.37921847  1
  Zr  Zr74  1  0.09239755  0.11980251  0.37555893  1
  Zr  Zr75  1  0.37931665  0.59892844  0.01131780  1
  Zr  Zr76  1  0.20683622  0.01802682  0.26180468  1
  Zr  Zr77  1  0.79100076  -0.00224758  0.50061808  1
  Zr  Zr78  1  0.20444696  0.22776366  0.25433626  1
  Zr  Zr79  1  0.48908697  0.70275094  0.13383003  1
  Ta  Ta80  1  0.81460054  0.20122424  0.24718828  1
  Ta  Ta81  1  0.58409133  0.59063259  -0.01003057  1
  Ta  Ta82  1  0.31239102  0.30881244  0.86665670  1
  Ta  Ta83  1  0.31623246  0.11236783  0.37641594  1
  Ta  Ta84  1  0.68427688  0.68174880  0.36960818  1
  Ta  Ta85  1  0.10878093  0.10769805  0.12348096  1
  Ta  Ta86  1  0.88668472  0.10317744  0.38039700  1
  Ta  Ta87  1  0.50561170  0.50977390  0.38877563  1
  Ta  Ta88  1  0.60332256  -0.01270804  0.24402282  1
  Ta  Ta89  1  0.71950189  0.28938682  0.36844534  1
  Ta  Ta90  1  0.40137009  0.20674607  0.25684106  1
  Ta  Ta91  1  0.89984888  0.68050775  0.11744665  1
  Ta  Ta92  1  0.21489825  0.41795739  -0.00506296  1
  Ta  Ta93  1  0.69061552  0.29062067  0.63466577  1
  Ta  Ta94  1  0.39315718  0.39926171  0.25813034  1
  Ta  Ta95  1  0.39175469  0.58375255  0.24931806  1
  Ta  Ta96  1  0.89816038  0.89017980  0.62230125  1
  Ta  Ta97  1  0.80240314  -0.01426784  0.74606035  1
  Ta  Ta98  1  0.21437037  0.20739752  0.50119686  1
  Ta  Ta99  1  0.80205822  0.18994090  -0.00319587  1
  Ta  Ta100  1  0.59715162  0.80384160  0.24593845  1
  Ta  Ta101  1  0.40325086  0.40835741  0.50954889  1
  Ta  Ta102  1  0.41140136  0.41527349  0.72764982  1
  Ta  Ta103  1  0.78668246  0.37843286  0.50240601  1
  Ta  Ta104  1  0.71457392  0.29456796  0.13306679  1
  Ta  Ta105  1  0.00061783  0.38678258  0.24012359  1
  Ta  Ta106  1  0.20071919  0.42342868  0.25474114  1
  Ta  Ta107  1  0.00308919  -0.01013509  0.50299732  1
  Ta  Ta108  1  0.79211035  0.78695329  0.50336105  1
  Ta  Ta109  1  0.09198936  0.52110221  0.88218703  1
  Ta  Ta110  1  0.89172435  0.29806795  0.62081834  1
  Ta  Ta111  1  0.62890310  0.20181345  0.49697798  1
  Ta  Ta112  1  0.40736180  0.62329285  0.51424597  1
  Ta  Ta113  1  0.00193441  0.20141165  0.24016676  1
  Ta  Ta114  1  0.70293383  0.08285744  0.86921282  1
  Ta  Ta115  1  0.11355165  0.88752401  0.62380506  1
  Ta  Ta116  1  0.08627410  0.70987848  0.14097754  1
  Ta  Ta117  1  0.79390138  0.78957861  -0.00045867  1
  Ta  Ta118  1  0.30117397  0.31102194  0.61994697  1
  Ta  Ta119  1  0.78129725  0.57388475  0.24687906  1
  Ti  Ti120  1  0.40588228  -0.00063593  0.25407127  1
  Ti  Ti121  1  0.90102282  0.08724741  0.62431860  1
  Ti  Ti122  1  0.69262504  0.68886665  0.62388025  1
  Ti  Ti123  1  0.59859215  0.79650530  0.00467175  1
  Ti  Ti124  1  0.88597597  0.68834254  0.62305681  1
  Ti  Ti125  1  0.09347685  0.48093227  0.38695651  1
  Ti  Ti126  1  0.80264169  0.79041131  0.74844292  1
  Ti  Ti127  1  0.60054230  0.00171970  0.50992997  1
  Ti  Ti128  1  0.18151886  0.61010385  0.00491672  1
  Ti  Ti129  1  0.29896998  0.11709720  0.12888117  1
  Ti  Ti130  1  0.59858347  0.00662250  0.73654820  1
  Ti  Ti131  1  0.30812411  0.31484843  0.12420846  1
  Ti  Ti132  1  0.11749547  0.08942522  0.85948272  1
  Ti  Ti133  1  0.67041705  0.48028818  0.88465493  1
  Ti  Ti134  1  0.21199526  -0.00054695  -0.00652771  1
  Ti  Ti135  1  0.40900785  0.40979284  0.00355473  1
  Ti  Ti136  1  0.19058853  0.82208207  0.26161543  1
  Ti  Ti137  1  0.69118545  0.89201037  0.38076217  1
  Ti  Ti138  1  0.70646410  0.09630196  0.62944529  1
  Ti  Ti139  1  0.49357950  0.50185663  0.13146292  1
  Ti  Ti140  1  0.79533230  -0.01153004  -0.00275738  1
  Ti  Ti141  1  0.51088337  0.50711861  0.60612432  1
  Ti  Ti142  1  0.19250013  0.80255370  0.00741494  1
  Ti  Ti143  1  0.49516404  0.89855587  0.62638309  1
  Ti  Ti144  1  0.89009954  0.49198216  0.61558219  1
  Ti  Ti145  1  0.39688953  0.21522618  -0.00147123  1
  Ti  Ti146  1  0.70481264  0.89357866  0.62776280  1
  Ti  Ti147  1  0.29710014  0.31195192  0.38771919  1
  Ti  Ti148  1  0.61339422  0.19249270  0.25612852  1
  Ti  Ti149  1  -0.01218541  0.59074265  0.74489052  1
  Ti  Ti150  1  0.28303699  0.73474237  0.61559137  1
  Ti  Ti151  1  0.77880869  0.59257052  0.49606482  1
  Ti  Ti152  1  0.21199066  0.20796205  0.74737163  1
  Ti  Ti153  1  0.90748598  0.29730201  0.87738186  1
  Ti  Ti154  1  -0.00312850  0.21042510  0.00564299  1
  Ti  Ti155  1  0.29455444  0.50651466  0.61060336  1
  Ti  Ti156  1  0.20536472  0.82131630  0.48249457  1
  Ti  Ti157  1  0.11377166  0.88282045  0.87350017  1
  Ti  Ti158  1  -0.00246641  0.41955991  0.00750588  1
  Ti  Ti159  1  0.10998446  0.51136578  0.12634864  1
  Mo  Mo160  1  0.51575523  0.31692892  0.61126595  1
  Mo  Mo161  1  0.09701275  0.90117665  0.37831871  1
  Mo  Mo162  1  0.59433768  0.59706926  0.25038864  1
  Mo  Mo163  1  0.59544537  0.40214420  0.00770233  1
  Mo  Mo164  1  0.29246443  0.91434427  0.88019887  1
  Mo  Mo165  1  0.60330217  0.39583955  0.48890578  1
  Mo  Mo166  1  0.30136160  0.91358559  0.36618874  1
  Mo  Mo167  1  0.19676735  0.59610504  0.25853592  1
  Mo  Mo168  1  0.59811904  0.60128026  0.50255317  1
  Mo  Mo169  1  0.69903095  0.89101689  0.11941381  1
  Mo  Mo170  1  0.39041719  0.80381058  0.51059242  1
  Mo  Mo171  1  0.20278223  0.40008002  0.49996763  1
  Mo  Mo172  1  0.39790269  0.80735720  0.24525896  1
  Mo  Mo173  1  0.18870459  0.80964229  0.74833607  1
  Mo  Mo174  1  -0.00745255  0.39606924  0.50913239  1
  Mo  Mo175  1  0.10674531  0.31274774  0.38029348  1
  Mo  Mo176  1  0.00551167  0.59352869  0.02064893  1
  Mo  Mo177  1  0.09742404  0.70299612  0.88251641  1
  Mo  Mo178  1  0.09222743  0.70061630  0.61815400  1
  Mo  Mo179  1  0.52770252  0.10583404  0.61825087  1
  Mo  Mo180  1  0.58585437  0.39403601  0.74251037  1
  Mo  Mo181  1  0.80242000  0.19269493  0.50964779  1
  Mo  Mo182  1  0.89445066  0.48750896  0.12950474  1
  Mo  Mo183  1  0.69481306  0.49190404  0.38361235  1
  Mo  Mo184  1  0.30365114  0.10961735  0.63700892  1
  Mo  Mo185  1  0.91292228  0.48788274  0.88025762  1
  Mo  Mo186  1  0.28658558  0.91880023  0.61986931  1
  Mo  Mo187  1  0.50355959  0.89906612  0.13312627  1
  Mo  Mo188  1  0.29619905  0.49052549  0.12710538  1
  Mo  Mo189  1  -0.00588858  0.79715418  0.24839780  1
  Mo  Mo190  1  0.90394358  0.29628448  0.11781954  1
  Mo  Mo191  1  0.69518256  0.69703412  0.89006986  1
  Mo  Mo192  1  0.48379939  0.50345944  0.87446386  1
  Mo  Mo193  1  0.70403532  0.09708175  0.36990304  1
  Mo  Mo194  1  0.40853662  0.01304344  0.72490633  1
  Mo  Mo195  1  0.60934925  0.19399516  0.74366791  1
  Mo  Mo196  1  0.81063680  0.38987652  0.24542606  1
  Mo  Mo197  1  0.01061413  0.78898577  0.00283741  1
  Mo  Mo198  1  0.49723426  0.70457615  0.62839623  1
  Mo  Mo199  1  0.21307818  -0.01547340  0.75462222  1
