# generated using pymatgen
data_HfZrTaTiMo
_symmetry_space_group_name_H-M   'P 1'
_cell_length_a   15.21664871
_cell_length_b   15.21217600
_cell_length_c   16.83480600
_cell_angle_alpha   89.97467507
_cell_angle_beta   90.00060202
_cell_angle_gamma   89.94205489
_symmetry_Int_Tables_number   1
_chemical_formula_structural   HfZrTaTiMo
_chemical_formula_sum   'Hf40 Zr40 Ta40 Ti40 Mo40'
_cell_volume   3896.89054378
_cell_formula_units_Z   40
loop_
 _symmetry_equiv_pos_site_id
 _symmetry_equiv_pos_as_xyz
  1  'x, y, z'
loop_
 _atom_site_type_symbol
 _atom_site_label
 _atom_site_symmetry_multiplicity
 _atom_site_fract_x
 _atom_site_fract_y
 _atom_site_fract_z
 _atom_site_occupancy
  Hf  Hf0  1  0.80329159  0.78496153  0.00671495  1
  Hf  Hf1  1  0.29395846  0.50071026  0.13184903  1
  Hf  Hf2  1  0.21566521  0.21263536  -0.00561753  1
  Hf  Hf3  1  0.49115644  0.30413899  0.38584199  1
  Hf  Hf4  1  0.39379108  0.20480862  0.73118524  1
  Hf  Hf5  1  0.10057276  0.10048325  0.88808393  1
  Hf  Hf6  1  0.12420957  0.89801322  0.11095689  1
  Hf  Hf7  1  0.48549977  0.29595820  0.86378317  1
  Hf  Hf8  1  0.90757334  0.69345465  0.61436958  1
  Hf  Hf9  1  0.58662023  0.79811804  0.24091834  1
  Hf  Hf10  1  0.69090296  0.68918572  0.13163212  1
  Hf  Hf11  1  0.00215378  -0.00404004  0.23642913  1
  Hf  Hf12  1  0.20301716  0.41189672  0.51005627  1
  Hf  Hf13  1  0.39477086  0.79532562  -0.00251892  1
  Hf  Hf14  1  0.39639033  0.60452692  0.51816133  1
  Hf  Hf15  1  0.50597415  0.10399676  0.62001836  1
  Hf  Hf16  1  0.90920304  0.51330935  0.86367105  1
  Hf  Hf17  1  0.10554831  0.68494414  0.38026806  1
  Hf  Hf18  1  0.39490409  0.81000955  0.25297142  1
  Hf  Hf19  1  0.58758445  0.81282380  0.00064255  1
  Hf  Hf20  1  0.60210515  0.61316743  0.51738254  1
  Hf  Hf21  1  0.58227695  0.18992048  0.00814499  1
  Hf  Hf22  1  0.18978349  0.60766006  -0.00850451  1
  Hf  Hf23  1  0.91468484  0.28885956  0.37166652  1
  Hf  Hf24  1  0.39136606  0.39665928  0.26230975  1
  Hf  Hf25  1  0.68820310  0.28817408  0.88020540  1
  Hf  Hf26  1  0.70414707  0.49149458  0.86876220  1
  Hf  Hf27  1  0.59794125  0.59664361  -0.00201583  1
  Hf  Hf28  1  0.38846091  0.21208850  0.51214043  1
  Hf  Hf29  1  0.89397538  0.29444265  0.11497856  1
  Hf  Hf30  1  0.11228080  0.89895668  0.60909696  1
  Hf  Hf31  1  0.28132874  0.70785064  0.12429703  1
  Hf  Hf32  1  0.69698250  0.92315946  0.11632367  1
  Hf  Hf33  1  0.79905141  0.80485363  0.24349627  1
  Hf  Hf34  1  0.00428489  0.78559428  0.23440840  1
  Hf  Hf35  1  0.19525301  0.20082501  0.50239214  1
  Hf  Hf36  1  0.69698288  0.89161797  0.38338497  1
  Hf  Hf37  1  0.90209821  0.68978004  0.37985178  1
  Hf  Hf38  1  0.80318577  0.57980516  0.00963221  1
  Hf  Hf39  1  0.39775469  -0.00835709  0.74352848  1
  Zr  Zr40  1  0.90048318  0.88941463  0.38412333  1
  Zr  Zr41  1  -0.00641859  0.60863721  0.02410096  1
  Zr  Zr42  1  0.81682122  0.19099702  0.49728893  1
  Zr  Zr43  1  0.08898868  0.51056196  0.64222867  1
  Zr  Zr44  1  0.39325700  0.58691246  -0.00696648  1
  Zr  Zr45  1  0.20616577  0.00977816  0.25598109  1
  Zr  Zr46  1  0.39738194  0.38108484  -0.00010413  1
  Zr  Zr47  1  0.10975633  0.30576385  0.37068732  1
  Zr  Zr48  1  -0.00268273  0.41378551  0.00885678  1
  Zr  Zr49  1  0.30521384  0.91208884  0.88851365  1
  Zr  Zr50  1  0.69136129  0.68836229  0.36579240  1
  Zr  Zr51  1  -0.01166137  0.19044712  0.75567534  1
  Zr  Zr52  1  0.49847362  0.69729131  0.86654483  1
  Zr  Zr53  1  0.39336657  0.60532558  0.26149704  1
  Zr  Zr54  1  0.59903735  0.00117740  0.50200955  1
  Zr  Zr55  1  0.50217112  0.49439175  0.85821414  1
  Zr  Zr56  1  -0.00219156  0.01086951  0.01297187  1
  Zr  Zr57  1  0.69816736  0.87773951  0.61625464  1
  Zr  Zr58  1  0.79678830  0.38557322  0.25970336  1
  Zr  Zr59  1  0.60018819  0.79741319  0.75493404  1
  Zr  Zr60  1  0.19638122  0.81652242  0.75084450  1
  Zr  Zr61  1  0.09232600  0.09941761  0.62914923  1
  Zr  Zr62  1  0.51527018  0.09492391  0.86332997  1
  Zr  Zr63  1  0.59712642  0.40624216  0.26464276  1
  Zr  Zr64  1  0.89263085  0.48285749  0.62586172  1
  Zr  Zr65  1  0.20677770  0.79901784  0.26653392  1
  Zr  Zr66  1  0.38136987  -0.00178987  0.49741912  1
  Zr  Zr67  1  0.09198277  0.89999846  0.38406030  1
  Zr  Zr68  1  0.20251194  0.41336901  -0.00846210  1
  Zr  Zr69  1  0.09893990  0.30842181  0.87123330  1
  Zr  Zr70  1  0.07649587  0.70149290  0.86768812  1
  Zr  Zr71  1  0.70298906  0.91771417  0.88456581  1
  Zr  Zr72  1  0.88878968  0.29945274  0.89401406  1
  Zr  Zr73  1  0.81872692  -0.00549440  0.73751041  1
  Zr  Zr74  1  0.91114923  0.88672576  0.88643212  1
  Zr  Zr75  1  0.08930855  0.30504981  0.62628361  1
  Zr  Zr76  1  0.60956082  0.00152002  0.73895573  1
  Zr  Zr77  1  0.80467384  -0.00503538  0.50916341  1
  Zr  Zr78  1  0.60430637  -0.00112794  0.25735252  1
  Zr  Zr79  1  0.49747763  0.10521557  0.37884829  1
  Ta  Ta80  1  0.49567933  0.89071780  0.38492215  1
  Ta  Ta81  1  0.01260238  -0.01639528  0.75778232  1
  Ta  Ta82  1  0.51538162  0.30638164  0.61650744  1
  Ta  Ta83  1  0.80822445  0.78889289  0.74921437  1
  Ta  Ta84  1  0.10940201  0.90244857  0.89603949  1
  Ta  Ta85  1  0.08958497  0.11276444  0.36993582  1
  Ta  Ta86  1  0.20063873  0.00980392  0.75782983  1
  Ta  Ta87  1  0.78621565  0.17688273  0.00891741  1
  Ta  Ta88  1  0.40186115  0.60548195  0.72786123  1
  Ta  Ta89  1  0.90884904  0.49524106  0.37412345  1
  Ta  Ta90  1  0.11283895  0.11460262  0.11701343  1
  Ta  Ta91  1  0.39913877  0.00242151  0.25765276  1
  Ta  Ta92  1  0.70745887  0.30441485  0.61919769  1
  Ta  Ta93  1  0.79810981  0.39312161  0.48614612  1
  Ta  Ta94  1  0.49981002  0.09198420  0.13679083  1
  Ta  Ta95  1  0.50358528  0.49889099  0.13081882  1
  Ta  Ta96  1  0.89765920  0.89727660  0.11843421  1
  Ta  Ta97  1  0.21799020  0.80315419  0.48958022  1
  Ta  Ta98  1  0.70986806  0.10346046  0.36949048  1
  Ta  Ta99  1  0.69731689  0.48702465  0.12894140  1
  Ta  Ta100  1  0.31373699  0.91758227  0.11297274  1
  Ta  Ta101  1  0.88907112  0.09408699  0.88473033  1
  Ta  Ta102  1  0.79157131  0.19638765  0.75015787  1
  Ta  Ta103  1  0.69054167  0.29667093  0.12065821  1
  Ta  Ta104  1  0.40004566  0.41167227  0.51702909  1
  Ta  Ta105  1  0.42637271  0.00696322  0.00005079  1
  Ta  Ta106  1  0.70522092  0.11420052  0.62376959  1
  Ta  Ta107  1  0.60527654  0.40900241  0.49591666  1
  Ta  Ta108  1  0.00042117  0.40493596  0.23616640  1
  Ta  Ta109  1  0.20268781  0.61208234  0.73818757  1
  Ta  Ta110  1  0.90479002  0.09041292  0.35859526  1
  Ta  Ta111  1  0.80869796  0.58905753  0.24148982  1
  Ta  Ta112  1  0.29250960  0.69737665  0.86441788  1
  Ta  Ta113  1  0.29573595  0.29173078  0.13822519  1
  Ta  Ta114  1  0.60082365  0.20722618  0.25381274  1
  Ta  Ta115  1  0.49008302  0.29267225  0.13531910  1
  Ta  Ta116  1  0.00644889  0.58518168  0.50012933  1
  Ta  Ta117  1  0.48903318  0.69247484  0.12559635  1
  Ta  Ta118  1  0.39917315  0.40574652  0.72197367  1
  Ta  Ta119  1  -0.00221569  0.01746494  0.49923794  1
  Ti  Ti120  1  0.71130893  0.69272639  0.87288479  1
  Ti  Ti121  1  0.70074947  0.49347317  0.62588746  1
  Ti  Ti122  1  0.59574736  0.39877671  0.00371785  1
  Ti  Ti123  1  0.39854884  0.80217416  0.75071926  1
  Ti  Ti124  1  -0.00143934  0.79698533  0.74060344  1
  Ti  Ti125  1  0.10571088  0.30694371  0.12328774  1
  Ti  Ti126  1  0.70262854  0.50354729  0.37425347  1
  Ti  Ti127  1  0.20155828  0.61146550  0.51914480  1
  Ti  Ti128  1  0.00675476  0.20110571  0.23395163  1
  Ti  Ti129  1  0.19567947  0.40598942  0.25246645  1
  Ti  Ti130  1  0.09432983  0.49597944  0.37376115  1
  Ti  Ti131  1  -0.00830511  0.39417883  0.75405931  1
  Ti  Ti132  1  0.91643693  0.89250393  0.61217700  1
  Ti  Ti133  1  0.30964283  0.10845446  0.12643371  1
  Ti  Ti134  1  0.60383698  0.39319114  0.73920525  1
  Ti  Ti135  1  0.10593933  0.50774811  0.84987078  1
  Ti  Ti136  1  0.28626958  0.08954273  0.62677485  1
  Ti  Ti137  1  0.49960767  0.51230098  0.38396893  1
  Ti  Ti138  1  0.60480477  0.60106383  0.73249298  1
  Ti  Ti139  1  0.61463028  0.21008208  0.49140568  1
  Ti  Ti140  1  0.20321864  0.20444524  0.75426023  1
  Ti  Ti141  1  0.48961226  0.88754820  0.61625465  1
  Ti  Ti142  1  0.79890457  0.58502420  0.50119723  1
  Ti  Ti143  1  0.29696131  0.72250657  0.62868687  1
  Ti  Ti144  1  0.80134769  0.60259441  0.74361861  1
  Ti  Ti145  1  0.28997613  0.50909498  0.38108674  1
  Ti  Ti146  1  0.29459121  0.13154827  0.36255160  1
  Ti  Ti147  1  0.30235485  0.49788644  0.85312455  1
  Ti  Ti148  1  0.40142609  0.79619841  0.49946258  1
  Ti  Ti149  1  0.21179785  0.39717636  0.74076893  1
  Ti  Ti150  1  0.90098514  0.28679468  0.61797640  1
  Ti  Ti151  1  0.00768984  0.59117614  0.23424924  1
  Ti  Ti152  1  0.00875163  0.79120438  0.01748661  1
  Ti  Ti153  1  0.79514877  0.19086233  0.24702927  1
  Ti  Ti154  1  0.19875222  0.00789158  0.48224997  1
  Ti  Ti155  1  0.78949007  0.77759013  0.50256611  1
  Ti  Ti156  1  0.79957380  0.38799645  0.74891083  1
  Ti  Ti157  1  0.49682381  0.69982769  0.37820584  1
  Ti  Ti158  1  0.31142496  0.11478768  0.87745634  1
  Ti  Ti159  1  0.88613961  0.09304321  0.13072096  1
  Mo  Mo160  1  0.60644468  0.21018023  0.73799276  1
  Mo  Mo161  1  -0.00050153  0.20123619  0.01672297  1
  Mo  Mo162  1  0.70002466  0.29449443  0.38137675  1
  Mo  Mo163  1  0.89585387  0.69994950  0.13497618  1
  Mo  Mo164  1  0.19367081  0.59004206  0.25676487  1
  Mo  Mo165  1  0.19761473  0.20843657  0.24332082  1
  Mo  Mo166  1  0.51146271  0.49959133  0.62947923  1
  Mo  Mo167  1  0.10102513  0.70774356  0.61567483  1
  Mo  Mo168  1  0.30443412  0.69691388  0.38953627  1
  Mo  Mo169  1  0.21808814  0.01489346  0.00262894  1
  Mo  Mo170  1  0.19873982  0.80014203  -0.00783373  1
  Mo  Mo171  1  0.29626162  0.50847007  0.63102900  1
  Mo  Mo172  1  0.80530802  0.00087064  0.25316264  1
  Mo  Mo173  1  0.69925938  0.11097862  0.13993655  1
  Mo  Mo174  1  0.00695098  0.79095322  0.50484963  1
  Mo  Mo175  1  0.80057916  -0.00113907  0.00342847  1
  Mo  Mo176  1  0.78075401  0.39310125  0.00471394  1
  Mo  Mo177  1  0.00165089  0.19753174  0.49670794  1
  Mo  Mo178  1  0.89264677  0.49165016  0.13648433  1
  Mo  Mo179  1  0.29564946  0.30135380  0.62867599  1
  Mo  Mo180  1  0.49206303  0.90435251  0.12592777  1
  Mo  Mo181  1  0.49833639  0.90124515  0.87244559  1
  Mo  Mo182  1  0.88645517  0.69834302  0.87098530  1
  Mo  Mo183  1  -0.00673593  0.61095697  0.74585137  1
  Mo  Mo184  1  0.30659395  0.90967552  0.37806469  1
  Mo  Mo185  1  0.70911911  0.10602694  0.87164301  1
  Mo  Mo186  1  0.30180752  0.30485819  0.85526505  1
  Mo  Mo187  1  0.58961182  0.79338215  0.50036446  1
  Mo  Mo188  1  0.39544046  0.19339410  0.00370685  1
  Mo  Mo189  1  -0.00760824  0.40116796  0.49564424  1
  Mo  Mo190  1  0.50103679  0.71099280  0.63222772  1
  Mo  Mo191  1  0.29891315  0.31583022  0.37665414  1
  Mo  Mo192  1  0.39861143  0.19656768  0.25172628  1
  Mo  Mo193  1  0.59468085  0.59535603  0.24852595  1
  Mo  Mo194  1  0.71088714  0.68708353  0.63113746  1
  Mo  Mo195  1  0.10709884  0.69665187  0.13074435  1
  Mo  Mo196  1  0.90311406  0.09408984  0.63207873  1
  Mo  Mo197  1  0.10680505  0.50039969  0.13485861  1
  Mo  Mo198  1  0.30029314  0.90388996  0.62315661  1
  Mo  Mo199  1  0.60751008  0.01284549  0.00416435  1
