# generated using pymatgen
data_HfZrTaTiMo
_symmetry_space_group_name_H-M   'P 1'
_cell_length_a   15.18011909
_cell_length_b   15.17602819
_cell_length_c   16.81058063
_cell_angle_alpha   89.98332526
_cell_angle_beta   90.04344844
_cell_angle_gamma   90.09592314
_symmetry_Int_Tables_number   1
_chemical_formula_structural   HfZrTaTiMo
_chemical_formula_sum   'Hf40 Zr40 Ta40 Ti40 Mo40'
_cell_volume   3872.71257494
_cell_formula_units_Z   40
loop_
 _symmetry_equiv_pos_site_id
 _symmetry_equiv_pos_as_xyz
  1  'x, y, z'
loop_
 _atom_site_type_symbol
 _atom_site_label
 _atom_site_symmetry_multiplicity
 _atom_site_fract_x
 _atom_site_fract_y
 _atom_site_fract_z
 _atom_site_occupancy
  Hf  Hf0  1  0.00779862  0.40274236  -0.01093469  1
  Hf  Hf1  1  0.20409142  0.61060014  0.25307775  1
  Hf  Hf2  1  0.20399072  0.19680650  0.01275152  1
  Hf  Hf3  1  0.20054697  0.40593284  0.01340019  1
  Hf  Hf4  1  0.38902746  -0.02023721  0.25057302  1
  Hf  Hf5  1  0.50489756  0.30610186  0.89469277  1
  Hf  Hf6  1  0.41001379  -0.01165253  0.49631688  1
  Hf  Hf7  1  0.20456951  0.81454909  0.26712492  1
  Hf  Hf8  1  0.59887959  -0.00928974  0.26695018  1
  Hf  Hf9  1  0.00605008  -0.01749822  0.24465783  1
  Hf  Hf10  1  0.80251065  -0.00854999  0.26607620  1
  Hf  Hf11  1  0.70829656  0.51092820  0.10213129  1
  Hf  Hf12  1  0.41112866  0.00023606  0.74283330  1
  Hf  Hf13  1  0.00312233  0.19393185  0.74189499  1
  Hf  Hf14  1  0.21200608  0.79661294  0.48742391  1
  Hf  Hf15  1  0.50728963  0.08582771  0.12792193  1
  Hf  Hf16  1  0.09399855  0.50237999  0.36774927  1
  Hf  Hf17  1  0.10682121  0.10131698  0.37517878  1
  Hf  Hf18  1  0.80539312  -0.01058047  0.49151376  1
  Hf  Hf19  1  0.40285629  0.41586660  0.75948816  1
  Hf  Hf20  1  0.69832141  0.49568151  0.62903775  1
  Hf  Hf21  1  0.50276350  0.09170131  0.88944918  1
  Hf  Hf22  1  0.41603626  0.79389756  0.76531950  1
  Hf  Hf23  1  0.89274779  0.10044369  0.12526831  1
  Hf  Hf24  1  0.59539227  0.80436361  -0.01249553  1
  Hf  Hf25  1  0.41111450  0.21066728  0.75184584  1
  Hf  Hf26  1  0.50221168  0.31536422  0.61868027  1
  Hf  Hf27  1  -0.00681798  -0.00870255  0.00511999  1
  Hf  Hf28  1  0.39414407  -0.00873155  0.01375271  1
  Hf  Hf29  1  0.30104403  0.29734444  0.36807303  1
  Hf  Hf30  1  0.10526119  0.71446186  0.12874295  1
  Hf  Hf31  1  0.91076373  0.10161278  0.37832290  1
  Hf  Hf32  1  0.68658466  0.51557125  0.88205283  1
  Hf  Hf33  1  0.19384752  0.39899059  0.23383107  1
  Hf  Hf34  1  0.69984964  0.28174580  0.62471479  1
  Hf  Hf35  1  0.20568427  0.40574279  0.50099631  1
  Hf  Hf36  1  0.58700752  0.60054606  0.51444325  1
  Hf  Hf37  1  0.81445127  0.40925592  -0.01752589  1
  Hf  Hf38  1  0.61091829  0.00929776  0.47803088  1
  Hf  Hf39  1  0.08938913  0.89834999  0.86135703  1
  Zr  Zr40  1  0.41129518  0.40614951  0.24245664  1
  Zr  Zr41  1  0.61697922  0.18681123  0.00222567  1
  Zr  Zr42  1  0.08804199  0.30413234  0.37811297  1
  Zr  Zr43  1  0.70654328  0.09597304  0.13800696  1
  Zr  Zr44  1  0.89306973  0.48921017  0.37405160  1
  Zr  Zr45  1  0.59193087  0.80496640  0.50595058  1
  Zr  Zr46  1  0.10312229  0.87915380  0.63404850  1
  Zr  Zr47  1  0.29825094  0.10759436  0.87442853  1
  Zr  Zr48  1  0.10089277  0.09773004  0.12945605  1
  Zr  Zr49  1  0.78315164  -0.00442454  -0.01397637  1
  Zr  Zr50  1  -0.00019010  0.79394097  0.49941883  1
  Zr  Zr51  1  0.11070674  0.29345116  0.87081334  1
  Zr  Zr52  1  0.39819606  0.40880328  0.00807680  1
  Zr  Zr53  1  0.71461164  0.30331132  0.12009399  1
  Zr  Zr54  1  0.59835023  0.21544170  0.47560170  1
  Zr  Zr55  1  0.71508059  0.31899164  0.37163067  1
  Zr  Zr56  1  0.53046568  0.10279258  0.61894789  1
  Zr  Zr57  1  0.78639116  0.59357401  0.25195696  1
  Zr  Zr58  1  0.39503254  0.60944846  -0.01506007  1
  Zr  Zr59  1  0.89802312  0.69672176  0.64347948  1
  Zr  Zr60  1  0.29417446  0.90988214  0.86658281  1
  Zr  Zr61  1  0.38959782  0.60923344  0.49252467  1
  Zr  Zr62  1  0.60204063  0.21300258  0.25993851  1
  Zr  Zr63  1  0.00056589  0.21248455  0.24678122  1
  Zr  Zr64  1  0.89656266  0.30329020  0.63035768  1
  Zr  Zr65  1  0.68572369  0.71104228  0.12241987  1
  Zr  Zr66  1  0.20207957  -0.00425597  0.51354044  1
  Zr  Zr67  1  0.69801065  0.70739141  0.64086994  1
  Zr  Zr68  1  0.89003076  0.70646822  0.85582676  1
  Zr  Zr69  1  0.59869573  0.39399166  0.75725100  1
  Zr  Zr70  1  0.19611039  0.20234832  0.51259877  1
  Zr  Zr71  1  0.31482228  0.10563685  0.62048204  1
  Zr  Zr72  1  0.00042105  0.79379725  -0.00383119  1
  Zr  Zr73  1  0.80800781  0.40123322  0.76784200  1
  Zr  Zr74  1  0.80532249  0.00081632  0.76238574  1
  Zr  Zr75  1  0.60792028  -0.01402809  0.76190538  1
  Zr  Zr76  1  0.18089462  0.60391781  0.49680838  1
  Zr  Zr77  1  0.30192907  0.50150425  0.62444918  1
  Zr  Zr78  1  0.39783252  0.19379879  0.24132116  1
  Zr  Zr79  1  0.89306918  0.68140719  0.11649050  1
  Ta  Ta80  1  -0.02354988  0.59775605  0.49945788  1
  Ta  Ta81  1  0.51510071  0.31060439  0.11551502  1
  Ta  Ta82  1  0.18908153  0.60613787  -0.00174977  1
  Ta  Ta83  1  0.57149421  0.60202243  0.74165923  1
  Ta  Ta84  1  0.88698780  0.88773810  0.12793084  1
  Ta  Ta85  1  0.20633359  0.79704535  -0.00876646  1
  Ta  Ta86  1  0.90924494  0.30505266  0.11540395  1
  Ta  Ta87  1  0.79864038  0.19568571  0.76828817  1
  Ta  Ta88  1  0.19137750  -0.01084203  0.00923377  1
  Ta  Ta89  1  0.68931656  0.70692695  0.85443917  1
  Ta  Ta90  1  0.20271760  0.39907693  0.74836920  1
  Ta  Ta91  1  0.61205938  0.42226529  0.24331809  1
  Ta  Ta92  1  0.31686475  0.88614625  0.63203339  1
  Ta  Ta93  1  0.29329017  0.70323630  0.63401499  1
  Ta  Ta94  1  0.41709389  0.40518502  0.48630758  1
  Ta  Ta95  1  0.80165177  0.40657887  0.50673404  1
  Ta  Ta96  1  0.49685366  0.87123033  0.13386890  1
  Ta  Ta97  1  0.89260129  0.89108827  0.62992629  1
  Ta  Ta98  1  0.30326220  0.30175440  0.87923207  1
  Ta  Ta99  1  0.10735258  0.09141365  0.87267197  1
  Ta  Ta100  1  0.40320663  0.20514347  0.48783294  1
  Ta  Ta101  1  0.51026287  0.51978142  0.11933611  1
  Ta  Ta102  1  0.31338491  0.70846916  0.12543164  1
  Ta  Ta103  1  0.19760707  0.00731381  0.73338068  1
  Ta  Ta104  1  0.91667814  0.09649778  0.87508609  1
  Ta  Ta105  1  0.00357310  0.20000178  -0.00235741  1
  Ta  Ta106  1  0.00232755  0.40660030  0.51210999  1
  Ta  Ta107  1  0.69983337  0.91173411  0.62277264  1
  Ta  Ta108  1  -0.00394813  0.19999256  0.51491147  1
  Ta  Ta109  1  0.68998082  0.50971059  0.38718515  1
  Ta  Ta110  1  0.08396494  0.51395383  0.12492991  1
  Ta  Ta111  1  0.39821249  0.79968715  -0.01382396  1
  Ta  Ta112  1  0.20526358  0.20237289  0.73780956  1
  Ta  Ta113  1  0.01172832  0.40753610  0.75803948  1
  Ta  Ta114  1  0.29770283  0.09208963  0.37791567  1
  Ta  Ta115  1  0.40016110  0.19918361  0.01720595  1
  Ta  Ta116  1  0.79954097  0.19279678  0.49184440  1
  Ta  Ta117  1  0.30321683  0.50349682  0.36611625  1
  Ta  Ta118  1  0.19278176  0.59032658  0.75376627  1
  Ta  Ta119  1  0.00110650  0.00299040  0.51689274  1
  Ti  Ti120  1  0.40145051  0.79461364  0.49478646  1
  Ti  Ti121  1  0.80289264  0.77954320  0.49725235  1
  Ti  Ti122  1  -0.01293845  0.59168751  -0.01480705  1
  Ti  Ti123  1  0.38824456  0.60493999  0.76274266  1
  Ti  Ti124  1  0.09929519  0.90951094  0.38416622  1
  Ti  Ti125  1  0.69443427  0.69661005  0.37876405  1
  Ti  Ti126  1  0.00017307  -0.00412869  0.73743932  1
  Ti  Ti127  1  0.90620296  0.88190899  0.37834606  1
  Ti  Ti128  1  -0.01243595  0.60167660  0.25039352  1
  Ti  Ti129  1  0.30039496  0.51884028  0.12810638  1
  Ti  Ti130  1  0.69171637  0.90255728  0.12969348  1
  Ti  Ti131  1  0.70392093  0.88173651  0.37605528  1
  Ti  Ti132  1  0.30919152  0.30603272  0.62083536  1
  Ti  Ti133  1  0.20336250  0.78959413  0.75589967  1
  Ti  Ti134  1  0.61043983  0.18938930  0.76353582  1
  Ti  Ti135  1  0.81846933  0.20079862  -0.01830865  1
  Ti  Ti136  1  0.88428746  0.09616830  0.62473030  1
  Ti  Ti137  1  0.40583681  0.77208036  0.26229449  1
  Ti  Ti138  1  0.28696989  0.89010496  0.12398732  1
  Ti  Ti139  1  0.20224954  0.19780526  0.24007698  1
  Ti  Ti140  1  0.48993481  0.10560285  0.36816612  1
  Ti  Ti141  1  0.58412899  0.61803827  0.25178332  1
  Ti  Ti142  1  0.20281071  0.00277621  0.24561324  1
  Ti  Ti143  1  0.30444178  0.29728809  0.12831515  1
  Ti  Ti144  1  -0.00912447  0.79455874  0.25035087  1
  Ti  Ti145  1  0.28539686  0.50059282  0.87686184  1
  Ti  Ti146  1  0.10440081  0.31144331  0.62974818  1
  Ti  Ti147  1  0.79984844  0.79993439  -0.01073717  1
  Ti  Ti148  1  -0.00577516  0.40484554  0.23617018  1
  Ti  Ti149  1  0.50499457  0.50690652  0.36802193  1
  Ti  Ti150  1  0.49642958  0.87872104  0.36780832  1
  Ti  Ti151  1  0.09503497  0.68224539  0.63444009  1
  Ti  Ti152  1  0.81025275  0.20775790  0.26229618  1
  Ti  Ti153  1  0.08306894  0.70283639  0.36983523  1
  Ti  Ti154  1  0.09996215  0.69369247  0.86880063  1
  Ti  Ti155  1  -0.00035893  0.59054223  0.75866572  1
  Ti  Ti156  1  0.79675052  0.79216088  0.25534120  1
  Ti  Ti157  1  0.89941015  0.50632385  0.63399575  1
  Ti  Ti158  1  0.80859830  0.40080227  0.24092997  1
  Ti  Ti159  1  0.70116866  0.29716645  0.88498481  1
  Mo  Mo160  1  0.47594865  0.70729722  0.62999194  1
  Mo  Mo161  1  0.78877711  0.59402282  0.75294662  1
  Mo  Mo162  1  0.30417833  0.90267176  0.37545510  1
  Mo  Mo163  1  0.08648709  0.50167768  0.62923654  1
  Mo  Mo164  1  0.50419336  0.68954041  0.87286420  1
  Mo  Mo165  1  0.60117312  0.40968778  0.49782360  1
  Mo  Mo166  1  0.90829915  0.29116949  0.87281061  1
  Mo  Mo167  1  0.59509437  0.80430701  0.74730669  1
  Mo  Mo168  1  0.90363630  0.50614128  0.86442689  1
  Mo  Mo169  1  0.10548675  0.50604438  0.87607944  1
  Mo  Mo170  1  0.60333379  0.79902798  0.25722390  1
  Mo  Mo171  1  0.79649410  0.60064792  0.50041115  1
  Mo  Mo172  1  0.90368212  0.90009177  0.86641134  1
  Mo  Mo173  1  0.80166593  0.61498726  -0.01354063  1
  Mo  Mo174  1  0.70515662  0.88949925  0.87334951  1
  Mo  Mo175  1  0.28526449  0.69891605  0.86889858  1
  Mo  Mo176  1  0.89210089  0.69813186  0.37177486  1
  Mo  Mo177  1  0.09705873  0.89180783  0.12605918  1
  Mo  Mo178  1  0.70258352  0.10410626  0.87975043  1
  Mo  Mo179  1  0.30356059  0.69903909  0.37190216  1
  Mo  Mo180  1  0.90485885  0.30214861  0.39087994  1
  Mo  Mo181  1  0.00586588  0.79634377  0.74794927  1
  Mo  Mo182  1  0.71168800  0.09961953  0.62284910  1
  Mo  Mo183  1  0.60127983  0.40368270  0.00239023  1
  Mo  Mo184  1  0.09296382  0.10148906  0.62981661  1
  Mo  Mo185  1  0.49227710  0.70020026  0.12210107  1
  Mo  Mo186  1  0.59445474  0.60729834  -0.00703299  1
  Mo  Mo187  1  0.59278708  -0.01478099  0.00428982  1
  Mo  Mo188  1  0.50095774  0.31883750  0.36882616  1
  Mo  Mo189  1  0.09919342  0.30735872  0.12312615  1
  Mo  Mo190  1  0.79107813  0.81340273  0.74968228  1
  Mo  Mo191  1  0.90246687  0.49556441  0.12161173  1
  Mo  Mo192  1  0.49457529  0.50487726  0.87806760  1
  Mo  Mo193  1  0.70818385  0.10100161  0.36511128  1
  Mo  Mo194  1  0.49983654  0.90000869  0.88425862  1
  Mo  Mo195  1  0.29978928  0.09158226  0.12658525  1
  Mo  Mo196  1  0.49321553  0.50580822  0.62472358  1
  Mo  Mo197  1  0.40059478  0.59753438  0.24987145  1
  Mo  Mo198  1  0.50459816  0.89384283  0.62067114  1
  Mo  Mo199  1  0.50750678  0.69351292  0.37527934  1
