# generated using pymatgen
data_HfZrTaTiMo
_symmetry_space_group_name_H-M   'P 1'
_cell_length_a   15.19635328
_cell_length_b   15.19108216
_cell_length_c   16.79177690
_cell_angle_alpha   89.92956140
_cell_angle_beta   90.11197040
_cell_angle_gamma   89.77179227
_symmetry_Int_Tables_number   1
_chemical_formula_structural   HfZrTaTiMo
_chemical_formula_sum   'Hf40 Zr40 Ta40 Ti40 Mo40'
_cell_volume   3876.32465058
_cell_formula_units_Z   40
loop_
 _symmetry_equiv_pos_site_id
 _symmetry_equiv_pos_as_xyz
  1  'x, y, z'
loop_
 _atom_site_type_symbol
 _atom_site_label
 _atom_site_symmetry_multiplicity
 _atom_site_fract_x
 _atom_site_fract_y
 _atom_site_fract_z
 _atom_site_occupancy
  Hf  Hf0  1  0.00259276  0.40684662  0.00080471  1
  Hf  Hf1  1  0.32662816  0.12014917  0.38401399  1
  Hf  Hf2  1  0.41215350  0.59622600  -0.01333096  1
  Hf  Hf3  1  0.81365809  -0.01410908  0.75288428  1
  Hf  Hf4  1  0.60137550  0.40681723  0.74872287  1
  Hf  Hf5  1  0.30024206  0.30237000  0.63262023  1
  Hf  Hf6  1  0.80170555  0.41593690  -0.01272411  1
  Hf  Hf7  1  0.81359963  0.19426998  -0.01347245  1
  Hf  Hf8  1  0.10560776  0.09998147  0.12832931  1
  Hf  Hf9  1  0.27983646  0.51471912  0.13622463  1
  Hf  Hf10  1  0.80366269  0.59516219  0.26215293  1
  Hf  Hf11  1  0.70173175  0.88628139  0.61879783  1
  Hf  Hf12  1  0.80904082  0.59191300  0.74812034  1
  Hf  Hf13  1  0.50136712  0.28922008  0.85832942  1
  Hf  Hf14  1  0.69360913  0.50534031  0.12658749  1
  Hf  Hf15  1  0.49959996  0.09822673  0.64555073  1
  Hf  Hf16  1  0.20745941  0.00312312  0.49653131  1
  Hf  Hf17  1  0.89754867  0.30698507  0.12671666  1
  Hf  Hf18  1  -0.01210359  0.41518367  0.50622521  1
  Hf  Hf19  1  -0.00639736  0.59937528  0.01446512  1
  Hf  Hf20  1  0.60017769  0.58820994  0.48837647  1
  Hf  Hf21  1  0.00611888  0.20587442  0.25254535  1
  Hf  Hf22  1  0.89226163  0.90616578  0.12591568  1
  Hf  Hf23  1  0.69270059  0.89984784  0.38480234  1
  Hf  Hf24  1  0.70583861  0.88939143  0.88086812  1
  Hf  Hf25  1  0.08711136  0.51539577  0.86612897  1
  Hf  Hf26  1  0.19141236  0.60335786  0.49665375  1
  Hf  Hf27  1  0.80207250  0.21352446  0.25731813  1
  Hf  Hf28  1  0.18271968  0.79785792  0.73790561  1
  Hf  Hf29  1  0.80871405  0.01287339  0.26758245  1
  Hf  Hf30  1  0.20955842  0.00784041  0.26396030  1
  Hf  Hf31  1  0.29363359  0.70717609  0.86657467  1
  Hf  Hf32  1  0.18893465  0.80798693  0.50511782  1
  Hf  Hf33  1  0.90672108  0.69081171  0.87247018  1
  Hf  Hf34  1  0.29355429  0.10722714  0.12222533  1
  Hf  Hf35  1  0.11017704  0.31095023  0.12708229  1
  Hf  Hf36  1  0.49450395  0.89186586  0.87338091  1
  Hf  Hf37  1  0.38788599  0.20589420  -0.00842858  1
  Hf  Hf38  1  0.90981899  0.88212085  0.38726146  1
  Hf  Hf39  1  0.78941103  0.80566741  0.25105964  1
  Zr  Zr40  1  0.80311792  0.40041806  0.74936533  1
  Zr  Zr41  1  0.69919647  0.29551835  0.87460681  1
  Zr  Zr42  1  0.91626021  0.68954308  0.61374481  1
  Zr  Zr43  1  0.38065995  0.79419659  0.00287127  1
  Zr  Zr44  1  0.39544221  0.39955807  0.50111206  1
  Zr  Zr45  1  0.61588304  -0.02939352  0.22864784  1
  Zr  Zr46  1  0.30512700  0.90582313  0.63782804  1
  Zr  Zr47  1  0.80685779  0.18731104  0.75826870  1
  Zr  Zr48  1  0.30939160  0.32070912  0.12376330  1
  Zr  Zr49  1  0.48812593  0.48082523  0.12781055  1
  Zr  Zr50  1  0.11113595  0.11452197  0.38472001  1
  Zr  Zr51  1  0.29356066  0.50318116  0.62752789  1
  Zr  Zr52  1  0.48377147  0.29608880  0.37749971  1
  Zr  Zr53  1  0.20613925  0.40692618  -0.01584263  1
  Zr  Zr54  1  0.69334571  0.31153993  0.11670488  1
  Zr  Zr55  1  0.59381617  0.59066957  0.26845045  1
  Zr  Zr56  1  0.00034839  0.00005298  -0.00512510  1
  Zr  Zr57  1  0.49123486  0.08887909  0.85993917  1
  Zr  Zr58  1  0.01159236  0.19998947  -0.00613063  1
  Zr  Zr59  1  0.19768311  0.61679436  0.00007491  1
  Zr  Zr60  1  0.59195382  0.19483080  0.00539643  1
  Zr  Zr61  1  0.28989216  0.91958860  0.86442292  1
  Zr  Zr62  1  0.59461764  0.76517117  -0.01533677  1
  Zr  Zr63  1  0.50521134  0.87748150  0.12123632  1
  Zr  Zr64  1  0.59578841  0.19073333  0.50925847  1
  Zr  Zr65  1  0.79454046  0.00616818  0.49577313  1
  Zr  Zr66  1  0.30207196  0.10752333  0.62966143  1
  Zr  Zr67  1  0.08895635  0.71765490  0.36338493  1
  Zr  Zr68  1  0.41407276  -0.00518490  0.50120860  1
  Zr  Zr69  1  0.51006243  0.69450013  0.62437330  1
  Zr  Zr70  1  0.10371362  0.89406116  0.12378203  1
  Zr  Zr71  1  0.91026557  0.09482599  0.61799496  1
  Zr  Zr72  1  0.53042688  0.08718709  0.36654427  1
  Zr  Zr73  1  0.59997442  0.39484125  0.50727839  1
  Zr  Zr74  1  0.60633678  0.18971038  0.23382154  1
  Zr  Zr75  1  0.40872772  0.21182231  0.23630718  1
  Zr  Zr76  1  0.72096348  0.08637196  0.11316636  1
  Zr  Zr77  1  0.91232803  0.11852819  0.39155418  1
  Zr  Zr78  1  0.30999239  0.69609653  0.62635557  1
  Zr  Zr79  1  0.68774298  0.70878571  0.13072304  1
  Ta  Ta80  1  0.00871256  0.19662619  0.75503688  1
  Ta  Ta81  1  0.89920016  0.70334104  0.13097277  1
  Ta  Ta82  1  0.20753332  0.21837290  0.26090149  1
  Ta  Ta83  1  0.60967135  0.79018750  0.75588842  1
  Ta  Ta84  1  0.80809577  0.57978853  0.49516512  1
  Ta  Ta85  1  0.19477863  0.40524154  0.75682513  1
  Ta  Ta86  1  0.01396433  -0.00844040  0.49572418  1
  Ta  Ta87  1  0.60861900  -0.01262596  0.74850453  1
  Ta  Ta88  1  0.08540071  0.91033867  0.63409595  1
  Ta  Ta89  1  0.49585102  0.50186004  0.63549380  1
  Ta  Ta90  1  0.29650133  0.90664747  0.12528745  1
  Ta  Ta91  1  0.18807945  0.40501283  0.49184770  1
  Ta  Ta92  1  0.70010354  0.29002983  0.63350558  1
  Ta  Ta93  1  -0.00202080  0.40952733  0.74219077  1
  Ta  Ta94  1  0.59105325  0.79621186  0.49466802  1
  Ta  Ta95  1  0.90125305  0.68974539  0.38869900  1
  Ta  Ta96  1  0.40032699  0.40452864  -0.02936137  1
  Ta  Ta97  1  0.10155972  0.11023821  0.62190728  1
  Ta  Ta98  1  0.48898922  0.69877922  0.37711908  1
  Ta  Ta99  1  0.90106826  0.88803100  0.61361141  1
  Ta  Ta100  1  0.40546867  -0.00320845  0.24533706  1
  Ta  Ta101  1  0.60935755  0.60289373  0.76488012  1
  Ta  Ta102  1  0.79781888  0.21330079  0.50142972  1
  Ta  Ta103  1  0.39555223  0.00243791  0.00292944  1
  Ta  Ta104  1  0.18668215  0.41175161  0.26489803  1
  Ta  Ta105  1  0.10636376  0.29755050  0.86811510  1
  Ta  Ta106  1  0.29935839  0.50091968  0.37131889  1
  Ta  Ta107  1  0.91484099  0.30719093  0.86797559  1
  Ta  Ta108  1  0.29726857  0.70365926  0.37115394  1
  Ta  Ta109  1  0.11609036  0.09065679  0.87037205  1
  Ta  Ta110  1  0.10081676  0.30554121  0.62756172  1
  Ta  Ta111  1  0.09939257  0.89824944  0.87176209  1
  Ta  Ta112  1  0.10296051  0.69409972  0.14333669  1
  Ta  Ta113  1  0.90625409  0.29517682  0.62499203  1
  Ta  Ta114  1  0.59972165  -0.01022771  0.00051711  1
  Ta  Ta115  1  0.00809814  -0.01116616  0.26319394  1
  Ta  Ta116  1  0.49611648  0.88939591  0.36777241  1
  Ta  Ta117  1  0.91276094  0.88787248  0.87219306  1
  Ta  Ta118  1  0.39669619  0.79789306  0.24865126  1
  Ta  Ta119  1  0.39162830  0.40515218  0.76347176  1
  Ti  Ti120  1  0.08505674  0.51659946  0.62913606  1
  Ti  Ti121  1  0.40810837  0.59706117  0.76378971  1
  Ti  Ti122  1  0.39136965  0.59582575  0.25768220  1
  Ti  Ti123  1  0.79186516  0.39744170  0.51071255  1
  Ti  Ti124  1  0.19658048  0.81031248  0.25556310  1
  Ti  Ti125  1  0.69851931  0.50434673  0.62355069  1
  Ti  Ti126  1  0.59950470  -0.00603861  0.50980816  1
  Ti  Ti127  1  0.30455467  0.89697624  0.37328507  1
  Ti  Ti128  1  0.00688693  0.79304052  0.00633180  1
  Ti  Ti129  1  0.70738891  0.47788294  0.37188689  1
  Ti  Ti130  1  0.20484835  0.20097423  0.75533237  1
  Ti  Ti131  1  0.58676038  0.38789607  0.25436774  1
  Ti  Ti132  1  0.70279346  0.09591663  0.63279968  1
  Ti  Ti133  1  0.29213216  0.71025510  0.13821401  1
  Ti  Ti134  1  0.88830915  0.32218620  0.37954702  1
  Ti  Ti135  1  0.69269431  0.09292734  0.87090599  1
  Ti  Ti136  1  0.09309253  0.71475133  0.87271302  1
  Ti  Ti137  1  0.80948325  0.79431822  -0.00021578  1
  Ti  Ti138  1  0.08578292  0.51118124  0.37324435  1
  Ti  Ti139  1  0.49239445  0.68213196  0.13482764  1
  Ti  Ti140  1  0.50402888  0.89239700  0.63317592  1
  Ti  Ti141  1  0.49551445  0.29480895  0.64105201  1
  Ti  Ti142  1  0.91078844  0.10188857  0.13143721  1
  Ti  Ti143  1  0.69219689  0.29037773  0.37549818  1
  Ti  Ti144  1  0.19525433  0.60156286  0.74694102  1
  Ti  Ti145  1  0.89301395  0.50227105  0.13377769  1
  Ti  Ti146  1  0.80276000  0.78899253  0.74728905  1
  Ti  Ti147  1  0.49656794  0.09114915  0.12003061  1
  Ti  Ti148  1  0.00027975  0.59894818  0.24707976  1
  Ti  Ti149  1  0.40836296  0.79582947  0.75080892  1
  Ti  Ti150  1  0.40264795  0.59666779  0.49171060  1
  Ti  Ti151  1  0.20599679  0.21725800  0.49980949  1
  Ti  Ti152  1  0.59112634  0.41172098  -0.01453338  1
  Ti  Ti153  1  0.08768369  0.30877066  0.38212319  1
  Ti  Ti154  1  -0.01631814  0.40868607  0.25630385  1
  Ti  Ti155  1  0.78854262  0.60664120  -0.00486195  1
  Ti  Ti156  1  0.70801456  0.69555867  0.61317698  1
  Ti  Ti157  1  0.80816604  -0.00049551  -0.01868858  1
  Ti  Ti158  1  0.39745439  0.79817120  0.49859450  1
  Ti  Ti159  1  0.70312504  0.70266471  0.38515732  1
  Mo  Mo160  1  0.40001328  0.20601324  0.50899435  1
  Mo  Mo161  1  0.70361146  0.50547921  0.87747189  1
  Mo  Mo162  1  0.89657004  0.49468224  0.62288658  1
  Mo  Mo163  1  0.19772268  0.60640084  0.26039038  1
  Mo  Mo164  1  0.10493979  0.90571133  0.37186782  1
  Mo  Mo165  1  0.90357100  0.49922285  0.87536793  1
  Mo  Mo166  1  0.20733808  0.00269200  -0.00007416  1
  Mo  Mo167  1  0.29513914  0.29743488  0.86251177  1
  Mo  Mo168  1  0.79280024  0.78471942  0.49843430  1
  Mo  Mo169  1  0.08741937  0.50187348  0.14239544  1
  Mo  Mo170  1  0.00649056  0.59971059  0.49377290  1
  Mo  Mo171  1  0.00822528  0.21472687  0.50853493  1
  Mo  Mo172  1  0.39479372  0.20403816  0.75643569  1
  Mo  Mo173  1  -0.01215677  0.80638996  0.74880016  1
  Mo  Mo174  1  0.78638651  0.40276725  0.25353681  1
  Mo  Mo175  1  0.29545849  0.10583656  0.87062920  1
  Mo  Mo176  1  0.01120125  0.60779311  0.74717595  1
  Mo  Mo177  1  0.18837945  0.80590195  0.00260489  1
  Mo  Mo178  1  0.60826591  0.19259225  0.74192155  1
  Mo  Mo179  1  0.91003181  0.09380562  0.86757072  1
  Mo  Mo180  1  0.49427673  0.49734394  0.36976066  1
  Mo  Mo181  1  0.39183650  0.40702929  0.26019653  1
  Mo  Mo182  1  0.58767463  0.78362043  0.26848571  1
  Mo  Mo183  1  0.18686621  0.01075963  0.74251060  1
  Mo  Mo184  1  0.10260351  0.70232673  0.62524122  1
  Mo  Mo185  1  0.71083121  0.89423651  0.08946777  1
  Mo  Mo186  1  0.29518208  0.50795624  0.86271123  1
  Mo  Mo187  1  0.50249983  0.49893474  0.86429717  1
  Mo  Mo188  1  0.20107481  0.19796995  -0.01102529  1
  Mo  Mo189  1  -0.01177122  0.79810468  0.24372842  1
  Mo  Mo190  1  0.50091426  0.30776889  0.11127658  1
  Mo  Mo191  1  0.00407229  0.80098210  0.50479087  1
  Mo  Mo192  1  0.60588955  0.58389688  -0.01416547  1
  Mo  Mo193  1  0.89854654  0.49764835  0.37081822  1
  Mo  Mo194  1  0.40118445  -0.00863992  0.74706459  1
  Mo  Mo195  1  0.70506574  0.10732877  0.37938886  1
  Mo  Mo196  1  0.28105230  0.30653844  0.37822589  1
  Mo  Mo197  1  0.71266755  0.69839689  0.87156787  1
  Mo  Mo198  1  0.00278508  0.00103466  0.75392203  1
  Mo  Mo199  1  0.49865218  0.69862536  0.86210357  1
