# generated using pymatgen
data_HfZrTaTiMo
_symmetry_space_group_name_H-M   'P 1'
_cell_length_a   15.21599189
_cell_length_b   15.21884073
_cell_length_c   16.82989734
_cell_angle_alpha   90.00665306
_cell_angle_beta   90.02153986
_cell_angle_gamma   89.96610263
_symmetry_Int_Tables_number   1
_chemical_formula_structural   HfZrTaTiMo
_chemical_formula_sum   'Hf40 Zr40 Ta40 Ti40 Mo40'
_cell_volume   3897.29425516
_cell_formula_units_Z   40
loop_
 _symmetry_equiv_pos_site_id
 _symmetry_equiv_pos_as_xyz
  1  'x, y, z'
loop_
 _atom_site_type_symbol
 _atom_site_label
 _atom_site_symmetry_multiplicity
 _atom_site_fract_x
 _atom_site_fract_y
 _atom_site_fract_z
 _atom_site_occupancy
  Hf  Hf0  1  0.08630008  0.90613024  0.86626616  1
  Hf  Hf1  1  0.59667551  0.40089866  -0.00331135  1
  Hf  Hf2  1  0.59950399  0.40136358  0.75539999  1
  Hf  Hf3  1  0.70276592  0.09085618  0.61916028  1
  Hf  Hf4  1  0.30375814  0.70638761  0.87481969  1
  Hf  Hf5  1  0.49769120  0.29751614  0.60561431  1
  Hf  Hf6  1  0.29286942  0.10617838  0.13560531  1
  Hf  Hf7  1  0.89564723  0.91315305  0.13304825  1
  Hf  Hf8  1  0.71162009  0.29970099  0.12394284  1
  Hf  Hf9  1  0.89377478  0.49923882  0.13143382  1
  Hf  Hf10  1  0.81833518  0.18891161  0.50386352  1
  Hf  Hf11  1  -0.01406312  0.60950801  -0.00619856  1
  Hf  Hf12  1  0.91016749  0.08344819  0.85705169  1
  Hf  Hf13  1  0.19919994  0.40475501  0.48129289  1
  Hf  Hf14  1  0.28806031  0.70425716  0.61681472  1
  Hf  Hf15  1  0.11265593  0.10913906  0.61380282  1
  Hf  Hf16  1  0.20651581  0.41293883  0.00326578  1
  Hf  Hf17  1  0.00426747  0.60755377  0.27063155  1
  Hf  Hf18  1  0.30077542  0.51722807  0.13105361  1
  Hf  Hf19  1  0.00139524  0.81386218  0.26477290  1
  Hf  Hf20  1  0.17311968  0.61242494  0.48233621  1
  Hf  Hf21  1  0.91455591  0.29861092  0.87321405  1
  Hf  Hf22  1  -0.01142954  -0.00841039  -0.00224502  1
  Hf  Hf23  1  0.48966274  0.49627821  0.60445133  1
  Hf  Hf24  1  0.21215438  0.21092735  0.75616365  1
  Hf  Hf25  1  0.60165269  0.79663414  0.50038022  1
  Hf  Hf26  1  0.49886346  0.49044056  0.39882835  1
  Hf  Hf27  1  0.89932459  0.88831321  0.62371492  1
  Hf  Hf28  1  0.19319657  0.79949782  0.74874171  1
  Hf  Hf29  1  0.49646604  0.08924133  0.61955803  1
  Hf  Hf30  1  0.70919785  0.30917925  0.38635247  1
  Hf  Hf31  1  0.19461925  0.40645270  0.75562141  1
  Hf  Hf32  1  0.72732231  0.08582788  0.37276710  1
  Hf  Hf33  1  0.19352834  0.01393641  -0.00209661  1
  Hf  Hf34  1  0.80453527  0.59713545  0.75790724  1
  Hf  Hf35  1  0.69647553  0.50575277  0.12434737  1
  Hf  Hf36  1  0.40823973  0.40345200  0.25657354  1
  Hf  Hf37  1  0.30847607  0.30602448  0.12786445  1
  Hf  Hf38  1  0.70353851  0.29926929  0.61849723  1
  Hf  Hf39  1  0.31040600  0.31301057  0.89102848  1
  Zr  Zr40  1  0.89062499  0.49532761  0.37875792  1
  Zr  Zr41  1  0.89717593  0.70334136  0.13343613  1
  Zr  Zr42  1  0.70168658  0.89588465  0.87487154  1
  Zr  Zr43  1  0.90692828  0.68031066  0.60995611  1
  Zr  Zr44  1  0.10306724  0.89936894  0.61421984  1
  Zr  Zr45  1  0.78325066  0.60930753  0.26404294  1
  Zr  Zr46  1  0.18697438  0.40681741  0.25744470  1
  Zr  Zr47  1  0.50042405  0.29262259  0.38162665  1
  Zr  Zr48  1  0.59942294  0.19621830  0.75477391  1
  Zr  Zr49  1  0.70643124  0.29575121  0.87834454  1
  Zr  Zr50  1  0.60128023  0.19716037  0.25627367  1
  Zr  Zr51  1  0.09293162  0.50802570  0.12879449  1
  Zr  Zr52  1  0.70557932  0.50617070  0.61158815  1
  Zr  Zr53  1  0.49440345  0.88709982  0.87699355  1
  Zr  Zr54  1  0.10352172  0.90775499  0.39011226  1
  Zr  Zr55  1  0.91039518  0.09365398  0.64098180  1
  Zr  Zr56  1  0.19884036  0.80937665  0.00024904  1
  Zr  Zr57  1  0.31125754  0.90948343  0.62596129  1
  Zr  Zr58  1  0.40629507  0.19853505  0.75666878  1
  Zr  Zr59  1  0.01850334  0.20989507  0.75038439  1
  Zr  Zr60  1  0.59594126  -0.01832155  0.26230316  1
  Zr  Zr61  1  0.80678970  0.40957756  -0.01175600  1
  Zr  Zr62  1  0.02082422  0.21028010  0.25444983  1
  Zr  Zr63  1  0.28740980  0.27784729  0.35945905  1
  Zr  Zr64  1  0.58742767  0.59882280  0.74583051  1
  Zr  Zr65  1  0.82297046  0.19494868  0.25152547  1
  Zr  Zr66  1  0.30606463  0.89814565  0.35998778  1
  Zr  Zr67  1  0.59247282  -0.00497851  0.75147905  1
  Zr  Zr68  1  0.60375869  0.78227930  0.25490438  1
  Zr  Zr69  1  0.19738431  0.01514044  0.75936360  1
  Zr  Zr70  1  0.28356787  0.49997207  0.62039961  1
  Zr  Zr71  1  0.49834528  0.69430414  0.38862546  1
  Zr  Zr72  1  0.81907023  0.79629244  -0.00391579  1
  Zr  Zr73  1  0.60575990  0.18265688  0.00606407  1
  Zr  Zr74  1  0.40429372  -0.00844138  0.00935166  1
  Zr  Zr75  1  0.69348361  0.70421165  0.87124790  1
  Zr  Zr76  1  0.71574642  0.08262760  0.13668423  1
  Zr  Zr77  1  0.38824158  0.17887131  0.48715439  1
  Zr  Zr78  1  0.59297936  -0.00222434  0.47971738  1
  Zr  Zr79  1  0.18147943  0.00395395  0.24878115  1
  Ta  Ta80  1  0.81845300  0.18667272  0.00084763  1
  Ta  Ta81  1  0.70543323  0.09506875  0.87411213  1
  Ta  Ta82  1  0.69868147  0.88745888  0.12049765  1
  Ta  Ta83  1  -0.00795914  0.01632929  0.49482224  1
  Ta  Ta84  1  0.58769557  0.58931697  0.25390347  1
  Ta  Ta85  1  0.91484578  0.29531752  0.11491113  1
  Ta  Ta86  1  0.01140871  0.22131767  0.50392574  1
  Ta  Ta87  1  0.68873873  0.50728335  0.39737039  1
  Ta  Ta88  1  0.39653664  0.60264794  0.26242382  1
  Ta  Ta89  1  0.08680978  0.70732396  0.87527783  1
  Ta  Ta90  1  0.39894517  0.40216117  0.74862958  1
  Ta  Ta91  1  0.00331574  0.40227428  -0.00180832  1
  Ta  Ta92  1  0.30172341  0.90221987  0.87286544  1
  Ta  Ta93  1  0.11416556  0.12156912  0.38758381  1
  Ta  Ta94  1  0.79581870  0.00040390  -0.00533264  1
  Ta  Ta95  1  0.69239514  0.69638152  0.11580943  1
  Ta  Ta96  1  0.10860195  0.29376308  0.11126058  1
  Ta  Ta97  1  -0.01962849  0.01691252  0.26535034  1
  Ta  Ta98  1  0.59262464  0.59697066  -0.00784954  1
  Ta  Ta99  1  0.30087061  0.30078778  0.61566364  1
  Ta  Ta100  1  0.49635385  0.49824798  0.12366411  1
  Ta  Ta101  1  0.29907742  0.89346596  0.13805864  1
  Ta  Ta102  1  0.48962541  0.69770810  0.61253746  1
  Ta  Ta103  1  0.80697236  0.40319427  0.75326944  1
  Ta  Ta104  1  0.10720025  0.32261629  0.61979386  1
  Ta  Ta105  1  0.29928410  0.51089388  0.87442537  1
  Ta  Ta106  1  0.58785707  0.79392543  0.00723663  1
  Ta  Ta107  1  0.60747883  0.40504790  0.25243406  1
  Ta  Ta108  1  0.49692868  0.29644761  0.88557004  1
  Ta  Ta109  1  0.18899545  0.60288280  0.75195009  1
  Ta  Ta110  1  0.48550639  0.49715621  0.87825505  1
  Ta  Ta111  1  0.80203581  0.20196859  0.74774881  1
  Ta  Ta112  1  0.00169378  0.60082197  0.75355576  1
  Ta  Ta113  1  0.19329912  0.61066534  -0.00290374  1
  Ta  Ta114  1  0.60031708  0.79519934  0.73239924  1
  Ta  Ta115  1  0.40639085  0.19888717  0.00741885  1
  Ta  Ta116  1  0.49085926  0.68883207  0.12388768  1
  Ta  Ta117  1  0.09585549  0.50297231  0.88042915  1
  Ta  Ta118  1  0.30448281  0.10324506  0.62516845  1
  Ta  Ta119  1  0.10336967  0.70804187  0.13065020  1
  Ti  Ti120  1  0.39518062  0.60121957  -0.00003749  1
  Ti  Ti121  1  0.70416913  0.89588056  0.61720768  1
  Ti  Ti122  1  0.79930724  0.39710197  0.25310165  1
  Ti  Ti123  1  0.60290222  0.18997638  0.48692429  1
  Ti  Ti124  1  0.30820863  0.10704044  0.88779659  1
  Ti  Ti125  1  -0.00063852  0.41675621  0.74700486  1
  Ti  Ti126  1  0.29834761  0.70665626  0.12760518  1
  Ti  Ti127  1  0.11202660  0.29658534  0.89205950  1
  Ti  Ti128  1  0.39025322  0.80165284  0.49308384  1
  Ti  Ti129  1  0.00764932  0.42253304  0.50275669  1
  Ti  Ti130  1  0.90887450  0.30920908  0.63076746  1
  Ti  Ti131  1  0.09578735  0.89916818  0.12667710  1
  Ti  Ti132  1  0.40445920  -0.00930127  0.48503972  1
  Ti  Ti133  1  0.79465220  -0.01135044  0.74764715  1
  Ti  Ti134  1  0.40128758  0.79293370  0.25306346  1
  Ti  Ti135  1  -0.00622268  0.39810717  0.25186438  1
  Ti  Ti136  1  0.40588707  0.79774066  0.74386734  1
  Ti  Ti137  1  0.79166681  0.59712604  -0.02096290  1
  Ti  Ti138  1  0.20378913  0.61615265  0.27080292  1
  Ti  Ti139  1  0.90113178  0.87726905  0.84995884  1
  Ti  Ti140  1  0.91102900  0.29855141  0.38288322  1
  Ti  Ti141  1  0.50446534  0.29929317  0.12732960  1
  Ti  Ti142  1  0.81428121  0.40087176  0.50840579  1
  Ti  Ti143  1  0.39968364  0.00458199  0.76255657  1
  Ti  Ti144  1  0.49623891  0.09437792  0.13935863  1
  Ti  Ti145  1  0.49180712  0.69691800  0.87535779  1
  Ti  Ti146  1  0.39173234  0.59944625  0.74560764  1
  Ti  Ti147  1  0.89043512  0.71182244  0.39135863  1
  Ti  Ti148  1  0.79668450  0.80641849  0.25643123  1
  Ti  Ti149  1  0.01193442  0.18988513  -0.00655273  1
  Ti  Ti150  1  0.71119770  0.88349713  0.38458068  1
  Ti  Ti151  1  0.60020555  -0.00592893  0.00324108  1
  Ti  Ti152  1  0.49717551  0.88583898  0.12596681  1
  Ti  Ti153  1  0.37391255  0.59533670  0.48672357  1
  Ti  Ti154  1  0.70637786  0.70414076  0.61883078  1
  Ti  Ti155  1  0.50047639  0.89441457  0.62167402  1
  Ti  Ti156  1  0.89103351  0.91206948  0.39161233  1
  Ti  Ti157  1  0.01466684  0.78754575  0.49398069  1
  Ti  Ti158  1  0.21777131  0.01323348  0.49181756  1
  Ti  Ti159  1  0.08453338  0.10139462  0.12425570  1
  Mo  Mo160  1  0.47112884  0.08669647  0.35317832  1
  Mo  Mo161  1  0.80310619  -0.00757787  0.50571295  1
  Mo  Mo162  1  0.80497157  -0.01850391  0.25734758  1
  Mo  Mo163  1  0.59488526  0.60330107  0.51481853  1
  Mo  Mo164  1  0.08440637  0.51598512  0.62450417  1
  Mo  Mo165  1  0.70337398  0.69400789  0.38537940  1
  Mo  Mo166  1  0.09733824  0.69665408  0.62540673  1
  Mo  Mo167  1  0.38851414  0.39529293  0.49293629  1
  Mo  Mo168  1  0.49816813  0.89111885  0.37214300  1
  Mo  Mo169  1  0.60714029  0.38946542  0.50367663  1
  Mo  Mo170  1  0.39909809  0.79003834  0.00930440  1
  Mo  Mo171  1  0.09865315  0.71592169  0.36894110  1
  Mo  Mo172  1  0.20351482  0.20201396  -0.00017322  1
  Mo  Mo173  1  0.00661899  0.79988329  0.00477280  1
  Mo  Mo174  1  0.80200932  0.80138390  0.49947360  1
  Mo  Mo175  1  0.40269064  -0.00950297  0.23423258  1
  Mo  Mo176  1  0.90388811  0.70402084  0.86469794  1
  Mo  Mo177  1  0.40859203  0.40921304  0.00717993  1
  Mo  Mo178  1  0.29641738  0.70623796  0.37585087  1
  Mo  Mo179  1  0.19770295  0.79643339  0.24030873  1
  Mo  Mo180  1  0.90926100  0.10368810  0.12127520  1
  Mo  Mo181  1  0.90469601  0.49984445  0.87232478  1
  Mo  Mo182  1  0.79618394  0.60556692  0.49340586  1
  Mo  Mo183  1  0.09276166  0.50150614  0.36538465  1
  Mo  Mo184  1  0.91491920  0.10436997  0.38418036  1
  Mo  Mo185  1  0.40578878  0.19355531  0.24064613  1
  Mo  Mo186  1  0.29572904  0.09150088  0.35529709  1
  Mo  Mo187  1  0.90577671  0.48769681  0.62178729  1
  Mo  Mo188  1  0.20515256  0.80745532  0.50223441  1
  Mo  Mo189  1  0.69266677  0.50220517  0.87299647  1
  Mo  Mo190  1  0.79124293  0.79620873  0.73770349  1
  Mo  Mo191  1  0.10158001  0.10969345  0.87982436  1
  Mo  Mo192  1  0.30212695  0.50549247  0.36974504  1
  Mo  Mo193  1  0.19483372  0.20281002  0.24075986  1
  Mo  Mo194  1  -0.00523906  0.60075854  0.48132116  1
  Mo  Mo195  1  0.00282789  -0.00851897  0.74510478  1
  Mo  Mo196  1  0.08821523  0.30966904  0.38339621  1
  Mo  Mo197  1  -0.00255099  0.78641192  0.74242656  1
  Mo  Mo198  1  0.49906864  0.09888180  0.88835326  1
  Mo  Mo199  1  0.20049293  0.20345630  0.50520445  1
