# generated using pymatgen
data_HfZrTaTiMo
_symmetry_space_group_name_H-M   'P 1'
_cell_length_a   15.20793768
_cell_length_b   15.20992174
_cell_length_c   16.84690748
_cell_angle_alpha   90.09601142
_cell_angle_beta   90.06011433
_cell_angle_gamma   90.07898404
_symmetry_Int_Tables_number   1
_chemical_formula_structural   HfZrTaTiMo
_chemical_formula_sum   'Hf40 Zr40 Ta40 Ti40 Mo40'
_cell_volume   3896.87281813
_cell_formula_units_Z   40
loop_
 _symmetry_equiv_pos_site_id
 _symmetry_equiv_pos_as_xyz
  1  'x, y, z'
loop_
 _atom_site_type_symbol
 _atom_site_label
 _atom_site_symmetry_multiplicity
 _atom_site_fract_x
 _atom_site_fract_y
 _atom_site_fract_z
 _atom_site_occupancy
  Hf  Hf0  1  0.90259919  0.29479661  0.63911990  1
  Hf  Hf1  1  -0.00339010  0.19178279  -0.00456122  1
  Hf  Hf2  1  0.21017109  0.21136389  0.26113364  1
  Hf  Hf3  1  0.10685741  0.89110060  0.62180910  1
  Hf  Hf4  1  0.08783225  0.88639342  0.13302056  1
  Hf  Hf5  1  0.49080477  0.29527145  0.11549158  1
  Hf  Hf6  1  0.31197177  0.49361942  0.88215656  1
  Hf  Hf7  1  0.70459446  0.11388502  0.62197072  1
  Hf  Hf8  1  0.20800813  0.00041387  0.24877528  1
  Hf  Hf9  1  0.20345582  0.01177424  0.74919502  1
  Hf  Hf10  1  0.19107447  0.79037788  -0.00894932  1
  Hf  Hf11  1  0.69670235  0.89468569  0.61873455  1
  Hf  Hf12  1  0.71225477  0.31903204  0.63543800  1
  Hf  Hf13  1  0.01102079  0.00992602  0.49910317  1
  Hf  Hf14  1  0.50714479  0.09540314  0.37833889  1
  Hf  Hf15  1  0.59263426  0.41144384  0.74455257  1
  Hf  Hf16  1  0.90711478  0.30354967  0.86289647  1
  Hf  Hf17  1  0.29485262  0.90392443  0.87594279  1
  Hf  Hf18  1  0.19126380  0.00011357  -0.00249595  1
  Hf  Hf19  1  0.49168725  0.32282451  0.89359908  1
  Hf  Hf20  1  0.08066381  0.51316179  0.37375569  1
  Hf  Hf21  1  0.37887429  0.60659439  0.24882821  1
  Hf  Hf22  1  0.81116262  0.00487350  0.26796510  1
  Hf  Hf23  1  0.40401189  0.59839301  0.74835549  1
  Hf  Hf24  1  0.72655178  0.90317131  0.12037121  1
  Hf  Hf25  1  0.61955474  0.00652647  0.25088562  1
  Hf  Hf26  1  0.41234432  -0.00499249  0.00056316  1
  Hf  Hf27  1  0.70002322  0.91310786  0.86917614  1
  Hf  Hf28  1  0.09493474  0.29745782  0.62370914  1
  Hf  Hf29  1  0.00533343  0.78615350  0.26858740  1
  Hf  Hf30  1  -0.00372043  0.78142493  -0.00976076  1
  Hf  Hf31  1  0.39773370  0.19999743  0.75410506  1
  Hf  Hf32  1  0.88738163  0.48056414  0.36938866  1
  Hf  Hf33  1  0.90090675  0.08038350  0.12519000  1
  Hf  Hf34  1  0.69818580  0.69268921  0.63371967  1
  Hf  Hf35  1  0.19075605  0.40572612  0.50453892  1
  Hf  Hf36  1  0.69505836  0.49749305  0.36022649  1
  Hf  Hf37  1  0.79881093  0.19753570  0.00611671  1
  Hf  Hf38  1  0.39167151  0.40316624  0.73380185  1
  Hf  Hf39  1  0.69687843  0.30279376  0.87337528  1
  Zr  Zr40  1  0.90472525  0.67744362  0.38722835  1
  Zr  Zr41  1  0.59088741  0.62359915  0.25301656  1
  Zr  Zr42  1  0.80212593  0.41019741  0.01047178  1
  Zr  Zr43  1  0.31121020  0.90244953  0.62967927  1
  Zr  Zr44  1  -0.00777614  -0.01856692  -0.01553286  1
  Zr  Zr45  1  0.69687746  0.70221282  0.10263277  1
  Zr  Zr46  1  0.89356825  0.72385301  0.12707522  1
  Zr  Zr47  1  0.70230606  0.90663330  0.39872754  1
  Zr  Zr48  1  0.59194627  0.00648188  0.74180422  1
  Zr  Zr49  1  0.90064374  0.89570273  0.39822937  1
  Zr  Zr50  1  0.28331989  0.50369922  0.37657911  1
  Zr  Zr51  1  0.29698390  0.28007707  0.61896124  1
  Zr  Zr52  1  0.80084767  0.60806184  0.24727750  1
  Zr  Zr53  1  0.10831658  0.49616674  0.87570652  1
  Zr  Zr54  1  0.39301696  0.60472307  0.49639915  1
  Zr  Zr55  1  0.12416757  0.89565893  0.37998764  1
  Zr  Zr56  1  0.61151227  0.41389988  0.50732112  1
  Zr  Zr57  1  0.68732354  0.31032902  0.12923884  1
  Zr  Zr58  1  0.80423284  0.20231449  0.23646998  1
  Zr  Zr59  1  0.38854515  0.38938253  0.25394669  1
  Zr  Zr60  1  -0.00169048  -0.01131159  0.74253599  1
  Zr  Zr61  1  0.50657794  0.10565847  0.88400320  1
  Zr  Zr62  1  0.09767609  0.29274197  0.12861915  1
  Zr  Zr63  1  0.59977830  0.62331507  0.48506132  1
  Zr  Zr64  1  0.88944702  0.89519901  0.60471511  1
  Zr  Zr65  1  0.51764799  0.89229344  0.13057781  1
  Zr  Zr66  1  0.40845075  0.80037496  0.77291228  1
  Zr  Zr67  1  0.00623783  0.40222955  0.00538750  1
  Zr  Zr68  1  0.40003244  0.39925798  0.50722288  1
  Zr  Zr69  1  0.49039122  0.70286995  0.11467377  1
  Zr  Zr70  1  0.01751962  0.77801912  0.49817739  1
  Zr  Zr71  1  0.30004403  0.70082202  0.62473158  1
  Zr  Zr72  1  -0.01332448  0.39422077  0.23604293  1
  Zr  Zr73  1  0.50112755  0.30114338  0.37994616  1
  Zr  Zr74  1  0.69676671  0.50046574  0.88268630  1
  Zr  Zr75  1  0.19052768  0.78034521  0.75756265  1
  Zr  Zr76  1  0.30464252  0.89010938  0.12324999  1
  Zr  Zr77  1  0.40830987  0.00374717  0.24307743  1
  Zr  Zr78  1  0.10412098  0.09411114  0.13110393  1
  Zr  Zr79  1  0.59284359  0.00707238  0.50779971  1
  Ta  Ta80  1  0.70405421  0.10770491  0.86884914  1
  Ta  Ta81  1  0.18637488  0.59512534  0.01006925  1
  Ta  Ta82  1  0.79906240  0.00133180  0.74492530  1
  Ta  Ta83  1  0.80020175  0.59654889  0.75497996  1
  Ta  Ta84  1  0.19139653  0.21149631  0.76182061  1
  Ta  Ta85  1  0.49627520  0.50367250  0.36443787  1
  Ta  Ta86  1  0.89888255  0.68737746  0.62606278  1
  Ta  Ta87  1  0.29958414  0.30138651  0.11484385  1
  Ta  Ta88  1  0.19418463  0.20483151  -0.00648686  1
  Ta  Ta89  1  0.59448547  0.80874543  -0.02094342  1
  Ta  Ta90  1  0.90468093  0.10547212  0.62739560  1
  Ta  Ta91  1  -0.00496459  0.20188002  0.49322688  1
  Ta  Ta92  1  0.41563861  0.80112109  0.49219017  1
  Ta  Ta93  1  0.19558013  0.41036605  0.24083391  1
  Ta  Ta94  1  0.39665005  0.79149370  -0.01532966  1
  Ta  Ta95  1  0.51030277  0.88647827  0.36426173  1
  Ta  Ta96  1  0.29918887  0.10885184  0.88582013  1
  Ta  Ta97  1  0.59689343  0.60687897  0.75963567  1
  Ta  Ta98  1  0.30963355  0.11315428  0.11241499  1
  Ta  Ta99  1  0.40053123  0.00725172  0.75642457  1
  Ta  Ta100  1  0.20102547  0.57019861  0.73521406  1
  Ta  Ta101  1  0.70578390  0.30798028  0.36198855  1
  Ta  Ta102  1  0.02008561  0.39927931  0.75255531  1
  Ta  Ta103  1  0.89598787  0.09675726  0.86096589  1
  Ta  Ta104  1  0.79842801  0.57119980  0.50926407  1
  Ta  Ta105  1  -0.01712183  0.40231375  0.50376434  1
  Ta  Ta106  1  0.80651192  0.80047418  0.75446861  1
  Ta  Ta107  1  0.21376254  0.00933254  0.50478555  1
  Ta  Ta108  1  0.60119828  0.79720443  0.76677658  1
  Ta  Ta109  1  0.29149036  0.30504585  0.88513971  1
  Ta  Ta110  1  0.90591027  0.52210462  0.11873662  1
  Ta  Ta111  1  0.00204120  -0.00467335  0.26578660  1
  Ta  Ta112  1  0.49947852  0.49273943  0.13077666  1
  Ta  Ta113  1  0.70706394  0.69854539  0.88173777  1
  Ta  Ta114  1  0.59815107  0.20033404  0.25147682  1
  Ta  Ta115  1  0.89199278  0.48879748  0.63955173  1
  Ta  Ta116  1  0.89326237  0.29090953  0.37462854  1
  Ta  Ta117  1  0.80763202  0.81238705  -0.02029906  1
  Ta  Ta118  1  0.30264286  0.09651739  0.37843333  1
  Ta  Ta119  1  0.50491750  0.71460249  0.62960437  1
  Ti  Ti120  1  0.18335821  0.60211185  0.24200473  1
  Ti  Ti121  1  0.19757809  0.19924338  0.48790882  1
  Ti  Ti122  1  0.61563957  0.20862791  0.49339257  1
  Ti  Ti123  1  0.59423533  0.20552464  0.74872885  1
  Ti  Ti124  1  0.39184854  0.58927320  0.00880373  1
  Ti  Ti125  1  0.79916077  0.19898099  0.75391930  1
  Ti  Ti126  1  0.90312309  0.50737894  0.87311891  1
  Ti  Ti127  1  0.18499651  0.60279690  0.50955940  1
  Ti  Ti128  1  0.10334596  0.10571063  0.37352181  1
  Ti  Ti129  1  0.39382916  0.18837723  0.49564006  1
  Ti  Ti130  1  0.78707934  0.80455946  0.26606872  1
  Ti  Ti131  1  0.10690926  0.10907013  0.62519901  1
  Ti  Ti132  1  0.00466769  0.59831519  0.74753996  1
  Ti  Ti133  1  0.61690909  0.00620906  0.00501946  1
  Ti  Ti134  1  0.21524908  0.78622575  0.25641378  1
  Ti  Ti135  1  0.60362362  0.19928299  0.00174716  1
  Ti  Ti136  1  0.50988833  0.10423042  0.11998947  1
  Ti  Ti137  1  0.31831439  0.89499790  0.37055555  1
  Ti  Ti138  1  0.91151007  0.70081091  0.85965049  1
  Ti  Ti139  1  0.49947047  0.89729940  0.62796114  1
  Ti  Ti140  1  0.80537715  0.00418618  -0.01069136  1
  Ti  Ti141  1  0.50860670  0.28923845  0.61554451  1
  Ti  Ti142  1  0.09512221  0.10574222  0.86731417  1
  Ti  Ti143  1  0.69427119  0.50413896  0.13162787  1
  Ti  Ti144  1  0.78435394  0.76802141  0.49629349  1
  Ti  Ti145  1  0.09499609  0.30822765  0.37418453  1
  Ti  Ti146  1  0.28896344  0.69777581  0.11880924  1
  Ti  Ti147  1  0.51047796  0.51881294  0.62047786  1
  Ti  Ti148  1  0.20552998  0.40631250  0.01504959  1
  Ti  Ti149  1  0.28628050  0.68149510  0.87880306  1
  Ti  Ti150  1  0.21916294  0.79578573  0.49465864  1
  Ti  Ti151  1  -0.00264613  0.19025946  0.25670431  1
  Ti  Ti152  1  0.48375661  0.10113388  0.62197653  1
  Ti  Ti153  1  0.08514144  0.68346007  0.12660903  1
  Ti  Ti154  1  0.39769663  -0.00551614  0.49894164  1
  Ti  Ti155  1  0.39963287  0.19523576  0.25400435  1
  Ti  Ti156  1  0.09423666  0.68628324  0.62894817  1
  Ti  Ti157  1  0.59709793  0.58879028  0.00001315  1
  Ti  Ti158  1  0.08425827  0.88080119  0.85958789  1
  Ti  Ti159  1  0.49930982  0.68471296  0.88813580  1
  Mo  Mo160  1  0.59035243  0.40480748  0.25074418  1
  Mo  Mo161  1  0.29660978  0.49981708  0.61731795  1
  Mo  Mo162  1  0.59367493  0.80224109  0.50410679  1
  Mo  Mo163  1  0.11867860  0.68952074  0.37880554  1
  Mo  Mo164  1  0.09937121  0.50529118  0.12687346  1
  Mo  Mo165  1  0.39389598  0.20010369  -0.00220152  1
  Mo  Mo166  1  0.69151820  0.09790382  0.12010372  1
  Mo  Mo167  1  0.90640391  0.89952696  0.13301551  1
  Mo  Mo168  1  0.71006815  0.12431039  0.38409887  1
  Mo  Mo169  1  0.81918075  0.61524053  -0.01251595  1
  Mo  Mo170  1  0.69857195  0.70690545  0.37606661  1
  Mo  Mo171  1  -0.00484323  0.60067625  -0.00750389  1
  Mo  Mo172  1  0.09955445  0.68615291  0.86485703  1
  Mo  Mo173  1  0.49797668  0.50957223  0.88040036  1
  Mo  Mo174  1  0.80843635  0.40737378  0.76246357  1
  Mo  Mo175  1  0.80899780  0.04199532  0.49285113  1
  Mo  Mo176  1  0.29857006  0.10033247  0.62266075  1
  Mo  Mo177  1  0.29645155  0.50409776  0.12459811  1
  Mo  Mo178  1  -0.00355819  0.58440456  0.51604314  1
  Mo  Mo179  1  0.40470281  0.79280596  0.25513672  1
  Mo  Mo180  1  0.89568137  0.89574571  0.86107286  1
  Mo  Mo181  1  0.70223001  0.51059060  0.63495741  1
  Mo  Mo182  1  0.28876289  0.29083485  0.38337764  1
  Mo  Mo183  1  0.80461125  0.21447146  0.50015102  1
  Mo  Mo184  1  0.50017698  0.90038217  0.87877879  1
  Mo  Mo185  1  0.89952539  0.29774934  0.12272009  1
  Mo  Mo186  1  0.39454878  0.40848884  0.01235156  1
  Mo  Mo187  1  0.48894446  0.70900237  0.36645005  1
  Mo  Mo188  1  0.59347668  0.41149689  0.00714265  1
  Mo  Mo189  1  -0.00733353  0.78497275  0.73621006  1
  Mo  Mo190  1  0.79894296  0.39030773  0.49947177  1
  Mo  Mo191  1  0.29038185  0.70911669  0.37748999  1
  Mo  Mo192  1  0.61447050  0.80515841  0.25084570  1
  Mo  Mo193  1  0.79523763  0.40216503  0.22997909  1
  Mo  Mo194  1  0.91130243  0.10763070  0.37597258  1
  Mo  Mo195  1  0.00513809  0.19039476  0.75255007  1
  Mo  Mo196  1  0.00073439  0.59762594  0.24619113  1
  Mo  Mo197  1  0.20607036  0.39414416  0.74495702  1
  Mo  Mo198  1  0.08771964  0.49702785  0.62480606  1
  Mo  Mo199  1  0.10583934  0.29756301  0.87860099  1
