# generated using pymatgen
data_HfZrTaTiMo
_symmetry_space_group_name_H-M   'P 1'
_cell_length_a   15.20177744
_cell_length_b   15.22387209
_cell_length_c   16.83250800
_cell_angle_alpha   89.94754965
_cell_angle_beta   90.01122850
_cell_angle_gamma   89.95277876
_symmetry_Int_Tables_number   1
_chemical_formula_structural   HfZrTaTiMo
_chemical_formula_sum   'Hf40 Zr40 Ta40 Ti40 Mo40'
_cell_volume   3895.54286816
_cell_formula_units_Z   40
loop_
 _symmetry_equiv_pos_site_id
 _symmetry_equiv_pos_as_xyz
  1  'x, y, z'
loop_
 _atom_site_type_symbol
 _atom_site_label
 _atom_site_symmetry_multiplicity
 _atom_site_fract_x
 _atom_site_fract_y
 _atom_site_fract_z
 _atom_site_occupancy
  Hf  Hf0  1  0.39972879  0.39241070  0.74923200  1
  Hf  Hf1  1  0.89341401  0.91417212  0.11482528  1
  Hf  Hf2  1  0.59463991  0.39913853  0.75533192  1
  Hf  Hf3  1  0.51337879  0.28814391  0.60831643  1
  Hf  Hf4  1  0.88925167  0.31296091  0.38233417  1
  Hf  Hf5  1  0.29866225  0.10579891  0.35779658  1
  Hf  Hf6  1  0.49637654  0.67810863  0.86565420  1
  Hf  Hf7  1  0.30429989  0.50223796  0.87878668  1
  Hf  Hf8  1  0.19881945  -0.00984627  0.24612066  1
  Hf  Hf9  1  0.29081605  0.71001481  0.88058964  1
  Hf  Hf10  1  0.00162995  0.59752075  0.75584615  1
  Hf  Hf11  1  0.50763832  0.49367359  0.60344550  1
  Hf  Hf12  1  0.60092145  0.79590989  0.50664439  1
  Hf  Hf13  1  0.20078608  0.19189071  0.75249233  1
  Hf  Hf14  1  0.10117840  0.89564899  0.88576868  1
  Hf  Hf15  1  0.28267750  0.30077398  0.62325689  1
  Hf  Hf16  1  0.39024126  0.80351771  0.75043569  1
  Hf  Hf17  1  0.19895420  0.59782804  0.75253481  1
  Hf  Hf18  1  0.81173468  0.21909782  0.00763315  1
  Hf  Hf19  1  0.39930812  0.79038459  0.00968740  1
  Hf  Hf20  1  0.20321214  -0.00611114  0.76060616  1
  Hf  Hf21  1  0.51824828  0.50476038  0.39912003  1
  Hf  Hf22  1  0.50518485  0.29012456  0.38708173  1
  Hf  Hf23  1  0.39141061  0.18512734  0.51139807  1
  Hf  Hf24  1  0.89399376  0.90071510  0.37060942  1
  Hf  Hf25  1  0.80586824  0.01242473  0.75108433  1
  Hf  Hf26  1  0.09190840  0.09535902  0.62691227  1
  Hf  Hf27  1  0.08843068  0.28725360  0.36150701  1
  Hf  Hf28  1  -0.00562617  0.58974084  0.24206666  1
  Hf  Hf29  1  0.89627949  0.49571455  0.62580707  1
  Hf  Hf30  1  0.50971426  0.09002621  0.12525587  1
  Hf  Hf31  1  0.78926478  0.81043923  0.24619892  1
  Hf  Hf32  1  0.30767629  0.88528037  0.37356425  1
  Hf  Hf33  1  0.29889163  0.49788700  0.61389958  1
  Hf  Hf34  1  0.39983234  0.41218905  0.26444305  1
  Hf  Hf35  1  0.59921922  0.00867107  0.76169740  1
  Hf  Hf36  1  0.69611860  0.90378129  0.10304824  1
  Hf  Hf37  1  0.90507184  0.11186496  0.36951346  1
  Hf  Hf38  1  0.18606815  0.19942732  0.49891484  1
  Hf  Hf39  1  0.49489658  0.67652802  0.12858902  1
  Zr  Zr40  1  0.70345427  0.32673382  0.11454751  1
  Zr  Zr41  1  0.71119604  0.30176135  0.87006626  1
  Zr  Zr42  1  0.19513207  0.78599174  0.49659944  1
  Zr  Zr43  1  0.79641556  0.01471591  0.50065136  1
  Zr  Zr44  1  0.79805169  0.80756679  0.50192366  1
  Zr  Zr45  1  0.40344814  0.39441851  -0.00719872  1
  Zr  Zr46  1  0.69416224  0.70127241  0.37016387  1
  Zr  Zr47  1  -0.00605285  0.39204837  0.00769025  1
  Zr  Zr48  1  0.40589363  -0.00410161  0.50098817  1
  Zr  Zr49  1  0.78600116  0.61193535  -0.00554669  1
  Zr  Zr50  1  0.49564803  0.89554620  0.87666238  1
  Zr  Zr51  1  0.29521925  0.90644241  0.62172421  1
  Zr  Zr52  1  0.61690212  0.39633661  0.26876439  1
  Zr  Zr53  1  0.20386384  0.20566273  0.00327314  1
  Zr  Zr54  1  0.60767457  0.77407390  0.00586921  1
  Zr  Zr55  1  0.71080212  0.90428432  0.88850281  1
  Zr  Zr56  1  0.70292068  0.51076661  0.62616110  1
  Zr  Zr57  1  0.61934134  -0.00944893  0.25110648  1
  Zr  Zr58  1  0.71094132  0.31068879  0.62321905  1
  Zr  Zr59  1  0.10361547  0.48792382  0.62501823  1
  Zr  Zr60  1  0.00460029  0.18364800  0.01426299  1
  Zr  Zr61  1  0.90509844  0.91166072  0.62614295  1
  Zr  Zr62  1  0.50969523  0.90592204  0.63308458  1
  Zr  Zr63  1  0.69505645  0.70747818  0.84696129  1
  Zr  Zr64  1  0.49857040  0.28675776  0.13770964  1
  Zr  Zr65  1  0.48110336  0.69587358  0.36389935  1
  Zr  Zr66  1  0.41174976  -0.02537370  0.23958089  1
  Zr  Zr67  1  0.30382491  0.51943384  0.38383920  1
  Zr  Zr68  1  0.09533719  0.88731976  0.62480365  1
  Zr  Zr69  1  0.51331819  0.48702525  0.12761333  1
  Zr  Zr70  1  0.19928934  0.60163011  0.01077085  1
  Zr  Zr71  1  0.21336452  0.60052710  0.24149174  1
  Zr  Zr72  1  0.30497904  0.10994167  0.13720058  1
  Zr  Zr73  1  0.60688687  0.41573195  -0.02213229  1
  Zr  Zr74  1  -0.00755215  0.79351876  0.00499218  1
  Zr  Zr75  1  0.50405853  0.09256583  0.36770243  1
  Zr  Zr76  1  0.29305008  0.31516031  0.13857726  1
  Zr  Zr77  1  0.80430754  0.22192009  0.23961565  1
  Zr  Zr78  1  0.10148600  0.29291263  0.87728265  1
  Zr  Zr79  1  0.09165171  0.88645873  0.36763765  1
  Ta  Ta80  1  0.29204472  0.89704431  0.10939337  1
  Ta  Ta81  1  -0.00043035  0.38984363  0.75264198  1
  Ta  Ta82  1  0.61610705  0.19261851  0.25570627  1
  Ta  Ta83  1  0.70851554  0.10408645  0.10947957  1
  Ta  Ta84  1  0.80470642  0.42921199  0.25399148  1
  Ta  Ta85  1  0.40166715  0.79423228  0.50757971  1
  Ta  Ta86  1  0.09367163  0.69462222  0.88383117  1
  Ta  Ta87  1  -0.00889805  0.59346710  0.00255161  1
  Ta  Ta88  1  0.51371331  0.88629133  0.37658987  1
  Ta  Ta89  1  0.09017494  0.70001678  0.12714914  1
  Ta  Ta90  1  0.58514097  0.80145009  0.23279259  1
  Ta  Ta91  1  0.50502728  0.69518502  0.63568481  1
  Ta  Ta92  1  0.80618233  0.20133962  0.74647961  1
  Ta  Ta93  1  0.19178259  0.39962722  0.47929062  1
  Ta  Ta94  1  0.90571299  0.70041422  0.36333456  1
  Ta  Ta95  1  0.18559136  0.00837729  0.00518172  1
  Ta  Ta96  1  0.40418105  0.18960594  0.73849338  1
  Ta  Ta97  1  0.68725702  0.10807705  0.62646423  1
  Ta  Ta98  1  0.18762301  0.40922393  0.26496250  1
  Ta  Ta99  1  0.00507750  0.00194543  0.49287453  1
  Ta  Ta100  1  0.00621662  0.39544334  0.49944367  1
  Ta  Ta101  1  0.39737956  0.61461657  0.50965062  1
  Ta  Ta102  1  0.90696768  0.10235850  0.88028822  1
  Ta  Ta103  1  0.91046218  0.29512156  0.62453428  1
  Ta  Ta104  1  -0.00986864  0.39645216  0.24334238  1
  Ta  Ta105  1  0.29332889  0.69815422  0.62848911  1
  Ta  Ta106  1  -0.00630000  0.78513899  0.49824021  1
  Ta  Ta107  1  -0.00975779  -0.00399846  0.24440211  1
  Ta  Ta108  1  0.09668440  0.09724657  0.14242868  1
  Ta  Ta109  1  0.40647347  0.19348779  -0.00154038  1
  Ta  Ta110  1  0.31256384  0.28785125  0.87067152  1
  Ta  Ta111  1  0.70380360  0.70499839  0.64225963  1
  Ta  Ta112  1  0.19791810  0.00613893  0.49103934  1
  Ta  Ta113  1  0.90597496  0.70124334  0.63301520  1
  Ta  Ta114  1  0.70491178  0.51343378  0.85101544  1
  Ta  Ta115  1  0.49069466  0.10595907  0.87866545  1
  Ta  Ta116  1  0.80828033  0.61480084  0.50183482  1
  Ta  Ta117  1  0.89605085  0.70413709  0.87114464  1
  Ta  Ta118  1  0.00425872  0.60125466  0.49942279  1
  Ta  Ta119  1  0.19513559  0.79468148  0.23859730  1
  Ti  Ti120  1  0.19931463  0.40027626  0.00068827  1
  Ti  Ti121  1  0.71707596  0.49827047  0.39895729  1
  Ti  Ti122  1  0.90072566  0.90669676  0.88976222  1
  Ti  Ti123  1  0.40215828  0.58979051  0.73860291  1
  Ti  Ti124  1  0.19033434  0.60049672  0.49734114  1
  Ti  Ti125  1  0.70221708  0.52463736  0.12343234  1
  Ti  Ti126  1  0.29928881  0.09433435  0.88524825  1
  Ti  Ti127  1  0.38419075  0.78282810  0.23304415  1
  Ti  Ti128  1  0.70665064  0.10453748  0.88986141  1
  Ti  Ti129  1  0.29733267  0.29487128  0.36572050  1
  Ti  Ti130  1  0.09318846  0.89816448  0.12192442  1
  Ti  Ti131  1  0.31907511  0.51472983  0.12159399  1
  Ti  Ti132  1  0.58675810  0.00539128  -0.00630437  1
  Ti  Ti133  1  0.00167618  0.79898223  0.75779163  1
  Ti  Ti134  1  0.61078788  0.59585716  0.25432273  1
  Ti  Ti135  1  0.89424758  0.49786373  0.87258501  1
  Ti  Ti136  1  0.09776812  0.29540389  0.14350502  1
  Ti  Ti137  1  0.09553434  0.49613483  0.88200403  1
  Ti  Ti138  1  0.69958823  0.90428595  0.63491892  1
  Ti  Ti139  1  0.90662710  0.50932157  0.38303971  1
  Ti  Ti140  1  0.79213714  0.20768333  0.50234845  1
  Ti  Ti141  1  0.10197784  0.49079645  0.12446316  1
  Ti  Ti142  1  0.09806812  0.68665113  0.36233903  1
  Ti  Ti143  1  0.90110915  0.30303178  0.86836362  1
  Ti  Ti144  1  -0.00203629  0.19134901  0.74935475  1
  Ti  Ti145  1  0.59729924  0.20654946  -0.00667996  1
  Ti  Ti146  1  0.29995697  0.90679743  0.89997356  1
  Ti  Ti147  1  0.79699720  0.01942566  0.25111762  1
  Ti  Ti148  1  0.09734201  0.09540785  0.35896722  1
  Ti  Ti149  1  0.60871071  0.00359726  0.49395222  1
  Ti  Ti150  1  0.00152563  0.00092863  0.76026241  1
  Ti  Ti151  1  0.19598874  0.39604416  0.75751275  1
  Ti  Ti152  1  0.39500697  0.01050853  0.74846743  1
  Ti  Ti153  1  0.88390796  0.69984975  0.13160022  1
  Ti  Ti154  1  0.81043308  0.81040070  0.74827925  1
  Ti  Ti155  1  0.88837819  0.49895246  0.11810555  1
  Ti  Ti156  1  0.39034233  0.39370183  0.49195179  1
  Ti  Ti157  1  0.59796278  0.19851983  0.75695743  1
  Ti  Ti158  1  0.18878361  0.79096474  0.74803754  1
  Ti  Ti159  1  -0.00792869  0.19439465  0.50688735  1
  Mo  Mo160  1  0.29519042  0.09634344  0.62629890  1
  Mo  Mo161  1  0.80528780  0.01782986  -0.00611886  1
  Mo  Mo162  1  0.61104317  0.18381183  0.49508123  1
  Mo  Mo163  1  0.81429327  0.39982254  0.75486740  1
  Mo  Mo164  1  0.49707036  0.89437966  0.11599261  1
  Mo  Mo165  1  0.70343046  0.30483971  0.38538218  1
  Mo  Mo166  1  0.69868100  0.69640454  0.13796050  1
  Mo  Mo167  1  0.81369422  0.40800200  0.49964831  1
  Mo  Mo168  1  0.29456939  0.70066313  0.12000247  1
  Mo  Mo169  1  0.80318446  0.79918710  -0.00166874  1
  Mo  Mo170  1  -0.00168878  0.79483019  0.23690240  1
  Mo  Mo171  1  0.09002799  0.49846176  0.37591506  1
  Mo  Mo172  1  0.81074939  0.60624597  0.75095312  1
  Mo  Mo173  1  0.40837621  0.59067091  -0.00435869  1
  Mo  Mo174  1  0.59402143  0.59489111  -0.00649562  1
  Mo  Mo175  1  0.90351734  0.31459282  0.12930148  1
  Mo  Mo176  1  0.70572100  0.11159004  0.37693400  1
  Mo  Mo177  1  0.09169479  0.29814264  0.62599509  1
  Mo  Mo178  1  0.19807761  0.20561656  0.25192922  1
  Mo  Mo179  1  0.39527262  0.00263453  0.00384147  1
  Mo  Mo180  1  0.79963077  0.60030791  0.25435813  1
  Mo  Mo181  1  0.00297512  0.00322555  0.00362735  1
  Mo  Mo182  1  0.09649364  0.09109671  0.87115125  1
  Mo  Mo183  1  0.89580682  0.11144892  0.62480685  1
  Mo  Mo184  1  0.61529711  0.39291595  0.49142086  1
  Mo  Mo185  1  0.60761102  0.61000561  0.50615463  1
  Mo  Mo186  1  0.09304370  0.69409982  0.62623145  1
  Mo  Mo187  1  0.49785487  0.28786168  0.86927891  1
  Mo  Mo188  1  0.69369301  0.90344905  0.37278213  1
  Mo  Mo189  1  0.28977927  0.70679456  0.37516555  1
  Mo  Mo190  1  0.59344120  0.59581261  0.73730693  1
  Mo  Mo191  1  0.50544379  0.09916089  0.63142358  1
  Mo  Mo192  1  0.60070230  0.80502245  0.74413665  1
  Mo  Mo193  1  0.80949735  0.41886351  -0.01105323  1
  Mo  Mo194  1  0.40747230  0.59695929  0.25122751  1
  Mo  Mo195  1  0.89776662  0.10227075  0.13330070  1
  Mo  Mo196  1  0.19350502  0.80172152  0.01094442  1
  Mo  Mo197  1  0.41138720  0.20551464  0.25437372  1
  Mo  Mo198  1  0.49904077  0.49876947  0.86458626  1
  Mo  Mo199  1  -0.00381352  0.19678787  0.23942147  1
