# generated using pymatgen
data_HfZrTaTiMo
_symmetry_space_group_name_H-M   'P 1'
_cell_length_a   15.21292236
_cell_length_b   15.21802069
_cell_length_c   16.85083747
_cell_angle_alpha   90.01770242
_cell_angle_beta   89.94852208
_cell_angle_gamma   90.07389660
_symmetry_Int_Tables_number   1
_chemical_formula_structural   HfZrTaTiMo
_chemical_formula_sum   'Hf40 Zr40 Ta40 Ti40 Mo40'
_cell_volume   3901.14193643
_cell_formula_units_Z   40
loop_
 _symmetry_equiv_pos_site_id
 _symmetry_equiv_pos_as_xyz
  1  'x, y, z'
loop_
 _atom_site_type_symbol
 _atom_site_label
 _atom_site_symmetry_multiplicity
 _atom_site_fract_x
 _atom_site_fract_y
 _atom_site_fract_z
 _atom_site_occupancy
  Hf  Hf0  1  0.88733712  0.29537700  0.12232204  1
  Hf  Hf1  1  0.29788352  0.29568706  0.14025982  1
  Hf  Hf2  1  -0.01646819  0.38665196  0.73681737  1
  Hf  Hf3  1  0.10545537  0.30953208  0.38428944  1
  Hf  Hf4  1  0.79914897  0.01808893  0.75539755  1
  Hf  Hf5  1  0.09121619  0.49942940  0.85543505  1
  Hf  Hf6  1  0.79598483  0.20357941  0.26130127  1
  Hf  Hf7  1  0.79786061  0.59539144  0.26151652  1
  Hf  Hf8  1  0.29043909  0.50030777  0.36193643  1
  Hf  Hf9  1  0.00783321  0.20567510  0.01032589  1
  Hf  Hf10  1  0.29999661  0.09619555  0.61662241  1
  Hf  Hf11  1  0.48204887  0.89760725  0.87806508  1
  Hf  Hf12  1  0.90165706  0.50007283  0.39694662  1
  Hf  Hf13  1  0.68974146  0.29907814  0.11002988  1
  Hf  Hf14  1  0.61672107  -0.00441155  0.49003456  1
  Hf  Hf15  1  -0.00027539  0.20058270  0.25140424  1
  Hf  Hf16  1  0.29864834  0.10557625  0.37710349  1
  Hf  Hf17  1  0.01358732  0.79870270  0.23813818  1
  Hf  Hf18  1  0.71705943  0.11321619  0.61945561  1
  Hf  Hf19  1  0.40863446  0.39840887  0.24934321  1
  Hf  Hf20  1  0.70483993  0.70832740  0.85549913  1
  Hf  Hf21  1  0.89119894  0.50083480  0.86825679  1
  Hf  Hf22  1  0.72358749  0.90185941  0.35423061  1
  Hf  Hf23  1  -0.00054011  0.40936154  0.26107096  1
  Hf  Hf24  1  0.89690974  0.90054694  0.64128714  1
  Hf  Hf25  1  0.38955795  0.58797214  0.49675172  1
  Hf  Hf26  1  0.18921314  -0.00184046  0.50119714  1
  Hf  Hf27  1  0.68227187  0.70369939  0.37791284  1
  Hf  Hf28  1  0.61835308  0.20625135  0.74636641  1
  Hf  Hf29  1  -0.00696568  0.79250814  0.00506447  1
  Hf  Hf30  1  0.10219180  0.32376153  0.13409340  1
  Hf  Hf31  1  0.40539842  -0.00153435  0.48705189  1
  Hf  Hf32  1  0.00076678  0.60332286  0.51707833  1
  Hf  Hf33  1  0.59685613  0.40489197  0.75387666  1
  Hf  Hf34  1  0.71840409  0.10145525  0.12209166  1
  Hf  Hf35  1  0.08715551  0.70872788  0.85884370  1
  Hf  Hf36  1  0.20572535  0.60236558  0.74880040  1
  Hf  Hf37  1  0.90440441  0.49242603  0.12509611  1
  Hf  Hf38  1  0.47783322  0.69348861  0.62397149  1
  Hf  Hf39  1  0.08986651  0.89809184  0.37753111  1
  Zr  Zr40  1  0.68496070  0.70600327  0.63241268  1
  Zr  Zr41  1  0.11327838  0.10353670  0.87676291  1
  Zr  Zr42  1  0.39394268  -0.02360067  0.73712698  1
  Zr  Zr43  1  -0.00391183  0.00364059  0.23177771  1
  Zr  Zr44  1  0.10584368  0.90582435  0.87433253  1
  Zr  Zr45  1  0.68771040  0.90967414  0.86008912  1
  Zr  Zr46  1  0.51373432  0.09226584  0.86853120  1
  Zr  Zr47  1  0.19823674  -0.00262777  0.24492681  1
  Zr  Zr48  1  0.40294404  -0.00732112  0.26036265  1
  Zr  Zr49  1  0.59629769  0.60102135  -0.00036175  1
  Zr  Zr50  1  0.10049230  0.30000769  0.61930962  1
  Zr  Zr51  1  0.39822277  0.59477303  -0.00844007  1
  Zr  Zr52  1  0.79434564  0.80990932  0.50705663  1
  Zr  Zr53  1  0.20806100  0.41345021  0.50351708  1
  Zr  Zr54  1  0.38873967  0.38942279  0.00134891  1
  Zr  Zr55  1  0.10322223  0.29998158  0.86292840  1
  Zr  Zr56  1  0.29582481  0.72210218  0.12007789  1
  Zr  Zr57  1  0.51246611  0.87512894  0.37359146  1
  Zr  Zr58  1  0.80313115  -0.01244534  -0.00803365  1
  Zr  Zr59  1  0.22340837  0.81216739  0.74768568  1
  Zr  Zr60  1  0.80104436  0.62264085  -0.00722194  1
  Zr  Zr61  1  0.51280592  0.09509520  0.62403170  1
  Zr  Zr62  1  0.50240600  0.88611169  0.60819999  1
  Zr  Zr63  1  0.18789080  0.40821606  -0.00308720  1
  Zr  Zr64  1  0.70523223  0.50050732  0.12037250  1
  Zr  Zr65  1  0.60550966  0.38953347  0.25505807  1
  Zr  Zr66  1  0.19508275  0.61165134  -0.01224773  1
  Zr  Zr67  1  0.59286901  0.59822110  0.24411690  1
  Zr  Zr68  1  0.31363053  0.09561342  0.87438372  1
  Zr  Zr69  1  0.40306238  0.59249599  0.76602832  1
  Zr  Zr70  1  0.49655249  0.87590685  0.13761835  1
  Zr  Zr71  1  0.90053062  0.71650206  0.37846277  1
  Zr  Zr72  1  0.89917178  0.69010934  0.13274977  1
  Zr  Zr73  1  0.49461501  0.29060899  0.88346007  1
  Zr  Zr74  1  0.91361148  0.10096707  0.87904989  1
  Zr  Zr75  1  0.27736949  0.50357661  0.13765993  1
  Zr  Zr76  1  0.00892558  -0.00487247  0.02162378  1
  Zr  Zr77  1  0.40128970  0.62024117  0.24802005  1
  Zr  Zr78  1  0.59526345  0.00242965  0.01612022  1
  Zr  Zr79  1  0.86712114  0.89397906  0.13478825  1
  Ta  Ta80  1  0.00121723  0.18678619  0.49596831  1
  Ta  Ta81  1  0.00469006  0.00839292  0.74375680  1
  Ta  Ta82  1  0.30629761  0.49644886  0.63274917  1
  Ta  Ta83  1  0.60997450  0.79958683  -0.00019476  1
  Ta  Ta84  1  0.50267463  0.70548615  0.87355537  1
  Ta  Ta85  1  0.70668881  0.31787761  0.61114886  1
  Ta  Ta86  1  0.20415519  0.20066477  0.49871208  1
  Ta  Ta87  1  0.69615880  0.72367696  0.13394005  1
  Ta  Ta88  1  0.22159261  0.20566771  0.00212112  1
  Ta  Ta89  1  0.00383441  0.59394962  -0.00345302  1
  Ta  Ta90  1  0.31082983  0.29923463  0.61915861  1
  Ta  Ta91  1  0.79733886  0.39724447  0.27216456  1
  Ta  Ta92  1  0.59241068  0.59717242  0.50057350  1
  Ta  Ta93  1  0.89451245  0.28737529  0.60293134  1
  Ta  Ta94  1  0.89808043  0.08436095  0.37505055  1
  Ta  Ta95  1  0.60499367  0.00532558  0.24542761  1
  Ta  Ta96  1  0.89467318  0.69861564  0.63470630  1
  Ta  Ta97  1  -0.00773490  -0.00149785  0.50924201  1
  Ta  Ta98  1  0.69366774  0.91104428  0.64028040  1
  Ta  Ta99  1  0.10094956  0.71072808  0.63489871  1
  Ta  Ta100  1  0.89996233  0.88195921  0.85772950  1
  Ta  Ta101  1  0.39626226  0.38684036  0.74963250  1
  Ta  Ta102  1  0.90319717  0.29665244  0.39259456  1
  Ta  Ta103  1  0.50438612  0.29330939  0.38367987  1
  Ta  Ta104  1  0.79148086  0.58475407  0.73488426  1
  Ta  Ta105  1  0.29125250  0.70516653  0.37964567  1
  Ta  Ta106  1  0.78351216  0.59379686  0.50928205  1
  Ta  Ta107  1  0.00379932  0.80578873  0.51345633  1
  Ta  Ta108  1  0.41405489  0.19516349  0.26097974  1
  Ta  Ta109  1  0.50617203  0.30109851  0.61583024  1
  Ta  Ta110  1  0.12050227  0.11537481  0.12462938  1
  Ta  Ta111  1  0.40587230  0.19921273  0.74008644  1
  Ta  Ta112  1  0.89386090  0.29755368  0.87971708  1
  Ta  Ta113  1  0.21177680  0.20773814  0.74231693  1
  Ta  Ta114  1  0.10317357  0.90458157  0.63072240  1
  Ta  Ta115  1  0.50383107  0.49926585  0.37842908  1
  Ta  Ta116  1  0.21524694  -0.00348386  0.01606966  1
  Ta  Ta117  1  0.88285296  0.48178684  0.61136587  1
  Ta  Ta118  1  0.70802026  0.12070191  0.88638279  1
  Ta  Ta119  1  0.31812944  0.10584337  0.13204076  1
  Ti  Ti120  1  0.58057296  0.80773692  0.74890431  1
  Ti  Ti121  1  0.19738864  0.61463161  0.51426567  1
  Ti  Ti122  1  0.40654634  0.20033445  0.49461276  1
  Ti  Ti123  1  0.79718117  0.19713176  0.48695257  1
  Ti  Ti124  1  0.30512731  0.30316404  0.37367529  1
  Ti  Ti125  1  0.30319251  0.72415547  0.88127514  1
  Ti  Ti126  1  0.40160281  0.00314987  0.01676734  1
  Ti  Ti127  1  0.61017794  0.40627802  0.49128516  1
  Ti  Ti128  1  0.69699278  0.10303709  0.37189687  1
  Ti  Ti129  1  0.30126169  0.86984544  0.59934253  1
  Ti  Ti130  1  0.10146956  0.70327938  0.38424513  1
  Ti  Ti131  1  -0.00969002  0.59432552  0.73171163  1
  Ti  Ti132  1  0.09399933  0.10609488  0.62852930  1
  Ti  Ti133  1  0.20258290  0.00756040  0.74290565  1
  Ti  Ti134  1  0.58913059  0.40331947  -0.00669368  1
  Ti  Ti135  1  0.20116575  0.20705521  0.25974170  1
  Ti  Ti136  1  0.49506961  0.27609715  0.11443106  1
  Ti  Ti137  1  -0.00408803  0.40421855  -0.00478294  1
  Ti  Ti138  1  0.18282862  0.61141046  0.24974498  1
  Ti  Ti139  1  0.81035420  0.00329075  0.50215826  1
  Ti  Ti140  1  0.10014625  0.51040331  0.38550871  1
  Ti  Ti141  1  0.60291959  0.20244855  0.49359994  1
  Ti  Ti142  1  0.40903776  0.39481341  0.49770710  1
  Ti  Ti143  1  0.79876434  0.40398761  -0.00650629  1
  Ti  Ti144  1  0.78882906  0.39523466  0.74911337  1
  Ti  Ti145  1  0.82115801  0.21356984  0.74709398  1
  Ti  Ti146  1  0.29447638  0.88788350  0.38591130  1
  Ti  Ti147  1  0.59714169  0.19621450  0.25438766  1
  Ti  Ti148  1  0.29512139  0.47346296  0.86384582  1
  Ti  Ti149  1  0.59522019  0.59411277  0.75238682  1
  Ti  Ti150  1  0.00386230  0.60240609  0.25655280  1
  Ti  Ti151  1  0.50480215  0.48963034  0.62231948  1
  Ti  Ti152  1  0.39560610  0.80702656  0.00245819  1
  Ti  Ti153  1  0.70217200  0.30357282  0.88848060  1
  Ti  Ti154  1  0.09542784  0.10205910  0.37599820  1
  Ti  Ti155  1  0.89820095  0.69898229  0.84985643  1
  Ti  Ti156  1  0.69334987  0.50109330  0.87558468  1
  Ti  Ti157  1  0.20888211  0.80285245  0.24903169  1
  Ti  Ti158  1  0.10129226  0.49824065  0.62965119  1
  Ti  Ti159  1  0.49605203  0.49529295  0.12119754  1
  Mo  Mo160  1  0.50196954  0.69713863  0.11422380  1
  Mo  Mo161  1  0.69837818  0.29587080  0.38631448  1
  Mo  Mo162  1  -0.00289171  0.19536034  0.74240192  1
  Mo  Mo163  1  0.50724965  0.10350003  0.13193129  1
  Mo  Mo164  1  0.80364135  0.20620276  -0.00517404  1
  Mo  Mo165  1  0.79613821  0.79877034  0.74333499  1
  Mo  Mo166  1  0.51041343  0.10113040  0.37793127  1
  Mo  Mo167  1  0.90581165  0.10433449  0.62336290  1
  Mo  Mo168  1  0.79282553  0.39504293  0.48622930  1
  Mo  Mo169  1  0.19691460  0.80962024  -0.00448360  1
  Mo  Mo170  1  0.39042516  0.79575830  0.26360483  1
  Mo  Mo171  1  0.60471118  0.79268113  0.50613973  1
  Mo  Mo172  1  0.90864289  0.10540084  0.12513712  1
  Mo  Mo173  1  0.10102883  0.68970229  0.12456511  1
  Mo  Mo174  1  0.19467418  0.40620229  0.26277789  1
  Mo  Mo175  1  0.39893739  0.78960409  0.75260458  1
  Mo  Mo176  1  0.59276366  0.79181004  0.24902335  1
  Mo  Mo177  1  0.00346099  0.80051815  0.74141754  1
  Mo  Mo178  1  0.69593215  0.50106576  0.38084769  1
  Mo  Mo179  1  0.29446642  0.68998503  0.62056580  1
  Mo  Mo180  1  0.60188981  0.20276184  0.00086894  1
  Mo  Mo181  1  0.60316268  0.00542451  0.74632107  1
  Mo  Mo182  1  0.20748221  0.39970471  0.73751982  1
  Mo  Mo183  1  0.08750604  0.51933499  0.12969635  1
  Mo  Mo184  1  0.12127384  0.88476343  0.11814206  1
  Mo  Mo185  1  0.40217400  0.18725179  0.00737172  1
  Mo  Mo186  1  0.39350104  0.78626651  0.48843573  1
  Mo  Mo187  1  0.50134562  0.49723733  0.87289233  1
  Mo  Mo188  1  0.80201136  0.79346178  0.25648760  1
  Mo  Mo189  1  0.18896167  0.79486548  0.50218103  1
  Mo  Mo190  1  0.79380194  0.79899337  -0.00967123  1
  Mo  Mo191  1  0.69147078  0.49754001  0.62395093  1
  Mo  Mo192  1  0.29734376  0.28863177  0.86611749  1
  Mo  Mo193  1  0.80019382  0.01235806  0.25252762  1
  Mo  Mo194  1  0.30154978  0.90649612  0.12836990  1
  Mo  Mo195  1  0.69367510  0.89927265  0.14047013  1
  Mo  Mo196  1  0.49076475  0.69195862  0.38863154  1
  Mo  Mo197  1  0.29972576  0.90476065  0.88696872  1
  Mo  Mo198  1  0.91132090  0.90550145  0.37674641  1
  Mo  Mo199  1  -0.00080233  0.39934995  0.50884842  1
