# generated using pymatgen
data_HfZrTaTiMo
_symmetry_space_group_name_H-M   'P 1'
_cell_length_a   15.21699614
_cell_length_b   15.20750357
_cell_length_c   16.86263969
_cell_angle_alpha   90.05400083
_cell_angle_beta   90.05319978
_cell_angle_gamma   90.08463594
_symmetry_Int_Tables_number   1
_chemical_formula_structural   HfZrTaTiMo
_chemical_formula_sum   'Hf40 Zr40 Ta40 Ti40 Mo40'
_cell_volume   3902.21831893
_cell_formula_units_Z   40
loop_
 _symmetry_equiv_pos_site_id
 _symmetry_equiv_pos_as_xyz
  1  'x, y, z'
loop_
 _atom_site_type_symbol
 _atom_site_label
 _atom_site_symmetry_multiplicity
 _atom_site_fract_x
 _atom_site_fract_y
 _atom_site_fract_z
 _atom_site_occupancy
  Hf  Hf0  1  0.82756567  0.20275505  0.51526556  1
  Hf  Hf1  1  0.80410075  0.20641422  -0.00810937  1
  Hf  Hf2  1  0.58191137  0.38819275  0.26145797  1
  Hf  Hf3  1  0.02671907  0.20943537  -0.00638004  1
  Hf  Hf4  1  0.30878475  0.70874230  0.85768504  1
  Hf  Hf5  1  0.21825038  0.40491058  0.50896053  1
  Hf  Hf6  1  0.59921410  0.60543853  -0.00034597  1
  Hf  Hf7  1  -0.01042371  0.81442565  -0.00135960  1
  Hf  Hf8  1  0.69309863  0.89787813  0.38353549  1
  Hf  Hf9  1  0.69633916  0.48930099  0.39075238  1
  Hf  Hf10  1  0.10907612  0.50638326  0.12680013  1
  Hf  Hf11  1  0.91104436  0.28635984  0.37566435  1
  Hf  Hf12  1  0.90071066  0.50101908  0.13183766  1
  Hf  Hf13  1  0.40448134  0.40143584  -0.00041428  1
  Hf  Hf14  1  0.89308308  0.91556970  0.37524046  1
  Hf  Hf15  1  0.10992522  0.71741105  0.12850794  1
  Hf  Hf16  1  0.41938188  0.20427773  0.75969424  1
  Hf  Hf17  1  0.00795488  0.60777140  -0.00204057  1
  Hf  Hf18  1  0.19314712  0.80487720  0.50313169  1
  Hf  Hf19  1  0.19095305  0.80552950  0.73103705  1
  Hf  Hf20  1  0.19090890  0.20001028  0.23387574  1
  Hf  Hf21  1  0.70963174  0.09134860  0.12305680  1
  Hf  Hf22  1  0.80394211  0.39767589  0.25107125  1
  Hf  Hf23  1  0.69837222  0.29618087  0.12922679  1
  Hf  Hf24  1  0.41418367  0.60654434  0.73073872  1
  Hf  Hf25  1  0.59019510  0.00350937  0.50879572  1
  Hf  Hf26  1  0.00075933  0.03488744  0.25663101  1
  Hf  Hf27  1  0.90015087  0.70642500  0.13398038  1
  Hf  Hf28  1  0.09478740  0.91157357  0.37086194  1
  Hf  Hf29  1  0.47414113  0.69454078  0.13304817  1
  Hf  Hf30  1  0.57682990  0.77902265  0.72818111  1
  Hf  Hf31  1  0.69165869  0.10218873  0.86533922  1
  Hf  Hf32  1  0.28719687  0.87722600  0.12425091  1
  Hf  Hf33  1  0.00232284  0.61097174  0.25973802  1
  Hf  Hf34  1  0.61146636  0.56901709  0.73550154  1
  Hf  Hf35  1  0.80698395  -0.01922651  0.75586736  1
  Hf  Hf36  1  0.10677604  0.50115888  0.86898560  1
  Hf  Hf37  1  0.69689406  0.68497855  0.60166780  1
  Hf  Hf38  1  0.90200101  0.50702011  0.86390464  1
  Hf  Hf39  1  0.80155032  -0.01441846  -0.01456403  1
  Zr  Zr40  1  0.00364024  0.62026624  0.73748259  1
  Zr  Zr41  1  0.88954745  0.91325837  0.14075051  1
  Zr  Zr42  1  0.69828188  0.28424933  0.37611415  1
  Zr  Zr43  1  0.71046872  0.30792546  0.62127572  1
  Zr  Zr44  1  0.51441807  0.29932725  0.62677863  1
  Zr  Zr45  1  0.10663037  0.28235109  0.38736004  1
  Zr  Zr46  1  0.57918236  -0.01117301  0.74256994  1
  Zr  Zr47  1  0.67560942  0.87647599  0.86822932  1
  Zr  Zr48  1  0.80067243  0.59104219  0.00399509  1
  Zr  Zr49  1  0.90969769  0.49022093  0.38205593  1
  Zr  Zr50  1  0.77006197  0.78580917  -0.00348301  1
  Zr  Zr51  1  0.79844327  0.79318152  0.26491667  1
  Zr  Zr52  1  0.20769739  0.60175737  0.72790351  1
  Zr  Zr53  1  0.22027683  0.40113585  0.24171810  1
  Zr  Zr54  1  0.68301783  0.88865849  0.13401579  1
  Zr  Zr55  1  0.30589958  0.49818281  0.86808188  1
  Zr  Zr56  1  0.01165111  0.61256847  0.50377537  1
  Zr  Zr57  1  0.27858579  0.89947257  0.88124605  1
  Zr  Zr58  1  0.07961137  0.91130823  0.86403255  1
  Zr  Zr59  1  0.22242461  0.61019831  0.00021422  1
  Zr  Zr60  1  0.50788999  0.69681260  0.87241988  1
  Zr  Zr61  1  0.09969689  0.49477848  0.62360045  1
  Zr  Zr62  1  0.69783229  0.88994642  0.61589307  1
  Zr  Zr63  1  0.81977768  0.18648794  0.24372874  1
  Zr  Zr64  1  0.72111574  0.09288663  0.37509843  1
  Zr  Zr65  1  0.91615398  0.10024195  0.64115901  1
  Zr  Zr66  1  0.49869406  0.11717392  0.36858922  1
  Zr  Zr67  1  0.68403787  0.68437267  0.14236155  1
  Zr  Zr68  1  0.91270930  0.09599247  0.87133282  1
  Zr  Zr69  1  0.07981088  0.91021684  0.62223452  1
  Zr  Zr70  1  0.10483393  0.28710721  0.62604509  1
  Zr  Zr71  1  0.32099995  0.30561787  0.37589118  1
  Zr  Zr72  1  0.60874549  0.39446575  -0.00768359  1
  Zr  Zr73  1  0.31048969  0.09764314  0.88589860  1
  Zr  Zr74  1  0.89307762  0.71119079  0.86698304  1
  Zr  Zr75  1  0.88337814  0.50059437  0.62174094  1
  Zr  Zr76  1  0.59547903  -0.00200934  0.25101151  1
  Zr  Zr77  1  0.47972788  0.90182998  0.38205966  1
  Zr  Zr78  1  0.40557152  -0.01603247  0.01892737  1
  Zr  Zr79  1  0.11065744  0.49403277  0.37947948  1
  Ta  Ta80  1  0.01495634  0.20465625  0.76233436  1
  Ta  Ta81  1  0.49129705  0.09859720  0.62725400  1
  Ta  Ta82  1  0.00351109  0.40454517  -0.00215665  1
  Ta  Ta83  1  0.58785093  0.59347198  0.27530335  1
  Ta  Ta84  1  0.29130087  0.91095485  0.37601920  1
  Ta  Ta85  1  0.11954953  0.10235108  0.86760622  1
  Ta  Ta86  1  0.08907574  0.91033016  0.13608952  1
  Ta  Ta87  1  0.56234413  0.81078595  0.01076845  1
  Ta  Ta88  1  0.38228530  0.01506936  0.50391357  1
  Ta  Ta89  1  0.20190346  0.38683529  0.00965781  1
  Ta  Ta90  1  0.10885606  0.71262467  0.87523132  1
  Ta  Ta91  1  0.40240924  0.21296243  0.23637112  1
  Ta  Ta92  1  0.80197882  0.21315285  0.75556296  1
  Ta  Ta93  1  0.19375929  0.01402348  0.49797459  1
  Ta  Ta94  1  0.49514755  0.49755636  0.59766617  1
  Ta  Ta95  1  0.69940267  0.10283380  0.63891214  1
  Ta  Ta96  1  0.21275859  0.61126705  0.25912272  1
  Ta  Ta97  1  0.38924043  0.00132523  0.23819208  1
  Ta  Ta98  1  0.60055657  0.36877099  0.77543877  1
  Ta  Ta99  1  0.91561790  0.10778519  0.11180971  1
  Ta  Ta100  1  0.21484100  0.60866856  0.50734496  1
  Ta  Ta101  1  0.59478769  -0.00460240  0.00149927  1
  Ta  Ta102  1  0.01306878  0.38656277  0.24323741  1
  Ta  Ta103  1  0.39836382  0.59582115  0.27365405  1
  Ta  Ta104  1  0.79036604  0.41016389  0.75248041  1
  Ta  Ta105  1  0.47270030  0.89240887  0.87013645  1
  Ta  Ta106  1  0.47919965  0.48655806  0.39341443  1
  Ta  Ta107  1  0.79560067  0.59724091  0.27130770  1
  Ta  Ta108  1  0.32002270  0.51019307  0.12596359  1
  Ta  Ta109  1  0.89231843  0.71373315  0.61858255  1
  Ta  Ta110  1  0.69235661  0.69875032  0.38665338  1
  Ta  Ta111  1  0.80966221  0.60908628  0.48263571  1
  Ta  Ta112  1  0.59517076  0.19507925  -0.00163143  1
  Ta  Ta113  1  0.70280200  0.50109478  0.87403257  1
  Ta  Ta114  1  0.50460940  0.10339707  0.12859303  1
  Ta  Ta115  1  0.50738964  0.50268893  0.13150733  1
  Ta  Ta116  1  0.57696674  0.78587053  0.26757451  1
  Ta  Ta117  1  0.20204439  0.00396950  0.24157049  1
  Ta  Ta118  1  0.90840397  0.31097069  0.86819767  1
  Ta  Ta119  1  0.31452141  0.29995521  0.62972321  1
  Ti  Ti120  1  0.40258058  0.20211534  0.00614610  1
  Ti  Ti121  1  -0.01339580  0.37812691  0.51531116  1
  Ti  Ti122  1  0.38375961  0.79151772  0.26134713  1
  Ti  Ti123  1  0.91193386  0.30320432  0.11925770  1
  Ti  Ti124  1  0.18850601  0.00600704  0.01297280  1
  Ti  Ti125  1  0.47504613  0.89027167  0.61289584  1
  Ti  Ti126  1  0.21359127  0.39429934  0.74217134  1
  Ti  Ti127  1  0.40980386  0.40578583  0.74911274  1
  Ti  Ti128  1  0.50120617  0.49659416  0.87413741  1
  Ti  Ti129  1  0.49207718  0.69155662  0.58936617  1
  Ti  Ti130  1  0.09990935  0.70852818  0.37559215  1
  Ti  Ti131  1  -0.01482120  0.80345778  0.49382417  1
  Ti  Ti132  1  0.29180861  0.91906242  0.62096767  1
  Ti  Ti133  1  0.80707574  0.39950794  -0.00255477  1
  Ti  Ti134  1  0.31186106  0.71482570  0.61782132  1
  Ti  Ti135  1  0.21706404  0.19089824  0.50757779  1
  Ti  Ti136  1  0.50077440  0.09084675  0.87927751  1
  Ti  Ti137  1  0.11762107  0.30531419  0.86967826  1
  Ti  Ti138  1  0.49816723  0.30262805  0.12367846  1
  Ti  Ti139  1  0.69673302  0.49593612  0.13720052  1
  Ti  Ti140  1  0.00213465  0.00656395  0.00164060  1
  Ti  Ti141  1  0.37642446  0.77724158  0.00371234  1
  Ti  Ti142  1  0.21919822  0.19628409  0.75008218  1
  Ti  Ti143  1  -0.02042152  0.81641036  0.74422838  1
  Ti  Ti144  1  0.80115926  0.00750281  0.51024491  1
  Ti  Ti145  1  0.58723140  0.79598416  0.49233198  1
  Ti  Ti146  1  0.78522885  0.78122874  0.74680818  1
  Ti  Ti147  1  0.69180645  0.49195142  0.59338762  1
  Ti  Ti148  1  0.11758100  0.09521937  0.64022305  1
  Ti  Ti149  1  0.29610315  0.10346676  0.36609936  1
  Ti  Ti150  1  0.60780700  0.19005124  0.50602850  1
  Ti  Ti151  1  0.29776731  0.10773056  0.11716049  1
  Ti  Ti152  1  0.89050370  0.90022056  0.61367493  1
  Ti  Ti153  1  0.00037644  0.39747735  0.74580488  1
  Ti  Ti154  1  0.40896978  0.20556395  0.50419223  1
  Ti  Ti155  1  0.19649049  0.80303273  0.26187895  1
  Ti  Ti156  1  0.30740926  0.29917061  0.87665889  1
  Ti  Ti157  1  0.58781116  0.37976344  0.48687528  1
  Ti  Ti158  1  -0.00031439  0.02398844  0.49278180  1
  Ti  Ti159  1  0.38227909  -0.00234068  0.74345456  1
  Mo  Mo160  1  0.80356916  0.00215048  0.25073823  1
  Mo  Mo161  1  0.29387962  0.71138982  0.38038787  1
  Mo  Mo162  1  0.80168292  0.80150468  0.49331072  1
  Mo  Mo163  1  0.10187634  0.30565206  0.11637688  1
  Mo  Mo164  1  0.49884327  0.28521986  0.88451381  1
  Mo  Mo165  1  0.20149344  0.00875493  0.74789103  1
  Mo  Mo166  1  0.39819044  0.81158672  0.73432959  1
  Mo  Mo167  1  0.30454778  0.10870168  0.62663373  1
  Mo  Mo168  1  0.40536238  0.40841054  0.24273738  1
  Mo  Mo169  1  0.59632645  0.19711008  0.23521127  1
  Mo  Mo170  1  0.80472558  0.39587777  0.49948744  1
  Mo  Mo171  1  0.02242102  0.19082913  0.51349469  1
  Mo  Mo172  1  0.10405347  0.09780702  0.11590453  1
  Mo  Mo173  1  0.79233998  0.59970201  0.73944519  1
  Mo  Mo174  1  0.88761414  0.89695448  0.87256491  1
  Mo  Mo175  1  0.29408138  0.69167137  0.13669076  1
  Mo  Mo176  1  0.39894097  0.39305901  0.50799699  1
  Mo  Mo177  1  0.00906371  0.21146567  0.23767115  1
  Mo  Mo178  1  0.31082553  0.29987248  0.11829566  1
  Mo  Mo179  1  0.71246894  0.29816994  0.87894711  1
  Mo  Mo180  1  0.21421882  0.20297278  0.00020381  1
  Mo  Mo181  1  0.29751693  0.50723380  0.37831548  1
  Mo  Mo182  1  0.09185405  0.71129278  0.61484053  1
  Mo  Mo183  1  0.48761135  0.89244882  0.14110026  1
  Mo  Mo184  1  0.31145973  0.49870355  0.63094262  1
  Mo  Mo185  1  0.00301146  0.00555880  0.74974465  1
  Mo  Mo186  1  0.38552670  0.81003253  0.50209662  1
  Mo  Mo187  1  0.18558270  0.80256839  -0.00168092  1
  Mo  Mo188  1  0.11752232  0.10438043  0.37746395  1
  Mo  Mo189  1  0.49058521  0.69942919  0.38960787  1
  Mo  Mo190  1  0.90450233  0.70636302  0.37567799  1
  Mo  Mo191  1  0.49984648  0.29223620  0.37709917  1
  Mo  Mo192  1  0.69782028  0.68006517  0.85582420  1
  Mo  Mo193  1  0.60770713  0.18846727  0.75240849  1
  Mo  Mo194  1  0.91751901  0.10853147  0.38520412  1
  Mo  Mo195  1  0.40971531  0.59554299  -0.00109827  1
  Mo  Mo196  1  0.00962563  0.80785474  0.25740598  1
  Mo  Mo197  1  0.59344842  0.59363924  0.48247868  1
  Mo  Mo198  1  0.38691648  0.60054930  0.49130412  1
  Mo  Mo199  1  0.90728927  0.30340444  0.64894910  1
