# generated using pymatgen
data_HfZrTaTiMo
_symmetry_space_group_name_H-M   'P 1'
_cell_length_a   15.20951752
_cell_length_b   15.20703681
_cell_length_c   16.86948993
_cell_angle_alpha   89.99637235
_cell_angle_beta   89.92012009
_cell_angle_gamma   90.13271462
_symmetry_Int_Tables_number   1
_chemical_formula_structural   HfZrTaTiMo
_chemical_formula_sum   'Hf40 Zr40 Ta40 Ti40 Mo40'
_cell_volume   3901.75861416
_cell_formula_units_Z   40
loop_
 _symmetry_equiv_pos_site_id
 _symmetry_equiv_pos_as_xyz
  1  'x, y, z'
loop_
 _atom_site_type_symbol
 _atom_site_label
 _atom_site_symmetry_multiplicity
 _atom_site_fract_x
 _atom_site_fract_y
 _atom_site_fract_z
 _atom_site_occupancy
  Hf  Hf0  1  0.29986773  0.29464470  0.88101340  1
  Hf  Hf1  1  0.50382921  0.31307180  0.36937103  1
  Hf  Hf2  1  0.09985883  0.89169833  0.37710633  1
  Hf  Hf3  1  0.58880986  0.78741888  0.47082687  1
  Hf  Hf4  1  0.60926269  0.00316659  0.27192587  1
  Hf  Hf5  1  0.39224416  0.79412550  0.25852030  1
  Hf  Hf6  1  0.39513953  0.19956606  0.50635766  1
  Hf  Hf7  1  0.30584213  0.50863764  0.61689232  1
  Hf  Hf8  1  0.59570357  0.79575858  0.27738368  1
  Hf  Hf9  1  0.19191557  0.59293801  0.75085080  1
  Hf  Hf10  1  0.39757450  0.20680875  0.24319123  1
  Hf  Hf11  1  0.20415182  0.00123596  0.51696234  1
  Hf  Hf12  1  0.70290487  0.88842428  0.13730634  1
  Hf  Hf13  1  0.20120273  0.19562332  0.24885715  1
  Hf  Hf14  1  0.89929216  0.10668250  0.37359882  1
  Hf  Hf15  1  0.59851903  0.21083186  -0.00481086  1
  Hf  Hf16  1  0.20848955  0.01192765  0.74151688  1
  Hf  Hf17  1  0.60160766  -0.00596055  0.47814871  1
  Hf  Hf18  1  0.30539639  0.90543497  0.87062284  1
  Hf  Hf19  1  0.29506514  0.10051828  0.37764997  1
  Hf  Hf20  1  0.08664804  0.69008324  0.62785330  1
  Hf  Hf21  1  0.70247109  0.30158226  0.13429885  1
  Hf  Hf22  1  0.78520512  -0.00729331  -0.01124057  1
  Hf  Hf23  1  0.90274806  0.90188409  0.86680329  1
  Hf  Hf24  1  0.09924250  0.29864875  0.37457923  1
  Hf  Hf25  1  0.69292013  0.52528668  0.87661486  1
  Hf  Hf26  1  0.80145181  0.20872905  0.75943703  1
  Hf  Hf27  1  0.51403684  0.30237607  0.62282543  1
  Hf  Hf28  1  0.40908020  0.80212036  0.00368215  1
  Hf  Hf29  1  0.00289630  0.40617841  0.74119291  1
  Hf  Hf30  1  0.70015084  0.70085629  0.60498566  1
  Hf  Hf31  1  0.50270668  0.08952016  0.62089212  1
  Hf  Hf32  1  0.50070979  0.88187148  0.61739352  1
  Hf  Hf33  1  0.69447072  0.09240437  0.12375626  1
  Hf  Hf34  1  0.20293002  0.40424394  0.49704088  1
  Hf  Hf35  1  0.51269164  0.51154682  0.38458011  1
  Hf  Hf36  1  0.39591751  -0.00281418  0.24996203  1
  Hf  Hf37  1  0.51940379  0.69036865  0.88130006  1
  Hf  Hf38  1  0.61403633  0.40419234  0.74592747  1
  Hf  Hf39  1  0.79809040  0.01004481  0.49562973  1
  Zr  Zr40  1  0.88830801  0.48610465  0.87150651  1
  Zr  Zr41  1  0.29554249  0.30116209  0.11469386  1
  Zr  Zr42  1  0.50565769  0.90353604  0.12359904  1
  Zr  Zr43  1  0.10667639  0.09854652  0.11426498  1
  Zr  Zr44  1  0.68609692  0.09858846  0.87201364  1
  Zr  Zr45  1  0.08816986  0.30442270  0.13139454  1
  Zr  Zr46  1  -0.00301800  0.00034233  0.51096326  1
  Zr  Zr47  1  0.90712912  0.90146080  0.13323012  1
  Zr  Zr48  1  0.91106155  0.68452156  0.37019933  1
  Zr  Zr49  1  0.40099056  0.39362390  0.74528147  1
  Zr  Zr50  1  0.40956221  0.79312151  0.75233211  1
  Zr  Zr51  1  0.50036460  0.10958034  0.12331006  1
  Zr  Zr52  1  0.81340546  0.20007913  -0.01044389  1
  Zr  Zr53  1  0.90219635  0.31036760  0.37982297  1
  Zr  Zr54  1  0.09485625  0.09625673  0.37566239  1
  Zr  Zr55  1  0.09331977  0.11861052  0.86810030  1
  Zr  Zr56  1  0.19840217  0.80300031  -0.00557552  1
  Zr  Zr57  1  0.90318468  0.10427006  0.12677197  1
  Zr  Zr58  1  0.49764851  0.48619968  0.88239043  1
  Zr  Zr59  1  0.40234939  0.58988560  0.01159888  1
  Zr  Zr60  1  0.69737825  0.90461669  0.61592669  1
  Zr  Zr61  1  0.70201701  0.30559735  0.35932756  1
  Zr  Zr62  1  0.09565904  0.89673073  0.63597972  1
  Zr  Zr63  1  0.89221203  0.68558041  0.87736921  1
  Zr  Zr64  1  0.09963899  0.69629412  0.13400189  1
  Zr  Zr65  1  0.29550675  0.69974797  0.13019048  1
  Zr  Zr66  1  0.29701502  0.68891965  0.88199282  1
  Zr  Zr67  1  0.62590930  0.20316770  0.49809477  1
  Zr  Zr68  1  0.77388014  0.59799719  0.02707344  1
  Zr  Zr69  1  0.80655326  0.79506208  -0.00015077  1
  Zr  Zr70  1  0.40534291  0.59275916  0.74805006  1
  Zr  Zr71  1  0.78772484  0.80195823  0.75252863  1
  Zr  Zr72  1  0.00093141  0.00286182  -0.01064419  1
  Zr  Zr73  1  0.08352724  0.50720500  0.37938252  1
  Zr  Zr74  1  0.19298176  0.20113170  0.51251082  1
  Zr  Zr75  1  -0.01140444  0.58971446  0.01313762  1
  Zr  Zr76  1  0.50061370  0.11342715  0.37321118  1
  Zr  Zr77  1  0.79988673  0.59995379  0.73474431  1
  Zr  Zr78  1  0.30533332  0.52496706  0.37284426  1
  Zr  Zr79  1  0.39848043  0.41978721  0.24316846  1
  Ta  Ta80  1  -0.00702390  0.78634311  0.74935976  1
  Ta  Ta81  1  0.39469681  0.18905090  0.74630158  1
  Ta  Ta82  1  0.79078693  0.59206865  0.24774389  1
  Ta  Ta83  1  0.81342624  0.39843613  0.01485077  1
  Ta  Ta84  1  0.92209659  0.29447870  0.86747236  1
  Ta  Ta85  1  0.09092092  0.69594962  0.87379409  1
  Ta  Ta86  1  0.09191764  0.49814806  0.88001333  1
  Ta  Ta87  1  0.20362580  -0.01261816  0.24620855  1
  Ta  Ta88  1  -0.00837156  0.57892033  0.24131737  1
  Ta  Ta89  1  0.10106513  0.89821056  0.86158470  1
  Ta  Ta90  1  0.28870254  0.49069451  0.88607952  1
  Ta  Ta91  1  0.00243087  0.79850193  0.00044480  1
  Ta  Ta92  1  0.59980770  0.60192681  0.25367864  1
  Ta  Ta93  1  0.11332569  0.89904374  0.12337711  1
  Ta  Ta94  1  0.90653792  0.51342809  0.61943292  1
  Ta  Ta95  1  0.88997028  0.30619793  0.62702370  1
  Ta  Ta96  1  0.89563573  0.89042631  0.62703693  1
  Ta  Ta97  1  0.61642591  0.79622080  -0.00108888  1
  Ta  Ta98  1  0.79654022  0.19382456  0.24797501  1
  Ta  Ta99  1  0.79528168  0.79149449  0.26922201  1
  Ta  Ta100  1  0.19987326  0.21206412  0.74240988  1
  Ta  Ta101  1  0.89235108  0.70135780  0.14267028  1
  Ta  Ta102  1  0.19941886  0.79567321  0.75223012  1
  Ta  Ta103  1  -0.00496257  0.78715697  0.50074125  1
  Ta  Ta104  1  0.40796628  0.00033476  0.75014813  1
  Ta  Ta105  1  0.40842619  0.40542732  0.50501196  1
  Ta  Ta106  1  0.71064716  0.32446105  0.87918324  1
  Ta  Ta107  1  0.29982543  0.30132457  0.62653518  1
  Ta  Ta108  1  0.61082574  0.41587525  0.00958781  1
  Ta  Ta109  1  0.70197560  0.11012106  0.63474377  1
  Ta  Ta110  1  0.59892455  -0.00751103  0.74994678  1
  Ta  Ta111  1  0.29186892  0.89421698  0.37999576  1
  Ta  Ta112  1  0.30734564  0.89667438  0.62822176  1
  Ta  Ta113  1  0.18371398  0.39462068  -0.00450156  1
  Ta  Ta114  1  0.10394250  0.49589606  0.12570089  1
  Ta  Ta115  1  0.70075826  0.49054069  0.60931574  1
  Ta  Ta116  1  0.39859626  -0.01227105  0.49685066  1
  Ta  Ta117  1  0.29764432  0.10122292  0.88346122  1
  Ta  Ta118  1  0.19969792  0.61719626  0.49969650  1
  Ta  Ta119  1  0.51457566  0.90592950  0.88130450  1
  Ti  Ti120  1  0.40719954  0.39309876  0.00749580  1
  Ti  Ti121  1  0.60216026  0.79492348  0.75263229  1
  Ti  Ti122  1  0.50528416  0.29464688  0.87334733  1
  Ti  Ti123  1  0.49008581  0.09829583  0.87726480  1
  Ti  Ti124  1  0.28684069  0.50369385  0.12193896  1
  Ti  Ti125  1  0.49545075  0.68237543  0.60813108  1
  Ti  Ti126  1  0.90710460  0.89874338  0.37323126  1
  Ti  Ti127  1  0.51363972  0.70091162  0.12827711  1
  Ti  Ti128  1  0.00792252  0.00065105  0.24866631  1
  Ti  Ti129  1  0.10057683  0.50063897  0.61599363  1
  Ti  Ti130  1  0.79977038  0.80123933  0.48128964  1
  Ti  Ti131  1  0.19281955  0.40933814  0.25531874  1
  Ti  Ti132  1  0.81961040  0.40741692  0.24044347  1
  Ti  Ti133  1  0.39872506  -0.00095473  0.00038022  1
  Ti  Ti134  1  -0.00929300  0.00797043  0.74973947  1
  Ti  Ti135  1  0.19707915  0.80038000  0.50549921  1
  Ti  Ti136  1  0.59923062  0.60327934  0.73320187  1
  Ti  Ti137  1  0.50910953  0.50470331  0.13000202  1
  Ti  Ti138  1  0.80512268  -0.00523508  0.26204834  1
  Ti  Ti139  1  0.70946951  0.49876364  0.38258297  1
  Ti  Ti140  1  0.11264570  0.69786310  0.36146810  1
  Ti  Ti141  1  0.51130564  0.31259650  0.13572419  1
  Ti  Ti142  1  0.00398736  0.80154349  0.24976428  1
  Ti  Ti143  1  0.29335869  0.08770515  0.10923312  1
  Ti  Ti144  1  0.20081925  0.40014821  0.75078305  1
  Ti  Ti145  1  0.09565079  0.30671731  0.62328115  1
  Ti  Ti146  1  0.01128912  0.22187030  -0.00369413  1
  Ti  Ti147  1  0.81335693  0.59737586  0.49690555  1
  Ti  Ti148  1  0.39822414  0.19964185  0.00186377  1
  Ti  Ti149  1  -0.00712697  0.20621811  0.24770428  1
  Ti  Ti150  1  -0.00976170  0.40841186  0.50722342  1
  Ti  Ti151  1  0.38653265  0.78696363  0.48649755  1
  Ti  Ti152  1  -0.01274121  0.20446844  0.51372640  1
  Ti  Ti153  1  0.89413897  0.10244425  0.63329259  1
  Ti  Ti154  1  0.29918766  0.70629305  0.62459557  1
  Ti  Ti155  1  0.30389912  0.30878521  0.37525773  1
  Ti  Ti156  1  0.59492095  0.19889184  0.75374417  1
  Ti  Ti157  1  0.09180589  0.11177656  0.63629651  1
  Ti  Ti158  1  0.79465968  0.00227283  0.75476605  1
  Ti  Ti159  1  0.79398313  0.38923616  0.50386790  1
  Mo  Mo160  1  0.30547083  0.09909631  0.63000522  1
  Mo  Mo161  1  0.10693237  0.31257032  0.86736671  1
  Mo  Mo162  1  0.00144703  0.20456421  0.73441100  1
  Mo  Mo163  1  0.39842595  0.60914393  0.50315837  1
  Mo  Mo164  1  0.47881064  0.68537293  0.37562035  1
  Mo  Mo165  1  0.59446001  0.60616912  0.01745101  1
  Mo  Mo166  1  0.00089414  0.39890855  0.25217373  1
  Mo  Mo167  1  0.60999468  0.41484065  0.24673268  1
  Mo  Mo168  1  0.29618968  0.90786393  0.11976288  1
  Mo  Mo169  1  -0.00646854  0.39341380  -0.00282510  1
  Mo  Mo170  1  0.80942579  0.19949334  0.50989605  1
  Mo  Mo171  1  0.69281483  0.89509001  0.87047652  1
  Mo  Mo172  1  0.90128488  0.10138864  0.86193798  1
  Mo  Mo173  1  0.71540877  0.89534855  0.37518418  1
  Mo  Mo174  1  0.89555187  0.70796333  0.61194996  1
  Mo  Mo175  1  0.00042111  0.59993407  0.74961392  1
  Mo  Mo176  1  0.20055669  0.59451026  0.24831511  1
  Mo  Mo177  1  0.69496129  0.70577788  0.14291180  1
  Mo  Mo178  1  0.51083859  0.50298761  0.60877563  1
  Mo  Mo179  1  0.71080037  0.10502357  0.36635761  1
  Mo  Mo180  1  0.59192623  -0.00404607  -0.00241441  1
  Mo  Mo181  1  0.00415434  0.59739765  0.49867718  1
  Mo  Mo182  1  0.19531557  0.80555415  0.25055424  1
  Mo  Mo183  1  0.40680725  0.60447803  0.23834122  1
  Mo  Mo184  1  0.90298066  0.49216952  0.12912034  1
  Mo  Mo185  1  0.70791584  0.29785022  0.63065542  1
  Mo  Mo186  1  0.60139458  0.20548355  0.24677033  1
  Mo  Mo187  1  0.70064808  0.67897121  0.38378268  1
  Mo  Mo188  1  0.69498324  0.49619263  0.13836442  1
  Mo  Mo189  1  0.28445174  0.70506408  0.37257703  1
  Mo  Mo190  1  0.20529703  -0.00075713  -0.00973788  1
  Mo  Mo191  1  0.60913232  0.59610067  0.49864366  1
  Mo  Mo192  1  0.79965726  0.40215805  0.74362599  1
  Mo  Mo193  1  0.88624133  0.49393075  0.38045639  1
  Mo  Mo194  1  0.19116816  0.58819189  -0.00629335  1
  Mo  Mo195  1  0.60627771  0.40138529  0.50286191  1
  Mo  Mo196  1  0.69331040  0.70212532  0.87402212  1
  Mo  Mo197  1  0.48262283  0.90042645  0.37939470  1
  Mo  Mo198  1  0.20262253  0.19766183  -0.00405284  1
  Mo  Mo199  1  0.90003664  0.29749459  0.12984545  1
