# generated using pymatgen
data_HfZrTaTiMo
_symmetry_space_group_name_H-M   'P 1'
_cell_length_a   15.18262492
_cell_length_b   15.18693106
_cell_length_c   16.88806678
_cell_angle_alpha   90.02464499
_cell_angle_beta   89.97204666
_cell_angle_gamma   90.05051864
_symmetry_Int_Tables_number   1
_chemical_formula_structural   HfZrTaTiMo
_chemical_formula_sum   'Hf40 Zr40 Ta40 Ti40 Mo40'
_cell_volume   3894.00550966
_cell_formula_units_Z   40
loop_
 _symmetry_equiv_pos_site_id
 _symmetry_equiv_pos_as_xyz
  1  'x, y, z'
loop_
 _atom_site_type_symbol
 _atom_site_label
 _atom_site_symmetry_multiplicity
 _atom_site_fract_x
 _atom_site_fract_y
 _atom_site_fract_z
 _atom_site_occupancy
  Hf  Hf0  1  0.37828302  0.79862746  0.24123309  1
  Hf  Hf1  1  0.19159277  0.79874851  -0.01247468  1
  Hf  Hf2  1  0.39076921  0.80515354  0.75012018  1
  Hf  Hf3  1  0.81178659  0.59676917  0.74684924  1
  Hf  Hf4  1  0.09595806  0.32191159  0.86913930  1
  Hf  Hf5  1  0.69545038  0.09837529  0.36688865  1
  Hf  Hf6  1  0.31407285  0.51074172  0.12519164  1
  Hf  Hf7  1  0.72569175  0.49663102  0.14139610  1
  Hf  Hf8  1  0.01843826  0.00250673  0.50451189  1
  Hf  Hf9  1  0.01847894  0.39570487  0.49118648  1
  Hf  Hf10  1  0.80763549  0.00358546  0.76166931  1
  Hf  Hf11  1  0.81476289  0.40663566  0.49990986  1
  Hf  Hf12  1  0.59492989  0.58633959  0.74993934  1
  Hf  Hf13  1  0.79999460  -0.01789493  0.50191198  1
  Hf  Hf14  1  0.09986102  0.09640201  0.63920316  1
  Hf  Hf15  1  0.79244765  0.21536856  0.00642297  1
  Hf  Hf16  1  0.79820818  0.59295693  -0.00263210  1
  Hf  Hf17  1  0.59359488  -0.00681100  0.23549228  1
  Hf  Hf18  1  0.89345225  0.70849950  0.87801212  1
  Hf  Hf19  1  0.08268427  0.70470655  0.37558480  1
  Hf  Hf20  1  0.69119052  0.30440651  0.38188105  1
  Hf  Hf21  1  0.52042748  0.50076769  0.13740058  1
  Hf  Hf22  1  0.40589526  0.59966205  0.26362426  1
  Hf  Hf23  1  0.69072240  0.89991504  0.10471731  1
  Hf  Hf24  1  0.17870501  0.00033518  0.24120262  1
  Hf  Hf25  1  0.38143958  0.58531094  0.48927121  1
  Hf  Hf26  1  -0.00950395  0.21203125  -0.00771052  1
  Hf  Hf27  1  0.80632374  0.61270460  0.50167284  1
  Hf  Hf28  1  0.20353215  0.40773203  -0.00002220  1
  Hf  Hf29  1  0.28261078  0.70921338  0.38050449  1
  Hf  Hf30  1  0.28527136  0.09738016  0.11461239  1
  Hf  Hf31  1  0.59822015  0.80149206  0.74746879  1
  Hf  Hf32  1  0.69181810  0.49305940  0.61585463  1
  Hf  Hf33  1  0.70084222  0.70481167  0.37919380  1
  Hf  Hf34  1  0.80861109  0.19294340  0.49340853  1
  Hf  Hf35  1  0.38530014  0.77377808  -0.00520935  1
  Hf  Hf36  1  0.41614645  0.39841350  0.00244734  1
  Hf  Hf37  1  0.58782317  0.00549798  0.75476034  1
  Hf  Hf38  1  0.18803444  0.58697653  0.76263052  1
  Hf  Hf39  1  0.81059187  0.39849971  0.73144343  1
  Zr  Zr40  1  0.28959836  0.07232251  0.37830420  1
  Zr  Zr41  1  0.00955399  0.42493949  0.73584406  1
  Zr  Zr42  1  0.89177434  0.88101876  0.36261692  1
  Zr  Zr43  1  0.69030038  0.10359872  0.89018987  1
  Zr  Zr44  1  0.69692858  0.70353439  0.62798710  1
  Zr  Zr45  1  0.38873104  0.80956713  0.51159954  1
  Zr  Zr46  1  0.00771049  0.80744343  0.23534457  1
  Zr  Zr47  1  0.19969166  0.20717445  0.25321811  1
  Zr  Zr48  1  0.68474523  0.90121374  0.36818664  1
  Zr  Zr49  1  0.59786830  0.81250989  0.51296208  1
  Zr  Zr50  1  -0.00911930  0.20575263  0.75944578  1
  Zr  Zr51  1  0.79373558  0.20610849  0.75191320  1
  Zr  Zr52  1  0.69515883  0.09962345  0.62109981  1
  Zr  Zr53  1  0.19707941  0.19295683  0.50227928  1
  Zr  Zr54  1  0.78592786  0.79638133  0.23233475  1
  Zr  Zr55  1  0.51189628  0.29144719  0.87287506  1
  Zr  Zr56  1  0.31342529  0.29324944  0.37216189  1
  Zr  Zr57  1  0.18151358  0.80881184  0.52141345  1
  Zr  Zr58  1  -0.00272944  0.59859813  0.24477523  1
  Zr  Zr59  1  0.11185601  0.91028754  0.37635449  1
  Zr  Zr60  1  0.50220532  0.90387436  0.89683273  1
  Zr  Zr61  1  0.90381573  0.10086590  0.13194361  1
  Zr  Zr62  1  0.19403516  0.19750162  -0.00676640  1
  Zr  Zr63  1  0.01495896  0.39893995  0.25880537  1
  Zr  Zr64  1  0.47561174  0.90628674  0.37173418  1
  Zr  Zr65  1  0.09064924  0.91882804  0.10698395  1
  Zr  Zr66  1  0.90335082  0.08354188  0.35930016  1
  Zr  Zr67  1  0.49143410  0.11366224  0.35798028  1
  Zr  Zr68  1  0.89606992  0.69260685  0.11625700  1
  Zr  Zr69  1  0.51866335  0.29892037  0.62408852  1
  Zr  Zr70  1  -0.00529523  0.80328084  0.75152414  1
  Zr  Zr71  1  0.28562079  0.67886016  0.62694354  1
  Zr  Zr72  1  0.49216169  0.68770258  0.87451241  1
  Zr  Zr73  1  0.21227557  0.20064085  0.75000723  1
  Zr  Zr74  1  0.62447740  0.39883581  0.00167258  1
  Zr  Zr75  1  -0.02661073  0.79817335  0.50864431  1
  Zr  Zr76  1  0.49052451  0.89246415  0.10765556  1
  Zr  Zr77  1  0.31357850  0.29579585  0.87477565  1
  Zr  Zr78  1  0.70097279  0.89219346  0.89154616  1
  Zr  Zr79  1  0.41157382  0.18348965  0.50917581  1
  Ta  Ta80  1  0.30387910  0.08975447  0.87889110  1
  Ta  Ta81  1  0.79766380  0.21017636  0.25040702  1
  Ta  Ta82  1  0.31140488  0.30330300  0.62372020  1
  Ta  Ta83  1  0.90453102  0.29715357  0.36840414  1
  Ta  Ta84  1  0.30739521  0.30060304  0.12648196  1
  Ta  Ta85  1  0.57835002  0.01625562  0.50400528  1
  Ta  Ta86  1  0.51165418  0.49158018  0.37173679  1
  Ta  Ta87  1  0.90211116  0.90914336  0.63745223  1
  Ta  Ta88  1  0.09903411  0.90266059  0.87340164  1
  Ta  Ta89  1  0.09937305  0.09156974  0.86382053  1
  Ta  Ta90  1  0.69669560  0.69412147  0.87333680  1
  Ta  Ta91  1  0.91458702  0.29436113  0.61477929  1
  Ta  Ta92  1  0.92429756  0.50821569  0.87654943  1
  Ta  Ta93  1  0.58074073  0.78034051  0.24286801  1
  Ta  Ta94  1  0.90328166  0.09949139  0.62391039  1
  Ta  Ta95  1  0.48938496  0.10368259  0.12364334  1
  Ta  Ta96  1  0.50058588  0.70143151  0.38134704  1
  Ta  Ta97  1  0.40831027  0.40067015  0.74821509  1
  Ta  Ta98  1  0.12210364  0.50708260  0.37905234  1
  Ta  Ta99  1  0.00947967  0.19634413  0.25300725  1
  Ta  Ta100  1  0.08868040  0.68940891  0.87670986  1
  Ta  Ta101  1  0.90571667  0.91340800  0.88280681  1
  Ta  Ta102  1  0.11272606  0.30595436  0.62412736  1
  Ta  Ta103  1  0.10838794  0.50491602  0.12271274  1
  Ta  Ta104  1  0.10083915  0.30160326  0.12384498  1
  Ta  Ta105  1  0.48895967  0.68451393  0.11622312  1
  Ta  Ta106  1  0.11786436  0.50574596  0.61151987  1
  Ta  Ta107  1  0.49141080  0.69240744  0.62556250  1
  Ta  Ta108  1  0.41642875  0.39434667  0.49097818  1
  Ta  Ta109  1  0.21494793  0.60724184  -0.01039497  1
  Ta  Ta110  1  0.71831798  0.48709590  0.86941390  1
  Ta  Ta111  1  -0.00107563  0.59534205  0.50170568  1
  Ta  Ta112  1  0.48806747  0.49851559  0.62105651  1
  Ta  Ta113  1  0.20243532  0.61007930  0.24677191  1
  Ta  Ta114  1  0.22294808  0.40737648  0.49597040  1
  Ta  Ta115  1  0.88606724  0.32118686  0.87570418  1
  Ta  Ta116  1  0.20969435  -0.01230743  0.74433798  1
  Ta  Ta117  1  0.59188472  0.20385318  0.01665193  1
  Ta  Ta118  1  0.60103698  0.19975186  0.75260336  1
  Ta  Ta119  1  0.58758222  0.59601087  0.49912955  1
  Ti  Ti120  1  0.48981698  0.10305297  0.89225997  1
  Ti  Ti121  1  0.81609782  0.40407814  0.00506097  1
  Ti  Ti122  1  0.70457434  0.29492883  0.60638706  1
  Ti  Ti123  1  0.89044764  0.70783800  0.63473728  1
  Ti  Ti124  1  0.19376428  0.79256816  0.75249270  1
  Ti  Ti125  1  0.61291048  0.39126170  0.75181789  1
  Ti  Ti126  1  0.31158878  0.50447713  0.87850088  1
  Ti  Ti127  1  0.61128868  0.40134793  0.25686548  1
  Ti  Ti128  1  0.40753585  0.39021241  0.25607439  1
  Ti  Ti129  1  0.48151197  0.92254872  0.63095360  1
  Ti  Ti130  1  0.80664427  0.01137719  -0.00172527  1
  Ti  Ti131  1  -0.00014489  0.40962721  0.00890719  1
  Ti  Ti132  1  0.49998754  0.30020394  0.13302016  1
  Ti  Ti133  1  0.11503541  0.70285455  0.11934487  1
  Ti  Ti134  1  0.28462637  0.89067910  0.11422991  1
  Ti  Ti135  1  0.90502662  0.50715455  0.37346035  1
  Ti  Ti136  1  0.38855313  0.00203114  0.00279243  1
  Ti  Ti137  1  0.50695614  0.49123650  0.87225559  1
  Ti  Ti138  1  0.39114659  0.59228333  0.74798992  1
  Ti  Ti139  1  0.00493246  0.01764647  -0.00916420  1
  Ti  Ti140  1  0.59657284  0.59169176  -0.00791113  1
  Ti  Ti141  1  0.21155387  0.40932156  0.25047284  1
  Ti  Ti142  1  0.70762145  0.90021331  0.63394692  1
  Ti  Ti143  1  0.89811193  0.31846770  0.14147237  1
  Ti  Ti144  1  0.70292124  0.50423460  0.37639699  1
  Ti  Ti145  1  0.01126955  0.59898698  0.00729465  1
  Ti  Ti146  1  0.59382136  0.20584656  0.24134592  1
  Ti  Ti147  1  -0.00502816  0.80446943  -0.00066474  1
  Ti  Ti148  1  0.79997367  0.59916712  0.25951439  1
  Ti  Ti149  1  0.38326865  -0.00011543  0.23641690  1
  Ti  Ti150  1  0.70301320  0.30380229  0.13955806  1
  Ti  Ti151  1  0.68082175  0.68766012  0.12232887  1
  Ti  Ti152  1  0.21489228  0.40252646  0.74578228  1
  Ti  Ti153  1  0.69935400  0.10209667  0.12872650  1
  Ti  Ti154  1  0.29794978  0.90050577  0.87543151  1
  Ti  Ti155  1  0.79801613  0.79615490  0.00464451  1
  Ti  Ti156  1  0.00626843  0.19928169  0.49063292  1
  Ti  Ti157  1  0.40851798  0.18292081  0.74178139  1
  Ti  Ti158  1  0.89240619  0.90848787  0.12156481  1
  Ti  Ti159  1  0.08294546  0.69109364  0.63167525  1
  Mo  Mo160  1  0.40309306  0.58391076  -0.00613364  1
  Mo  Mo161  1  0.00081212  0.60497288  0.74488058  1
  Mo  Mo162  1  0.09285238  0.10989165  0.37558119  1
  Mo  Mo163  1  0.60633522  0.60330461  0.25944060  1
  Mo  Mo164  1  0.30458925  0.49653047  0.36288238  1
  Mo  Mo165  1  0.21900623  -0.00687161  0.52989135  1
  Mo  Mo166  1  0.00237471  0.00365101  0.75766987  1
  Mo  Mo167  1  0.79572289  0.80570348  0.50791131  1
  Mo  Mo168  1  0.40189489  0.19928828  0.01042113  1
  Mo  Mo169  1  0.29678208  0.89530452  0.64068594  1
  Mo  Mo170  1  0.91446546  0.49391219  0.12377731  1
  Mo  Mo171  1  0.50090906  0.10049154  0.63298660  1
  Mo  Mo172  1  0.19749438  -0.00262429  -0.01428017  1
  Mo  Mo173  1  0.60048566  0.40626924  0.49482756  1
  Mo  Mo174  1  0.80841129  0.40263499  0.26568623  1
  Mo  Mo175  1  0.29072304  0.69589895  0.86274146  1
  Mo  Mo176  1  0.39921784  0.20028868  0.23446960  1
  Mo  Mo177  1  0.90158672  0.10373571  0.88605957  1
  Mo  Mo178  1  0.10372563  0.50392091  0.88707343  1
  Mo  Mo179  1  0.91202037  0.50757072  0.61408969  1
  Mo  Mo180  1  0.78864091  0.00276951  0.23298711  1
  Mo  Mo181  1  0.09235254  0.11503980  0.11859405  1
  Mo  Mo182  1  0.10441315  0.30209683  0.37782471  1
  Mo  Mo183  1  0.39856046  0.00347842  0.76535920  1
  Mo  Mo184  1  0.70432295  0.30601448  0.87662935  1
  Mo  Mo185  1  0.30228225  0.48421820  0.62670058  1
  Mo  Mo186  1  0.31296548  0.08749779  0.63188234  1
  Mo  Mo187  1  0.60572421  0.77002727  0.00268268  1
  Mo  Mo188  1  0.60394681  0.19889163  0.49534271  1
  Mo  Mo189  1  0.79430033  0.80657412  0.75801380  1
  Mo  Mo190  1  0.29282709  0.89674128  0.37189126  1
  Mo  Mo191  1  0.89344108  0.69155040  0.37123770  1
  Mo  Mo192  1  0.19637464  0.79819746  0.23955086  1
  Mo  Mo193  1  0.50639890  0.30190297  0.36605572  1
  Mo  Mo194  1  0.29317129  0.69507402  0.12348379  1
  Mo  Mo195  1  0.39262062  -0.00368683  0.50669611  1
  Mo  Mo196  1  0.18933915  0.59676796  0.49679022  1
  Mo  Mo197  1  0.59613311  0.01627560  0.01219324  1
  Mo  Mo198  1  -0.00773422  0.00404548  0.24330578  1
  Mo  Mo199  1  0.09524613  0.89723149  0.63974817  1
