# generated using pymatgen
data_HfZrTaTiMo
_symmetry_space_group_name_H-M   'P 1'
_cell_length_a   15.20957865
_cell_length_b   15.21184102
_cell_length_c   16.84971724
_cell_angle_alpha   90.01059833
_cell_angle_beta   89.99434864
_cell_angle_gamma   89.93317056
_symmetry_Int_Tables_number   1
_chemical_formula_structural   HfZrTaTiMo
_chemical_formula_sum   'Hf40 Zr40 Ta40 Ti40 Mo40'
_cell_volume   3898.44375931
_cell_formula_units_Z   40
loop_
 _symmetry_equiv_pos_site_id
 _symmetry_equiv_pos_as_xyz
  1  'x, y, z'
loop_
 _atom_site_type_symbol
 _atom_site_label
 _atom_site_symmetry_multiplicity
 _atom_site_fract_x
 _atom_site_fract_y
 _atom_site_fract_z
 _atom_site_occupancy
  Hf  Hf0  1  0.09225490  0.90741281  0.12630911  1
  Hf  Hf1  1  -0.00398298  0.00770430  -0.00239428  1
  Hf  Hf2  1  0.30781136  0.31264237  0.61713987  1
  Hf  Hf3  1  0.28635879  0.30071119  0.88500610  1
  Hf  Hf4  1  0.30261383  0.89385872  0.12729342  1
  Hf  Hf5  1  0.70945924  0.28630347  0.88901497  1
  Hf  Hf6  1  -0.01166349  0.81411376  0.24459270  1
  Hf  Hf7  1  0.09078958  0.70962343  0.37411161  1
  Hf  Hf8  1  0.70552666  0.50068384  0.11404376  1
  Hf  Hf9  1  0.69425621  0.68911421  0.11564829  1
  Hf  Hf10  1  0.78127696  -0.00577232  0.50678978  1
  Hf  Hf11  1  -0.00356296  0.41890888  0.49931568  1
  Hf  Hf12  1  0.10778289  0.11733956  0.12318339  1
  Hf  Hf13  1  0.49668690  0.89676708  0.36937646  1
  Hf  Hf14  1  0.72523329  0.29406842  0.11423719  1
  Hf  Hf15  1  0.10525576  0.50235311  0.12506326  1
  Hf  Hf16  1  0.30400571  0.29389931  0.38090190  1
  Hf  Hf17  1  0.19921672  0.81746178  0.49795758  1
  Hf  Hf18  1  0.39887756  -0.01282905  0.74452421  1
  Hf  Hf19  1  0.49122979  0.28444571  0.89173660  1
  Hf  Hf20  1  0.20158269  0.01086976  0.75605296  1
  Hf  Hf21  1  0.79689276  0.02089363  0.73066944  1
  Hf  Hf22  1  0.49604867  0.09927931  0.36303472  1
  Hf  Hf23  1  0.29080498  0.70424911  0.63321251  1
  Hf  Hf24  1  0.50200028  0.70337611  0.85767276  1
  Hf  Hf25  1  -0.00199574  0.20468538  0.74410121  1
  Hf  Hf26  1  -0.01415248  0.42034310  -0.00506635  1
  Hf  Hf27  1  0.79629314  0.58456137  0.49945280  1
  Hf  Hf28  1  0.81748925  -0.00960556  0.24497578  1
  Hf  Hf29  1  0.19913928  0.20469306  0.25825199  1
  Hf  Hf30  1  0.79687103  0.79182532  0.49938316  1
  Hf  Hf31  1  0.21211085  0.59777277  0.24921287  1
  Hf  Hf32  1  0.00323322  0.00471794  0.74422655  1
  Hf  Hf33  1  0.90327941  0.30343064  0.61749984  1
  Hf  Hf34  1  0.59550655  0.38716555  0.75990589  1
  Hf  Hf35  1  0.41412726  0.19402719  0.74321112  1
  Hf  Hf36  1  0.60218538  0.17853200  0.02219943  1
  Hf  Hf37  1  0.70122147  0.08786662  0.88221061  1
  Hf  Hf38  1  0.20042792  0.79333257  -0.00726335  1
  Hf  Hf39  1  0.10920608  0.49931663  0.86539351  1
  Zr  Zr40  1  0.91160637  0.10147050  0.37956912  1
  Zr  Zr41  1  0.50038437  0.68140219  0.64885117  1
  Zr  Zr42  1  0.31412880  0.10493408  0.11763780  1
  Zr  Zr43  1  0.90587337  0.88989061  0.62310824  1
  Zr  Zr44  1  0.78717473  0.80583368  0.75375756  1
  Zr  Zr45  1  0.59279395  0.78916375  0.24760798  1
  Zr  Zr46  1  0.29390819  0.09878690  0.62140467  1
  Zr  Zr47  1  0.68272273  0.88869404  0.88976205  1
  Zr  Zr48  1  0.89828437  0.11474646  0.12887772  1
  Zr  Zr49  1  0.59280696  0.80152873  0.49933358  1
  Zr  Zr50  1  0.20583886  -0.00020292  -0.00426729  1
  Zr  Zr51  1  0.41393173  0.18975235  0.50302225  1
  Zr  Zr52  1  0.11020841  0.12600826  0.87981553  1
  Zr  Zr53  1  0.21024154  0.41433569  0.50137135  1
  Zr  Zr54  1  0.00427258  0.23021739  0.00518611  1
  Zr  Zr55  1  0.31888885  0.10397785  0.88471686  1
  Zr  Zr56  1  0.29032662  0.30389351  0.11575166  1
  Zr  Zr57  1  0.68722679  0.68723749  0.37249210  1
  Zr  Zr58  1  0.39536859  0.58043536  0.51464685  1
  Zr  Zr59  1  0.30727742  0.69543486  0.37915594  1
  Zr  Zr60  1  0.60324676  -0.01095197  0.73487814  1
  Zr  Zr61  1  0.90554588  0.89072329  0.38459675  1
  Zr  Zr62  1  0.80501697  0.40309579  0.25624184  1
  Zr  Zr63  1  0.50351162  0.30812694  0.36821358  1
  Zr  Zr64  1  0.88754298  0.70701322  0.11429742  1
  Zr  Zr65  1  0.69083926  0.09677917  0.37110470  1
  Zr  Zr66  1  0.90616329  0.69050290  0.62976180  1
  Zr  Zr67  1  0.30418860  0.69467135  0.11876694  1
  Zr  Zr68  1  0.70472819  0.30102396  0.62198863  1
  Zr  Zr69  1  0.88565239  0.91138215  0.87551596  1
  Zr  Zr70  1  0.71771420  0.88202149  0.12132059  1
  Zr  Zr71  1  0.59460388  0.40190123  0.00327968  1
  Zr  Zr72  1  0.01596971  -0.01302944  0.50456829  1
  Zr  Zr73  1  0.09561283  0.70129269  0.12126369  1
  Zr  Zr74  1  0.89778219  0.11347915  0.60467479  1
  Zr  Zr75  1  0.89407387  0.49920370  0.64065304  1
  Zr  Zr76  1  0.69329443  0.69799569  0.63420921  1
  Zr  Zr77  1  0.10289416  0.50614208  0.37078480  1
  Zr  Zr78  1  0.89047491  0.11912445  0.87906976  1
  Zr  Zr79  1  0.11013443  0.51550124  0.64034455  1
  Ta  Ta80  1  0.49949795  0.50714829  0.37378553  1
  Ta  Ta81  1  0.40938023  0.60324191  -0.01013789  1
  Ta  Ta82  1  0.00386797  0.80157587  0.76348158  1
  Ta  Ta83  1  0.40387923  0.41821923  0.23564775  1
  Ta  Ta84  1  -0.01274522  0.60020987  0.24791428  1
  Ta  Ta85  1  0.10460917  0.70156234  0.87386174  1
  Ta  Ta86  1  0.11643479  0.90075457  0.63323040  1
  Ta  Ta87  1  0.29795154  0.91040206  0.36863642  1
  Ta  Ta88  1  0.59433250  0.40518471  0.50334139  1
  Ta  Ta89  1  0.10154103  0.90382516  0.87350331  1
  Ta  Ta90  1  0.29971373  0.49905223  0.89080371  1
  Ta  Ta91  1  0.79049567  0.59959688  0.77147547  1
  Ta  Ta92  1  0.69277198  0.29794230  0.37401106  1
  Ta  Ta93  1  0.59766025  -0.00960095  0.02634782  1
  Ta  Ta94  1  0.41916258  -0.01069156  0.00532902  1
  Ta  Ta95  1  0.19830410  0.00652855  0.25224772  1
  Ta  Ta96  1  0.39058442  0.39223694  0.75637828  1
  Ta  Ta97  1  0.90038078  0.31575643  0.86693867  1
  Ta  Ta98  1  0.89888406  0.50384152  0.12513352  1
  Ta  Ta99  1  0.58255545  0.58351347  0.24266513  1
  Ta  Ta100  1  0.11763349  0.10583041  0.38999362  1
  Ta  Ta101  1  -0.01010527  0.80422678  -0.01356433  1
  Ta  Ta102  1  0.18199441  0.39365493  0.00102340  1
  Ta  Ta103  1  0.60320425  0.60085032  -0.01781824  1
  Ta  Ta104  1  0.49087285  0.29701024  0.11964243  1
  Ta  Ta105  1  0.79558901  0.20325515  0.25787929  1
  Ta  Ta106  1  0.10428543  0.11322278  0.60809192  1
  Ta  Ta107  1  0.68648751  0.48876855  0.37011336  1
  Ta  Ta108  1  0.31360889  0.49212409  0.37055746  1
  Ta  Ta109  1  0.20574879  0.80683834  0.75944120  1
  Ta  Ta110  1  0.51139203  0.08425469  0.88176794  1
  Ta  Ta111  1  0.49033454  0.88247520  0.62894712  1
  Ta  Ta112  1  0.59737573  0.39164116  0.23368842  1
  Ta  Ta113  1  0.68525548  0.50304079  0.63820456  1
  Ta  Ta114  1  0.00504127  0.39753065  0.25094063  1
  Ta  Ta115  1  0.69519689  0.90162097  0.36655458  1
  Ta  Ta116  1  0.20086546  0.80641843  0.25362569  1
  Ta  Ta117  1  0.60177956  0.00105968  0.23099996  1
  Ta  Ta118  1  0.38226063  0.58285862  0.75616304  1
  Ta  Ta119  1  0.39111834  -0.01669896  0.50570730  1
  Ti  Ti120  1  0.59386779  0.59469245  0.50246724  1
  Ti  Ti121  1  0.09414239  0.70980691  0.63218228  1
  Ti  Ti122  1  0.61011154  0.18835065  0.75205810  1
  Ti  Ti123  1  0.19905325  0.22436654  0.74322593  1
  Ti  Ti124  1  -0.00554676  0.60764763  0.76704166  1
  Ti  Ti125  1  0.68446738  0.11405642  0.61167729  1
  Ti  Ti126  1  0.49374130  0.49349647  0.87284430  1
  Ti  Ti127  1  0.89940460  0.50467543  0.37133207  1
  Ti  Ti128  1  0.01324822  0.39688854  0.75052734  1
  Ti  Ti129  1  0.39724816  -0.00232295  0.24627771  1
  Ti  Ti130  1  0.40029413  0.79187945  0.49858385  1
  Ti  Ti131  1  0.18981997  0.60922073  0.50118965  1
  Ti  Ti132  1  0.10537025  0.30370238  0.61370885  1
  Ti  Ti133  1  0.79399361  0.59862123  0.25312221  1
  Ti  Ti134  1  0.39818252  0.78449133  0.25647971  1
  Ti  Ti135  1  0.09997951  0.91220979  0.36534850  1
  Ti  Ti136  1  0.49272918  0.88599442  0.13070315  1
  Ti  Ti137  1  0.58205485  0.79273256  0.00390478  1
  Ti  Ti138  1  0.40632736  0.20610520  0.24586923  1
  Ti  Ti139  1  0.31120124  0.89086135  0.88125342  1
  Ti  Ti140  1  0.09569695  0.30029429  0.38629635  1
  Ti  Ti141  1  0.20341015  0.39823443  0.25088994  1
  Ti  Ti142  1  0.58270229  0.00470603  0.51078375  1
  Ti  Ti143  1  0.30985475  0.50211106  0.10287257  1
  Ti  Ti144  1  0.79811300  0.78979714  0.25999798  1
  Ti  Ti145  1  0.49570062  0.89479034  0.87265770  1
  Ti  Ti146  1  0.79040272  0.40070776  0.49196254  1
  Ti  Ti147  1  0.51164205  0.28981314  0.61977179  1
  Ti  Ti148  1  0.81246027  0.59378722  -0.02304663  1
  Ti  Ti149  1  0.79326014  0.20603442  0.48536213  1
  Ti  Ti150  1  0.90240595  0.69091093  0.38093898  1
  Ti  Ti151  1  0.30047056  0.69501338  0.87379596  1
  Ti  Ti152  1  0.00027800  0.20593628  0.25575340  1
  Ti  Ti153  1  0.90183649  0.30344347  0.38078796  1
  Ti  Ti154  1  0.79563195  0.00551023  0.01670788  1
  Ti  Ti155  1  0.49300071  0.68640419  0.11877006  1
  Ti  Ti156  1  0.00392895  0.60940083  -0.01271176  1
  Ti  Ti157  1  0.79807073  0.39690396  0.75385373  1
  Ti  Ti158  1  0.49353125  0.48157661  0.63796173  1
  Ti  Ti159  1  0.70530322  0.48998796  0.87874635  1
  Mo  Mo160  1  0.80976425  0.40401562  -0.00570865  1
  Mo  Mo161  1  0.29901578  0.89426964  0.62541304  1
  Mo  Mo162  1  0.19864402  0.59579735  -0.00626859  1
  Mo  Mo163  1  0.09269481  0.31014380  0.13591928  1
  Mo  Mo164  1  0.01015672  0.78539349  0.50369114  1
  Mo  Mo165  1  0.30749208  0.09244171  0.36995134  1
  Mo  Mo166  1  0.20028418  0.20360503  0.49635313  1
  Mo  Mo167  1  0.40744218  0.79974273  -0.00313068  1
  Mo  Mo168  1  0.78877705  0.21108487  0.74612963  1
  Mo  Mo169  1  0.90053700  0.70330175  0.87720337  1
  Mo  Mo170  1  0.69133383  0.90297216  0.61828617  1
  Mo  Mo171  1  0.79564545  0.78753162  -0.01147742  1
  Mo  Mo172  1  0.80918498  0.19866328  0.00241892  1
  Mo  Mo173  1  0.39708737  0.40479721  0.00132868  1
  Mo  Mo174  1  0.90090529  0.50064818  0.85673002  1
  Mo  Mo175  1  0.01635631  0.01630271  0.25521818  1
  Mo  Mo176  1  0.39137642  0.79763676  0.75467617  1
  Mo  Mo177  1  0.90593675  0.90180525  0.11504464  1
  Mo  Mo178  1  0.49371172  0.68879046  0.37773773  1
  Mo  Mo179  1  0.30496504  0.50440211  0.63452316  1
  Mo  Mo180  1  0.59979741  0.58047197  0.76922990  1
  Mo  Mo181  1  0.59293723  0.79884759  0.74840427  1
  Mo  Mo182  1  0.49869498  0.50548331  0.11296230  1
  Mo  Mo183  1  0.60177735  0.20262364  0.23153169  1
  Mo  Mo184  1  0.90968919  0.31328355  0.13502498  1
  Mo  Mo185  1  0.19859506  0.61251702  0.75823194  1
  Mo  Mo186  1  0.21268842  0.40843815  0.74550528  1
  Mo  Mo187  1  0.00609951  0.21320720  0.49269350  1
  Mo  Mo188  1  0.09501008  0.31004456  0.86522829  1
  Mo  Mo189  1  0.19895536  0.20823523  0.00201658  1
  Mo  Mo190  1  0.69700631  0.69473182  0.88204452  1
  Mo  Mo191  1  0.41394428  0.40161119  0.50230621  1
  Mo  Mo192  1  0.60498449  0.19937243  0.49688105  1
  Mo  Mo193  1  0.00129889  0.61073881  0.50067094  1
  Mo  Mo194  1  0.40871619  0.19429419  0.00390327  1
  Mo  Mo195  1  0.49736445  0.09335389  0.14016249  1
  Mo  Mo196  1  0.40464643  0.59759720  0.24611147  1
  Mo  Mo197  1  0.70487426  0.09671858  0.13851904  1
  Mo  Mo198  1  0.50249028  0.09547357  0.62099855  1
  Mo  Mo199  1  0.20857133  0.00280463  0.49550601  1
