# generated using pymatgen
data_HfZrTaTiMo
_symmetry_space_group_name_H-M   'P 1'
_cell_length_a   15.20543570
_cell_length_b   15.20023644
_cell_length_c   16.83395162
_cell_angle_alpha   90.01209544
_cell_angle_beta   89.96808047
_cell_angle_gamma   90.03982065
_symmetry_Int_Tables_number   1
_chemical_formula_structural   HfZrTaTiMo
_chemical_formula_sum   'Hf40 Zr40 Ta40 Ti40 Mo40'
_cell_volume   3890.76594005
_cell_formula_units_Z   40
loop_
 _symmetry_equiv_pos_site_id
 _symmetry_equiv_pos_as_xyz
  1  'x, y, z'
loop_
 _atom_site_type_symbol
 _atom_site_label
 _atom_site_symmetry_multiplicity
 _atom_site_fract_x
 _atom_site_fract_y
 _atom_site_fract_z
 _atom_site_occupancy
  Hf  Hf0  1  0.39347014  0.79298609  0.00364278  1
  Hf  Hf1  1  0.40142551  0.39071881  0.51255714  1
  Hf  Hf2  1  0.30463141  0.69388725  0.87558362  1
  Hf  Hf3  1  0.79182091  0.00584621  -0.00799143  1
  Hf  Hf4  1  0.08495144  0.90077133  0.38977900  1
  Hf  Hf5  1  0.19745269  0.59484576  0.48697066  1
  Hf  Hf6  1  0.08638309  0.48779297  0.37322935  1
  Hf  Hf7  1  0.31288932  0.90318345  0.61173180  1
  Hf  Hf8  1  0.50870305  0.29994556  0.86373407  1
  Hf  Hf9  1  0.79927919  0.20109324  0.26652726  1
  Hf  Hf10  1  -0.01410678  -0.00647059  0.25845839  1
  Hf  Hf11  1  0.39661937  -0.00207087  0.26383973  1
  Hf  Hf12  1  0.20257224  0.00397036  0.49570501  1
  Hf  Hf13  1  0.52274201  0.49312458  0.38460186  1
  Hf  Hf14  1  0.19937413  0.58657312  0.75713621  1
  Hf  Hf15  1  0.61969552  0.21469533  -0.00808703  1
  Hf  Hf16  1  0.19711931  0.79869629  0.74253805  1
  Hf  Hf17  1  0.88651740  0.90197658  0.60922337  1
  Hf  Hf18  1  0.09060970  0.09585114  0.62330875  1
  Hf  Hf19  1  0.40785551  0.80019519  0.74300270  1
  Hf  Hf20  1  0.87826619  0.29570585  0.11315472  1
  Hf  Hf21  1  0.41094694  0.60816878  0.27006921  1
  Hf  Hf22  1  0.89124731  0.30513800  0.62681724  1
  Hf  Hf23  1  -0.00216584  0.80327255  0.01145331  1
  Hf  Hf24  1  0.59530533  0.80357196  0.25028931  1
  Hf  Hf25  1  0.48635660  0.69297421  0.12595323  1
  Hf  Hf26  1  0.79095837  0.59648140  -0.00402462  1
  Hf  Hf27  1  0.10031703  0.09805099  0.12976361  1
  Hf  Hf28  1  0.19313334  -0.00642179  -0.00021071  1
  Hf  Hf29  1  0.10220544  0.70454175  0.88160771  1
  Hf  Hf30  1  0.29286917  0.89098326  0.13445141  1
  Hf  Hf31  1  0.30173616  0.48909981  0.37217829  1
  Hf  Hf32  1  0.09305317  0.69199560  0.61496079  1
  Hf  Hf33  1  0.90050940  0.09841738  0.12580402  1
  Hf  Hf34  1  0.52280533  0.49868568  0.86298671  1
  Hf  Hf35  1  0.71876870  0.51899807  0.37798292  1
  Hf  Hf36  1  0.19419255  0.19798187  -0.00852205  1
  Hf  Hf37  1  0.00084264  0.60211015  0.76239995  1
  Hf  Hf38  1  0.91631701  0.30708961  0.38406670  1
  Hf  Hf39  1  0.09075565  0.89316204  0.60624154  1
  Zr  Zr40  1  0.59410685  0.01309201  -0.01539006  1
  Zr  Zr41  1  0.28573985  0.10487691  0.85581122  1
  Zr  Zr42  1  0.87346715  0.29096316  0.87786060  1
  Zr  Zr43  1  0.50213280  0.90502808  0.12630422  1
  Zr  Zr44  1  0.40757414  0.20147682  0.74426972  1
  Zr  Zr45  1  0.31292989  0.51685447  0.13107348  1
  Zr  Zr46  1  0.89228986  0.71103469  0.88310318  1
  Zr  Zr47  1  0.40199147  0.20131742  -0.01136540  1
  Zr  Zr48  1  0.59817887  0.01058634  0.26913808  1
  Zr  Zr49  1  0.79858109  0.59399574  0.74925250  1
  Zr  Zr50  1  0.21482066  0.38695578  0.76645320  1
  Zr  Zr51  1  0.10891043  0.50392788  0.13024007  1
  Zr  Zr52  1  -0.00361191  0.39158882  0.24097891  1
  Zr  Zr53  1  0.38977402  0.00155935  -0.00706403  1
  Zr  Zr54  1  0.49615042  0.11680003  0.12722514  1
  Zr  Zr55  1  0.79390094  0.01167506  0.75497035  1
  Zr  Zr56  1  0.19884702  0.79544513  0.26592947  1
  Zr  Zr57  1  0.09160047  0.28902526  0.63807507  1
  Zr  Zr58  1  -0.00251686  0.40396660  0.76598764  1
  Zr  Zr59  1  0.50552277  0.70284778  0.87892300  1
  Zr  Zr60  1  0.09739950  0.29099553  0.12393331  1
  Zr  Zr61  1  -0.00948285  0.79043121  0.24681874  1
  Zr  Zr62  1  0.29341734  0.11405780  0.37736906  1
  Zr  Zr63  1  0.51382079  0.50246939  0.61402439  1
  Zr  Zr64  1  0.20868861  0.40109604  -0.01624031  1
  Zr  Zr65  1  0.19183183  0.00617466  0.26284547  1
  Zr  Zr66  1  0.42129295  0.39206254  0.24677031  1
  Zr  Zr67  1  0.79436021  0.80482677  0.74641787  1
  Zr  Zr68  1  0.42008863  0.40527745  0.00688613  1
  Zr  Zr69  1  0.70677454  0.70786832  0.12280226  1
  Zr  Zr70  1  0.50627834  0.08268999  0.62480924  1
  Zr  Zr71  1  0.89633063  0.10537295  0.61199565  1
  Zr  Zr72  1  0.60616557  0.61121080  0.73299865  1
  Zr  Zr73  1  0.40752861  0.60895759  0.49274904  1
  Zr  Zr74  1  0.30109042  0.70024589  0.61304823  1
  Zr  Zr75  1  0.78650345  0.20715104  0.48526470  1
  Zr  Zr76  1  0.00353231  0.39038994  -0.00909037  1
  Zr  Zr77  1  0.10295366  0.48861503  0.61865879  1
  Zr  Zr78  1  0.70160171  0.10656945  0.13472217  1
  Zr  Zr79  1  0.40261144  0.59709705  0.73656255  1
  Ta  Ta80  1  0.88638912  0.68405797  0.37127372  1
  Ta  Ta81  1  0.69510345  0.10747263  0.62475354  1
  Ta  Ta82  1  -0.00373053  0.00107690  0.00041588  1
  Ta  Ta83  1  0.77420190  0.00025995  0.48884037  1
  Ta  Ta84  1  0.29515969  0.09969378  0.63275785  1
  Ta  Ta85  1  0.29265033  0.89350788  0.86986019  1
  Ta  Ta86  1  0.11474555  0.29027116  0.37479569  1
  Ta  Ta87  1  0.90611293  0.90772857  0.87690651  1
  Ta  Ta88  1  0.58915673  0.21729344  0.26452893  1
  Ta  Ta89  1  0.08278464  0.08774679  0.86289038  1
  Ta  Ta90  1  0.40480937  -0.00906211  0.75582907  1
  Ta  Ta91  1  0.00928857  0.59488194  -0.00227682  1
  Ta  Ta92  1  0.81017303  0.61078223  0.50989522  1
  Ta  Ta93  1  0.41419487  0.39723663  0.73265383  1
  Ta  Ta94  1  0.59319162  0.59600547  0.00459146  1
  Ta  Ta95  1  0.87420003  0.89377305  0.12323473  1
  Ta  Ta96  1  0.69926866  0.89292372  0.87630327  1
  Ta  Ta97  1  0.88933702  0.49466668  0.88672975  1
  Ta  Ta98  1  0.79345898  -0.01052165  0.26324952  1
  Ta  Ta99  1  0.61000377  0.80607392  0.00525916  1
  Ta  Ta100  1  0.79203858  0.79633357  0.25828764  1
  Ta  Ta101  1  -0.01750500  0.78017750  0.49121082  1
  Ta  Ta102  1  0.40097455  0.19849851  0.51297373  1
  Ta  Ta103  1  0.91235685  0.50368753  0.61884800  1
  Ta  Ta104  1  0.89846047  0.49988340  0.11404087  1
  Ta  Ta105  1  0.20234993  0.20638116  0.50875296  1
  Ta  Ta106  1  0.39560143  0.20239526  0.25151051  1
  Ta  Ta107  1  0.09265258  0.27429775  0.86241474  1
  Ta  Ta108  1  0.19715860  0.79750394  0.00659420  1
  Ta  Ta109  1  0.71227728  0.50086183  0.13558974  1
  Ta  Ta110  1  0.81089825  0.41190961  0.49544098  1
  Ta  Ta111  1  0.59732510  0.81936563  0.73861727  1
  Ta  Ta112  1  0.39441374  0.79839823  0.27436160  1
  Ta  Ta113  1  -0.00229841  0.80731019  0.74695045  1
  Ta  Ta114  1  0.52511010  0.49671593  0.13544330  1
  Ta  Ta115  1  0.90137491  0.70174452  0.62575908  1
  Ta  Ta116  1  0.30460105  0.29346405  0.12738229  1
  Ta  Ta117  1  0.62186414  0.38292309  0.73104000  1
  Ta  Ta118  1  0.09712078  0.89923934  0.87269292  1
  Ta  Ta119  1  0.61436081  0.38260268  0.51062281  1
  Ti  Ti120  1  0.90037062  0.69269695  0.12143093  1
  Ti  Ti121  1  0.20846533  0.79422022  0.48176556  1
  Ti  Ti122  1  0.69880490  0.72055562  0.62078472  1
  Ti  Ti123  1  0.69211012  0.31618211  0.37072262  1
  Ti  Ti124  1  0.68473040  0.31370407  0.13909993  1
  Ti  Ti125  1  0.89818922  0.10693697  0.87669416  1
  Ti  Ti126  1  0.88712509  0.89137878  0.38581775  1
  Ti  Ti127  1  0.32265237  0.49377657  0.87575259  1
  Ti  Ti128  1  0.08660552  0.69093355  0.37771360  1
  Ti  Ti129  1  -0.00760282  0.59432449  0.24589534  1
  Ti  Ti130  1  0.30304481  0.29882646  0.37685561  1
  Ti  Ti131  1  0.61873374  0.60596981  0.25576842  1
  Ti  Ti132  1  0.11239570  0.69539092  0.12627989  1
  Ti  Ti133  1  0.59828999  0.00555421  0.76351875  1
  Ti  Ti134  1  0.09006570  0.90001558  0.13063138  1
  Ti  Ti135  1  0.80505201  0.41304437  0.25758297  1
  Ti  Ti136  1  0.40767348  0.00508387  0.49164313  1
  Ti  Ti137  1  0.08676966  0.10891240  0.39005051  1
  Ti  Ti138  1  0.68930795  0.89091907  0.38149950  1
  Ti  Ti139  1  -0.00623297  -0.00533034  0.74546426  1
  Ti  Ti140  1  0.00509535  0.19311653  0.25867073  1
  Ti  Ti141  1  0.49564814  0.29747320  0.38520276  1
  Ti  Ti142  1  0.19850973  0.38993424  0.50019327  1
  Ti  Ti143  1  0.69212016  0.69845438  0.87726985  1
  Ti  Ti144  1  0.90041187  0.09273038  0.38803373  1
  Ti  Ti145  1  0.49825955  0.89848719  0.87824181  1
  Ti  Ti146  1  0.61749976  0.61447784  0.50699966  1
  Ti  Ti147  1  0.52066335  0.71013209  0.38936385  1
  Ti  Ti148  1  0.19496800  -0.00895947  0.74238095  1
  Ti  Ti149  1  0.20186118  0.60565091  0.26183160  1
  Ti  Ti150  1  0.20776849  0.38936474  0.24814887  1
  Ti  Ti151  1  0.59522427  0.18821535  0.48781796  1
  Ti  Ti152  1  0.71764809  0.49321116  0.61688519  1
  Ti  Ti153  1  0.29562863  0.29580354  0.62990713  1
  Ti  Ti154  1  0.49808146  0.90323312  0.38973525  1
  Ti  Ti155  1  0.29474842  0.10329407  0.13230321  1
  Ti  Ti156  1  0.29728591  0.49532128  0.62223665  1
  Ti  Ti157  1  0.78423997  0.79638136  0.49581539  1
  Ti  Ti158  1  0.62001266  0.40996431  -0.00053573  1
  Ti  Ti159  1  0.21362213  0.60111650  -0.00151578  1
  Mo  Mo160  1  0.79395100  0.19868163  0.00197045  1
  Mo  Mo161  1  0.69859404  0.10511306  0.36646103  1
  Mo  Mo162  1  -0.00407517  0.18317950  -0.00838801  1
  Mo  Mo163  1  -0.00770073  0.59261988  0.49500064  1
  Mo  Mo164  1  0.69780921  0.32213305  0.86927497  1
  Mo  Mo165  1  0.30266726  0.90038406  0.38810020  1
  Mo  Mo166  1  0.19973381  0.21027469  0.24950637  1
  Mo  Mo167  1  0.70713838  0.11726666  0.86600104  1
  Mo  Mo168  1  0.51043759  0.28733203  0.62043806  1
  Mo  Mo169  1  0.49206560  0.11322914  0.38074778  1
  Mo  Mo170  1  -0.01704252  0.18315658  0.75500567  1
  Mo  Mo171  1  0.51077079  0.30271095  0.12714059  1
  Mo  Mo172  1  0.68362428  0.91882986  0.62070110  1
  Mo  Mo173  1  0.70185013  0.49655811  0.87105196  1
  Mo  Mo174  1  0.59914942  0.00894183  0.48527926  1
  Mo  Mo175  1  -0.01444980  -0.00575649  0.48948802  1
  Mo  Mo176  1  0.78819002  0.39842506  0.00687515  1
  Mo  Mo177  1  0.19319627  0.18845361  0.74513196  1
  Mo  Mo178  1  0.40130081  0.80695377  0.48287431  1
  Mo  Mo179  1  0.28962384  0.69523877  0.12985412  1
  Mo  Mo180  1  0.61389788  0.40632680  0.25876354  1
  Mo  Mo181  1  0.81435530  0.60406951  0.24235788  1
  Mo  Mo182  1  0.00597172  0.39430996  0.50185072  1
  Mo  Mo183  1  0.10489015  0.50171645  0.88615476  1
  Mo  Mo184  1  0.70079922  0.70644828  0.37864663  1
  Mo  Mo185  1  0.78317124  0.21203513  0.74487252  1
  Mo  Mo186  1  0.40481159  0.59169970  -0.00038597  1
  Mo  Mo187  1  0.50985108  0.71972102  0.60785327  1
  Mo  Mo188  1  0.50388039  0.09461281  0.86502593  1
  Mo  Mo189  1  0.70295774  0.29352636  0.61595979  1
  Mo  Mo190  1  0.90648439  0.50342674  0.37825387  1
  Mo  Mo191  1  0.30782615  0.30126309  0.86917915  1
  Mo  Mo192  1  0.00596351  0.20205451  0.49421993  1
  Mo  Mo193  1  0.70122550  0.90505790  0.12776333  1
  Mo  Mo194  1  0.29923048  0.69693551  0.38150290  1
  Mo  Mo195  1  0.79563702  0.80618973  -0.00526657  1
  Mo  Mo196  1  0.60274610  0.81193721  0.50663970  1
  Mo  Mo197  1  0.80114986  0.40946644  0.74271103  1
  Mo  Mo198  1  0.50576535  0.89990838  0.61441316  1
  Mo  Mo199  1  0.61346441  0.19131196  0.75394886  1
