# generated using pymatgen
data_HfZrTaTiMo
_symmetry_space_group_name_H-M   'P 1'
_cell_length_a   15.19362041
_cell_length_b   15.19296747
_cell_length_c   16.85294917
_cell_angle_alpha   89.97410979
_cell_angle_beta   90.01828903
_cell_angle_gamma   90.06669345
_symmetry_Int_Tables_number   1
_chemical_formula_structural   HfZrTaTiMo
_chemical_formula_sum   'Hf40 Zr40 Ta40 Ti40 Mo40'
_cell_volume   3890.26718999
_cell_formula_units_Z   40
loop_
 _symmetry_equiv_pos_site_id
 _symmetry_equiv_pos_as_xyz
  1  'x, y, z'
loop_
 _atom_site_type_symbol
 _atom_site_label
 _atom_site_symmetry_multiplicity
 _atom_site_fract_x
 _atom_site_fract_y
 _atom_site_fract_z
 _atom_site_occupancy
  Hf  Hf0  1  -0.00945456  0.80467152  0.75422366  1
  Hf  Hf1  1  0.30309434  0.89895917  0.63162352  1
  Hf  Hf2  1  0.18474868  0.19375655  0.25213327  1
  Hf  Hf3  1  0.70459149  0.70597379  0.62589448  1
  Hf  Hf4  1  0.50167103  0.10408708  0.88450759  1
  Hf  Hf5  1  0.39370498  0.20267777  0.25598446  1
  Hf  Hf6  1  0.91094549  0.89842146  0.35240709  1
  Hf  Hf7  1  -0.00237414  0.01299063  0.50737633  1
  Hf  Hf8  1  0.90856263  0.51471894  0.37136843  1
  Hf  Hf9  1  0.40247927  0.79869487  0.49734402  1
  Hf  Hf10  1  0.79962394  0.00899848  0.24208513  1
  Hf  Hf11  1  0.72032420  0.49141774  0.61303553  1
  Hf  Hf12  1  0.38618086  -0.01394551  -0.01000792  1
  Hf  Hf13  1  0.59605676  0.38759330  0.49037143  1
  Hf  Hf14  1  0.09999839  0.90064902  0.62630063  1
  Hf  Hf15  1  0.60931614  0.80365078  0.48737949  1
  Hf  Hf16  1  -0.00702849  0.40547403  0.50653361  1
  Hf  Hf17  1  0.28237865  0.09646978  0.11261284  1
  Hf  Hf18  1  0.29623893  0.49542866  0.38231643  1
  Hf  Hf19  1  0.01107407  0.20132534  -0.00472924  1
  Hf  Hf20  1  0.81403304  0.60253114  0.75449972  1
  Hf  Hf21  1  0.50577351  0.28261332  0.62554117  1
  Hf  Hf22  1  -0.03004194  0.80197114  0.49923341  1
  Hf  Hf23  1  0.50205311  0.88562265  0.14137481  1
  Hf  Hf24  1  0.90743507  0.90829131  0.89095254  1
  Hf  Hf25  1  0.90464322  0.30677692  0.87534171  1
  Hf  Hf26  1  0.29930997  0.29796272  0.12372496  1
  Hf  Hf27  1  0.80325921  0.19273517  0.76238950  1
  Hf  Hf28  1  0.49554883  0.48725270  0.86197133  1
  Hf  Hf29  1  0.72146399  0.90119704  0.62289738  1
  Hf  Hf30  1  0.90696180  0.29592573  0.12720601  1
  Hf  Hf31  1  0.79359444  0.18052440  0.49639298  1
  Hf  Hf32  1  0.69494591  0.10130417  0.11398206  1
  Hf  Hf33  1  0.39668198  0.18658103  0.74923558  1
  Hf  Hf34  1  0.20394457  0.39204102  0.50433603  1
  Hf  Hf35  1  0.09761044  0.29807555  0.63867431  1
  Hf  Hf36  1  0.41342568  0.78340440  -0.00223345  1
  Hf  Hf37  1  0.29968929  0.49602435  0.13554734  1
  Hf  Hf38  1  0.79910593  0.40092760  0.24596176  1
  Hf  Hf39  1  0.30811992  0.70205508  0.14111627  1
  Zr  Zr40  1  0.39769609  0.18982529  0.50396073  1
  Zr  Zr41  1  0.50932393  0.10396339  0.37028803  1
  Zr  Zr42  1  0.51186761  0.90980903  0.62956448  1
  Zr  Zr43  1  0.20803354  0.79943397  0.00030352  1
  Zr  Zr44  1  0.80305621  0.19823033  -0.00518100  1
  Zr  Zr45  1  0.60129987  0.81699631  0.76954388  1
  Zr  Zr46  1  0.50323490  0.30163279  0.12086815  1
  Zr  Zr47  1  0.59577053  -0.02043429  -0.00638196  1
  Zr  Zr48  1  0.21966889  0.59524040  0.00057039  1
  Zr  Zr49  1  0.11406212  0.49275159  0.87440057  1
  Zr  Zr50  1  -0.01239663  0.41256753  0.73952735  1
  Zr  Zr51  1  -0.01172609  0.01010238  0.74689689  1
  Zr  Zr52  1  0.49092071  0.09626991  0.11651642  1
  Zr  Zr53  1  0.89460344  0.29399773  0.62073185  1
  Zr  Zr54  1  0.90058640  0.70840815  0.11890905  1
  Zr  Zr55  1  0.17553274  -0.00383375  -0.01631016  1
  Zr  Zr56  1  0.10866172  0.91059560  0.37244483  1
  Zr  Zr57  1  0.50553598  0.49700695  0.62812433  1
  Zr  Zr58  1  0.00867619  0.61062926  0.76036712  1
  Zr  Zr59  1  0.58493504  0.59967050  -0.00365550  1
  Zr  Zr60  1  0.90217211  0.30190629  0.37831034  1
  Zr  Zr61  1  0.70142239  0.49245944  0.87799939  1
  Zr  Zr62  1  0.81303809  0.62899464  0.48916572  1
  Zr  Zr63  1  0.40155760  0.58722532  0.26165829  1
  Zr  Zr64  1  0.30246237  0.31361524  0.86708268  1
  Zr  Zr65  1  0.29028544  0.70648098  0.36921069  1
  Zr  Zr66  1  0.11565772  0.51361576  0.61733216  1
  Zr  Zr67  1  0.39892576  0.41940804  -0.00099616  1
  Zr  Zr68  1  0.90601691  0.50370595  0.89268574  1
  Zr  Zr69  1  0.68778474  0.69013548  0.13485518  1
  Zr  Zr70  1  0.78487884  -0.00654422  0.76688302  1
  Zr  Zr71  1  0.60632922  0.60124231  0.74951584  1
  Zr  Zr72  1  0.60875853  0.01150597  0.49095945  1
  Zr  Zr73  1  0.38635216  -0.00269031  0.25442776  1
  Zr  Zr74  1  0.60858610  0.19511560  0.24968267  1
  Zr  Zr75  1  0.11231169  0.10908772  0.63599740  1
  Zr  Zr76  1  0.59851804  0.40213177  0.26030835  1
  Zr  Zr77  1  0.59749533  0.60583490  0.49754804  1
  Zr  Zr78  1  0.08857555  0.70091412  0.61695276  1
  Zr  Zr79  1  0.69997225  0.29382224  0.62390315  1
  Ta  Ta80  1  0.79214039  0.60347395  0.00622479  1
  Ta  Ta81  1  0.70132557  0.88973916  0.13396765  1
  Ta  Ta82  1  0.40729230  -0.00970588  0.76406180  1
  Ta  Ta83  1  0.48733020  0.69108166  0.86570508  1
  Ta  Ta84  1  0.09891800  0.90597873  0.13363433  1
  Ta  Ta85  1  0.19671634  0.20553746  -0.00968746  1
  Ta  Ta86  1  0.07936113  0.70208680  0.37197026  1
  Ta  Ta87  1  0.51395805  0.50694641  0.13296481  1
  Ta  Ta88  1  0.50487846  0.70139910  0.35938936  1
  Ta  Ta89  1  0.20657254  -0.00323028  0.76013726  1
  Ta  Ta90  1  0.19929514  0.39833603  0.25732509  1
  Ta  Ta91  1  0.01272115  0.41251117  0.24394199  1
  Ta  Ta92  1  0.80820545  0.19894224  0.24823547  1
  Ta  Ta93  1  0.29375237  0.28696405  0.63288624  1
  Ta  Ta94  1  0.10528895  0.70862905  0.88088238  1
  Ta  Ta95  1  0.67716983  0.09703605  0.63442028  1
  Ta  Ta96  1  0.29666422  0.89604228  0.12788274  1
  Ta  Ta97  1  0.17951540  0.59250951  0.24871260  1
  Ta  Ta98  1  0.39795977  0.20758012  -0.01059288  1
  Ta  Ta99  1  0.89790560  0.70691793  0.90052345  1
  Ta  Ta100  1  0.01337879  0.60525353  0.00826855  1
  Ta  Ta101  1  0.09551738  0.30387528  0.37640654  1
  Ta  Ta102  1  0.29068699  0.10196377  0.87608238  1
  Ta  Ta103  1  0.29062653  0.69249122  0.61926843  1
  Ta  Ta104  1  0.10063244  0.50713317  0.38361483  1
  Ta  Ta105  1  0.69847162  0.28683810  0.38174355  1
  Ta  Ta106  1  0.80034473  -0.00896188  0.00714694  1
  Ta  Ta107  1  0.01187641  0.81413748  0.00230619  1
  Ta  Ta108  1  0.29452867  0.29158153  0.37854817  1
  Ta  Ta109  1  0.21690315  0.41452267  0.74104036  1
  Ta  Ta110  1  0.10447228  0.30214851  0.12929107  1
  Ta  Ta111  1  0.19626582  0.80117382  0.49576642  1
  Ta  Ta112  1  0.49742259  0.89490971  0.35886783  1
  Ta  Ta113  1  0.69641685  0.90389684  0.35289099  1
  Ta  Ta114  1  0.70954793  0.49611889  0.38397155  1
  Ta  Ta115  1  0.90428885  0.90478985  0.12740395  1
  Ta  Ta116  1  0.79952191  0.79400020  0.76895548  1
  Ta  Ta117  1  0.39808786  -0.00557776  0.49293925  1
  Ta  Ta118  1  0.28515771  0.09092051  0.37923184  1
  Ta  Ta119  1  0.39778254  0.60111240  0.49796677  1
  Ti  Ti120  1  0.08850108  0.10516573  0.85974742  1
  Ti  Ti121  1  -0.00287539  0.60741226  0.23693306  1
  Ti  Ti122  1  0.59979386  0.39450191  0.00210621  1
  Ti  Ti123  1  0.50109751  0.69486740  0.14904580  1
  Ti  Ti124  1  0.79774113  0.40216596  0.00754503  1
  Ti  Ti125  1  0.79611234  0.59203740  0.24387174  1
  Ti  Ti126  1  0.30754637  0.49999633  0.61437549  1
  Ti  Ti127  1  0.69835054  0.09512120  0.88824216  1
  Ti  Ti128  1  0.19783054  0.78805444  0.75432252  1
  Ti  Ti129  1  0.21001969  0.00178249  0.50562753  1
  Ti  Ti130  1  0.39381233  0.79008409  0.75217666  1
  Ti  Ti131  1  0.80574896  -0.01811262  0.48565510  1
  Ti  Ti132  1  0.10481205  0.29529004  0.85107309  1
  Ti  Ti133  1  0.40110503  0.39307915  0.26152637  1
  Ti  Ti134  1  0.88210700  0.08996198  0.62449752  1
  Ti  Ti135  1  0.19571236  0.39626115  0.00078847  1
  Ti  Ti136  1  0.40931583  0.39260170  0.74041410  1
  Ti  Ti137  1  0.61457298  0.79088371  -0.01636734  1
  Ti  Ti138  1  0.78727459  0.39748580  0.75549031  1
  Ti  Ti139  1  0.90050170  0.50237382  0.11901519  1
  Ti  Ti140  1  0.00439087  0.02870588  0.23687598  1
  Ti  Ti141  1  0.01021627  0.40478617  0.01189492  1
  Ti  Ti142  1  0.08945614  0.11167190  0.38100094  1
  Ti  Ti143  1  0.50362877  0.49985220  0.38032247  1
  Ti  Ti144  1  0.90483178  0.10496320  0.37259605  1
  Ti  Ti145  1  -0.00693438  0.01453668  0.01013637  1
  Ti  Ti146  1  0.29684120  0.88314563  0.86665819  1
  Ti  Ti147  1  0.19631591  0.80440417  0.25222897  1
  Ti  Ti148  1  0.68288187  0.29726542  0.87940247  1
  Ti  Ti149  1  0.10469861  0.70452136  0.12699248  1
  Ti  Ti150  1  0.38225164  0.59366026  0.74453751  1
  Ti  Ti151  1  0.91196401  0.53446203  0.61038675  1
  Ti  Ti152  1  0.19284281  0.19444157  0.50039617  1
  Ti  Ti153  1  0.59868364  0.19750082  0.75986980  1
  Ti  Ti154  1  0.49079045  0.70022467  0.63126725  1
  Ti  Ti155  1  0.69901614  0.30431710  0.11959823  1
  Ti  Ti156  1  0.40061396  0.39185738  0.49966440  1
  Ti  Ti157  1  0.70404186  0.69787801  0.35847120  1
  Ti  Ti158  1  0.80724487  0.79381951  0.24825259  1
  Ti  Ti159  1  0.19427848  0.00059305  0.24749050  1
  Mo  Mo160  1  0.90290582  0.09961836  0.12449024  1
  Mo  Mo161  1  0.88586216  0.72047261  0.62869362  1
  Mo  Mo162  1  0.30531845  0.08901156  0.62791301  1
  Mo  Mo163  1  0.89906410  0.10365745  0.88309952  1
  Mo  Mo164  1  0.60038323  0.19246333  0.49833121  1
  Mo  Mo165  1  0.09458927  0.10552767  0.12232292  1
  Mo  Mo166  1  0.40761088  0.60291668  0.00533890  1
  Mo  Mo167  1  0.78839441  0.81181927  0.47830337  1
  Mo  Mo168  1  0.60339716  -0.00398027  0.24542671  1
  Mo  Mo169  1  0.00488331  0.19785994  0.49753820  1
  Mo  Mo170  1  0.70582418  0.69671691  0.88044658  1
  Mo  Mo171  1  0.59620235  0.01240916  0.76276185  1
  Mo  Mo172  1  0.89895919  0.70395632  0.34974033  1
  Mo  Mo173  1  0.09648345  0.49828589  0.12368085  1
  Mo  Mo174  1  0.70357408  0.89651679  0.88696330  1
  Mo  Mo175  1  0.20932272  0.60689472  0.75282206  1
  Mo  Mo176  1  0.49396369  0.08827471  0.63051822  1
  Mo  Mo177  1  0.60013035  0.20779040  -0.00410357  1
  Mo  Mo178  1  -0.00600261  0.20103005  0.75911437  1
  Mo  Mo179  1  0.70494857  0.49022457  0.11764700  1
  Mo  Mo180  1  0.79666522  0.80386406  0.00427438  1
  Mo  Mo181  1  0.49065874  0.89100261  0.87202153  1
  Mo  Mo182  1  0.48883271  0.30429146  0.38026162  1
  Mo  Mo183  1  0.71718339  0.09901012  0.36892796  1
  Mo  Mo184  1  0.20608703  0.60901276  0.49230199  1
  Mo  Mo185  1  0.30817365  0.50979224  0.86489335  1
  Mo  Mo186  1  0.89497613  0.89817773  0.62513578  1
  Mo  Mo187  1  0.00974272  0.80310430  0.23836835  1
  Mo  Mo188  1  0.39296699  0.79960195  0.25563875  1
  Mo  Mo189  1  0.20262692  0.19927306  0.75713177  1
  Mo  Mo190  1  0.60534700  0.79553546  0.25711693  1
  Mo  Mo191  1  0.00468017  0.61139024  0.49251505  1
  Mo  Mo192  1  0.60891625  0.58837380  0.26152193  1
  Mo  Mo193  1  0.50624663  0.29927502  0.87283008  1
  Mo  Mo194  1  0.79867957  0.40448123  0.49112466  1
  Mo  Mo195  1  0.29713119  0.90335317  0.38195591  1
  Mo  Mo196  1  0.10340645  0.89929766  0.86538736  1
  Mo  Mo197  1  -0.00142903  0.20762829  0.25080114  1
  Mo  Mo198  1  0.30339592  0.69313023  0.86670859  1
  Mo  Mo199  1  0.60372562  0.38755303  0.74973059  1
