# generated using pymatgen
data_HfZrTaTiMo
_symmetry_space_group_name_H-M   'P 1'
_cell_length_a   15.20234339
_cell_length_b   15.21421721
_cell_length_c   16.84416615
_cell_angle_alpha   89.93624892
_cell_angle_beta   89.96237673
_cell_angle_gamma   89.89309691
_symmetry_Int_Tables_number   1
_chemical_formula_structural   HfZrTaTiMo
_chemical_formula_sum   'Hf40 Zr40 Ta40 Ti40 Mo40'
_cell_volume   3895.90671213
_cell_formula_units_Z   40
loop_
 _symmetry_equiv_pos_site_id
 _symmetry_equiv_pos_as_xyz
  1  'x, y, z'
loop_
 _atom_site_type_symbol
 _atom_site_label
 _atom_site_symmetry_multiplicity
 _atom_site_fract_x
 _atom_site_fract_y
 _atom_site_fract_z
 _atom_site_occupancy
  Hf  Hf0  1  0.50402204  0.11832120  0.37344100  1
  Hf  Hf1  1  0.00674298  0.20668243  0.48966306  1
  Hf  Hf2  1  0.60412999  0.59872588  0.00164480  1
  Hf  Hf3  1  -0.00461262  0.80422087  0.74888782  1
  Hf  Hf4  1  0.50023734  0.70237973  0.35453924  1
  Hf  Hf5  1  0.29536415  0.70676752  0.38525367  1
  Hf  Hf6  1  0.19264453  0.39615393  0.24731424  1
  Hf  Hf7  1  0.60211402  0.00029004  0.00904908  1
  Hf  Hf8  1  0.10166795  0.49242449  0.11683322  1
  Hf  Hf9  1  0.59620026  0.39879554  -0.01817440  1
  Hf  Hf10  1  0.70794124  0.50359465  0.63472939  1
  Hf  Hf11  1  0.70142500  0.28854994  0.86960644  1
  Hf  Hf12  1  0.10346319  0.89158635  0.37709520  1
  Hf  Hf13  1  0.89881851  0.32402769  0.37365630  1
  Hf  Hf14  1  0.38236505  0.42215226  0.76623309  1
  Hf  Hf15  1  0.00327474  0.18900492  0.01374870  1
  Hf  Hf16  1  0.29259765  0.32044847  0.63243830  1
  Hf  Hf17  1  0.39399948  0.00742387  0.24766394  1
  Hf  Hf18  1  0.78520796  0.22295083  0.25252565  1
  Hf  Hf19  1  0.30515463  0.09988799  0.37440384  1
  Hf  Hf20  1  0.69573307  0.89649225  0.88329939  1
  Hf  Hf21  1  0.28958827  0.11767186  0.87508654  1
  Hf  Hf22  1  0.69848914  0.29717909  0.63196866  1
  Hf  Hf23  1  0.51447886  0.48963637  0.35766181  1
  Hf  Hf24  1  0.49988854  0.89934973  0.13338465  1
  Hf  Hf25  1  0.50611896  0.49235952  0.12993967  1
  Hf  Hf26  1  0.30255079  0.68951690  0.61831573  1
  Hf  Hf27  1  0.21011306  0.79173332  0.75460263  1
  Hf  Hf28  1  0.79771707  0.00526400  0.25376932  1
  Hf  Hf29  1  0.90444249  0.30227197  0.62467249  1
  Hf  Hf30  1  0.30257237  0.50100781  0.36799841  1
  Hf  Hf31  1  0.09807990  0.69870309  0.38257747  1
  Hf  Hf32  1  0.48689575  0.70717570  0.86930805  1
  Hf  Hf33  1  0.10677376  0.49234235  0.64264418  1
  Hf  Hf34  1  0.49926160  0.09850633  0.87560543  1
  Hf  Hf35  1  0.40396015  0.00461510  0.74665587  1
  Hf  Hf36  1  0.37684605  0.80076762  0.24119307  1
  Hf  Hf37  1  0.79546535  0.20741713  0.49195772  1
  Hf  Hf38  1  0.80527473  -0.00040586  0.48592750  1
  Hf  Hf39  1  0.61138981  -0.01161057  0.74592290  1
  Zr  Zr40  1  0.00681844  0.38554625  -0.01432258  1
  Zr  Zr41  1  0.69548558  0.88948330  0.37207803  1
  Zr  Zr42  1  0.09891928  0.90401890  0.87844237  1
  Zr  Zr43  1  0.30388635  0.11765706  0.63627162  1
  Zr  Zr44  1  0.39699067  0.61330174  0.01588552  1
  Zr  Zr45  1  0.59311052  0.79432721  0.01325491  1
  Zr  Zr46  1  0.48935714  0.51289821  0.63623127  1
  Zr  Zr47  1  0.60270236  0.41273362  0.76816780  1
  Zr  Zr48  1  0.89585230  0.89928173  0.88601855  1
  Zr  Zr49  1  0.69100025  0.69608666  0.86694751  1
  Zr  Zr50  1  0.19906523  0.61378962  0.23834612  1
  Zr  Zr51  1  0.69561953  0.11427306  0.12936859  1
  Zr  Zr52  1  -0.00310483  0.00428224  0.49290131  1
  Zr  Zr53  1  0.09546343  0.90013499  0.62414538  1
  Zr  Zr54  1  0.00782321  0.21874499  0.24313626  1
  Zr  Zr55  1  0.19741287  0.58771057  0.50341360  1
  Zr  Zr56  1  0.20609131  0.20533988  0.49481683  1
  Zr  Zr57  1  0.40289379  0.37861308  0.24459841  1
  Zr  Zr58  1  0.21744433  0.20401734  0.23743102  1
  Zr  Zr59  1  -0.01356945  0.58885132  0.50726387  1
  Zr  Zr60  1  0.00051472  0.59294768  -0.00461546  1
  Zr  Zr61  1  0.70169674  0.68767014  0.36172341  1
  Zr  Zr62  1  0.49043689  0.29820428  0.64425836  1
  Zr  Zr63  1  0.59329356  0.38989739  0.50474307  1
  Zr  Zr64  1  0.30434181  0.90407936  0.88201024  1
  Zr  Zr65  1  0.00572916  0.79111500  0.00287093  1
  Zr  Zr66  1  0.89244843  0.69654139  0.13234311  1
  Zr  Zr67  1  0.78948582  0.80592268  0.74577642  1
  Zr  Zr68  1  0.81908203  -0.00126485  0.73950813  1
  Zr  Zr69  1  0.68240058  0.70075369  0.62941352  1
  Zr  Zr70  1  0.80982621  0.19461305  0.75176793  1
  Zr  Zr71  1  0.70957495  0.47816451  0.12624722  1
  Zr  Zr72  1  0.89670581  0.70324834  0.37458799  1
  Zr  Zr73  1  0.80788871  -0.00208437  0.01609264  1
  Zr  Zr74  1  0.88834611  0.69611094  0.62496792  1
  Zr  Zr75  1  0.40792496  0.00720246  0.50299962  1
  Zr  Zr76  1  0.10296261  0.09754960  0.35833172  1
  Zr  Zr77  1  0.60759589  0.59201826  0.49259245  1
  Zr  Zr78  1  0.68669090  0.69149516  0.15214081  1
  Zr  Zr79  1  0.29990977  0.89939292  0.61704872  1
  Ta  Ta80  1  0.80623272  0.20209244  -0.00289567  1
  Ta  Ta81  1  0.30196285  0.09997064  0.11573088  1
  Ta  Ta82  1  0.11016848  0.88441528  0.12423291  1
  Ta  Ta83  1  0.90358129  0.10299914  0.14055805  1
  Ta  Ta84  1  0.51146458  0.10437127  0.62525890  1
  Ta  Ta85  1  0.08747084  0.49210481  0.36893906  1
  Ta  Ta86  1  0.29642950  0.89767724  0.38736502  1
  Ta  Ta87  1  0.40881902  0.59653739  0.49420702  1
  Ta  Ta88  1  0.40663126  0.80349632  0.74491636  1
  Ta  Ta89  1  0.39957595  0.00447612  0.00372819  1
  Ta  Ta90  1  0.10054866  0.29506565  0.63548618  1
  Ta  Ta91  1  0.01185649  0.18273691  0.75351248  1
  Ta  Ta92  1  0.19476408  0.39582654  0.49215880  1
  Ta  Ta93  1  0.09892845  0.69324066  0.63539938  1
  Ta  Ta94  1  0.19442789  0.20652356  0.01571661  1
  Ta  Ta95  1  0.60173209  0.19819529  -0.00764732  1
  Ta  Ta96  1  0.90237632  0.69570382  0.86829707  1
  Ta  Ta97  1  0.00709701  0.40108881  0.50290372  1
  Ta  Ta98  1  0.28176618  0.52265200  0.89312493  1
  Ta  Ta99  1  0.39703401  0.59910450  0.23095724  1
  Ta  Ta100  1  0.80542524  0.39962593  -0.02175018  1
  Ta  Ta101  1  0.59908559  0.18730317  0.75565901  1
  Ta  Ta102  1  0.00062293  0.38413574  0.76703026  1
  Ta  Ta103  1  0.88685352  0.30887710  0.12046994  1
  Ta  Ta104  1  -0.00008327  0.59419097  0.24626536  1
  Ta  Ta105  1  0.51195167  0.89535031  0.61976437  1
  Ta  Ta106  1  0.90602570  0.89647942  0.35534058  1
  Ta  Ta107  1  0.90865050  0.89963629  0.14348910  1
  Ta  Ta108  1  0.49350055  0.10932785  0.12370608  1
  Ta  Ta109  1  0.11167075  0.67569083  0.86274866  1
  Ta  Ta110  1  0.10937581  0.27598419  0.87399726  1
  Ta  Ta111  1  0.70040696  0.09809975  0.61500770  1
  Ta  Ta112  1  0.79860722  0.59115016  0.76212572  1
  Ta  Ta113  1  0.51038912  0.29753451  0.11168891  1
  Ta  Ta114  1  0.19960525  0.00173084  0.50079389  1
  Ta  Ta115  1  0.10348492  0.10405210  0.62522252  1
  Ta  Ta116  1  0.59568081  0.00591178  0.25077653  1
  Ta  Ta117  1  0.70532557  0.89794187  0.60366673  1
  Ta  Ta118  1  0.91944311  0.09668183  0.87975492  1
  Ta  Ta119  1  0.80461606  0.42262982  0.49991639  1
  Ti  Ti120  1  0.29682205  0.49642231  0.10700190  1
  Ti  Ti121  1  0.00336881  -0.00203218  0.01771313  1
  Ti  Ti122  1  0.48708231  0.29551879  0.86959747  1
  Ti  Ti123  1  0.90526768  0.49562026  0.64317270  1
  Ti  Ti124  1  0.29837435  0.31253317  0.88953990  1
  Ti  Ti125  1  0.31167733  0.29751415  0.37554905  1
  Ti  Ti126  1  -0.01022128  0.80346983  0.50809331  1
  Ti  Ti127  1  0.70699445  0.88975315  0.14383395  1
  Ti  Ti128  1  0.80065165  0.59429669  -0.01298317  1
  Ti  Ti129  1  0.40527594  0.79839089  0.50000818  1
  Ti  Ti130  1  0.59972568  0.00472825  0.49475100  1
  Ti  Ti131  1  0.80633701  0.57706232  0.25518998  1
  Ti  Ti132  1  0.71103859  0.09084103  0.87905169  1
  Ti  Ti133  1  0.68112779  0.30848202  0.37827802  1
  Ti  Ti134  1  0.30646988  0.30927519  0.10670175  1
  Ti  Ti135  1  0.39268005  0.80312656  0.01005757  1
  Ti  Ti136  1  0.19318897  0.00455910  0.00282034  1
  Ti  Ti137  1  0.10340358  0.08717363  0.13796791  1
  Ti  Ti138  1  0.40155567  0.20661951  -0.00125743  1
  Ti  Ti139  1  0.89787753  0.49590116  0.11682226  1
  Ti  Ti140  1  0.59516237  0.79849407  0.49361672  1
  Ti  Ti141  1  0.58454457  0.21660815  0.24708744  1
  Ti  Ti142  1  0.49984716  0.89950431  0.87875247  1
  Ti  Ti143  1  0.90875787  0.09657124  0.62007343  1
  Ti  Ti144  1  0.80824665  0.39761941  0.76742110  1
  Ti  Ti145  1  -0.01046982  0.40869027  0.24250864  1
  Ti  Ti146  1  0.19374480  0.40068266  0.76931057  1
  Ti  Ti147  1  0.18202127  0.01696263  0.75505210  1
  Ti  Ti148  1  0.49625929  0.70319385  0.63294318  1
  Ti  Ti149  1  0.49496136  0.90211801  0.36927558  1
  Ti  Ti150  1  0.90399797  0.10494818  0.35716282  1
  Ti  Ti151  1  0.29089248  0.90296981  0.11246964  1
  Ti  Ti152  1  0.69384996  0.10852419  0.37316541  1
  Ti  Ti153  1  0.41426700  0.21517424  0.50307744  1
  Ti  Ti154  1  0.79593896  0.78987230  0.00818576  1
  Ti  Ti155  1  0.01430072  0.79304963  0.24423477  1
  Ti  Ti156  1  0.20277453  -0.01796471  0.24576398  1
  Ti  Ti157  1  0.48925367  0.51451957  0.87555939  1
  Ti  Ti158  1  0.91114971  0.50239867  0.86512197  1
  Ti  Ti159  1  0.39446123  0.40641441  0.49643598  1
  Mo  Mo160  1  0.40134697  0.20112260  0.23654546  1
  Mo  Mo161  1  0.59074963  0.80848494  0.25040874  1
  Mo  Mo162  1  0.38285405  0.61366797  0.75801373  1
  Mo  Mo163  1  0.80680494  0.39744386  0.24801089  1
  Mo  Mo164  1  0.09709539  0.69929434  0.12531712  1
  Mo  Mo165  1  0.80546179  0.80154142  0.24679629  1
  Mo  Mo166  1  0.49413518  0.69954792  0.14246860  1
  Mo  Mo167  1  0.80192697  0.80298823  0.49983842  1
  Mo  Mo168  1  0.61541831  0.38292550  0.24837487  1
  Mo  Mo169  1  0.70608986  0.50137054  0.87533311  1
  Mo  Mo170  1  0.10175719  0.09376390  0.88573421  1
  Mo  Mo171  1  0.89484774  0.89998579  0.61256811  1
  Mo  Mo172  1  0.19850878  0.80771043  0.25038478  1
  Mo  Mo173  1  0.10199251  0.30101186  0.12066062  1
  Mo  Mo174  1  0.21173317  0.58962847  0.74760923  1
  Mo  Mo175  1  0.28321275  0.71305751  0.11722962  1
  Mo  Mo176  1  0.39931986  0.40297177  -0.01169547  1
  Mo  Mo177  1  0.30242549  0.49673915  0.62061033  1
  Mo  Mo178  1  0.58861574  0.80962051  0.74584738  1
  Mo  Mo179  1  0.49403179  0.29830913  0.37991170  1
  Mo  Mo180  1  0.90534667  0.28846751  0.87515110  1
  Mo  Mo181  1  0.79742619  0.59622952  0.50216281  1
  Mo  Mo182  1  0.10292214  0.49214533  0.86789698  1
  Mo  Mo183  1  0.69872024  0.29977799  0.10799286  1
  Mo  Mo184  1  0.00125432  0.00357491  0.74581125  1
  Mo  Mo185  1  0.29777578  0.70685210  0.87976275  1
  Mo  Mo186  1  0.20540451  0.78997340  -0.00628976  1
  Mo  Mo187  1  0.19849910  0.20987331  0.75298720  1
  Mo  Mo188  1  0.59668055  0.58663853  0.25010395  1
  Mo  Mo189  1  0.00083484  0.59580187  0.75192524  1
  Mo  Mo190  1  0.19207152  0.61148444  0.00796520  1
  Mo  Mo191  1  0.58704118  0.60524398  0.75566041  1
  Mo  Mo192  1  0.71644579  0.48497515  0.36766670  1
  Mo  Mo193  1  0.60216153  0.19292076  0.50404484  1
  Mo  Mo194  1  0.20329413  0.39943803  -0.00667161  1
  Mo  Mo195  1  0.00727081  -0.00338162  0.24101105  1
  Mo  Mo196  1  0.10434911  0.31173085  0.37393623  1
  Mo  Mo197  1  0.89979379  0.50790116  0.37248335  1
  Mo  Mo198  1  0.19204160  0.80007828  0.50746490  1
  Mo  Mo199  1  0.40165679  0.20981737  0.75996612  1
