# generated using pymatgen
data_HfZrTaTiMo
_symmetry_space_group_name_H-M   'P 1'
_cell_length_a   15.20359980
_cell_length_b   15.21105295
_cell_length_c   16.82341447
_cell_angle_alpha   89.98192417
_cell_angle_beta   90.02489065
_cell_angle_gamma   89.97399751
_symmetry_Int_Tables_number   1
_chemical_formula_structural   HfZrTaTiMo
_chemical_formula_sum   'Hf40 Zr40 Ta40 Ti40 Mo40'
_cell_volume   3890.62833094
_cell_formula_units_Z   40
loop_
 _symmetry_equiv_pos_site_id
 _symmetry_equiv_pos_as_xyz
  1  'x, y, z'
loop_
 _atom_site_type_symbol
 _atom_site_label
 _atom_site_symmetry_multiplicity
 _atom_site_fract_x
 _atom_site_fract_y
 _atom_site_fract_z
 _atom_site_occupancy
  Hf  Hf0  1  0.09762621  0.71716165  0.89790347  1
  Hf  Hf1  1  -0.00610930  0.59301858  0.49248353  1
  Hf  Hf2  1  0.00332006  0.00137018  0.00996674  1
  Hf  Hf3  1  -0.01026766  0.59847754  -0.00440876  1
  Hf  Hf4  1  0.50566717  0.90341017  0.12445421  1
  Hf  Hf5  1  0.20318387  0.39523887  0.24615485  1
  Hf  Hf6  1  0.20645476  0.80609661  0.74610758  1
  Hf  Hf7  1  0.69710351  0.11160682  0.11928160  1
  Hf  Hf8  1  0.29408333  0.69584627  0.61142361  1
  Hf  Hf9  1  0.50728065  0.69607350  0.12381095  1
  Hf  Hf10  1  0.80738219  -0.01013232  0.49963844  1
  Hf  Hf11  1  0.78251694  0.60399492  0.24194153  1
  Hf  Hf12  1  0.78626475  -0.00557163  0.23687979  1
  Hf  Hf13  1  0.60610876  0.40469774  0.26660682  1
  Hf  Hf14  1  0.60817905  0.00300939  -0.00867019  1
  Hf  Hf15  1  0.80395708  0.79403879  0.00306930  1
  Hf  Hf16  1  0.01057746  0.38994788  0.24799806  1
  Hf  Hf17  1  0.40953045  0.57981429  0.51732658  1
  Hf  Hf18  1  0.59368293  0.40223323  0.49724093  1
  Hf  Hf19  1  0.78522458  0.39047309  0.73987368  1
  Hf  Hf20  1  0.39675795  0.20456842  -0.01027311  1
  Hf  Hf21  1  0.50991187  0.70296011  0.38938967  1
  Hf  Hf22  1  0.90987106  0.88592896  0.87760787  1
  Hf  Hf23  1  0.89611331  0.49592187  0.37178436  1
  Hf  Hf24  1  0.79891058  0.20438494  0.49938723  1
  Hf  Hf25  1  0.39597353  -0.00008506  -0.00812225  1
  Hf  Hf26  1  0.28048192  0.09663445  0.87340776  1
  Hf  Hf27  1  0.50601528  0.91070688  0.39215468  1
  Hf  Hf28  1  0.01346991  0.39952938  0.50284778  1
  Hf  Hf29  1  0.90597079  0.89881948  0.34686825  1
  Hf  Hf30  1  0.39989987  0.39661599  0.25597673  1
  Hf  Hf31  1  0.78579540  0.59601655  0.00081398  1
  Hf  Hf32  1  0.58638877  0.00378646  0.25274575  1
  Hf  Hf33  1  0.50471959  0.30478358  0.11512438  1
  Hf  Hf34  1  0.19872650  0.40456203  0.76327997  1
  Hf  Hf35  1  0.20059053  0.20027471  0.51534155  1
  Hf  Hf36  1  0.49978508  0.50357869  0.13007979  1
  Hf  Hf37  1  0.40866175  0.79960767  0.73362399  1
  Hf  Hf38  1  0.88948218  0.70724961  0.36410851  1
  Hf  Hf39  1  0.60195151  0.21273610  0.75232362  1
  Zr  Zr40  1  0.30480506  0.69804560  0.87885281  1
  Zr  Zr41  1  0.00727828  0.59629164  0.24595164  1
  Zr  Zr42  1  0.89722981  0.69638322  0.62495333  1
  Zr  Zr43  1  0.69550600  0.71134977  0.61995512  1
  Zr  Zr44  1  0.28971649  0.48474218  0.38908301  1
  Zr  Zr45  1  0.00510025  0.79000024  0.75561029  1
  Zr  Zr46  1  0.50422461  0.70184414  0.86784564  1
  Zr  Zr47  1  0.40272336  0.41809292  -0.01187488  1
  Zr  Zr48  1  0.21800050  0.79702274  0.23958411  1
  Zr  Zr49  1  0.50645947  0.11978736  0.61404569  1
  Zr  Zr50  1  0.19279963  0.59957288  0.75254761  1
  Zr  Zr51  1  0.19559025  0.00150727  0.50910589  1
  Zr  Zr52  1  0.80599769  0.39600895  0.00222718  1
  Zr  Zr53  1  0.79935301  0.39672621  0.24813783  1
  Zr  Zr54  1  0.90675973  0.27705325  0.12353861  1
  Zr  Zr55  1  0.78849942  0.18878100  0.74517727  1
  Zr  Zr56  1  0.40348293  -0.00415057  0.74931438  1
  Zr  Zr57  1  -0.00299887  0.81243786  0.49565441  1
  Zr  Zr58  1  0.18504685  0.19676002  0.23605225  1
  Zr  Zr59  1  0.80194636  0.19772450  0.26298166  1
  Zr  Zr60  1  0.09728935  0.69454525  0.61458117  1
  Zr  Zr61  1  0.41685673  0.80000182  0.25197791  1
  Zr  Zr62  1  0.10778847  0.70167771  0.38245683  1
  Zr  Zr63  1  0.38963777  0.19758831  0.24358645  1
  Zr  Zr64  1  0.20246750  0.59398742  0.24828093  1
  Zr  Zr65  1  0.00245990  0.03488589  0.22898145  1
  Zr  Zr66  1  0.10524518  0.90917825  0.35320084  1
  Zr  Zr67  1  0.88928940  0.49575000  0.86924166  1
  Zr  Zr68  1  0.40511157  0.80362325  -0.00141377  1
  Zr  Zr69  1  0.40417663  0.20250085  0.76281111  1
  Zr  Zr70  1  0.78514416  0.59231535  0.74693625  1
  Zr  Zr71  1  0.91077222  0.08887869  0.85912097  1
  Zr  Zr72  1  0.70423240  0.88129297  0.38333713  1
  Zr  Zr73  1  0.68323276  0.09395617  0.39292656  1
  Zr  Zr74  1  0.89664990  0.89819651  0.63805333  1
  Zr  Zr75  1  0.59561884  0.21318571  0.26891046  1
  Zr  Zr76  1  0.30298368  0.69487020  0.40179084  1
  Zr  Zr77  1  0.30233032  0.89870581  0.38547856  1
  Zr  Zr78  1  0.00051841  0.00941452  0.49668902  1
  Zr  Zr79  1  0.49499182  0.10727089  0.11758033  1
  Ta  Ta80  1  0.90065164  0.09865987  0.63458172  1
  Ta  Ta81  1  0.59499033  0.60115781  -0.00416050  1
  Ta  Ta82  1  0.10572455  0.11605900  0.37394529  1
  Ta  Ta83  1  0.80241139  0.40329905  0.50936228  1
  Ta  Ta84  1  0.39291788  0.00610931  0.51548024  1
  Ta  Ta85  1  0.29624276  0.30054534  0.87250476  1
  Ta  Ta86  1  0.40935946  0.58996993  0.73060598  1
  Ta  Ta87  1  0.30454166  0.69497295  0.11017326  1
  Ta  Ta88  1  0.19218985  0.19831963  0.74652474  1
  Ta  Ta89  1  0.89953342  0.29124740  0.86708927  1
  Ta  Ta90  1  0.80270915  -0.00455015  0.00622009  1
  Ta  Ta91  1  0.70263089  0.89944489  0.87221353  1
  Ta  Ta92  1  0.60986553  0.00692147  0.75281803  1
  Ta  Ta93  1  0.39541916  0.60148676  0.25525341  1
  Ta  Ta94  1  0.10370816  0.70311615  0.10825256  1
  Ta  Ta95  1  0.69715821  0.30105318  0.88082588  1
  Ta  Ta96  1  0.19835003  0.39998067  -0.01622583  1
  Ta  Ta97  1  0.11285466  0.90513537  0.13169655  1
  Ta  Ta98  1  0.31115185  0.29811836  0.63843209  1
  Ta  Ta99  1  0.90137489  0.70043292  0.13136793  1
  Ta  Ta100  1  0.90487788  0.29464007  0.62925094  1
  Ta  Ta101  1  0.69515418  0.30168170  0.11351252  1
  Ta  Ta102  1  0.69770555  0.69584295  0.86844186  1
  Ta  Ta103  1  0.10582372  0.49284417  0.10844659  1
  Ta  Ta104  1  0.90938184  0.49365534  0.63280806  1
  Ta  Ta105  1  -0.00103697  0.19434491  -0.00683392  1
  Ta  Ta106  1  0.47310911  0.11325017  0.39352799  1
  Ta  Ta107  1  0.90397585  0.89448009  0.13240729  1
  Ta  Ta108  1  0.69878039  0.50975735  0.38667575  1
  Ta  Ta109  1  0.30291938  0.27451847  0.38308103  1
  Ta  Ta110  1  0.09543086  0.28582539  0.86911819  1
  Ta  Ta111  1  0.00079300  0.39803248  0.75574802  1
  Ta  Ta112  1  0.29187190  0.30573219  0.10882355  1
  Ta  Ta113  1  0.38125120  0.00202811  0.25005436  1
  Ta  Ta114  1  0.00726768  0.39167503  -0.00888716  1
  Ta  Ta115  1  0.00076666  0.20116800  0.50622467  1
  Ta  Ta116  1  0.10235443  0.90403300  0.63080051  1
  Ta  Ta117  1  0.30220875  0.50335461  0.11794438  1
  Ta  Ta118  1  0.60725600  0.41159575  -0.00785337  1
  Ta  Ta119  1  0.10287326  0.30898057  0.63319495  1
  Ti  Ti120  1  0.19706139  -0.00309769  0.00345786  1
  Ti  Ti121  1  0.51645197  0.10886101  0.87847707  1
  Ti  Ti122  1  0.00230365  0.59345262  0.76716015  1
  Ti  Ti123  1  0.69160322  0.50095000  0.12599819  1
  Ti  Ti124  1  0.90662109  0.29605911  0.37989929  1
  Ti  Ti125  1  0.69958192  0.90395850  0.61826724  1
  Ti  Ti126  1  0.18505764  0.55997540  0.51153863  1
  Ti  Ti127  1  0.20729006  0.59374558  -0.00630838  1
  Ti  Ti128  1  0.50769962  0.90169873  0.87026220  1
  Ti  Ti129  1  0.19400678  -0.00079219  0.74683550  1
  Ti  Ti130  1  0.51509147  0.90734056  0.61783868  1
  Ti  Ti131  1  0.79730775  0.79505402  0.76116067  1
  Ti  Ti132  1  0.69644643  0.09391696  0.61095586  1
  Ti  Ti133  1  0.59374482  0.60504471  0.25775886  1
  Ti  Ti134  1  0.31117380  0.50654342  0.86844600  1
  Ti  Ti135  1  0.50896995  0.51150480  0.86260258  1
  Ti  Ti136  1  0.90759573  0.10264900  0.37436681  1
  Ti  Ti137  1  0.40723366  0.80588657  0.51996939  1
  Ti  Ti138  1  0.50371253  0.31615597  0.87374731  1
  Ti  Ti139  1  0.10811189  0.30596880  0.38302247  1
  Ti  Ti140  1  0.29764157  0.09812167  0.63775481  1
  Ti  Ti141  1  0.79569980  0.18728187  -0.01398544  1
  Ti  Ti142  1  0.28681477  0.09119646  0.11692753  1
  Ti  Ti143  1  0.68317531  0.29748543  0.61353588  1
  Ti  Ti144  1  0.29478314  0.89382606  0.87648686  1
  Ti  Ti145  1  0.62613949  0.79643644  0.24154873  1
  Ti  Ti146  1  0.08622798  0.10414172  0.63921733  1
  Ti  Ti147  1  0.90397641  0.49533827  0.12428794  1
  Ti  Ti148  1  0.61341941  0.79992581  0.00070089  1
  Ti  Ti149  1  0.60423478  0.80679532  0.74550022  1
  Ti  Ti150  1  0.79721663  0.59599078  0.50786586  1
  Ti  Ti151  1  0.60068144  0.59721101  0.51701556  1
  Ti  Ti152  1  0.79346292  -0.00814422  0.75017035  1
  Ti  Ti153  1  0.59277427  0.41872166  0.73898366  1
  Ti  Ti154  1  0.69989744  0.69689782  0.39110831  1
  Ti  Ti155  1  0.49570573  0.50510433  0.37679910  1
  Ti  Ti156  1  0.18652755  0.19935153  0.00177079  1
  Ti  Ti157  1  0.39973906  0.37853065  0.50359886  1
  Ti  Ti158  1  0.29793478  0.48089371  0.62962114  1
  Ti  Ti159  1  0.10501789  0.91648309  0.87664792  1
  Mo  Mo160  1  0.69940843  0.89751521  0.11706427  1
  Mo  Mo161  1  0.29110526  0.09394472  0.37760600  1
  Mo  Mo162  1  0.00722993  0.79768576  0.22789185  1
  Mo  Mo163  1  0.10273640  0.09782993  0.87110222  1
  Mo  Mo164  1  0.68150926  0.49771451  0.87103831  1
  Mo  Mo165  1  0.09389452  0.49426789  0.63580380  1
  Mo  Mo166  1  0.89132452  0.10139833  0.11336017  1
  Mo  Mo167  1  0.69396403  0.69661781  0.12156447  1
  Mo  Mo168  1  0.59662856  0.00260159  0.50850400  1
  Mo  Mo169  1  0.38914227  0.20074317  0.51031516  1
  Mo  Mo170  1  0.20249443  0.81389525  0.00915606  1
  Mo  Mo171  1  0.00234861  0.80496631  0.01812883  1
  Mo  Mo172  1  0.09822710  0.11290761  0.11250261  1
  Mo  Mo173  1  0.70435364  0.09342493  0.87701378  1
  Mo  Mo174  1  -0.00023494  0.21101245  0.25985357  1
  Mo  Mo175  1  0.89283423  0.69910759  0.87444756  1
  Mo  Mo176  1  0.10104504  0.49824667  0.88781126  1
  Mo  Mo177  1  -0.00017533  0.20377279  0.74252281  1
  Mo  Mo178  1  0.10075034  0.48971884  0.37693465  1
  Mo  Mo179  1  0.49260505  0.30177350  0.38106370  1
  Mo  Mo180  1  0.20649053  0.81260036  0.51373221  1
  Mo  Mo181  1  0.59118248  0.21317131  0.48996368  1
  Mo  Mo182  1  0.40164902  0.40385299  0.76093040  1
  Mo  Mo183  1  0.79751954  0.79576109  0.23503649  1
  Mo  Mo184  1  0.00758165  -0.00116418  0.74921306  1
  Mo  Mo185  1  0.50199665  0.70238403  0.62252234  1
  Mo  Mo186  1  0.59313281  0.60698166  0.73636103  1
  Mo  Mo187  1  0.20752578  0.00720809  0.24284652  1
  Mo  Mo188  1  0.60371019  0.21180598  -0.01420244  1
  Mo  Mo189  1  0.59851978  0.80122116  0.50933754  1
  Mo  Mo190  1  0.70970903  0.31256414  0.39031538  1
  Mo  Mo191  1  0.10224559  0.30553819  0.10972355  1
  Mo  Mo192  1  0.30309739  0.90470118  0.12006863  1
  Mo  Mo193  1  0.70332429  0.49676062  0.61379873  1
  Mo  Mo194  1  0.49424046  0.31187674  0.63163639  1
  Mo  Mo195  1  0.80328953  0.79532096  0.49706182  1
  Mo  Mo196  1  0.30150186  0.90446405  0.62399015  1
  Mo  Mo197  1  0.40298294  0.59748554  -0.00155399  1
  Mo  Mo198  1  0.20913835  0.38571434  0.51249497  1
  Mo  Mo199  1  0.49972286  0.49002814  0.62775318  1
