# generated using pymatgen
data_HfZrTaTiMo
_symmetry_space_group_name_H-M   'P 1'
_cell_length_a   15.21990344
_cell_length_b   15.20555474
_cell_length_c   16.83514707
_cell_angle_alpha   89.98738855
_cell_angle_beta   89.96486247
_cell_angle_gamma   89.90552309
_symmetry_Int_Tables_number   1
_chemical_formula_structural   HfZrTaTiMo
_chemical_formula_sum   'Hf40 Zr40 Ta40 Ti40 Mo40'
_cell_volume   3896.10271878
_cell_formula_units_Z   40
loop_
 _symmetry_equiv_pos_site_id
 _symmetry_equiv_pos_as_xyz
  1  'x, y, z'
loop_
 _atom_site_type_symbol
 _atom_site_label
 _atom_site_symmetry_multiplicity
 _atom_site_fract_x
 _atom_site_fract_y
 _atom_site_fract_z
 _atom_site_occupancy
  Hf  Hf0  1  0.10616943  0.50423979  0.12390612  1
  Hf  Hf1  1  0.60262885  0.41084659  0.25339404  1
  Hf  Hf2  1  0.38722160  0.18585667  0.49157520  1
  Hf  Hf3  1  0.59586038  0.19885406  0.25086058  1
  Hf  Hf4  1  0.41433723  0.38113518  0.75949085  1
  Hf  Hf5  1  0.88524786  0.91341247  0.63195445  1
  Hf  Hf6  1  0.50613408  0.29666727  0.38488708  1
  Hf  Hf7  1  0.00716193  0.80662755  0.00579612  1
  Hf  Hf8  1  0.79458706  0.59075218  0.24784380  1
  Hf  Hf9  1  0.08548698  0.30380606  0.87651112  1
  Hf  Hf10  1  0.28227592  0.49146604  0.63125548  1
  Hf  Hf11  1  0.90307150  0.30754458  0.37313365  1
  Hf  Hf12  1  -0.01653694  0.61417708  0.01037670  1
  Hf  Hf13  1  0.29258259  0.28164477  0.86526837  1
  Hf  Hf14  1  0.69460692  0.09620975  0.88383208  1
  Hf  Hf15  1  0.80728353  0.18930928  0.49779435  1
  Hf  Hf16  1  0.29132772  0.90173500  0.36519883  1
  Hf  Hf17  1  0.30889349  0.49278508  0.11668866  1
  Hf  Hf18  1  0.09356706  0.50833608  0.88690875  1
  Hf  Hf19  1  0.19776057  -0.00285612  0.74323758  1
  Hf  Hf20  1  0.28956785  0.09345923  0.14159989  1
  Hf  Hf21  1  0.89727915  0.11230011  0.63492142  1
  Hf  Hf22  1  0.50298201  0.49205659  0.62741702  1
  Hf  Hf23  1  0.89552386  0.48524114  0.13101534  1
  Hf  Hf24  1  0.89763096  0.89862797  0.86545781  1
  Hf  Hf25  1  0.39896082  0.79900681  0.24376684  1
  Hf  Hf26  1  0.29798542  0.29382705  0.14178197  1
  Hf  Hf27  1  0.08707112  0.91264135  0.39033965  1
  Hf  Hf28  1  0.51547578  0.51251693  0.86125326  1
  Hf  Hf29  1  0.50466844  0.29236743  0.60979068  1
  Hf  Hf30  1  0.40203068  0.79219554  0.00529690  1
  Hf  Hf31  1  0.40854567  0.79486075  0.51185178  1
  Hf  Hf32  1  0.51245441  0.88716342  0.87910242  1
  Hf  Hf33  1  0.29878211  0.49673137  0.87788107  1
  Hf  Hf34  1  0.79225226  0.79980751  0.24332784  1
  Hf  Hf35  1  0.40108255  0.58288401  0.25107078  1
  Hf  Hf36  1  0.40221089  -0.00513496  0.49858557  1
  Hf  Hf37  1  0.90044566  0.70247353  0.39210844  1
  Hf  Hf38  1  0.39842043  0.60589761  0.74316586  1
  Hf  Hf39  1  0.40793310  0.00752007  0.75132843  1
  Zr  Zr40  1  0.90557777  0.70869546  0.62370596  1
  Zr  Zr41  1  0.79960442  0.18767996  0.25696219  1
  Zr  Zr42  1  0.70197328  0.30591404  0.12154851  1
  Zr  Zr43  1  0.41149960  0.38919904  -0.01561924  1
  Zr  Zr44  1  0.20374955  0.61885311  0.00253868  1
  Zr  Zr45  1  0.79739407  0.77460292  -0.00853363  1
  Zr  Zr46  1  0.89179883  0.90877066  0.12045836  1
  Zr  Zr47  1  0.00391983  0.02442136  -0.00790368  1
  Zr  Zr48  1  0.61247740  -0.01027559  0.74749053  1
  Zr  Zr49  1  0.50358086  0.70319226  0.37364583  1
  Zr  Zr50  1  0.61417989  0.41009360  -0.01022809  1
  Zr  Zr51  1  0.00713791  0.18486493  0.24760793  1
  Zr  Zr52  1  0.89082364  0.12698230  0.86447615  1
  Zr  Zr53  1  0.00384456  0.81488406  0.24382096  1
  Zr  Zr54  1  0.60370252  0.60765199  0.51992043  1
  Zr  Zr55  1  0.10165900  0.70778914  0.38020806  1
  Zr  Zr56  1  0.18707389  0.60007720  0.75428706  1
  Zr  Zr57  1  0.08393230  0.90210002  0.60801525  1
  Zr  Zr58  1  0.51567510  0.50780397  0.11592243  1
  Zr  Zr59  1  0.30102744  0.29175334  0.35355936  1
  Zr  Zr60  1  0.29292573  0.28662071  0.63903595  1
  Zr  Zr61  1  0.58807013  0.19936793  0.75665569  1
  Zr  Zr62  1  0.70460974  0.09699757  0.11055063  1
  Zr  Zr63  1  0.88892565  0.90903587  0.38485426  1
  Zr  Zr64  1  0.50027524  0.49914807  0.38877775  1
  Zr  Zr65  1  0.30152333  0.89157201  0.87701773  1
  Zr  Zr66  1  0.09446650  0.30515468  0.13409025  1
  Zr  Zr67  1  0.70448541  0.08536086  0.37851900  1
  Zr  Zr68  1  0.60941121  -0.01079303  0.24009186  1
  Zr  Zr69  1  0.50839396  0.90060124  0.37376592  1
  Zr  Zr70  1  0.21199466  0.79509547  0.50543948  1
  Zr  Zr71  1  0.10768100  0.90610343  0.87549592  1
  Zr  Zr72  1  0.40513344  0.79807484  0.74042093  1
  Zr  Zr73  1  0.09545565  0.68192174  0.61123755  1
  Zr  Zr74  1  0.38132787  0.40119841  0.49810543  1
  Zr  Zr75  1  0.71941498  0.50046417  0.85687567  1
  Zr  Zr76  1  0.38832566  0.19206109  0.00216792  1
  Zr  Zr77  1  -0.00383533  0.61045721  0.23908681  1
  Zr  Zr78  1  0.10482150  0.11452172  0.62728907  1
  Zr  Zr79  1  0.69894881  0.69627832  0.37983930  1
  Ta  Ta80  1  0.20118004  0.79326061  0.73573380  1
  Ta  Ta81  1  0.09655169  0.30612305  0.36240937  1
  Ta  Ta82  1  0.80791259  0.59233596  0.51865998  1
  Ta  Ta83  1  0.49275744  0.30104979  0.13388757  1
  Ta  Ta84  1  0.69641656  0.30126492  0.39422508  1
  Ta  Ta85  1  0.81037917  0.59407572  0.73234260  1
  Ta  Ta86  1  0.20480764  0.61112300  0.25036508  1
  Ta  Ta87  1  -0.00319934  0.00981545  0.75401205  1
  Ta  Ta88  1  0.09569875  0.71143756  0.87464923  1
  Ta  Ta89  1  0.00531038  0.79835957  0.75024218  1
  Ta  Ta90  1  0.20329492  0.00192231  0.00544569  1
  Ta  Ta91  1  0.17985324  0.19009301  0.00345346  1
  Ta  Ta92  1  0.72073594  0.29001229  0.87567221  1
  Ta  Ta93  1  0.09563606  0.31634852  0.62693259  1
  Ta  Ta94  1  0.61323574  -0.00700742  0.51093026  1
  Ta  Ta95  1  0.70650793  0.48758509  0.63097266  1
  Ta  Ta96  1  0.10932171  0.10746843  0.38291340  1
  Ta  Ta97  1  0.50484379  0.10084058  0.61730948  1
  Ta  Ta98  1  0.80952475  0.39917150  0.51069091  1
  Ta  Ta99  1  0.81611891  0.38620218  -0.00336341  1
  Ta  Ta100  1  0.28781356  0.09291441  0.87244048  1
  Ta  Ta101  1  -0.01004695  0.22941133  0.74422138  1
  Ta  Ta102  1  0.19983304  0.58098037  0.49016117  1
  Ta  Ta103  1  0.38701330  0.60549557  0.51216296  1
  Ta  Ta104  1  0.70313755  0.28719010  0.61509195  1
  Ta  Ta105  1  0.79915604  -0.00411622  -0.00931130  1
  Ta  Ta106  1  0.69756094  0.69040453  0.12413774  1
  Ta  Ta107  1  0.69824614  0.88978760  0.37963790  1
  Ta  Ta108  1  0.29867456  0.90549361  0.62425110  1
  Ta  Ta109  1  0.78473061  0.80354648  0.51350343  1
  Ta  Ta110  1  0.68927860  0.88619104  0.10912591  1
  Ta  Ta111  1  0.49564799  0.10149366  0.12061725  1
  Ta  Ta112  1  0.18553265  0.39363022  0.48780138  1
  Ta  Ta113  1  0.70636380  0.49236454  0.39311943  1
  Ta  Ta114  1  0.09009546  0.50157519  0.36627615  1
  Ta  Ta115  1  0.20931900  0.01662233  0.50033174  1
  Ta  Ta116  1  0.20347909  0.41558616  0.25725703  1
  Ta  Ta117  1  0.00887723  0.21604649  0.49946527  1
  Ta  Ta118  1  0.60638669  0.62535782  -0.01199820  1
  Ta  Ta119  1  0.51051483  0.70833810  0.12759454  1
  Ti  Ti120  1  0.41146721  0.60198904  -0.00803776  1
  Ti  Ti121  1  0.10285153  0.91859577  0.12522083  1
  Ti  Ti122  1  0.50649449  0.90242750  0.62910815  1
  Ti  Ti123  1  0.70541763  0.09035325  0.62788535  1
  Ti  Ti124  1  0.89540407  0.29452669  0.13755373  1
  Ti  Ti125  1  0.68504326  0.70076436  0.84602355  1
  Ti  Ti126  1  -0.01971978  0.21738577  0.00381723  1
  Ti  Ti127  1  0.17706913  0.00383395  0.25277932  1
  Ti  Ti128  1  0.40443374  0.00861234  0.25273449  1
  Ti  Ti129  1  0.20230076  0.38723600  -0.00010913  1
  Ti  Ti130  1  0.30604646  0.10165091  0.63293119  1
  Ti  Ti131  1  -0.00264184  0.42603011  0.74161671  1
  Ti  Ti132  1  0.89387837  0.69210776  0.85701796  1
  Ti  Ti133  1  0.00045955  0.41694487  0.50455270  1
  Ti  Ti134  1  0.59343881  -0.00502491  0.00281142  1
  Ti  Ti135  1  0.70472111  0.88815243  0.87368959  1
  Ti  Ti136  1  0.79486242  0.39696736  0.25887513  1
  Ti  Ti137  1  0.59201071  0.21106588  -0.00392423  1
  Ti  Ti138  1  0.30209594  0.69373765  0.37119992  1
  Ti  Ti139  1  0.81759890  0.38042738  0.73510807  1
  Ti  Ti140  1  0.91524164  0.09188470  0.38107885  1
  Ti  Ti141  1  0.79229312  0.58068876  0.00676206  1
  Ti  Ti142  1  0.29931272  0.70234079  0.87664545  1
  Ti  Ti143  1  0.28836783  0.89391837  0.13187830  1
  Ti  Ti144  1  0.60360015  0.80127457  0.52241518  1
  Ti  Ti145  1  0.10029680  0.11370863  0.86116347  1
  Ti  Ti146  1  0.11283985  0.72070507  0.12952820  1
  Ti  Ti147  1  0.30235539  0.69992066  0.12723192  1
  Ti  Ti148  1  0.89929640  0.50229536  0.37575943  1
  Ti  Ti149  1  0.50194806  0.09855991  0.37797131  1
  Ti  Ti150  1  0.48929087  0.10076498  0.88583832  1
  Ti  Ti151  1  0.61644936  0.38836593  0.75266211  1
  Ti  Ti152  1  0.49713437  0.90196344  0.12165806  1
  Ti  Ti153  1  0.60546470  0.60443963  0.25092331  1
  Ti  Ti154  1  0.18763183  0.39496933  0.75611896  1
  Ti  Ti155  1  0.90253288  0.09884021  0.12314199  1
  Ti  Ti156  1  0.90415504  0.49979819  0.87303028  1
  Ti  Ti157  1  -0.00131547  0.40415718  0.00270841  1
  Ti  Ti158  1  0.20060045  0.20898305  0.49475640  1
  Ti  Ti159  1  0.39438004  -0.00405409  0.00477573  1
  Mo  Mo160  1  0.60100522  0.18622433  0.50260793  1
  Mo  Mo161  1  0.51523189  0.28960887  0.87617468  1
  Mo  Mo162  1  0.61301892  0.39694352  0.50633071  1
  Mo  Mo163  1  0.49814798  0.69857959  0.87223129  1
  Mo  Mo164  1  0.78711468  0.20837038  0.74133038  1
  Mo  Mo165  1  -0.00695617  0.40334081  0.25576152  1
  Mo  Mo166  1  0.29652824  0.09237264  0.35977126  1
  Mo  Mo167  1  -0.01007999  0.80417618  0.50040917  1
  Mo  Mo168  1  0.09821734  0.49450566  0.62177810  1
  Mo  Mo169  1  -0.00267993  0.60594144  0.75957365  1
  Mo  Mo170  1  0.20410107  0.80816374  0.01237933  1
  Mo  Mo171  1  0.60469546  0.59749832  0.73240389  1
  Mo  Mo172  1  0.29028818  0.50506515  0.37306170  1
  Mo  Mo173  1  0.40697529  0.39723438  0.24812567  1
  Mo  Mo174  1  0.79650202  -0.00300186  0.50536234  1
  Mo  Mo175  1  0.70096864  0.89890791  0.63202319  1
  Mo  Mo176  1  -0.00424959  0.02358284  0.50314244  1
  Mo  Mo177  1  0.09759057  0.09911856  0.12175019  1
  Mo  Mo178  1  -0.00805871  0.00623207  0.24912091  1
  Mo  Mo179  1  -0.00088472  0.59107670  0.49170253  1
  Mo  Mo180  1  0.41039643  0.18784712  0.24993717  1
  Mo  Mo181  1  0.90465814  0.30578584  0.61720586  1
  Mo  Mo182  1  0.39894868  0.18606002  0.75415700  1
  Mo  Mo183  1  0.60135421  0.79602816  0.24069889  1
  Mo  Mo184  1  0.20244581  0.80348084  0.24578141  1
  Mo  Mo185  1  0.70350286  0.50277363  0.12109698  1
  Mo  Mo186  1  0.80037502  0.00394093  0.76213047  1
  Mo  Mo187  1  0.50047122  0.69719778  0.62390695  1
  Mo  Mo188  1  0.29633191  0.69651721  0.62189193  1
  Mo  Mo189  1  0.18928362  0.19914081  0.75299825  1
  Mo  Mo190  1  0.89263685  0.69689657  0.12219455  1
  Mo  Mo191  1  0.60076881  0.79029325  0.73633841  1
  Mo  Mo192  1  0.80855841  -0.00487499  0.24366994  1
  Mo  Mo193  1  0.19872859  0.19534983  0.25629923  1
  Mo  Mo194  1  0.70355743  0.70094862  0.64124491  1
  Mo  Mo195  1  0.60015798  0.80171896  -0.00272035  1
  Mo  Mo196  1  0.79577092  0.80080566  0.75418710  1
  Mo  Mo197  1  0.89968125  0.32157124  0.87041474  1
  Mo  Mo198  1  0.80660448  0.19957147  0.00585435  1
  Mo  Mo199  1  0.91072263  0.50061270  0.62522094  1
