# generated using pymatgen
data_HfZrTaTiMo
_symmetry_space_group_name_H-M   'P 1'
_cell_length_a   15.21878196
_cell_length_b   15.20992633
_cell_length_c   16.84035178
_cell_angle_alpha   89.99305287
_cell_angle_beta   90.03865252
_cell_angle_gamma   89.91694232
_symmetry_Int_Tables_number   1
_chemical_formula_structural   HfZrTaTiMo
_chemical_formula_sum   'Hf40 Zr40 Ta40 Ti40 Mo40'
_cell_volume   3898.14156049
_cell_formula_units_Z   40
loop_
 _symmetry_equiv_pos_site_id
 _symmetry_equiv_pos_as_xyz
  1  'x, y, z'
loop_
 _atom_site_type_symbol
 _atom_site_label
 _atom_site_symmetry_multiplicity
 _atom_site_fract_x
 _atom_site_fract_y
 _atom_site_fract_z
 _atom_site_occupancy
  Hf  Hf0  1  0.21012555  0.38606569  0.75558231  1
  Hf  Hf1  1  0.39561940  0.60611087  0.51113678  1
  Hf  Hf2  1  0.59654592  0.40440271  0.48858875  1
  Hf  Hf3  1  0.29607865  0.67336204  0.35645772  1
  Hf  Hf4  1  0.50922465  0.51215700  0.87672639  1
  Hf  Hf5  1  0.30829091  0.49128224  0.62893744  1
  Hf  Hf6  1  0.88218911  0.70376437  0.85747027  1
  Hf  Hf7  1  0.09456440  0.31259444  0.12250919  1
  Hf  Hf8  1  0.90642489  0.29151850  0.36745402  1
  Hf  Hf9  1  0.10164164  0.08880133  0.87842139  1
  Hf  Hf10  1  0.11335492  0.51406613  0.37257724  1
  Hf  Hf11  1  0.31566715  0.88920691  0.37223427  1
  Hf  Hf12  1  0.61590854  -0.00646076  0.25432820  1
  Hf  Hf13  1  0.31379080  0.49631130  0.89251591  1
  Hf  Hf14  1  0.28469966  0.69811976  0.89290593  1
  Hf  Hf15  1  0.90012502  0.08916183  0.86559607  1
  Hf  Hf16  1  0.58618913  0.80017030  0.74496359  1
  Hf  Hf17  1  0.19625875  0.18764339  0.01051885  1
  Hf  Hf18  1  0.69975065  0.50089159  0.13684958  1
  Hf  Hf19  1  0.09683054  0.48775450  0.62665173  1
  Hf  Hf20  1  0.00276156  0.80603366  -0.01978621  1
  Hf  Hf21  1  0.20853414  -0.01697108  0.75873095  1
  Hf  Hf22  1  0.89965757  0.30623464  0.62965497  1
  Hf  Hf23  1  0.00361167  0.19274224  0.73989193  1
  Hf  Hf24  1  0.59980900  0.60545272  0.51115617  1
  Hf  Hf25  1  0.69574261  0.09114686  0.38345521  1
  Hf  Hf26  1  0.81298767  0.19126584  0.50560880  1
  Hf  Hf27  1  0.70421589  0.09788267  0.63039223  1
  Hf  Hf28  1  0.80040364  0.80006799  -0.00584353  1
  Hf  Hf29  1  0.00966408  -0.00926170  0.25869643  1
  Hf  Hf30  1  0.39614366  0.20474477  0.76127725  1
  Hf  Hf31  1  0.80053714  0.60728508  0.25542757  1
  Hf  Hf32  1  0.69246933  0.70669171  0.12289347  1
  Hf  Hf33  1  0.89081772  0.29524695  0.86419063  1
  Hf  Hf34  1  0.19563265  0.80015487  0.25023623  1
  Hf  Hf35  1  0.68812910  0.29507801  0.14194031  1
  Hf  Hf36  1  0.90142947  0.69727562  0.37807122  1
  Hf  Hf37  1  0.59682511  0.39884161  0.74540049  1
  Hf  Hf38  1  0.79591170  0.80761228  0.25729382  1
  Hf  Hf39  1  0.22122606  0.01110198  0.25815515  1
  Zr  Zr40  1  0.90766250  0.50784421  0.12857981  1
  Zr  Zr41  1  0.70298412  0.30880385  0.87555388  1
  Zr  Zr42  1  0.40266757  0.38863979  0.48443348  1
  Zr  Zr43  1  0.80905182  -0.01146674  0.50054436  1
  Zr  Zr44  1  -0.00838790  0.60345794  -0.01058769  1
  Zr  Zr45  1  0.00597668  0.39998896  0.75360770  1
  Zr  Zr46  1  0.57912049  0.19927947  0.49674829  1
  Zr  Zr47  1  0.50634919  0.09527601  0.13645664  1
  Zr  Zr48  1  0.19781720  0.61273633  0.51553772  1
  Zr  Zr49  1  0.11122606  0.51014859  0.87850726  1
  Zr  Zr50  1  0.49127921  0.30866216  0.89253681  1
  Zr  Zr51  1  0.70535460  0.89238395  0.62737697  1
  Zr  Zr52  1  0.51023558  0.89587227  0.11707138  1
  Zr  Zr53  1  0.20778234  0.60898345  0.73937484  1
  Zr  Zr54  1  0.29878964  0.70070128  0.12391785  1
  Zr  Zr55  1  0.20504508  -0.00361336  0.48403122  1
  Zr  Zr56  1  0.49337168  0.90876753  0.88223051  1
  Zr  Zr57  1  0.59289325  0.60169067  0.73139908  1
  Zr  Zr58  1  0.00344719  0.61866743  0.74243655  1
  Zr  Zr59  1  0.70614545  0.09776486  0.86419690  1
  Zr  Zr60  1  -0.00602862  0.61374246  0.51670070  1
  Zr  Zr61  1  0.11077079  0.89730075  0.11684100  1
  Zr  Zr62  1  0.49391717  0.71454520  0.38175911  1
  Zr  Zr63  1  0.09409430  0.69059723  0.11956804  1
  Zr  Zr64  1  0.20501334  0.19455293  0.75733034  1
  Zr  Zr65  1  0.30762081  0.09009598  0.62475063  1
  Zr  Zr66  1  -0.01148779  0.19202118  0.00838524  1
  Zr  Zr67  1  0.48396848  0.70278874  0.87605447  1
  Zr  Zr68  1  0.89041233  0.30910095  0.13350476  1
  Zr  Zr69  1  0.80090901  0.39909616  0.48899192  1
  Zr  Zr70  1  0.10009860  0.29896867  0.36510517  1
  Zr  Zr71  1  0.48608394  0.90833247  0.62231300  1
  Zr  Zr72  1  0.79364930  0.17549217  0.24473522  1
  Zr  Zr73  1  0.60789591  0.41927495  0.00647007  1
  Zr  Zr74  1  0.20292466  0.39640175  0.49670275  1
  Zr  Zr75  1  0.00620908  0.00518118  0.49393390  1
  Zr  Zr76  1  0.79186971  0.19662935  0.01101076  1
  Zr  Zr77  1  0.68892596  0.29169292  0.36299143  1
  Zr  Zr78  1  0.49317672  0.31337266  0.13111972  1
  Zr  Zr79  1  0.59249270  0.20024122  0.75158699  1
  Ta  Ta80  1  0.58623126  0.61346204  0.25164453  1
  Ta  Ta81  1  0.37327547  0.80728397  0.74542000  1
  Ta  Ta82  1  0.59872730  0.19347526  0.00456343  1
  Ta  Ta83  1  0.59740306  0.00022431  0.75161640  1
  Ta  Ta84  1  -0.00058380  0.40164845  0.49963126  1
  Ta  Ta85  1  0.49732086  0.10453798  0.62605984  1
  Ta  Ta86  1  0.69522931  0.51127686  0.37018865  1
  Ta  Ta87  1  0.10977603  0.89930482  0.62569384  1
  Ta  Ta88  1  0.38033977  0.19166602  0.23610127  1
  Ta  Ta89  1  0.91606100  0.88460216  0.62527855  1
  Ta  Ta90  1  0.09866228  0.29767355  0.88815557  1
  Ta  Ta91  1  0.90832372  0.50081016  0.37363459  1
  Ta  Ta92  1  0.40380135  0.01476814  0.48799606  1
  Ta  Ta93  1  0.31095373  0.08533622  0.89233829  1
  Ta  Ta94  1  0.41708492  0.59514962  0.02209139  1
  Ta  Ta95  1  0.41037743  0.79944155  0.24017100  1
  Ta  Ta96  1  0.71256488  0.90991966  0.12060389  1
  Ta  Ta97  1  0.71079521  0.89445074  0.86322574  1
  Ta  Ta98  1  0.79740017  0.59558987  0.50157097  1
  Ta  Ta99  1  0.20728315  0.19639715  0.49642700  1
  Ta  Ta100  1  0.79945932  0.40537563  0.26467526  1
  Ta  Ta101  1  0.29628960  0.29741035  0.90153302  1
  Ta  Ta102  1  -0.01045882  0.40228134  -0.00897323  1
  Ta  Ta103  1  0.00047336  0.82394308  0.76705563  1
  Ta  Ta104  1  0.37754741  0.41788765  0.24877735  1
  Ta  Ta105  1  0.90357647  0.89560941  0.12432145  1
  Ta  Ta106  1  0.88658381  0.49634205  0.86416889  1
  Ta  Ta107  1  0.69693824  0.29972366  0.62400147  1
  Ta  Ta108  1  0.10467500  0.09906644  0.62379748  1
  Ta  Ta109  1  0.29285452  0.30996488  0.11618471  1
  Ta  Ta110  1  0.10320115  0.09068970  0.12744752  1
  Ta  Ta111  1  0.60397871  0.79630560  -0.00826535  1
  Ta  Ta112  1  0.68906007  0.69299018  0.86759315  1
  Ta  Ta113  1  0.58521977  0.41587449  0.26143582  1
  Ta  Ta114  1  0.78593376  0.59088668  -0.00506963  1
  Ta  Ta115  1  0.00817462  0.41311239  0.25115120  1
  Ta  Ta116  1  0.48792882  0.09958248  0.35627665  1
  Ta  Ta117  1  0.70758951  0.49133544  0.62527897  1
  Ta  Ta118  1  0.39947878  0.19256470  0.01539216  1
  Ta  Ta119  1  0.09564166  0.71430105  0.37510785  1
  Ti  Ti120  1  0.48378526  0.51535494  0.36947947  1
  Ti  Ti121  1  0.69374030  0.70129380  0.38348309  1
  Ti  Ti122  1  0.89427441  0.70464884  0.12386337  1
  Ti  Ti123  1  0.39480962  0.80651349  0.00742985  1
  Ti  Ti124  1  0.48602856  0.29286200  0.35232133  1
  Ti  Ti125  1  0.49999926  0.49204853  0.62116480  1
  Ti  Ti126  1  0.70090886  0.88767110  0.39098370  1
  Ti  Ti127  1  0.19352075  0.80034385  0.50041907  1
  Ti  Ti128  1  0.18690143  0.79418736  0.75684801  1
  Ti  Ti129  1  0.19721756  0.20469759  0.23592876  1
  Ti  Ti130  1  -0.00579292  0.79777285  0.24836498  1
  Ti  Ti131  1  0.89434320  0.07947930  0.12928636  1
  Ti  Ti132  1  0.91738372  0.88730723  0.38457778  1
  Ti  Ti133  1  0.40285019  0.39985586  0.75309102  1
  Ti  Ti134  1  0.81175623  -0.01216664  0.25989004  1
  Ti  Ti135  1  0.80909184  0.78516227  0.50525935  1
  Ti  Ti136  1  0.00225282  -0.00321767  0.00091605  1
  Ti  Ti137  1  0.71410209  0.69541428  0.63177966  1
  Ti  Ti138  1  0.50242500  0.10179471  0.88598845  1
  Ti  Ti139  1  0.30909543  0.91869090  0.12077077  1
  Ti  Ti140  1  0.40331608  0.00155923  0.75660002  1
  Ti  Ti141  1  0.61411144  0.00041176  -0.00337859  1
  Ti  Ti142  1  0.90779739  0.09855034  0.37083387  1
  Ti  Ti143  1  0.10466916  0.10950731  0.36891729  1
  Ti  Ti144  1  0.80666969  -0.00389137  -0.00238210  1
  Ti  Ti145  1  0.60340436  0.80153748  0.25443999  1
  Ti  Ti146  1  0.70735613  0.50299142  0.86366015  1
  Ti  Ti147  1  0.82040971  -0.00998747  0.74045798  1
  Ti  Ti148  1  0.01251441  0.60517555  0.24966139  1
  Ti  Ti149  1  0.59631934  0.79972406  0.51205018  1
  Ti  Ti150  1  0.30083685  0.29051548  0.61990887  1
  Ti  Ti151  1  0.29702184  0.29416000  0.36249824  1
  Ti  Ti152  1  0.40067315  0.61372073  0.73404717  1
  Ti  Ti153  1  0.50837716  0.90407106  0.37864801  1
  Ti  Ti154  1  0.88975348  0.50769391  0.63504168  1
  Ti  Ti155  1  -0.00060765  0.19240047  0.23806925  1
  Ti  Ti156  1  0.01194454  0.20577366  0.51197091  1
  Ti  Ti157  1  0.38849770  0.80350754  0.51380630  1
  Ti  Ti158  1  0.48929362  0.29823934  0.62182062  1
  Ti  Ti159  1  0.59400623  -0.00081380  0.50177408  1
  Mo  Mo160  1  0.09873446  0.70534398  0.87778471  1
  Mo  Mo161  1  0.50133372  0.51059970  0.13514345  1
  Mo  Mo162  1  0.29226054  0.72098526  0.62809062  1
  Mo  Mo163  1  0.29317883  0.89943279  0.61962957  1
  Mo  Mo164  1  0.10520118  0.49723685  0.11993235  1
  Mo  Mo165  1  0.00988373  -0.00210387  0.74139122  1
  Mo  Mo166  1  0.40635310  0.59748193  0.23485650  1
  Mo  Mo167  1  0.20201677  0.59404721  0.01294689  1
  Mo  Mo168  1  0.88919275  0.70970341  0.63760358  1
  Mo  Mo169  1  0.50348625  0.70815134  0.12279405  1
  Mo  Mo170  1  0.60598256  0.61150749  -0.00176958  1
  Mo  Mo171  1  0.29875614  0.09575562  0.11933451  1
  Mo  Mo172  1  0.20413447  -0.01101990  -0.00392275  1
  Mo  Mo173  1  0.70046381  0.08662572  0.12209127  1
  Mo  Mo174  1  0.30182783  0.11293246  0.37104286  1
  Mo  Mo175  1  0.30203459  0.89442040  0.88477147  1
  Mo  Mo176  1  0.29683652  0.49361742  0.10892191  1
  Mo  Mo177  1  0.90797391  0.09240477  0.63075517  1
  Mo  Mo178  1  0.20299870  0.80263911  -0.00151963  1
  Mo  Mo179  1  0.79715520  0.80054018  0.74942443  1
  Mo  Mo180  1  0.08500728  0.72887982  0.62700695  1
  Mo  Mo181  1  0.49386775  0.70680056  0.62142234  1
  Mo  Mo182  1  0.40620893  0.00319266  0.00154025  1
  Mo  Mo183  1  0.79496232  0.39967020  0.74131664  1
  Mo  Mo184  1  0.58826226  0.20092164  0.25643937  1
  Mo  Mo185  1  0.89752635  0.91248435  0.87196171  1
  Mo  Mo186  1  0.80831998  0.41130279  -0.00243876  1
  Mo  Mo187  1  0.39940462  0.40159725  0.01097162  1
  Mo  Mo188  1  0.80180793  0.19588178  0.73131383  1
  Mo  Mo189  1  0.30191557  0.49758450  0.37212717  1
  Mo  Mo190  1  0.19953013  0.39818776  0.24750479  1
  Mo  Mo191  1  0.39336541  0.19863680  0.49287567  1
  Mo  Mo192  1  0.20365380  0.57422881  0.23328568  1
  Mo  Mo193  1  0.19193336  0.39851890  -0.00396947  1
  Mo  Mo194  1  0.00327812  0.80583560  0.50202514  1
  Mo  Mo195  1  0.40573736  -0.01059433  0.25573593  1
  Mo  Mo196  1  0.10962440  0.89913317  0.88372090  1
  Mo  Mo197  1  0.79308492  0.59497128  0.74518306  1
  Mo  Mo198  1  0.10768285  0.29297224  0.61481308  1
  Mo  Mo199  1  0.10367229  0.89309688  0.37019005  1
