# generated using pymatgen
data_HfZrTaTiMo
_symmetry_space_group_name_H-M   'P 1'
_cell_length_a   15.19795473
_cell_length_b   15.21328092
_cell_length_c   16.83285862
_cell_angle_alpha   89.97346833
_cell_angle_beta   90.00451750
_cell_angle_gamma   89.83020669
_symmetry_Int_Tables_number   1
_chemical_formula_structural   HfZrTaTiMo
_chemical_formula_sum   'Hf40 Zr40 Ta40 Ti40 Mo40'
_cell_volume   3891.92042700
_cell_formula_units_Z   40
loop_
 _symmetry_equiv_pos_site_id
 _symmetry_equiv_pos_as_xyz
  1  'x, y, z'
loop_
 _atom_site_type_symbol
 _atom_site_label
 _atom_site_symmetry_multiplicity
 _atom_site_fract_x
 _atom_site_fract_y
 _atom_site_fract_z
 _atom_site_occupancy
  Hf  Hf0  1  0.89317630  0.91161268  0.38381752  1
  Hf  Hf1  1  0.29033581  0.08151135  0.87875531  1
  Hf  Hf2  1  0.30888799  0.49681284  0.35948270  1
  Hf  Hf3  1  0.30791438  0.49873345  0.11633712  1
  Hf  Hf4  1  0.49061213  0.29886121  0.36036121  1
  Hf  Hf5  1  0.51586015  0.69461194  0.61696796  1
  Hf  Hf6  1  0.40211273  0.60536074  0.75080231  1
  Hf  Hf7  1  0.41758437  0.59118240  0.49680266  1
  Hf  Hf8  1  0.40721995  0.40743356  0.74932737  1
  Hf  Hf9  1  0.90658306  0.70220023  0.12195951  1
  Hf  Hf10  1  0.69847490  0.09015186  0.12409952  1
  Hf  Hf11  1  0.79897534  0.60463008  0.75589219  1
  Hf  Hf12  1  0.69695355  0.71649356  0.11946733  1
  Hf  Hf13  1  0.59594651  0.40232882  0.51475681  1
  Hf  Hf14  1  0.50712960  0.29276649  0.87553497  1
  Hf  Hf15  1  0.79628862  0.19917030  0.51088704  1
  Hf  Hf16  1  0.89771397  0.71778403  0.36401120  1
  Hf  Hf17  1  0.78755648  0.40397299  0.23229782  1
  Hf  Hf18  1  0.90187080  0.30189341  0.62214804  1
  Hf  Hf19  1  0.21013055  0.80901688  0.74758487  1
  Hf  Hf20  1  0.68723124  0.10508521  0.63665600  1
  Hf  Hf21  1  0.09962560  0.49961427  0.37313146  1
  Hf  Hf22  1  0.41133651  0.80201193  0.74519560  1
  Hf  Hf23  1  0.89394465  0.51508124  0.61604877  1
  Hf  Hf24  1  0.39963651  0.18849488  0.75991597  1
  Hf  Hf25  1  0.19280338  0.39573269  0.23880990  1
  Hf  Hf26  1  0.09272257  0.10152050  0.12386504  1
  Hf  Hf27  1  0.71423498  0.09230265  0.37521334  1
  Hf  Hf28  1  0.57644246  0.81000216  -0.00529282  1
  Hf  Hf29  1  0.29925459  0.29334972  0.63664714  1
  Hf  Hf30  1  0.40157880  0.00114970  0.48490403  1
  Hf  Hf31  1  0.30017155  0.29255648  0.36151315  1
  Hf  Hf32  1  0.27863785  0.09748862  0.62497584  1
  Hf  Hf33  1  0.29629227  0.30576173  0.87901772  1
  Hf  Hf34  1  0.60732396  -0.00879695  0.49256333  1
  Hf  Hf35  1  0.61290243  0.78788074  0.48279995  1
  Hf  Hf36  1  0.30439908  0.69150939  0.36257960  1
  Hf  Hf37  1  0.09452663  0.50818056  0.11851702  1
  Hf  Hf38  1  -0.00153886  0.81127983  0.74991528  1
  Hf  Hf39  1  0.59871325  0.19961697  0.24393434  1
  Zr  Zr40  1  0.59538850  0.61403077  0.25556097  1
  Zr  Zr41  1  -0.00454807  0.40429134  0.74897882  1
  Zr  Zr42  1  0.09528332  0.90559257  0.37686862  1
  Zr  Zr43  1  0.69386580  0.31711294  0.36957359  1
  Zr  Zr44  1  0.69870723  0.10615375  0.86298662  1
  Zr  Zr45  1  -0.00928086  0.00982286  0.24550790  1
  Zr  Zr46  1  0.30443690  0.69632198  0.14354344  1
  Zr  Zr47  1  0.79388860  0.81559958  -0.00580180  1
  Zr  Zr48  1  0.50061995  0.50229037  0.88602810  1
  Zr  Zr49  1  -0.00913387  0.39472959  0.24752827  1
  Zr  Zr50  1  0.19362347  0.61877663  -0.00475637  1
  Zr  Zr51  1  0.10516028  0.29189874  0.62738254  1
  Zr  Zr52  1  -0.00573578  0.61729118  0.49983783  1
  Zr  Zr53  1  0.58807189  0.19843456  0.49376553  1
  Zr  Zr54  1  0.82022676  0.00251798  0.73620986  1
  Zr  Zr55  1  0.90496933  0.90916455  0.88014198  1
  Zr  Zr56  1  0.89535000  0.50502191  0.10832481  1
  Zr  Zr57  1  0.69634717  0.69505568  0.88453904  1
  Zr  Zr58  1  0.88969586  0.31552835  0.87645431  1
  Zr  Zr59  1  0.08108558  0.49726598  0.89364347  1
  Zr  Zr60  1  0.29870039  0.90021577  0.60631345  1
  Zr  Zr61  1  -0.00812183  0.20255761  -0.00695411  1
  Zr  Zr62  1  0.29017920  0.10396049  0.36752542  1
  Zr  Zr63  1  0.88176570  0.50705715  0.37941417  1
  Zr  Zr64  1  0.10188752  0.70492372  0.36596447  1
  Zr  Zr65  1  0.58497369  0.39997899  0.01729665  1
  Zr  Zr66  1  0.78143022  -0.02125034  0.24533852  1
  Zr  Zr67  1  0.12050698  0.90158306  0.88256009  1
  Zr  Zr68  1  0.40328724  0.18663980  0.00155522  1
  Zr  Zr69  1  0.48725115  0.08973610  0.62724120  1
  Zr  Zr70  1  -0.00048774  0.60687997  0.75178045  1
  Zr  Zr71  1  0.81565348  0.19263241  0.24238882  1
  Zr  Zr72  1  0.19977299  0.60092103  0.76272113  1
  Zr  Zr73  1  0.29663973  0.50396722  0.62713907  1
  Zr  Zr74  1  0.19602617  0.19561251  0.00429809  1
  Zr  Zr75  1  0.40640141  0.39101843  0.50783300  1
  Zr  Zr76  1  0.10473119  0.70586529  0.61861171  1
  Zr  Zr77  1  0.89830832  0.90077266  0.11880318  1
  Zr  Zr78  1  0.20399996  0.39190495  0.49510484  1
  Zr  Zr79  1  0.89872358  0.29335112  0.38382114  1
  Ta  Ta80  1  0.20831898  0.60008333  0.49737848  1
  Ta  Ta81  1  0.51168826  0.49286100  0.36621467  1
  Ta  Ta82  1  0.60663377  0.79067443  0.74998599  1
  Ta  Ta83  1  0.79221172  0.60559959  0.24598074  1
  Ta  Ta84  1  0.20493729  0.80743105  0.25012896  1
  Ta  Ta85  1  -0.00187022  0.39836588  0.49947288  1
  Ta  Ta86  1  0.51209950  0.28812435  0.64098603  1
  Ta  Ta87  1  0.62450073  0.58853080  0.49188920  1
  Ta  Ta88  1  0.09560163  0.91061119  0.61555124  1
  Ta  Ta89  1  0.19263894  0.19921132  0.23600759  1
  Ta  Ta90  1  0.91135046  0.69470821  0.88993321  1
  Ta  Ta91  1  0.49976489  0.07661436  0.87381260  1
  Ta  Ta92  1  0.21248405  -0.00797211  0.02165028  1
  Ta  Ta93  1  0.10472210  0.89222634  0.12808397  1
  Ta  Ta94  1  0.41241963  -0.02278303  0.00995521  1
  Ta  Ta95  1  0.42603206  0.79453736  0.26866148  1
  Ta  Ta96  1  0.40577254  -0.00660699  0.25481438  1
  Ta  Ta97  1  0.78576980  0.41464631  0.50922965  1
  Ta  Ta98  1  0.79420834  0.39514725  0.00796672  1
  Ta  Ta99  1  0.69933082  0.88806932  0.62923382  1
  Ta  Ta100  1  0.00506467  -0.00040294  0.00513401  1
  Ta  Ta101  1  0.20301445  -0.00108244  0.23915876  1
  Ta  Ta102  1  0.30492924  0.70888718  0.88241757  1
  Ta  Ta103  1  -0.01106478  0.18983614  0.75690626  1
  Ta  Ta104  1  0.69088077  0.90654995  0.86032972  1
  Ta  Ta105  1  0.08341904  0.09505061  0.63135225  1
  Ta  Ta106  1  0.10024214  0.49778101  0.61631307  1
  Ta  Ta107  1  0.60342910  0.19027602  0.00312212  1
  Ta  Ta108  1  0.62612959  0.81448954  0.27314044  1
  Ta  Ta109  1  0.79211865  0.21753229  0.74111015  1
  Ta  Ta110  1  0.38622735  -0.01288437  0.75014289  1
  Ta  Ta111  1  0.60340298  -0.00327986  -0.00351327  1
  Ta  Ta112  1  0.29899509  0.89823691  0.37058584  1
  Ta  Ta113  1  0.40881165  0.79722372  0.47996292  1
  Ta  Ta114  1  0.59261945  0.41069919  0.22655040  1
  Ta  Ta115  1  0.10253585  0.28799498  0.37910328  1
  Ta  Ta116  1  0.60284417  0.58854993  0.74776859  1
  Ta  Ta117  1  0.81033438  0.79141523  0.51523051  1
  Ta  Ta118  1  0.30825621  0.70462237  0.61053429  1
  Ta  Ta119  1  0.70315328  0.49313730  0.88737714  1
  Ti  Ti120  1  0.00320612  0.18609581  0.50008358  1
  Ti  Ti121  1  0.18569700  0.01374959  0.49207924  1
  Ti  Ti122  1  0.79943103  0.01577045  -0.00133209  1
  Ti  Ti123  1  0.61209900  0.39368215  0.74383600  1
  Ti  Ti124  1  0.31886497  0.89325245  0.13728321  1
  Ti  Ti125  1  0.30230638  0.49881602  0.89349571  1
  Ti  Ti126  1  0.79243103  0.41247084  0.74528022  1
  Ti  Ti127  1  0.80334804  0.79828935  0.74402326  1
  Ti  Ti128  1  -0.00263434  0.60168606  0.25120742  1
  Ti  Ti129  1  0.21724008  0.80610742  0.01180504  1
  Ti  Ti130  1  0.19586104  0.40559503  0.75768323  1
  Ti  Ti131  1  0.50167140  0.08809129  0.13125031  1
  Ti  Ti132  1  0.09643628  0.29697871  0.87247299  1
  Ti  Ti133  1  0.02222929  0.79377804  -0.00276487  1
  Ti  Ti134  1  0.08967702  0.10521424  0.36854820  1
  Ti  Ti135  1  0.09262575  0.08894211  0.87339863  1
  Ti  Ti136  1  0.58486060  -0.01240023  0.74618137  1
  Ti  Ti137  1  0.50246800  0.89261146  0.61588879  1
  Ti  Ti138  1  0.40645519  0.40018241  0.23311709  1
  Ti  Ti139  1  0.90210476  0.29229225  0.11240599  1
  Ti  Ti140  1  0.69856374  0.29281192  0.11717394  1
  Ti  Ti141  1  0.00305207  0.20690948  0.24500526  1
  Ti  Ti142  1  0.69778020  0.30084670  0.87993698  1
  Ti  Ti143  1  0.19188067  0.39092636  0.00740446  1
  Ti  Ti144  1  0.81124215  -0.00098570  0.52061337  1
  Ti  Ti145  1  0.31132096  0.09550805  0.13308032  1
  Ti  Ti146  1  0.18833337  0.19032553  0.76087554  1
  Ti  Ti147  1  0.51868449  0.89742857  0.14232219  1
  Ti  Ti148  1  0.31971925  0.89461494  0.88583325  1
  Ti  Ti149  1  0.10030823  0.70448881  0.14178129  1
  Ti  Ti150  1  0.89530667  0.10638364  0.87652894  1
  Ti  Ti151  1  0.40925588  0.60842656  0.00153740  1
  Ti  Ti152  1  0.48852190  0.29136325  0.12376796  1
  Ti  Ti153  1  0.29864406  0.29414893  0.12256021  1
  Ti  Ti154  1  0.68974885  0.51956901  0.10798691  1
  Ti  Ti155  1  0.49661189  0.70053004  0.12583590  1
  Ti  Ti156  1  0.49619232  0.70369035  0.87720129  1
  Ti  Ti157  1  0.20027024  0.79940119  0.49236385  1
  Ti  Ti158  1  0.49547195  0.10030800  0.36121114  1
  Ti  Ti159  1  0.38834315  0.19993641  0.50263396  1
  Mo  Mo160  1  0.71546375  0.89323836  0.39192026  1
  Mo  Mo161  1  -0.00115482  0.61093402  0.00094761  1
  Mo  Mo162  1  0.09580654  0.30425067  0.12214150  1
  Mo  Mo163  1  0.10321727  0.71195321  0.87879725  1
  Mo  Mo164  1  0.00460652  0.80563154  0.24224203  1
  Mo  Mo165  1  0.19188750  0.19199911  0.49646577  1
  Mo  Mo166  1  0.38723339  0.39541978  0.00765275  1
  Mo  Mo167  1  0.19544413  -0.00006096  0.74869979  1
  Mo  Mo168  1  0.89504538  0.10154456  0.11169428  1
  Mo  Mo169  1  0.68744780  0.90168974  0.12087232  1
  Mo  Mo170  1  0.90245541  0.10654751  0.62899201  1
  Mo  Mo171  1  0.88423150  0.50728830  0.89345426  1
  Mo  Mo172  1  0.70576415  0.69835524  0.63213451  1
  Mo  Mo173  1  0.90962627  0.90375573  0.61841080  1
  Mo  Mo174  1  0.80255656  0.79278186  0.24617772  1
  Mo  Mo175  1  0.70127270  0.30548427  0.63118715  1
  Mo  Mo176  1  0.50438903  0.90349068  0.37213310  1
  Mo  Mo177  1  0.89625316  0.71354793  0.63068234  1
  Mo  Mo178  1  0.19476239  0.59675094  0.24667156  1
  Mo  Mo179  1  0.79297792  0.61038543  0.50115658  1
  Mo  Mo180  1  0.71731589  0.69034992  0.37401762  1
  Mo  Mo181  1  0.50057397  0.89702667  0.86944036  1
  Mo  Mo182  1  0.39381903  0.79737074  0.00797230  1
  Mo  Mo183  1  0.90703215  0.10196607  0.38044254  1
  Mo  Mo184  1  0.50868355  0.49777265  0.63402026  1
  Mo  Mo185  1  -0.00383202  0.01204650  0.49871315  1
  Mo  Mo186  1  0.39679167  0.19591545  0.23324450  1
  Mo  Mo187  1  0.59859494  0.19995693  0.75729031  1
  Mo  Mo188  1  0.41117970  0.59019290  0.24853365  1
  Mo  Mo189  1  0.49539173  0.51206711  0.12365863  1
  Mo  Mo190  1  0.59250746  -0.00260398  0.26309514  1
  Mo  Mo191  1  0.00047864  0.39704966  0.00372532  1
  Mo  Mo192  1  0.69665062  0.50499814  0.63223506  1
  Mo  Mo193  1  0.79452373  0.60157958  -0.00428968  1
  Mo  Mo194  1  0.78954863  0.20239020  0.00042841  1
  Mo  Mo195  1  0.69837034  0.49477223  0.36758156  1
  Mo  Mo196  1  0.59407687  0.60749663  0.00404934  1
  Mo  Mo197  1  0.01187190  0.00482729  0.75465884  1
  Mo  Mo198  1  -0.00017092  0.81392552  0.50948448  1
  Mo  Mo199  1  0.50649830  0.69178120  0.38072502  1
