# generated using pymatgen
data_HfZrTaTiMo
_symmetry_space_group_name_H-M   'P 1'
_cell_length_a   15.19335140
_cell_length_b   15.21019217
_cell_length_c   16.79080901
_cell_angle_alpha   90.02700310
_cell_angle_beta   89.97341380
_cell_angle_gamma   90.07395786
_symmetry_Int_Tables_number   1
_chemical_formula_structural   HfZrTaTiMo
_chemical_formula_sum   'Hf40 Zr40 Ta40 Ti40 Mo40'
_cell_volume   3880.24768626
_cell_formula_units_Z   40
loop_
 _symmetry_equiv_pos_site_id
 _symmetry_equiv_pos_as_xyz
  1  'x, y, z'
loop_
 _atom_site_type_symbol
 _atom_site_label
 _atom_site_symmetry_multiplicity
 _atom_site_fract_x
 _atom_site_fract_y
 _atom_site_fract_z
 _atom_site_occupancy
  Hf  Hf0  1  0.01653813  0.79655131  -0.01554066  1
  Hf  Hf1  1  0.50222456  0.50038662  0.87750410  1
  Hf  Hf2  1  0.39260224  -0.00060696  0.01354804  1
  Hf  Hf3  1  0.10113266  0.50142428  0.11972550  1
  Hf  Hf4  1  0.29788325  0.28049462  0.14079230  1
  Hf  Hf5  1  -0.01401864  0.19567586  0.24124616  1
  Hf  Hf6  1  0.49255985  0.10471393  0.87776222  1
  Hf  Hf7  1  0.09677006  0.30143878  0.36878453  1
  Hf  Hf8  1  0.19274286  0.19979476  0.49856734  1
  Hf  Hf9  1  0.38785518  0.19833201  0.01031674  1
  Hf  Hf10  1  0.08147134  0.09222125  0.37441206  1
  Hf  Hf11  1  0.19853556  0.58847024  0.75552538  1
  Hf  Hf12  1  0.10398621  0.89469754  0.12694266  1
  Hf  Hf13  1  0.61156505  0.79956648  0.50667484  1
  Hf  Hf14  1  0.78713271  0.38610251  0.24346777  1
  Hf  Hf15  1  0.71109567  0.90819436  0.38262327  1
  Hf  Hf16  1  0.50392928  0.69976787  0.87934971  1
  Hf  Hf17  1  0.50303653  0.10928426  0.14532125  1
  Hf  Hf18  1  0.39331259  0.20407397  0.74094869  1
  Hf  Hf19  1  0.70722636  0.69491231  0.37511632  1
  Hf  Hf20  1  0.00152365  0.40043459  -0.01076938  1
  Hf  Hf21  1  0.11449308  0.70584412  0.12160354  1
  Hf  Hf22  1  -0.01524630  -0.00714860  0.23883263  1
  Hf  Hf23  1  0.29776238  0.49689340  0.37814006  1
  Hf  Hf24  1  0.69870372  0.49269635  0.37683334  1
  Hf  Hf25  1  0.90832019  0.50223292  0.63193627  1
  Hf  Hf26  1  0.19331458  0.60215466  -0.01874504  1
  Hf  Hf27  1  0.90701189  0.91327181  0.38365634  1
  Hf  Hf28  1  0.51556526  0.90040508  0.11904659  1
  Hf  Hf29  1  0.61350222  0.01768405  0.00462761  1
  Hf  Hf30  1  0.30959993  0.70392887  0.87253727  1
  Hf  Hf31  1  0.59898972  0.80841741  0.25115326  1
  Hf  Hf32  1  0.12102536  0.09995927  0.13031332  1
  Hf  Hf33  1  0.10316493  0.88595182  0.62346928  1
  Hf  Hf34  1  0.10079493  0.29770671  0.12446540  1
  Hf  Hf35  1  0.30549679  0.10054393  0.36838875  1
  Hf  Hf36  1  0.49985969  0.89276228  0.88821114  1
  Hf  Hf37  1  0.71377217  0.30381532  0.61912021  1
  Hf  Hf38  1  0.39740979  0.00024706  0.74275974  1
  Hf  Hf39  1  -0.00387876  0.18821828  0.00662502  1
  Zr  Zr40  1  0.20001982  0.39892867  0.24634642  1
  Zr  Zr41  1  0.59087657  0.20621907  0.74418193  1
  Zr  Zr42  1  0.39684385  0.41437723  0.50837955  1
  Zr  Zr43  1  0.50525994  0.50147989  0.13147465  1
  Zr  Zr44  1  0.89247637  0.50478169  0.37042451  1
  Zr  Zr45  1  0.20303614  -0.00026755  0.73235548  1
  Zr  Zr46  1  0.88205041  0.29202820  0.37507507  1
  Zr  Zr47  1  -0.02118381  0.20052165  0.51384435  1
  Zr  Zr48  1  0.80919212  0.81402985  0.24036470  1
  Zr  Zr49  1  0.90280922  0.90457847  0.86560409  1
  Zr  Zr50  1  0.31491496  0.89366252  0.38270654  1
  Zr  Zr51  1  0.59963714  -0.00547635  0.74492935  1
  Zr  Zr52  1  0.19489282  0.19486625  0.73314802  1
  Zr  Zr53  1  0.30437937  0.88085162  0.13697256  1
  Zr  Zr54  1  0.19716279  0.39690330  0.75395963  1
  Zr  Zr55  1  0.29119170  0.69973370  0.61326540  1
  Zr  Zr56  1  0.59514824  0.40991698  0.73411989  1
  Zr  Zr57  1  0.09280027  0.08940657  0.87425409  1
  Zr  Zr58  1  0.50002887  0.90876317  0.60666722  1
  Zr  Zr59  1  0.19432427  0.60119899  0.25241083  1
  Zr  Zr60  1  0.70546478  0.89547589  0.88430747  1
  Zr  Zr61  1  0.49762289  0.50999067  0.36906746  1
  Zr  Zr62  1  0.39158407  0.59745688  0.01521802  1
  Zr  Zr63  1  0.49460019  0.70546795  0.38195045  1
  Zr  Zr64  1  0.70466195  0.10050461  0.86196893  1
  Zr  Zr65  1  0.60803897  0.59236908  0.51768945  1
  Zr  Zr66  1  0.79357983  0.60320687  0.23024250  1
  Zr  Zr67  1  0.88654887  0.30165829  0.11924293  1
  Zr  Zr68  1  0.81849942  0.20898433  0.74683598  1
  Zr  Zr69  1  0.18344621  0.57996447  0.50966818  1
  Zr  Zr70  1  0.20178858  0.79719148  0.75062861  1
  Zr  Zr71  1  0.61791076  0.60610043  0.73444460  1
  Zr  Zr72  1  -0.00478226  0.59534863  -0.01483728  1
  Zr  Zr73  1  0.28722548  0.10294437  0.87917496  1
  Zr  Zr74  1  0.88648030  0.69743213  0.86967030  1
  Zr  Zr75  1  0.00378104  0.79484739  0.50309341  1
  Zr  Zr76  1  0.69576525  0.31737837  0.87128983  1
  Zr  Zr77  1  0.70690812  0.09754507  0.62187396  1
  Zr  Zr78  1  0.69567450  0.70312682  0.88838946  1
  Zr  Zr79  1  0.78368968  0.19589793  0.00162466  1
  Ta  Ta80  1  -0.00757448  0.00106588  0.52115744  1
  Ta  Ta81  1  0.60455559  0.20652854  0.49082376  1
  Ta  Ta82  1  -0.00459964  0.00574381  0.72816544  1
  Ta  Ta83  1  0.30597129  0.89851631  0.59932749  1
  Ta  Ta84  1  0.40035307  0.39386475  0.01218802  1
  Ta  Ta85  1  0.10496065  0.28937856  0.88189173  1
  Ta  Ta86  1  0.30176107  0.90012028  0.88160666  1
  Ta  Ta87  1  0.49596866  0.30337302  0.37853204  1
  Ta  Ta88  1  0.01415852  0.79565131  0.26127119  1
  Ta  Ta89  1  0.30396792  0.68913442  0.39090102  1
  Ta  Ta90  1  0.49478771  0.70294973  0.61873198  1
  Ta  Ta91  1  0.18959385  -0.00521015  0.49551257  1
  Ta  Ta92  1  0.39917051  0.40343147  0.24562673  1
  Ta  Ta93  1  -0.00654400  -0.00638739  0.00891674  1
  Ta  Ta94  1  0.78959041  0.79882536  0.73873270  1
  Ta  Ta95  1  0.30004093  0.30148210  0.88010610  1
  Ta  Ta96  1  0.78292350  0.18319784  0.24214375  1
  Ta  Ta97  1  0.08911647  0.50298635  0.37110974  1
  Ta  Ta98  1  0.90157712  0.09577435  0.86934712  1
  Ta  Ta99  1  0.40386613  0.59374742  0.73513180  1
  Ta  Ta100  1  0.60350995  0.39875882  0.50686252  1
  Ta  Ta101  1  0.58649981  0.21629628  0.00298415  1
  Ta  Ta102  1  0.90050749  0.70328701  0.37300141  1
  Ta  Ta103  1  0.61097176  0.00944333  0.49407956  1
  Ta  Ta104  1  0.91033770  0.70842381  0.11871372  1
  Ta  Ta105  1  0.48684243  0.30875417  0.87709903  1
  Ta  Ta106  1  0.39564368  0.40174556  0.73648662  1
  Ta  Ta107  1  0.40528037  0.80296177  0.74202052  1
  Ta  Ta108  1  0.20766928  0.78880993  0.27108701  1
  Ta  Ta109  1  0.00763179  0.40932903  0.49967873  1
  Ta  Ta110  1  -0.00749693  0.40761873  0.24584258  1
  Ta  Ta111  1  0.09423121  0.31566967  0.62047859  1
  Ta  Ta112  1  0.29633891  0.30155843  0.60967619  1
  Ta  Ta113  1  -0.01376992  0.60266659  0.49928664  1
  Ta  Ta114  1  0.59708238  0.80114106  0.73723152  1
  Ta  Ta115  1  0.50793608  0.10047396  0.37480628  1
  Ta  Ta116  1  0.79567404  0.59913391  0.01569235  1
  Ta  Ta117  1  0.38686544  0.61595752  0.23728724  1
  Ta  Ta118  1  0.49570825  0.10776702  0.60257625  1
  Ta  Ta119  1  0.30424568  0.29637681  0.37248887  1
  Ti  Ti120  1  0.69752816  0.49188436  0.12248385  1
  Ti  Ti121  1  0.49531555  0.29857378  0.61077792  1
  Ti  Ti122  1  0.00271359  0.58708144  0.76816374  1
  Ti  Ti123  1  0.49075960  0.71376299  0.12128995  1
  Ti  Ti124  1  0.70268001  0.51164987  0.88058531  1
  Ti  Ti125  1  0.19156897  0.79335387  0.48217612  1
  Ti  Ti126  1  0.19607442  -0.00474699  0.00189570  1
  Ti  Ti127  1  0.71596454  0.90295292  0.61770775  1
  Ti  Ti128  1  0.59749542  0.39687312  0.25320119  1
  Ti  Ti129  1  0.19003463  -0.01539697  0.26779326  1
  Ti  Ti130  1  0.72149458  0.91643582  0.11481365  1
  Ti  Ti131  1  -0.00111564  0.79477787  0.75125463  1
  Ti  Ti132  1  0.79981468  0.41513224  0.74683813  1
  Ti  Ti133  1  0.87575273  0.08014153  0.11968002  1
  Ti  Ti134  1  0.80717321  0.40422661  0.50528303  1
  Ti  Ti135  1  0.72266620  0.10933975  0.38731918  1
  Ti  Ti136  1  0.81166485  0.79419259  0.51071752  1
  Ti  Ti137  1  0.00538307  0.20231086  0.73628112  1
  Ti  Ti138  1  0.42306705  -0.01607795  0.25728733  1
  Ti  Ti139  1  0.30635801  0.08881846  0.16150020  1
  Ti  Ti140  1  0.60069255  0.60267587  0.01122291  1
  Ti  Ti141  1  0.31066498  0.49034401  0.87552721  1
  Ti  Ti142  1  0.50232121  0.30136996  0.13568319  1
  Ti  Ti143  1  0.50599032  0.90432064  0.38963274  1
  Ti  Ti144  1  0.90082812  0.29511780  0.87984313  1
  Ti  Ti145  1  0.90057062  0.50227441  0.12377372  1
  Ti  Ti146  1  0.79272679  0.40544147  0.00171282  1
  Ti  Ti147  1  0.10757622  0.89947861  0.86905924  1
  Ti  Ti148  1  0.59922516  0.40088511  0.00318473  1
  Ti  Ti149  1  0.08328200  0.67880025  0.63737625  1
  Ti  Ti150  1  0.60596374  0.21171289  0.26416046  1
  Ti  Ti151  1  0.89179763  0.69694431  0.63653209  1
  Ti  Ti152  1  0.62682547  0.01272431  0.25368966  1
  Ti  Ti153  1  -0.00356813  0.60602687  0.24866178  1
  Ti  Ti154  1  0.30802254  0.09664977  0.59982943  1
  Ti  Ti155  1  -0.00137377  0.39226924  0.76227701  1
  Ti  Ti156  1  0.69474655  0.71740452  0.11439553  1
  Ti  Ti157  1  0.88795264  0.49297205  0.87234352  1
  Ti  Ti158  1  0.21056146  0.39538094  -0.00003986  1
  Ti  Ti159  1  0.59725671  0.60716897  0.24257914  1
  Mo  Mo160  1  0.80978183  0.80467472  0.01542060  1
  Mo  Mo161  1  0.81039493  0.00420061  0.50762211  1
  Mo  Mo162  1  0.80800555  -0.00676653  0.74200138  1
  Mo  Mo163  1  0.89721198  0.89259406  0.63398831  1
  Mo  Mo164  1  0.10155647  0.89980476  0.37771315  1
  Mo  Mo165  1  0.19642136  0.20271555  -0.00045405  1
  Mo  Mo166  1  0.10335909  0.09996726  0.61552840  1
  Mo  Mo167  1  0.09837252  0.70178728  0.85822467  1
  Mo  Mo168  1  0.89164447  0.09699638  0.37541145  1
  Mo  Mo169  1  0.67769356  0.30165711  0.12395394  1
  Mo  Mo170  1  0.69182979  0.30040939  0.38290185  1
  Mo  Mo171  1  0.79763720  0.00478228  0.25095658  1
  Mo  Mo172  1  0.81082830  0.00499495  -0.00362852  1
  Mo  Mo173  1  0.09232464  0.49768567  0.63254069  1
  Mo  Mo174  1  0.20846728  0.80752195  -0.01141410  1
  Mo  Mo175  1  0.80470683  0.59649524  0.75391411  1
  Mo  Mo176  1  0.39630832  0.80036579  0.00079895  1
  Mo  Mo177  1  0.40363196  0.20560465  0.49287434  1
  Mo  Mo178  1  0.40818015  0.79563306  0.25517604  1
  Mo  Mo179  1  0.90618605  0.89153831  0.11833071  1
  Mo  Mo180  1  0.40003429  0.79730684  0.50127978  1
  Mo  Mo181  1  0.10362483  0.48466976  0.87822937  1
  Mo  Mo182  1  0.71638709  0.50129563  0.61682739  1
  Mo  Mo183  1  0.69019727  0.10445125  0.12781766  1
  Mo  Mo184  1  0.20061459  0.18709178  0.26620776  1
  Mo  Mo185  1  0.80838086  0.60795233  0.50249544  1
  Mo  Mo186  1  0.60168323  0.80019998  0.01301738  1
  Mo  Mo187  1  0.79569337  0.20381501  0.50442327  1
  Mo  Mo188  1  0.39775646  0.60268544  0.51536540  1
  Mo  Mo189  1  0.89782243  0.10129703  0.63199226  1
  Mo  Mo190  1  0.29904621  0.49386830  0.12279235  1
  Mo  Mo191  1  0.29839596  0.70131452  0.12333509  1
  Mo  Mo192  1  0.70910241  0.70764286  0.62415201  1
  Mo  Mo193  1  0.90634071  0.31281460  0.62821784  1
  Mo  Mo194  1  0.50003706  0.49917133  0.62592780  1
  Mo  Mo195  1  0.41242425  0.20527673  0.26119149  1
  Mo  Mo196  1  0.40332787  0.00883155  0.49019904  1
  Mo  Mo197  1  0.19092303  0.39456309  0.49645734  1
  Mo  Mo198  1  0.29650299  0.49321237  0.62768312  1
  Mo  Mo199  1  0.09423536  0.69337075  0.37610775  1
