# generated using pymatgen
data_HfZrTaTiMo
_symmetry_space_group_name_H-M   'P 1'
_cell_length_a   15.20875268
_cell_length_b   15.20728271
_cell_length_c   16.86547780
_cell_angle_alpha   89.99677740
_cell_angle_beta   89.98002715
_cell_angle_gamma   90.28500466
_symmetry_Int_Tables_number   1
_chemical_formula_structural   HfZrTaTiMo
_chemical_formula_sum   'Hf40 Zr40 Ta40 Ti40 Mo40'
_cell_volume   3900.66332154
_cell_formula_units_Z   40
loop_
 _symmetry_equiv_pos_site_id
 _symmetry_equiv_pos_as_xyz
  1  'x, y, z'
loop_
 _atom_site_type_symbol
 _atom_site_label
 _atom_site_symmetry_multiplicity
 _atom_site_fract_x
 _atom_site_fract_y
 _atom_site_fract_z
 _atom_site_occupancy
  Hf  Hf0  1  0.11568797  0.71674659  0.35970925  1
  Hf  Hf1  1  0.00240754  0.40264766  0.74268748  1
  Hf  Hf2  1  0.60218460  0.39022596  -0.01480602  1
  Hf  Hf3  1  0.80975999  0.39218850  0.26771454  1
  Hf  Hf4  1  0.30503031  0.28865772  0.36321358  1
  Hf  Hf5  1  -0.01230421  0.60982939  0.48703442  1
  Hf  Hf6  1  0.91325064  0.51445241  0.87093201  1
  Hf  Hf7  1  0.20761987  0.79544176  0.00566305  1
  Hf  Hf8  1  0.28975487  0.68952398  0.63113211  1
  Hf  Hf9  1  0.67773143  0.50050205  0.38807983  1
  Hf  Hf10  1  0.10361147  0.50923095  0.61768671  1
  Hf  Hf11  1  0.89145810  0.90292711  0.14199467  1
  Hf  Hf12  1  0.11075202  0.30724833  0.38835719  1
  Hf  Hf13  1  0.10191367  0.11169316  0.37821271  1
  Hf  Hf14  1  0.29789525  0.27365997  0.13177166  1
  Hf  Hf15  1  0.20979787  0.00015877  0.25045624  1
  Hf  Hf16  1  0.70227906  0.71512706  0.87556005  1
  Hf  Hf17  1  0.09413416  0.69055559  0.88120974  1
  Hf  Hf18  1  0.79228249  0.01115098  -0.00416419  1
  Hf  Hf19  1  0.78930994  0.41656827  0.75200056  1
  Hf  Hf20  1  0.19536409  0.19419008  0.74417531  1
  Hf  Hf21  1  0.90041240  0.11296218  0.87114094  1
  Hf  Hf22  1  0.10150396  0.29610419  0.62278298  1
  Hf  Hf23  1  0.70768003  0.49124776  0.11988122  1
  Hf  Hf24  1  0.28885286  0.88252943  0.38118909  1
  Hf  Hf25  1  0.70127096  0.69679355  0.12918900  1
  Hf  Hf26  1  0.11697060  0.11892848  0.12633621  1
  Hf  Hf27  1  0.39244608  0.80151168  0.74384922  1
  Hf  Hf28  1  0.80857492  0.62479902  0.75711281  1
  Hf  Hf29  1  0.19515936  0.58610212  0.75350996  1
  Hf  Hf30  1  0.19941047  0.61019482  0.49971765  1
  Hf  Hf31  1  0.00861064  0.01533988  0.75099304  1
  Hf  Hf32  1  0.00447772  0.00507836  -0.00660346  1
  Hf  Hf33  1  0.60078076  0.39511097  0.24877585  1
  Hf  Hf34  1  0.80176878  0.41250340  0.49254370  1
  Hf  Hf35  1  0.49076315  0.08063261  0.11991147  1
  Hf  Hf36  1  0.00892809  0.21737267  -0.00137590  1
  Hf  Hf37  1  0.31134713  0.09301386  0.38392587  1
  Hf  Hf38  1  0.40792843  0.77774201  0.51276294  1
  Hf  Hf39  1  0.91183934  0.28650272  0.39129045  1
  Zr  Zr40  1  0.10404905  0.50291543  0.36740339  1
  Zr  Zr41  1  0.88877576  0.90544176  0.63032128  1
  Zr  Zr42  1  0.89599664  0.31047253  0.12625300  1
  Zr  Zr43  1  0.19008903  0.38735849  0.01147493  1
  Zr  Zr44  1  0.71970386  0.70648094  0.61652640  1
  Zr  Zr45  1  0.30097843  0.69189448  0.87572273  1
  Zr  Zr46  1  0.50493737  0.09897882  0.62875789  1
  Zr  Zr47  1  0.39615024  0.60854605  0.01200004  1
  Zr  Zr48  1  0.09053431  0.69976642  0.13634660  1
  Zr  Zr49  1  0.89432846  0.10874396  0.12509952  1
  Zr  Zr50  1  0.21592285  0.20056610  0.51411413  1
  Zr  Zr51  1  0.68449244  0.31274677  0.61542921  1
  Zr  Zr52  1  0.81117124  0.20964249  0.74356788  1
  Zr  Zr53  1  0.69192704  0.91171827  0.13983844  1
  Zr  Zr54  1  0.50006482  0.49079402  0.63011393  1
  Zr  Zr55  1  0.69331453  0.71231905  0.37526601  1
  Zr  Zr56  1  -0.00691243  0.01794348  0.26146194  1
  Zr  Zr57  1  0.69948963  0.28013894  0.38823747  1
  Zr  Zr58  1  0.90323162  0.50951381  0.12757833  1
  Zr  Zr59  1  0.79341030  0.81175383  0.00228207  1
  Zr  Zr60  1  0.59868137  0.01333568  0.26261428  1
  Zr  Zr61  1  -0.00949933  0.80309528  -0.00558537  1
  Zr  Zr62  1  0.57913577  0.61111512  0.50478857  1
  Zr  Zr63  1  0.58468437  0.39761113  0.76840816  1
  Zr  Zr64  1  0.89068591  0.51571423  0.62235780  1
  Zr  Zr65  1  0.09426050  0.89210060  0.62804980  1
  Zr  Zr66  1  0.79738652  0.59749890  0.26336515  1
  Zr  Zr67  1  0.50358321  0.48825006  0.11000000  1
  Zr  Zr68  1  0.70816647  0.10339116  0.62210719  1
  Zr  Zr69  1  0.60692719  0.19179453  -0.00840877  1
  Zr  Zr70  1  0.59761626  0.79592422  0.73912625  1
  Zr  Zr71  1  0.79059229  -0.00440429  0.48812748  1
  Zr  Zr72  1  0.31186957  0.09449203  0.63000741  1
  Zr  Zr73  1  0.49704270  0.88670181  0.37445998  1
  Zr  Zr74  1  0.10243756  0.90538675  0.12845744  1
  Zr  Zr75  1  0.61309716  0.82302799  0.50915686  1
  Zr  Zr76  1  0.31098154  0.69134010  0.36869558  1
  Zr  Zr77  1  0.57732611  0.80125622  0.01006237  1
  Zr  Zr78  1  0.31001587  0.49146944  0.36108136  1
  Zr  Zr79  1  0.39684256  0.18211231  -0.00990234  1
  Ta  Ta80  1  0.59365786  -0.00329209  -0.00881668  1
  Ta  Ta81  1  0.60726689  0.59749894  -0.01253886  1
  Ta  Ta82  1  0.80297585  0.40703174  -0.01563264  1
  Ta  Ta83  1  0.88803672  0.90583795  0.86059056  1
  Ta  Ta84  1  0.39350193  0.38324368  -0.01186532  1
  Ta  Ta85  1  0.89874969  0.29871989  0.60954460  1
  Ta  Ta86  1  0.30094727  0.08538124  0.86134150  1
  Ta  Ta87  1  0.48162570  0.29392726  0.62934463  1
  Ta  Ta88  1  0.49725666  0.08760939  0.86496070  1
  Ta  Ta89  1  0.00014764  0.60041241  0.00528936  1
  Ta  Ta90  1  0.60531891  0.59522552  0.75848783  1
  Ta  Ta91  1  0.70993925  0.29674420  0.87140076  1
  Ta  Ta92  1  0.28637151  0.48211619  0.87557983  1
  Ta  Ta93  1  0.40668038  0.38967180  0.24052721  1
  Ta  Ta94  1  0.49956919  0.30281580  0.37626724  1
  Ta  Ta95  1  0.31549403  0.90677935  0.11487332  1
  Ta  Ta96  1  0.58916530  0.59376912  0.24761329  1
  Ta  Ta97  1  0.19039788  -0.01159656  0.50101373  1
  Ta  Ta98  1  0.49711123  0.69962117  0.87187703  1
  Ta  Ta99  1  -0.00239689  0.00797815  0.49191946  1
  Ta  Ta100  1  -0.00838459  0.79685944  0.76054444  1
  Ta  Ta101  1  0.40694176  0.59095000  0.75177448  1
  Ta  Ta102  1  0.48797061  0.50386273  0.88248533  1
  Ta  Ta103  1  0.00499682  0.40548112  0.50346011  1
  Ta  Ta104  1  0.40326571  0.38570982  0.49889260  1
  Ta  Ta105  1  0.19142480  0.58622430  0.01393060  1
  Ta  Ta106  1  0.18943001  0.38492393  0.23770321  1
  Ta  Ta107  1  0.29803216  0.48588964  0.12815197  1
  Ta  Ta108  1  0.59761000  0.20244561  0.75965873  1
  Ta  Ta109  1  0.01225631  0.81351475  0.48327447  1
  Ta  Ta110  1  0.49321230  0.90827419  0.62600807  1
  Ta  Ta111  1  0.80604702  0.60704138  -0.00826647  1
  Ta  Ta112  1  0.01224661  0.22579356  0.24893697  1
  Ta  Ta113  1  0.20974744  0.60178064  0.23144215  1
  Ta  Ta114  1  0.10700712  0.31184456  0.86209480  1
  Ta  Ta115  1  0.21500030  0.00801671  -0.00296987  1
  Ta  Ta116  1  -0.00381249  0.80618090  0.26242955  1
  Ta  Ta117  1  0.18848372  0.79567405  0.75305639  1
  Ta  Ta118  1  0.29738431  0.89537059  0.61636039  1
  Ta  Ta119  1  0.39279962  0.78956690  0.23025825  1
  Ti  Ti120  1  0.58766830  0.79419872  0.24145779  1
  Ti  Ti121  1  0.90790021  0.30756348  0.87084565  1
  Ti  Ti122  1  0.40789159  -0.00596604  0.49854959  1
  Ti  Ti123  1  0.70477194  0.90059383  0.36020820  1
  Ti  Ti124  1  0.21025144  -0.01351082  0.74841000  1
  Ti  Ti125  1  0.70205999  0.09735921  0.86318068  1
  Ti  Ti126  1  0.30611091  0.89663751  0.88056714  1
  Ti  Ti127  1  0.40559100  0.18286101  0.24759154  1
  Ti  Ti128  1  0.30481070  0.47654610  0.63711547  1
  Ti  Ti129  1  0.08937079  0.49232952  0.13863602  1
  Ti  Ti130  1  0.91650926  0.10905584  0.62119699  1
  Ti  Ti131  1  0.00542815  0.61341149  0.74288680  1
  Ti  Ti132  1  0.49373915  0.89624746  0.87080642  1
  Ti  Ti133  1  0.39373405  0.57918386  0.50541238  1
  Ti  Ti134  1  0.21385272  0.40603372  0.50442881  1
  Ti  Ti135  1  0.40293380  -0.01192324  0.25313872  1
  Ti  Ti136  1  0.69935693  0.91307707  0.63672171  1
  Ti  Ti137  1  0.50348289  0.28786683  0.12148614  1
  Ti  Ti138  1  0.69966385  0.10510102  0.12694900  1
  Ti  Ti139  1  0.89711091  0.70493844  0.13789169  1
  Ti  Ti140  1  0.40628730  0.59375115  0.22975804  1
  Ti  Ti141  1  0.79923227  0.21250219  -0.00403404  1
  Ti  Ti142  1  0.59538974  0.00109417  0.75319168  1
  Ti  Ti143  1  0.89167071  0.70971471  0.37339944  1
  Ti  Ti144  1  0.89600790  0.90336977  0.36844960  1
  Ti  Ti145  1  0.69451712  0.90989995  0.86383013  1
  Ti  Ti146  1  0.10588765  0.10591554  0.87405196  1
  Ti  Ti147  1  0.00299449  0.41135134  -0.00614850  1
  Ti  Ti148  1  0.70365398  0.29324945  0.12707057  1
  Ti  Ti149  1  -0.00555356  0.59704962  0.26338999  1
  Ti  Ti150  1  0.59990843  0.20073648  0.25113590  1
  Ti  Ti151  1  0.39921401  0.21144159  0.76466534  1
  Ti  Ti152  1  0.50571476  0.10532554  0.38480334  1
  Ti  Ti153  1  0.10723292  0.90573831  0.87313005  1
  Ti  Ti154  1  0.69431246  0.51094547  0.61178543  1
  Ti  Ti155  1  0.59095098  0.19809938  0.50209646  1
  Ti  Ti156  1  0.79997600  0.17949051  0.26246153  1
  Ti  Ti157  1  0.49490966  0.68221909  0.36326303  1
  Ti  Ti158  1  0.91409903  0.71680103  0.61469782  1
  Ti  Ti159  1  0.20599051  0.19954316  -0.01464834  1
  Mo  Mo160  1  0.00391212  0.20601314  0.75054407  1
  Mo  Mo161  1  -0.00006573  0.40505728  0.25924853  1
  Mo  Mo162  1  0.30321929  0.08833964  0.12455064  1
  Mo  Mo163  1  0.50480737  0.69371639  0.13118512  1
  Mo  Mo164  1  0.49838813  0.69465425  0.63797869  1
  Mo  Mo165  1  0.69360771  0.09864236  0.38778493  1
  Mo  Mo166  1  0.09567166  0.30557437  0.12449645  1
  Mo  Mo167  1  0.20523172  0.80676008  0.23634537  1
  Mo  Mo168  1  0.40566173  -0.01635057  -0.01223000  1
  Mo  Mo169  1  0.49629063  0.29264907  0.87509835  1
  Mo  Mo170  1  0.48699457  0.49569004  0.37012488  1
  Mo  Mo171  1  0.41081887  0.19815478  0.49729424  1
  Mo  Mo172  1  0.10054147  0.49919690  0.87967190  1
  Mo  Mo173  1  0.82220809  0.79755451  0.49157010  1
  Mo  Mo174  1  0.90305801  0.70999484  0.87868991  1
  Mo  Mo175  1  0.00460391  0.19398290  0.50731772  1
  Mo  Mo176  1  0.70115763  0.50731867  0.88051931  1
  Mo  Mo177  1  0.79780528  0.61110192  0.49041119  1
  Mo  Mo178  1  0.59275132  0.00278880  0.49307209  1
  Mo  Mo179  1  0.29679615  0.69633049  0.12364607  1
  Mo  Mo180  1  0.49854254  0.89732541  0.13358694  1
  Mo  Mo181  1  0.90103798  0.50101581  0.38039763  1
  Mo  Mo182  1  0.39960210  -0.00680531  0.75436736  1
  Mo  Mo183  1  0.09742338  0.90651558  0.37268265  1
  Mo  Mo184  1  0.30886650  0.30392716  0.62964529  1
  Mo  Mo185  1  0.79434732  0.00623820  0.75420233  1
  Mo  Mo186  1  0.89375459  0.10676120  0.38041144  1
  Mo  Mo187  1  0.29449996  0.28991853  0.87439157  1
  Mo  Mo188  1  0.39979748  0.80317206  0.00345509  1
  Mo  Mo189  1  0.38899583  0.39743930  0.76765966  1
  Mo  Mo190  1  0.80135365  0.80327314  0.25268253  1
  Mo  Mo191  1  0.80493804  0.19697373  0.50954659  1
  Mo  Mo192  1  0.09112078  0.70444672  0.62746970  1
  Mo  Mo193  1  0.80120955  0.81299949  0.75142456  1
  Mo  Mo194  1  0.09815912  0.09127948  0.61728539  1
  Mo  Mo195  1  0.79733105  0.00770612  0.26780310  1
  Mo  Mo196  1  0.20440378  0.39505892  0.74788036  1
  Mo  Mo197  1  0.19997634  0.80128411  0.50512674  1
  Mo  Mo198  1  0.58755080  0.39619581  0.50289888  1
  Mo  Mo199  1  0.20338226  0.19721635  0.25461043  1
