# generated using pymatgen
data_HfZrTaTiMo
_symmetry_space_group_name_H-M   'P 1'
_cell_length_a   15.22592911
_cell_length_b   15.20444042
_cell_length_c   16.87067633
_cell_angle_alpha   89.96144115
_cell_angle_beta   89.97288967
_cell_angle_gamma   90.08031459
_symmetry_Int_Tables_number   1
_chemical_formula_structural   HfZrTaTiMo
_chemical_formula_sum   'Hf40 Zr40 Ta40 Ti40 Mo40'
_cell_volume   3905.58563017
_cell_formula_units_Z   40
loop_
 _symmetry_equiv_pos_site_id
 _symmetry_equiv_pos_as_xyz
  1  'x, y, z'
loop_
 _atom_site_type_symbol
 _atom_site_label
 _atom_site_symmetry_multiplicity
 _atom_site_fract_x
 _atom_site_fract_y
 _atom_site_fract_z
 _atom_site_occupancy
  Hf  Hf0  1  0.78825811  0.60961875  0.25319879  1
  Hf  Hf1  1  0.19821458  0.38641317  0.25965491  1
  Hf  Hf2  1  0.50421480  0.48050483  0.35779405  1
  Hf  Hf3  1  0.18351492  0.60014541  0.49519159  1
  Hf  Hf4  1  0.90507203  0.91507221  0.11139953  1
  Hf  Hf5  1  0.50280907  0.68966649  0.36747436  1
  Hf  Hf6  1  0.58993725  0.00853391  0.49795556  1
  Hf  Hf7  1  0.59147948  0.20216182  0.01177151  1
  Hf  Hf8  1  0.59666714  0.79971463  0.74889967  1
  Hf  Hf9  1  0.83171660  0.40757925  0.75823937  1
  Hf  Hf10  1  0.79119506  0.00900211  0.24315584  1
  Hf  Hf11  1  0.30489984  0.69616400  0.13939878  1
  Hf  Hf12  1  0.80604999  0.81484536  0.24427436  1
  Hf  Hf13  1  -0.00798641  0.01660841  0.24264681  1
  Hf  Hf14  1  0.79464761  0.20427073  0.49870200  1
  Hf  Hf15  1  0.61099071  0.79594099  0.25115769  1
  Hf  Hf16  1  -0.00701813  0.58692197  -0.00197605  1
  Hf  Hf17  1  0.29779972  0.09410205  0.37461552  1
  Hf  Hf18  1  0.71206400  0.30695171  0.62388738  1
  Hf  Hf19  1  0.59804229  0.58860164  0.49765702  1
  Hf  Hf20  1  0.19310851  0.19061177  0.24269134  1
  Hf  Hf21  1  0.70168511  0.30986061  0.12703827  1
  Hf  Hf22  1  0.00690288  0.40711069  0.48390617  1
  Hf  Hf23  1  0.90343344  0.70552161  0.12569503  1
  Hf  Hf24  1  0.51560416  0.27868372  0.63785463  1
  Hf  Hf25  1  0.59550205  0.58266235  0.00859412  1
  Hf  Hf26  1  0.30076601  0.47901428  0.13171992  1
  Hf  Hf27  1  0.39172123  0.60243453  0.75261106  1
  Hf  Hf28  1  0.80178668  0.62435611  0.48520748  1
  Hf  Hf29  1  0.30473625  0.50869949  0.60743181  1
  Hf  Hf30  1  0.51337081  0.49988735  0.86978145  1
  Hf  Hf31  1  0.68575892  0.11066940  0.36920177  1
  Hf  Hf32  1  0.28581015  0.88813671  0.13259345  1
  Hf  Hf33  1  0.09225871  0.89791997  0.38014881  1
  Hf  Hf34  1  0.39433652  0.38878801  0.75541249  1
  Hf  Hf35  1  0.08912555  0.47268611  0.87767737  1
  Hf  Hf36  1  0.90334154  0.51693199  0.60960126  1
  Hf  Hf37  1  0.42636840  0.18588362  0.49280140  1
  Hf  Hf38  1  0.61409057  0.80104361  0.49877612  1
  Hf  Hf39  1  -0.00329419  0.22789985  0.74918876  1
  Zr  Zr40  1  0.10477511  0.70060385  0.86981308  1
  Zr  Zr41  1  0.01143484  0.81702698  -0.00745955  1
  Zr  Zr42  1  0.50255508  0.89645715  0.12646007  1
  Zr  Zr43  1  -0.01114387  0.58751066  0.76103883  1
  Zr  Zr44  1  0.30825171  0.29740943  0.61023106  1
  Zr  Zr45  1  0.59171975  0.00797963  0.76516861  1
  Zr  Zr46  1  0.19538362  0.18998793  0.74068691  1
  Zr  Zr47  1  0.10177790  0.12081584  0.88843629  1
  Zr  Zr48  1  0.79455022  -0.00494869  0.50603742  1
  Zr  Zr49  1  0.50663405  0.48459654  0.62608566  1
  Zr  Zr50  1  0.08097130  0.69766494  0.63700262  1
  Zr  Zr51  1  0.88498464  0.10508065  0.64439446  1
  Zr  Zr52  1  0.20083963  0.58776029  0.00088143  1
  Zr  Zr53  1  0.40483659  0.39057402  -0.00459890  1
  Zr  Zr54  1  0.39987168  0.00510940  0.23873814  1
  Zr  Zr55  1  0.20105496  -0.00418576  0.49753427  1
  Zr  Zr56  1  0.62823135  0.40415636  0.75474504  1
  Zr  Zr57  1  -0.00201815  0.01154960  0.51545254  1
  Zr  Zr58  1  0.88921534  0.71531020  0.87146780  1
  Zr  Zr59  1  0.59631352  0.79345412  -0.00031233  1
  Zr  Zr60  1  0.19514475  0.79738951  0.51085649  1
  Zr  Zr61  1  0.50840103  0.28867374  0.87090125  1
  Zr  Zr62  1  0.39918208  0.20263557  0.23656801  1
  Zr  Zr63  1  0.10748277  0.70729358  0.12434399  1
  Zr  Zr64  1  0.39875149  0.59575814  0.00120775  1
  Zr  Zr65  1  0.77970941  0.21079419  0.77016838  1
  Zr  Zr66  1  0.89820611  0.88564758  0.65458868  1
  Zr  Zr67  1  0.19824691  0.38902847  0.74874442  1
  Zr  Zr68  1  0.29926859  0.08928008  0.61593136  1
  Zr  Zr69  1  0.10769899  0.90967988  0.64530332  1
  Zr  Zr70  1  0.90644347  0.91715593  0.85785586  1
  Zr  Zr71  1  0.39823287  0.79639516  0.49994715  1
  Zr  Zr72  1  0.81543268  0.20021784  0.00632313  1
  Zr  Zr73  1  0.79397982  0.60595313  0.00674374  1
  Zr  Zr74  1  0.29533591  0.70108882  0.36341279  1
  Zr  Zr75  1  0.68752075  0.69267973  0.87269843  1
  Zr  Zr76  1  0.48858912  0.69416662  0.61914202  1
  Zr  Zr77  1  0.31107196  0.29950891  0.38342181  1
  Zr  Zr78  1  0.90812404  0.29809306  0.36907343  1
  Zr  Zr79  1  0.90849729  0.71081277  0.36208139  1
  Ta  Ta80  1  -0.00868673  0.02340674  -0.00500889  1
  Ta  Ta81  1  0.92661330  0.31414908  0.89293193  1
  Ta  Ta82  1  0.21602407  0.79317599  0.74851690  1
  Ta  Ta83  1  0.48354845  0.09104115  0.89203640  1
  Ta  Ta84  1  0.70369364  0.90104478  0.10699050  1
  Ta  Ta85  1  0.30458489  0.50230448  0.37979649  1
  Ta  Ta86  1  0.08269630  0.11251671  0.37258105  1
  Ta  Ta87  1  0.49899761  0.69041144  0.14054511  1
  Ta  Ta88  1  0.18290367  -0.00891174  0.24783920  1
  Ta  Ta89  1  0.90033498  0.90989416  0.37649593  1
  Ta  Ta90  1  0.70169992  0.91003996  0.63906979  1
  Ta  Ta91  1  0.49866084  0.90099258  0.36405445  1
  Ta  Ta92  1  0.71617772  0.70801731  0.62860351  1
  Ta  Ta93  1  0.09455890  0.29920383  0.60997524  1
  Ta  Ta94  1  -0.00211999  0.21699934  0.22973534  1
  Ta  Ta95  1  0.39575611  0.17273939  0.75988868  1
  Ta  Ta96  1  0.70892924  0.89935773  0.87898947  1
  Ta  Ta97  1  0.20204768  0.59211263  0.74748181  1
  Ta  Ta98  1  0.39484442  0.79493636  -0.00093401  1
  Ta  Ta99  1  0.39634635  -0.00602731  0.01026769  1
  Ta  Ta100  1  0.29925890  0.89370891  0.35831177  1
  Ta  Ta101  1  0.70309397  0.30491838  0.35801914  1
  Ta  Ta102  1  0.70325866  0.89920444  0.37497160  1
  Ta  Ta103  1  0.80907719  0.41346916  0.00644664  1
  Ta  Ta104  1  0.49262495  0.08790850  0.63342413  1
  Ta  Ta105  1  0.18066427  0.19748766  0.49683274  1
  Ta  Ta106  1  0.09466351  0.09981250  0.11230130  1
  Ta  Ta107  1  0.48926222  0.70224767  0.87165794  1
  Ta  Ta108  1  0.67987743  0.10986762  0.63310329  1
  Ta  Ta109  1  0.51839933  0.28014306  0.36209105  1
  Ta  Ta110  1  0.89529160  0.10433928  0.37330906  1
  Ta  Ta111  1  0.09853118  0.49245521  0.62357746  1
  Ta  Ta112  1  -0.02021187  0.79078057  0.50670577  1
  Ta  Ta113  1  0.19189243  0.59271629  0.25220685  1
  Ta  Ta114  1  0.60914967  0.38031534  0.49060777  1
  Ta  Ta115  1  0.50621453  0.49023048  0.14435523  1
  Ta  Ta116  1  0.09139644  0.49115098  0.13601848  1
  Ta  Ta117  1  0.78781541  0.59710543  0.74993231  1
  Ta  Ta118  1  0.01558134  0.81890926  0.23978148  1
  Ta  Ta119  1  0.19581149  -0.00779549  -0.00555586  1
  Ti  Ti120  1  0.59841960  0.00201328  0.24522693  1
  Ti  Ti121  1  0.69648755  0.50189559  0.36473230  1
  Ti  Ti122  1  0.31063370  0.90023985  0.87622222  1
  Ti  Ti123  1  0.30044915  0.69867019  0.87541414  1
  Ti  Ti124  1  0.39982214  0.80440769  0.75165603  1
  Ti  Ti125  1  0.59876851  0.18951236  0.22982628  1
  Ti  Ti126  1  0.29488535  0.49067294  0.87771505  1
  Ti  Ti127  1  0.70621834  0.31752225  0.89759577  1
  Ti  Ti128  1  0.69700613  0.70402518  0.12124297  1
  Ti  Ti129  1  0.49968347  0.89764580  0.88451054  1
  Ti  Ti130  1  0.40134944  -0.01203554  0.49080404  1
  Ti  Ti131  1  0.38818764  0.19491352  0.01250756  1
  Ti  Ti132  1  0.22509825  0.00386386  0.76202309  1
  Ti  Ti133  1  0.01770118  0.02408476  0.75037392  1
  Ti  Ti134  1  0.90245557  0.49930358  0.14049940  1
  Ti  Ti135  1  0.80532304  0.19793256  0.23452651  1
  Ti  Ti136  1  0.28914169  0.27433396  0.88243689  1
  Ti  Ti137  1  0.68792518  0.10315920  0.88585203  1
  Ti  Ti138  1  0.41713163  0.39981083  0.49494168  1
  Ti  Ti139  1  0.60008885  0.60043220  0.73976516  1
  Ti  Ti140  1  0.10905682  0.90442655  0.85909092  1
  Ti  Ti141  1  0.79645388  0.00350384  -0.00814333  1
  Ti  Ti142  1  0.69624912  0.49944483  0.13819398  1
  Ti  Ti143  1  0.19032897  0.37497545  0.00689100  1
  Ti  Ti144  1  0.50130820  0.90427094  0.62728003  1
  Ti  Ti145  1  0.79720378  0.41230431  0.48329801  1
  Ti  Ti146  1  0.09281632  0.50514735  0.36219600  1
  Ti  Ti147  1  0.19854464  0.39802846  0.48695884  1
  Ti  Ti148  1  0.89600288  0.11093447  0.86717860  1
  Ti  Ti149  1  0.90639576  0.31538517  0.60970926  1
  Ti  Ti150  1  0.70868723  0.50378575  0.61450630  1
  Ti  Ti151  1  0.49539215  0.30931002  0.13211168  1
  Ti  Ti152  1  0.29073041  0.09341115  0.11757686  1
  Ti  Ti153  1  0.69308440  0.08987036  0.11346062  1
  Ti  Ti154  1  0.39709385  0.58715515  0.25090415  1
  Ti  Ti155  1  0.90566215  0.51087658  0.36422784  1
  Ti  Ti156  1  0.09264738  0.70038587  0.36595360  1
  Ti  Ti157  1  0.80927112  0.39992977  0.24947290  1
  Ti  Ti158  1  0.31357498  0.89544236  0.63210809  1
  Ti  Ti159  1  0.20756438  0.80151288  -0.00836787  1
  Mo  Mo160  1  0.10668169  0.29899772  0.88301850  1
  Mo  Mo161  1  -0.00638137  0.20133175  0.50257084  1
  Mo  Mo162  1  0.10612994  0.30544082  0.12670039  1
  Mo  Mo163  1  0.89159111  0.49878364  0.88251901  1
  Mo  Mo164  1  0.20814776  0.19540938  0.01484212  1
  Mo  Mo165  1  0.60454166  0.19944649  0.49934622  1
  Mo  Mo166  1  0.00241332  0.40853852  0.25871086  1
  Mo  Mo167  1  0.00942154  0.21698885  0.02043797  1
  Mo  Mo168  1  0.30310329  0.09095066  0.88895037  1
  Mo  Mo169  1  0.60291697  0.59663338  0.24426288  1
  Mo  Mo170  1  0.50099043  0.09124480  0.36574298  1
  Mo  Mo171  1  0.39988089  0.39543512  0.25363955  1
  Mo  Mo172  1  0.10300073  0.91235978  0.11674875  1
  Mo  Mo173  1  0.39629649  0.58917172  0.49089848  1
  Mo  Mo174  1  0.50060508  0.09752322  0.10737277  1
  Mo  Mo175  1  0.29351959  0.70015588  0.63214803  1
  Mo  Mo176  1  0.00610893  0.40073094  0.73920661  1
  Mo  Mo177  1  0.10058144  0.29433585  0.37879307  1
  Mo  Mo178  1  0.79054157  0.80011790  0.75355337  1
  Mo  Mo179  1  0.70700677  0.49693853  0.87855023  1
  Mo  Mo180  1  0.60866083  0.38895661  0.25028367  1
  Mo  Mo181  1  0.78762518  0.00978643  0.76127199  1
  Mo  Mo182  1  0.01053882  0.80406913  0.76185762  1
  Mo  Mo183  1  0.69945978  0.70688792  0.37572351  1
  Mo  Mo184  1  0.19404471  0.80073813  0.25514202  1
  Mo  Mo185  1  0.40525625  0.79659586  0.25418163  1
  Mo  Mo186  1  0.79827427  0.81166102  0.00234686  1
  Mo  Mo187  1  0.80115808  0.81318837  0.50101251  1
  Mo  Mo188  1  -0.00123709  0.39963371  0.01589251  1
  Mo  Mo189  1  0.00258160  0.60546660  0.49199262  1
  Mo  Mo190  1  0.39841840  -0.01472567  0.75617123  1
  Mo  Mo191  1  0.60195158  0.00061941  -0.01216577  1
  Mo  Mo192  1  0.09598948  0.10726935  0.62870956  1
  Mo  Mo193  1  0.89235861  0.10987360  0.12137902  1
  Mo  Mo194  1  0.00231568  0.60414313  0.24416254  1
  Mo  Mo195  1  0.89167146  0.69883566  0.63363052  1
  Mo  Mo196  1  0.90309815  0.31708747  0.13237185  1
  Mo  Mo197  1  0.29929663  0.29368631  0.12300917  1
  Mo  Mo198  1  0.59450502  0.19681438  0.76324233  1
  Mo  Mo199  1  0.60828464  0.40220535  0.00718868  1
