# generated using pymatgen
data_HfZrTaTiMo
_symmetry_space_group_name_H-M   'P 1'
_cell_length_a   15.18273638
_cell_length_b   15.18150164
_cell_length_c   16.80639705
_cell_angle_alpha   89.94571082
_cell_angle_beta   90.03252525
_cell_angle_gamma   89.88339825
_symmetry_Int_Tables_number   1
_chemical_formula_structural   HfZrTaTiMo
_chemical_formula_sum   'Hf40 Zr40 Ta40 Ti40 Mo40'
_cell_volume   3873.80929686
_cell_formula_units_Z   40
loop_
 _symmetry_equiv_pos_site_id
 _symmetry_equiv_pos_as_xyz
  1  'x, y, z'
loop_
 _atom_site_type_symbol
 _atom_site_label
 _atom_site_symmetry_multiplicity
 _atom_site_fract_x
 _atom_site_fract_y
 _atom_site_fract_z
 _atom_site_occupancy
  Hf  Hf0  1  -0.00350301  0.79679023  0.50641020  1
  Hf  Hf1  1  0.32281668  0.48289756  0.11581236  1
  Hf  Hf2  1  0.48859208  0.90670958  0.62070482  1
  Hf  Hf3  1  0.10000418  0.28794343  0.60850276  1
  Hf  Hf4  1  0.60893552  0.79536696  0.01287137  1
  Hf  Hf5  1  0.79205984  0.60233037  0.00284592  1
  Hf  Hf6  1  0.90453429  0.48161975  0.63372515  1
  Hf  Hf7  1  0.59349319  -0.00159434  0.01113045  1
  Hf  Hf8  1  0.70539756  0.10049584  0.12109048  1
  Hf  Hf9  1  0.30020135  0.69840162  0.37803174  1
  Hf  Hf10  1  0.82126702  0.80825992  0.24428940  1
  Hf  Hf11  1  0.68289066  0.89605087  0.62248436  1
  Hf  Hf12  1  0.49107180  0.10397932  0.88204349  1
  Hf  Hf13  1  0.80848072  0.38934280  0.00662523  1
  Hf  Hf14  1  0.19962983  0.40286137  0.25964031  1
  Hf  Hf15  1  0.10285740  0.48293086  0.86821196  1
  Hf  Hf16  1  0.90779200  0.30198225  0.87352011  1
  Hf  Hf17  1  0.30549945  0.71284310  0.88631374  1
  Hf  Hf18  1  0.10169235  0.70200474  0.38224012  1
  Hf  Hf19  1  0.80921111  0.60132816  0.74877691  1
  Hf  Hf20  1  0.60560857  0.39346922  0.75724052  1
  Hf  Hf21  1  0.70635152  0.69642181  0.36328038  1
  Hf  Hf22  1  0.29148181  0.09870430  0.87486191  1
  Hf  Hf23  1  0.59521453  0.58834702  0.25314099  1
  Hf  Hf24  1  0.49596716  0.70193292  0.36883301  1
  Hf  Hf25  1  0.59599344  0.01725076  0.47941400  1
  Hf  Hf26  1  0.30178411  0.28418543  0.14272509  1
  Hf  Hf27  1  0.89324922  0.91159462  0.62080156  1
  Hf  Hf28  1  0.39761821  0.19171437  0.73735460  1
  Hf  Hf29  1  0.00874641  0.18599251  0.75532034  1
  Hf  Hf30  1  0.81382476  0.37782670  0.25128424  1
  Hf  Hf31  1  0.70120393  0.09184709  0.88607316  1
  Hf  Hf32  1  0.18939429  0.78743492  0.23228665  1
  Hf  Hf33  1  0.89031360  0.91150934  0.89951612  1
  Hf  Hf34  1  0.29188287  0.29644806  0.86100409  1
  Hf  Hf35  1  0.41878946  0.58198046  -0.01611346  1
  Hf  Hf36  1  0.08373336  0.10278788  0.13797352  1
  Hf  Hf37  1  0.58977130  0.80083724  0.48874720  1
  Hf  Hf38  1  0.20153880  0.18547445  0.01003168  1
  Hf  Hf39  1  0.10827613  0.49366040  0.62589696  1
  Zr  Zr40  1  0.40995343  0.61099313  0.76230783  1
  Zr  Zr41  1  0.78739087  0.79847916  0.75111027  1
  Zr  Zr42  1  0.38763230  0.01124063  0.01940450  1
  Zr  Zr43  1  0.61245879  0.61363897  0.77174744  1
  Zr  Zr44  1  0.19875611  0.38621636  -0.00048418  1
  Zr  Zr45  1  0.10869939  0.50617083  0.38915274  1
  Zr  Zr46  1  0.39701185  0.59010990  0.24652249  1
  Zr  Zr47  1  0.69002436  0.49519635  0.13178124  1
  Zr  Zr48  1  0.09929900  0.90928301  0.61768424  1
  Zr  Zr49  1  0.27661703  0.11560245  0.60904911  1
  Zr  Zr50  1  0.89580417  0.70637892  0.89092244  1
  Zr  Zr51  1  0.60089491  0.19177926  0.74769746  1
  Zr  Zr52  1  0.79126987  0.00489909  0.75511410  1
  Zr  Zr53  1  0.29312879  0.69157668  0.10265566  1
  Zr  Zr54  1  0.38946657  -0.00036515  0.48424007  1
  Zr  Zr55  1  0.41564167  0.38181782  0.51343368  1
  Zr  Zr56  1  0.58820735  0.41046706  -0.01397846  1
  Zr  Zr57  1  0.11531367  0.51038762  0.11918630  1
  Zr  Zr58  1  0.30925313  0.71743260  0.62821818  1
  Zr  Zr59  1  -0.02762608  0.20831329  0.26195074  1
  Zr  Zr60  1  0.70417493  0.09926241  0.62017948  1
  Zr  Zr61  1  -0.00706774  -0.00288393  0.76309350  1
  Zr  Zr62  1  0.18888201  0.01741072  0.75290274  1
  Zr  Zr63  1  0.10059515  0.70727337  0.88855380  1
  Zr  Zr64  1  0.91452752  0.48427723  0.12728965  1
  Zr  Zr65  1  0.41451968  0.60628245  0.50535485  1
  Zr  Zr66  1  0.69576510  0.29353136  0.12509471  1
  Zr  Zr67  1  0.51824152  0.50713684  0.62994648  1
  Zr  Zr68  1  0.49199237  0.90758823  0.35085329  1
  Zr  Zr69  1  0.30354345  0.50517359  0.63609841  1
  Zr  Zr70  1  0.29136685  0.89498935  0.35091689  1
  Zr  Zr71  1  0.81178704  0.59868106  0.49833450  1
  Zr  Zr72  1  0.80938839  0.39159790  0.49498668  1
  Zr  Zr73  1  0.80030636  0.79874451  0.49550311  1
  Zr  Zr74  1  0.29660728  0.91708029  0.62870274  1
  Zr  Zr75  1  0.01264927  0.60882645  0.24467378  1
  Zr  Zr76  1  0.90607642  0.49723648  0.87226268  1
  Zr  Zr77  1  -0.00355645  0.79773982  0.74954208  1
  Zr  Zr78  1  0.71108559  0.90945989  0.35864882  1
  Zr  Zr79  1  0.21136523  0.38841659  0.49448294  1
  Ta  Ta80  1  0.00804867  0.60145956  0.74328330  1
  Ta  Ta81  1  0.31535234  0.49454676  0.38261676  1
  Ta  Ta82  1  0.91581742  0.48968638  0.37021103  1
  Ta  Ta83  1  0.70676323  0.48918405  0.36595237  1
  Ta  Ta84  1  0.70438437  0.30347919  0.62560971  1
  Ta  Ta85  1  0.50636933  0.68767543  0.11997341  1
  Ta  Ta86  1  0.00279357  0.20930348  -0.00111422  1
  Ta  Ta87  1  0.59072417  0.21231240  0.50167750  1
  Ta  Ta88  1  0.29927129  0.09735915  0.34985597  1
  Ta  Ta89  1  0.70439299  0.29161014  0.87987216  1
  Ta  Ta90  1  0.50345445  0.90545704  0.13979526  1
  Ta  Ta91  1  0.40713688  0.82052424  0.76129971  1
  Ta  Ta92  1  0.90376685  0.27678878  0.61948059  1
  Ta  Ta93  1  0.39920794  0.78955713  0.22738971  1
  Ta  Ta94  1  0.00344812  0.80953964  0.01498963  1
  Ta  Ta95  1  0.81094062  0.59575833  0.25099185  1
  Ta  Ta96  1  0.30692633  0.29277230  0.36641703  1
  Ta  Ta97  1  0.49514039  0.31763825  0.12706201  1
  Ta  Ta98  1  0.61164903  0.40050166  0.50053617  1
  Ta  Ta99  1  0.28728087  0.09219106  0.15420681  1
  Ta  Ta100  1  0.10772102  0.70017719  0.62666588  1
  Ta  Ta101  1  0.90254130  0.70085382  0.11681711  1
  Ta  Ta102  1  0.10345771  0.91229331  0.11662236  1
  Ta  Ta103  1  0.29863626  0.90561003  0.88354571  1
  Ta  Ta104  1  0.60535440  0.02171181  0.25104043  1
  Ta  Ta105  1  0.80633818  0.20422952  0.75262879  1
  Ta  Ta106  1  0.70731632  0.49702301  0.63082641  1
  Ta  Ta107  1  0.08221849  0.30948310  0.13433203  1
  Ta  Ta108  1  0.30749932  0.48926583  0.86319310  1
  Ta  Ta109  1  0.18475598  0.00456180  0.47469352  1
  Ta  Ta110  1  0.70709495  0.90286876  0.13558534  1
  Ta  Ta111  1  0.51299738  0.71702530  0.63198164  1
  Ta  Ta112  1  0.19869573  0.80839289  0.75920738  1
  Ta  Ta113  1  0.19941100  0.60857166  0.75920561  1
  Ta  Ta114  1  0.70530871  0.69861163  0.13766936  1
  Ta  Ta115  1  0.08538198  0.89574869  0.36813185  1
  Ta  Ta116  1  0.20662465  0.80908375  0.49797969  1
  Ta  Ta117  1  0.48997372  0.12003966  0.13572889  1
  Ta  Ta118  1  0.69894478  0.28938838  0.37250247  1
  Ta  Ta119  1  0.69684708  0.69321437  0.62112762  1
  Ti  Ti120  1  0.61456749  0.59678624  0.49470723  1
  Ti  Ti121  1  0.07572543  0.30921346  0.38306105  1
  Ti  Ti122  1  -0.01504453  -0.00591361  0.25553755  1
  Ti  Ti123  1  0.88024612  0.09552225  0.37057276  1
  Ti  Ti124  1  0.49398870  0.09912682  0.61932720  1
  Ti  Ti125  1  0.69181188  0.88593412  0.88396223  1
  Ti  Ti126  1  0.49318035  0.90663148  0.88402278  1
  Ti  Ti127  1  0.58149510  -0.01123332  0.75656824  1
  Ti  Ti128  1  0.01072829  0.38188377  0.74509455  1
  Ti  Ti129  1  0.71174823  0.49138309  0.87109972  1
  Ti  Ti130  1  0.80020410  0.00051659  0.49197650  1
  Ti  Ti131  1  0.20527918  0.59235450  -0.01638624  1
  Ti  Ti132  1  0.91065843  0.70408291  0.36805146  1
  Ti  Ti133  1  0.00459287  0.80607645  0.22872697  1
  Ti  Ti134  1  0.07547833  0.10124887  0.60627406  1
  Ti  Ti135  1  0.10701351  0.91367782  0.89922612  1
  Ti  Ti136  1  0.79696278  0.19013836  0.49594302  1
  Ti  Ti137  1  -0.01011013  0.00918628  0.48136202  1
  Ti  Ti138  1  0.00455877  0.59383932  0.00275160  1
  Ti  Ti139  1  0.81246353  0.18545493  -0.00247216  1
  Ti  Ti140  1  0.40983032  0.39615515  0.74195871  1
  Ti  Ti141  1  0.51118024  0.72011606  0.88091514  1
  Ti  Ti142  1  0.39776047  0.19283995  0.49093189  1
  Ti  Ti143  1  0.48815653  0.30189471  0.87824764  1
  Ti  Ti144  1  0.90040252  0.92661747  0.11082580  1
  Ti  Ti145  1  0.40685813  0.80848112  0.01321406  1
  Ti  Ti146  1  0.18436055  0.18850433  0.46681219  1
  Ti  Ti147  1  0.60079739  0.79786532  0.24191550  1
  Ti  Ti148  1  0.20767064  0.60559474  0.50810005  1
  Ti  Ti149  1  0.29387924  0.30434358  0.63733448  1
  Ti  Ti150  1  0.59447552  0.21090500  0.25437198  1
  Ti  Ti151  1  0.41658839  0.40015702  0.25752529  1
  Ti  Ti152  1  0.50945025  0.49233543  0.38449237  1
  Ti  Ti153  1  -0.00064325  0.59639455  0.51284762  1
  Ti  Ti154  1  0.18092818  0.20214604  0.26613253  1
  Ti  Ti155  1  0.60502218  0.60100070  -0.01325417  1
  Ti  Ti156  1  0.20930289  0.59716173  0.24986073  1
  Ti  Ti157  1  0.29538425  0.90316857  0.13189795  1
  Ti  Ti158  1  0.50223797  0.30095917  0.37354768  1
  Ti  Ti159  1  0.58704633  0.20744560  0.00192043  1
  Mo  Mo160  1  0.59890804  0.39576811  0.26248259  1
  Mo  Mo161  1  0.79180930  -0.00328178  0.00335114  1
  Mo  Mo162  1  0.00481997  0.39494315  0.00078144  1
  Mo  Mo163  1  0.18245262  -0.00537969  0.25472522  1
  Mo  Mo164  1  0.90101238  0.28109523  0.11952616  1
  Mo  Mo165  1  0.39929012  0.38188687  -0.00701271  1
  Mo  Mo166  1  0.89681496  0.10315288  0.12567179  1
  Mo  Mo167  1  0.40357904  0.00352426  0.75629878  1
  Mo  Mo168  1  0.49854600  0.49284470  0.86294457  1
  Mo  Mo169  1  0.49360728  0.11801235  0.36157639  1
  Mo  Mo170  1  0.20714967  0.81141372  0.00656231  1
  Mo  Mo171  1  0.59305761  0.80859025  0.75705844  1
  Mo  Mo172  1  0.20059528  0.39990663  0.74576298  1
  Mo  Mo173  1  0.40010339  0.20940636  0.00684633  1
  Mo  Mo174  1  0.40041498  0.00055891  0.23643598  1
  Mo  Mo175  1  0.10474211  0.29002909  0.87172949  1
  Mo  Mo176  1  0.18767124  0.20817467  0.74440821  1
  Mo  Mo177  1  0.69357303  0.10745066  0.37612652  1
  Mo  Mo178  1  -0.00098946  0.01909993  -0.00206846  1
  Mo  Mo179  1  0.90114583  0.10134285  0.61356176  1
  Mo  Mo180  1  0.40236631  0.20573571  0.25702225  1
  Mo  Mo181  1  0.79972062  0.38686319  0.74842280  1
  Mo  Mo182  1  0.09002536  0.09462755  0.36040192  1
  Mo  Mo183  1  -0.01202392  0.19610666  0.48131786  1
  Mo  Mo184  1  0.09757843  0.70329021  0.10538115  1
  Mo  Mo185  1  0.19665487  -0.00096728  0.00847231  1
  Mo  Mo186  1  0.70270855  0.70488598  0.88452524  1
  Mo  Mo187  1  0.50350280  0.49664279  0.12276836  1
  Mo  Mo188  1  0.39660359  0.80194038  0.49852095  1
  Mo  Mo189  1  0.89105510  0.29609839  0.38491531  1
  Mo  Mo190  1  0.90798608  0.69307430  0.62839770  1
  Mo  Mo191  1  0.00641774  0.40018362  0.25573887  1
  Mo  Mo192  1  0.78159960  0.18408129  0.25639168  1
  Mo  Mo193  1  0.90747258  0.89946543  0.37487301  1
  Mo  Mo194  1  0.80814070  0.00871866  0.24664119  1
  Mo  Mo195  1  -0.00155061  0.40022490  0.50388514  1
  Mo  Mo196  1  0.09426223  0.10245793  0.88934954  1
  Mo  Mo197  1  0.89450951  0.10709402  0.88185018  1
  Mo  Mo198  1  0.79887708  0.80450075  0.02236265  1
  Mo  Mo199  1  0.50445037  0.29153392  0.62331606  1
