# generated using pymatgen
data_HfZrTaTiMo
_symmetry_space_group_name_H-M   'P 1'
_cell_length_a   15.21160498
_cell_length_b   15.20653506
_cell_length_c   16.85526505
_cell_angle_alpha   89.92207029
_cell_angle_beta   90.05581989
_cell_angle_gamma   89.91056512
_symmetry_Int_Tables_number   1
_chemical_formula_structural   HfZrTaTiMo
_chemical_formula_sum   'Hf40 Zr40 Ta40 Ti40 Mo40'
_cell_volume   3898.87898181
_cell_formula_units_Z   40
loop_
 _symmetry_equiv_pos_site_id
 _symmetry_equiv_pos_as_xyz
  1  'x, y, z'
loop_
 _atom_site_type_symbol
 _atom_site_label
 _atom_site_symmetry_multiplicity
 _atom_site_fract_x
 _atom_site_fract_y
 _atom_site_fract_z
 _atom_site_occupancy
  Hf  Hf0  1  0.70425691  0.09246283  0.37645393  1
  Hf  Hf1  1  0.90933268  0.51926420  0.62107776  1
  Hf  Hf2  1  0.41236458  0.40176477  0.25592427  1
  Hf  Hf3  1  -0.00175515  0.00225324  0.49562338  1
  Hf  Hf4  1  0.29273063  0.90380723  0.14022375  1
  Hf  Hf5  1  0.40089661  0.01007875  0.25904073  1
  Hf  Hf6  1  0.00140836  -0.01113469  -0.00540235  1
  Hf  Hf7  1  0.31403277  0.30176654  0.11734899  1
  Hf  Hf8  1  0.78448585  0.82533545  0.49147910  1
  Hf  Hf9  1  0.00985357  0.40050530  0.74369076  1
  Hf  Hf10  1  0.31037457  0.27313644  0.37776811  1
  Hf  Hf11  1  0.37854772  0.79380138  -0.00827778  1
  Hf  Hf12  1  0.80865206  0.61925220  0.50073173  1
  Hf  Hf13  1  0.00358259  0.38882508  0.50551071  1
  Hf  Hf14  1  -0.01342962  0.79688453  0.49068663  1
  Hf  Hf15  1  0.60469680  0.00043612  0.24791578  1
  Hf  Hf16  1  0.30882980  0.50510553  0.11676186  1
  Hf  Hf17  1  0.09558338  0.89428381  0.14190154  1
  Hf  Hf18  1  0.68293255  0.70852926  0.37858680  1
  Hf  Hf19  1  0.58611323  0.59507760  0.25275100  1
  Hf  Hf20  1  0.90879598  0.10774180  0.62263867  1
  Hf  Hf21  1  0.47746771  0.69345337  0.11900006  1
  Hf  Hf22  1  0.11069515  0.09647188  0.86583529  1
  Hf  Hf23  1  0.80869045  0.21242180  0.75093713  1
  Hf  Hf24  1  0.30989077  0.10345286  0.64591560  1
  Hf  Hf25  1  0.79585754  0.41273056  0.50486951  1
  Hf  Hf26  1  0.50184388  0.30629817  0.87083937  1
  Hf  Hf27  1  0.11644589  0.30474518  0.87387660  1
  Hf  Hf28  1  0.60138516  0.59472190  0.50729015  1
  Hf  Hf29  1  0.21797294  0.18553970  0.00327426  1
  Hf  Hf30  1  0.89310125  0.70435719  0.13572200  1
  Hf  Hf31  1  0.61961896  0.39939093  -0.00775448  1
  Hf  Hf32  1  0.69588303  0.70777902  0.87352353  1
  Hf  Hf33  1  0.10104307  0.49351868  0.38300083  1
  Hf  Hf34  1  0.08808055  0.69674260  0.13764148  1
  Hf  Hf35  1  0.40257969  0.00994471  0.49501797  1
  Hf  Hf36  1  0.48240561  0.70850882  0.61408390  1
  Hf  Hf37  1  0.19805179  0.59466997  0.51295351  1
  Hf  Hf38  1  0.90412668  0.10711087  0.12649528  1
  Hf  Hf39  1  0.61011927  0.19876989  0.74388615  1
  Zr  Zr40  1  0.80476451  0.61354083  0.75109213  1
  Zr  Zr41  1  0.40516342  0.37927883  0.50509153  1
  Zr  Zr42  1  0.69867411  0.10632331  0.87781587  1
  Zr  Zr43  1  0.01297995  0.20616461  0.00451886  1
  Zr  Zr44  1  0.51240654  0.07237260  0.63791671  1
  Zr  Zr45  1  0.59407711  0.80211507  0.00545648  1
  Zr  Zr46  1  0.39078349  0.58918342  0.50726529  1
  Zr  Zr47  1  0.19900626  0.60101248  0.00703728  1
  Zr  Zr48  1  0.49197962  0.09636109  0.86394957  1
  Zr  Zr49  1  0.79703236  0.00696395  0.00234099  1
  Zr  Zr50  1  0.41351319  0.20349837  0.24127390  1
  Zr  Zr51  1  0.59071904  0.60936849  0.75140970  1
  Zr  Zr52  1  0.81161020  0.20994858  0.50264493  1
  Zr  Zr53  1  0.28759030  0.69721463  0.36630279  1
  Zr  Zr54  1  0.79125072  0.58846258  -0.00721287  1
  Zr  Zr55  1  0.89716110  0.90647329  0.13692774  1
  Zr  Zr56  1  -0.00777776  -0.00286177  0.74762584  1
  Zr  Zr57  1  0.29787449  0.47098884  0.88209159  1
  Zr  Zr58  1  -0.00449182  0.59920810  -0.00709351  1
  Zr  Zr59  1  0.58565819  0.80075669  0.24123676  1
  Zr  Zr60  1  0.00459489  0.60193385  0.76514034  1
  Zr  Zr61  1  0.88961781  0.50034447  0.13132658  1
  Zr  Zr62  1  0.29374587  0.48460979  0.37165386  1
  Zr  Zr63  1  0.12173439  0.10331807  0.37923696  1
  Zr  Zr64  1  0.38779492  0.00660711  -0.00614896  1
  Zr  Zr65  1  0.09031008  0.69188322  0.37030760  1
  Zr  Zr66  1  0.59239178  0.82099953  0.73971986  1
  Zr  Zr67  1  0.50390974  0.49214433  0.11067566  1
  Zr  Zr68  1  0.29689036  0.90177100  0.37253783  1
  Zr  Zr69  1  0.01798426  0.20644691  0.24274719  1
  Zr  Zr70  1  0.78072068  0.81702967  0.25466861  1
  Zr  Zr71  1  0.19839738  -0.01529349  -0.00775934  1
  Zr  Zr72  1  0.29199883  0.68326076  0.86855653  1
  Zr  Zr73  1  0.31844847  0.89096988  0.62789163  1
  Zr  Zr74  1  0.90080083  0.50617419  0.36877505  1
  Zr  Zr75  1  0.69706970  0.29785310  0.37940670  1
  Zr  Zr76  1  0.90250826  0.32659605  0.88390909  1
  Zr  Zr77  1  0.69972628  0.90698267  0.88078831  1
  Zr  Zr78  1  0.01451353  0.40537935  0.24076427  1
  Zr  Zr79  1  0.07817171  0.69078378  0.61737990  1
  Ta  Ta80  1  0.11543617  0.29826708  0.38212062  1
  Ta  Ta81  1  0.19110262  0.78982288  0.73877462  1
  Ta  Ta82  1  0.00826580  0.20503600  0.75247547  1
  Ta  Ta83  1  0.09603024  0.89892179  0.62248044  1
  Ta  Ta84  1  0.39004092  0.58666118  0.74072521  1
  Ta  Ta85  1  0.69291725  0.68803619  0.12082503  1
  Ta  Ta86  1  0.79641686  0.21811122  -0.00325997  1
  Ta  Ta87  1  0.90218302  0.10555316  0.87364761  1
  Ta  Ta88  1  0.50054525  0.48674823  0.63346358  1
  Ta  Ta89  1  0.48682158  0.70513357  0.38901449  1
  Ta  Ta90  1  0.50260356  0.11972121  0.38340411  1
  Ta  Ta91  1  0.20116900  -0.00334456  0.51194472  1
  Ta  Ta92  1  0.59304517  0.60169723  -0.01182536  1
  Ta  Ta93  1  0.59357946  0.19771242  0.51491268  1
  Ta  Ta94  1  0.49258645  0.50659061  0.87782732  1
  Ta  Ta95  1  -0.01144083  0.79923017  0.74521987  1
  Ta  Ta96  1  0.69676218  0.30880998  0.62588736  1
  Ta  Ta97  1  0.20694552  0.38548176  0.51933123  1
  Ta  Ta98  1  0.71138309  0.31040829  0.12787588  1
  Ta  Ta99  1  0.49497110  0.89628649  0.87816365  1
  Ta  Ta100  1  0.50382568  0.09949696  0.11635176  1
  Ta  Ta101  1  0.70830493  0.48755141  0.86414304  1
  Ta  Ta102  1  0.70208691  0.10900799  0.12504281  1
  Ta  Ta103  1  0.78580536  0.00771144  0.73829513  1
  Ta  Ta104  1  0.80871759  0.79894906  0.00531726  1
  Ta  Ta105  1  0.69432901  0.50058438  0.37559331  1
  Ta  Ta106  1  0.60538193  0.19818313  0.00123315  1
  Ta  Ta107  1  0.60612979  0.20465989  0.24334488  1
  Ta  Ta108  1  0.90607229  0.10958347  0.37303175  1
  Ta  Ta109  1  0.20149444  0.80049886  0.50908373  1
  Ta  Ta110  1  0.80629840  0.20444772  0.24981164  1
  Ta  Ta111  1  0.10368298  0.89823792  0.36947731  1
  Ta  Ta112  1  0.18665916  0.58012761  0.23876311  1
  Ta  Ta113  1  0.59781151  0.39668136  0.50845827  1
  Ta  Ta114  1  0.69948120  0.71854472  0.62044858  1
  Ta  Ta115  1  0.39869850  0.78704929  0.75852725  1
  Ta  Ta116  1  0.60546186  0.39738466  0.24852220  1
  Ta  Ta117  1  0.51400244  0.89923694  0.39104969  1
  Ta  Ta118  1  0.49083802  0.90638925  0.11815521  1
  Ta  Ta119  1  0.19767571  -0.00912791  0.74284829  1
  Ti  Ti120  1  0.51282629  0.29956601  0.11169567  1
  Ti  Ti121  1  0.09760878  0.49431186  0.88002032  1
  Ti  Ti122  1  0.21741775  0.18571126  0.23938411  1
  Ti  Ti123  1  0.91498278  0.29984420  0.37353403  1
  Ti  Ti124  1  0.40009306  0.80044186  0.25476126  1
  Ti  Ti125  1  0.20250250  0.38337016  0.23796042  1
  Ti  Ti126  1  0.10392120  0.10537114  0.62440291  1
  Ti  Ti127  1  0.69908404  0.50631483  0.63392284  1
  Ti  Ti128  1  0.11693850  0.08913809  0.13010161  1
  Ti  Ti129  1  0.21678269  0.19628092  0.51420965  1
  Ti  Ti130  1  0.79798739  0.81366745  0.74264306  1
  Ti  Ti131  1  0.21515871  0.38701063  0.73128828  1
  Ti  Ti132  1  0.00328638  0.00841237  0.25995437  1
  Ti  Ti133  1  0.88592934  0.92211044  0.36562989  1
  Ti  Ti134  1  0.29160122  0.89912216  0.85836062  1
  Ti  Ti135  1  0.09764445  0.70660508  0.87448809  1
  Ti  Ti136  1  0.39297920  0.60029797  0.25628102  1
  Ti  Ti137  1  0.10486087  0.48854094  0.62223091  1
  Ti  Ti138  1  0.78337458  0.59732120  0.25043618  1
  Ti  Ti139  1  0.09292408  0.88743959  0.86487736  1
  Ti  Ti140  1  0.18618583  0.39207472  0.01523856  1
  Ti  Ti141  1  0.90824238  0.30452986  0.62699129  1
  Ti  Ti142  1  0.89233266  0.89712835  0.62279061  1
  Ti  Ti143  1  0.60206394  0.40284964  0.75146717  1
  Ti  Ti144  1  0.30789119  0.27488829  0.85895157  1
  Ti  Ti145  1  0.79726795  0.39774071  0.25457859  1
  Ti  Ti146  1  0.79303618  0.01150979  0.51060986  1
  Ti  Ti147  1  -0.00563735  0.80472390  0.26561911  1
  Ti  Ti148  1  0.40747872  0.20317945  -0.00402052  1
  Ti  Ti149  1  0.89560410  0.90123060  0.87163779  1
  Ti  Ti150  1  0.80423373  0.40735380  0.74432952  1
  Ti  Ti151  1  0.50422707  0.49521702  0.38175452  1
  Ti  Ti152  1  0.69381591  0.90773734  0.11517324  1
  Ti  Ti153  1  0.90159727  0.71452089  0.88089298  1
  Ti  Ti154  1  0.17965346  0.79753136  0.00126351  1
  Ti  Ti155  1  0.19856763  0.58682233  0.74030796  1
  Ti  Ti156  1  0.90563008  0.30754748  0.11620686  1
  Ti  Ti157  1  0.28527336  0.70846208  0.13999303  1
  Ti  Ti158  1  0.48958889  0.29031791  0.64028783  1
  Ti  Ti159  1  0.89103223  0.69985274  0.35994836  1
  Mo  Mo160  1  0.59197730  0.00521582  0.01141408  1
  Mo  Mo161  1  0.40888428  0.19744623  0.50999332  1
  Mo  Mo162  1  0.10137128  0.49223009  0.12228806  1
  Mo  Mo163  1  0.39105179  0.79868731  0.49215017  1
  Mo  Mo164  1  0.60449488  -0.00363135  0.75330301  1
  Mo  Mo165  1  0.40720937  0.39711287  0.74734162  1
  Mo  Mo166  1  0.19684025  0.79516395  0.25204205  1
  Mo  Mo167  1  0.40484471  -0.02273079  0.75835403  1
  Mo  Mo168  1  -0.00379690  0.59673173  0.50013976  1
  Mo  Mo169  1  0.28884341  0.69535532  0.63652615  1
  Mo  Mo170  1  0.69459297  0.91834822  0.62278596  1
  Mo  Mo171  1  0.49128003  0.69881312  0.87421048  1
  Mo  Mo172  1  0.10225713  0.28565883  0.62426274  1
  Mo  Mo173  1  0.19468987  0.00622738  0.25166908  1
  Mo  Mo174  1  0.70713645  0.10975160  0.62179538  1
  Mo  Mo175  1  0.30917749  0.09665823  0.12359572  1
  Mo  Mo176  1  0.69610466  0.91055325  0.37672744  1
  Mo  Mo177  1  0.70282372  0.30576424  0.86783738  1
  Mo  Mo178  1  -0.00766351  0.60219565  0.24978269  1
  Mo  Mo179  1  0.88927135  0.71896761  0.62491233  1
  Mo  Mo180  1  0.51503527  0.30160913  0.37748418  1
  Mo  Mo181  1  0.59402180  0.80220279  0.50748480  1
  Mo  Mo182  1  0.39842134  0.39067423  -0.00736034  1
  Mo  Mo183  1  0.69667867  0.49986265  0.13283881  1
  Mo  Mo184  1  0.40188091  0.19857495  0.75220199  1
  Mo  Mo185  1  0.01535310  0.20172388  0.49582781  1
  Mo  Mo186  1  -0.00210705  0.80300678  -0.00778605  1
  Mo  Mo187  1  0.11095877  0.29096951  0.12257494  1
  Mo  Mo188  1  0.00919636  0.40756812  0.01129608  1
  Mo  Mo189  1  0.19414599  0.19902619  0.74392834  1
  Mo  Mo190  1  0.90201980  0.50378174  0.87153550  1
  Mo  Mo191  1  0.50301613  0.89307250  0.60909158  1
  Mo  Mo192  1  0.80199747  0.01813897  0.24772857  1
  Mo  Mo193  1  0.29829411  0.09195690  0.84946331  1
  Mo  Mo194  1  0.30413036  0.09933643  0.38401839  1
  Mo  Mo195  1  0.30515273  0.29276822  0.63444164  1
  Mo  Mo196  1  0.30140348  0.49241763  0.63281605  1
  Mo  Mo197  1  0.40242820  0.59966455  -0.00749733  1
  Mo  Mo198  1  0.61237705  -0.00378359  0.49756091  1
  Mo  Mo199  1  0.80524378  0.40075591  0.00239525  1
