# generated using pymatgen
data_HfZrTaTiMo
_symmetry_space_group_name_H-M   'P 1'
_cell_length_a   15.21374337
_cell_length_b   15.20019280
_cell_length_c   16.84014948
_cell_angle_alpha   90.01877412
_cell_angle_beta   90.06145912
_cell_angle_gamma   90.01682409
_symmetry_Int_Tables_number   1
_chemical_formula_structural   HfZrTaTiMo
_chemical_formula_sum   'Hf40 Zr40 Ta40 Ti40 Mo40'
_cell_volume   3894.31280687
_cell_formula_units_Z   40
loop_
 _symmetry_equiv_pos_site_id
 _symmetry_equiv_pos_as_xyz
  1  'x, y, z'
loop_
 _atom_site_type_symbol
 _atom_site_label
 _atom_site_symmetry_multiplicity
 _atom_site_fract_x
 _atom_site_fract_y
 _atom_site_fract_z
 _atom_site_occupancy
  Hf  Hf0  1  0.29820630  0.49636937  0.12815744  1
  Hf  Hf1  1  0.89539113  0.88945346  0.87906638  1
  Hf  Hf2  1  0.29094460  0.86961703  0.87380680  1
  Hf  Hf3  1  0.90085251  0.49671677  0.63239486  1
  Hf  Hf4  1  0.11755656  0.90515413  0.38935204  1
  Hf  Hf5  1  0.80959771  0.60695923  0.25986080  1
  Hf  Hf6  1  0.89345196  0.89974399  0.62196288  1
  Hf  Hf7  1  0.30433423  0.28569202  0.38172355  1
  Hf  Hf8  1  0.60596492  0.40569323  0.75280011  1
  Hf  Hf9  1  0.00318061  0.79237631  0.75163299  1
  Hf  Hf10  1  0.49646991  0.49577280  0.38178597  1
  Hf  Hf11  1  0.50055878  0.71189391  0.87485362  1
  Hf  Hf12  1  0.00483090  0.78337570  0.48599007  1
  Hf  Hf13  1  0.20751818  0.60656207  -0.01156901  1
  Hf  Hf14  1  0.29661825  0.49553239  0.37486575  1
  Hf  Hf15  1  0.79123308  0.20020525  0.76161047  1
  Hf  Hf16  1  0.89465766  0.28955483  0.11757980  1
  Hf  Hf17  1  0.29232489  0.09096227  0.12133309  1
  Hf  Hf18  1  0.78463639  -0.00984868  0.75040085  1
  Hf  Hf19  1  0.20105471  -0.01094576  0.25051532  1
  Hf  Hf20  1  0.80405147  0.00838495  0.24784949  1
  Hf  Hf21  1  0.90613766  0.91047400  0.37136142  1
  Hf  Hf22  1  0.80276649  0.20398158  0.49502901  1
  Hf  Hf23  1  0.31427093  0.49076900  0.85710595  1
  Hf  Hf24  1  0.69420051  0.51002501  0.38280253  1
  Hf  Hf25  1  0.10546517  0.28495264  0.61395623  1
  Hf  Hf26  1  0.00344731  0.61930606  -0.00400714  1
  Hf  Hf27  1  0.90290110  0.50561051  0.11750532  1
  Hf  Hf28  1  0.80802855  0.40861365  0.49221399  1
  Hf  Hf29  1  0.40257029  0.81848772  0.49877493  1
  Hf  Hf30  1  0.00698479  0.40072117  -0.01256144  1
  Hf  Hf31  1  0.71073950  0.72170148  0.61869782  1
  Hf  Hf32  1  0.60543295  0.60399567  0.24317438  1
  Hf  Hf33  1  0.60283295  0.39477279  0.25275960  1
  Hf  Hf34  1  0.59659732  0.39532039  0.50465741  1
  Hf  Hf35  1  0.70118794  0.11371000  0.11966428  1
  Hf  Hf36  1  0.28874343  0.09355623  0.62551420  1
  Hf  Hf37  1  0.70230656  0.51266337  0.87940355  1
  Hf  Hf38  1  0.70262244  0.30477212  0.62813820  1
  Hf  Hf39  1  0.50152512  0.70508219  0.38026145  1
  Zr  Zr40  1  0.09973971  0.29262019  0.12166347  1
  Zr  Zr41  1  0.10295354  0.89607884  0.61421103  1
  Zr  Zr42  1  0.48695247  0.11028403  0.89012799  1
  Zr  Zr43  1  0.01681040  0.19597238  0.76693399  1
  Zr  Zr44  1  0.90783269  0.29661293  0.63225082  1
  Zr  Zr45  1  0.68546059  0.09970084  0.61999930  1
  Zr  Zr46  1  0.50455894  0.30287958  0.86374236  1
  Zr  Zr47  1  0.50451305  0.90277391  0.87957905  1
  Zr  Zr48  1  0.18514517  -0.00081808  0.76342639  1
  Zr  Zr49  1  0.40734506  0.59763555  -0.00931391  1
  Zr  Zr50  1  0.01236808  0.61289664  0.25528283  1
  Zr  Zr51  1  0.10720035  0.49812335  0.36737547  1
  Zr  Zr52  1  0.29432880  0.29065751  0.11932892  1
  Zr  Zr53  1  0.08986609  0.50144823  0.63577276  1
  Zr  Zr54  1  0.30556301  0.27943952  0.87482562  1
  Zr  Zr55  1  0.39122087  0.59967990  0.50585770  1
  Zr  Zr56  1  0.70026386  0.52105369  0.61659494  1
  Zr  Zr57  1  0.18632150  0.18082396  -0.01768780  1
  Zr  Zr58  1  0.70059173  0.30640069  0.11744464  1
  Zr  Zr59  1  0.81452655  0.61808402  0.75674984  1
  Zr  Zr60  1  0.71842388  0.72341866  0.88083925  1
  Zr  Zr61  1  0.50078088  0.49797172  0.12915590  1
  Zr  Zr62  1  0.10134034  0.28440305  0.37957995  1
  Zr  Zr63  1  0.18986671  0.37523913  0.75708227  1
  Zr  Zr64  1  0.79152419  0.81244608  0.48313208  1
  Zr  Zr65  1  0.49632028  0.28797471  0.11716990  1
  Zr  Zr66  1  -0.00159549  0.39579237  0.24719367  1
  Zr  Zr67  1  0.38047269  -0.00587854  -0.00481105  1
  Zr  Zr68  1  0.91379348  0.69228503  0.62013333  1
  Zr  Zr69  1  0.51371661  0.70591113  0.61454186  1
  Zr  Zr70  1  0.61130162  0.61487650  0.00602930  1
  Zr  Zr71  1  0.79728982  0.00800280  0.49313242  1
  Zr  Zr72  1  0.79881080  0.20541490  0.26017390  1
  Zr  Zr73  1  0.48044096  0.90190912  0.13020008  1
  Zr  Zr74  1  0.59631243  0.40618690  -0.01141470  1
  Zr  Zr75  1  0.39379271  0.60597362  0.25528554  1
  Zr  Zr76  1  0.29177220  0.49523228  0.63536229  1
  Zr  Zr77  1  0.68131791  0.10065283  0.37461906  1
  Zr  Zr78  1  0.40577703  0.60522183  0.74542858  1
  Zr  Zr79  1  0.81235384  0.79747109  0.01828679  1
  Ta  Ta80  1  0.59302314  0.00700440  0.23960832  1
  Ta  Ta81  1  0.60223963  0.00229156  0.01486993  1
  Ta  Ta82  1  0.61637365  0.81943266  0.74856067  1
  Ta  Ta83  1  0.49976208  0.28966487  0.63639028  1
  Ta  Ta84  1  0.58896969  0.01716301  0.75358008  1
  Ta  Ta85  1  0.10959639  0.50549784  0.12464267  1
  Ta  Ta86  1  0.30261136  0.28642627  0.62097984  1
  Ta  Ta87  1  0.08422046  0.08509795  0.11926644  1
  Ta  Ta88  1  0.50327721  0.91142038  0.63088303  1
  Ta  Ta89  1  0.00254775  0.39795093  0.49536578  1
  Ta  Ta90  1  0.30418727  0.89950076  0.63139923  1
  Ta  Ta91  1  0.20207235  0.39942904  0.50383766  1
  Ta  Ta92  1  0.49550349  0.71064011  0.12770560  1
  Ta  Ta93  1  0.91870143  0.91301134  0.13321050  1
  Ta  Ta94  1  0.71349610  0.50145341  0.11987414  1
  Ta  Ta95  1  0.68803563  0.10668895  0.88867918  1
  Ta  Ta96  1  0.08936516  0.09160438  0.61295724  1
  Ta  Ta97  1  0.40014506  0.38606465  0.50981282  1
  Ta  Ta98  1  0.00813616  0.00798818  0.25527768  1
  Ta  Ta99  1  0.50157454  0.49435669  0.62669815  1
  Ta  Ta100  1  0.88828611  0.09413357  0.87926657  1
  Ta  Ta101  1  0.50509315  0.90440585  0.36156930  1
  Ta  Ta102  1  0.39946503  0.38556212  0.25444386  1
  Ta  Ta103  1  0.20134499  0.40267529  -0.01225242  1
  Ta  Ta104  1  0.69431137  0.71472318  0.37370615  1
  Ta  Ta105  1  0.80475530  0.00753378  0.01113916  1
  Ta  Ta106  1  0.60317350  0.80562527  0.24245107  1
  Ta  Ta107  1  0.80601686  0.39836876  -0.01623092  1
  Ta  Ta108  1  0.49836190  0.29049082  0.37687881  1
  Ta  Ta109  1  0.17730452  -0.02360468  -0.00909942  1
  Ta  Ta110  1  0.90383378  0.30070761  0.37701911  1
  Ta  Ta111  1  0.18832501  0.60657990  0.50141320  1
  Ta  Ta112  1  0.39243900  0.18766526  0.25285989  1
  Ta  Ta113  1  0.39348744  0.18888255  0.74565974  1
  Ta  Ta114  1  0.58717341  -0.01512663  0.49492734  1
  Ta  Ta115  1  0.60351542  0.61227001  0.75414697  1
  Ta  Ta116  1  0.81437208  0.61250858  0.47967229  1
  Ta  Ta117  1  0.80205873  0.40690814  0.25913967  1
  Ta  Ta118  1  0.39624350  0.39709075  -0.00638833  1
  Ta  Ta119  1  0.30480780  0.70315069  0.12629185  1
  Ti  Ti120  1  0.90243561  0.51763585  0.87990607  1
  Ti  Ti121  1  0.80465885  0.39964904  0.77121785  1
  Ti  Ti122  1  0.38703642  0.00860076  0.49047617  1
  Ti  Ti123  1  0.71133679  0.70060998  0.12896527  1
  Ti  Ti124  1  0.69796879  0.91339202  0.88895748  1
  Ti  Ti125  1  0.80508206  0.80511533  0.25313343  1
  Ti  Ti126  1  0.90400506  0.09973914  0.62550504  1
  Ti  Ti127  1  0.70377466  0.90203260  0.13144414  1
  Ti  Ti128  1  0.20392196  0.17552225  0.49025753  1
  Ti  Ti129  1  0.49170189  0.10293179  0.11660809  1
  Ti  Ti130  1  0.28401965  0.88324026  0.11728124  1
  Ti  Ti131  1  0.48180645  0.10205842  0.37675918  1
  Ti  Ti132  1  -0.00945281  -0.00130719  0.75555868  1
  Ti  Ti133  1  0.69376436  0.30174053  0.37876419  1
  Ti  Ti134  1  -0.00426226  0.00154924  -0.00363767  1
  Ti  Ti135  1  0.11288719  0.72101777  0.87350397  1
  Ti  Ti136  1  -0.01383392  0.19520038  -0.01353889  1
  Ti  Ti137  1  -0.00125891  0.59042411  0.48054479  1
  Ti  Ti138  1  0.58617960  0.19818467  0.25189462  1
  Ti  Ti139  1  0.02135587  0.81498084  0.00566014  1
  Ti  Ti140  1  0.48686372  0.09831111  0.62128467  1
  Ti  Ti141  1  0.20556249  0.79024930  0.25545109  1
  Ti  Ti142  1  0.20286577  0.39047426  0.24810158  1
  Ti  Ti143  1  0.29110275  0.70195821  0.37342361  1
  Ti  Ti144  1  0.91470075  0.71241692  0.13394955  1
  Ti  Ti145  1  0.40254064  0.80069889  0.74248302  1
  Ti  Ti146  1  0.59780268  0.80951707  0.01610370  1
  Ti  Ti147  1  0.10689870  0.69444296  0.62872761  1
  Ti  Ti148  1  0.21186538  0.79595648  0.49864883  1
  Ti  Ti149  1  0.39256988  -0.00264355  0.25713942  1
  Ti  Ti150  1  0.01361226  0.80772386  0.25944330  1
  Ti  Ti151  1  -0.00373991  0.18787553  0.25099307  1
  Ti  Ti152  1  0.10349495  0.50727999  0.86772940  1
  Ti  Ti153  1  0.58199725  0.19561794  0.49987041  1
  Ti  Ti154  1  0.39390005  -0.00292252  0.75857638  1
  Ti  Ti155  1  0.19183261  0.18105987  0.25617174  1
  Ti  Ti156  1  0.29419610  0.70651213  0.62699467  1
  Ti  Ti157  1  -0.00786467  0.40045253  0.77376546  1
  Ti  Ti158  1  0.11273445  0.70975804  0.12545910  1
  Ti  Ti159  1  0.19793131  0.61797837  0.75957021  1
  Mo  Mo160  1  0.39612766  0.78799567  0.00445683  1
  Mo  Mo161  1  0.69106964  0.90382814  0.35308039  1
  Mo  Mo162  1  0.09532437  0.09338576  0.38268122  1
  Mo  Mo163  1  0.91562788  0.10908371  0.37909365  1
  Mo  Mo164  1  0.31198296  0.89154130  0.37182860  1
  Mo  Mo165  1  0.40221912  0.39200417  0.73116758  1
  Mo  Mo166  1  0.29302080  0.08971628  0.37338797  1
  Mo  Mo167  1  0.01096029  0.59835196  0.76892617  1
  Mo  Mo168  1  0.19919757  0.79168283  0.00558641  1
  Mo  Mo169  1  0.09795982  0.30198357  0.88461376  1
  Mo  Mo170  1  0.21011540  -0.01158952  0.50247885  1
  Mo  Mo171  1  0.90468902  0.10200760  0.11826900  1
  Mo  Mo172  1  0.08745192  0.89369738  0.87423772  1
  Mo  Mo173  1  0.11248656  0.70079150  0.37643088  1
  Mo  Mo174  1  0.70277443  0.29606834  0.87855491  1
  Mo  Mo175  1  0.59778745  0.81171732  0.49126240  1
  Mo  Mo176  1  0.89794431  0.30195893  0.87486386  1
  Mo  Mo177  1  0.00104428  0.00554964  0.49926217  1
  Mo  Mo178  1  0.40237364  0.19574764  0.50376179  1
  Mo  Mo179  1  0.60886271  0.60737134  0.49901615  1
  Mo  Mo180  1  0.20009560  0.18567445  0.75475026  1
  Mo  Mo181  1  0.39139144  0.80680882  0.25650066  1
  Mo  Mo182  1  0.59478687  0.19313859  0.74665501  1
  Mo  Mo183  1  0.50611824  0.50706441  0.86006373  1
  Mo  Mo184  1  0.20645943  0.79504522  0.73860545  1
  Mo  Mo185  1  0.68550198  0.90610541  0.62379562  1
  Mo  Mo186  1  0.20202872  0.60317890  0.24101165  1
  Mo  Mo187  1  0.39500926  0.19827131  0.00144304  1
  Mo  Mo188  1  0.08288249  0.08753399  0.88248578  1
  Mo  Mo189  1  -0.00486004  0.19343923  0.49977004  1
  Mo  Mo190  1  0.90305828  0.49600253  0.37436379  1
  Mo  Mo191  1  0.91923979  0.70555004  0.88221960  1
  Mo  Mo192  1  0.90384932  0.70637013  0.36478503  1
  Mo  Mo193  1  0.59852324  0.19646090  0.00167156  1
  Mo  Mo194  1  0.30124846  0.69612997  0.86558626  1
  Mo  Mo195  1  0.81010197  0.59854416  0.00891139  1
  Mo  Mo196  1  0.09838796  0.89521957  0.13226235  1
  Mo  Mo197  1  0.80173053  0.81060076  0.75041235  1
  Mo  Mo198  1  0.29373901  0.08500045  0.86753216  1
  Mo  Mo199  1  0.79991462  0.20210044  -0.01485809  1
