# generated using pymatgen
data_HfZrTaTiMo
_symmetry_space_group_name_H-M   'P 1'
_cell_length_a   15.21070503
_cell_length_b   15.21553377
_cell_length_c   16.84260678
_cell_angle_alpha   90.03712902
_cell_angle_beta   90.06818147
_cell_angle_gamma   90.13081517
_symmetry_Int_Tables_number   1
_chemical_formula_structural   HfZrTaTiMo
_chemical_formula_sum   'Hf40 Zr40 Ta40 Ti40 Mo40'
_cell_volume   3898.02226016
_cell_formula_units_Z   40
loop_
 _symmetry_equiv_pos_site_id
 _symmetry_equiv_pos_as_xyz
  1  'x, y, z'
loop_
 _atom_site_type_symbol
 _atom_site_label
 _atom_site_symmetry_multiplicity
 _atom_site_fract_x
 _atom_site_fract_y
 _atom_site_fract_z
 _atom_site_occupancy
  Hf  Hf0  1  0.38853302  0.79037884  0.26460897  1
  Hf  Hf1  1  0.18801555  0.39861468  0.76357380  1
  Hf  Hf2  1  0.80249991  0.59525045  0.48398015  1
  Hf  Hf3  1  0.40376091  0.40582527  -0.01010503  1
  Hf  Hf4  1  0.61850377  -0.00528959  0.48630231  1
  Hf  Hf5  1  0.28889611  0.90833450  0.61704669  1
  Hf  Hf6  1  0.01246159  0.18366091  0.48596852  1
  Hf  Hf7  1  0.79512331  0.59652522  -0.00575951  1
  Hf  Hf8  1  0.21666615  0.21638741  0.48644119  1
  Hf  Hf9  1  0.90836255  0.49256094  0.13268648  1
  Hf  Hf10  1  0.90120305  0.90162336  0.87333359  1
  Hf  Hf11  1  0.30425895  0.10862411  0.36811268  1
  Hf  Hf12  1  0.69590595  0.49235591  0.13124763  1
  Hf  Hf13  1  -0.00229482  0.20020307  0.25418436  1
  Hf  Hf14  1  0.29572883  0.51380227  0.11935211  1
  Hf  Hf15  1  0.89565312  0.29542943  0.88304934  1
  Hf  Hf16  1  -0.00125946  0.80647016  0.01542416  1
  Hf  Hf17  1  0.18914299  0.21058904  0.25483518  1
  Hf  Hf18  1  0.79279503  0.18081368  0.49149178  1
  Hf  Hf19  1  0.01505854  0.20336187  0.75870709  1
  Hf  Hf20  1  -0.00906801  0.40502412  0.75476822  1
  Hf  Hf21  1  0.69689636  0.09614450  0.12279242  1
  Hf  Hf22  1  0.70006928  0.88522383  0.86899697  1
  Hf  Hf23  1  0.09554287  0.52206954  0.62215325  1
  Hf  Hf24  1  0.58305853  0.19030274  0.49330669  1
  Hf  Hf25  1  0.41574586  0.01008562  0.48351539  1
  Hf  Hf26  1  0.80166213  0.81448576  0.25559462  1
  Hf  Hf27  1  0.70351202  0.70041374  0.62226080  1
  Hf  Hf28  1  0.91339887  0.70997942  0.37187216  1
  Hf  Hf29  1  0.80405295  -0.01082520  0.01125155  1
  Hf  Hf30  1  0.59906707  0.79978226  0.73917224  1
  Hf  Hf31  1  0.10602273  0.30641005  0.61699610  1
  Hf  Hf32  1  0.32304145  0.11253760  0.61397600  1
  Hf  Hf33  1  0.60170728  -0.01998234  0.00179403  1
  Hf  Hf34  1  0.88640832  0.50615347  0.63330124  1
  Hf  Hf35  1  0.28872190  0.68726187  0.39081902  1
  Hf  Hf36  1  0.29518469  0.28667514  0.88514475  1
  Hf  Hf37  1  0.00382740  0.00485357  0.76060499  1
  Hf  Hf38  1  0.20822137  -0.01104386  0.00274753  1
  Hf  Hf39  1  0.59423305  0.61251709  -0.01184391  1
  Zr  Zr40  1  0.29399343  0.50058359  0.64098216  1
  Zr  Zr41  1  0.67092749  0.48389028  0.36736056  1
  Zr  Zr42  1  0.69736101  0.29619096  0.86917453  1
  Zr  Zr43  1  0.80159675  0.18837478  0.74787057  1
  Zr  Zr44  1  0.00779416  0.00085729  0.01129058  1
  Zr  Zr45  1  0.41315256  0.00235499  0.74605755  1
  Zr  Zr46  1  0.00041607  0.40531017  -0.00818225  1
  Zr  Zr47  1  0.40109799  0.20865718  0.24315572  1
  Zr  Zr48  1  0.89809896  0.29828672  0.62131321  1
  Zr  Zr49  1  0.29549066  0.09538423  0.13608140  1
  Zr  Zr50  1  0.38574178  0.38564991  0.50273038  1
  Zr  Zr51  1  0.78529848  0.39721692  0.49352700  1
  Zr  Zr52  1  0.20668804  -0.00095080  0.76282731  1
  Zr  Zr53  1  0.40339596  0.80741644  0.49476881  1
  Zr  Zr54  1  0.29491785  0.31285041  0.11889989  1
  Zr  Zr55  1  0.79255796  0.60035190  0.26636556  1
  Zr  Zr56  1  0.49817168  0.50106206  0.86406562  1
  Zr  Zr57  1  0.40167725  -0.00472249  0.00398730  1
  Zr  Zr58  1  0.00810152  0.60956847  -0.00304390  1
  Zr  Zr59  1  0.49867597  0.31693368  0.36404828  1
  Zr  Zr60  1  0.29176204  0.70284591  0.61775307  1
  Zr  Zr61  1  0.49854691  0.68324248  0.37956794  1
  Zr  Zr62  1  0.80702527  0.38649541  0.25537449  1
  Zr  Zr63  1  0.50421551  0.09814297  0.87705220  1
  Zr  Zr64  1  0.11456818  0.09362651  0.62442939  1
  Zr  Zr65  1  0.79815565  0.80712181  0.49190279  1
  Zr  Zr66  1  0.60985292  0.19191844  0.25571766  1
  Zr  Zr67  1  0.40627766  0.19687100  0.01058903  1
  Zr  Zr68  1  0.68017464  0.70791192  0.13507711  1
  Zr  Zr69  1  0.51733014  0.89354492  0.14344389  1
  Zr  Zr70  1  0.91124445  0.69999051  0.61948083  1
  Zr  Zr71  1  0.69282338  0.29031137  0.62600007  1
  Zr  Zr72  1  0.47947300  0.69594230  0.13338326  1
  Zr  Zr73  1  0.89925039  0.69817256  0.13552444  1
  Zr  Zr74  1  0.59795567  0.58690625  0.50894753  1
  Zr  Zr75  1  0.90447731  0.08999416  0.61999626  1
  Zr  Zr76  1  -0.00464443  0.41154891  0.49900429  1
  Zr  Zr77  1  0.40343069  0.80291341  -0.00084530  1
  Zr  Zr78  1  0.00362429  -0.01435525  0.22367072  1
  Zr  Zr79  1  0.49514864  0.50213388  0.12253007  1
  Ta  Ta80  1  0.18971346  0.62791117  0.76099382  1
  Ta  Ta81  1  0.70828573  0.09338069  0.88161745  1
  Ta  Ta82  1  0.01881544  0.60306516  0.25234282  1
  Ta  Ta83  1  0.11259750  0.11517878  0.89331745  1
  Ta  Ta84  1  0.60349207  0.39559023  -0.00337055  1
  Ta  Ta85  1  0.89679569  0.11157211  0.11721193  1
  Ta  Ta86  1  0.01887820  0.80150283  0.74989519  1
  Ta  Ta87  1  0.59461323  0.39348934  0.74214043  1
  Ta  Ta88  1  0.59756391  0.60095699  0.74690184  1
  Ta  Ta89  1  0.89312162  0.70994762  0.87460960  1
  Ta  Ta90  1  -0.00381666  0.61260683  0.76133866  1
  Ta  Ta91  1  0.60486600  0.80124021  0.48800036  1
  Ta  Ta92  1  0.09756296  0.51356086  0.87308676  1
  Ta  Ta93  1  0.49582988  0.69668779  0.62137129  1
  Ta  Ta94  1  0.90327387  0.29416153  0.37909966  1
  Ta  Ta95  1  0.09505299  0.31196888  0.11997727  1
  Ta  Ta96  1  0.29662926  0.29948768  0.63601912  1
  Ta  Ta97  1  0.21292376  0.19661193  0.75622541  1
  Ta  Ta98  1  0.28666907  0.90323136  0.36968730  1
  Ta  Ta99  1  0.80172380  0.00408588  0.24434786  1
  Ta  Ta100  1  0.29380584  0.51144911  0.86651728  1
  Ta  Ta101  1  0.90058006  0.29421456  0.11604878  1
  Ta  Ta102  1  0.40914500  -0.00441051  0.26290637  1
  Ta  Ta103  1  0.91100224  0.07798582  0.37149847  1
  Ta  Ta104  1  0.10662402  0.89232849  0.88046336  1
  Ta  Ta105  1  0.20440256  0.60454921  0.25551649  1
  Ta  Ta106  1  0.09848181  0.70495054  0.38860814  1
  Ta  Ta107  1  0.50281760  0.29528844  0.86618412  1
  Ta  Ta108  1  0.88839630  0.50281099  0.86866837  1
  Ta  Ta109  1  0.59304160  0.18260920  0.74335001  1
  Ta  Ta110  1  0.18704491  0.00697246  0.48424605  1
  Ta  Ta111  1  0.39595171  0.58242944  0.50625486  1
  Ta  Ta112  1  0.79206708  0.60618069  0.75901702  1
  Ta  Ta113  1  0.29901553  0.89027664  0.14136686  1
  Ta  Ta114  1  0.78228150  0.79528418  0.00624269  1
  Ta  Ta115  1  0.10450998  0.31591584  0.37949052  1
  Ta  Ta116  1  0.11503682  0.51260932  0.38736087  1
  Ta  Ta117  1  0.38198895  0.61186901  -0.01579354  1
  Ta  Ta118  1  0.48339386  0.28134749  0.63438291  1
  Ta  Ta119  1  0.51502608  0.30777048  0.13008961  1
  Ti  Ti120  1  0.70706419  0.29439947  0.12279332  1
  Ti  Ti121  1  0.80648592  0.19242086  0.25741188  1
  Ti  Ti122  1  0.01312778  0.40013106  0.25442081  1
  Ti  Ti123  1  0.18926645  0.81515453  0.49393560  1
  Ti  Ti124  1  0.79339294  0.39636377  0.00123098  1
  Ti  Ti125  1  0.69675821  0.49556470  0.86570213  1
  Ti  Ti126  1  0.17914534  0.79790801  0.25437454  1
  Ti  Ti127  1  0.10213409  0.71534251  0.61331509  1
  Ti  Ti128  1  0.81278192  -0.00986212  0.49681153  1
  Ti  Ti129  1  0.61284431  -0.00183957  0.74054857  1
  Ti  Ti130  1  0.49085766  0.49391662  0.63928309  1
  Ti  Ti131  1  0.28095678  0.70277951  0.12618388  1
  Ti  Ti132  1  0.58218071  0.39568986  0.51505268  1
  Ti  Ti133  1  0.10107829  0.11747331  0.11243597  1
  Ti  Ti134  1  0.50216603  0.89499913  0.86810682  1
  Ti  Ti135  1  0.49825406  0.70930605  0.86574118  1
  Ti  Ti136  1  0.00106355  0.82097441  0.50181508  1
  Ti  Ti137  1  0.10762169  0.50866481  0.12248849  1
  Ti  Ti138  1  0.60492210  0.79932115  0.28042552  1
  Ti  Ti139  1  0.79704678  -0.00469579  0.74461186  1
  Ti  Ti140  1  0.70027359  0.29095581  0.37409616  1
  Ti  Ti141  1  0.91758016  0.49917610  0.36981545  1
  Ti  Ti142  1  0.19454624  0.41052044  -0.01165052  1
  Ti  Ti143  1  0.39267585  0.80125512  0.74226420  1
  Ti  Ti144  1  0.39718220  0.61192918  0.75198491  1
  Ti  Ti145  1  0.19991684  0.78156168  -0.00182628  1
  Ti  Ti146  1  0.69439255  0.49382981  0.63668160  1
  Ti  Ti147  1  0.80673793  0.80037570  0.74338256  1
  Ti  Ti148  1  0.50389617  0.09618799  0.13223748  1
  Ti  Ti149  1  0.08135797  0.90613771  0.36853995  1
  Ti  Ti150  1  0.91000095  0.89962809  0.63088971  1
  Ti  Ti151  1  0.61207655  -0.00806702  0.27169587  1
  Ti  Ti152  1  0.19478412  -0.00288295  0.24991580  1
  Ti  Ti153  1  0.20476697  0.41209172  0.25387912  1
  Ti  Ti154  1  0.30344808  0.88751121  0.87020159  1
  Ti  Ti155  1  0.90073237  0.10404585  0.89270783  1
  Ti  Ti156  1  0.60487321  0.20122284  0.00134226  1
  Ti  Ti157  1  0.39417342  0.38782367  0.75767805  1
  Ti  Ti158  1  0.58206435  0.59192965  0.25631878  1
  Ti  Ti159  1  0.51410380  0.90333007  0.61701614  1
  Mo  Mo160  1  0.79422369  0.19941113  0.00148147  1
  Mo  Mo161  1  0.40503843  0.20359537  0.49290252  1
  Mo  Mo162  1  0.71161774  0.90386433  0.37314658  1
  Mo  Mo163  1  0.39938957  0.19867166  0.75703649  1
  Mo  Mo164  1  0.51226788  0.09483968  0.62490023  1
  Mo  Mo165  1  0.29404605  0.31675701  0.36236953  1
  Mo  Mo166  1  0.29838198  0.09397152  0.87928610  1
  Mo  Mo167  1  0.19836083  0.60197869  0.50436295  1
  Mo  Mo168  1  0.30146561  0.49322280  0.37553707  1
  Mo  Mo169  1  0.60146827  0.39717189  0.23955000  1
  Mo  Mo170  1  0.30148864  0.70895775  0.86678598  1
  Mo  Mo171  1  0.00111873  0.61202016  0.49567905  1
  Mo  Mo172  1  0.50491875  0.09955136  0.36213383  1
  Mo  Mo173  1  0.69798159  0.69552396  0.37240336  1
  Mo  Mo174  1  0.19989555  0.40894469  0.50053228  1
  Mo  Mo175  1  0.49997747  0.89725687  0.36855491  1
  Mo  Mo176  1  0.69723353  0.08080380  0.62496879  1
  Mo  Mo177  1  0.70004622  0.69505498  0.86644556  1
  Mo  Mo178  1  0.00308069  -0.00928050  0.49835413  1
  Mo  Mo179  1  0.19386944  0.20415935  0.00738806  1
  Mo  Mo180  1  0.71663313  0.09828968  0.36889167  1
  Mo  Mo181  1  0.48096189  0.49666257  0.37245677  1
  Mo  Mo182  1  0.12084286  0.88540281  0.12498281  1
  Mo  Mo183  1  0.59976038  0.79460345  -0.00836209  1
  Mo  Mo184  1  0.38539264  0.59216277  0.25484753  1
  Mo  Mo185  1  0.00887736  0.79400745  0.24302973  1
  Mo  Mo186  1  0.09663474  0.90026505  0.62222150  1
  Mo  Mo187  1  0.71101483  0.90440977  0.62810759  1
  Mo  Mo188  1  0.10165257  0.30336758  0.88167940  1
  Mo  Mo189  1  0.09641435  0.71295921  0.87607606  1
  Mo  Mo190  1  0.39646870  0.41517165  0.24733680  1
  Mo  Mo191  1  0.89375194  0.89972418  0.12472199  1
  Mo  Mo192  1  0.20080977  0.60156860  -0.01102260  1
  Mo  Mo193  1  0.11054722  0.69308940  0.12921311  1
  Mo  Mo194  1  0.00042053  0.20500545  0.00210473  1
  Mo  Mo195  1  0.90886869  0.90345731  0.37168033  1
  Mo  Mo196  1  0.69749398  0.89642309  0.13333626  1
  Mo  Mo197  1  0.10365311  0.09479995  0.36717881  1
  Mo  Mo198  1  0.78852888  0.40885861  0.75240078  1
  Mo  Mo199  1  0.20129545  0.80791414  0.74862176  1
