# generated using pymatgen
data_HfZrTaTiMo
_symmetry_space_group_name_H-M   'P 1'
_cell_length_a   15.21031696
_cell_length_b   15.20513796
_cell_length_c   16.85512082
_cell_angle_alpha   90.01432889
_cell_angle_beta   90.01630115
_cell_angle_gamma   89.96937384
_symmetry_Int_Tables_number   1
_chemical_formula_structural   HfZrTaTiMo
_chemical_formula_sum   'Hf40 Zr40 Ta40 Ti40 Mo40'
_cell_volume   3898.16668709
_cell_formula_units_Z   40
loop_
 _symmetry_equiv_pos_site_id
 _symmetry_equiv_pos_as_xyz
  1  'x, y, z'
loop_
 _atom_site_type_symbol
 _atom_site_label
 _atom_site_symmetry_multiplicity
 _atom_site_fract_x
 _atom_site_fract_y
 _atom_site_fract_z
 _atom_site_occupancy
  Hf  Hf0  1  -0.00447727  0.59908895  0.24503505  1
  Hf  Hf1  1  -0.01267014  0.59357199  0.49698981  1
  Hf  Hf2  1  0.59202379  0.61958934  0.74370298  1
  Hf  Hf3  1  0.41785526  0.38304622  -0.01079487  1
  Hf  Hf4  1  0.08761436  0.48162108  0.61298207  1
  Hf  Hf5  1  0.91221839  0.31238471  0.64379892  1
  Hf  Hf6  1  0.52328682  0.49179992  0.11902770  1
  Hf  Hf7  1  0.90122684  0.10439091  0.62509345  1
  Hf  Hf8  1  0.79234769  0.80282154  0.51088817  1
  Hf  Hf9  1  0.68342746  0.31955812  0.86195231  1
  Hf  Hf10  1  0.20595035  0.19545953  -0.00455815  1
  Hf  Hf11  1  0.80711005  0.21330022  0.23616394  1
  Hf  Hf12  1  0.79103182  0.82368800  0.75169132  1
  Hf  Hf13  1  0.48564397  0.51275982  0.62868260  1
  Hf  Hf14  1  0.31125234  0.28498354  0.13572337  1
  Hf  Hf15  1  0.00151795  0.19923912  0.23802933  1
  Hf  Hf16  1  0.31667611  0.28120000  0.37002717  1
  Hf  Hf17  1  0.90814246  0.11920017  0.38411123  1
  Hf  Hf18  1  0.40449553  0.18629217  -0.00766873  1
  Hf  Hf19  1  0.49787550  0.90265277  0.87844893  1
  Hf  Hf20  1  0.20533225  0.40174746  0.00013425  1
  Hf  Hf21  1  0.52015393  0.30729383  0.38078878  1
  Hf  Hf22  1  0.61465963  0.39631327  0.51368061  1
  Hf  Hf23  1  0.19692425  0.58756171  0.24870879  1
  Hf  Hf24  1  0.50925913  0.69942869  0.12823578  1
  Hf  Hf25  1  -0.00542220  0.39275701  0.24738528  1
  Hf  Hf26  1  0.80027234  0.61698622  0.73936180  1
  Hf  Hf27  1  0.40227783  0.59833078  0.00266765  1
  Hf  Hf28  1  0.10877054  0.67417574  0.87704620  1
  Hf  Hf29  1  0.79067893  0.79362823  -0.00490349  1
  Hf  Hf30  1  0.69793436  0.90799405  0.37875687  1
  Hf  Hf31  1  -0.01771710  -0.00253851  0.76271165  1
  Hf  Hf32  1  0.10921082  0.28390604  0.61977985  1
  Hf  Hf33  1  0.20380659  0.79729414  0.50148569  1
  Hf  Hf34  1  -0.00884288  0.59249002  0.00787665  1
  Hf  Hf35  1  0.80904442  0.41746266  0.51437287  1
  Hf  Hf36  1  0.88923010  0.70419171  0.12772241  1
  Hf  Hf37  1  0.78918345  0.41525331  0.22623873  1
  Hf  Hf38  1  0.20772089  0.78499430  0.01054537  1
  Hf  Hf39  1  0.88715852  0.49936553  0.36859880  1
  Zr  Zr40  1  0.30561322  0.69919441  0.87891667  1
  Zr  Zr41  1  0.38445553  -0.00443052  0.50214228  1
  Zr  Zr42  1  0.31159497  0.68853182  0.36268940  1
  Zr  Zr43  1  0.20263463  0.16647264  0.49134778  1
  Zr  Zr44  1  0.10252580  0.68508511  0.62279266  1
  Zr  Zr45  1  0.40193633  0.00787767  0.25283243  1
  Zr  Zr46  1  0.10731438  0.08651647  0.64330681  1
  Zr  Zr47  1  0.60277848  0.20979875  0.24417029  1
  Zr  Zr48  1  0.80270609  0.22503436  0.50911753  1
  Zr  Zr49  1  0.30196422  0.88980839  0.36349041  1
  Zr  Zr50  1  0.40026077  0.40809688  0.50205003  1
  Zr  Zr51  1  0.20040641  0.17654138  0.25740704  1
  Zr  Zr52  1  0.31201902  0.49347510  0.13071413  1
  Zr  Zr53  1  0.01352450  0.00371440  0.49853013  1
  Zr  Zr54  1  0.00323488  0.79763214  -0.00795541  1
  Zr  Zr55  1  0.09399653  0.88725299  0.63806761  1
  Zr  Zr56  1  0.09834778  0.09121520  0.87977558  1
  Zr  Zr57  1  0.50855826  0.08844377  0.62403710  1
  Zr  Zr58  1  -0.00125250  0.00393512  0.25077472  1
  Zr  Zr59  1  0.69375318  0.11407538  0.38839528  1
  Zr  Zr60  1  0.19486022  0.38486196  0.25778029  1
  Zr  Zr61  1  0.90123227  0.91070607  0.11559575  1
  Zr  Zr62  1  0.58919288  0.60953487  0.50407884  1
  Zr  Zr63  1  0.49299998  0.10634406  0.38574722  1
  Zr  Zr64  1  0.09462136  0.08831289  0.10379775  1
  Zr  Zr65  1  0.69142708  0.10690094  0.11010598  1
  Zr  Zr66  1  0.40762493  0.78392232  0.74774135  1
  Zr  Zr67  1  0.29441288  0.50106759  0.87897807  1
  Zr  Zr68  1  0.78117909  -0.00197283  -0.01509576  1
  Zr  Zr69  1  0.78890062  0.60798633  0.51481197  1
  Zr  Zr70  1  0.51930535  0.29620181  0.64342918  1
  Zr  Zr71  1  0.09505100  0.69582159  0.37724824  1
  Zr  Zr72  1  0.19219160  0.39867016  0.75361777  1
  Zr  Zr73  1  0.69137701  0.70894719  0.37130037  1
  Zr  Zr74  1  0.79574258  0.00976910  0.24524500  1
  Zr  Zr75  1  0.30470330  0.08536998  0.86149737  1
  Zr  Zr76  1  -0.00654225  0.78250151  0.76415843  1
  Zr  Zr77  1  0.79766622  0.18760419  0.76572032  1
  Zr  Zr78  1  0.79661309  0.42462161  0.00141346  1
  Zr  Zr79  1  0.68273795  0.91895819  0.61544528  1
  Ta  Ta80  1  -0.00920451  0.79982334  0.49818333  1
  Ta  Ta81  1  0.89790645  0.89804439  0.37629984  1
  Ta  Ta82  1  0.61936126  0.01087921  0.76392142  1
  Ta  Ta83  1  0.20054846  0.59282004  0.74125008  1
  Ta  Ta84  1  0.30068445  0.08511108  0.12168376  1
  Ta  Ta85  1  0.40953030  -0.01190329  0.74279671  1
  Ta  Ta86  1  0.70278816  0.52401235  0.87181735  1
  Ta  Ta87  1  0.09640509  0.49500010  0.12123915  1
  Ta  Ta88  1  0.68798923  0.50053442  0.37190703  1
  Ta  Ta89  1  0.81357963  0.41837984  0.75674793  1
  Ta  Ta90  1  0.90505578  0.70878945  0.62888795  1
  Ta  Ta91  1  0.09876383  0.48544445  0.38410250  1
  Ta  Ta92  1  -0.00256898  0.57155895  0.75512877  1
  Ta  Ta93  1  0.31161551  0.68080764  0.61756993  1
  Ta  Ta94  1  0.69523844  0.12171422  0.62203104  1
  Ta  Ta95  1  0.11176740  0.89158910  0.86944977  1
  Ta  Ta96  1  0.90065022  0.11133792  0.09430223  1
  Ta  Ta97  1  0.30025907  0.89381399  0.63172814  1
  Ta  Ta98  1  0.39776125  0.39407687  0.75034004  1
  Ta  Ta99  1  0.90217740  0.30773598  0.87840997  1
  Ta  Ta100  1  0.20242412  0.38120743  0.48983135  1
  Ta  Ta101  1  0.71974855  0.31640988  0.37093635  1
  Ta  Ta102  1  0.00217922  0.40036756  -0.00436915  1
  Ta  Ta103  1  0.49244208  0.10547957  0.12345455  1
  Ta  Ta104  1  0.21072110  0.58049620  0.49474428  1
  Ta  Ta105  1  0.19443415  -0.01227048  0.24583659  1
  Ta  Ta106  1  0.30761767  0.69774361  0.14221985  1
  Ta  Ta107  1  0.78793897  0.61350109  0.24477838  1
  Ta  Ta108  1  0.30565450  0.89107812  0.13587348  1
  Ta  Ta109  1  0.59999519  0.81140093  0.00527142  1
  Ta  Ta110  1  0.10121553  0.30019841  0.87909385  1
  Ta  Ta111  1  0.09811270  0.89760209  0.37402580  1
  Ta  Ta112  1  0.42056152  0.40050536  0.25589054  1
  Ta  Ta113  1  0.58941229  0.21896872  -0.01112573  1
  Ta  Ta114  1  0.51290803  0.49484145  0.87022343  1
  Ta  Ta115  1  0.68907341  0.71360727  0.87228649  1
  Ta  Ta116  1  0.10221832  0.88817476  0.12531029  1
  Ta  Ta117  1  0.39848870  0.20671601  0.51949021  1
  Ta  Ta118  1  0.29884072  0.89377671  0.87038657  1
  Ta  Ta119  1  0.50687834  0.89291177  0.37544493  1
  Ti  Ti120  1  0.68257640  0.32482444  0.10906342  1
  Ti  Ti121  1  0.89009113  0.71109094  0.36760160  1
  Ti  Ti122  1  0.20730973  0.78742768  0.74710338  1
  Ti  Ti123  1  0.31034786  0.28997778  0.86554169  1
  Ti  Ti124  1  0.88773442  0.68271959  0.87882871  1
  Ti  Ti125  1  0.49617864  0.70516484  0.36333359  1
  Ti  Ti126  1  0.29022951  0.48553156  0.62233993  1
  Ti  Ti127  1  0.39253063  0.59214950  0.75638843  1
  Ti  Ti128  1  0.50237715  0.90838723  0.12599911  1
  Ti  Ti129  1  -0.00513259  0.80254350  0.24932200  1
  Ti  Ti130  1  0.20764403  0.19950684  0.75375603  1
  Ti  Ti131  1  0.00489690  0.20425216  0.76408965  1
  Ti  Ti132  1  0.30635170  0.49244737  0.37077042  1
  Ti  Ti133  1  0.60582104  0.80579180  0.24387158  1
  Ti  Ti134  1  0.09900525  0.29421716  0.11318120  1
  Ti  Ti135  1  0.50697177  0.69606221  0.88837133  1
  Ti  Ti136  1  0.40766890  0.79271226  0.49998873  1
  Ti  Ti137  1  0.50274773  0.29862903  0.12872663  1
  Ti  Ti138  1  0.58443762  0.01497045  -0.01022205  1
  Ti  Ti139  1  0.40386332  0.80349207  0.00842592  1
  Ti  Ti140  1  0.49484350  0.51313054  0.37300357  1
  Ti  Ti141  1  0.78864210  0.21480950  -0.00973888  1
  Ti  Ti142  1  0.59486817  0.81712526  0.74649750  1
  Ti  Ti143  1  0.90012317  0.10593758  0.89564303  1
  Ti  Ti144  1  0.90215427  0.30516998  0.10421670  1
  Ti  Ti145  1  -0.00624092  0.37961730  0.48852995  1
  Ti  Ti146  1  0.18985191  0.79135655  0.24334859  1
  Ti  Ti147  1  0.20255101  -0.01934993  0.00208370  1
  Ti  Ti148  1  0.39440944  -0.00883525  0.00421955  1
  Ti  Ti149  1  0.59853814  0.00351518  0.24725149  1
  Ti  Ti150  1  0.29966969  0.09626541  0.64014817  1
  Ti  Ti151  1  0.69642146  0.49765159  0.64232516  1
  Ti  Ti152  1  0.59968373  0.59218320  0.24996297  1
  Ti  Ti153  1  0.80104615  0.00803589  0.49997838  1
  Ti  Ti154  1  0.69895571  0.89678849  0.12996909  1
  Ti  Ti155  1  0.50697211  0.71968798  0.61592388  1
  Ti  Ti156  1  0.89637560  0.90748974  0.62581656  1
  Ti  Ti157  1  0.89693488  0.90299782  0.88138441  1
  Ti  Ti158  1  0.50182050  0.11805929  0.85405175  1
  Ti  Ti159  1  0.08556981  0.27586836  0.38374517  1
  Mo  Mo160  1  0.79391511  0.61080226  -0.00093774  1
  Mo  Mo161  1  0.80199804  0.80823810  0.25177002  1
  Mo  Mo162  1  0.00203905  0.20207683  0.50303295  1
  Mo  Mo163  1  0.90003944  0.30848174  0.36960362  1
  Mo  Mo164  1  0.41124335  0.59307352  0.24857554  1
  Mo  Mo165  1  0.30292231  0.29210576  0.62694296  1
  Mo  Mo166  1  0.90077579  0.50409283  0.87538244  1
  Mo  Mo167  1  0.60511365  0.20800411  0.50442206  1
  Mo  Mo168  1  0.58861376  0.80998216  0.49666901  1
  Mo  Mo169  1  0.69382662  0.71352804  0.63258853  1
  Mo  Mo170  1  0.59881087  0.00206365  0.49638111  1
  Mo  Mo171  1  0.60256985  0.20016974  0.75614667  1
  Mo  Mo172  1  0.90479752  0.50693952  0.62989479  1
  Mo  Mo173  1  0.39359603  0.19820581  0.73511446  1
  Mo  Mo174  1  0.69886010  0.53119167  0.11758691  1
  Mo  Mo175  1  0.68714240  0.90121692  0.87707549  1
  Mo  Mo176  1  0.90102315  0.50093919  0.12923745  1
  Mo  Mo177  1  0.00142052  -0.00698922  -0.01544077  1
  Mo  Mo178  1  0.00292399  0.39103104  0.76210524  1
  Mo  Mo179  1  0.69440600  0.71108764  0.13119605  1
  Mo  Mo180  1  0.79771782  0.00575136  0.76256283  1
  Mo  Mo181  1  0.29809300  0.09093289  0.37476042  1
  Mo  Mo182  1  0.61203905  0.61043380  -0.00686145  1
  Mo  Mo183  1  0.49227317  0.89949942  0.62446015  1
  Mo  Mo184  1  0.39371845  0.60404473  0.49663327  1
  Mo  Mo185  1  0.49447818  0.30234946  0.85393728  1
  Mo  Mo186  1  0.10231116  0.69779950  0.13146383  1
  Mo  Mo187  1  -0.00550084  0.20821128  -0.00621047  1
  Mo  Mo188  1  0.41311529  0.80119121  0.24150137  1
  Mo  Mo189  1  0.71104049  0.30824471  0.65060402  1
  Mo  Mo190  1  0.10257235  0.08422723  0.37155450  1
  Mo  Mo191  1  0.19646449  0.59937781  0.02505630  1
  Mo  Mo192  1  0.60589802  0.40721942  0.25192315  1
  Mo  Mo193  1  0.60083232  0.40735286  -0.00927643  1
  Mo  Mo194  1  0.20708379  -0.01809227  0.75382023  1
  Mo  Mo195  1  0.60409811  0.41778945  0.74700044  1
  Mo  Mo196  1  0.20309291  -0.02113784  0.50187167  1
  Mo  Mo197  1  0.40613904  0.20089131  0.24455034  1
  Mo  Mo198  1  0.09760992  0.49565424  0.88484350  1
  Mo  Mo199  1  0.68901589  0.11064348  0.89047529  1
