# generated using pymatgen
data_HfZrTaTiMo
_symmetry_space_group_name_H-M   'P 1'
_cell_length_a   15.21290295
_cell_length_b   15.21993668
_cell_length_c   16.83778064
_cell_angle_alpha   89.96870238
_cell_angle_beta   90.00454258
_cell_angle_gamma   89.91364393
_symmetry_Int_Tables_number   1
_chemical_formula_structural   HfZrTaTiMo
_chemical_formula_sum   'Hf40 Zr40 Ta40 Ti40 Mo40'
_cell_volume   3898.60493718
_cell_formula_units_Z   40
loop_
 _symmetry_equiv_pos_site_id
 _symmetry_equiv_pos_as_xyz
  1  'x, y, z'
loop_
 _atom_site_type_symbol
 _atom_site_label
 _atom_site_symmetry_multiplicity
 _atom_site_fract_x
 _atom_site_fract_y
 _atom_site_fract_z
 _atom_site_occupancy
  Hf  Hf0  1  0.71536315  0.89314015  0.85746540  1
  Hf  Hf1  1  0.39827372  0.59814075  -0.00755317  1
  Hf  Hf2  1  0.90158210  0.89626352  0.12524868  1
  Hf  Hf3  1  0.10260601  0.69955582  0.86861873  1
  Hf  Hf4  1  -0.01183514  0.81247580  0.74609173  1
  Hf  Hf5  1  0.20555857  0.80105947  -0.00076238  1
  Hf  Hf6  1  0.30040665  0.29766477  0.12418792  1
  Hf  Hf7  1  0.10107230  0.50003391  0.85950811  1
  Hf  Hf8  1  0.50130637  0.08436628  0.37178308  1
  Hf  Hf9  1  0.90184448  0.10456641  0.11965546  1
  Hf  Hf10  1  0.70107261  0.69586312  0.86320207  1
  Hf  Hf11  1  0.60606129  -0.01112412  0.51515539  1
  Hf  Hf12  1  0.79549993  0.21022718  0.24862385  1
  Hf  Hf13  1  0.70542760  0.90340186  0.12056108  1
  Hf  Hf14  1  0.88435428  0.50897587  0.86364466  1
  Hf  Hf15  1  0.30491324  0.49443639  0.63870634  1
  Hf  Hf16  1  0.30552003  0.50717070  0.13443758  1
  Hf  Hf17  1  0.41041440  0.40141906  0.26521475  1
  Hf  Hf18  1  0.49220230  0.11599300  0.86735341  1
  Hf  Hf19  1  0.40002788  0.00056372  -0.00262013  1
  Hf  Hf20  1  0.88538605  0.30879694  0.38596842  1
  Hf  Hf21  1  0.48784900  0.70441088  0.38929657  1
  Hf  Hf22  1  0.10364129  0.28365258  0.86606321  1
  Hf  Hf23  1  0.68997422  0.72501919  0.38510074  1
  Hf  Hf24  1  0.80682995  0.20990837  0.74908714  1
  Hf  Hf25  1  0.60309746  0.21795220  0.74423976  1
  Hf  Hf26  1  0.19337774  0.39602215  0.25389138  1
  Hf  Hf27  1  0.10539405  0.09414442  0.86448295  1
  Hf  Hf28  1  0.18955294  0.39409740  0.50886068  1
  Hf  Hf29  1  0.61775642  0.19104166  0.51263163  1
  Hf  Hf30  1  0.20468648  0.19798343  0.50102989  1
  Hf  Hf31  1  0.09798710  0.49817896  0.64082179  1
  Hf  Hf32  1  0.09467637  0.88940669  0.38678324  1
  Hf  Hf33  1  0.91152662  0.10925515  0.63113379  1
  Hf  Hf34  1  0.09354253  0.30292512  0.37500115  1
  Hf  Hf35  1  0.60757559  -0.00437123  -0.01112626  1
  Hf  Hf36  1  0.29858817  0.89442157  0.86507177  1
  Hf  Hf37  1  -0.01202852  0.80718010  -0.01121396  1
  Hf  Hf38  1  0.40731273  0.39007372  -0.00719415  1
  Hf  Hf39  1  0.50989856  0.88274047  0.12145673  1
  Zr  Zr40  1  -0.01867212  0.38223445  0.75284597  1
  Zr  Zr41  1  0.29262184  0.50560473  0.37430030  1
  Zr  Zr42  1  0.91911888  0.71426344  0.39713545  1
  Zr  Zr43  1  0.20019108  0.39120001  -0.01047931  1
  Zr  Zr44  1  0.61342172  0.60264421  0.73209465  1
  Zr  Zr45  1  0.80345364  0.81227881  0.26231540  1
  Zr  Zr46  1  0.39365012  0.39363556  0.48686564  1
  Zr  Zr47  1  0.09129488  0.48969523  0.12387688  1
  Zr  Zr48  1  0.60679651  0.40589375  0.00075593  1
  Zr  Zr49  1  0.50295345  0.30753513  0.61811541  1
  Zr  Zr50  1  0.50200880  0.50013877  0.62315966  1
  Zr  Zr51  1  0.49894234  0.09326423  0.13389849  1
  Zr  Zr52  1  -0.00084779  0.60542380  0.25221344  1
  Zr  Zr53  1  0.79548403  0.59918868  0.50239043  1
  Zr  Zr54  1  0.60761984  -0.01940582  0.25901208  1
  Zr  Zr55  1  0.00396808  0.21150895  0.50726464  1
  Zr  Zr56  1  -0.01504841  0.61356654  0.73690753  1
  Zr  Zr57  1  0.50635013  0.50245387  0.86200095  1
  Zr  Zr58  1  0.19544669  0.79232255  0.25520419  1
  Zr  Zr59  1  0.60515643  0.00689351  0.73625791  1
  Zr  Zr60  1  0.70160908  0.30397601  0.11930612  1
  Zr  Zr61  1  0.90480133  0.09686660  0.86651465  1
  Zr  Zr62  1  0.09108357  0.70449138  0.12065476  1
  Zr  Zr63  1  0.51629692  0.28704348  0.37208211  1
  Zr  Zr64  1  0.48810970  0.69091542  0.13766254  1
  Zr  Zr65  1  0.80701198  0.59405839  0.27233612  1
  Zr  Zr66  1  0.50259410  0.89847695  0.85927511  1
  Zr  Zr67  1  0.69022919  0.70656924  0.14401065  1
  Zr  Zr68  1  0.20359768  0.59724586  -0.00129793  1
  Zr  Zr69  1  0.29285702  0.09976545  0.87746209  1
  Zr  Zr70  1  0.59559699  0.58261557  0.27438063  1
  Zr  Zr71  1  0.30660557  0.90250639  0.12683193  1
  Zr  Zr72  1  0.29599207  0.10135085  0.37112759  1
  Zr  Zr73  1  -0.00196283  0.00518307  0.26196859  1
  Zr  Zr74  1  0.19963988  0.00112900  0.25125218  1
  Zr  Zr75  1  0.19832713  0.60414193  0.51077681  1
  Zr  Zr76  1  0.51272363  0.48753972  0.13337039  1
  Zr  Zr77  1  0.60789259  0.61538799  0.00225752  1
  Zr  Zr78  1  -0.01889809  0.59683176  -0.00303544  1
  Zr  Zr79  1  0.20173638  0.79171980  0.73696025  1
  Ta  Ta80  1  0.59160241  0.20207327  -0.00533226  1
  Ta  Ta81  1  0.09762738  0.90441702  0.87160416  1
  Ta  Ta82  1  0.00277962  0.20115855  -0.00221809  1
  Ta  Ta83  1  0.80198032  0.20530296  -0.00775988  1
  Ta  Ta84  1  0.78751304  0.79151063  -0.00234816  1
  Ta  Ta85  1  0.30298896  0.28173522  0.63695001  1
  Ta  Ta86  1  0.31480112  0.28698055  0.86865783  1
  Ta  Ta87  1  0.88612442  0.91446716  0.39635929  1
  Ta  Ta88  1  0.79726872  0.78099359  0.71957297  1
  Ta  Ta89  1  0.79552142  0.01849696  0.51446688  1
  Ta  Ta90  1  0.39391403  0.19701421  0.25393665  1
  Ta  Ta91  1  0.40012834  0.19390969  0.49720800  1
  Ta  Ta92  1  0.70126858  0.30708275  0.87865237  1
  Ta  Ta93  1  0.40219610  0.61934613  0.74240562  1
  Ta  Ta94  1  0.08757400  0.50665768  0.38207408  1
  Ta  Ta95  1  0.40660672  0.81280198  0.26171440  1
  Ta  Ta96  1  0.80874997  -0.00435187  -0.01038233  1
  Ta  Ta97  1  0.19884544  0.00347392  0.49807567  1
  Ta  Ta98  1  0.48396019  0.89101705  0.62520572  1
  Ta  Ta99  1  0.09323608  0.28924624  0.12240070  1
  Ta  Ta100  1  0.50148030  0.70970939  0.86606053  1
  Ta  Ta101  1  0.78205431  0.40436183  0.74111430  1
  Ta  Ta102  1  0.70123371  0.10226670  0.11815778  1
  Ta  Ta103  1  0.70252230  0.10495925  0.87458254  1
  Ta  Ta104  1  0.31215116  0.90180572  0.38191176  1
  Ta  Ta105  1  0.20302347  0.80582857  0.50721830  1
  Ta  Ta106  1  0.11813747  0.09903057  0.64025782  1
  Ta  Ta107  1  0.80152208  0.01079176  0.25686739  1
  Ta  Ta108  1  0.00548704  0.01180957  0.49684149  1
  Ta  Ta109  1  0.29630975  0.10768729  0.12196374  1
  Ta  Ta110  1  0.20769713  0.38615689  0.75178100  1
  Ta  Ta111  1  0.09542636  0.90624287  0.12141354  1
  Ta  Ta112  1  -0.00041100  0.20573796  0.25175402  1
  Ta  Ta113  1  0.09765980  0.90867565  0.61692099  1
  Ta  Ta114  1  0.72607330  0.50505220  0.13181135  1
  Ta  Ta115  1  0.78476298  0.81670733  0.51628279  1
  Ta  Ta116  1  0.30152677  0.50043989  0.85242732  1
  Ta  Ta117  1  -0.00852047  0.39042961  -0.01251929  1
  Ta  Ta118  1  0.39835489  0.60122209  0.50102845  1
  Ta  Ta119  1  0.48642253  0.10300414  0.62740564  1
  Ti  Ti120  1  0.59567693  0.79387548  0.72261460  1
  Ti  Ti121  1  0.70070570  0.50397899  0.86997934  1
  Ti  Ti122  1  0.40900825  0.79186039  -0.00508944  1
  Ti  Ti123  1  0.39540404  -0.00097724  0.50789241  1
  Ti  Ti124  1  0.51055603  0.89042747  0.39036325  1
  Ti  Ti125  1  0.30082805  0.70384920  0.13239433  1
  Ti  Ti126  1  0.09419609  0.29268172  0.64041660  1
  Ti  Ti127  1  0.80713519  -0.00955025  0.73544583  1
  Ti  Ti128  1  0.61028856  0.39501138  0.49069605  1
  Ti  Ti129  1  -0.00026205  0.80268066  0.25335279  1
  Ti  Ti130  1  0.62270987  0.38131360  0.25818405  1
  Ti  Ti131  1  0.90388979  0.90213295  0.61024416  1
  Ti  Ti132  1  0.19165106  0.19891735  0.25372047  1
  Ti  Ti133  1  0.80803492  0.41262800  -0.00438898  1
  Ti  Ti134  1  0.30529849  0.69601056  0.86358610  1
  Ti  Ti135  1  0.10100612  0.10346500  0.12029029  1
  Ti  Ti136  1  0.19245168  0.00145277  0.00573316  1
  Ti  Ti137  1  0.38685882  0.00624495  0.74038810  1
  Ti  Ti138  1  0.88583616  0.70949355  0.86869511  1
  Ti  Ti139  1  0.50398804  0.28481328  0.13628632  1
  Ti  Ti140  1  0.39084146  0.60739315  0.26560988  1
  Ti  Ti141  1  0.88127886  0.68677503  0.12175464  1
  Ti  Ti142  1  0.89916577  0.11068111  0.38315399  1
  Ti  Ti143  1  0.71273060  0.47131500  0.38106909  1
  Ti  Ti144  1  0.41500385  0.38490717  0.75761267  1
  Ti  Ti145  1  0.89466720  0.49353086  0.61978143  1
  Ti  Ti146  1  0.00327501  0.60024533  0.51168025  1
  Ti  Ti147  1  0.70576932  0.10401507  0.37625065  1
  Ti  Ti148  1  -0.01593001  0.40271377  0.25028742  1
  Ti  Ti149  1  0.31529209  0.71052834  0.62111481  1
  Ti  Ti150  1  0.29031939  0.71024035  0.38412338  1
  Ti  Ti151  1  0.59590471  0.59367499  0.49525332  1
  Ti  Ti152  1  0.90122162  0.31327849  0.12123979  1
  Ti  Ti153  1  0.00268447  -0.00219263  0.74688032  1
  Ti  Ti154  1  0.69775242  0.48892137  0.61564666  1
  Ti  Ti155  1  0.19199559  0.60320735  0.25728511  1
  Ti  Ti156  1  0.90643437  0.49330548  0.39487009  1
  Ti  Ti157  1  0.00039797  -0.00013761  -0.00499481  1
  Ti  Ti158  1  0.09250760  0.70966852  0.62012847  1
  Ti  Ti159  1  0.29380814  0.90904773  0.62696691  1
  Mo  Mo160  1  0.59402379  0.79995032  0.51776377  1
  Mo  Mo161  1  0.40198271  0.19769203  0.74451565  1
  Mo  Mo162  1  0.20657401  0.59946046  0.74213361  1
  Mo  Mo163  1  0.79608063  0.39352531  0.51234534  1
  Mo  Mo164  1  0.80746534  0.40427241  0.25180500  1
  Mo  Mo165  1  -0.00041630  0.80896389  0.51143265  1
  Mo  Mo166  1  0.70405609  0.28955793  0.37793483  1
  Mo  Mo167  1  0.39931174  -0.00465427  0.25366177  1
  Mo  Mo168  1  0.89666226  0.89729532  0.86613924  1
  Mo  Mo169  1  0.89577719  0.31028469  0.61567769  1
  Mo  Mo170  1  0.08896729  0.10233341  0.37528267  1
  Mo  Mo171  1  0.59805769  0.79992843  -0.01054196  1
  Mo  Mo172  1  0.89793705  0.49273004  0.12273724  1
  Mo  Mo173  1  0.79908318  0.59589739  0.72621964  1
  Mo  Mo174  1  0.60723678  0.40148614  0.75257063  1
  Mo  Mo175  1  0.40246456  0.20221277  0.00807178  1
  Mo  Mo176  1  0.19744004  0.19367412  0.00722761  1
  Mo  Mo177  1  0.19688648  -0.01057067  0.74459836  1
  Mo  Mo178  1  0.70501139  0.10258853  0.63454640  1
  Mo  Mo179  1  0.49441070  0.69923462  0.60655121  1
  Mo  Mo180  1  0.29902091  0.29369566  0.36791939  1
  Mo  Mo181  1  0.89168954  0.30216167  0.88213033  1
  Mo  Mo182  1  0.79750893  0.60240456  -0.00098764  1
  Mo  Mo183  1  0.70337793  0.91488421  0.38589843  1
  Mo  Mo184  1  0.69261803  0.69597268  0.60516322  1
  Mo  Mo185  1  0.00287327  0.19690148  0.74300903  1
  Mo  Mo186  1  0.90169332  0.70395463  0.60552225  1
  Mo  Mo187  1  0.50656719  0.49972457  0.38469772  1
  Mo  Mo188  1  0.80102219  0.19576567  0.50532903  1
  Mo  Mo189  1  0.30489284  0.09145525  0.61860485  1
  Mo  Mo190  1  0.38968408  0.80910414  0.49995238  1
  Mo  Mo191  1  0.10690615  0.69430681  0.38906365  1
  Mo  Mo192  1  0.70168388  0.90121054  0.63834655  1
  Mo  Mo193  1  -0.00045673  0.41203867  0.51001487  1
  Mo  Mo194  1  0.59526843  0.79578166  0.26184636  1
  Mo  Mo195  1  0.60586447  0.19033225  0.24671565  1
  Mo  Mo196  1  0.20926901  0.19535668  0.74438129  1
  Mo  Mo197  1  0.70714802  0.30637387  0.62137705  1
  Mo  Mo198  1  0.40405485  0.80114916  0.74362402  1
  Mo  Mo199  1  0.50426758  0.29969261  0.87573343  1
