# generated using pymatgen
data_HfZrTaTiMo
_symmetry_space_group_name_H-M   'P 1'
_cell_length_a   15.21169733
_cell_length_b   15.20483011
_cell_length_c   16.82684256
_cell_angle_alpha   89.98650547
_cell_angle_beta   89.96821870
_cell_angle_gamma   90.00088502
_symmetry_Int_Tables_number   1
_chemical_formula_structural   HfZrTaTiMo
_chemical_formula_sum   'Hf40 Zr40 Ta40 Ti40 Mo40'
_cell_volume   3891.90113933
_cell_formula_units_Z   40
loop_
 _symmetry_equiv_pos_site_id
 _symmetry_equiv_pos_as_xyz
  1  'x, y, z'
loop_
 _atom_site_type_symbol
 _atom_site_label
 _atom_site_symmetry_multiplicity
 _atom_site_fract_x
 _atom_site_fract_y
 _atom_site_fract_z
 _atom_site_occupancy
  Hf  Hf0  1  0.61101356  0.79872870  0.00972876  1
  Hf  Hf1  1  0.18952171  0.60132002  0.25958283  1
  Hf  Hf2  1  0.08380974  0.71402697  0.12605426  1
  Hf  Hf3  1  0.70789213  0.90396528  0.87668481  1
  Hf  Hf4  1  0.49809863  0.70928491  0.87303785  1
  Hf  Hf5  1  0.19237618  0.61361324  0.49608089  1
  Hf  Hf6  1  0.79475923  0.79173267  0.48376092  1
  Hf  Hf7  1  0.18599279  0.38020064  0.75968064  1
  Hf  Hf8  1  0.71513438  0.89100259  0.14137806  1
  Hf  Hf9  1  0.41690234  0.21748946  -0.00781579  1
  Hf  Hf10  1  0.57715276  0.59235226  0.23957187  1
  Hf  Hf11  1  0.89635792  0.72371943  0.88465683  1
  Hf  Hf12  1  0.10029669  0.50136921  0.12451986  1
  Hf  Hf13  1  -0.00365947  0.38670665  0.24795083  1
  Hf  Hf14  1  0.69436075  0.69138595  0.63860479  1
  Hf  Hf15  1  0.81864782  -0.00392117  0.26756487  1
  Hf  Hf16  1  0.38199343  0.79744182  0.50515719  1
  Hf  Hf17  1  0.71457718  0.11302562  0.87641962  1
  Hf  Hf18  1  0.30714932  0.10635548  0.87214520  1
  Hf  Hf19  1  0.89853651  0.50003795  0.11789217  1
  Hf  Hf20  1  0.29304460  0.90123933  0.13085844  1
  Hf  Hf21  1  -0.01628858  0.61191131  0.25942162  1
  Hf  Hf22  1  0.30712220  0.51101191  0.38079268  1
  Hf  Hf23  1  0.68668685  0.48719141  0.12379850  1
  Hf  Hf24  1  0.59910313  0.00244761  0.47252268  1
  Hf  Hf25  1  0.79090196  0.58937912  0.49835004  1
  Hf  Hf26  1  0.08783552  0.27873462  0.38209294  1
  Hf  Hf27  1  0.72189641  0.30113746  0.36966820  1
  Hf  Hf28  1  0.41090948  0.18855614  0.48768493  1
  Hf  Hf29  1  0.11520086  0.29392919  0.12337532  1
  Hf  Hf30  1  0.01405396  0.17748582  0.23631903  1
  Hf  Hf31  1  0.30388923  0.11420526  0.12670514  1
  Hf  Hf32  1  0.69098778  0.49385181  0.35761975  1
  Hf  Hf33  1  0.18619280  0.59385222  0.75346212  1
  Hf  Hf34  1  0.61321217  0.40316091  0.50586826  1
  Hf  Hf35  1  0.80568902  0.00051065  0.48393416  1
  Hf  Hf36  1  0.88313522  0.71564765  0.11740307  1
  Hf  Hf37  1  0.69190852  0.90443203  0.61709222  1
  Hf  Hf38  1  0.29984331  0.70926479  0.36862457  1
  Hf  Hf39  1  0.29576035  0.50462395  0.12771529  1
  Zr  Zr40  1  0.41024965  0.40110985  0.26083683  1
  Zr  Zr41  1  0.20150055  0.01396415  0.49337126  1
  Zr  Zr42  1  0.20548373  -0.00765053  0.74901189  1
  Zr  Zr43  1  0.37643590  0.80738195  0.73357192  1
  Zr  Zr44  1  0.58997749  0.59889887  0.00331886  1
  Zr  Zr45  1  0.31036682  0.09584223  0.62566102  1
  Zr  Zr46  1  0.61055573  0.20320796  0.50001689  1
  Zr  Zr47  1  0.30009250  0.29557655  0.38541095  1
  Zr  Zr48  1  0.58450845  0.81409328  0.74944680  1
  Zr  Zr49  1  0.28452548  0.70805977  0.87670623  1
  Zr  Zr50  1  0.48808283  0.69179688  0.62236903  1
  Zr  Zr51  1  0.41839575  -0.00697291  0.75338552  1
  Zr  Zr52  1  0.39277064  0.38896325  0.76002595  1
  Zr  Zr53  1  0.41208180  0.39976805  0.50696466  1
  Zr  Zr54  1  0.31336664  0.31135026  0.12607572  1
  Zr  Zr55  1  0.81231515  0.81010160  0.74478495  1
  Zr  Zr56  1  -0.01438361  0.39319398  0.49239648  1
  Zr  Zr57  1  0.70006976  0.49865766  0.87163158  1
  Zr  Zr58  1  0.88779975  0.48662679  0.36389814  1
  Zr  Zr59  1  0.51786835  0.49609626  0.64276732  1
  Zr  Zr60  1  0.18575816  0.40770803  0.49660011  1
  Zr  Zr61  1  0.18143056  0.81332683  0.25264394  1
  Zr  Zr62  1  0.81363018  0.19936314  0.73493241  1
  Zr  Zr63  1  0.19786237  0.00533127  -0.00346698  1
  Zr  Zr64  1  0.59036835  0.80013458  0.48803382  1
  Zr  Zr65  1  0.82358125  0.20814768  0.51529931  1
  Zr  Zr66  1  0.40066468  0.00526683  0.25589700  1
  Zr  Zr67  1  0.00425115  0.38878910  0.00027447  1
  Zr  Zr68  1  0.41330158  0.00582160  0.00812712  1
  Zr  Zr69  1  0.39001831  0.60028300  0.75729172  1
  Zr  Zr70  1  0.48532803  0.47724347  0.11068563  1
  Zr  Zr71  1  0.90488495  0.89531447  0.61235266  1
  Zr  Zr72  1  0.60669770  0.20176812  0.74258063  1
  Zr  Zr73  1  0.18690821  0.60135341  -0.00914944  1
  Zr  Zr74  1  0.39863207  0.80367404  0.00726914  1
  Zr  Zr75  1  0.78530902  0.61186548  0.00543097  1
  Zr  Zr76  1  0.08680635  0.70203787  0.62609455  1
  Zr  Zr77  1  0.29390263  0.50634122  0.62062899  1
  Zr  Zr78  1  0.10090200  0.10765336  0.86470035  1
  Zr  Zr79  1  0.60983998  0.00458487  0.01240076  1
  Ta  Ta80  1  0.18153976  0.80931781  0.00061766  1
  Ta  Ta81  1  0.29118002  0.90550978  0.36825419  1
  Ta  Ta82  1  0.92309649  0.11267727  0.37739844  1
  Ta  Ta83  1  0.68830014  0.69102281  0.36330780  1
  Ta  Ta84  1  0.69863466  0.70152291  0.86158435  1
  Ta  Ta85  1  0.90531731  0.09963003  0.87697041  1
  Ta  Ta86  1  -0.00190327  -0.00839452  -0.00772811  1
  Ta  Ta87  1  0.59520999  0.59840763  0.49692793  1
  Ta  Ta88  1  0.41808172  0.19875589  0.26504391  1
  Ta  Ta89  1  0.90264226  0.29469072  0.87671588  1
  Ta  Ta90  1  0.81086161  0.19420092  0.01340718  1
  Ta  Ta91  1  0.81626607  0.40464604  0.75522453  1
  Ta  Ta92  1  0.51373198  0.09794991  0.87398262  1
  Ta  Ta93  1  0.90822102  0.89731931  0.12816117  1
  Ta  Ta94  1  -0.00623864  0.59535486  0.48824664  1
  Ta  Ta95  1  0.40339310  -0.00572193  0.47959636  1
  Ta  Ta96  1  0.29993238  0.89982721  0.88139965  1
  Ta  Ta97  1  0.50109366  0.50209311  0.38005834  1
  Ta  Ta98  1  0.10106520  0.90562788  0.62216884  1
  Ta  Ta99  1  0.81195573  0.79226179  0.27289466  1
  Ta  Ta100  1  0.09878778  0.10790184  0.63173459  1
  Ta  Ta101  1  0.59375346  0.37673771  -0.01569486  1
  Ta  Ta102  1  0.38697165  0.59168451  -0.01152519  1
  Ta  Ta103  1  0.49620168  0.49628582  0.87396040  1
  Ta  Ta104  1  0.89636953  0.68281236  0.62456840  1
  Ta  Ta105  1  0.60539628  0.00281637  0.26238024  1
  Ta  Ta106  1  0.01259187  0.21452005  0.74971381  1
  Ta  Ta107  1  0.18566819  0.01860320  0.25887736  1
  Ta  Ta108  1  0.48581883  0.69579513  0.12561874  1
  Ta  Ta109  1  0.61079619  0.00534495  0.74925645  1
  Ta  Ta110  1  0.19331390  0.40052736  0.26551897  1
  Ta  Ta111  1  0.89703879  0.50336753  0.88548979  1
  Ta  Ta112  1  0.79909681  0.38800578  0.22896317  1
  Ta  Ta113  1  0.06985487  0.49415220  0.63413728  1
  Ta  Ta114  1  0.50842119  0.90140267  0.14272454  1
  Ta  Ta115  1  0.40342639  0.20040281  0.75363023  1
  Ta  Ta116  1  0.21386999  0.39786619  -0.02093763  1
  Ta  Ta117  1  0.08855439  0.91844115  0.12709105  1
  Ta  Ta118  1  -0.00849458  -0.00173798  0.74555279  1
  Ta  Ta119  1  0.79419927  0.38411082  0.00280317  1
  Ti  Ti120  1  0.71538808  0.10928310  0.36889908  1
  Ti  Ti121  1  0.29651644  0.28914815  0.61834996  1
  Ti  Ti122  1  0.00380431  0.18880237  0.00863679  1
  Ti  Ti123  1  0.80479724  0.00720113  0.74209895  1
  Ti  Ti124  1  0.49360403  0.88661489  0.36180575  1
  Ti  Ti125  1  -0.00520337  0.79829936  0.49098362  1
  Ti  Ti126  1  0.08345823  0.71357771  0.37466393  1
  Ti  Ti127  1  0.61314155  0.19622716  0.00330075  1
  Ti  Ti128  1  0.10657865  0.29636387  0.61718092  1
  Ti  Ti129  1  -0.00375235  0.60808943  -0.00458950  1
  Ti  Ti130  1  0.08644806  0.89177687  0.86705045  1
  Ti  Ti131  1  0.80828028  -0.00214227  0.00445918  1
  Ti  Ti132  1  0.51020656  0.09516981  0.62056595  1
  Ti  Ti133  1  0.60624583  0.38915775  0.76635365  1
  Ti  Ti134  1  0.92178258  0.31697024  0.63718772  1
  Ti  Ti135  1  0.39861293  0.79151164  0.24197439  1
  Ti  Ti136  1  0.81836273  0.20067158  0.23682403  1
  Ti  Ti137  1  0.21248121  0.20148321  0.25600310  1
  Ti  Ti138  1  -0.02115040  0.59774357  0.75803721  1
  Ti  Ti139  1  0.51241897  0.28586654  0.13104219  1
  Ti  Ti140  1  0.48785541  0.68725715  0.37276914  1
  Ti  Ti141  1  0.59987030  0.79362783  0.25153035  1
  Ti  Ti142  1  0.49285282  0.91061145  0.61158465  1
  Ti  Ti143  1  0.08676634  0.49236620  0.87234622  1
  Ti  Ti144  1  0.69754284  0.28888598  0.12774195  1
  Ti  Ti145  1  0.18838978  0.80036601  0.74327486  1
  Ti  Ti146  1  0.80261865  0.40197037  0.51290038  1
  Ti  Ti147  1  0.70460253  0.31294623  0.63316206  1
  Ti  Ti148  1  0.00488398  0.00693072  0.49838076  1
  Ti  Ti149  1  0.60622635  0.19936934  0.25748677  1
  Ti  Ti150  1  0.71286879  0.50473752  0.64934488  1
  Ti  Ti151  1  0.20172586  0.20689649  -0.00524083  1
  Ti  Ti152  1  0.18878133  0.81178437  0.49813287  1
  Ti  Ti153  1  0.70359327  0.09766579  0.13729537  1
  Ti  Ti154  1  0.49974736  0.29233040  0.62868165  1
  Ti  Ti155  1  0.78684594  0.60205500  0.23834030  1
  Ti  Ti156  1  0.70637020  0.09650560  0.61801239  1
  Ti  Ti157  1  0.91324040  0.08213177  0.12418077  1
  Ti  Ti158  1  0.29046512  0.69867970  0.12357604  1
  Ti  Ti159  1  0.08591775  0.70606468  0.86884167  1
  Mo  Mo160  1  0.00784703  -0.01111435  0.25931512  1
  Mo  Mo161  1  0.29260176  0.49816283  0.87184253  1
  Mo  Mo162  1  0.50944531  0.10099965  0.36980348  1
  Mo  Mo163  1  0.39241706  0.60827073  0.24507338  1
  Mo  Mo164  1  0.59968132  0.38322527  0.25013419  1
  Mo  Mo165  1  0.79797677  0.81850369  0.00042056  1
  Mo  Mo166  1  0.50061704  0.90916147  0.87814095  1
  Mo  Mo167  1  0.40551640  0.60140917  0.50192816  1
  Mo  Mo168  1  -0.00295508  0.40434967  0.76338485  1
  Mo  Mo169  1  0.09402288  0.90481485  0.38480655  1
  Mo  Mo170  1  0.00714966  0.19208471  0.51396737  1
  Mo  Mo171  1  0.29031141  0.89791815  0.61536136  1
  Mo  Mo172  1  0.89496163  0.28580698  0.36715674  1
  Mo  Mo173  1  0.09500961  0.29076045  0.88473703  1
  Mo  Mo174  1  0.91395317  0.09721927  0.62580633  1
  Mo  Mo175  1  0.52100600  0.30689075  0.37077203  1
  Mo  Mo176  1  0.69820260  0.89368639  0.36050701  1
  Mo  Mo177  1  0.10780880  0.10188011  0.37942933  1
  Mo  Mo178  1  0.00161042  0.80858933  -0.00255339  1
  Mo  Mo179  1  0.89337735  0.69093637  0.38155171  1
  Mo  Mo180  1  0.00643363  0.80396860  0.74707924  1
  Mo  Mo181  1  0.20211995  0.20381648  0.51134614  1
  Mo  Mo182  1  0.89714767  0.50508030  0.62812832  1
  Mo  Mo183  1  0.60007584  0.59669371  0.76139104  1
  Mo  Mo184  1  0.40100480  0.40316319  -0.02050008  1
  Mo  Mo185  1  0.91220601  0.89735982  0.38814360  1
  Mo  Mo186  1  0.69010892  0.70412306  0.14514281  1
  Mo  Mo187  1  0.51052295  0.28966087  0.87035364  1
  Mo  Mo188  1  0.09636691  0.50219384  0.36958682  1
  Mo  Mo189  1  -0.01130770  0.81245665  0.26037824  1
  Mo  Mo190  1  0.30200675  0.10231700  0.37075071  1
  Mo  Mo191  1  0.10699203  0.09761596  0.11779606  1
  Mo  Mo192  1  0.28021126  0.70522394  0.62117627  1
  Mo  Mo193  1  0.29886874  0.29112287  0.87342802  1
  Mo  Mo194  1  0.20787923  0.20415532  0.74034755  1
  Mo  Mo195  1  0.51871782  0.11047293  0.13723404  1
  Mo  Mo196  1  0.71425374  0.29808899  0.87954998  1
  Mo  Mo197  1  0.89843041  0.28836686  0.11877552  1
  Mo  Mo198  1  0.80462558  0.60280209  0.75920047  1
  Mo  Mo199  1  0.90143074  0.91853831  0.87159556  1
