# generated using pymatgen
data_HfZrTaTiMo
_symmetry_space_group_name_H-M   'P 1'
_cell_length_a   15.19880997
_cell_length_b   15.22569669
_cell_length_c   16.84790508
_cell_angle_alpha   89.97315203
_cell_angle_beta   90.01847475
_cell_angle_gamma   89.93626296
_symmetry_Int_Tables_number   1
_chemical_formula_structural   HfZrTaTiMo
_chemical_formula_sum   'Hf40 Zr40 Ta40 Ti40 Mo40'
_cell_volume   3898.81229624
_cell_formula_units_Z   40
loop_
 _symmetry_equiv_pos_site_id
 _symmetry_equiv_pos_as_xyz
  1  'x, y, z'
loop_
 _atom_site_type_symbol
 _atom_site_label
 _atom_site_symmetry_multiplicity
 _atom_site_fract_x
 _atom_site_fract_y
 _atom_site_fract_z
 _atom_site_occupancy
  Hf  Hf0  1  0.70989020  0.28824947  0.63617704  1
  Hf  Hf1  1  0.88766169  0.70317980  0.61098032  1
  Hf  Hf2  1  0.50067714  0.70869929  0.36716053  1
  Hf  Hf3  1  0.22262816  0.80865780  0.75313972  1
  Hf  Hf4  1  0.30662348  0.71284377  0.36604895  1
  Hf  Hf5  1  0.10898223  0.49352286  0.61517135  1
  Hf  Hf6  1  0.20315711  0.60234779  0.48589605  1
  Hf  Hf7  1  0.09366217  0.11039314  0.61012894  1
  Hf  Hf8  1  -0.00269175  -0.00251974  0.23492650  1
  Hf  Hf9  1  0.60847266  0.58654645  0.01164165  1
  Hf  Hf10  1  -0.00904751  0.79822007  0.26762349  1
  Hf  Hf11  1  0.90372275  0.90242120  0.87068719  1
  Hf  Hf12  1  0.20681086  0.00657014  0.01596478  1
  Hf  Hf13  1  0.39845845  -0.01359910  0.75605509  1
  Hf  Hf14  1  0.50870368  0.50024424  0.88200454  1
  Hf  Hf15  1  0.80659667  0.79582991  -0.01154180  1
  Hf  Hf16  1  0.69412634  0.70263134  0.39086691  1
  Hf  Hf17  1  0.81549528  0.38664823  0.74513759  1
  Hf  Hf18  1  -0.00222121  0.80402024  0.49817646  1
  Hf  Hf19  1  0.50558656  0.50267277  0.38614565  1
  Hf  Hf20  1  0.20176046  0.01005479  0.75270876  1
  Hf  Hf21  1  0.30730030  0.91531273  0.37554734  1
  Hf  Hf22  1  0.69853669  0.49096043  0.36817231  1
  Hf  Hf23  1  0.41282109  0.21417541  0.25615420  1
  Hf  Hf24  1  0.19850143  0.20661295  0.75479669  1
  Hf  Hf25  1  0.58995170  0.00227458  0.74783219  1
  Hf  Hf26  1  0.90521925  0.48458791  0.61495638  1
  Hf  Hf27  1  0.10876681  0.49974516  0.13013354  1
  Hf  Hf28  1  0.09813855  0.91307707  0.38042855  1
  Hf  Hf29  1  0.20116763  0.60592173  0.00297302  1
  Hf  Hf30  1  0.81051811  0.38229594  0.49890138  1
  Hf  Hf31  1  0.70495685  0.49752158  0.86589260  1
  Hf  Hf32  1  0.71315103  0.71206141  0.12283028  1
  Hf  Hf33  1  0.58441630  0.00315120  0.51887675  1
  Hf  Hf34  1  0.08696690  0.10943999  0.37554741  1
  Hf  Hf35  1  0.28581819  0.71368002  0.13094952  1
  Hf  Hf36  1  0.00186901  0.58716293  0.48581307  1
  Hf  Hf37  1  0.40059990  0.37787238  -0.01250092  1
  Hf  Hf38  1  0.89126110  0.50169763  0.13463008  1
  Hf  Hf39  1  0.59883213  0.82583872  0.23843884  1
  Zr  Zr40  1  0.00207175  0.80538483  0.73521432  1
  Zr  Zr41  1  0.60260058  0.59723393  0.23515702  1
  Zr  Zr42  1  0.69767881  0.28804385  0.36475244  1
  Zr  Zr43  1  0.69378491  0.88234272  0.63188382  1
  Zr  Zr44  1  0.30947334  0.50056564  0.61335557  1
  Zr  Zr45  1  0.32058588  0.90645044  0.60750411  1
  Zr  Zr46  1  0.07985736  0.71413638  0.13372177  1
  Zr  Zr47  1  0.48688433  0.70038104  0.11375050  1
  Zr  Zr48  1  0.79972109  0.18414975  0.49373621  1
  Zr  Zr49  1  0.40594679  0.61528099  0.75234088  1
  Zr  Zr50  1  0.00679441  -0.01431375  0.01731990  1
  Zr  Zr51  1  0.79991636  0.18982289  0.24339613  1
  Zr  Zr52  1  0.20258949  0.60474418  0.75321074  1
  Zr  Zr53  1  0.77818750  0.39690413  0.01138134  1
  Zr  Zr54  1  0.30901521  0.70747032  0.61580594  1
  Zr  Zr55  1  0.09523870  0.10424306  0.88601170  1
  Zr  Zr56  1  0.19676956  0.39895279  0.75762873  1
  Zr  Zr57  1  0.10571416  0.91191129  0.61272975  1
  Zr  Zr58  1  0.51369825  0.09628761  0.36855688  1
  Zr  Zr59  1  0.90251489  0.48775592  0.87965092  1
  Zr  Zr60  1  0.00659304  0.39264361  0.24595990  1
  Zr  Zr61  1  0.60014673  0.61104895  0.74015219  1
  Zr  Zr62  1  0.89118734  0.28244303  0.89827570  1
  Zr  Zr63  1  0.59351190  0.80926632  -0.00718342  1
  Zr  Zr64  1  0.10238043  0.70783672  0.87427219  1
  Zr  Zr65  1  -0.01263954  0.20589707  0.75471458  1
  Zr  Zr66  1  0.80788023  0.60576001  0.25711250  1
  Zr  Zr67  1  0.49606295  0.28889413  0.62495637  1
  Zr  Zr68  1  0.40015844  0.39605386  0.75310806  1
  Zr  Zr69  1  0.89377627  0.69358347  0.85998404  1
  Zr  Zr70  1  0.31124903  0.11246268  0.12440617  1
  Zr  Zr71  1  0.28997856  0.29871666  0.61143683  1
  Zr  Zr72  1  0.70339990  0.10766221  0.87596888  1
  Zr  Zr73  1  0.78523673  -0.00702668  0.24019646  1
  Zr  Zr74  1  0.19303157  0.59863785  0.26160148  1
  Zr  Zr75  1  -0.01124861  0.61062566  0.00460750  1
  Zr  Zr76  1  0.30174415  0.50628472  0.88452846  1
  Zr  Zr77  1  0.00045243  0.59088148  0.74036693  1
  Zr  Zr78  1  0.79814853  0.80495775  0.26318706  1
  Zr  Zr79  1  0.39990132  0.58327403  0.24146331  1
  Ta  Ta80  1  0.10446210  0.70175059  0.61440270  1
  Ta  Ta81  1  0.57969384  0.38727925  0.24949480  1
  Ta  Ta82  1  0.91282079  0.28304691  0.36198982  1
  Ta  Ta83  1  0.10470981  0.90458770  0.87387744  1
  Ta  Ta84  1  0.68998159  0.69588389  0.87244218  1
  Ta  Ta85  1  0.67939011  0.29735015  0.13361560  1
  Ta  Ta86  1  0.89434038  0.10519410  0.62497982  1
  Ta  Ta87  1  -0.00224033  0.00718183  0.74863992  1
  Ta  Ta88  1  0.89572326  0.90994614  0.61869692  1
  Ta  Ta89  1  0.21592883  0.39722212  0.26450271  1
  Ta  Ta90  1  0.19490375  0.20810685  0.48399651  1
  Ta  Ta91  1  0.40100815  0.18397219  0.75283735  1
  Ta  Ta92  1  0.09383600  0.49532898  0.88707972  1
  Ta  Ta93  1  0.50010344  0.46944738  0.11353671  1
  Ta  Ta94  1  0.00531199  0.19197426  0.22903301  1
  Ta  Ta95  1  0.61139643  0.40313067  0.51249081  1
  Ta  Ta96  1  0.32351045  0.71487354  0.89683637  1
  Ta  Ta97  1  0.80520339  0.00177894  0.74765853  1
  Ta  Ta98  1  0.30940085  0.90661573  0.89233626  1
  Ta  Ta99  1  0.30424602  0.10544009  0.61843426  1
  Ta  Ta100  1  0.68677001  0.91528390  0.38496846  1
  Ta  Ta101  1  0.31079640  0.29756062  0.38073961  1
  Ta  Ta102  1  0.50387682  0.28497470  0.86373901  1
  Ta  Ta103  1  0.19943251  0.39638926  0.00109196  1
  Ta  Ta104  1  0.89656095  0.48297870  0.36868673  1
  Ta  Ta105  1  0.19387548  0.39957078  0.47551397  1
  Ta  Ta106  1  0.19006180  0.81529342  0.00520005  1
  Ta  Ta107  1  0.09586319  0.30437850  0.89150303  1
  Ta  Ta108  1  0.50479185  0.30458396  0.39062505  1
  Ta  Ta109  1  0.31366606  0.49800331  0.38338905  1
  Ta  Ta110  1  0.00963666  0.19840990  0.02506686  1
  Ta  Ta111  1  0.69237311  0.29888085  0.86264686  1
  Ta  Ta112  1  0.20461987  0.80399135  0.49320916  1
  Ta  Ta113  1  0.00474389  0.39331142  0.01873973  1
  Ta  Ta114  1  0.89975130  0.87511652  0.11957351  1
  Ta  Ta115  1  0.59944707  0.19816403  0.50548566  1
  Ta  Ta116  1  0.79417197  0.59389543  0.73234416  1
  Ta  Ta117  1  0.51204918  0.11024074  0.12076086  1
  Ta  Ta118  1  0.30932150  0.10802267  0.88836623  1
  Ta  Ta119  1  0.31247681  0.31425480  0.13163102  1
  Ti  Ti120  1  0.49488894  0.91782162  0.11699793  1
  Ti  Ti121  1  0.40595360  0.00679500  0.24450016  1
  Ti  Ti122  1  0.89293885  0.09524189  0.11235327  1
  Ti  Ti123  1  0.30615735  0.49875537  0.11645188  1
  Ti  Ti124  1  0.89675793  0.09554505  0.89060526  1
  Ti  Ti125  1  0.79220532  -0.00806521  0.00430105  1
  Ti  Ti126  1  0.00879596  0.39320147  0.75145622  1
  Ti  Ti127  1  0.88874915  0.69642400  0.39539624  1
  Ti  Ti128  1  0.20495927  0.19927990  0.25866621  1
  Ti  Ti129  1  0.21073770  0.01808630  0.49061809  1
  Ti  Ti130  1  0.78743907  0.58132030  0.50170141  1
  Ti  Ti131  1  0.50240416  0.72732074  0.62536096  1
  Ti  Ti132  1  0.50943018  0.50975842  0.61486842  1
  Ti  Ti133  1  0.20422010  0.00302179  0.24269999  1
  Ti  Ti134  1  0.69446380  0.90066138  0.86416147  1
  Ti  Ti135  1  0.78554898  0.79194930  0.75081107  1
  Ti  Ti136  1  0.40575153  0.39739906  0.50297362  1
  Ti  Ti137  1  0.88670568  0.90509975  0.39488303  1
  Ti  Ti138  1  0.69426234  0.10099045  0.63849069  1
  Ti  Ti139  1  0.49756214  0.90331529  0.37231955  1
  Ti  Ti140  1  0.39254742  0.81796557  0.23817040  1
  Ti  Ti141  1  0.12030471  0.29462233  0.13008244  1
  Ti  Ti142  1  0.60028688  0.00225159  -0.00462508  1
  Ti  Ti143  1  0.39797304  0.18021789  0.49024672  1
  Ti  Ti144  1  0.69323837  0.69051845  0.60684771  1
  Ti  Ti145  1  0.41369471  0.61636036  0.50059817  1
  Ti  Ti146  1  0.10161989  0.70778355  0.37543577  1
  Ti  Ti147  1  0.59865497  0.21559124  -0.00228651  1
  Ti  Ti148  1  0.69481848  0.09987518  0.11374096  1
  Ti  Ti149  1  0.88795886  0.29453577  0.12375071  1
  Ti  Ti150  1  0.79770970  0.59865070  0.00481877  1
  Ti  Ti151  1  0.00980575  0.38242775  0.47853682  1
  Ti  Ti152  1  0.60179474  0.40282741  0.73690558  1
  Ti  Ti153  1  0.78857306  -0.00449815  0.50932499  1
  Ti  Ti154  1  0.89346686  0.08785271  0.37474366  1
  Ti  Ti155  1  0.08704702  0.30202150  0.61391585  1
  Ti  Ti156  1  0.58808886  0.80369879  0.49997797  1
  Ti  Ti157  1  0.49937360  0.09298368  0.88542879  1
  Ti  Ti158  1  0.21270948  0.21337515  0.00197350  1
  Ti  Ti159  1  -0.00267890  0.59878889  0.26814778  1
  Mo  Mo160  1  -0.02015390  0.01204894  0.50015307  1
  Mo  Mo161  1  0.00391765  0.80690781  -0.00455753  1
  Mo  Mo162  1  0.70169697  0.08730745  0.38034411  1
  Mo  Mo163  1  0.49613831  0.89902456  0.88511587  1
  Mo  Mo164  1  0.80012023  0.18684871  0.75305251  1
  Mo  Mo165  1  0.91482357  0.29069336  0.61995803  1
  Mo  Mo166  1  0.69846242  0.91095074  0.11123460  1
  Mo  Mo167  1  0.40055615  0.40336052  0.25591062  1
  Mo  Mo168  1  0.19543838  0.81785454  0.25697749  1
  Mo  Mo169  1  0.60221175  0.19076407  0.24605698  1
  Mo  Mo170  1  0.89780686  0.69857863  0.12635464  1
  Mo  Mo171  1  0.69508253  0.48920109  0.14222710  1
  Mo  Mo172  1  0.29641057  0.10353220  0.36370616  1
  Mo  Mo173  1  0.49798270  0.89530546  0.62665779  1
  Mo  Mo174  1  0.11215368  0.89529414  0.14051092  1
  Mo  Mo175  1  0.40086832  0.59636832  0.01214723  1
  Mo  Mo176  1  0.38920644  0.81119597  0.01431183  1
  Mo  Mo177  1  0.79358341  0.39471144  0.24257319  1
  Mo  Mo178  1  0.58631512  0.80267882  0.76821972  1
  Mo  Mo179  1  0.40024578  0.00797355  0.49338026  1
  Mo  Mo180  1  0.29690122  0.29080365  0.87469295  1
  Mo  Mo181  1  0.59721841  0.59878853  0.50859827  1
  Mo  Mo182  1  0.10066924  0.49731359  0.36804249  1
  Mo  Mo183  1  0.79050793  0.80590872  0.49614618  1
  Mo  Mo184  1  0.49435002  0.28950981  0.12129000  1
  Mo  Mo185  1  0.40993425  0.80702944  0.48971043  1
  Mo  Mo186  1  0.41220288  0.00127694  0.00143518  1
  Mo  Mo187  1  0.10713455  0.10676889  0.13216846  1
  Mo  Mo188  1  0.40694492  0.19461699  -0.00541289  1
  Mo  Mo189  1  0.59588427  0.00632365  0.23876091  1
  Mo  Mo190  1  0.59350042  0.19958233  0.75172233  1
  Mo  Mo191  1  0.79450738  0.19051750  0.01537352  1
  Mo  Mo192  1  -0.00742960  0.20747218  0.49468860  1
  Mo  Mo193  1  0.48700761  0.09819104  0.62526295  1
  Mo  Mo194  1  0.30605572  0.90537071  0.12921177  1
  Mo  Mo195  1  0.70120713  0.49467980  0.62482725  1
  Mo  Mo196  1  0.10395699  0.29477981  0.35996466  1
  Mo  Mo197  1  0.60016128  0.38923109  -0.00475417  1
  Mo  Mo198  1  0.49945367  0.69661420  0.89393068  1
  Mo  Mo199  1  0.41418480  0.80075664  0.76279506  1
