# generated using pymatgen
data_HfZrTaTiMo
_symmetry_space_group_name_H-M   'P 1'
_cell_length_a   15.17228034
_cell_length_b   15.18238840
_cell_length_c   16.80382725
_cell_angle_alpha   89.94866947
_cell_angle_beta   90.01910050
_cell_angle_gamma   90.29146301
_symmetry_Int_Tables_number   1
_chemical_formula_structural   HfZrTaTiMo
_chemical_formula_sum   'Hf40 Zr40 Ta40 Ti40 Mo40'
_cell_volume   3870.73417791
_cell_formula_units_Z   40
loop_
 _symmetry_equiv_pos_site_id
 _symmetry_equiv_pos_as_xyz
  1  'x, y, z'
loop_
 _atom_site_type_symbol
 _atom_site_label
 _atom_site_symmetry_multiplicity
 _atom_site_fract_x
 _atom_site_fract_y
 _atom_site_fract_z
 _atom_site_occupancy
  Hf  Hf0  1  0.19851818  0.60165914  0.47945379  1
  Hf  Hf1  1  0.40635292  0.59740505  0.76056559  1
  Hf  Hf2  1  0.91844073  0.50725994  0.87883887  1
  Hf  Hf3  1  0.29936058  0.68755729  0.62878628  1
  Hf  Hf4  1  0.20289559  0.38780485  0.73235992  1
  Hf  Hf5  1  0.78952308  0.39336794  0.24498834  1
  Hf  Hf6  1  0.08291534  0.68913808  0.87737066  1
  Hf  Hf7  1  0.39227851  0.60344459  0.48005330  1
  Hf  Hf8  1  0.01777687  -0.00273959  0.00241177  1
  Hf  Hf9  1  0.41557221  0.80323751  0.00393843  1
  Hf  Hf10  1  0.91148653  0.50732432  0.13041378  1
  Hf  Hf11  1  0.30519666  0.67904922  0.12197844  1
  Hf  Hf12  1  0.79123793  0.40214146  0.00489074  1
  Hf  Hf13  1  0.19447991  0.80351477  0.01620156  1
  Hf  Hf14  1  0.79993499  0.40766645  0.74972101  1
  Hf  Hf15  1  0.39621531  0.21703378  0.24018615  1
  Hf  Hf16  1  0.68926345  0.10838518  0.63907195  1
  Hf  Hf17  1  0.29879098  0.47721525  0.88103250  1
  Hf  Hf18  1  0.50429510  0.91509277  0.36912623  1
  Hf  Hf19  1  0.91261270  0.91801036  0.38073335  1
  Hf  Hf20  1  0.40562207  0.39735196  0.50589044  1
  Hf  Hf21  1  0.58734316  0.42033701  -0.00763878  1
  Hf  Hf22  1  0.61259947  0.61142168  0.74727984  1
  Hf  Hf23  1  0.48139810  0.30676439  0.87770737  1
  Hf  Hf24  1  0.50745369  0.10062785  0.13667726  1
  Hf  Hf25  1  0.19054972  0.58445114  0.75193662  1
  Hf  Hf26  1  0.88603200  0.29475785  0.38742098  1
  Hf  Hf27  1  0.88631643  0.29895103  0.61362284  1
  Hf  Hf28  1  0.80962780  -0.00164186  0.75373815  1
  Hf  Hf29  1  0.28502603  0.27590911  0.88053799  1
  Hf  Hf30  1  0.89232927  0.29176821  0.11197219  1
  Hf  Hf31  1  0.30108898  0.29797190  0.38027480  1
  Hf  Hf32  1  0.80920962  0.60727757  0.00667020  1
  Hf  Hf33  1  0.60108072  0.00615002  0.50138762  1
  Hf  Hf34  1  0.59994676  0.59558486  0.47424951  1
  Hf  Hf35  1  0.60839567  0.62083411  -0.00559490  1
  Hf  Hf36  1  0.90678544  0.48808634  0.39217624  1
  Hf  Hf37  1  0.70331524  0.70841421  0.13871270  1
  Hf  Hf38  1  0.09098357  0.29870013  0.87286276  1
  Hf  Hf39  1  0.09335137  0.68143114  0.13258030  1
  Zr  Zr40  1  0.91751605  0.10842062  0.87553479  1
  Zr  Zr41  1  0.79739963  0.59648896  0.27022524  1
  Zr  Zr42  1  0.29915226  0.89285895  0.62851306  1
  Zr  Zr43  1  0.19491719  0.17572596  0.49759427  1
  Zr  Zr44  1  0.50484334  0.71266418  0.61304136  1
  Zr  Zr45  1  0.81536069  0.81034547  0.50995854  1
  Zr  Zr46  1  0.30223105  0.08941951  0.13458440  1
  Zr  Zr47  1  0.29924929  0.89925289  0.87948092  1
  Zr  Zr48  1  0.40953250  0.58674061  -0.01180116  1
  Zr  Zr49  1  0.39689034  0.39804764  0.73356689  1
  Zr  Zr50  1  0.20276814  0.00281181  0.75931484  1
  Zr  Zr51  1  0.59863367  0.20145907  -0.00326358  1
  Zr  Zr52  1  0.29403397  0.69778294  0.88028858  1
  Zr  Zr53  1  0.41009024  0.01456195  0.75927494  1
  Zr  Zr54  1  0.69389615  0.09938476  0.36929303  1
  Zr  Zr55  1  0.48930142  0.10669679  0.35625261  1
  Zr  Zr56  1  0.59114813  0.41076381  0.25573233  1
  Zr  Zr57  1  0.69932534  0.90500136  0.62551236  1
  Zr  Zr58  1  0.50518221  0.50661990  0.61744111  1
  Zr  Zr59  1  0.39942619  0.59651926  0.26916115  1
  Zr  Zr60  1  0.08664867  0.28497963  0.61501290  1
  Zr  Zr61  1  0.70128334  0.87873836  0.86368363  1
  Zr  Zr62  1  0.91191961  0.50328455  0.60626512  1
  Zr  Zr63  1  0.09307220  0.29266063  0.37977440  1
  Zr  Zr64  1  0.69707924  0.30090806  0.87208862  1
  Zr  Zr65  1  0.29729163  0.89017294  0.36935362  1
  Zr  Zr66  1  0.60561403  -0.01707993  0.00513020  1
  Zr  Zr67  1  0.59963993  0.60500719  0.27297165  1
  Zr  Zr68  1  0.01539372  0.59211602  0.27371534  1
  Zr  Zr69  1  0.71442330  0.10623292  0.11747196  1
  Zr  Zr70  1  0.79625213  0.60980056  0.49887915  1
  Zr  Zr71  1  0.80749355  0.78778310  0.72437680  1
  Zr  Zr72  1  0.61050034  0.82288375  0.25479517  1
  Zr  Zr73  1  0.18045713  -0.01858124  0.23369999  1
  Zr  Zr74  1  0.19915018  0.40496519  0.24047466  1
  Zr  Zr75  1  -0.01276245  0.79029033  0.00532432  1
  Zr  Zr76  1  0.81001652  0.19415398  0.24978374  1
  Zr  Zr77  1  0.00267597  0.40495641  0.74441557  1
  Zr  Zr78  1  0.28586038  0.09355162  0.35760021  1
  Zr  Zr79  1  0.20075569  0.38361158  0.02324032  1
  Ta  Ta80  1  0.80818430  -0.00410866  -0.01344688  1
  Ta  Ta81  1  0.91497676  0.71711535  0.37266558  1
  Ta  Ta82  1  0.59599875  0.40671552  0.75462711  1
  Ta  Ta83  1  0.40762593  0.80182768  0.75355250  1
  Ta  Ta84  1  0.89946185  0.30281653  0.88758165  1
  Ta  Ta85  1  -0.02062078  0.17526268  0.49521067  1
  Ta  Ta86  1  0.49809851  0.91805828  0.62661234  1
  Ta  Ta87  1  0.78415635  0.80166013  0.00378115  1
  Ta  Ta88  1  0.58098478  0.20039795  0.50341123  1
  Ta  Ta89  1  0.80244911  0.20508715  0.75779598  1
  Ta  Ta90  1  0.88820824  0.90113286  0.12188515  1
  Ta  Ta91  1  0.78879264  -0.00850897  0.25029941  1
  Ta  Ta92  1  0.39306495  0.01361690  0.50144055  1
  Ta  Ta93  1  0.69302180  0.09150912  0.86779402  1
  Ta  Ta94  1  0.50831942  0.90743686  0.86987232  1
  Ta  Ta95  1  0.61262996  0.38977020  0.49619595  1
  Ta  Ta96  1  0.57917379  0.19090418  0.75966955  1
  Ta  Ta97  1  -0.00125459  0.38788032  0.24654172  1
  Ta  Ta98  1  0.81328308  0.81068781  0.25836957  1
  Ta  Ta99  1  0.18552009  -0.01977396  0.49665208  1
  Ta  Ta100  1  0.90757092  0.89157699  0.87290325  1
  Ta  Ta101  1  0.30187536  0.28163603  0.61273276  1
  Ta  Ta102  1  0.00894764  0.61590235  0.48728838  1
  Ta  Ta103  1  0.77451299  0.20346863  0.50305648  1
  Ta  Ta104  1  0.49802049  0.31516219  0.11808709  1
  Ta  Ta105  1  0.70817534  0.51610883  0.86916264  1
  Ta  Ta106  1  0.09790596  0.70297376  0.62317069  1
  Ta  Ta107  1  0.50526765  0.70295042  0.13190821  1
  Ta  Ta108  1  0.40442158  0.00817044  -0.00402453  1
  Ta  Ta109  1  0.38301029  0.19706786  0.74961883  1
  Ta  Ta110  1  0.90025809  0.70514411  0.14339234  1
  Ta  Ta111  1  0.18176204  0.58044441  0.00087907  1
  Ta  Ta112  1  0.90386331  0.10731491  0.63864930  1
  Ta  Ta113  1  0.20249193  0.40244590  0.50596220  1
  Ta  Ta114  1  0.01337775  0.20550564  0.00770302  1
  Ta  Ta115  1  0.88225633  0.70141743  0.86897964  1
  Ta  Ta116  1  0.80716444  0.60252298  0.73291321  1
  Ta  Ta117  1  0.50323269  0.30136066  0.37587880  1
  Ta  Ta118  1  -0.01631067  0.00460374  0.23586596  1
  Ta  Ta119  1  0.81578282  0.02051671  0.50580919  1
  Ti  Ti120  1  0.60719318  0.80500265  0.49727751  1
  Ti  Ti121  1  0.10099512  0.89548221  0.87502443  1
  Ti  Ti122  1  0.19569065  0.18586555  0.01925142  1
  Ti  Ti123  1  0.50076719  0.28692134  0.62863213  1
  Ti  Ti124  1  0.39401169  0.40953085  0.24960515  1
  Ti  Ti125  1  0.01070892  0.81618551  0.24372419  1
  Ti  Ti126  1  0.07834191  0.07688206  0.37321395  1
  Ti  Ti127  1  0.48854813  0.51215504  0.12618878  1
  Ti  Ti128  1  0.51732384  0.71357925  0.87087277  1
  Ti  Ti129  1  0.49936296  0.90419395  0.13431948  1
  Ti  Ti130  1  0.68848815  0.50174461  0.12669207  1
  Ti  Ti131  1  0.19783223  0.79154499  0.75354439  1
  Ti  Ti132  1  0.20647026  0.79304144  0.49901255  1
  Ti  Ti133  1  0.70104131  0.49778023  0.62009953  1
  Ti  Ti134  1  0.68881384  0.30282895  0.63733456  1
  Ti  Ti135  1  0.40131207  0.81228544  0.49897068  1
  Ti  Ti136  1  0.71026622  0.72683249  0.37652727  1
  Ti  Ti137  1  0.18701426  0.18679522  0.74595027  1
  Ti  Ti138  1  0.92268951  0.91308894  0.62459065  1
  Ti  Ti139  1  0.11133459  0.72412008  0.36690894  1
  Ti  Ti140  1  0.00185203  0.80193158  0.74787475  1
  Ti  Ti141  1  0.10413705  0.50644636  0.60919627  1
  Ti  Ti142  1  0.90278583  0.09705966  0.10861272  1
  Ti  Ti143  1  0.20491627  0.79263439  0.23307781  1
  Ti  Ti144  1  0.00123803  0.19223592  0.24535512  1
  Ti  Ti145  1  0.29777179  0.09289429  0.62181509  1
  Ti  Ti146  1  0.01355504  0.00736417  0.76132858  1
  Ti  Ti147  1  0.09136076  0.08640854  0.62370353  1
  Ti  Ti148  1  0.20619033  -0.00159856  0.01028285  1
  Ti  Ti149  1  0.20911195  0.59481871  0.27018961  1
  Ti  Ti150  1  0.49279718  0.72122196  0.37610052  1
  Ti  Ti151  1  -0.00498673  0.60913593  0.73937147  1
  Ti  Ti152  1  0.01253683  0.41338849  0.00930804  1
  Ti  Ti153  1  0.02049326  0.81237762  0.50108917  1
  Ti  Ti154  1  0.39579107  0.80194364  0.24111145  1
  Ti  Ti155  1  0.61146962  0.21955121  0.23949996  1
  Ti  Ti156  1  0.10543381  0.89691339  0.63385228  1
  Ti  Ti157  1  0.39227208  0.20330680  0.01127866  1
  Ti  Ti158  1  0.18642413  0.20465841  0.23373340  1
  Ti  Ti159  1  0.59802110  0.80491586  0.73761472  1
  Mo  Mo160  1  0.10030166  0.48813116  0.38578309  1
  Mo  Mo161  1  0.59802389  0.00058456  0.75372075  1
  Mo  Mo162  1  0.60440298  0.00832411  0.24097717  1
  Mo  Mo163  1  0.12057888  0.10767236  0.88298913  1
  Mo  Mo164  1  0.79021188  0.39569919  0.50780129  1
  Mo  Mo165  1  0.50996178  0.50141624  0.86578625  1
  Mo  Mo166  1  0.08973772  0.29512370  0.13251135  1
  Mo  Mo167  1  0.70920733  0.47688405  0.38446895  1
  Mo  Mo168  1  0.29169729  0.49696251  0.61855357  1
  Mo  Mo169  1  0.49668583  0.48756415  0.38457716  1
  Mo  Mo170  1  0.69094824  0.29414551  0.37670113  1
  Mo  Mo171  1  0.39865125  0.19532687  0.50029742  1
  Mo  Mo172  1  0.48687479  0.10872897  0.62425568  1
  Mo  Mo173  1  0.29909746  0.10276216  0.89142929  1
  Mo  Mo174  1  0.70629581  0.90384056  0.12194010  1
  Mo  Mo175  1  0.09001278  0.10011725  0.12691473  1
  Mo  Mo176  1  0.59617798  0.79864841  0.00698805  1
  Mo  Mo177  1  0.69788740  0.69200999  0.61130412  1
  Mo  Mo178  1  0.09178807  0.89284837  0.12243533  1
  Mo  Mo179  1  0.30945280  0.89186229  0.12189317  1
  Mo  Mo180  1  -0.00306934  0.59815876  0.00374225  1
  Mo  Mo181  1  0.80557126  0.19411979  -0.01415781  1
  Mo  Mo182  1  0.09693617  0.89440936  0.37101293  1
  Mo  Mo183  1  -0.00229121  0.19593549  0.74957791  1
  Mo  Mo184  1  0.00701423  0.39532795  0.50126684  1
  Mo  Mo185  1  0.29603745  0.48847281  0.37733367  1
  Mo  Mo186  1  0.69014899  0.30675927  0.11656147  1
  Mo  Mo187  1  0.70847178  0.90585966  0.38706373  1
  Mo  Mo188  1  0.40040753  -0.01075870  0.24120735  1
  Mo  Mo189  1  0.92085963  0.70635057  0.61674559  1
  Mo  Mo190  1  0.90082523  0.10209194  0.37288079  1
  Mo  Mo191  1  0.30040524  0.71100786  0.36728798  1
  Mo  Mo192  1  0.00532419  -0.00160538  0.51151335  1
  Mo  Mo193  1  0.30658102  0.50143183  0.12254194  1
  Mo  Mo194  1  0.10225872  0.50099481  0.13332823  1
  Mo  Mo195  1  0.39863119  0.39382742  0.00816230  1
  Mo  Mo196  1  0.70711258  0.70083792  0.86965167  1
  Mo  Mo197  1  0.10415306  0.49445259  0.87598768  1
  Mo  Mo198  1  0.30411827  0.29749301  0.12705307  1
  Mo  Mo199  1  0.49620328  0.10621040  0.88497662  1
