# generated using pymatgen
data_HfZrTaTiMo
_symmetry_space_group_name_H-M   'P 1'
_cell_length_a   15.19494531
_cell_length_b   15.22403213
_cell_length_c   16.87848265
_cell_angle_alpha   90.01862299
_cell_angle_beta   90.07142578
_cell_angle_gamma   90.03064053
_symmetry_Int_Tables_number   1
_chemical_formula_structural   HfZrTaTiMo
_chemical_formula_sum   'Hf40 Zr40 Ta40 Ti40 Mo40'
_cell_volume   3904.46749790
_cell_formula_units_Z   40
loop_
 _symmetry_equiv_pos_site_id
 _symmetry_equiv_pos_as_xyz
  1  'x, y, z'
loop_
 _atom_site_type_symbol
 _atom_site_label
 _atom_site_symmetry_multiplicity
 _atom_site_fract_x
 _atom_site_fract_y
 _atom_site_fract_z
 _atom_site_occupancy
  Hf  Hf0  1  0.49092469  0.90304871  0.12312088  1
  Hf  Hf1  1  0.29865742  0.30910618  0.37502878  1
  Hf  Hf2  1  0.20398552  0.00798703  0.74467889  1
  Hf  Hf3  1  0.88301223  0.48458145  0.12700138  1
  Hf  Hf4  1  -0.01157988  0.58561706  0.49423416  1
  Hf  Hf5  1  0.10217823  0.90386785  0.37496057  1
  Hf  Hf6  1  0.19661056  0.40577499  0.24247174  1
  Hf  Hf7  1  0.40328040  0.60937342  0.24107780  1
  Hf  Hf8  1  0.69491808  0.08647318  0.87124555  1
  Hf  Hf9  1  0.58985482  0.41586423  0.75303609  1
  Hf  Hf10  1  0.40982186  0.20763950  0.48536204  1
  Hf  Hf11  1  0.28949938  0.71533015  0.11959031  1
  Hf  Hf12  1  0.88616368  0.69662044  0.62332596  1
  Hf  Hf13  1  0.01579246  0.00015028  0.01046881  1
  Hf  Hf14  1  0.50488238  0.09419824  0.13629852  1
  Hf  Hf15  1  0.29997499  0.29544041  0.88334692  1
  Hf  Hf16  1  0.51846636  0.09147476  0.36815150  1
  Hf  Hf17  1  0.90997436  0.10416670  0.87907567  1
  Hf  Hf18  1  0.40869442  0.80336717  0.74577395  1
  Hf  Hf19  1  0.70413672  0.89785420  0.62019438  1
  Hf  Hf20  1  0.80187288  0.80191801  0.76157619  1
  Hf  Hf21  1  0.78327828  0.60247460  0.75829140  1
  Hf  Hf22  1  0.00231206  0.79851695  0.25471617  1
  Hf  Hf23  1  0.09549761  0.30183091  0.88679850  1
  Hf  Hf24  1  0.38125972  0.60405535  -0.00755650  1
  Hf  Hf25  1  0.39114048  0.81518157  -0.01836033  1
  Hf  Hf26  1  0.79849318  0.80466037  0.25482473  1
  Hf  Hf27  1  0.30786809  0.92249614  0.39204909  1
  Hf  Hf28  1  0.79275530  0.00303231  0.01051987  1
  Hf  Hf29  1  0.09632039  0.69048566  0.62603228  1
  Hf  Hf30  1  0.19471657  0.40320579  0.49652694  1
  Hf  Hf31  1  0.80554136  0.20272888  0.01928047  1
  Hf  Hf32  1  0.00506205  0.80176044  0.74755844  1
  Hf  Hf33  1  0.90614231  0.88916776  0.11774840  1
  Hf  Hf34  1  0.70211977  0.91976591  0.36612496  1
  Hf  Hf35  1  0.91793866  0.69320827  0.88784378  1
  Hf  Hf36  1  0.79451362  0.60276321  -0.00056868  1
  Hf  Hf37  1  0.59413831  0.20436749  0.75354988  1
  Hf  Hf38  1  0.51299076  0.30026662  0.11937148  1
  Hf  Hf39  1  0.40592595  0.40906884  0.24367035  1
  Zr  Zr40  1  0.29902189  0.29247905  0.12240348  1
  Zr  Zr41  1  0.11641393  0.88653261  0.88769892  1
  Zr  Zr42  1  0.71411809  0.10128640  0.62157267  1
  Zr  Zr43  1  -0.00099841  0.38891691  0.75429551  1
  Zr  Zr44  1  0.30612166  0.31862711  0.62134192  1
  Zr  Zr45  1  0.48840575  0.48659389  0.89651093  1
  Zr  Zr46  1  0.88878005  0.27633341  0.37264701  1
  Zr  Zr47  1  0.59025647  0.79287824  0.24888469  1
  Zr  Zr48  1  0.80963935  0.20318667  0.75601428  1
  Zr  Zr49  1  0.19726064  0.19963253  0.24736182  1
  Zr  Zr50  1  0.20166960  0.59520899  0.50101793  1
  Zr  Zr51  1  0.22775773  -0.00498028  0.23822238  1
  Zr  Zr52  1  0.30155757  0.71404659  0.38075791  1
  Zr  Zr53  1  0.50380832  0.31807001  0.61205948  1
  Zr  Zr54  1  0.90700116  0.90210768  0.88790654  1
  Zr  Zr55  1  0.20200354  0.20992598  0.74440092  1
  Zr  Zr56  1  0.68262733  0.69204137  0.37340636  1
  Zr  Zr57  1  -0.01079459  0.39306614  0.24876433  1
  Zr  Zr58  1  0.48897601  0.09752071  0.87369432  1
  Zr  Zr59  1  0.79566756  0.80166756  0.48513062  1
  Zr  Zr60  1  0.57896412  0.60121119  0.50513820  1
  Zr  Zr61  1  0.11136241  0.09524372  0.37140320  1
  Zr  Zr62  1  0.19935955  0.81263347  0.51994752  1
  Zr  Zr63  1  0.69843522  0.30420220  0.88819601  1
  Zr  Zr64  1  0.50954694  0.10859815  0.62052611  1
  Zr  Zr65  1  -0.00316147  0.18876257  0.50195405  1
  Zr  Zr66  1  0.88689874  0.49439338  0.62380935  1
  Zr  Zr67  1  0.68258370  0.51078565  0.88912593  1
  Zr  Zr68  1  0.20669396  0.18872611  0.50587074  1
  Zr  Zr69  1  0.89769233  0.68465319  0.13323109  1
  Zr  Zr70  1  0.89889803  0.29341080  0.61744777  1
  Zr  Zr71  1  0.38625785  0.59102188  0.76777722  1
  Zr  Zr72  1  0.50138785  0.70252799  0.10795862  1
  Zr  Zr73  1  0.09971611  0.69402193  0.37364222  1
  Zr  Zr74  1  0.40182110  0.19439998  0.26185946  1
  Zr  Zr75  1  0.20748124  0.79967706  0.73865449  1
  Zr  Zr76  1  0.70012380  0.30746267  0.62458803  1
  Zr  Zr77  1  0.51765301  0.69344048  0.87624951  1
  Zr  Zr78  1  -0.01009163  0.79823151  0.49394204  1
  Zr  Zr79  1  0.42444011  0.80148468  0.52215928  1
  Ta  Ta80  1  0.47187123  0.51169047  0.62564746  1
  Ta  Ta81  1  0.72208500  0.11266119  0.37029055  1
  Ta  Ta82  1  0.61098299  0.79694731  0.74998184  1
  Ta  Ta83  1  0.09282653  0.29934945  0.37318269  1
  Ta  Ta84  1  0.29071063  0.50797310  0.11742049  1
  Ta  Ta85  1  -0.00029515  0.59370646  0.75219865  1
  Ta  Ta86  1  0.51878762  0.90625240  0.86502688  1
  Ta  Ta87  1  0.69973051  0.30606608  0.36282212  1
  Ta  Ta88  1  0.79361610  0.80039548  -0.00150456  1
  Ta  Ta89  1  0.79467303  0.40544113  0.75812060  1
  Ta  Ta90  1  0.40829363  0.00617032  0.73567842  1
  Ta  Ta91  1  0.89312414  0.68211787  0.36082934  1
  Ta  Ta92  1  0.78439108  0.39532350  0.48942222  1
  Ta  Ta93  1  0.09202250  0.69837986  0.12805394  1
  Ta  Ta94  1  0.49912048  0.29595574  0.89322011  1
  Ta  Ta95  1  0.19464296  0.60145918  0.24601834  1
  Ta  Ta96  1  0.09112093  0.30083152  0.11619079  1
  Ta  Ta97  1  0.20054259  0.19182914  0.00317618  1
  Ta  Ta98  1  0.69359547  0.90448270  0.13122775  1
  Ta  Ta99  1  0.11303395  0.09743178  0.88099310  1
  Ta  Ta100  1  0.61877847  0.20943006  0.48636456  1
  Ta  Ta101  1  0.08945717  0.51042983  0.88281384  1
  Ta  Ta102  1  0.80520112  -0.00569081  0.75298406  1
  Ta  Ta103  1  0.60384924  -0.00584067  0.49971686  1
  Ta  Ta104  1  0.09469060  0.49584403  0.36580440  1
  Ta  Ta105  1  0.00894391  -0.00377961  0.23360538  1
  Ta  Ta106  1  0.00906403  -0.00901036  0.50565009  1
  Ta  Ta107  1  0.39561185  0.18113326  0.00468560  1
  Ta  Ta108  1  0.50043544  0.50113440  0.10810714  1
  Ta  Ta109  1  0.38863588  0.81650671  0.25189814  1
  Ta  Ta110  1  0.31328517  0.67807184  0.62852916  1
  Ta  Ta111  1  0.09919090  0.49134322  0.62986352  1
  Ta  Ta112  1  0.77513871  0.57778505  0.25293523  1
  Ta  Ta113  1  -0.00903902  0.18705480  0.23420214  1
  Ta  Ta114  1  0.50424091  0.89438630  0.37737566  1
  Ta  Ta115  1  0.89498600  0.49068918  0.88214380  1
  Ta  Ta116  1  0.30702006  0.51068564  0.37094029  1
  Ta  Ta117  1  0.01060343  0.18730420  0.74851971  1
  Ta  Ta118  1  0.60747947  0.42038580  0.24727393  1
  Ta  Ta119  1  0.11412503  0.09773787  0.12208385  1
  Ti  Ti120  1  0.81541103  0.00428990  0.49427479  1
  Ti  Ti121  1  0.09529948  0.29960156  0.62209768  1
  Ti  Ti122  1  0.08688988  0.50885100  0.12599877  1
  Ti  Ti123  1  0.71260409  0.31425412  0.12845981  1
  Ti  Ti124  1  0.68821493  0.69947339  0.61692306  1
  Ti  Ti125  1  0.48825121  0.69678808  0.37546595  1
  Ti  Ti126  1  0.38900199  0.39211191  0.00879232  1
  Ti  Ti127  1  -0.00564277  0.39646720  0.49124555  1
  Ti  Ti128  1  0.27674644  0.49770149  0.88648968  1
  Ti  Ti129  1  0.51150399  0.32760776  0.37944028  1
  Ti  Ti130  1  0.10311412  0.08943486  0.62368587  1
  Ti  Ti131  1  0.88385990  0.48802682  0.36651717  1
  Ti  Ti132  1  0.27170492  0.70398453  0.87343428  1
  Ti  Ti133  1  0.18915853  0.40649124  0.00981181  1
  Ti  Ti134  1  0.78905365  0.58995085  0.48968639  1
  Ti  Ti135  1  0.60498624  0.19045666  0.00739596  1
  Ti  Ti136  1  0.61243520  0.80359941  -0.00632841  1
  Ti  Ti137  1  0.39336896  0.39474004  0.75941249  1
  Ti  Ti138  1  0.23151230  -0.00066973  0.00590091  1
  Ti  Ti139  1  0.68598066  0.50183522  0.62179676  1
  Ti  Ti140  1  0.39413499  0.20087480  0.75052319  1
  Ti  Ti141  1  0.89976451  0.30144292  0.88291333  1
  Ti  Ti142  1  0.00168121  0.19749674  0.01123582  1
  Ti  Ti143  1  0.61983676  0.20427852  0.24714282  1
  Ti  Ti144  1  0.90597582  0.09024659  0.62864090  1
  Ti  Ti145  1  -0.01119384  0.40050159  0.00594409  1
  Ti  Ti146  1  0.90552153  0.90339502  0.62650062  1
  Ti  Ti147  1  0.59762849  -0.00400621  0.00184756  1
  Ti  Ti148  1  0.40397265  0.01229875  0.51207621  1
  Ti  Ti149  1  0.11776749  0.88624278  0.11467304  1
  Ti  Ti150  1  0.20088415  0.80189457  0.24960092  1
  Ti  Ti151  1  0.80749258  0.01711774  0.23333816  1
  Ti  Ti152  1  0.31256140  0.92380009  0.86654482  1
  Ti  Ti153  1  0.30506990  0.91706151  0.62169014  1
  Ti  Ti154  1  0.68712797  0.50004895  0.11057382  1
  Ti  Ti155  1  0.90883697  0.07744696  0.36617301  1
  Ti  Ti156  1  0.17598629  0.61279908  0.00145810  1
  Ti  Ti157  1  0.69644616  0.69760319  0.12820192  1
  Ti  Ti158  1  0.00478691  -0.00172841  0.75080085  1
  Ti  Ti159  1  0.20016895  0.41662585  0.75326535  1
  Mo  Mo160  1  0.69485067  0.10156641  0.12920588  1
  Mo  Mo161  1  0.49754173  0.51016411  0.36853313  1
  Mo  Mo162  1  0.20493680  0.00535312  0.51459697  1
  Mo  Mo163  1  0.59921769  0.40695761  0.49405550  1
  Mo  Mo164  1  0.78784597  0.39201640  0.25162180  1
  Mo  Mo165  1  0.39234369  0.60174092  0.49938850  1
  Mo  Mo166  1  0.60046181  0.80816237  0.49826328  1
  Mo  Mo167  1  0.40943369  0.00001033  -0.00587590  1
  Mo  Mo168  1  0.50479588  0.69955678  0.63990948  1
  Mo  Mo169  1  0.70237553  0.71040847  0.87891650  1
  Mo  Mo170  1  -0.00431268  0.59018197  0.25761796  1
  Mo  Mo171  1  0.59958717  0.39065703  0.01153491  1
  Mo  Mo172  1  0.30403239  0.90098668  0.12020691  1
  Mo  Mo173  1  0.59178961  0.59403678  0.23824715  1
  Mo  Mo174  1  0.90269573  0.29691000  0.12248303  1
  Mo  Mo175  1  0.31147156  0.09107575  0.12119521  1
  Mo  Mo176  1  0.68862972  0.49401108  0.37972185  1
  Mo  Mo177  1  0.09419718  0.90675316  0.62771365  1
  Mo  Mo178  1  0.61421339  0.00057321  0.24903074  1
  Mo  Mo179  1  0.10018432  0.69187500  0.87150540  1
  Mo  Mo180  1  0.29195716  0.49782491  0.63126083  1
  Mo  Mo181  1  0.31515319  0.09964973  0.38017735  1
  Mo  Mo182  1  0.18962993  0.59260219  0.75414657  1
  Mo  Mo183  1  0.30969798  0.10587890  0.62666236  1
  Mo  Mo184  1  0.69904428  0.89944900  0.87839170  1
  Mo  Mo185  1  0.59906750  0.60733804  0.00918110  1
  Mo  Mo186  1  0.80054642  0.39813178  -0.00319859  1
  Mo  Mo187  1  0.80120389  0.19802576  0.23127581  1
  Mo  Mo188  1  0.20010353  0.80046467  -0.00141635  1
  Mo  Mo189  1  0.00099586  0.58715912  0.00633056  1
  Mo  Mo190  1  0.51343323  0.90749668  0.63421681  1
  Mo  Mo191  1  0.60444588  -0.00868759  0.74422535  1
  Mo  Mo192  1  0.41502276  -0.00809978  0.25855518  1
  Mo  Mo193  1  0.90850366  0.09373844  0.12332724  1
  Mo  Mo194  1  0.40378454  0.42576636  0.48718006  1
  Mo  Mo195  1  0.90350735  0.90841750  0.36496441  1
  Mo  Mo196  1  0.29609775  0.09957806  0.87395385  1
  Mo  Mo197  1  0.79915097  0.19206020  0.49443600  1
  Mo  Mo198  1  0.00920560  0.78488669  0.01040461  1
  Mo  Mo199  1  0.59418373  0.60589810  0.73489903  1
