# generated using pymatgen
data_HfZrTaTiMo
_symmetry_space_group_name_H-M   'P 1'
_cell_length_a   15.18921256
_cell_length_b   15.18832108
_cell_length_c   16.80617050
_cell_angle_alpha   89.91086660
_cell_angle_beta   89.96181814
_cell_angle_gamma   90.11942432
_symmetry_Int_Tables_number   1
_chemical_formula_structural   HfZrTaTiMo
_chemical_formula_sum   'Hf40 Zr40 Ta40 Ti40 Mo40'
_cell_volume   3877.14665105
_cell_formula_units_Z   40
loop_
 _symmetry_equiv_pos_site_id
 _symmetry_equiv_pos_as_xyz
  1  'x, y, z'
loop_
 _atom_site_type_symbol
 _atom_site_label
 _atom_site_symmetry_multiplicity
 _atom_site_fract_x
 _atom_site_fract_y
 _atom_site_fract_z
 _atom_site_occupancy
  Hf  Hf0  1  0.48665396  0.70597600  0.12087044  1
  Hf  Hf1  1  0.39083558  0.20446382  0.00241399  1
  Hf  Hf2  1  0.90591195  0.50120991  0.63141037  1
  Hf  Hf3  1  0.39559758  0.80160854  0.76916088  1
  Hf  Hf4  1  0.19667392  0.58919607  0.75073635  1
  Hf  Hf5  1  0.21506206  0.38255986  0.23811784  1
  Hf  Hf6  1  0.90169065  0.90146773  0.10876538  1
  Hf  Hf7  1  0.51490827  0.69029243  0.87380308  1
  Hf  Hf8  1  0.33117606  0.29837427  0.59822419  1
  Hf  Hf9  1  0.80352157  0.80374363  0.73446523  1
  Hf  Hf10  1  0.31313349  0.31423034  0.38912221  1
  Hf  Hf11  1  0.89033075  0.70140344  0.12346719  1
  Hf  Hf12  1  0.19534139  0.79166550  0.76738201  1
  Hf  Hf13  1  0.90288285  0.52320612  0.87145668  1
  Hf  Hf14  1  -0.00349627  0.80533385  0.24819579  1
  Hf  Hf15  1  0.60569860  0.40679569  0.00588198  1
  Hf  Hf16  1  0.80949171  0.40079626  0.49865677  1
  Hf  Hf17  1  0.58991464  0.59508498  0.50404664  1
  Hf  Hf18  1  0.60657308  0.80071642  0.73786290  1
  Hf  Hf19  1  0.79106453  0.20574674  -0.01211918  1
  Hf  Hf20  1  0.90253149  0.30346640  0.11362724  1
  Hf  Hf21  1  0.40845756  0.40163513  0.01812154  1
  Hf  Hf22  1  0.70668477  0.50823179  0.38111107  1
  Hf  Hf23  1  0.29486468  0.10907514  0.37647106  1
  Hf  Hf24  1  0.69464600  0.90183861  0.37175770  1
  Hf  Hf25  1  0.01839008  0.41748944  -0.00549729  1
  Hf  Hf26  1  0.67690938  0.50657845  0.86133093  1
  Hf  Hf27  1  0.00068737  0.19672460  0.75833178  1
  Hf  Hf28  1  0.08383541  0.08905167  0.63662680  1
  Hf  Hf29  1  0.18949662  -0.00731190  0.51185048  1
  Hf  Hf30  1  0.59388705  0.80484065  -0.00094379  1
  Hf  Hf31  1  0.39541535  0.60694184  -0.00860057  1
  Hf  Hf32  1  0.10882816  0.27916063  0.37224998  1
  Hf  Hf33  1  0.19900870  0.17415434  0.21955155  1
  Hf  Hf34  1  0.59856860  -0.00784658  0.50007257  1
  Hf  Hf35  1  0.48544327  0.69567220  0.37649696  1
  Hf  Hf36  1  0.71348800  0.70531055  0.87383089  1
  Hf  Hf37  1  0.49193798  0.09563581  0.11952834  1
  Hf  Hf38  1  0.20388066  0.18628713  0.74183881  1
  Hf  Hf39  1  0.69765582  0.10209365  0.11667641  1
  Zr  Zr40  1  0.49419775  0.90910172  0.63402641  1
  Zr  Zr41  1  0.59479255  -0.00298139  0.24894130  1
  Zr  Zr42  1  0.11658920  0.70821880  0.36825692  1
  Zr  Zr43  1  0.31832671  0.50872981  0.61009617  1
  Zr  Zr44  1  0.13597810  0.29130526  0.88237962  1
  Zr  Zr45  1  0.19302684  0.19690170  0.51274400  1
  Zr  Zr46  1  0.91509542  0.30285544  0.88312749  1
  Zr  Zr47  1  0.89136620  0.88911928  0.88262612  1
  Zr  Zr48  1  0.01894801  0.40956022  0.75652395  1
  Zr  Zr49  1  0.21878646  0.38575408  0.73477426  1
  Zr  Zr50  1  0.90257786  0.50441930  0.12097066  1
  Zr  Zr51  1  0.01103228  0.39156924  0.49445564  1
  Zr  Zr52  1  0.81138331  0.00665301  0.23684520  1
  Zr  Zr53  1  0.42259558  0.40263264  0.75244740  1
  Zr  Zr54  1  -0.00418497  0.59968575  0.48795669  1
  Zr  Zr55  1  0.28484974  0.90114430  0.37470166  1
  Zr  Zr56  1  0.20134158  0.79912714  0.51159838  1
  Zr  Zr57  1  0.60102935  0.60737691  0.25462771  1
  Zr  Zr58  1  0.11757224  0.49119364  0.36851602  1
  Zr  Zr59  1  0.70463431  0.28999497  0.62745259  1
  Zr  Zr60  1  0.11095640  0.90180972  0.09097639  1
  Zr  Zr61  1  0.10720039  0.51018150  0.14451350  1
  Zr  Zr62  1  0.08921051  0.67797632  0.88779963  1
  Zr  Zr63  1  0.81188250  0.40883282  0.25793206  1
  Zr  Zr64  1  -0.00930178  0.59832307  0.26610370  1
  Zr  Zr65  1  0.09156517  0.07656870  0.37156470  1
  Zr  Zr66  1  0.59229499  0.19309132  0.75771475  1
  Zr  Zr67  1  0.49651863  0.09854929  0.37167447  1
  Zr  Zr68  1  0.70346876  0.29029724  0.37694967  1
  Zr  Zr69  1  0.79449270  0.19624356  0.77207635  1
  Zr  Zr70  1  0.31544346  0.52435965  0.36668489  1
  Zr  Zr71  1  -0.00527540  0.18937163  0.23432511  1
  Zr  Zr72  1  0.29002126  0.48156111  0.88241644  1
  Zr  Zr73  1  0.08576305  0.88723319  0.64313067  1
  Zr  Zr74  1  0.89882991  0.91187635  0.36746970  1
  Zr  Zr75  1  0.79391036  0.82390928  0.51657352  1
  Zr  Zr76  1  -0.02054600  0.00098111  0.50652318  1
  Zr  Zr77  1  0.21201659  0.37957202  0.03107863  1
  Zr  Zr78  1  0.39350432  0.20732358  0.76118884  1
  Zr  Zr79  1  0.69711289  0.49852730  0.63446014  1
  Ta  Ta80  1  0.79686476  0.20357281  0.24199433  1
  Ta  Ta81  1  0.60620052  0.39877850  0.24594673  1
  Ta  Ta82  1  0.38636950  0.79540111  0.24719639  1
  Ta  Ta83  1  0.59640775  0.39164174  0.49887558  1
  Ta  Ta84  1  0.70304955  0.30747236  0.12483753  1
  Ta  Ta85  1  0.78486118  0.00225125  0.76025075  1
  Ta  Ta86  1  0.19725023  0.81575704  0.23695732  1
  Ta  Ta87  1  0.69597167  0.89446999  0.11915253  1
  Ta  Ta88  1  0.90272605  0.29873736  0.63488852  1
  Ta  Ta89  1  0.79673294  0.40855889  -0.01382045  1
  Ta  Ta90  1  0.21038590  0.60547430  0.49976594  1
  Ta  Ta91  1  0.40280798  0.01359635  0.76448216  1
  Ta  Ta92  1  0.38064328  -0.00393623  0.24147167  1
  Ta  Ta93  1  -0.00058809  0.80350177  0.49371983  1
  Ta  Ta94  1  0.78675421  -0.00403372  -0.00380518  1
  Ta  Ta95  1  0.40033659  0.59793708  0.76332729  1
  Ta  Ta96  1  0.50974777  0.50990159  0.12995785  1
  Ta  Ta97  1  0.70645433  0.50801943  0.12516216  1
  Ta  Ta98  1  0.69071205  0.90274881  0.87739845  1
  Ta  Ta99  1  0.90987195  0.71030982  0.62046581  1
  Ta  Ta100  1  0.88658025  0.11288944  0.37799957  1
  Ta  Ta101  1  0.60201836  0.19385943  0.50360265  1
  Ta  Ta102  1  0.59219619  0.79329994  0.51481452  1
  Ta  Ta103  1  0.49197612  0.11173402  0.61975634  1
  Ta  Ta104  1  0.39822899  0.20216905  0.24037219  1
  Ta  Ta105  1  0.79900109  0.39730287  0.76389258  1
  Ta  Ta106  1  0.88110217  0.70773559  0.38011059  1
  Ta  Ta107  1  0.59727184  0.20690696  0.24295417  1
  Ta  Ta108  1  0.11084403  0.50020412  0.61097974  1
  Ta  Ta109  1  0.79354235  0.60532587  -0.00323528  1
  Ta  Ta110  1  0.90447323  0.29534997  0.37375466  1
  Ta  Ta111  1  0.29810659  0.90524971  0.64329243  1
  Ta  Ta112  1  0.09862071  0.70218476  0.11421330  1
  Ta  Ta113  1  0.49044880  0.68842366  0.63286303  1
  Ta  Ta114  1  0.39232540  -0.00106111  0.50314374  1
  Ta  Ta115  1  0.09864256  0.08850500  0.89054591  1
  Ta  Ta116  1  0.50994410  0.31023069  0.88239571  1
  Ta  Ta117  1  0.48648305  0.89011705  0.37703902  1
  Ta  Ta118  1  0.41595954  0.39659627  0.23771207  1
  Ta  Ta119  1  0.69309407  0.71226256  0.38476492  1
  Ti  Ti120  1  0.50405580  0.48898374  0.62439018  1
  Ti  Ti121  1  0.49305657  0.90027128  0.12004949  1
  Ti  Ti122  1  -0.00349374  0.79387223  0.76412527  1
  Ti  Ti123  1  -0.01463488  0.19866128  0.50817567  1
  Ti  Ti124  1  0.69339529  0.08631385  0.62797548  1
  Ti  Ti125  1  -0.01003927  0.78645406  -0.01060715  1
  Ti  Ti126  1  0.39535119  0.80007278  0.50891291  1
  Ti  Ti127  1  0.09859927  0.69261785  0.62274034  1
  Ti  Ti128  1  0.30003707  0.70327886  0.63275199  1
  Ti  Ti129  1  0.28907205  0.70672967  0.11501001  1
  Ti  Ti130  1  0.00574610  0.38967640  0.25468485  1
  Ti  Ti131  1  0.01660384  0.20216097  0.00569276  1
  Ti  Ti132  1  0.19195304  0.58631009  0.00199556  1
  Ti  Ti133  1  0.89951144  0.09336560  0.88859164  1
  Ti  Ti134  1  0.31034878  0.51851485  0.13883538  1
  Ti  Ti135  1  0.50161807  0.29639519  0.37478591  1
  Ti  Ti136  1  0.79596149  0.61074610  0.25717753  1
  Ti  Ti137  1  0.69109926  0.69852747  0.11849574  1
  Ti  Ti138  1  0.90568785  0.09696769  0.10323052  1
  Ti  Ti139  1  0.30744970  0.89650263  0.10760658  1
  Ti  Ti140  1  -0.00849579  -0.00516201  0.76910827  1
  Ti  Ti141  1  0.50697639  0.91434493  0.87288596  1
  Ti  Ti142  1  0.40055386  -0.00803879  -0.01335146  1
  Ti  Ti143  1  0.88050905  0.10859184  0.63157887  1
  Ti  Ti144  1  -0.00021186  0.60925377  0.74302914  1
  Ti  Ti145  1  0.70302325  0.10171047  0.37452576  1
  Ti  Ti146  1  0.79654989  0.61152150  0.73834850  1
  Ti  Ti147  1  0.09918127  0.30199612  0.62142335  1
  Ti  Ti148  1  0.19898048  -0.00909054  0.76967814  1
  Ti  Ti149  1  0.29287373  0.10254332  0.88540324  1
  Ti  Ti150  1  0.30608071  0.09118769  0.62474275  1
  Ti  Ti151  1  0.78610940  0.79890051  0.24740636  1
  Ti  Ti152  1  0.21901122  0.79491537  -0.02636084  1
  Ti  Ti153  1  0.59145732  0.80211698  0.24646869  1
  Ti  Ti154  1  0.67448977  0.09069715  0.88609388  1
  Ti  Ti155  1  0.02306434  -0.00268766  0.23206647  1
  Ti  Ti156  1  0.50069341  0.49042460  0.37062639  1
  Ti  Ti157  1  0.79631907  0.61509377  0.50937552  1
  Ti  Ti158  1  0.59329014  0.20459067  -0.00162686  1
  Ti  Ti159  1  0.89519161  0.91979176  0.63537255  1
  Mo  Mo160  1  0.40224195  0.61648962  0.50530042  1
  Mo  Mo161  1  0.59676217  0.00394548  0.75345996  1
  Mo  Mo162  1  0.89316874  0.69694653  0.86878242  1
  Mo  Mo163  1  0.20231657  0.18358727  0.01797228  1
  Mo  Mo164  1  0.31354166  0.28902391  0.13458242  1
  Mo  Mo165  1  0.09621399  0.89573802  0.88178875  1
  Mo  Mo166  1  0.30478697  0.90558142  0.86808795  1
  Mo  Mo167  1  0.20489975  0.40608964  0.50345127  1
  Mo  Mo168  1  0.69704626  0.30340299  0.87951990  1
  Mo  Mo169  1  -0.00177075  0.60351192  0.00790273  1
  Mo  Mo170  1  0.59466793  0.00025757  0.00399229  1
  Mo  Mo171  1  0.79196266  0.79759652  0.00551072  1
  Mo  Mo172  1  0.21636230  0.63041335  0.23938799  1
  Mo  Mo173  1  0.10260544  0.49226540  0.87572317  1
  Mo  Mo174  1  0.30018140  0.07663389  0.10941322  1
  Mo  Mo175  1  0.30731588  0.71669842  0.37418442  1
  Mo  Mo176  1  0.39671119  0.80775771  -0.01747214  1
  Mo  Mo177  1  0.21027521  -0.01089972  -0.02211043  1
  Mo  Mo178  1  0.60338531  0.59963044  0.00946054  1
  Mo  Mo179  1  0.49434010  0.10004452  0.88914215  1
  Mo  Mo180  1  0.59077698  0.59723742  0.73754652  1
  Mo  Mo181  1  0.51304315  0.29760941  0.12865565  1
  Mo  Mo182  1  0.09176727  0.89999842  0.36978166  1
  Mo  Mo183  1  0.69789142  0.69962834  0.61814492  1
  Mo  Mo184  1  0.42258706  0.41254982  0.49058535  1
  Mo  Mo185  1  0.78906954  0.02098578  0.50353792  1
  Mo  Mo186  1  0.80342211  0.19404319  0.50580906  1
  Mo  Mo187  1  0.31079339  0.29179887  0.88108177  1
  Mo  Mo188  1  0.89865249  0.50491927  0.37730976  1
  Mo  Mo189  1  -0.00617319  -0.00104713  -0.01350734  1
  Mo  Mo190  1  0.70011185  0.91196651  0.62945052  1
  Mo  Mo191  1  0.09534718  0.08763940  0.09718709  1
  Mo  Mo192  1  0.60431777  0.39308741  0.75141178  1
  Mo  Mo193  1  0.30054977  0.69040746  0.87858763  1
  Mo  Mo194  1  0.41311500  0.19412526  0.49507702  1
  Mo  Mo195  1  0.49830452  0.50054036  0.87873981  1
  Mo  Mo196  1  0.09541083  0.29554093  0.12720094  1
  Mo  Mo197  1  0.40044178  0.60497816  0.24068483  1
  Mo  Mo198  1  0.20235927  -0.01110426  0.23478242  1
  Mo  Mo199  1  0.51316079  0.29995867  0.61866245  1
