# generated using pymatgen
data_HfZrTaTiMo
_symmetry_space_group_name_H-M   'P 1'
_cell_length_a   15.21663982
_cell_length_b   15.21355504
_cell_length_c   16.85571470
_cell_angle_alpha   89.97819967
_cell_angle_beta   90.03588338
_cell_angle_gamma   90.04202038
_symmetry_Int_Tables_number   1
_chemical_formula_structural   HfZrTaTiMo
_chemical_formula_sum   'Hf40 Zr40 Ta40 Ti40 Mo40'
_cell_volume   3902.08215805
_cell_formula_units_Z   40
loop_
 _symmetry_equiv_pos_site_id
 _symmetry_equiv_pos_as_xyz
  1  'x, y, z'
loop_
 _atom_site_type_symbol
 _atom_site_label
 _atom_site_symmetry_multiplicity
 _atom_site_fract_x
 _atom_site_fract_y
 _atom_site_fract_z
 _atom_site_occupancy
  Hf  Hf0  1  0.39023774  0.59413408  0.76808633  1
  Hf  Hf1  1  0.18954288  0.61245814  0.76223318  1
  Hf  Hf2  1  0.88157729  0.70930198  0.13765644  1
  Hf  Hf3  1  0.40567429  0.82485451  -0.00318156  1
  Hf  Hf4  1  0.81922593  0.19379157  0.49262969  1
  Hf  Hf5  1  0.40269316  0.59443500  -0.01483633  1
  Hf  Hf6  1  0.51703811  0.70551330  0.12137291  1
  Hf  Hf7  1  0.61478512  0.60742839  -0.00563167  1
  Hf  Hf8  1  -0.01482065  0.01147488  0.48460106  1
  Hf  Hf9  1  0.49737748  0.10354516  0.36283841  1
  Hf  Hf10  1  0.10003093  0.70605545  0.62236908  1
  Hf  Hf11  1  0.37724124  0.00724965  0.24136480  1
  Hf  Hf12  1  0.89943810  0.70608240  0.35980052  1
  Hf  Hf13  1  0.19972269  0.80057135  0.49329235  1
  Hf  Hf14  1  0.40626081  0.19258633  0.01054869  1
  Hf  Hf15  1  0.08620838  0.08855137  0.12327612  1
  Hf  Hf16  1  0.29517579  0.50748264  0.12138666  1
  Hf  Hf17  1  0.21645196  0.40186401  0.49475326  1
  Hf  Hf18  1  0.91362142  0.09993199  0.87934660  1
  Hf  Hf19  1  0.50068366  0.69879513  0.38305206  1
  Hf  Hf20  1  0.69471131  0.09168515  0.12849461  1
  Hf  Hf21  1  0.20881949  -0.00925066  0.01424643  1
  Hf  Hf22  1  0.60853404  0.79505186  0.51623723  1
  Hf  Hf23  1  0.50450068  0.90829275  0.13155261  1
  Hf  Hf24  1  0.60709109  -0.00191940  0.50008246  1
  Hf  Hf25  1  0.20770753  0.41317132  0.76730964  1
  Hf  Hf26  1  -0.00238202  0.21118886  0.00349361  1
  Hf  Hf27  1  0.18475899  0.39613603  0.24082922  1
  Hf  Hf28  1  0.59529232  0.58537846  0.51503695  1
  Hf  Hf29  1  0.19396765  0.40036755  -0.00423001  1
  Hf  Hf30  1  0.29915658  0.88558761  0.62304249  1
  Hf  Hf31  1  0.30198676  0.69089955  0.36873579  1
  Hf  Hf32  1  0.10163528  0.50162221  0.37338773  1
  Hf  Hf33  1  0.39647644  0.79403136  0.24074944  1
  Hf  Hf34  1  0.60852113  0.20107420  0.00443984  1
  Hf  Hf35  1  0.00897996  0.60033784  0.24222396  1
  Hf  Hf36  1  0.09508642  0.91372670  0.61941077  1
  Hf  Hf37  1  0.51170996  0.10612546  0.63466228  1
  Hf  Hf38  1  0.29630736  0.70462682  0.10719789  1
  Hf  Hf39  1  0.59907913  -0.02128200  -0.00997846  1
  Zr  Zr40  1  0.09025913  0.30251675  0.87247356  1
  Zr  Zr41  1  0.80965596  0.59733898  -0.00628476  1
  Zr  Zr42  1  0.61524002  0.19384225  0.49613104  1
  Zr  Zr43  1  0.18518320  0.79654944  0.23789033  1
  Zr  Zr44  1  0.70554842  0.27999644  0.64062542  1
  Zr  Zr45  1  0.10907777  0.30120985  0.62681346  1
  Zr  Zr46  1  0.39533993  -0.00195541  0.49870058  1
  Zr  Zr47  1  0.78573796  0.59553963  0.48096136  1
  Zr  Zr48  1  0.70537527  0.10106724  0.86619289  1
  Zr  Zr49  1  -0.01026406  0.39644665  0.49863111  1
  Zr  Zr50  1  0.40154652  0.20792725  0.49720863  1
  Zr  Zr51  1  0.88166230  0.51240888  0.62709078  1
  Zr  Zr52  1  0.50750067  0.30604291  0.36432676  1
  Zr  Zr53  1  -0.00788929  0.61090626  0.49640639  1
  Zr  Zr54  1  0.80527384  -0.00096698  -0.00158243  1
  Zr  Zr55  1  0.09938665  0.50155392  0.62597016  1
  Zr  Zr56  1  0.29113859  0.09719696  0.62164841  1
  Zr  Zr57  1  0.30523841  0.30344639  0.62992784  1
  Zr  Zr58  1  0.90870487  0.29397168  0.63671027  1
  Zr  Zr59  1  0.80943003  0.80188782  0.50759063  1
  Zr  Zr60  1  0.77647148  0.79740157  -0.01424159  1
  Zr  Zr61  1  0.70571962  0.87843682  0.13206559  1
  Zr  Zr62  1  0.09063782  0.11282933  0.61444570  1
  Zr  Zr63  1  0.00582710  0.80416785  0.75393175  1
  Zr  Zr64  1  0.31285164  0.29901693  0.88161558  1
  Zr  Zr65  1  0.60680342  0.39684290  0.00850474  1
  Zr  Zr66  1  0.50268861  0.89355527  0.37305503  1
  Zr  Zr67  1  0.80434572  0.19153261  0.24670928  1
  Zr  Zr68  1  0.80718768  0.39398995  0.00522618  1
  Zr  Zr69  1  0.47078902  0.69844249  0.62274436  1
  Zr  Zr70  1  0.49640830  0.09566429  0.87136413  1
  Zr  Zr71  1  0.29014351  0.90147991  0.37293260  1
  Zr  Zr72  1  0.30499262  0.30302002  0.12089420  1
  Zr  Zr73  1  0.60148373  0.39657333  0.50598933  1
  Zr  Zr74  1  0.28080321  0.70974878  0.89642912  1
  Zr  Zr75  1  0.38966862  0.79985567  0.76166772  1
  Zr  Zr76  1  0.19935589  0.18246564  0.24167589  1
  Zr  Zr77  1  0.50196600  0.50505473  0.13231004  1
  Zr  Zr78  1  0.60085586  0.58747761  0.73444729  1
  Zr  Zr79  1  0.10069949  0.28121973  0.38117379  1
  Ta  Ta80  1  0.89995077  0.89531086  0.87545059  1
  Ta  Ta81  1  0.61831980  0.61553272  0.25894119  1
  Ta  Ta82  1  0.19759265  0.19286955  0.00429814  1
  Ta  Ta83  1  0.61087178  -0.00644633  0.25896482  1
  Ta  Ta84  1  0.70372891  0.49549287  0.86631239  1
  Ta  Ta85  1  0.70824193  0.29947530  0.36271132  1
  Ta  Ta86  1  0.49963473  0.90348884  0.63163807  1
  Ta  Ta87  1  0.09942298  0.70649889  0.37313355  1
  Ta  Ta88  1  0.20365583  0.60071115  0.49844811  1
  Ta  Ta89  1  0.80515046  0.40899494  0.25103633  1
  Ta  Ta90  1  0.70898247  0.90724754  0.63658682  1
  Ta  Ta91  1  0.39803984  0.40559889  0.24881711  1
  Ta  Ta92  1  0.79199039  0.39460474  0.49002399  1
  Ta  Ta93  1  0.92043662  0.31066983  0.13990514  1
  Ta  Ta94  1  0.81149955  0.79236429  0.74110051  1
  Ta  Ta95  1  0.39091604  0.59156217  0.49899539  1
  Ta  Ta96  1  0.30404422  0.29856967  0.36635417  1
  Ta  Ta97  1  0.20030576  0.18963278  0.76228819  1
  Ta  Ta98  1  -0.01244726  0.60684232  0.75334388  1
  Ta  Ta99  1  0.70231049  0.29796655  0.86217698  1
  Ta  Ta100  1  0.50974846  0.49115394  0.87535719  1
  Ta  Ta101  1  0.09755076  0.90650505  0.89048485  1
  Ta  Ta102  1  0.79966097  0.40806288  0.75264230  1
  Ta  Ta103  1  0.30646272  0.51022625  0.62924997  1
  Ta  Ta104  1  0.00696818  0.00234207  0.75500714  1
  Ta  Ta105  1  0.29707818  0.09581626  0.88067866  1
  Ta  Ta106  1  0.60456631  0.79606140  0.73465618  1
  Ta  Ta107  1  0.40110108  0.19982614  0.75334538  1
  Ta  Ta108  1  0.71042966  0.51558060  0.13720267  1
  Ta  Ta109  1  0.39879092  0.20384864  0.24319529  1
  Ta  Ta110  1  0.79505402  -0.00073246  0.50117814  1
  Ta  Ta111  1  0.39379405  0.00129364  0.74787694  1
  Ta  Ta112  1  0.40979593  0.40321039  0.75626958  1
  Ta  Ta113  1  0.19609698  -0.00079762  0.75876159  1
  Ta  Ta114  1  0.49908036  0.50827474  0.36248903  1
  Ta  Ta115  1  0.60982692  0.40635575  0.24831547  1
  Ta  Ta116  1  0.90815580  0.29800469  0.35882266  1
  Ta  Ta117  1  0.51258016  0.70464639  0.87273096  1
  Ta  Ta118  1  0.89163709  0.30148313  0.86460210  1
  Ta  Ta119  1  0.81304624  -0.00693763  0.75204807  1
  Ti  Ti120  1  0.90617655  0.49868864  0.87584066  1
  Ti  Ti121  1  0.08413823  0.49027122  0.10977027  1
  Ti  Ti122  1  0.09246137  0.69482279  0.10433118  1
  Ti  Ti123  1  0.89077776  0.09331771  0.63320934  1
  Ti  Ti124  1  -0.01176523  0.80711252  0.00584923  1
  Ti  Ti125  1  0.19549609  0.81036803  0.75803474  1
  Ti  Ti126  1  0.72381679  0.68128038  0.63407324  1
  Ti  Ti127  1  0.30162300  0.91219310  0.87861175  1
  Ti  Ti128  1  0.41053096  0.39919073  -0.00310624  1
  Ti  Ti129  1  0.80091086  0.20658712  0.00688021  1
  Ti  Ti130  1  0.70723143  0.30154379  0.13936363  1
  Ti  Ti131  1  0.18711747  0.00972432  0.47910192  1
  Ti  Ti132  1  0.50206906  0.10273146  0.13724713  1
  Ti  Ti133  1  -0.00188678  0.81265627  0.49444000  1
  Ti  Ti134  1  0.89887263  0.10328171  0.12389501  1
  Ti  Ti135  1  -0.00102964  0.81798204  0.24828725  1
  Ti  Ti136  1  0.90318291  0.50454514  0.13051892  1
  Ti  Ti137  1  -0.00321729  0.01264626  0.26449937  1
  Ti  Ti138  1  0.49993720  0.30166066  0.63282962  1
  Ti  Ti139  1  0.59951753  0.39532222  0.74327272  1
  Ti  Ti140  1  0.51315722  0.29638458  0.86926884  1
  Ti  Ti141  1  0.60619534  0.00010099  0.74760178  1
  Ti  Ti142  1  0.70858139  0.09262929  0.36665818  1
  Ti  Ti143  1  0.40835048  0.40972888  0.49641164  1
  Ti  Ti144  1  0.90297693  0.69696770  0.87676329  1
  Ti  Ti145  1  0.00101569  0.41109537  0.75340277  1
  Ti  Ti146  1  0.76666286  0.78950236  0.26889864  1
  Ti  Ti147  1  0.91240585  0.91376612  0.12688253  1
  Ti  Ti148  1  0.09068391  0.51704395  0.89255838  1
  Ti  Ti149  1  0.51263385  0.29737917  0.14098031  1
  Ti  Ti150  1  0.30573897  0.49960158  0.36326748  1
  Ti  Ti151  1  0.20428144  0.60104157  0.24326904  1
  Ti  Ti152  1  0.00360950  0.19281236  0.75711465  1
  Ti  Ti153  1  0.89625418  0.49562501  0.36559806  1
  Ti  Ti154  1  0.70122801  0.70045794  0.85514118  1
  Ti  Ti155  1  0.08696384  0.70589586  0.89792614  1
  Ti  Ti156  1  0.89017459  0.90544215  0.36859267  1
  Ti  Ti157  1  0.18266161  -0.01412968  0.24488683  1
  Ti  Ti158  1  0.80535979  -0.01019313  0.25295013  1
  Ti  Ti159  1  0.51036913  0.89604926  0.85898752  1
  Mo  Mo160  1  -0.00224076  -0.00384590  0.00016410  1
  Mo  Mo161  1  0.29488597  0.89979901  0.12900066  1
  Mo  Mo162  1  0.00348337  0.20034886  0.24077973  1
  Mo  Mo163  1  0.70252408  0.48859267  0.63240857  1
  Mo  Mo164  1  0.69884993  0.89028413  0.84431796  1
  Mo  Mo165  1  0.89896401  0.10364940  0.36557998  1
  Mo  Mo166  1  -0.01053815  0.40871370  -0.00153632  1
  Mo  Mo167  1  0.18812730  0.59683733  -0.00055299  1
  Mo  Mo168  1  0.90568551  0.70677871  0.62524831  1
  Mo  Mo169  1  0.00053609  0.40429004  0.25216559  1
  Mo  Mo170  1  0.71050629  0.08919854  0.63511176  1
  Mo  Mo171  1  0.90400349  0.90819662  0.62720184  1
  Mo  Mo172  1  0.80648693  0.60135571  0.76273012  1
  Mo  Mo173  1  0.30224426  0.09808517  0.12006334  1
  Mo  Mo174  1  0.48755089  0.48508965  0.62876854  1
  Mo  Mo175  1  0.80191638  0.59869566  0.26346254  1
  Mo  Mo176  1  0.70509113  0.90201084  0.37682055  1
  Mo  Mo177  1  0.59547591  0.20266072  0.75423339  1
  Mo  Mo178  1  0.59926162  0.79795802  -0.01446516  1
  Mo  Mo179  1  0.80925087  0.19391295  0.75549200  1
  Mo  Mo180  1  0.39709036  0.79113138  0.50502879  1
  Mo  Mo181  1  0.40202050  0.00872895  0.01346468  1
  Mo  Mo182  1  0.08278302  0.89506797  0.37227883  1
  Mo  Mo183  1  0.09838486  0.09216072  0.36852474  1
  Mo  Mo184  1  0.10793809  0.09641661  0.88043776  1
  Mo  Mo185  1  0.18687037  0.80380457  0.00567776  1
  Mo  Mo186  1  0.69106904  0.70123454  0.38567799  1
  Mo  Mo187  1  0.30231895  0.49746945  0.88391291  1
  Mo  Mo188  1  0.69315481  0.49044707  0.36786310  1
  Mo  Mo189  1  -0.00233535  0.19891765  0.49577893  1
  Mo  Mo190  1  0.28554175  0.69175546  0.62589959  1
  Mo  Mo191  1  -0.00809213  0.60480345  0.00773586  1
  Mo  Mo192  1  0.70102820  0.69572491  0.12946111  1
  Mo  Mo193  1  0.08551190  0.89096406  0.11839894  1
  Mo  Mo194  1  0.40059078  0.59711633  0.24766862  1
  Mo  Mo195  1  0.09803459  0.30011128  0.11794397  1
  Mo  Mo196  1  0.60191613  0.19887344  0.24593684  1
  Mo  Mo197  1  0.28961135  0.11215925  0.37523133  1
  Mo  Mo198  1  0.59513825  0.80293264  0.25824263  1
  Mo  Mo199  1  0.20706929  0.19456785  0.48603398  1
