# generated using pymatgen
data_HfZrTaTiMo
_symmetry_space_group_name_H-M   'P 1'
_cell_length_a   15.21393738
_cell_length_b   15.21349715
_cell_length_c   16.85079390
_cell_angle_alpha   89.98098898
_cell_angle_beta   89.99024388
_cell_angle_gamma   89.86517204
_symmetry_Int_Tables_number   1
_chemical_formula_structural   HfZrTaTiMo
_chemical_formula_sum   'Hf40 Zr40 Ta40 Ti40 Mo40'
_cell_volume   3900.22638538
_cell_formula_units_Z   40
loop_
 _symmetry_equiv_pos_site_id
 _symmetry_equiv_pos_as_xyz
  1  'x, y, z'
loop_
 _atom_site_type_symbol
 _atom_site_label
 _atom_site_symmetry_multiplicity
 _atom_site_fract_x
 _atom_site_fract_y
 _atom_site_fract_z
 _atom_site_occupancy
  Hf  Hf0  1  0.89467779  0.29836420  0.63189555  1
  Hf  Hf1  1  0.68998725  0.68474953  0.36906824  1
  Hf  Hf2  1  0.71422864  0.08620030  0.35897070  1
  Hf  Hf3  1  0.50180466  0.29942033  0.88387382  1
  Hf  Hf4  1  0.49133210  0.90188464  0.63156490  1
  Hf  Hf5  1  0.39995614  -0.00176049  -0.00285039  1
  Hf  Hf6  1  0.38696375  0.60346273  0.75828363  1
  Hf  Hf7  1  0.80083899  0.79268796  0.01066984  1
  Hf  Hf8  1  0.68899010  0.89174516  0.36659794  1
  Hf  Hf9  1  0.40688974  0.20941157  0.25221025  1
  Hf  Hf10  1  0.20086949  0.82579429  0.75707910  1
  Hf  Hf11  1  0.18126337  0.41943269  0.49475520  1
  Hf  Hf12  1  0.91260109  0.90592776  0.13526402  1
  Hf  Hf13  1  0.08774969  0.50182434  0.11648770  1
  Hf  Hf14  1  0.91932804  0.67844037  0.63460462  1
  Hf  Hf15  1  0.61641385  0.20195931  0.24598963  1
  Hf  Hf16  1  0.80651833  0.17456158  0.49643652  1
  Hf  Hf17  1  0.09372663  0.51309241  0.89387754  1
  Hf  Hf18  1  0.09934815  0.30913748  0.87765904  1
  Hf  Hf19  1  0.00405521  0.57072881  0.49669019  1
  Hf  Hf20  1  0.10259958  0.90371145  0.38007790  1
  Hf  Hf21  1  0.19802324  0.20760180  0.24442422  1
  Hf  Hf22  1  0.60873242  0.40784264  0.25022565  1
  Hf  Hf23  1  0.08308339  0.09007056  0.13334607  1
  Hf  Hf24  1  0.70392373  0.09381340  0.85245000  1
  Hf  Hf25  1  0.20108014  0.39634785  0.01677868  1
  Hf  Hf26  1  0.30211870  0.30211894  0.61255226  1
  Hf  Hf27  1  0.01224129  0.79231050  0.24840587  1
  Hf  Hf28  1  0.39944576  0.79850998  0.76436858  1
  Hf  Hf29  1  0.59579398  0.59519699  0.51232904  1
  Hf  Hf30  1  0.39717574  0.42048165  0.50141437  1
  Hf  Hf31  1  0.59044158  0.38790553  0.50279891  1
  Hf  Hf32  1  0.30313873  0.31288346  0.37962691  1
  Hf  Hf33  1  0.59126580  0.78874152  0.51152141  1
  Hf  Hf34  1  0.70678461  0.09459582  0.64177416  1
  Hf  Hf35  1  0.50090593  0.10693222  0.86820020  1
  Hf  Hf36  1  0.29607384  0.72352428  0.62840022  1
  Hf  Hf37  1  0.42880354  0.21016092  0.49348176  1
  Hf  Hf38  1  -0.01548426  0.19549047  -0.00086674  1
  Hf  Hf39  1  0.79791269  0.78360472  0.24188688  1
  Zr  Zr40  1  0.90652592  0.09187678  0.64512143  1
  Zr  Zr41  1  0.37453084  0.00863579  0.74757852  1
  Zr  Zr42  1  0.20591134  -0.00729809  0.25030621  1
  Zr  Zr43  1  0.60608223  0.00785949  0.50131370  1
  Zr  Zr44  1  0.09422872  0.31343239  0.62171481  1
  Zr  Zr45  1  0.89172748  0.90382912  0.36519596  1
  Zr  Zr46  1  0.39304800  0.62012579  0.50385626  1
  Zr  Zr47  1  0.70235837  0.89696476  0.63918356  1
  Zr  Zr48  1  0.19028540  0.41122404  0.75198251  1
  Zr  Zr49  1  0.79782989  0.79365783  0.50165133  1
  Zr  Zr50  1  0.60435029  0.40174431  0.74151339  1
  Zr  Zr51  1  0.89357894  0.29355487  0.86473108  1
  Zr  Zr52  1  0.39297077  0.39973812  0.74474107  1
  Zr  Zr53  1  0.01551506  0.19937586  0.74910920  1
  Zr  Zr54  1  0.30774682  0.09501606  0.38426868  1
  Zr  Zr55  1  0.80200912  0.59546494  0.50685931  1
  Zr  Zr56  1  0.80199151  0.01039138  0.00005757  1
  Zr  Zr57  1  0.50051284  0.50006364  0.87536197  1
  Zr  Zr58  1  0.69158944  0.90640416  0.14228044  1
  Zr  Zr59  1  0.41951098  0.80091323  -0.02159783  1
  Zr  Zr60  1  0.39677541  0.40421820  0.01260376  1
  Zr  Zr61  1  0.79466629  0.59255095  0.75033135  1
  Zr  Zr62  1  0.10330995  0.88537778  0.60949279  1
  Zr  Zr63  1  -0.01121191  0.01317698  0.49603484  1
  Zr  Zr64  1  0.88137684  0.49174697  0.12078185  1
  Zr  Zr65  1  0.10705902  0.09716614  0.87662931  1
  Zr  Zr66  1  0.29163093  0.53058513  0.36315153  1
  Zr  Zr67  1  0.30375502  0.72123302  0.11430691  1
  Zr  Zr68  1  0.51298473  0.08363316  0.13339386  1
  Zr  Zr69  1  0.62196624  0.18936727  0.00748410  1
  Zr  Zr70  1  -0.02666766  0.61617970  0.01174765  1
  Zr  Zr71  1  0.00315723  0.77589976  0.48953197  1
  Zr  Zr72  1  0.40435474  0.41588788  0.24036671  1
  Zr  Zr73  1  0.19807349  0.20083323  0.01926965  1
  Zr  Zr74  1  0.51520957  0.30940665  0.11826465  1
  Zr  Zr75  1  0.90291202  0.89190768  0.63050275  1
  Zr  Zr76  1  0.19916138  0.40291171  0.23645972  1
  Zr  Zr77  1  0.52217762  0.90501059  0.85423214  1
  Zr  Zr78  1  0.80777714  0.39315326  0.50063177  1
  Zr  Zr79  1  0.60596743  -0.02078843  -0.00284036  1
  Ta  Ta80  1  0.78453485  0.58198097  0.24577190  1
  Ta  Ta81  1  0.21842367  0.19564720  0.74409805  1
  Ta  Ta82  1  0.01962663  -0.02165198  0.75467424  1
  Ta  Ta83  1  0.49060266  0.87987848  0.12788656  1
  Ta  Ta84  1  -0.00491553  0.39290647  0.24901977  1
  Ta  Ta85  1  0.27614792  0.51854611  0.62688922  1
  Ta  Ta86  1  0.50426572  0.50940229  0.37083131  1
  Ta  Ta87  1  0.90759824  0.29683912  0.12420925  1
  Ta  Ta88  1  0.20766810  0.79674298  0.25539577  1
  Ta  Ta89  1  0.69998722  0.49101260  0.37831405  1
  Ta  Ta90  1  0.51008877  0.52874058  0.12003643  1
  Ta  Ta91  1  0.01290550  0.77879890  0.75676835  1
  Ta  Ta92  1  0.10803766  0.89690607  0.89147469  1
  Ta  Ta93  1  0.40305658  0.20748952  0.74281351  1
  Ta  Ta94  1  0.91248234  0.88640719  0.87442182  1
  Ta  Ta95  1  0.19770048  0.20032453  0.49594603  1
  Ta  Ta96  1  0.17762687  0.62024245  0.75392523  1
  Ta  Ta97  1  0.11414741  0.88911036  0.11635503  1
  Ta  Ta98  1  0.89733470  0.49272905  0.88353881  1
  Ta  Ta99  1  0.39760035  0.19983951  0.01170300  1
  Ta  Ta100  1  0.57697005  0.78682912  0.25193534  1
  Ta  Ta101  1  0.88270812  0.10648386  0.14183465  1
  Ta  Ta102  1  0.49139555  0.50862895  0.63251349  1
  Ta  Ta103  1  0.50033723  0.10827106  0.62744207  1
  Ta  Ta104  1  -0.00027383  -0.00517459  -0.00100608  1
  Ta  Ta105  1  0.09037237  0.71065933  0.89804781  1
  Ta  Ta106  1  0.39716246  0.60473138  -0.00936311  1
  Ta  Ta107  1  0.70390924  0.49730093  0.88124921  1
  Ta  Ta108  1  0.30111417  0.29556244  0.87791033  1
  Ta  Ta109  1  0.89663517  0.49092050  0.36258918  1
  Ta  Ta110  1  0.67759232  0.68625717  0.12901600  1
  Ta  Ta111  1  0.30043856  0.10754840  0.88113638  1
  Ta  Ta112  1  0.28142501  0.70179293  0.88690247  1
  Ta  Ta113  1  0.12400229  0.08998828  0.62130946  1
  Ta  Ta114  1  0.30758832  0.09701977  0.13146605  1
  Ta  Ta115  1  0.29014187  0.93212601  0.59858632  1
  Ta  Ta116  1  0.20810689  -0.00275557  0.01007200  1
  Ta  Ta117  1  0.89974852  0.08606072  0.85779552  1
  Ta  Ta118  1  0.70116098  0.29775943  0.87411910  1
  Ta  Ta119  1  0.89972081  0.68044464  0.36198049  1
  Ti  Ti120  1  0.90835526  0.09724545  0.35135392  1
  Ti  Ti121  1  0.19189816  0.61296977  0.50336470  1
  Ti  Ti122  1  0.48827027  0.70408019  0.37620862  1
  Ti  Ti123  1  0.79846616  0.38458408  0.25400083  1
  Ti  Ti124  1  0.71611646  0.88878903  0.86229779  1
  Ti  Ti125  1  0.51420755  0.10316977  0.37142097  1
  Ti  Ti126  1  0.60883121  0.40712635  -0.00111163  1
  Ti  Ti127  1  0.09998720  0.70619137  0.10762942  1
  Ti  Ti128  1  -0.01072442  0.60035326  0.23706238  1
  Ti  Ti129  1  0.79778592  0.39645363  0.74893495  1
  Ti  Ti130  1  0.59323941  0.61970864  -0.01491044  1
  Ti  Ti131  1  0.72433847  0.28852184  0.12249366  1
  Ti  Ti132  1  0.20766162  0.79313848  0.48637108  1
  Ti  Ti133  1  0.69159729  0.49282711  0.11527544  1
  Ti  Ti134  1  0.77922576  0.60126558  -0.00190350  1
  Ti  Ti135  1  0.90167735  0.29301264  0.37382345  1
  Ti  Ti136  1  0.10667578  0.68827825  0.36839479  1
  Ti  Ti137  1  0.60668965  0.78135670  0.74520480  1
  Ti  Ti138  1  0.39089162  0.80970895  0.25833039  1
  Ti  Ti139  1  0.80385437  0.78654711  0.74989027  1
  Ti  Ti140  1  0.30209767  0.52027450  0.12414087  1
  Ti  Ti141  1  0.59833434  0.60371163  0.75045463  1
  Ti  Ti142  1  0.00117901  0.20565191  0.25072654  1
  Ti  Ti143  1  0.28746260  0.50041255  0.88305474  1
  Ti  Ti144  1  0.80185728  0.38466344  -0.00382252  1
  Ti  Ti145  1  0.70533457  0.49560367  0.62468544  1
  Ti  Ti146  1  0.00522917  0.20660237  0.49866849  1
  Ti  Ti147  1  0.09795505  0.10681799  0.37111099  1
  Ti  Ti148  1  0.40762827  -0.00497963  0.25261272  1
  Ti  Ti149  1  0.09319015  0.30448600  0.37763440  1
  Ti  Ti150  1  0.69602159  0.29010441  0.38266460  1
  Ti  Ti151  1  0.69298846  0.28658130  0.61840539  1
  Ti  Ti152  1  0.40583121  0.62370311  0.24593050  1
  Ti  Ti153  1  0.89178490  0.69483400  0.87374519  1
  Ti  Ti154  1  0.39914833  0.80981861  0.49883912  1
  Ti  Ti155  1  0.30452953  0.90282690  0.38878336  1
  Ti  Ti156  1  0.08874307  0.50088667  0.35533767  1
  Ti  Ti157  1  0.49427675  0.90506489  0.37907270  1
  Ti  Ti158  1  0.19135891  0.61394431  0.23629795  1
  Ti  Ti159  1  0.59856102  0.20822770  0.74548684  1
  Mo  Mo160  1  0.58569713  -0.01035806  0.25847275  1
  Mo  Mo161  1  -0.00298858  0.39177845  0.48534288  1
  Mo  Mo162  1  0.89207011  0.69388098  0.13883522  1
  Mo  Mo163  1  0.90838104  0.48404433  0.63488956  1
  Mo  Mo164  1  0.20679944  0.80775533  -0.00275820  1
  Mo  Mo165  1  0.80046049  0.19566311  -0.00271273  1
  Mo  Mo166  1  0.59449709  0.00258407  0.74120975  1
  Mo  Mo167  1  0.29705474  0.71395697  0.37065136  1
  Mo  Mo168  1  0.08576869  0.51482518  0.63187725  1
  Mo  Mo169  1  0.51068962  0.30985533  0.36811153  1
  Mo  Mo170  1  0.11130225  0.68951776  0.62584687  1
  Mo  Mo171  1  0.29353159  0.91237583  0.87890709  1
  Mo  Mo172  1  0.30490867  0.29598424  0.13070689  1
  Mo  Mo173  1  0.00637615  0.00369052  0.25264863  1
  Mo  Mo174  1  0.59091656  0.59638706  0.25381792  1
  Mo  Mo175  1  0.50339767  0.69564733  0.86709310  1
  Mo  Mo176  1  0.30664498  0.11043668  0.60709304  1
  Mo  Mo177  1  0.19621279  0.01109931  0.74829239  1
  Mo  Mo178  1  0.20495942  0.60234378  0.00667230  1
  Mo  Mo179  1  -0.00246051  0.59678520  0.76822759  1
  Mo  Mo180  1  -0.00515846  0.80788030  0.00695562  1
  Mo  Mo181  1  0.80673662  -0.00252884  0.49645603  1
  Mo  Mo182  1  0.49761812  0.70243544  0.12083355  1
  Mo  Mo183  1  0.70767125  0.09940442  0.14214738  1
  Mo  Mo184  1  0.69585078  0.69100089  0.63353147  1
  Mo  Mo185  1  0.49945833  0.69993962  0.63691886  1
  Mo  Mo186  1  0.30898618  0.90790904  0.12967795  1
  Mo  Mo187  1  0.81072708  -0.01722531  0.76290365  1
  Mo  Mo188  1  0.79235850  0.20497425  0.74811430  1
  Mo  Mo189  1  0.61614400  0.79019782  -0.00441207  1
  Mo  Mo190  1  0.08689951  0.30003549  0.12710781  1
  Mo  Mo191  1  0.81092480  0.21284298  0.25945665  1
  Mo  Mo192  1  0.69901550  0.70248250  0.87491781  1
  Mo  Mo193  1  -0.00716801  0.39571027  0.00152745  1
  Mo  Mo194  1  0.19626723  0.00865807  0.48500270  1
  Mo  Mo195  1  0.79785067  -0.00009828  0.24410206  1
  Mo  Mo196  1  0.61207591  0.19823275  0.49652532  1
  Mo  Mo197  1  -0.01140155  0.41899394  0.75368671  1
  Mo  Mo198  1  0.50481736  0.29976397  0.62780635  1
  Mo  Mo199  1  0.41003084  0.00288382  0.49601347  1
