# generated using pymatgen
data_HfZrTaTiMo
_symmetry_space_group_name_H-M   'P 1'
_cell_length_a   15.21370434
_cell_length_b   15.21083870
_cell_length_c   16.84886837
_cell_angle_alpha   89.94849588
_cell_angle_beta   89.98893834
_cell_angle_gamma   89.87358421
_symmetry_Int_Tables_number   1
_chemical_formula_structural   HfZrTaTiMo
_chemical_formula_sum   'Hf40 Zr40 Ta40 Ti40 Mo40'
_cell_volume   3899.03945571
_cell_formula_units_Z   40
loop_
 _symmetry_equiv_pos_site_id
 _symmetry_equiv_pos_as_xyz
  1  'x, y, z'
loop_
 _atom_site_type_symbol
 _atom_site_label
 _atom_site_symmetry_multiplicity
 _atom_site_fract_x
 _atom_site_fract_y
 _atom_site_fract_z
 _atom_site_occupancy
  Hf  Hf0  1  0.60202482  0.02934677  0.50234794  1
  Hf  Hf1  1  0.70939369  0.50180096  0.38328825  1
  Hf  Hf2  1  0.59693967  0.80785061  0.25520902  1
  Hf  Hf3  1  0.59478243  0.39682209  0.27032114  1
  Hf  Hf4  1  0.19302690  0.41481166  0.25926147  1
  Hf  Hf5  1  0.11526697  0.11318220  0.63422289  1
  Hf  Hf6  1  0.40923439  -0.00286796  0.74800548  1
  Hf  Hf7  1  0.01261117  -0.00706541  0.00803426  1
  Hf  Hf8  1  0.20279999  0.80444864  0.73440707  1
  Hf  Hf9  1  0.31040918  0.89336849  0.87228844  1
  Hf  Hf10  1  0.50086045  0.48427365  0.62152410  1
  Hf  Hf11  1  0.09066298  0.70287067  0.62769283  1
  Hf  Hf12  1  0.87194848  0.09138417  0.62405267  1
  Hf  Hf13  1  0.00104791  0.20355191  0.00234901  1
  Hf  Hf14  1  -0.02723799  0.20771326  0.73907384  1
  Hf  Hf15  1  0.19868215  0.00972438  0.24897841  1
  Hf  Hf16  1  0.60806620  0.00862186  0.24977399  1
  Hf  Hf17  1  0.80479979  0.80649529  0.25229990  1
  Hf  Hf18  1  0.60354820  0.40247511  0.76524390  1
  Hf  Hf19  1  0.80138327  0.58419698  0.00333479  1
  Hf  Hf20  1  0.78215454  0.19313669  0.49334384  1
  Hf  Hf21  1  0.39987951  0.38847478  0.48953767  1
  Hf  Hf22  1  0.38627973  0.80208757  0.00858324  1
  Hf  Hf23  1  0.70664665  0.10599117  0.88346340  1
  Hf  Hf24  1  0.30747845  0.30049182  0.12527949  1
  Hf  Hf25  1  0.31040121  0.09227493  0.37890783  1
  Hf  Hf26  1  0.60014938  0.39693128  -0.01626582  1
  Hf  Hf27  1  0.29929195  0.88496650  0.37611182  1
  Hf  Hf28  1  0.60849066  0.60892846  0.74011538  1
  Hf  Hf29  1  0.69045549  0.68090913  0.88549057  1
  Hf  Hf30  1  0.88679133  0.49383376  0.85560999  1
  Hf  Hf31  1  0.11137614  0.10255919  0.86142690  1
  Hf  Hf32  1  0.09151399  0.30388809  0.86069636  1
  Hf  Hf33  1  0.19588400  0.40258514  0.49872085  1
  Hf  Hf34  1  0.59452859  0.60044846  0.49827278  1
  Hf  Hf35  1  0.58864568  0.80379288  0.00042528  1
  Hf  Hf36  1  -0.00348889  0.20698321  0.51005856  1
  Hf  Hf37  1  -0.00092285  -0.00260486  0.51143754  1
  Hf  Hf38  1  0.59015724  0.81197611  0.74406479  1
  Hf  Hf39  1  0.90865200  0.69399753  0.87752798  1
  Zr  Zr40  1  0.39953969  0.59816450  0.24112655  1
  Zr  Zr41  1  -0.00163291  -0.01056241  0.23664699  1
  Zr  Zr42  1  0.10270430  0.89921659  0.86588704  1
  Zr  Zr43  1  0.90274672  0.48868179  0.64073753  1
  Zr  Zr44  1  0.02132509  0.78326035  0.00140362  1
  Zr  Zr45  1  -0.00025403  0.80585684  0.49865401  1
  Zr  Zr46  1  0.01481380  0.79198164  0.25206842  1
  Zr  Zr47  1  0.10274217  0.31278235  0.64427339  1
  Zr  Zr48  1  0.11203135  0.70727955  0.39010353  1
  Zr  Zr49  1  0.10043166  0.30822422  0.12774594  1
  Zr  Zr50  1  0.91084784  0.68606285  0.12042659  1
  Zr  Zr51  1  0.79391481  0.78757066  0.75425539  1
  Zr  Zr52  1  0.70301730  0.70786557  0.38341430  1
  Zr  Zr53  1  0.00886945  0.58358960  0.26304786  1
  Zr  Zr54  1  0.39784643  0.60446550  0.00332708  1
  Zr  Zr55  1  0.60600578  0.01445509  0.74180502  1
  Zr  Zr56  1  0.69113538  0.90218698  0.88215400  1
  Zr  Zr57  1  0.90986381  0.48183279  0.37944362  1
  Zr  Zr58  1  0.19752810  0.40551118  -0.01377099  1
  Zr  Zr59  1  0.69795184  0.29212086  0.62586934  1
  Zr  Zr60  1  0.09190786  0.51714494  0.10971993  1
  Zr  Zr61  1  0.40590993  -0.00694900  0.24588472  1
  Zr  Zr62  1  0.40195672  0.59779365  0.74528277  1
  Zr  Zr63  1  0.00293857  0.19266351  0.24584211  1
  Zr  Zr64  1  0.89808138  0.07804570  0.37616064  1
  Zr  Zr65  1  0.69552624  0.49543474  0.12783568  1
  Zr  Zr66  1  0.79924115  0.59835166  0.24710785  1
  Zr  Zr67  1  0.90706004  0.09317968  0.87720776  1
  Zr  Zr68  1  0.21198074  0.00558889  0.51448735  1
  Zr  Zr69  1  0.08253012  0.30976129  0.36857078  1
  Zr  Zr70  1  0.70935222  0.50196828  0.61483445  1
  Zr  Zr71  1  0.78461916  0.19040861  0.23818916  1
  Zr  Zr72  1  0.30975655  0.68956117  0.38846153  1
  Zr  Zr73  1  0.20360179  0.61587464  0.25133947  1
  Zr  Zr74  1  0.50250009  0.11241116  0.12176735  1
  Zr  Zr75  1  0.39445515  0.39738543  0.26653314  1
  Zr  Zr76  1  0.49729695  0.48309897  0.12078641  1
  Zr  Zr77  1  0.30525067  0.28503642  0.63316041  1
  Zr  Zr78  1  0.60411654  0.82163200  0.49209613  1
  Zr  Zr79  1  0.79947623  -0.00201207  0.01346191  1
  Ta  Ta80  1  0.79196663  0.20384685  0.01588531  1
  Ta  Ta81  1  0.19178648  0.62815092  -0.01852857  1
  Ta  Ta82  1  0.49391357  0.70968089  0.37813016  1
  Ta  Ta83  1  0.00518064  0.58867990  0.50450574  1
  Ta  Ta84  1  0.59473570  0.20634437  0.76392526  1
  Ta  Ta85  1  0.69392242  0.70191264  0.11932381  1
  Ta  Ta86  1  0.79791611  -0.00501397  0.23504098  1
  Ta  Ta87  1  0.50081470  0.70462672  0.61516449  1
  Ta  Ta88  1  0.29723716  0.49231337  0.63288928  1
  Ta  Ta89  1  0.49763521  0.91445247  0.61236628  1
  Ta  Ta90  1  0.89392301  0.30511497  0.12406420  1
  Ta  Ta91  1  0.29879042  0.29212425  0.86601875  1
  Ta  Ta92  1  0.90217597  0.89450500  0.87349522  1
  Ta  Ta93  1  0.88861870  0.69109449  0.61750616  1
  Ta  Ta94  1  0.90152905  0.88718570  0.63561218  1
  Ta  Ta95  1  0.59592262  0.20412859  -0.00756326  1
  Ta  Ta96  1  0.39980120  0.39416911  -0.01642042  1
  Ta  Ta97  1  0.80121313  0.79500446  0.00078332  1
  Ta  Ta98  1  0.71261800  0.91442708  0.62158936  1
  Ta  Ta99  1  0.09139759  0.51330297  0.86349917  1
  Ta  Ta100  1  0.89920104  0.69270333  0.38755656  1
  Ta  Ta101  1  0.28968561  0.50246874  0.11204133  1
  Ta  Ta102  1  0.10380174  0.50379138  0.64481333  1
  Ta  Ta103  1  0.59424610  0.60562951  0.25871324  1
  Ta  Ta104  1  0.60038285  0.38498625  0.48184461  1
  Ta  Ta105  1  0.40225777  0.20525111  -0.00885119  1
  Ta  Ta106  1  0.39769843  0.79711681  0.73139009  1
  Ta  Ta107  1  0.50986562  0.51674986  0.88121298  1
  Ta  Ta108  1  0.79906108  0.38899070  0.25075721  1
  Ta  Ta109  1  0.11648870  0.10307569  0.11914610  1
  Ta  Ta110  1  0.10246622  0.91538677  0.37766746  1
  Ta  Ta111  1  0.70567488  0.71023835  0.60905457  1
  Ta  Ta112  1  -0.00011820  0.40021800  0.51219377  1
  Ta  Ta113  1  0.20656459  0.60803102  0.75386102  1
  Ta  Ta114  1  0.48602825  0.71626255  0.87150461  1
  Ta  Ta115  1  0.20453609  0.80663517  0.52463985  1
  Ta  Ta116  1  0.28490514  0.28217004  0.37700211  1
  Ta  Ta117  1  0.79472966  0.38898557  -0.00558461  1
  Ta  Ta118  1  0.30666212  0.09646822  0.87893013  1
  Ta  Ta119  1  -0.01484046  0.40588897  -0.01222632  1
  Ti  Ti120  1  0.69411728  0.90023712  0.11752886  1
  Ti  Ti121  1  0.88379840  0.28779469  0.87792329  1
  Ti  Ti122  1  0.49572549  0.91567248  0.38333376  1
  Ti  Ti123  1  0.11584694  0.11687855  0.38451187  1
  Ti  Ti124  1  0.80670960  0.38956139  0.49980186  1
  Ti  Ti125  1  0.40395648  0.19173525  0.75639478  1
  Ti  Ti126  1  0.48855977  0.51162920  0.38072133  1
  Ti  Ti127  1  0.88865155  0.28936197  0.36971516  1
  Ti  Ti128  1  0.39842071  0.19995541  0.25428571  1
  Ti  Ti129  1  0.21037263  0.40774972  0.76121766  1
  Ti  Ti130  1  0.39759474  0.80312989  0.51314231  1
  Ti  Ti131  1  0.20536858  0.19914480  -0.00646959  1
  Ti  Ti132  1  0.80356357  -0.00132734  0.75630241  1
  Ti  Ti133  1  0.30269752  0.51003940  0.87596684  1
  Ti  Ti134  1  0.27645243  0.71167800  0.12301934  1
  Ti  Ti135  1  0.20276958  0.59589940  0.51292856  1
  Ti  Ti136  1  0.40625442  0.18164076  0.50034527  1
  Ti  Ti137  1  0.30063153  0.10492067  0.11918839  1
  Ti  Ti138  1  0.21672786  0.00513190  0.73586862  1
  Ti  Ti139  1  0.90378347  0.09952676  0.12147730  1
  Ti  Ti140  1  0.40841076  -0.00016764  0.00226377  1
  Ti  Ti141  1  0.20946855  -0.00171863  0.00113031  1
  Ti  Ti142  1  0.58793443  0.20928393  0.25680560  1
  Ti  Ti143  1  0.50336254  0.08973535  0.88581874  1
  Ti  Ti144  1  0.00321849  -0.00881398  0.73902324  1
  Ti  Ti145  1  0.29794336  0.90652558  0.12627354  1
  Ti  Ti146  1  0.50615646  0.69714482  0.12719131  1
  Ti  Ti147  1  0.39427549  0.79248418  0.24266010  1
  Ti  Ti148  1  0.90176537  0.88778644  0.11759636  1
  Ti  Ti149  1  0.50286604  0.28824508  0.62496896  1
  Ti  Ti150  1  0.50040974  0.89995277  0.12555214  1
  Ti  Ti151  1  0.80114730  0.37341763  0.75150514  1
  Ti  Ti152  1  0.39346598  0.59391988  0.51146762  1
  Ti  Ti153  1  0.69234556  0.10584532  0.37052491  1
  Ti  Ti154  1  0.90180428  0.48601618  0.12644557  1
  Ti  Ti155  1  0.80800765  0.81658411  0.49210454  1
  Ti  Ti156  1  -0.00466971  0.61218387  0.74744530  1
  Ti  Ti157  1  0.11987655  0.88486955  0.12416211  1
  Ti  Ti158  1  0.67862300  0.29755456  0.12578457  1
  Ti  Ti159  1  0.40755545  0.39510817  0.76782116  1
  Mo  Mo160  1  0.21263029  0.19487084  0.76020051  1
  Mo  Mo161  1  0.30119072  0.70145977  0.86895744  1
  Mo  Mo162  1  0.58882166  0.21160216  0.49167905  1
  Mo  Mo163  1  0.10597892  0.50517637  0.38901254  1
  Mo  Mo164  1  0.49352452  0.29534769  0.87056641  1
  Mo  Mo165  1  0.30778956  0.90136177  0.62525023  1
  Mo  Mo166  1  0.79356251  -0.01091132  0.49750675  1
  Mo  Mo167  1  0.20497975  0.20440982  0.49927677  1
  Mo  Mo168  1  0.49951564  0.10475716  0.36768696  1
  Mo  Mo169  1  -0.00624043  0.80215976  0.74891166  1
  Mo  Mo170  1  0.40887543  -0.00682944  0.49947755  1
  Mo  Mo171  1  0.70580933  0.29638517  0.87591184  1
  Mo  Mo172  1  0.68923419  0.10484035  0.62868436  1
  Mo  Mo173  1  0.89330045  0.29825957  0.62062728  1
  Mo  Mo174  1  0.49129595  0.28337187  0.37852919  1
  Mo  Mo175  1  0.78306261  0.18905018  0.75119206  1
  Mo  Mo176  1  0.21039546  0.20015837  0.24684018  1
  Mo  Mo177  1  0.10758305  0.69886875  0.12304741  1
  Mo  Mo178  1  0.32032727  0.10073256  0.62518061  1
  Mo  Mo179  1  0.20464649  0.81084912  -0.00361534  1
  Mo  Mo180  1  -0.01286472  0.39464195  0.24392475  1
  Mo  Mo181  1  0.49510668  0.90242333  0.87745422  1
  Mo  Mo182  1  0.59087196  0.00388683  0.00673045  1
  Mo  Mo183  1  -0.00091602  0.40263208  0.75974707  1
  Mo  Mo184  1  0.80974567  0.60425756  0.49997187  1
  Mo  Mo185  1  0.10449819  0.70153316  0.85712369  1
  Mo  Mo186  1  0.70129296  0.49612979  0.87130332  1
  Mo  Mo187  1  0.49883748  0.30150180  0.12162056  1
  Mo  Mo188  1  0.69614592  0.10397608  0.11908041  1
  Mo  Mo189  1  0.00220245  0.58774163  -0.01178504  1
  Mo  Mo190  1  0.79278103  0.60127845  0.74481268  1
  Mo  Mo191  1  0.30254765  0.69118959  0.61493557  1
  Mo  Mo192  1  0.09688380  0.90784606  0.63598913  1
  Mo  Mo193  1  0.71663243  0.92011365  0.37274748  1
  Mo  Mo194  1  0.49454635  0.11821102  0.62780582  1
  Mo  Mo195  1  0.70346893  0.29847008  0.37267864  1
  Mo  Mo196  1  0.59514844  0.60491466  0.00171151  1
  Mo  Mo197  1  0.20771762  0.81487531  0.25128119  1
  Mo  Mo198  1  0.90171992  0.89544569  0.37143447  1
  Mo  Mo199  1  0.29738235  0.49801141  0.38793905  1
