# generated using pymatgen
data_HfZrTaTiMo
_symmetry_space_group_name_H-M   'P 1'
_cell_length_a   15.19282646
_cell_length_b   15.18059242
_cell_length_c   16.83572389
_cell_angle_alpha   89.98430585
_cell_angle_beta   90.02599087
_cell_angle_gamma   90.06006263
_symmetry_Int_Tables_number   1
_chemical_formula_structural   HfZrTaTiMo
_chemical_formula_sum   'Hf40 Zr40 Ta40 Ti40 Mo40'
_cell_volume   3882.92312497
_cell_formula_units_Z   40
loop_
 _symmetry_equiv_pos_site_id
 _symmetry_equiv_pos_as_xyz
  1  'x, y, z'
loop_
 _atom_site_type_symbol
 _atom_site_label
 _atom_site_symmetry_multiplicity
 _atom_site_fract_x
 _atom_site_fract_y
 _atom_site_fract_z
 _atom_site_occupancy
  Hf  Hf0  1  0.79763392  0.58984241  0.00764395  1
  Hf  Hf1  1  0.07931094  0.92123662  0.37573282  1
  Hf  Hf2  1  -0.01112545  0.59361534  0.74658120  1
  Hf  Hf3  1  0.09469656  0.28714893  0.36534961  1
  Hf  Hf4  1  0.49214231  0.90347591  0.38904583  1
  Hf  Hf5  1  0.49786131  0.91034067  0.60968578  1
  Hf  Hf6  1  0.60984809  0.40457624  0.75279162  1
  Hf  Hf7  1  0.20025929  0.61002905  0.25183447  1
  Hf  Hf8  1  0.70454314  0.28870252  0.87346398  1
  Hf  Hf9  1  0.00454893  0.21437920  0.01920726  1
  Hf  Hf10  1  0.10834335  0.88544362  0.12505180  1
  Hf  Hf11  1  0.30561672  0.10448277  0.12359591  1
  Hf  Hf12  1  0.49946389  0.69336706  0.61625751  1
  Hf  Hf13  1  0.20358828  0.80348279  -0.02498119  1
  Hf  Hf14  1  0.60932165  -0.01017978  0.75127586  1
  Hf  Hf15  1  0.60225406  0.60892766  0.74749926  1
  Hf  Hf16  1  0.08513248  0.68945620  0.86385521  1
  Hf  Hf17  1  0.39476183  0.39209523  0.50834102  1
  Hf  Hf18  1  0.29958806  0.51357106  0.12184813  1
  Hf  Hf19  1  0.50135206  0.49596698  0.38214091  1
  Hf  Hf20  1  0.68982540  0.69686761  0.35964703  1
  Hf  Hf21  1  0.61001527  0.79182479  0.50628711  1
  Hf  Hf22  1  0.61454242  0.19873089  0.51634956  1
  Hf  Hf23  1  0.09530938  0.49477868  0.37754672  1
  Hf  Hf24  1  0.41159827  0.00724134  0.00557356  1
  Hf  Hf25  1  0.89163027  0.91240139  0.63333049  1
  Hf  Hf26  1  0.09421950  0.69766637  0.38814235  1
  Hf  Hf27  1  0.91726769  0.10165378  0.36834759  1
  Hf  Hf28  1  0.88188608  0.70113190  0.61978954  1
  Hf  Hf29  1  -0.01853321  0.79995334  0.25383120  1
  Hf  Hf30  1  0.79073401  0.59060829  0.75877855  1
  Hf  Hf31  1  0.20855774  0.20089478  0.49799390  1
  Hf  Hf32  1  0.10504091  0.49428558  0.61685537  1
  Hf  Hf33  1  0.09514754  0.90868704  0.64259425  1
  Hf  Hf34  1  0.20821709  0.00357356  -0.00076670  1
  Hf  Hf35  1  0.17616271  0.59736111  -0.00556926  1
  Hf  Hf36  1  0.79977879  0.38115458  0.23761614  1
  Hf  Hf37  1  0.70180456  0.28295647  0.37235173  1
  Hf  Hf38  1  0.89159796  0.90168245  0.87778765  1
  Hf  Hf39  1  0.79818186  0.39704608  0.49611023  1
  Zr  Zr40  1  0.41872995  0.41824081  0.23469482  1
  Zr  Zr41  1  0.50593708  0.72978488  0.87919409  1
  Zr  Zr42  1  0.00324627  0.39178549  0.75130691  1
  Zr  Zr43  1  -0.00736284  0.81203290  0.50033845  1
  Zr  Zr44  1  0.48745850  0.29829463  0.86566332  1
  Zr  Zr45  1  0.60986758  -0.02482788  -0.00744129  1
  Zr  Zr46  1  0.09574865  0.70221508  0.62495929  1
  Zr  Zr47  1  0.88024129  0.89541812  0.11819313  1
  Zr  Zr48  1  0.69300100  0.49234696  0.36328393  1
  Zr  Zr49  1  0.89014629  0.49110108  0.61913174  1
  Zr  Zr50  1  0.80768051  0.59856110  0.24339317  1
  Zr  Zr51  1  0.69212588  0.90826298  0.36491911  1
  Zr  Zr52  1  0.28193317  0.72088305  0.11934698  1
  Zr  Zr53  1  -0.00091665  0.78528906  -0.00298374  1
  Zr  Zr54  1  0.40884340  0.01208612  0.74717998  1
  Zr  Zr55  1  0.20806995  0.79565462  0.76329894  1
  Zr  Zr56  1  0.49891889  0.30004324  0.63498236  1
  Zr  Zr57  1  0.39890467  0.39886719  0.00580763  1
  Zr  Zr58  1  0.38984494  0.61763757  -0.01226613  1
  Zr  Zr59  1  0.48655774  0.69173647  0.38317030  1
  Zr  Zr60  1  0.53398376  0.10030036  0.36979720  1
  Zr  Zr61  1  0.42176267  0.20715069  0.23966376  1
  Zr  Zr62  1  0.10954189  0.12161606  0.87293585  1
  Zr  Zr63  1  0.41563719  -0.01519584  0.23565098  1
  Zr  Zr64  1  0.19411039  0.80573162  0.26661454  1
  Zr  Zr65  1  0.20309792  0.00397325  0.24956797  1
  Zr  Zr66  1  0.39767008  0.60232218  0.75742781  1
  Zr  Zr67  1  0.20193609  0.58172243  0.75284948  1
  Zr  Zr68  1  0.69389884  0.68921263  0.89283089  1
  Zr  Zr69  1  0.31598275  0.09806806  0.37085414  1
  Zr  Zr70  1  0.51697600  0.50736300  0.88714266  1
  Zr  Zr71  1  0.69457595  0.70529526  0.12838891  1
  Zr  Zr72  1  0.89743043  0.11235636  0.88916810  1
  Zr  Zr73  1  0.20468045  0.40248602  0.49489808  1
  Zr  Zr74  1  0.80567216  0.01096795  0.75567212  1
  Zr  Zr75  1  0.29385170  0.90406971  0.62618380  1
  Zr  Zr76  1  0.00815477  -0.00046878  0.00515796  1
  Zr  Zr77  1  0.19589010  0.00394994  0.49551985  1
  Zr  Zr78  1  0.30916006  0.30597109  0.36060276  1
  Zr  Zr79  1  0.68061431  0.48455832  0.13279655  1
  Ta  Ta80  1  0.00098891  0.59823225  0.25244089  1
  Ta  Ta81  1  0.40788354  0.80458617  0.74671069  1
  Ta  Ta82  1  0.38374506  0.79543470  0.50420521  1
  Ta  Ta83  1  0.79676454  0.80880904  0.49333895  1
  Ta  Ta84  1  0.10333802  0.10230130  0.63690469  1
  Ta  Ta85  1  0.10676156  0.29264608  0.62701058  1
  Ta  Ta86  1  0.90068232  0.49588736  0.88603917  1
  Ta  Ta87  1  0.89017239  0.69899484  0.37978704  1
  Ta  Ta88  1  -0.01343866  0.59104275  0.49713656  1
  Ta  Ta89  1  0.60257225  0.18607615  0.74177015  1
  Ta  Ta90  1  0.31198304  0.11825956  0.88351188  1
  Ta  Ta91  1  0.31738085  0.90892009  0.86827654  1
  Ta  Ta92  1  0.57957717  0.80474841  0.24493634  1
  Ta  Ta93  1  0.80621764  -0.00314177  0.25567833  1
  Ta  Ta94  1  0.27580050  0.30336492  0.87768416  1
  Ta  Ta95  1  0.78270509  0.79889964  0.75337209  1
  Ta  Ta96  1  0.71007387  0.08602107  0.11916984  1
  Ta  Ta97  1  -0.00375824  0.38572949  0.49913532  1
  Ta  Ta98  1  0.69073626  0.50958278  0.61656391  1
  Ta  Ta99  1  0.89664680  0.09972964  0.12034633  1
  Ta  Ta100  1  0.19266228  0.20139936  0.23649853  1
  Ta  Ta101  1  0.00957698  0.40540200  0.00817121  1
  Ta  Ta102  1  -0.00241123  0.40000103  0.24032453  1
  Ta  Ta103  1  0.29773371  0.30832558  0.12926603  1
  Ta  Ta104  1  0.81593182  0.19452412  0.50466729  1
  Ta  Ta105  1  -0.00342184  0.19239466  0.74640241  1
  Ta  Ta106  1  0.38744626  0.20363629  0.74636034  1
  Ta  Ta107  1  0.80397901  0.00290435  0.49385734  1
  Ta  Ta108  1  0.90397937  0.29845985  0.37122952  1
  Ta  Ta109  1  0.60738665  0.38081193  0.00056524  1
  Ta  Ta110  1  0.30640877  0.51737693  0.36751786  1
  Ta  Ta111  1  0.50752721  0.10530158  0.87714075  1
  Ta  Ta112  1  0.29446815  0.49090086  0.88176238  1
  Ta  Ta113  1  0.39081175  0.78891438  0.25184511  1
  Ta  Ta114  1  0.00310911  0.00989174  0.23299465  1
  Ta  Ta115  1  0.80712653  0.38736178  0.00949208  1
  Ta  Ta116  1  0.40416901  0.82054783  0.00298768  1
  Ta  Ta117  1  0.19830763  0.40558872  0.24660724  1
  Ta  Ta118  1  0.52753298  0.10725403  0.12162224  1
  Ta  Ta119  1  0.51078662  0.30031430  0.37891613  1
  Ti  Ti120  1  0.41405506  0.19006494  0.50487067  1
  Ti  Ti121  1  0.71745061  0.09460708  0.62692106  1
  Ti  Ti122  1  -0.01545355  0.80345627  0.75418761  1
  Ti  Ti123  1  0.19662352  0.80021481  0.50000751  1
  Ti  Ti124  1  0.61436240  0.00517571  0.51042214  1
  Ti  Ti125  1  0.30181102  0.89464614  0.38552526  1
  Ti  Ti126  1  0.20742360  0.60462031  0.50043164  1
  Ti  Ti127  1  0.80281246  0.20569215  0.74520288  1
  Ti  Ti128  1  0.90707159  0.49743815  0.12179886  1
  Ti  Ti129  1  0.60040706  0.40048712  0.50754315  1
  Ti  Ti130  1  0.90883885  0.30236629  0.87942387  1
  Ti  Ti131  1  0.80319109  0.18926163  0.24145803  1
  Ti  Ti132  1  0.09708720  0.91346977  0.85754575  1
  Ti  Ti133  1  0.49491189  0.49866033  0.62439907  1
  Ti  Ti134  1  0.60249094  0.80361539  0.73439976  1
  Ti  Ti135  1  0.78172472  0.60635938  0.49350615  1
  Ti  Ti136  1  0.89027744  0.69733082  0.87926946  1
  Ti  Ti137  1  0.78988608  0.20191852  0.01154584  1
  Ti  Ti138  1  -0.00111364  0.20415317  0.22934279  1
  Ti  Ti139  1  0.89849028  0.49654243  0.37364328  1
  Ti  Ti140  1  0.68993409  0.90029760  0.14044544  1
  Ti  Ti141  1  0.71086202  0.30608927  0.63146211  1
  Ti  Ti142  1  0.77936342  0.81294074  -0.00497969  1
  Ti  Ti143  1  0.90445483  0.28938179  0.62464998  1
  Ti  Ti144  1  0.49097200  0.69725969  0.11923565  1
  Ti  Ti145  1  0.39064327  0.59173052  0.50854081  1
  Ti  Ti146  1  0.37606765  0.40411397  0.74297636  1
  Ti  Ti147  1  0.80447997  0.39897146  0.75645614  1
  Ti  Ti148  1  0.90805400  0.69368187  0.12116755  1
  Ti  Ti149  1  0.30840142  0.10678910  0.62058158  1
  Ti  Ti150  1  -0.00666763  0.01364722  0.50870542  1
  Ti  Ti151  1  0.70270248  0.09340752  0.88421611  1
  Ti  Ti152  1  0.41135589  0.20877277  0.00897700  1
  Ti  Ti153  1  0.21021104  0.02057160  0.75799846  1
  Ti  Ti154  1  0.29677647  0.69383665  0.62707576  1
  Ti  Ti155  1  0.56951367  0.59210908  0.23938943  1
  Ti  Ti156  1  0.09709235  0.50662525  0.12646030  1
  Ti  Ti157  1  0.19976895  0.21706172  0.01519641  1
  Ti  Ti158  1  0.00815197  0.19556810  0.50440775  1
  Ti  Ti159  1  0.10242728  0.47305019  0.87644222  1
  Mo  Mo160  1  0.69437773  0.88281334  0.87246000  1
  Mo  Mo161  1  0.09704711  0.11087947  0.36602650  1
  Mo  Mo162  1  0.71018372  0.48133190  0.88813231  1
  Mo  Mo163  1  0.30433200  0.89806892  0.12070181  1
  Mo  Mo164  1  0.90755848  0.10796620  0.62412392  1
  Mo  Mo165  1  0.89534672  0.30139999  0.12551492  1
  Mo  Mo166  1  0.30411371  0.50355935  0.62225948  1
  Mo  Mo167  1  0.59251083  0.79493339  0.01837694  1
  Mo  Mo168  1  0.40114157  0.00858714  0.50182557  1
  Mo  Mo169  1  0.51525504  0.30358240  0.11890765  1
  Mo  Mo170  1  0.79443085  0.79881676  0.25475942  1
  Mo  Mo171  1  0.29698818  0.69995416  0.38735004  1
  Mo  Mo172  1  -0.00987776  0.58959841  -0.00268921  1
  Mo  Mo173  1  0.10321702  0.31264903  0.13578899  1
  Mo  Mo174  1  0.60881091  0.00489844  0.24216949  1
  Mo  Mo175  1  0.72026402  0.10034718  0.37840515  1
  Mo  Mo176  1  0.20357019  0.38977765  0.74706539  1
  Mo  Mo177  1  0.70707676  0.89822506  0.61949090  1
  Mo  Mo178  1  0.61971299  0.19987845  0.24496637  1
  Mo  Mo179  1  0.70359394  0.70120966  0.62380103  1
  Mo  Mo180  1  0.80067551  -0.00036415  -0.00037929  1
  Mo  Mo181  1  0.39888562  0.61227696  0.24474794  1
  Mo  Mo182  1  0.29914103  0.70285515  0.87381547  1
  Mo  Mo183  1  0.19511734  0.39855813  0.00803367  1
  Mo  Mo184  1  0.50237461  0.90613677  0.86881517  1
  Mo  Mo185  1  0.59235550  0.38115137  0.24762154  1
  Mo  Mo186  1  0.50653340  0.10254812  0.62300146  1
  Mo  Mo187  1  0.00779870  0.00211695  0.75655948  1
  Mo  Mo188  1  0.59456186  0.59203730  0.01047756  1
  Mo  Mo189  1  0.10362955  0.10311005  0.12406272  1
  Mo  Mo190  1  0.08524006  0.69061919  0.12781570  1
  Mo  Mo191  1  0.50138288  0.50807862  0.10654145  1
  Mo  Mo192  1  0.20562443  0.20660737  0.74408924  1
  Mo  Mo193  1  0.29584081  0.29526953  0.62633049  1
  Mo  Mo194  1  0.09454748  0.29924944  0.87832184  1
  Mo  Mo195  1  0.69284337  0.27640834  0.12269791  1
  Mo  Mo196  1  0.59778319  0.18932959  -0.00767837  1
  Mo  Mo197  1  0.59720919  0.58981539  0.50470475  1
  Mo  Mo198  1  0.50361764  0.89131445  0.12731317  1
  Mo  Mo199  1  0.89259681  0.90365798  0.37186033  1
