# generated using pymatgen
data_HfZrTaTiMo
_symmetry_space_group_name_H-M   'P 1'
_cell_length_a   15.21397450
_cell_length_b   15.21411774
_cell_length_c   16.83872554
_cell_angle_alpha   89.98900163
_cell_angle_beta   90.05027999
_cell_angle_gamma   90.08462518
_symmetry_Int_Tables_number   1
_chemical_formula_structural   HfZrTaTiMo
_chemical_formula_sum   'Hf40 Zr40 Ta40 Ti40 Mo40'
_cell_volume   3897.60681982
_cell_formula_units_Z   40
loop_
 _symmetry_equiv_pos_site_id
 _symmetry_equiv_pos_as_xyz
  1  'x, y, z'
loop_
 _atom_site_type_symbol
 _atom_site_label
 _atom_site_symmetry_multiplicity
 _atom_site_fract_x
 _atom_site_fract_y
 _atom_site_fract_z
 _atom_site_occupancy
  Hf  Hf0  1  0.90000133  0.29043022  0.87987057  1
  Hf  Hf1  1  0.90299386  0.28800796  0.37571594  1
  Hf  Hf2  1  0.60319238  0.40585181  0.74666863  1
  Hf  Hf3  1  0.49908623  0.10747318  0.35183381  1
  Hf  Hf4  1  0.20631336  0.18734620  0.50218007  1
  Hf  Hf5  1  0.20573307  0.80839909  0.49266334  1
  Hf  Hf6  1  0.10184053  0.29933917  0.10887864  1
  Hf  Hf7  1  0.29065034  0.09044503  0.89912001  1
  Hf  Hf8  1  0.11027564  0.69068088  0.87394735  1
  Hf  Hf9  1  0.80374495  0.41059403  0.51444106  1
  Hf  Hf10  1  0.00691939  0.39357800  0.50119796  1
  Hf  Hf11  1  0.31125707  0.90849550  0.10554412  1
  Hf  Hf12  1  0.20337535  0.38416577  0.49124560  1
  Hf  Hf13  1  0.91239693  0.28550781  0.62578995  1
  Hf  Hf14  1  -0.00574829  0.58616650  0.74921610  1
  Hf  Hf15  1  0.49298182  0.09000567  0.13822429  1
  Hf  Hf16  1  0.70177897  0.50807442  0.12731806  1
  Hf  Hf17  1  0.89839860  0.89680151  0.13017399  1
  Hf  Hf18  1  0.59086559  0.00772836  0.49864950  1
  Hf  Hf19  1  0.21115669  0.58465994  0.48961774  1
  Hf  Hf20  1  0.70452374  0.29668414  0.38803932  1
  Hf  Hf21  1  0.39403178  0.20037562  0.02002134  1
  Hf  Hf22  1  0.69963553  0.92131453  0.87968227  1
  Hf  Hf23  1  0.00873415  0.81462602  0.76116967  1
  Hf  Hf24  1  0.10846924  0.69589068  0.62337929  1
  Hf  Hf25  1  0.19173710  0.18446656  0.76226715  1
  Hf  Hf26  1  0.79837891  0.80368805  -0.00605702  1
  Hf  Hf27  1  0.39668749  0.40948168  0.00589655  1
  Hf  Hf28  1  0.80104580  0.60733458  -0.00045572  1
  Hf  Hf29  1  0.60955714  0.80964054  0.75392054  1
  Hf  Hf30  1  0.17251603  -0.01600496  0.77055652  1
  Hf  Hf31  1  0.00718110  0.58688669  -0.00464401  1
  Hf  Hf32  1  0.48437169  0.90844984  0.86616091  1
  Hf  Hf33  1  0.40980608  0.20728013  0.49494571  1
  Hf  Hf34  1  0.61933346  0.20244075  0.23547381  1
  Hf  Hf35  1  0.78889412  0.78346371  0.24977078  1
  Hf  Hf36  1  0.49369751  0.31151570  0.62983620  1
  Hf  Hf37  1  0.21164741  0.79927113  0.24785276  1
  Hf  Hf38  1  0.50631725  0.51175942  0.12822419  1
  Hf  Hf39  1  0.09605802  0.28091834  0.89483801  1
  Zr  Zr40  1  0.89778601  0.09596774  0.36764984  1
  Zr  Zr41  1  0.49775405  0.90691090  0.63934480  1
  Zr  Zr42  1  0.00009557  0.79266762  -0.00418280  1
  Zr  Zr43  1  0.49006906  0.10718111  0.63697338  1
  Zr  Zr44  1  0.49928789  0.51352716  0.87813474  1
  Zr  Zr45  1  -0.00477229  0.39809941  0.24367226  1
  Zr  Zr46  1  0.69821791  0.27398971  0.60708775  1
  Zr  Zr47  1  0.29926032  0.29162148  0.63367710  1
  Zr  Zr48  1  0.78139633  0.20023024  0.00979319  1
  Zr  Zr49  1  0.01250470  0.78214691  0.24211610  1
  Zr  Zr50  1  0.31916808  0.70278038  0.61194847  1
  Zr  Zr51  1  0.21995076  0.79365142  0.75436050  1
  Zr  Zr52  1  0.30101877  0.09538873  0.34984263  1
  Zr  Zr53  1  0.19031347  0.60800472  0.25484564  1
  Zr  Zr54  1  0.50490114  0.30135654  0.88390819  1
  Zr  Zr55  1  0.80228005  0.18994841  0.75357311  1
  Zr  Zr56  1  0.49981287  0.10126254  0.87824907  1
  Zr  Zr57  1  0.51419228  0.71913431  0.39331865  1
  Zr  Zr58  1  0.30280569  0.29881860  0.35160256  1
  Zr  Zr59  1  0.59467370  0.40827034  0.50451043  1
  Zr  Zr60  1  0.89842603  0.70128232  0.63224710  1
  Zr  Zr61  1  0.40568756  0.80116866  0.24726749  1
  Zr  Zr62  1  0.08934453  0.09180777  0.62950446  1
  Zr  Zr63  1  0.89699849  0.89245858  0.36219840  1
  Zr  Zr64  1  0.50652734  0.30935212  0.35608938  1
  Zr  Zr65  1  0.51101964  0.70768824  0.61619690  1
  Zr  Zr66  1  0.70391320  0.09964535  0.37817946  1
  Zr  Zr67  1  0.09526093  0.49668786  0.36912770  1
  Zr  Zr68  1  0.09974568  0.48849358  0.63158514  1
  Zr  Zr69  1  0.68985197  0.90974418  0.12891275  1
  Zr  Zr70  1  0.80757047  0.41172267  0.73674922  1
  Zr  Zr71  1  0.89243560  0.49843648  0.37409254  1
  Zr  Zr72  1  0.19915870  0.41283519  -0.00196511  1
  Zr  Zr73  1  0.09948131  0.10059325  0.36429169  1
  Zr  Zr74  1  0.59183103  0.80743899  -0.00716482  1
  Zr  Zr75  1  0.49309156  0.51228868  0.36909246  1
  Zr  Zr76  1  0.60811175  0.62449314  0.25595408  1
  Zr  Zr77  1  0.30537259  0.49818704  0.63296199  1
  Zr  Zr78  1  -0.00551283  -0.01355427  0.49451598  1
  Zr  Zr79  1  0.38418156  0.00031791  0.49902263  1
  Ta  Ta80  1  0.49112428  0.91142104  0.36743015  1
  Ta  Ta81  1  0.19491371  -0.00317671  0.49860590  1
  Ta  Ta82  1  0.29189424  0.90902629  0.62960292  1
  Ta  Ta83  1  0.20098927  -0.00505311  0.23484252  1
  Ta  Ta84  1  0.39066330  0.60894976  0.24594706  1
  Ta  Ta85  1  -0.01894398  0.17883191  0.01334626  1
  Ta  Ta86  1  0.89147978  0.69329960  0.86494777  1
  Ta  Ta87  1  0.10325877  0.28957743  0.63455435  1
  Ta  Ta88  1  0.39143808  0.20337637  0.76077591  1
  Ta  Ta89  1  0.10662264  0.89203828  0.11113518  1
  Ta  Ta90  1  0.31511858  0.69572465  0.88126138  1
  Ta  Ta91  1  0.60112175  0.19974283  0.75261054  1
  Ta  Ta92  1  0.09387186  0.70090424  0.38698240  1
  Ta  Ta93  1  0.50391287  0.30958291  0.13245522  1
  Ta  Ta94  1  0.29964033  0.29706039  0.88176610  1
  Ta  Ta95  1  0.09450483  0.89301483  0.62303023  1
  Ta  Ta96  1  0.29316019  0.51590195  0.12604714  1
  Ta  Ta97  1  0.88777558  0.09081192  0.61847616  1
  Ta  Ta98  1  0.20245959  0.40092224  0.23725253  1
  Ta  Ta99  1  0.00747790  -0.00414479  0.23448041  1
  Ta  Ta100  1  0.10839557  0.09148498  0.10968660  1
  Ta  Ta101  1  0.78826907  -0.01863429  0.50488756  1
  Ta  Ta102  1  0.90235415  0.49249723  0.87571171  1
  Ta  Ta103  1  0.39182438  0.41584421  0.49238654  1
  Ta  Ta104  1  0.78737711  0.39287776  0.24868362  1
  Ta  Ta105  1  0.68634285  0.89184377  0.36496671  1
  Ta  Ta106  1  0.49936972  0.51554501  0.62667561  1
  Ta  Ta107  1  0.81113567  0.01215205  0.00762810  1
  Ta  Ta108  1  0.69625084  0.31476467  0.11954578  1
  Ta  Ta109  1  0.39444089  0.40864006  0.76373770  1
  Ta  Ta110  1  0.00309901  0.19318464  0.22822312  1
  Ta  Ta111  1  0.90589754  0.68992001  0.37581636  1
  Ta  Ta112  1  0.20111191  0.39016653  0.76658019  1
  Ta  Ta113  1  0.61929150  0.60677755  0.49839266  1
  Ta  Ta114  1  0.61168813  0.61018335  0.75417003  1
  Ta  Ta115  1  0.31435044  0.69741162  0.38752548  1
  Ta  Ta116  1  0.91037333  0.91761754  0.87693161  1
  Ta  Ta117  1  0.70882997  0.51167286  0.87196736  1
  Ta  Ta118  1  0.80290087  0.40869631  -0.00268506  1
  Ta  Ta119  1  0.69811554  0.30993200  0.87877043  1
  Ti  Ti120  1  0.50033564  0.70962928  0.87288947  1
  Ti  Ti121  1  0.39719528  0.41018478  0.23727191  1
  Ti  Ti122  1  0.79057605  0.00862154  0.24180663  1
  Ti  Ti123  1  0.37171866  0.00386700  0.75265928  1
  Ti  Ti124  1  0.80082866  0.79549485  0.49384236  1
  Ti  Ti125  1  0.90124096  0.49441254  0.12502305  1
  Ti  Ti126  1  0.69739242  0.11174097  0.87664424  1
  Ti  Ti127  1  0.69312545  0.08349449  0.62630669  1
  Ti  Ti128  1  0.09922802  0.48776747  0.87184821  1
  Ti  Ti129  1  0.69871542  0.50439817  0.37029166  1
  Ti  Ti130  1  0.61743677  0.81778244  0.50742174  1
  Ti  Ti131  1  0.39306241  0.60919777  0.00439450  1
  Ti  Ti132  1  0.29697300  0.89180731  0.89682164  1
  Ti  Ti133  1  0.60065061  0.02496902  0.00709984  1
  Ti  Ti134  1  0.20826330  0.77942541  0.00690613  1
  Ti  Ti135  1  0.49431190  0.70819938  0.11730152  1
  Ti  Ti136  1  0.89462422  0.89952138  0.63161111  1
  Ti  Ti137  1  0.80973420  0.20222113  0.23140715  1
  Ti  Ti138  1  0.90953512  0.68584807  0.12785994  1
  Ti  Ti139  1  0.06973409  0.07756794  0.89375196  1
  Ti  Ti140  1  0.00520832  0.38011123  0.75353749  1
  Ti  Ti141  1  0.89764317  0.30679611  0.11550518  1
  Ti  Ti142  1  0.80428762  0.60579193  0.50179123  1
  Ti  Ti143  1  0.79610204  -0.00588007  0.74848992  1
  Ti  Ti144  1  0.21222784  0.58663734  0.75858403  1
  Ti  Ti145  1  0.10533925  0.89958897  0.36741567  1
  Ti  Ti146  1  0.60607432  0.40601610  -0.00203985  1
  Ti  Ti147  1  0.00484669  0.19310450  0.49779271  1
  Ti  Ti148  1  0.70908178  0.71118948  0.62716406  1
  Ti  Ti149  1  0.69108753  0.70616286  0.11958197  1
  Ti  Ti150  1  0.70394508  0.52115895  0.62976083  1
  Ti  Ti151  1  0.50237363  0.90098445  0.12794125  1
  Ti  Ti152  1  0.10309895  0.28860906  0.35820947  1
  Ti  Ti153  1  0.80103008  0.80066322  0.76124763  1
  Ti  Ti154  1  0.09408793  0.50998290  0.12591738  1
  Ti  Ti155  1  0.40611653  0.61331166  0.75396343  1
  Ti  Ti156  1  -0.00404862  0.79496752  0.50062448  1
  Ti  Ti157  1  0.80957241  0.59445160  0.24956718  1
  Ti  Ti158  1  -0.00453383  0.59523572  0.50948019  1
  Ti  Ti159  1  0.60235532  0.60957347  -0.00810524  1
  Mo  Mo160  1  0.29903198  0.50659030  0.86943744  1
  Mo  Mo161  1  0.40521769  0.79487388  -0.00045741  1
  Mo  Mo162  1  0.71583907  0.70016098  0.38599289  1
  Mo  Mo163  1  0.59563393  0.21215981  0.01500515  1
  Mo  Mo164  1  0.71159767  0.89829115  0.62822412  1
  Mo  Mo165  1  0.41101191  -0.00680106  0.00198627  1
  Mo  Mo166  1  0.10882061  0.68972806  0.11435107  1
  Mo  Mo167  1  -0.01164626  0.39731159  0.00162278  1
  Mo  Mo168  1  -0.01695044  0.00482103  0.74991024  1
  Mo  Mo169  1  0.88682320  0.09209669  0.87876151  1
  Mo  Mo170  1  -0.00782623  0.60155367  0.24335934  1
  Mo  Mo171  1  0.29163671  0.09000110  0.63578045  1
  Mo  Mo172  1  -0.00577576  -0.00762180  0.01456780  1
  Mo  Mo173  1  0.59640376  0.19448768  0.49975801  1
  Mo  Mo174  1  0.30506240  0.50014507  0.36055410  1
  Mo  Mo175  1  0.69799646  0.10279432  0.12646366  1
  Mo  Mo176  1  0.19386210  -0.00905519  -0.00362004  1
  Mo  Mo177  1  0.89928399  0.49959183  0.62214950  1
  Mo  Mo178  1  0.29628808  0.89831225  0.37133761  1
  Mo  Mo179  1  0.79549055  0.60817176  0.75386551  1
  Mo  Mo180  1  0.89875404  0.09743484  0.13630113  1
  Mo  Mo181  1  0.61156485  0.01497476  0.75393638  1
  Mo  Mo182  1  0.30351326  0.69880584  0.11666465  1
  Mo  Mo183  1  0.39495066  0.20783453  0.22545194  1
  Mo  Mo184  1  0.69801692  0.70421508  0.87496733  1
  Mo  Mo185  1  0.39091773  -0.00630979  0.24671755  1
  Mo  Mo186  1  0.19597285  0.19663965  0.00202754  1
  Mo  Mo187  1  0.60663706  0.40770103  0.24711717  1
  Mo  Mo188  1  0.20477388  0.59712274  -0.00415110  1
  Mo  Mo189  1  0.00080542  0.18602590  0.75720493  1
  Mo  Mo190  1  0.29998730  0.30791875  0.13413069  1
  Mo  Mo191  1  0.10533161  0.89282542  0.89731157  1
  Mo  Mo192  1  0.19368840  0.20103482  0.22932495  1
  Mo  Mo193  1  0.39809480  0.80312017  0.75585966  1
  Mo  Mo194  1  0.80689426  0.18319120  0.50595912  1
  Mo  Mo195  1  0.59906555  -0.00659494  0.25326869  1
  Mo  Mo196  1  0.40515319  0.81375847  0.49261765  1
  Mo  Mo197  1  0.29051370  0.10414206  0.12501081  1
  Mo  Mo198  1  0.41166964  0.59625505  0.49720277  1
  Mo  Mo199  1  0.59836237  0.80201328  0.24682622  1
