# generated using pymatgen
data_HfZrTaTiMo
_symmetry_space_group_name_H-M   'P 1'
_cell_length_a   15.18642753
_cell_length_b   15.20981084
_cell_length_c   16.81016501
_cell_angle_alpha   89.93310464
_cell_angle_beta   90.03163556
_cell_angle_gamma   90.00070270
_symmetry_Int_Tables_number   1
_chemical_formula_structural   HfZrTaTiMo
_chemical_formula_sum   'Hf40 Zr40 Ta40 Ti40 Mo40'
_cell_volume   3882.85389769
_cell_formula_units_Z   40
loop_
 _symmetry_equiv_pos_site_id
 _symmetry_equiv_pos_as_xyz
  1  'x, y, z'
loop_
 _atom_site_type_symbol
 _atom_site_label
 _atom_site_symmetry_multiplicity
 _atom_site_fract_x
 _atom_site_fract_y
 _atom_site_fract_z
 _atom_site_occupancy
  Hf  Hf0  1  0.21264851  0.79991261  0.00318225  1
  Hf  Hf1  1  0.87365183  0.49947849  0.12549153  1
  Hf  Hf2  1  -0.00436105  0.19725708  0.00575140  1
  Hf  Hf3  1  0.29010560  0.10189777  0.37489066  1
  Hf  Hf4  1  0.00514426  0.58805225  -0.00322569  1
  Hf  Hf5  1  0.61221658  0.20154332  0.48958281  1
  Hf  Hf6  1  0.81819510  0.19969839  0.48537692  1
  Hf  Hf7  1  0.41856895  0.80697304  0.25843578  1
  Hf  Hf8  1  0.90325157  0.09908228  0.35521120  1
  Hf  Hf9  1  0.09021245  0.11282344  0.63021078  1
  Hf  Hf10  1  0.62347416  0.80955867  0.24202200  1
  Hf  Hf11  1  0.20331870  0.60148110  0.00294770  1
  Hf  Hf12  1  0.51561973  0.69566607  0.12158709  1
  Hf  Hf13  1  0.40456926  0.39790084  0.74848318  1
  Hf  Hf14  1  0.01241403  0.80737761  0.74873589  1
  Hf  Hf15  1  0.40834140  0.19122069  0.74863673  1
  Hf  Hf16  1  0.50793348  0.50240139  0.87162037  1
  Hf  Hf17  1  0.59237809  0.42095100  0.27096997  1
  Hf  Hf18  1  0.79933979  0.59503093  0.74511548  1
  Hf  Hf19  1  0.90603274  0.90278838  0.88689132  1
  Hf  Hf20  1  0.78756523  -0.02336427  0.24408007  1
  Hf  Hf21  1  0.42283567  0.59193633  0.26534166  1
  Hf  Hf22  1  0.69296053  0.11737658  0.14056889  1
  Hf  Hf23  1  0.31500139  0.49631150  0.13181705  1
  Hf  Hf24  1  0.50492915  0.50383633  0.61953378  1
  Hf  Hf25  1  0.79419509  0.18692503  0.75877671  1
  Hf  Hf26  1  0.59313434  0.20883077  -0.00125523  1
  Hf  Hf27  1  -0.02743076  0.00135273  0.73489943  1
  Hf  Hf28  1  0.79434545  -0.00034249  0.49626787  1
  Hf  Hf29  1  0.20562013  0.19910699  0.00521633  1
  Hf  Hf30  1  0.31599751  0.70251206  0.13388229  1
  Hf  Hf31  1  0.91224959  0.69955406  0.38229306  1
  Hf  Hf32  1  0.29461459  0.49567991  0.87621802  1
  Hf  Hf33  1  0.29793265  0.90685651  0.37501632  1
  Hf  Hf34  1  0.39029489  0.59848744  0.48992330  1
  Hf  Hf35  1  0.09760882  0.31706038  0.88098686  1
  Hf  Hf36  1  -0.01076361  0.20905751  0.76300947  1
  Hf  Hf37  1  -0.00366763  0.40393824  0.24083217  1
  Hf  Hf38  1  0.49764780  0.70377291  0.63337708  1
  Hf  Hf39  1  0.20303716  0.17986606  0.23229555  1
  Zr  Zr40  1  0.70586962  0.32564002  0.14022400  1
  Zr  Zr41  1  0.19254664  0.40527023  0.01445281  1
  Zr  Zr42  1  0.39781735  0.19943627  0.50874787  1
  Zr  Zr43  1  0.50642393  0.08194862  0.88919015  1
  Zr  Zr44  1  0.90125581  0.69200822  0.12474304  1
  Zr  Zr45  1  0.28999564  0.49673144  0.62248456  1
  Zr  Zr46  1  0.08692965  0.08715422  0.87277628  1
  Zr  Zr47  1  0.40603139  0.38728283  -0.00059173  1
  Zr  Zr48  1  0.29925994  0.88937073  0.63604336  1
  Zr  Zr49  1  0.62598206  0.61126103  0.27182401  1
  Zr  Zr50  1  0.61498902  0.41849721  0.00100169  1
  Zr  Zr51  1  0.30540124  0.09176014  0.87449008  1
  Zr  Zr52  1  0.89534510  0.89600731  0.37899304  1
  Zr  Zr53  1  0.18502568  0.20526794  0.49729709  1
  Zr  Zr54  1  0.29662623  0.48632407  0.36595015  1
  Zr  Zr55  1  0.57737754  -0.00513042  0.23097282  1
  Zr  Zr56  1  0.01112567  0.79816871  0.00031587  1
  Zr  Zr57  1  0.70920090  0.73560033  0.39857436  1
  Zr  Zr58  1  0.51402962  0.10436090  0.62893799  1
  Zr  Zr59  1  0.79514222  0.20441402  0.00018243  1
  Zr  Zr60  1  0.30453406  0.89519674  0.86283639  1
  Zr  Zr61  1  0.41156459  0.79713524  0.49453963  1
  Zr  Zr62  1  -0.00162048  0.38802197  0.48627271  1
  Zr  Zr63  1  0.19439867  -0.00696529  0.00397255  1
  Zr  Zr64  1  0.80839236  0.80931789  0.74861526  1
  Zr  Zr65  1  0.00198755  0.59850429  0.75993362  1
  Zr  Zr66  1  0.79679283  0.38961776  0.48570141  1
  Zr  Zr67  1  0.91392317  0.69789073  0.61490116  1
  Zr  Zr68  1  -0.00117911  0.80174890  0.25112210  1
  Zr  Zr69  1  0.39704719  -0.00217263  0.51156791  1
  Zr  Zr70  1  0.19683607  0.79030761  0.49344507  1
  Zr  Zr71  1  0.80229448  0.59044831  0.50139056  1
  Zr  Zr72  1  0.08988784  0.31657471  0.63053701  1
  Zr  Zr73  1  0.50145833  0.30330943  0.14578153  1
  Zr  Zr74  1  0.58782064  0.81545361  -0.00410740  1
  Zr  Zr75  1  0.49226739  0.08939576  0.36710299  1
  Zr  Zr76  1  0.69525412  0.70248330  0.61601416  1
  Zr  Zr77  1  0.29391145  0.29516315  0.63222335  1
  Zr  Zr78  1  0.48402455  0.29507598  0.36191817  1
  Zr  Zr79  1  0.69837855  0.91828655  0.88265397  1
  Ta  Ta80  1  0.19649896  0.20048091  0.75792367  1
  Ta  Ta81  1  0.51679852  0.30910553  0.62347112  1
  Ta  Ta82  1  0.50879345  0.90032127  0.64418387  1
  Ta  Ta83  1  0.30116182  0.29550520  0.87015276  1
  Ta  Ta84  1  0.40041826  0.39367161  0.50022365  1
  Ta  Ta85  1  0.10724569  0.69479493  0.13413034  1
  Ta  Ta86  1  0.88932094  0.89157988  0.12055683  1
  Ta  Ta87  1  0.89730162  0.09391131  0.13831287  1
  Ta  Ta88  1  0.09847866  0.51181760  0.62109782  1
  Ta  Ta89  1  0.10021593  0.29382095  0.35991729  1
  Ta  Ta90  1  0.80368873  0.39351613  0.74711868  1
  Ta  Ta91  1  0.20736746  0.80559027  0.24998307  1
  Ta  Ta92  1  0.59989695  0.40254588  0.48557657  1
  Ta  Ta93  1  0.69605611  0.48720937  0.62196549  1
  Ta  Ta94  1  0.60052510  -0.00336134  0.50303406  1
  Ta  Ta95  1  0.70039840  0.30972231  0.87253181  1
  Ta  Ta96  1  0.00364767  0.19760306  0.23980879  1
  Ta  Ta97  1  0.19788020  0.39225409  0.23499169  1
  Ta  Ta98  1  0.47873449  0.10917548  0.11613619  1
  Ta  Ta99  1  -0.00807179  -0.00080509  0.01526309  1
  Ta  Ta100  1  0.70277385  0.90670117  0.62888362  1
  Ta  Ta101  1  0.37135439  0.00199853  0.22832256  1
  Ta  Ta102  1  0.39724904  0.59987404  0.75209533  1
  Ta  Ta103  1  0.88848708  0.69433911  0.88246476  1
  Ta  Ta104  1  0.09997924  0.90301313  0.13568888  1
  Ta  Ta105  1  0.90502400  0.50735030  0.36537778  1
  Ta  Ta106  1  0.41192898  0.60498914  -0.00537375  1
  Ta  Ta107  1  0.19539230  0.60012568  0.75774046  1
  Ta  Ta108  1  0.10074377  0.50212100  0.36379387  1
  Ta  Ta109  1  0.18577866  -0.00373006  0.50979942  1
  Ta  Ta110  1  0.70329461  0.29695294  0.62639704  1
  Ta  Ta111  1  0.61349520  0.01023968  0.75154930  1
  Ta  Ta112  1  0.09600741  0.29729910  0.12456373  1
  Ta  Ta113  1  0.18111320  -0.01051347  0.74480613  1
  Ta  Ta114  1  -0.00439371  0.01413789  0.50836970  1
  Ta  Ta115  1  0.90521341  0.48333002  0.62404755  1
  Ta  Ta116  1  0.29751136  0.69630430  0.36188989  1
  Ta  Ta117  1  0.29420924  0.68906417  0.63122192  1
  Ta  Ta118  1  0.50119790  0.70477612  0.86616407  1
  Ta  Ta119  1  0.30932997  0.69881087  0.87065342  1
  Ti  Ti120  1  0.10692034  0.69467168  0.36639570  1
  Ti  Ti121  1  0.69425885  0.09550912  0.35721530  1
  Ti  Ti122  1  0.60586607  0.20604140  0.75933820  1
  Ti  Ti123  1  0.60989516  0.40059256  0.75145969  1
  Ti  Ti124  1  0.51458106  0.50531596  0.12370266  1
  Ti  Ti125  1  0.31450031  0.28282805  0.13026070  1
  Ti  Ti126  1  0.11111778  0.70147366  0.62206409  1
  Ti  Ti127  1  0.60538154  0.59959328  0.75269572  1
  Ti  Ti128  1  0.89815204  0.28659302  0.62493208  1
  Ti  Ti129  1  0.78728346  0.00208258  0.01625184  1
  Ti  Ti130  1  0.49943150  0.29668120  0.87214267  1
  Ti  Ti131  1  0.10417501  0.70463332  0.87611998  1
  Ti  Ti132  1  0.09581315  0.09208484  0.37035290  1
  Ti  Ti133  1  0.71427928  0.50611435  0.87268647  1
  Ti  Ti134  1  0.89228668  0.30910200  0.88354236  1
  Ti  Ti135  1  0.79271921  0.41796447  0.26642628  1
  Ti  Ti136  1  0.19909356  0.79265471  0.75228908  1
  Ti  Ti137  1  0.70291098  0.29126396  0.35524892  1
  Ti  Ti138  1  0.71558865  0.69324568  0.12280069  1
  Ti  Ti139  1  0.19659991  0.59485360  0.24286645  1
  Ti  Ti140  1  0.61018363  0.79899184  0.75855060  1
  Ti  Ti141  1  0.09701845  0.90804562  0.36936066  1
  Ti  Ti142  1  0.01912085  0.59600843  0.49605786  1
  Ti  Ti143  1  0.59188879  0.60612952  0.48406949  1
  Ti  Ti144  1  0.79114067  0.79056615  -0.00527415  1
  Ti  Ti145  1  0.48932550  0.89673379  0.85201294  1
  Ti  Ti146  1  -0.00492584  0.40972316  0.75506890  1
  Ti  Ti147  1  0.19003641  0.40644377  0.75491735  1
  Ti  Ti148  1  0.61806311  0.61427729  -0.01128949  1
  Ti  Ti149  1  0.00778647  0.81727271  0.50700870  1
  Ti  Ti150  1  0.19600897  0.40803197  0.49221776  1
  Ti  Ti151  1  0.87981647  0.08985827  0.88521525  1
  Ti  Ti152  1  0.71185696  0.10380916  0.62391999  1
  Ti  Ti153  1  -0.00904728  0.39837796  0.01444272  1
  Ti  Ti154  1  0.29419004  0.29591349  0.36073050  1
  Ti  Ti155  1  0.52199701  0.89355017  0.38217016  1
  Ti  Ti156  1  0.40352809  -0.02517384  0.01460036  1
  Ti  Ti157  1  0.89890943  0.49262402  0.88325625  1
  Ti  Ti158  1  0.89013632  0.29412083  0.13254607  1
  Ti  Ti159  1  0.29274760  0.09242843  0.63705066  1
  Mo  Mo160  1  0.40239814  0.78973452  0.74604153  1
  Mo  Mo161  1  0.69730960  0.10500008  0.88206496  1
  Mo  Mo162  1  0.79770518  0.78862199  0.24562617  1
  Mo  Mo163  1  0.00146033  -0.00145014  0.23896185  1
  Mo  Mo164  1  0.29752328  0.09221532  0.11010739  1
  Mo  Mo165  1  0.79439044  0.59867981  -0.00989595  1
  Mo  Mo166  1  0.89233898  0.11134332  0.61994016  1
  Mo  Mo167  1  0.29770662  0.89173363  0.12895010  1
  Mo  Mo168  1  0.50282854  0.70767676  0.38280784  1
  Mo  Mo169  1  0.39780513  0.20172584  -0.00650040  1
  Mo  Mo170  1  0.09789151  0.90091621  0.61922163  1
  Mo  Mo171  1  0.79412388  0.00172150  0.74761871  1
  Mo  Mo172  1  0.18521322  -0.00743151  0.24838056  1
  Mo  Mo173  1  0.60335318  0.81608498  0.51459508  1
  Mo  Mo174  1  0.09415472  0.50397013  0.13590593  1
  Mo  Mo175  1  0.48980763  0.89479328  0.12321827  1
  Mo  Mo176  1  0.80541403  0.40410659  -0.00658290  1
  Mo  Mo177  1  0.69335373  0.52123083  0.12666796  1
  Mo  Mo178  1  0.60005232  0.19912139  0.25736234  1
  Mo  Mo179  1  0.19250883  0.59757701  0.49183008  1
  Mo  Mo180  1  0.00195891  0.19612230  0.48684571  1
  Mo  Mo181  1  0.40077294  0.78878246  -0.00398489  1
  Mo  Mo182  1  0.69842220  0.69892095  0.86967403  1
  Mo  Mo183  1  0.69539337  0.91446231  0.37894291  1
  Mo  Mo184  1  0.70671964  0.50504963  0.38800319  1
  Mo  Mo185  1  0.09027244  0.09678259  0.12109618  1
  Mo  Mo186  1  0.39171546  0.39921876  0.24565164  1
  Mo  Mo187  1  0.89865135  0.90387178  0.61277695  1
  Mo  Mo188  1  0.39471876  0.18988227  0.24767198  1
  Mo  Mo189  1  0.90486312  0.30011564  0.35306578  1
  Mo  Mo190  1  0.70065501  0.89580655  0.10722075  1
  Mo  Mo191  1  0.80629420  0.60890752  0.26302528  1
  Mo  Mo192  1  0.49835930  0.49992408  0.39132295  1
  Mo  Mo193  1  0.00764515  0.59869613  0.25150854  1
  Mo  Mo194  1  0.09476231  0.50323431  0.87505669  1
  Mo  Mo195  1  0.80429021  0.20604429  0.25590394  1
  Mo  Mo196  1  0.81071955  0.80899490  0.51536029  1
  Mo  Mo197  1  0.59860418  0.00818207  0.02589208  1
  Mo  Mo198  1  0.09885337  0.89851353  0.87057980  1
  Mo  Mo199  1  0.40079323  -0.00157652  0.73977516  1
