# generated using pymatgen
data_HfZrTaTiMo
_symmetry_space_group_name_H-M   'P 1'
_cell_length_a   15.22021157
_cell_length_b   15.21406272
_cell_length_c   16.81295039
_cell_angle_alpha   90.02411640
_cell_angle_beta   90.05673686
_cell_angle_gamma   89.97878266
_symmetry_Int_Tables_number   1
_chemical_formula_structural   HfZrTaTiMo
_chemical_formula_sum   'Hf40 Zr40 Ta40 Ti40 Mo40'
_cell_volume   3893.22534539
_cell_formula_units_Z   40
loop_
 _symmetry_equiv_pos_site_id
 _symmetry_equiv_pos_as_xyz
  1  'x, y, z'
loop_
 _atom_site_type_symbol
 _atom_site_label
 _atom_site_symmetry_multiplicity
 _atom_site_fract_x
 _atom_site_fract_y
 _atom_site_fract_z
 _atom_site_occupancy
  Hf  Hf0  1  0.79961474  0.78564429  0.51580200  1
  Hf  Hf1  1  0.10751298  0.68264497  0.63634710  1
  Hf  Hf2  1  0.00395658  0.41657409  0.50076353  1
  Hf  Hf3  1  0.50505518  0.49317894  0.13570558  1
  Hf  Hf4  1  0.60639885  0.80016492  0.26368836  1
  Hf  Hf5  1  0.00247617  0.79470846  0.51046911  1
  Hf  Hf6  1  0.80341180  0.20289585  0.25841891  1
  Hf  Hf7  1  0.79786867  0.79409166  -0.01118352  1
  Hf  Hf8  1  0.79872625  -0.01072774  0.26039043  1
  Hf  Hf9  1  0.10331474  0.29936062  0.88048560  1
  Hf  Hf10  1  0.60902325  0.39273535  0.00368742  1
  Hf  Hf11  1  0.09660763  0.49770234  0.36112798  1
  Hf  Hf12  1  -0.00005669  0.00007467  -0.00132429  1
  Hf  Hf13  1  0.69308807  0.30698633  0.86930729  1
  Hf  Hf14  1  0.10775293  0.29655818  0.63142899  1
  Hf  Hf15  1  0.09488696  0.10248430  0.37248143  1
  Hf  Hf16  1  0.09951105  0.89684671  0.85908286  1
  Hf  Hf17  1  0.30174177  0.70743137  0.38802601  1
  Hf  Hf18  1  0.21178396  0.79962747  0.00650439  1
  Hf  Hf19  1  0.78831190  0.00920897  0.72814789  1
  Hf  Hf20  1  0.20271853  0.80614778  0.50968459  1
  Hf  Hf21  1  0.39924349  0.60779215  0.24328393  1
  Hf  Hf22  1  0.50557546  0.69403452  0.61822754  1
  Hf  Hf23  1  0.40394955  0.01054365  0.25025139  1
  Hf  Hf24  1  -0.00211403  0.40098539  0.01775258  1
  Hf  Hf25  1  0.60194524  0.60061657  0.26646285  1
  Hf  Hf26  1  0.58843063  0.18354854  0.26972210  1
  Hf  Hf27  1  0.77471148  0.19127873  -0.00444287  1
  Hf  Hf28  1  0.81089902  0.59661790  0.26200809  1
  Hf  Hf29  1  0.39470939  0.21984423  0.75975648  1
  Hf  Hf30  1  0.70679437  0.28711447  0.38681586  1
  Hf  Hf31  1  0.50159681  0.49506769  0.87134352  1
  Hf  Hf32  1  0.29559314  0.11053017  0.38203749  1
  Hf  Hf33  1  0.10485740  0.90230903  0.37651711  1
  Hf  Hf34  1  0.89102676  0.09863198  0.12440343  1
  Hf  Hf35  1  0.90249310  0.70111180  0.85851107  1
  Hf  Hf36  1  0.69680192  0.69604642  0.12928652  1
  Hf  Hf37  1  -0.00064458  0.21264319  0.50044569  1
  Hf  Hf38  1  0.59136382  -0.00522214  0.49773837  1
  Hf  Hf39  1  0.70616849  0.89740964  0.12012431  1
  Zr  Zr40  1  0.29917243  0.12285302  0.62036900  1
  Zr  Zr41  1  0.61197814  0.79414564  0.74389145  1
  Zr  Zr42  1  0.40071684  0.01852181  0.76210994  1
  Zr  Zr43  1  0.60577616  0.59851266  -0.00093145  1
  Zr  Zr44  1  -0.00836892  0.38215815  0.74952910  1
  Zr  Zr45  1  0.21076702  0.40950866  0.74933747  1
  Zr  Zr46  1  0.29547907  0.50227102  0.37803274  1
  Zr  Zr47  1  0.59913517  0.18587096  0.75318868  1
  Zr  Zr48  1  0.11706030  0.69106388  0.87138191  1
  Zr  Zr49  1  0.01366790  0.58098332  0.75736526  1
  Zr  Zr50  1  0.49868729  0.27428695  0.60504097  1
  Zr  Zr51  1  0.50585629  0.91471472  0.11622046  1
  Zr  Zr52  1  0.71121889  0.29742925  0.61218489  1
  Zr  Zr53  1  0.40209111  0.80897378  0.24821581  1
  Zr  Zr54  1  -0.00520017  0.39473809  0.23523401  1
  Zr  Zr55  1  0.31221396  0.70250773  0.61646420  1
  Zr  Zr56  1  0.00735818  0.80421240  0.00273421  1
  Zr  Zr57  1  0.39509268  0.21478520  0.25181230  1
  Zr  Zr58  1  0.49046744  0.49432332  0.38402534  1
  Zr  Zr59  1  0.20331952  0.59697172  0.22947593  1
  Zr  Zr60  1  0.68586236  0.09367420  0.13234078  1
  Zr  Zr61  1  0.89924776  0.90560128  0.86116963  1
  Zr  Zr62  1  0.71870795  0.47863273  0.14248221  1
  Zr  Zr63  1  -0.00157624  0.80459746  0.24196048  1
  Zr  Zr64  1  0.20566734  0.80576382  0.23675069  1
  Zr  Zr65  1  0.78091135  0.41390474  0.74269173  1
  Zr  Zr66  1  0.41092614  0.81223939  0.75513083  1
  Zr  Zr67  1  0.89573697  0.50622372  0.62508027  1
  Zr  Zr68  1  0.70037745  0.91425350  0.87025342  1
  Zr  Zr69  1  0.88583273  0.49248219  0.87837545  1
  Zr  Zr70  1  0.62524862  0.59830752  0.49811124  1
  Zr  Zr71  1  0.59101683  0.80372488  -0.01816127  1
  Zr  Zr72  1  0.90590774  0.89897040  0.38022302  1
  Zr  Zr73  1  0.39863753  0.60905509  0.00918404  1
  Zr  Zr74  1  -0.00438631  0.19934036  0.00028732  1
  Zr  Zr75  1  0.48909042  0.48860675  0.60949979  1
  Zr  Zr76  1  0.68273671  0.10595984  0.60792360  1
  Zr  Zr77  1  0.89018519  0.69991915  0.12324645  1
  Zr  Zr78  1  0.00502589  0.59732626  0.00553952  1
  Zr  Zr79  1  0.19392292  0.00822866  0.51210818  1
  Ta  Ta80  1  0.89823219  0.90365739  0.12314337  1
  Ta  Ta81  1  -0.00885140  0.00727296  0.73638510  1
  Ta  Ta82  1  0.50121593  0.71111020  0.12523387  1
  Ta  Ta83  1  0.81442112  0.39392224  0.49194234  1
  Ta  Ta84  1  0.09607169  0.10571547  0.63431287  1
  Ta  Ta85  1  0.29078212  0.50757469  0.61252838  1
  Ta  Ta86  1  0.30320475  0.90884238  0.38126749  1
  Ta  Ta87  1  0.29702555  0.90549774  0.87514627  1
  Ta  Ta88  1  0.87476015  0.30771885  0.12118187  1
  Ta  Ta89  1  0.50209034  0.69402537  0.86322958  1
  Ta  Ta90  1  0.59109794  0.38307366  0.26496749  1
  Ta  Ta91  1  0.29151594  0.30897369  0.37855557  1
  Ta  Ta92  1  0.60639092  0.39444207  0.49372334  1
  Ta  Ta93  1  0.30811169  0.69849582  0.86977217  1
  Ta  Ta94  1  0.09759589  0.89721673  0.64160827  1
  Ta  Ta95  1  0.39823088  0.58611075  0.74883270  1
  Ta  Ta96  1  0.71191438  0.48816458  0.37174026  1
  Ta  Ta97  1  0.49843148  0.70417189  0.39661277  1
  Ta  Ta98  1  0.90677601  0.70009698  0.64063288  1
  Ta  Ta99  1  0.58032024  0.39405665  0.73967285  1
  Ta  Ta100  1  0.00267147  0.59787480  0.23681921  1
  Ta  Ta101  1  0.29719091  0.50410608  0.88259975  1
  Ta  Ta102  1  0.19978297  0.00773216  0.75021156  1
  Ta  Ta103  1  0.39693392  0.40158301  0.00618768  1
  Ta  Ta104  1  0.89921089  0.10357902  0.38475268  1
  Ta  Ta105  1  0.21034644  0.80220157  0.74620973  1
  Ta  Ta106  1  0.09693136  0.69644912  0.37152607  1
  Ta  Ta107  1  0.49535771  0.10947593  0.11099610  1
  Ta  Ta108  1  0.49797007  0.29631359  0.12414234  1
  Ta  Ta109  1  -0.00646014  0.00319754  0.52105896  1
  Ta  Ta110  1  0.60652151  0.79920863  0.50726076  1
  Ta  Ta111  1  0.20033765  0.40115396  0.02030298  1
  Ta  Ta112  1  0.10368096  0.09754756  0.12579915  1
  Ta  Ta113  1  0.30042846  0.10384902  0.11581405  1
  Ta  Ta114  1  0.19245868  0.20619547  0.24066356  1
  Ta  Ta115  1  0.39830699  0.00757030  -0.01573120  1
  Ta  Ta116  1  0.70462455  0.88801066  0.38683212  1
  Ta  Ta117  1  0.80289042  -0.00823223  0.51484281  1
  Ta  Ta118  1  0.19491008  0.39640016  0.50212807  1
  Ta  Ta119  1  0.20367434  0.00424971  0.24289292  1
  Ti  Ti120  1  0.90613722  0.69700261  0.37410619  1
  Ti  Ti121  1  0.80019608  0.80382362  0.73331404  1
  Ti  Ti122  1  0.30259269  0.91179205  0.11438908  1
  Ti  Ti123  1  0.49418120  0.30375934  0.88117017  1
  Ti  Ti124  1  0.29827672  0.31129955  0.88550181  1
  Ti  Ti125  1  0.48622021  0.29241717  0.39402684  1
  Ti  Ti126  1  0.82006508  0.59230625  0.48906034  1
  Ti  Ti127  1  0.61472500  0.58243201  0.73822138  1
  Ti  Ti128  1  0.40329751  0.80787968  -0.01023357  1
  Ti  Ti129  1  -0.00239532  0.20020393  0.24632282  1
  Ti  Ti130  1  0.79669075  0.58026051  0.00067322  1
  Ti  Ti131  1  0.39378486  0.20431681  -0.00636022  1
  Ti  Ti132  1  0.00437549  0.00445811  0.24265404  1
  Ti  Ti133  1  0.39965615  0.00810336  0.50354013  1
  Ti  Ti134  1  0.49207411  0.89778774  0.38515947  1
  Ti  Ti135  1  0.20001099  0.00508855  -0.00502104  1
  Ti  Ti136  1  0.17948996  0.59638667  0.49721761  1
  Ti  Ti137  1  0.20756254  0.59301835  0.01914445  1
  Ti  Ti138  1  0.58956274  -0.00846763  0.74366924  1
  Ti  Ti139  1  0.09746953  0.09588914  0.86982395  1
  Ti  Ti140  1  0.88595985  0.09696695  0.87290295  1
  Ti  Ti141  1  0.20059483  0.19806950  0.76374098  1
  Ti  Ti142  1  0.30043366  0.30274462  0.12516904  1
  Ti  Ti143  1  0.11137880  0.49382150  0.88680446  1
  Ti  Ti144  1  0.10208559  0.30009843  0.36871929  1
  Ti  Ti145  1  0.70444362  0.67993270  0.86410752  1
  Ti  Ti146  1  0.89408935  0.12242078  0.62024314  1
  Ti  Ti147  1  0.61223573  0.01589322  -0.01102510  1
  Ti  Ti148  1  0.70359898  0.08842411  0.38979291  1
  Ti  Ti149  1  0.10356335  0.70466626  0.12197479  1
  Ti  Ti150  1  0.50834719  0.10569208  0.88554005  1
  Ti  Ti151  1  0.30935717  0.31523273  0.61184350  1
  Ti  Ti152  1  0.59684489  -0.00687317  0.26795461  1
  Ti  Ti153  1  0.19976870  0.19985034  0.00257939  1
  Ti  Ti154  1  0.68560921  0.28821898  0.13550296  1
  Ti  Ti155  1  0.89224187  0.29598946  0.88516367  1
  Ti  Ti156  1  0.49617115  0.90269895  0.61915762  1
  Ti  Ti157  1  0.80583892  0.20722055  0.75216966  1
  Ti  Ti158  1  -0.00683732  0.19382002  0.75537790  1
  Ti  Ti159  1  0.30459153  0.91106773  0.62967483  1
  Mo  Mo160  1  0.30839304  0.49178490  0.12560387  1
  Mo  Mo161  1  0.10917933  0.49842607  0.62210551  1
  Mo  Mo162  1  0.00339926  0.79957546  0.74073016  1
  Mo  Mo163  1  0.69129717  0.50268074  0.87244991  1
  Mo  Mo164  1  0.79270449  0.60843558  0.74701389  1
  Mo  Mo165  1  0.71414893  0.68361600  0.63106108  1
  Mo  Mo166  1  0.39968338  0.39977736  0.75083440  1
  Mo  Mo167  1  0.59144244  0.18874960  0.48008912  1
  Mo  Mo168  1  0.48849744  0.08961258  0.62443576  1
  Mo  Mo169  1  0.69760130  0.49430785  0.60993634  1
  Mo  Mo170  1  0.91238119  0.29934731  0.37055186  1
  Mo  Mo171  1  0.40868232  0.81930498  0.50250492  1
  Mo  Mo172  1  0.28434887  0.11138821  0.88627209  1
  Mo  Mo173  1  0.79925617  0.39174546  0.26303659  1
  Mo  Mo174  1  0.10395773  0.49868179  0.12874242  1
  Mo  Mo175  1  0.20853226  0.38753817  0.23395215  1
  Mo  Mo176  1  0.89622428  0.49991647  0.12273249  1
  Mo  Mo177  1  0.39985449  0.39655069  0.24716834  1
  Mo  Mo178  1  0.39488596  0.60678851  0.49980066  1
  Mo  Mo179  1  0.90552256  0.49996367  0.37555010  1
  Mo  Mo180  1  0.79866015  0.79761725  0.26000550  1
  Mo  Mo181  1  0.10624542  0.91558031  0.12377888  1
  Mo  Mo182  1  0.31016965  0.70989800  0.11512435  1
  Mo  Mo183  1  0.21724954  0.59885279  0.75470747  1
  Mo  Mo184  1  0.69389577  0.89497206  0.61964907  1
  Mo  Mo185  1  0.79798043  0.39145602  0.00076637  1
  Mo  Mo186  1  0.71204658  0.70252424  0.37646547  1
  Mo  Mo187  1  -0.00154142  0.61050875  0.49597680  1
  Mo  Mo188  1  0.49377456  0.09246320  0.37910127  1
  Mo  Mo189  1  0.90122787  0.90315266  0.63025846  1
  Mo  Mo190  1  0.19319808  0.21404883  0.49738514  1
  Mo  Mo191  1  0.80398346  -0.00141889  -0.00094323  1
  Mo  Mo192  1  0.80873894  0.19158123  0.49127637  1
  Mo  Mo193  1  0.58351456  0.20098236  -0.00426599  1
  Mo  Mo194  1  0.90280981  0.29602915  0.62754026  1
  Mo  Mo195  1  0.70292770  0.10388445  0.86604620  1
  Mo  Mo196  1  0.39226822  0.39899576  0.49767304  1
  Mo  Mo197  1  0.38979658  0.19897112  0.49181267  1
  Mo  Mo198  1  0.10049698  0.28803878  0.12360961  1
  Mo  Mo199  1  0.49849145  0.90846312  0.88072110  1
