# generated using pymatgen
data_HfZrTaTiMo
_symmetry_space_group_name_H-M   'P 1'
_cell_length_a   15.21682641
_cell_length_b   15.20444943
_cell_length_c   16.82718523
_cell_angle_alpha   90.02152088
_cell_angle_beta   89.93697107
_cell_angle_gamma   90.11417531
_symmetry_Int_Tables_number   1
_chemical_formula_structural   HfZrTaTiMo
_chemical_formula_sum   'Hf40 Zr40 Ta40 Ti40 Mo40'
_cell_volume   3893.18557007
_cell_formula_units_Z   40
loop_
 _symmetry_equiv_pos_site_id
 _symmetry_equiv_pos_as_xyz
  1  'x, y, z'
loop_
 _atom_site_type_symbol
 _atom_site_label
 _atom_site_symmetry_multiplicity
 _atom_site_fract_x
 _atom_site_fract_y
 _atom_site_fract_z
 _atom_site_occupancy
  Hf  Hf0  1  0.19720825  0.79491124  0.24737015  1
  Hf  Hf1  1  0.58953609  -0.01119437  -0.00243695  1
  Hf  Hf2  1  0.48755509  0.09709037  0.12640015  1
  Hf  Hf3  1  0.51320091  0.30376160  0.87587063  1
  Hf  Hf4  1  0.69050016  0.10698310  0.86741799  1
  Hf  Hf5  1  0.29745438  0.50384031  0.63883535  1
  Hf  Hf6  1  0.00627475  0.38249477  0.27362658  1
  Hf  Hf7  1  0.89411879  0.09523572  0.13982890  1
  Hf  Hf8  1  0.09358746  0.48600718  0.14040073  1
  Hf  Hf9  1  0.09445662  0.09200463  0.13941499  1
  Hf  Hf10  1  0.88874260  0.07680502  0.37373467  1
  Hf  Hf11  1  0.81083079  0.60527656  0.50190579  1
  Hf  Hf12  1  0.69792602  0.50625894  0.37724003  1
  Hf  Hf13  1  0.80658285  0.40950581  0.26755971  1
  Hf  Hf14  1  0.71839040  0.90826567  0.36547974  1
  Hf  Hf15  1  0.91490243  0.70082820  0.63259629  1
  Hf  Hf16  1  0.90527473  0.90559115  0.85608297  1
  Hf  Hf17  1  0.72525377  0.31052542  0.86677557  1
  Hf  Hf18  1  0.28036067  0.69844217  0.37400745  1
  Hf  Hf19  1  0.10113298  0.88019019  0.86067065  1
  Hf  Hf20  1  0.20367047  -0.01101840  0.72667621  1
  Hf  Hf21  1  0.40403165  0.20771707  0.50413999  1
  Hf  Hf22  1  0.59347551  0.20562889  0.23368187  1
  Hf  Hf23  1  0.79134404  0.20080605  0.25565020  1
  Hf  Hf24  1  0.60351549  0.60386125  0.51440642  1
  Hf  Hf25  1  -0.01001848  0.38537247  -0.00718858  1
  Hf  Hf26  1  0.50965757  0.50997350  0.88284272  1
  Hf  Hf27  1  0.09956087  0.27841587  0.86046799  1
  Hf  Hf28  1  0.18707917  -0.00557730  -0.00818245  1
  Hf  Hf29  1  0.79862280  0.39856679  0.49639852  1
  Hf  Hf30  1  -0.00979651  -0.01673744  0.51058408  1
  Hf  Hf31  1  0.38438021  0.81616051  0.49281995  1
  Hf  Hf32  1  0.19882219  0.59817312  0.76618477  1
  Hf  Hf33  1  0.88547974  0.49994039  0.12695836  1
  Hf  Hf34  1  0.60654747  0.20163104  0.01082710  1
  Hf  Hf35  1  0.49303066  0.71589154  0.62425408  1
  Hf  Hf36  1  0.50488425  0.92513083  0.36767028  1
  Hf  Hf37  1  0.40254104  0.00423807  0.73228606  1
  Hf  Hf38  1  0.09804883  0.88055917  0.38968406  1
  Hf  Hf39  1  0.41145074  0.38956675  0.23429230  1
  Zr  Zr40  1  0.89646299  0.12034815  0.85702833  1
  Zr  Zr41  1  -0.01079809  0.59384857  -0.01189815  1
  Zr  Zr42  1  0.50297294  0.50086958  0.36723358  1
  Zr  Zr43  1  0.40213656  0.60165111  0.49796287  1
  Zr  Zr44  1  0.50607199  0.71355985  0.11447715  1
  Zr  Zr45  1  0.89005124  0.89276923  0.13846711  1
  Zr  Zr46  1  0.20354355  0.00061046  0.26926456  1
  Zr  Zr47  1  0.40498914  0.40129295  0.00361577  1
  Zr  Zr48  1  -0.01025325  0.38626172  0.74147094  1
  Zr  Zr49  1  0.01030641  0.18565478  -0.00283685  1
  Zr  Zr50  1  0.70817820  0.70740129  0.37398475  1
  Zr  Zr51  1  0.00264548  0.39796393  0.49819343  1
  Zr  Zr52  1  0.91520969  0.29665050  0.13659969  1
  Zr  Zr53  1  0.11713747  0.49528956  0.36327655  1
  Zr  Zr54  1  0.60502356  0.61382684  0.74502619  1
  Zr  Zr55  1  0.79842847  0.79824379  -0.01321420  1
  Zr  Zr56  1  0.80021258  0.59736044  0.74953024  1
  Zr  Zr57  1  0.29350234  0.29226035  0.12822644  1
  Zr  Zr58  1  0.19474792  0.38805448  -0.00496367  1
  Zr  Zr59  1  0.19465658  0.60061182  -0.01456632  1
  Zr  Zr60  1  0.39259767  0.40438069  0.50451968  1
  Zr  Zr61  1  0.28845674  0.10691197  0.86202941  1
  Zr  Zr62  1  0.60535853  0.81911226  0.74875405  1
  Zr  Zr63  1  0.60904647  0.40181279  0.23306776  1
  Zr  Zr64  1  0.28797112  0.10145549  0.12515831  1
  Zr  Zr65  1  0.09628839  0.69260561  0.12642641  1
  Zr  Zr66  1  0.78711033  0.00688750  -0.00234951  1
  Zr  Zr67  1  0.59176957  0.39236400  0.51188234  1
  Zr  Zr68  1  0.60787531  0.82250292  0.50513745  1
  Zr  Zr69  1  0.38654868  0.18767536  0.26565772  1
  Zr  Zr70  1  0.29175166  0.50967232  0.13182115  1
  Zr  Zr71  1  0.30187246  0.90917003  0.12323451  1
  Zr  Zr72  1  0.00769395  0.60770334  0.48498545  1
  Zr  Zr73  1  0.40278056  0.61223589  0.24270281  1
  Zr  Zr74  1  0.50668145  0.70928099  0.37242880  1
  Zr  Zr75  1  0.39944887  0.61424368  0.76824275  1
  Zr  Zr76  1  0.20374238  0.58828881  0.50284741  1
  Zr  Zr77  1  0.41035238  0.82405006  -0.00712262  1
  Zr  Zr78  1  0.78428291  -0.00416497  0.74770101  1
  Zr  Zr79  1  -0.00932758  -0.01103409  -0.00342774  1
  Ta  Ta80  1  0.80872181  0.21412882  0.00361367  1
  Ta  Ta81  1  0.30073199  0.90544602  0.87000297  1
  Ta  Ta82  1  0.30206750  0.49134451  0.35599390  1
  Ta  Ta83  1  0.70893702  0.70155824  0.12451614  1
  Ta  Ta84  1  0.68622879  0.09858005  0.37485555  1
  Ta  Ta85  1  0.29831517  0.71176224  0.11205027  1
  Ta  Ta86  1  0.89643768  0.69371657  0.12825366  1
  Ta  Ta87  1  0.62399176  0.41057749  0.00866794  1
  Ta  Ta88  1  0.00431408  0.18439048  0.27426357  1
  Ta  Ta89  1  0.39994229  0.20294825  -0.00722198  1
  Ta  Ta90  1  0.00328293  0.59437798  0.76136761  1
  Ta  Ta91  1  -0.01360366  0.59870071  0.26482926  1
  Ta  Ta92  1  0.30374943  0.29856649  0.86435555  1
  Ta  Ta93  1  0.71864048  0.72364859  0.61849340  1
  Ta  Ta94  1  0.50238975  0.29960406  0.37455090  1
  Ta  Ta95  1  0.09374962  0.48484088  0.86696286  1
  Ta  Ta96  1  0.49405927  0.10426591  0.86857126  1
  Ta  Ta97  1  0.09437841  0.87446343  0.62506823  1
  Ta  Ta98  1  0.39592532  0.81609308  0.25654444  1
  Ta  Ta99  1  0.40168980  0.81070114  0.75913560  1
  Ta  Ta100  1  0.61035522  0.81263215  0.24261527  1
  Ta  Ta101  1  0.08965659  0.08060574  0.84647389  1
  Ta  Ta102  1  0.20090930  0.19335926  0.50739023  1
  Ta  Ta103  1  0.10504715  0.68821090  0.63144698  1
  Ta  Ta104  1  0.40409736  0.40003561  0.75445470  1
  Ta  Ta105  1  0.88808309  0.28792842  0.61582060  1
  Ta  Ta106  1  0.40507195  0.00486588  0.52042607  1
  Ta  Ta107  1  0.79180039  -0.01071478  0.51158425  1
  Ta  Ta108  1  0.09618983  0.09299217  0.61864730  1
  Ta  Ta109  1  0.70306832  0.11214770  0.62842324  1
  Ta  Ta110  1  0.51375522  0.51263261  0.11040923  1
  Ta  Ta111  1  0.29356335  0.70960060  0.62666909  1
  Ta  Ta112  1  0.50721922  0.12146929  0.62569028  1
  Ta  Ta113  1  0.52268888  0.72018218  0.88985315  1
  Ta  Ta114  1  0.21149930  -0.01844743  0.51532148  1
  Ta  Ta115  1  0.88499760  0.48040896  0.86924011  1
  Ta  Ta116  1  0.60163367  0.01851429  0.51146625  1
  Ta  Ta117  1  0.49906866  0.50003548  0.63841130  1
  Ta  Ta118  1  0.89227631  0.88750300  0.63975487  1
  Ta  Ta119  1  0.19782148  0.38568429  0.50816780  1
  Ti  Ti120  1  0.89689706  0.28580213  0.38830646  1
  Ti  Ti121  1  0.39341443  0.01461059  -0.01211936  1
  Ti  Ti122  1  0.70511078  0.50034065  0.62701083  1
  Ti  Ti123  1  0.61243543  0.60593005  0.23992802  1
  Ti  Ti124  1  0.09749955  0.49209314  0.63216809  1
  Ti  Ti125  1  0.19925666  0.19608706  0.72712195  1
  Ti  Ti126  1  0.40180982  0.60978508  -0.00621929  1
  Ti  Ti127  1  0.89461909  0.09568409  0.62618416  1
  Ti  Ti128  1  0.09517309  0.89617795  0.12751484  1
  Ti  Ti129  1  0.00021764  0.19261333  0.72860370  1
  Ti  Ti130  1  0.30130638  0.49117595  0.87507618  1
  Ti  Ti131  1  0.18779953  0.20475957  0.27561052  1
  Ti  Ti132  1  0.00133485  0.19630751  0.50242526  1
  Ti  Ti133  1  0.20650547  0.78914571  0.75022311  1
  Ti  Ti134  1  0.09926089  0.08978255  0.39455334  1
  Ti  Ti135  1  0.00954097  0.79306736  -0.00148227  1
  Ti  Ti136  1  0.19868941  0.38955847  0.74667266  1
  Ti  Ti137  1  0.50452150  0.11122389  0.38037985  1
  Ti  Ti138  1  0.29405254  0.71811734  0.88988773  1
  Ti  Ti139  1  0.60490076  0.40500480  0.74474055  1
  Ti  Ti140  1  0.90133763  0.72026590  0.37309626  1
  Ti  Ti141  1  0.30313275  0.29939801  0.63121549  1
  Ti  Ti142  1  0.71868109  0.31135622  0.11999237  1
  Ti  Ti143  1  -0.00372910  0.80086603  0.25263524  1
  Ti  Ti144  1  0.30676532  0.08178473  0.39270681  1
  Ti  Ti145  1  0.10574027  0.28573571  0.13587619  1
  Ti  Ti146  1  0.78779470  0.18861001  0.49775936  1
  Ti  Ti147  1  0.79293778  0.79258791  0.76506730  1
  Ti  Ti148  1  0.20110117  0.19362627  -0.00803278  1
  Ti  Ti149  1  0.59914599  0.20809585  0.74773707  1
  Ti  Ti150  1  0.78821695  0.59153204  -0.00712619  1
  Ti  Ti151  1  0.69406345  0.29794672  0.62781271  1
  Ti  Ti152  1  0.69862012  0.50505055  0.87183926  1
  Ti  Ti153  1  0.40178081  0.20550616  0.74264342  1
  Ti  Ti154  1  0.59141322  0.00584371  0.74159719  1
  Ti  Ti155  1  0.90115477  0.49601639  0.62756602  1
  Ti  Ti156  1  0.50315699  0.90919252  0.14043146  1
  Ti  Ti157  1  0.68850538  0.29301682  0.38111530  1
  Ti  Ti158  1  0.29261115  0.30313704  0.37747906  1
  Ti  Ti159  1  0.90788311  0.69830847  0.86903363  1
  Mo  Mo160  1  0.49935593  0.30643731  0.64274820  1
  Mo  Mo161  1  0.60962119  0.60882957  -0.00126747  1
  Mo  Mo162  1  0.80314757  0.40320541  -0.00095488  1
  Mo  Mo163  1  0.68740321  0.89421694  0.87440085  1
  Mo  Mo164  1  0.49725485  0.91579337  0.86917769  1
  Mo  Mo165  1  0.90444146  0.29630169  0.86658214  1
  Mo  Mo166  1  0.89630140  0.50252672  0.37596582  1
  Mo  Mo167  1  0.10167095  0.29272204  0.62151776  1
  Mo  Mo168  1  0.70119170  0.10044240  0.12479795  1
  Mo  Mo169  1  0.79440465  0.40024540  0.73243138  1
  Mo  Mo170  1  0.50127165  0.91062242  0.62121482  1
  Mo  Mo171  1  0.78363311  -0.00115399  0.24249907  1
  Mo  Mo172  1  0.09269141  0.69667331  0.36315068  1
  Mo  Mo173  1  0.69192064  0.90021992  0.13073786  1
  Mo  Mo174  1  0.70232029  0.90940502  0.62421366  1
  Mo  Mo175  1  0.60550125  0.01286553  0.24300883  1
  Mo  Mo176  1  0.80139845  0.20921522  0.73386329  1
  Mo  Mo177  1  0.81962975  0.81058160  0.50275906  1
  Mo  Mo178  1  0.70622973  0.51384269  0.12562737  1
  Mo  Mo179  1  -0.00622209  0.79351753  0.50295972  1
  Mo  Mo180  1  0.80216170  0.79069796  0.24427298  1
  Mo  Mo181  1  0.10287828  0.28267066  0.39109627  1
  Mo  Mo182  1  0.00154394  -0.00748381  0.26153062  1
  Mo  Mo183  1  0.18768830  0.78871281  0.50740891  1
  Mo  Mo184  1  0.00062610  -0.00450164  0.72654219  1
  Mo  Mo185  1  0.30223176  0.88756128  0.62958329  1
  Mo  Mo186  1  0.80232976  0.60960947  0.25370884  1
  Mo  Mo187  1  0.19910730  0.59793469  0.24316735  1
  Mo  Mo188  1  0.09801712  0.69528075  0.87530239  1
  Mo  Mo189  1  0.90277610  0.89710437  0.36474083  1
  Mo  Mo190  1  0.40385002  0.00043587  0.25921668  1
  Mo  Mo191  1  0.00198952  0.78593075  0.75213020  1
  Mo  Mo192  1  0.30020626  0.90380920  0.38041916  1
  Mo  Mo193  1  0.20513438  0.38501855  0.25372280  1
  Mo  Mo194  1  0.29999010  0.10551337  0.61824492  1
  Mo  Mo195  1  0.61279474  0.81084809  0.00518706  1
  Mo  Mo196  1  0.70273130  0.69603162  0.87992350  1
  Mo  Mo197  1  0.19707967  0.80432053  0.00113467  1
  Mo  Mo198  1  0.60388855  0.20391885  0.50095961  1
  Mo  Mo199  1  0.50525115  0.30476304  0.10429063  1
