# generated using pymatgen
data_HfZrTaTiMo
_symmetry_space_group_name_H-M   'P 1'
_cell_length_a   15.20975769
_cell_length_b   15.22008440
_cell_length_c   16.83361686
_cell_angle_alpha   90.03631972
_cell_angle_beta   89.95467006
_cell_angle_gamma   89.98090865
_symmetry_Int_Tables_number   1
_chemical_formula_structural   HfZrTaTiMo
_chemical_formula_sum   'Hf40 Zr40 Ta40 Ti40 Mo40'
_cell_volume   3896.87564270
_cell_formula_units_Z   40
loop_
 _symmetry_equiv_pos_site_id
 _symmetry_equiv_pos_as_xyz
  1  'x, y, z'
loop_
 _atom_site_type_symbol
 _atom_site_label
 _atom_site_symmetry_multiplicity
 _atom_site_fract_x
 _atom_site_fract_y
 _atom_site_fract_z
 _atom_site_occupancy
  Hf  Hf0  1  0.50615500  0.71166961  0.87808888  1
  Hf  Hf1  1  0.30212861  0.08506960  0.88532352  1
  Hf  Hf2  1  0.40451800  0.81657953  0.50066377  1
  Hf  Hf3  1  0.39710156  0.61459880  0.73957769  1
  Hf  Hf4  1  0.68489201  0.08446570  0.89071322  1
  Hf  Hf5  1  0.90130313  0.51380622  0.87528412  1
  Hf  Hf6  1  0.49659604  0.08537908  0.36299478  1
  Hf  Hf7  1  0.39610069  0.59193953  0.49676741  1
  Hf  Hf8  1  0.71435055  0.89889506  0.61997034  1
  Hf  Hf9  1  0.19221841  0.41941481  0.48505474  1
  Hf  Hf10  1  0.10281940  0.90183027  0.36955380  1
  Hf  Hf11  1  0.58923526  0.20741074  -0.00420240  1
  Hf  Hf12  1  0.60740518  0.20114179  0.24967418  1
  Hf  Hf13  1  0.77978131  0.40126666  0.25308160  1
  Hf  Hf14  1  0.09691248  0.31108498  0.35805985  1
  Hf  Hf15  1  0.38880430  0.38619244  0.49428673  1
  Hf  Hf16  1  0.91295718  0.31201574  0.86797074  1
  Hf  Hf17  1  0.21258624  0.80044385  0.75030538  1
  Hf  Hf18  1  0.71137290  0.70452333  0.37964269  1
  Hf  Hf19  1  0.19076292  0.38939226  0.01030676  1
  Hf  Hf20  1  0.79812405  0.39769984  -0.00113800  1
  Hf  Hf21  1  0.70316316  0.50275708  0.62354084  1
  Hf  Hf22  1  0.29534817  0.48720546  0.63450729  1
  Hf  Hf23  1  0.08280220  0.30294884  0.14756458  1
  Hf  Hf24  1  0.79359943  0.19374904  0.76445483  1
  Hf  Hf25  1  0.21151389  0.00542343  0.25241264  1
  Hf  Hf26  1  0.20282054  0.00205527  0.74267824  1
  Hf  Hf27  1  0.59024919  -0.00354872  0.74792347  1
  Hf  Hf28  1  0.80001556  0.39979078  0.49429604  1
  Hf  Hf29  1  0.69511061  0.90381620  0.37393257  1
  Hf  Hf30  1  -0.01164540  0.20268258  0.49693541  1
  Hf  Hf31  1  0.48841736  0.30295283  0.63602973  1
  Hf  Hf32  1  0.89056589  0.09264772  0.62307432  1
  Hf  Hf33  1  0.19990064  0.61621068  0.25977277  1
  Hf  Hf34  1  0.58755250  0.20059292  0.49668017  1
  Hf  Hf35  1  0.59707463  0.78944781  0.24302849  1
  Hf  Hf36  1  0.68718294  0.51008312  0.38381182  1
  Hf  Hf37  1  0.21136303  0.58370831  0.00296464  1
  Hf  Hf38  1  0.22583480  0.00053108  0.48824658  1
  Hf  Hf39  1  0.30719222  0.69654265  0.87973623  1
  Zr  Zr40  1  0.90530769  0.89490521  0.36906789  1
  Zr  Zr41  1  0.19218220  0.79566621  0.01045316  1
  Zr  Zr42  1  0.20125284  0.20767942  0.48283636  1
  Zr  Zr43  1  0.00740461  0.60031073  0.01031052  1
  Zr  Zr44  1  0.71170152  0.70158381  0.88665301  1
  Zr  Zr45  1  0.71430088  0.10459818  0.11397946  1
  Zr  Zr46  1  0.01841685  0.79166700  0.50228826  1
  Zr  Zr47  1  0.48446608  0.30394203  0.36079679  1
  Zr  Zr48  1  0.28234822  0.29999003  0.86606400  1
  Zr  Zr49  1  0.47288407  0.08672021  0.62219592  1
  Zr  Zr50  1  0.58789533  0.19223092  0.76086406  1
  Zr  Zr51  1  0.10197001  0.90914875  0.88035096  1
  Zr  Zr52  1  0.88805259  0.30516580  0.63404526  1
  Zr  Zr53  1  0.80111164  -0.01384866  0.76004650  1
  Zr  Zr54  1  0.19535374  0.18725126  0.01809525  1
  Zr  Zr55  1  0.49561290  0.50898584  0.86834936  1
  Zr  Zr56  1  0.80404356  0.61473149  0.75010156  1
  Zr  Zr57  1  0.10370334  0.09416190  0.61426212  1
  Zr  Zr58  1  0.80824952  0.01038515  0.25300058  1
  Zr  Zr59  1  0.39321122  0.21701259  0.01433929  1
  Zr  Zr60  1  0.80878265  0.19484890  -0.01682540  1
  Zr  Zr61  1  0.68948960  0.69436129  0.11716024  1
  Zr  Zr62  1  0.69453750  0.29995109  0.63033627  1
  Zr  Zr63  1  0.09893426  0.31681209  0.61997986  1
  Zr  Zr64  1  0.28295989  0.70405609  0.61426574  1
  Zr  Zr65  1  0.31380455  0.69070728  0.12236392  1
  Zr  Zr66  1  0.29658048  0.28225377  0.63681860  1
  Zr  Zr67  1  0.00843672  0.78844708  0.23820793  1
  Zr  Zr68  1  0.51139144  0.69029251  0.38468620  1
  Zr  Zr69  1  0.88963136  0.28308066  0.13466351  1
  Zr  Zr70  1  0.08622659  0.70107156  0.87432750  1
  Zr  Zr71  1  0.59254054  -0.00791887  0.50377194  1
  Zr  Zr72  1  0.49844647  0.91758404  0.89490786  1
  Zr  Zr73  1  0.48414043  0.31096327  0.86707246  1
  Zr  Zr74  1  0.90440099  0.48544906  0.12619356  1
  Zr  Zr75  1  0.00396624  0.19274002  0.74893652  1
  Zr  Zr76  1  0.90076670  0.30575508  0.36614537  1
  Zr  Zr77  1  0.61341528  0.80215038  0.74793950  1
  Zr  Zr78  1  0.79922930  0.60166493  0.24680581  1
  Zr  Zr79  1  0.21493770  0.80551579  0.25169088  1
  Ta  Ta80  1  0.30156749  0.49176028  0.86359881  1
  Ta  Ta81  1  0.59199235  0.40892040  0.00539954  1
  Ta  Ta82  1  0.70404677  0.90118933  0.11096055  1
  Ta  Ta83  1  0.81285367  0.80129461  0.49924624  1
  Ta  Ta84  1  0.30323372  0.49350262  0.35588862  1
  Ta  Ta85  1  0.90575911  0.70324131  0.62294297  1
  Ta  Ta86  1  0.20090435  0.20007496  0.25440339  1
  Ta  Ta87  1  0.79704117  0.59545865  0.00662297  1
  Ta  Ta88  1  0.60201941  0.60399588  0.74257279  1
  Ta  Ta89  1  0.38463060  0.18132659  0.48783737  1
  Ta  Ta90  1  0.79876076  0.80474702  0.23831159  1
  Ta  Ta91  1  0.39398101  0.42156363  0.01450177  1
  Ta  Ta92  1  0.50546992  0.10440813  0.12943974  1
  Ta  Ta93  1  0.50727665  0.70122990  0.61865860  1
  Ta  Ta94  1  0.78692751  0.19285691  0.48598937  1
  Ta  Ta95  1  0.08659769  0.10020905  0.36675171  1
  Ta  Ta96  1  0.39669307  0.01154342  0.02124276  1
  Ta  Ta97  1  0.90135618  0.88098792  0.87760746  1
  Ta  Ta98  1  0.58712188  0.40793434  0.50314969  1
  Ta  Ta99  1  0.68959146  0.30761763  0.12395312  1
  Ta  Ta100  1  0.10445931  0.50157760  0.14654683  1
  Ta  Ta101  1  0.68448859  0.30494289  0.37871714  1
  Ta  Ta102  1  0.10153950  0.48105048  0.87555680  1
  Ta  Ta103  1  0.50496331  0.89293168  0.11570222  1
  Ta  Ta104  1  0.81429522  0.60316063  0.50074613  1
  Ta  Ta105  1  0.69802751  0.10116058  0.62298580  1
  Ta  Ta106  1  0.07707081  0.51206174  0.35548636  1
  Ta  Ta107  1  0.70068234  0.89261016  0.90106985  1
  Ta  Ta108  1  0.40512848  -0.00892330  0.23143620  1
  Ta  Ta109  1  0.69564725  0.50182677  0.87462416  1
  Ta  Ta110  1  -0.00744667  0.80723219  0.01447762  1
  Ta  Ta111  1  0.10205819  0.10496992  0.88003074  1
  Ta  Ta112  1  0.90527398  0.50440936  0.62916937  1
  Ta  Ta113  1  0.19007811  0.59176552  0.75548485  1
  Ta  Ta114  1  0.00668180  0.41385203  0.74604360  1
  Ta  Ta115  1  0.69589240  0.31463554  0.86904390  1
  Ta  Ta116  1  0.00623751  0.59734051  0.50084448  1
  Ta  Ta117  1  0.60488431  -0.00651491  0.23560167  1
  Ta  Ta118  1  0.80391419  0.00464808  0.48996146  1
  Ta  Ta119  1  0.39221703  0.19419502  0.23946358  1
  Ti  Ti120  1  0.81013367  0.79424413  0.01197328  1
  Ti  Ti121  1  0.60076792  0.40859993  0.74831565  1
  Ti  Ti122  1  0.00322456  -0.00400186  0.49897635  1
  Ti  Ti123  1  0.91603920  0.09772458  0.12393156  1
  Ti  Ti124  1  0.11939640  0.88680532  0.61681072  1
  Ti  Ti125  1  0.09772866  0.09711492  0.13790079  1
  Ti  Ti126  1  0.91636166  0.68773780  0.37050940  1
  Ti  Ti127  1  0.49653042  0.31871681  0.13735220  1
  Ti  Ti128  1  0.30361966  0.89394917  0.89141706  1
  Ti  Ti129  1  0.90366667  0.90835811  0.12965523  1
  Ti  Ti130  1  0.90337932  0.69627635  0.12825185  1
  Ti  Ti131  1  0.41659971  0.60466744  0.25389716  1
  Ti  Ti132  1  0.39180646  -0.02398019  0.74949496  1
  Ti  Ti133  1  0.91425977  0.08326954  0.87595082  1
  Ti  Ti134  1  0.09876810  0.90754588  0.12662068  1
  Ti  Ti135  1  0.70931868  0.70020837  0.61723959  1
  Ti  Ti136  1  0.79745215  0.19403469  0.27026509  1
  Ti  Ti137  1  0.19267315  0.19529109  0.75200468  1
  Ti  Ti138  1  0.29287638  0.30922641  0.14456592  1
  Ti  Ti139  1  0.58586296  0.59739386  0.00688722  1
  Ti  Ti140  1  -0.00649518  0.41501840  0.49569689  1
  Ti  Ti141  1  0.39064201  0.17488545  0.75830777  1
  Ti  Ti142  1  0.10148032  0.51856834  0.62368901  1
  Ti  Ti143  1  0.49900794  0.89373137  0.36567380  1
  Ti  Ti144  1  0.60722508  0.79566581  0.50707883  1
  Ti  Ti145  1  0.29768847  0.90522228  0.11536930  1
  Ti  Ti146  1  0.91055214  0.89754291  0.62208898  1
  Ti  Ti147  1  0.21694921  0.79859529  0.47309013  1
  Ti  Ti148  1  0.40204531  0.79721088  0.24906943  1
  Ti  Ti149  1  0.00374435  0.60854966  0.74742576  1
  Ti  Ti150  1  0.49954276  0.50133725  0.62796403  1
  Ti  Ti151  1  0.00562246  0.21127771  -0.00385288  1
  Ti  Ti152  1  0.19305060  0.61204665  0.47552632  1
  Ti  Ti153  1  0.30644116  0.49733452  0.14494031  1
  Ti  Ti154  1  0.01152928  0.00580532  0.00414982  1
  Ti  Ti155  1  0.00507013  -0.00949280  0.74682892  1
  Ti  Ti156  1  0.40701734  0.79298293  0.00967014  1
  Ti  Ti157  1  0.81813785  -0.00905052  -0.00185035  1
  Ti  Ti158  1  0.00006052  0.80010715  0.74262930  1
  Ti  Ti159  1  0.50071905  0.49408958  0.36623949  1
  Mo  Mo160  1  0.59635926  0.40833750  0.24448643  1
  Mo  Mo161  1  0.39801274  0.40557722  0.74585811  1
  Mo  Mo162  1  0.90182414  0.09560835  0.38371025  1
  Mo  Mo163  1  0.79589705  0.40859613  0.76060475  1
  Mo  Mo164  1  0.18921935  0.40178524  0.74989451  1
  Mo  Mo165  1  -0.00952394  0.18325044  0.25424134  1
  Mo  Mo166  1  0.19827615  -0.00272712  0.01141698  1
  Mo  Mo167  1  -0.00261329  0.60268626  0.24033630  1
  Mo  Mo168  1  0.29551072  0.09546717  0.62685848  1
  Mo  Mo169  1  0.48703029  0.09647601  0.88363115  1
  Mo  Mo170  1  0.10170852  0.70104020  0.37478858  1
  Mo  Mo171  1  0.40175556  0.59351824  -0.00064004  1
  Mo  Mo172  1  0.60010324  0.79923702  0.00519487  1
  Mo  Mo173  1  0.00604273  0.00224518  0.24195293  1
  Mo  Mo174  1  0.50038063  0.51222076  0.13019752  1
  Mo  Mo175  1  0.32352071  0.90528351  0.36428121  1
  Mo  Mo176  1  0.40001590  0.40517299  0.24056220  1
  Mo  Mo177  1  0.60087540  0.00390281  0.01985664  1
  Mo  Mo178  1  0.30474774  0.10346758  0.35970318  1
  Mo  Mo179  1  0.69587376  0.10238310  0.37513805  1
  Mo  Mo180  1  -0.01231916  0.40583429  0.25284989  1
  Mo  Mo181  1  0.40780301  0.80678361  0.74238606  1
  Mo  Mo182  1  0.29835401  0.30214111  0.35831175  1
  Mo  Mo183  1  0.00928013  0.39557680  0.00015308  1
  Mo  Mo184  1  0.81617534  0.80512416  0.74802768  1
  Mo  Mo185  1  0.59906789  0.58877138  0.24562823  1
  Mo  Mo186  1  0.49972523  0.88822200  0.62980795  1
  Mo  Mo187  1  0.29947510  0.10242874  0.13240057  1
  Mo  Mo188  1  0.10094854  0.69724725  0.11902433  1
  Mo  Mo189  1  0.40211425  -0.00338350  0.48975899  1
  Mo  Mo190  1  0.09821035  0.69556977  0.63246377  1
  Mo  Mo191  1  0.49548983  0.69841203  0.12328972  1
  Mo  Mo192  1  0.60254029  0.59965437  0.51557463  1
  Mo  Mo193  1  0.09696198  0.29473154  0.87493558  1
  Mo  Mo194  1  0.19874193  0.40656725  0.25331785  1
  Mo  Mo195  1  0.31377383  0.69857678  0.37574895  1
  Mo  Mo196  1  0.90499898  0.70793919  0.88317701  1
  Mo  Mo197  1  0.89377808  0.51011895  0.37778653  1
  Mo  Mo198  1  0.30639292  0.90801315  0.62315601  1
  Mo  Mo199  1  0.69278251  0.49424608  0.11518195  1
