# generated using pymatgen
data_HfZrTaTiMo
_symmetry_space_group_name_H-M   'P 1'
_cell_length_a   15.21591116
_cell_length_b   15.21619485
_cell_length_c   16.84627557
_cell_angle_alpha   90.02509469
_cell_angle_beta   90.01026730
_cell_angle_gamma   90.05370024
_symmetry_Int_Tables_number   1
_chemical_formula_structural   HfZrTaTiMo
_chemical_formula_sum   'Hf40 Zr40 Ta40 Ti40 Mo40'
_cell_volume   3900.38687377
_cell_formula_units_Z   40
loop_
 _symmetry_equiv_pos_site_id
 _symmetry_equiv_pos_as_xyz
  1  'x, y, z'
loop_
 _atom_site_type_symbol
 _atom_site_label
 _atom_site_symmetry_multiplicity
 _atom_site_fract_x
 _atom_site_fract_y
 _atom_site_fract_z
 _atom_site_occupancy
  Hf  Hf0  1  0.79648020  0.79717415  0.49074310  1
  Hf  Hf1  1  0.92044978  0.30350953  0.14418307  1
  Hf  Hf2  1  0.40072490  0.19403368  0.72832847  1
  Hf  Hf3  1  0.19441326  0.19313431  0.73118923  1
  Hf  Hf4  1  0.88978547  0.29485305  0.36025260  1
  Hf  Hf5  1  0.20782379  -0.00150546  0.75442671  1
  Hf  Hf6  1  0.40584404  0.79143172  -0.01422491  1
  Hf  Hf7  1  0.21553491  0.38919697  0.49652646  1
  Hf  Hf8  1  0.09419943  0.49350349  0.88088231  1
  Hf  Hf9  1  -0.00424853  0.61159070  0.00094798  1
  Hf  Hf10  1  0.09369290  0.49581791  0.62278564  1
  Hf  Hf11  1  0.79665776  0.60643060  0.24407593  1
  Hf  Hf12  1  0.57880960  0.40040617  0.23802104  1
  Hf  Hf13  1  0.80281206  0.59364181  0.48415704  1
  Hf  Hf14  1  0.59935731  -0.00579983  0.27283973  1
  Hf  Hf15  1  0.62705566  0.41084216  0.74861057  1
  Hf  Hf16  1  -0.01414430  0.60618444  0.76234330  1
  Hf  Hf17  1  0.40021427  0.80697324  0.24959007  1
  Hf  Hf18  1  0.90799925  0.09979388  0.36366961  1
  Hf  Hf19  1  0.39811748  0.20862858  0.50659770  1
  Hf  Hf20  1  0.89062074  0.49524194  0.62058304  1
  Hf  Hf21  1  0.01247489  0.22516457  0.00515309  1
  Hf  Hf22  1  0.19203639  0.79459173  0.00206209  1
  Hf  Hf23  1  0.00392846  0.59993061  0.47516297  1
  Hf  Hf24  1  0.20455709  0.58765863  0.48751084  1
  Hf  Hf25  1  0.10505822  0.10095743  0.36159550  1
  Hf  Hf26  1  0.69874760  0.69174099  0.88036253  1
  Hf  Hf27  1  0.30441887  0.49399373  0.63690271  1
  Hf  Hf28  1  0.28801502  0.47669603  0.11885954  1
  Hf  Hf29  1  0.69148554  0.68497702  0.63266692  1
  Hf  Hf30  1  -0.00776720  0.80519036  0.00688037  1
  Hf  Hf31  1  0.30517159  0.07916164  0.60950259  1
  Hf  Hf32  1  0.71086159  0.11333560  0.37196541  1
  Hf  Hf33  1  0.39266458  0.21382160  0.26139853  1
  Hf  Hf34  1  0.89173327  0.90060264  0.87333368  1
  Hf  Hf35  1  -0.00657040  0.58984912  0.25859804  1
  Hf  Hf36  1  0.29496063  0.68686870  0.13179457  1
  Hf  Hf37  1  0.31875371  0.88283529  0.61505400  1
  Hf  Hf38  1  0.28985980  0.48858117  0.86596824  1
  Hf  Hf39  1  0.70367863  0.49118839  0.89817491  1
  Zr  Zr40  1  0.51249948  0.51828349  0.63441242  1
  Zr  Zr41  1  0.68737277  0.48820080  0.37237914  1
  Zr  Zr42  1  0.39597231  0.79858956  0.77128587  1
  Zr  Zr43  1  0.68743387  0.89216402  0.62578224  1
  Zr  Zr44  1  0.80968658  0.19690121  0.01108147  1
  Zr  Zr45  1  0.09191971  0.48678670  0.12104470  1
  Zr  Zr46  1  0.90532925  0.10529818  0.87527143  1
  Zr  Zr47  1  0.18396156  0.18977506  0.51012059  1
  Zr  Zr48  1  0.10693288  0.90604785  0.61881762  1
  Zr  Zr49  1  0.91257835  0.10962968  0.61761871  1
  Zr  Zr50  1  0.40653465  -0.00811273  0.75915215  1
  Zr  Zr51  1  0.09871709  0.11130160  0.13892421  1
  Zr  Zr52  1  0.49788560  0.10145898  0.13290288  1
  Zr  Zr53  1  0.19781017  0.79407394  0.75776249  1
  Zr  Zr54  1  0.42073058  0.38877656  0.75714641  1
  Zr  Zr55  1  0.80178523  -0.00590856  0.49332010  1
  Zr  Zr56  1  0.58012091  0.00603998  0.48726354  1
  Zr  Zr57  1  0.79465322  0.40719388  0.24403535  1
  Zr  Zr58  1  -0.00316391  0.00982999  0.01356901  1
  Zr  Zr59  1  0.59533794  0.20916780  0.26348581  1
  Zr  Zr60  1  0.21236413  0.21098986  0.01119707  1
  Zr  Zr61  1  0.30226318  0.89981422  0.11939678  1
  Zr  Zr62  1  0.59497766  0.59706895  0.24036695  1
  Zr  Zr63  1  0.10116964  0.69762833  0.62567496  1
  Zr  Zr64  1  0.50207591  0.11383995  0.87300475  1
  Zr  Zr65  1  0.60469174  0.19262117  0.00704953  1
  Zr  Zr66  1  0.40477135  0.00556860  -0.01016231  1
  Zr  Zr67  1  0.51406175  0.90345760  0.12341658  1
  Zr  Zr68  1  0.69753646  0.11074773  0.61566526  1
  Zr  Zr69  1  0.90087810  0.69746983  0.62259667  1
  Zr  Zr70  1  0.20136825  0.78908615  0.49289777  1
  Zr  Zr71  1  0.70333336  0.09693262  0.86975749  1
  Zr  Zr72  1  0.59717856  0.60819823  0.49535436  1
  Zr  Zr73  1  0.21518022  -0.00417270  0.25069667  1
  Zr  Zr74  1  0.58762463  0.79920421  0.76275819  1
  Zr  Zr75  1  0.29930297  0.69412048  0.36077211  1
  Zr  Zr76  1  0.79856970  0.21512910  0.74673466  1
  Zr  Zr77  1  0.39156897  0.39205195  -0.01508146  1
  Zr  Zr78  1  0.90259458  0.89548192  0.62857885  1
  Zr  Zr79  1  0.00658106  0.00856825  0.75126393  1
  Ta  Ta80  1  0.59648640  0.80745387  0.48223274  1
  Ta  Ta81  1  0.01099339  0.00538069  0.49270605  1
  Ta  Ta82  1  -0.00709271  -0.01018890  0.24304388  1
  Ta  Ta83  1  0.79090339  -0.00719723  0.00910073  1
  Ta  Ta84  1  0.39964789  0.59283815  0.49517650  1
  Ta  Ta85  1  0.90084626  0.31502410  0.87776695  1
  Ta  Ta86  1  0.70167556  0.08962415  0.14178869  1
  Ta  Ta87  1  0.49769688  0.69651567  0.36748561  1
  Ta  Ta88  1  0.59197517  0.38882503  0.00757538  1
  Ta  Ta89  1  0.00539793  0.21364179  0.75240801  1
  Ta  Ta90  1  0.89236340  0.50245156  0.88715171  1
  Ta  Ta91  1  0.09706215  0.90907218  0.88335650  1
  Ta  Ta92  1  0.69942858  0.70492726  0.36623339  1
  Ta  Ta93  1  0.60534959  0.79870948  0.25635324  1
  Ta  Ta94  1  0.59751983  0.21727810  0.49168318  1
  Ta  Ta95  1  0.78483535  0.58031220  0.75463041  1
  Ta  Ta96  1  0.70036394  0.29453317  0.12788692  1
  Ta  Ta97  1  0.48201192  0.32926910  0.38609751  1
  Ta  Ta98  1  0.59217031  0.21416228  0.73846399  1
  Ta  Ta99  1  0.69443678  0.70989490  0.12115801  1
  Ta  Ta100  1  0.71625566  0.89696791  0.13808831  1
  Ta  Ta101  1  0.60731309  0.80988746  -0.00438819  1
  Ta  Ta102  1  -0.00188631  0.39745396  0.48179243  1
  Ta  Ta103  1  -0.00678011  0.40006921  0.75081150  1
  Ta  Ta104  1  0.49588225  0.69953896  0.12254211  1
  Ta  Ta105  1  -0.00110262  0.80594234  0.48380123  1
  Ta  Ta106  1  0.11529417  0.10945580  0.88031281  1
  Ta  Ta107  1  0.59258368  0.00792727  0.73784110  1
  Ta  Ta108  1  0.69503632  0.50127469  0.10770987  1
  Ta  Ta109  1  0.09904177  0.69795389  0.14131905  1
  Ta  Ta110  1  0.09651950  0.89589402  0.36368722  1
  Ta  Ta111  1  0.41066283  0.60717826  0.76468108  1
  Ta  Ta112  1  0.39860934  0.57794117  0.24890028  1
  Ta  Ta113  1  0.48748104  0.49969404  0.11116445  1
  Ta  Ta114  1  0.31162958  0.68541989  0.62627391  1
  Ta  Ta115  1  0.40622105  0.20953821  0.00307450  1
  Ta  Ta116  1  0.90186305  0.30735685  0.61649635  1
  Ta  Ta117  1  0.80221020  0.78721825  0.75909801  1
  Ta  Ta118  1  0.29923174  0.27742546  0.86406391  1
  Ta  Ta119  1  0.79398148  -0.00539017  0.74289194  1
  Ti  Ti120  1  0.08470218  0.29745785  0.61697993  1
  Ti  Ti121  1  0.30699435  0.10375818  0.12875186  1
  Ti  Ti122  1  0.10494903  0.30480407  0.87131440  1
  Ti  Ti123  1  0.59327191  0.40560966  0.50785842  1
  Ti  Ti124  1  0.40543385  0.01386180  0.27892262  1
  Ti  Ti125  1  0.09903302  0.89401769  0.13397772  1
  Ti  Ti126  1  0.69835118  0.29856141  0.88056535  1
  Ti  Ti127  1  0.19552574  0.38431924  0.73939557  1
  Ti  Ti128  1  -0.00129211  0.80136475  0.76210876  1
  Ti  Ti129  1  0.29040861  0.90708969  0.88802445  1
  Ti  Ti130  1  0.49305526  0.72107109  0.62279810  1
  Ti  Ti131  1  0.21877850  0.39335285  0.26868930  1
  Ti  Ti132  1  -0.00777819  0.80323282  0.24722821  1
  Ti  Ti133  1  0.10265051  0.70424203  0.35439276  1
  Ti  Ti134  1  0.80200342  0.21125185  0.49760776  1
  Ti  Ti135  1  0.30250283  0.89775868  0.37721618  1
  Ti  Ti136  1  0.20292399  0.21198577  0.24891797  1
  Ti  Ti137  1  0.70606371  0.31767493  0.61805678  1
  Ti  Ti138  1  0.01879752  0.39982618  0.26804992  1
  Ti  Ti139  1  0.80597427  0.39133087  0.01314248  1
  Ti  Ti140  1  0.09590925  0.70210014  0.87634586  1
  Ti  Ti141  1  0.89016131  0.09765478  0.14666520  1
  Ti  Ti142  1  0.58933994  0.60657521  0.00711709  1
  Ti  Ti143  1  0.19671273  0.59823210  0.75066348  1
  Ti  Ti144  1  0.80001593  0.80186107  -0.00116489  1
  Ti  Ti145  1  0.20408483  -0.00853774  0.48587386  1
  Ti  Ti146  1  0.09875669  0.29305041  0.37631200  1
  Ti  Ti147  1  0.51157389  0.50480253  0.87979527  1
  Ti  Ti148  1  0.89220693  0.71617893  0.13300903  1
  Ti  Ti149  1  0.89660939  0.50462164  0.11555287  1
  Ti  Ti150  1  0.19669706  0.58001751  0.25909836  1
  Ti  Ti151  1  0.39554958  0.59597585  -0.00800778  1
  Ti  Ti152  1  0.89892267  0.71125535  0.36394226  1
  Ti  Ti153  1  0.19810787  0.00676156  0.00397217  1
  Ti  Ti154  1  0.41127445  0.80074039  0.48827250  1
  Ti  Ti155  1  0.19701311  0.59439164  0.00084771  1
  Ti  Ti156  1  0.29049403  0.68686570  0.87903439  1
  Ti  Ti157  1  0.79580128  0.39743111  0.48770680  1
  Ti  Ti158  1  0.80093791  0.61184720  0.00954094  1
  Ti  Ti159  1  0.69469726  0.90642839  0.87038635  1
  Mo  Mo160  1  0.89227715  0.69869723  0.87633229  1
  Mo  Mo161  1  0.51433983  0.30233726  0.61658262  1
  Mo  Mo162  1  0.29907957  0.30459864  0.63317831  1
  Mo  Mo163  1  0.00787093  0.20351302  0.24793211  1
  Mo  Mo164  1  0.70657188  0.89670196  0.36768357  1
  Mo  Mo165  1  0.79633280  0.19940204  0.23980163  1
  Mo  Mo166  1  0.81174592  0.40131274  0.75498339  1
  Mo  Mo167  1  0.29414304  0.10257161  0.87745533  1
  Mo  Mo168  1  0.39421755  0.40078018  0.24746900  1
  Mo  Mo169  1  0.39407511  -0.00231452  0.48050591  1
  Mo  Mo170  1  0.90964692  0.89974774  0.37482165  1
  Mo  Mo171  1  0.80169162  -0.00672831  0.25608851  1
  Mo  Mo172  1  0.29988023  0.10023569  0.38658385  1
  Mo  Mo173  1  -0.00677991  0.40205185  -0.00146556  1
  Mo  Mo174  1  0.89796063  0.90201593  0.12588397  1
  Mo  Mo175  1  0.49373104  0.30479285  0.12224975  1
  Mo  Mo176  1  0.51188983  0.30424587  0.87227042  1
  Mo  Mo177  1  0.40645784  0.40351205  0.51411619  1
  Mo  Mo178  1  0.50110565  0.69158974  0.89023063  1
  Mo  Mo179  1  0.49368022  0.11288866  0.38074043  1
  Mo  Mo180  1  0.11838449  0.31599506  0.13924867  1
  Mo  Mo181  1  0.51546949  0.90629924  0.88511325  1
  Mo  Mo182  1  0.69230296  0.30452721  0.38272932  1
  Mo  Mo183  1  0.10850615  0.49249795  0.37112482  1
  Mo  Mo184  1  0.19113977  0.79440675  0.24621328  1
  Mo  Mo185  1  0.31772091  0.48367575  0.37601475  1
  Mo  Mo186  1  0.18913879  0.38801742  -0.01009193  1
  Mo  Mo187  1  0.09498576  0.09701767  0.61904718  1
  Mo  Mo188  1  -0.00779230  0.20809680  0.49404259  1
  Mo  Mo189  1  0.49175118  0.50572960  0.37841349  1
  Mo  Mo190  1  0.59699220  0.59872500  0.75945932  1
  Mo  Mo191  1  0.50578002  0.09695529  0.62074712  1
  Mo  Mo192  1  0.49486533  0.90194154  0.61718278  1
  Mo  Mo193  1  0.80277450  0.80396653  0.25548022  1
  Mo  Mo194  1  0.30209275  0.29672454  0.12867944  1
  Mo  Mo195  1  0.61530547  -0.00634747  0.00481544  1
  Mo  Mo196  1  0.90202857  0.49513110  0.37374677  1
  Mo  Mo197  1  0.49493527  0.89175884  0.36981327  1
  Mo  Mo198  1  0.71042141  0.49654490  0.61611466  1
  Mo  Mo199  1  0.29348526  0.29275118  0.38044803  1
