# generated using pymatgen
data_HfZrTaTiMo
_symmetry_space_group_name_H-M   'P 1'
_cell_length_a   15.21754055
_cell_length_b   15.20784162
_cell_length_c   16.85310266
_cell_angle_alpha   90.02444104
_cell_angle_beta   89.99305745
_cell_angle_gamma   89.93754859
_symmetry_Int_Tables_number   1
_chemical_formula_structural   HfZrTaTiMo
_chemical_formula_sum   'Hf40 Zr40 Ta40 Ti40 Mo40'
_cell_volume   3900.24253587
_cell_formula_units_Z   40
loop_
 _symmetry_equiv_pos_site_id
 _symmetry_equiv_pos_as_xyz
  1  'x, y, z'
loop_
 _atom_site_type_symbol
 _atom_site_label
 _atom_site_symmetry_multiplicity
 _atom_site_fract_x
 _atom_site_fract_y
 _atom_site_fract_z
 _atom_site_occupancy
  Hf  Hf0  1  0.49804540  0.09105794  0.87245029  1
  Hf  Hf1  1  0.89734162  0.10265705  0.62974010  1
  Hf  Hf2  1  0.91344755  0.89273601  0.63045034  1
  Hf  Hf3  1  0.10387728  0.10412591  0.61364471  1
  Hf  Hf4  1  0.50703652  0.69170537  0.60837872  1
  Hf  Hf5  1  -0.01710730  0.41925370  0.48872091  1
  Hf  Hf6  1  0.67872203  0.50567221  0.11631099  1
  Hf  Hf7  1  0.39969500  0.40094249  0.26814501  1
  Hf  Hf8  1  0.40348435  -0.00804535  0.25632358  1
  Hf  Hf9  1  0.51368607  0.09424007  0.38672871  1
  Hf  Hf10  1  0.81214195  0.18595140  -0.00928228  1
  Hf  Hf11  1  0.31188870  0.10197620  0.38944650  1
  Hf  Hf12  1  0.29335055  0.50488652  0.86718166  1
  Hf  Hf13  1  0.77150126  0.39344737  0.23935581  1
  Hf  Hf14  1  0.61194018  0.39149771  0.50888114  1
  Hf  Hf15  1  0.17568498  0.42040241  -0.00685259  1
  Hf  Hf16  1  0.29377121  0.48290501  0.13741551  1
  Hf  Hf17  1  0.60701625  0.21088108  0.24230569  1
  Hf  Hf18  1  0.38250031  0.39440002  -0.00025235  1
  Hf  Hf19  1  0.19806021  0.00653080  0.25766014  1
  Hf  Hf20  1  0.18907281  0.40364327  0.74511343  1
  Hf  Hf21  1  0.79377707  0.19066942  0.75839068  1
  Hf  Hf22  1  0.71021987  0.50031428  0.63249050  1
  Hf  Hf23  1  0.81963331  0.58957141  0.50016178  1
  Hf  Hf24  1  0.80421563  0.61375566  -0.00510050  1
  Hf  Hf25  1  0.19224880  0.81237695  0.74067799  1
  Hf  Hf26  1  0.50908070  0.87487583  0.12888783  1
  Hf  Hf27  1  -0.01661676  0.80097919  0.00399812  1
  Hf  Hf28  1  0.90005741  0.49140498  0.12947203  1
  Hf  Hf29  1  0.70808461  0.90021136  0.13728155  1
  Hf  Hf30  1  0.29804815  0.71072219  0.87053591  1
  Hf  Hf31  1  0.18123001  0.40248903  0.48666254  1
  Hf  Hf32  1  0.08911297  0.30442095  0.62443739  1
  Hf  Hf33  1  0.49760632  0.31533153  0.12963291  1
  Hf  Hf34  1  -0.00532396  -0.00939420  0.49372923  1
  Hf  Hf35  1  0.50151068  0.70225531  0.39896670  1
  Hf  Hf36  1  0.50140414  0.28697470  0.38967643  1
  Hf  Hf37  1  0.20004748  0.01433787  0.00282373  1
  Hf  Hf38  1  0.50155973  0.50018001  0.61288263  1
  Hf  Hf39  1  0.10198923  0.91364851  0.87723038  1
  Zr  Zr40  1  0.39634922  0.38858249  0.73405643  1
  Zr  Zr41  1  0.21308531  0.01103858  0.74061635  1
  Zr  Zr42  1  0.08241313  0.69608801  0.86985123  1
  Zr  Zr43  1  0.39421873  0.19377835  0.00834163  1
  Zr  Zr44  1  0.70885930  0.69954625  0.38538053  1
  Zr  Zr45  1  -0.00336426  0.21302988  0.48686429  1
  Zr  Zr46  1  0.07554618  0.51657548  0.62760471  1
  Zr  Zr47  1  0.21032749  0.80320942  0.25004456  1
  Zr  Zr48  1  0.79958024  0.39984208  -0.00735397  1
  Zr  Zr49  1  0.69512710  0.90096386  0.36612736  1
  Zr  Zr50  1  0.01098005  0.58959938  0.01822152  1
  Zr  Zr51  1  0.92658936  0.50000408  0.87481678  1
  Zr  Zr52  1  0.19821375  0.60528784  0.25027271  1
  Zr  Zr53  1  0.38702312  0.18090675  0.73193096  1
  Zr  Zr54  1  0.20262777  0.20758126  0.25917221  1
  Zr  Zr55  1  0.20707828  0.61003615  0.01517945  1
  Zr  Zr56  1  0.58007159  0.41353450  -0.01387669  1
  Zr  Zr57  1  0.38443831  0.39014617  0.50708427  1
  Zr  Zr58  1  0.88938430  0.89158850  0.36886898  1
  Zr  Zr59  1  0.20309812  -0.00314575  0.49659491  1
  Zr  Zr60  1  0.29317128  0.29600655  0.86922024  1
  Zr  Zr61  1  0.50495440  0.08997273  0.12322511  1
  Zr  Zr62  1  0.50237802  0.50498390  0.39661135  1
  Zr  Zr63  1  0.71742475  0.90545265  0.85873098  1
  Zr  Zr64  1  0.30877126  0.90766838  0.12351094  1
  Zr  Zr65  1  0.08245241  0.11214380  0.12525753  1
  Zr  Zr66  1  0.70686520  0.10367319  0.37035945  1
  Zr  Zr67  1  0.68604680  0.29097885  0.88102166  1
  Zr  Zr68  1  0.42919828  0.79444803  -0.01459534  1
  Zr  Zr69  1  0.90255619  0.27972559  0.13276810  1
  Zr  Zr70  1  0.40302799  0.59528054  0.75012529  1
  Zr  Zr71  1  0.20013967  0.80800053  0.00560860  1
  Zr  Zr72  1  0.18595032  0.21636819  0.00012917  1
  Zr  Zr73  1  0.40641018  0.80230702  0.74154173  1
  Zr  Zr74  1  0.33834490  0.70159547  0.13061808  1
  Zr  Zr75  1  0.10732166  0.32428256  0.14046469  1
  Zr  Zr76  1  0.80874678  0.60640636  0.76038773  1
  Zr  Zr77  1  0.41792975  0.59020280  -0.01315894  1
  Zr  Zr78  1  0.19598858  0.80288331  0.50270787  1
  Zr  Zr79  1  0.88422130  0.29762380  0.35896696  1
  Ta  Ta80  1  0.29452317  0.69457169  0.62161139  1
  Ta  Ta81  1  0.80258190  0.39510921  0.76435922  1
  Ta  Ta82  1  0.90257568  0.07715203  0.86401131  1
  Ta  Ta83  1  0.80047103  0.39094235  0.50010774  1
  Ta  Ta84  1  0.28603394  0.50490815  0.61600418  1
  Ta  Ta85  1  0.51998192  0.89708702  0.86340954  1
  Ta  Ta86  1  0.69337637  0.50791398  0.87062551  1
  Ta  Ta87  1  0.91964849  0.69341983  0.36770560  1
  Ta  Ta88  1  0.89214663  0.09480276  0.36888313  1
  Ta  Ta89  1  0.29383810  0.09773582  0.87628742  1
  Ta  Ta90  1  0.80981817  -0.01104931  0.00220519  1
  Ta  Ta91  1  0.60016397  0.60501954  0.75445105  1
  Ta  Ta92  1  0.50183479  0.28220534  0.61524336  1
  Ta  Ta93  1  -0.00088463  0.00033148  0.25900014  1
  Ta  Ta94  1  0.09320079  0.89096433  0.36684888  1
  Ta  Ta95  1  0.61001025  0.82185654  0.51838868  1
  Ta  Ta96  1  0.80842084  0.79888638  0.51150996  1
  Ta  Ta97  1  0.69563534  0.29404141  0.10848243  1
  Ta  Ta98  1  0.78580527  -0.00427202  0.51206376  1
  Ta  Ta99  1  0.18458990  0.60931845  0.49276293  1
  Ta  Ta100  1  0.60923200  0.80290804  0.73067170  1
  Ta  Ta101  1  0.39738504  0.80326704  0.51118476  1
  Ta  Ta102  1  0.60016641  0.59133288  0.25728769  1
  Ta  Ta103  1  0.91117032  0.68558078  0.62803261  1
  Ta  Ta104  1  0.07964481  0.52403415  0.36765405  1
  Ta  Ta105  1  0.40070347  0.19927164  0.24899321  1
  Ta  Ta106  1  0.60979528  -0.01394954  -0.00008990  1
  Ta  Ta107  1  0.89435194  0.31016555  0.63329465  1
  Ta  Ta108  1  0.59666205  0.39780083  0.74978478  1
  Ta  Ta109  1  0.41257614  -0.01278431  0.50208015  1
  Ta  Ta110  1  0.90599808  0.89726850  0.13717240  1
  Ta  Ta111  1  0.70175262  0.29333608  0.63404427  1
  Ta  Ta112  1  0.79326952  0.20027725  0.50678910  1
  Ta  Ta113  1  0.70031846  0.49372386  0.37659435  1
  Ta  Ta114  1  0.50951217  0.07922627  0.61976815  1
  Ta  Ta115  1  0.59292890  0.19320833  0.74283164  1
  Ta  Ta116  1  0.79329964  0.60146815  0.24351403  1
  Ta  Ta117  1  0.18969754  0.20081539  0.74930356  1
  Ta  Ta118  1  0.31597904  0.91279556  0.87288990  1
  Ta  Ta119  1  -0.00216423  0.20066612  0.76181878  1
  Ti  Ti120  1  0.09423507  0.91242040  0.12940146  1
  Ti  Ti121  1  0.19803154  0.40622196  0.27718820  1
  Ti  Ti122  1  0.49028519  0.51444479  0.13633368  1
  Ti  Ti123  1  0.69408498  0.08838319  0.87525810  1
  Ti  Ti124  1  -0.00602199  0.00643682  -0.00075783  1
  Ti  Ti125  1  0.60270190  0.00124364  0.24692229  1
  Ti  Ti126  1  0.29641243  0.10865631  0.13055504  1
  Ti  Ti127  1  0.59349486  0.78237345  0.25539759  1
  Ti  Ti128  1  0.40531508  0.61300730  0.26617211  1
  Ti  Ti129  1  0.10109150  0.10725854  0.38386030  1
  Ti  Ti130  1  0.80962114  0.78553285  0.24353832  1
  Ti  Ti131  1  -0.00723179  0.37515974  0.00128805  1
  Ti  Ti132  1  0.50498811  0.89407934  0.37703772  1
  Ti  Ti133  1  0.00291712  0.78653110  0.49726796  1
  Ti  Ti134  1  0.89465753  0.08744038  0.13517109  1
  Ti  Ti135  1  0.69224625  0.70357953  0.12377538  1
  Ti  Ti136  1  -0.00862683  0.61249036  0.23487424  1
  Ti  Ti137  1  0.79315950  0.80349677  0.00304211  1
  Ti  Ti138  1  0.69764021  0.71594325  0.87008336  1
  Ti  Ti139  1  0.19316976  0.60631282  0.74560528  1
  Ti  Ti140  1  0.70852255  0.09843577  0.12264609  1
  Ti  Ti141  1  0.08151925  0.31139315  0.86660505  1
  Ti  Ti142  1  0.01218780  -0.00291133  0.74543372  1
  Ti  Ti143  1  0.31045783  0.88573504  0.37648694  1
  Ti  Ti144  1  0.00244741  0.19795428  0.26407418  1
  Ti  Ti145  1  0.59873420  0.62294111  -0.01638265  1
  Ti  Ti146  1  0.90787059  0.88788332  0.86036794  1
  Ti  Ti147  1  0.40788992  -0.00546279  -0.00097125  1
  Ti  Ti148  1  0.49107666  0.29394521  0.86815649  1
  Ti  Ti149  1  0.69410872  0.29644599  0.37674609  1
  Ti  Ti150  1  0.08779611  0.71601035  0.13213274  1
  Ti  Ti151  1  0.09166570  0.71235814  0.63099826  1
  Ti  Ti152  1  0.88688993  0.50428732  0.35670955  1
  Ti  Ti153  1  0.70886209  0.69970411  0.61880128  1
  Ti  Ti154  1  0.31091122  0.91244977  0.62565017  1
  Ti  Ti155  1  0.59630273  0.19088326  0.00238480  1
  Ti  Ti156  1  0.80799323  0.79849383  0.73855537  1
  Ti  Ti157  1  0.29673238  0.29153533  0.38665100  1
  Ti  Ti158  1  0.00232305  0.40642079  0.25885007  1
  Ti  Ti159  1  0.29743327  0.51732764  0.38736189  1
  Mo  Mo160  1  0.88790775  0.70330348  0.12852111  1
  Mo  Mo161  1  0.51829162  0.70189489  0.86118174  1
  Mo  Mo162  1  0.40726220  -0.00360474  0.74913666  1
  Mo  Mo163  1  0.20309448  0.21046323  0.49507909  1
  Mo  Mo164  1  0.60544689  -0.00615092  0.50222766  1
  Mo  Mo165  1  0.89853084  0.29202245  0.87112980  1
  Mo  Mo166  1  0.28183444  0.29039450  0.61408054  1
  Mo  Mo167  1  0.09991372  0.70690516  0.36904444  1
  Mo  Mo168  1  0.30504811  0.69930302  0.38566214  1
  Mo  Mo169  1  0.00372437  0.60808654  0.75145723  1
  Mo  Mo170  1  0.09434629  0.31129993  0.36614163  1
  Mo  Mo171  1  0.50341065  0.89836353  0.62987558  1
  Mo  Mo172  1  0.52242831  0.68384332  0.12989778  1
  Mo  Mo173  1  0.61105520  0.19125573  0.51346762  1
  Mo  Mo174  1  0.09664631  0.10344369  0.87121364  1
  Mo  Mo175  1  0.80232198  0.00066269  0.24262141  1
  Mo  Mo176  1  0.80666502  -0.00190561  0.74067236  1
  Mo  Mo177  1  0.37978480  0.60429399  0.50341348  1
  Mo  Mo178  1  0.59446780  0.40513340  0.25426492  1
  Mo  Mo179  1  0.00349708  0.80076227  0.24294947  1
  Mo  Mo180  1  0.10421102  0.50298816  0.86590666  1
  Mo  Mo181  1  0.40118142  0.18974473  0.51490606  1
  Mo  Mo182  1  0.89536064  0.49321437  0.63470476  1
  Mo  Mo183  1  0.30548898  0.10267901  0.60755640  1
  Mo  Mo184  1  0.79951571  0.19369574  0.23719798  1
  Mo  Mo185  1  0.88804632  0.71583802  0.87442930  1
  Mo  Mo186  1  -0.00205723  0.80011918  0.74990931  1
  Mo  Mo187  1  0.50479722  0.49132347  0.86246011  1
  Mo  Mo188  1  0.09825869  0.90182900  0.62349029  1
  Mo  Mo189  1  0.09626762  0.50488272  0.14715704  1
  Mo  Mo190  1  0.30468291  0.29757679  0.13832315  1
  Mo  Mo191  1  0.60351951  0.00471369  0.74918328  1
  Mo  Mo192  1  -0.00471052  0.19031576  -0.02734382  1
  Mo  Mo193  1  -0.00145522  0.61066570  0.49559698  1
  Mo  Mo194  1  0.61878149  0.80220318  -0.00378652  1
  Mo  Mo195  1  0.41481829  0.79377356  0.26357013  1
  Mo  Mo196  1  0.62337828  0.60473672  0.50201015  1
  Mo  Mo197  1  0.70854901  0.90682368  0.63854910  1
  Mo  Mo198  1  0.69839886  0.10240070  0.62557860  1
  Mo  Mo199  1  -0.00924736  0.39831529  0.74970595  1
