# generated using pymatgen
data_HfZrTaTiMo
_symmetry_space_group_name_H-M   'P 1'
_cell_length_a   15.22387760
_cell_length_b   15.20542361
_cell_length_c   16.82122177
_cell_angle_alpha   89.95301431
_cell_angle_beta   89.98081407
_cell_angle_gamma   89.98017272
_symmetry_Int_Tables_number   1
_chemical_formula_structural   HfZrTaTiMo
_chemical_formula_sum   'Hf40 Zr40 Ta40 Ti40 Mo40'
_cell_volume   3893.86730339
_cell_formula_units_Z   40
loop_
 _symmetry_equiv_pos_site_id
 _symmetry_equiv_pos_as_xyz
  1  'x, y, z'
loop_
 _atom_site_type_symbol
 _atom_site_label
 _atom_site_symmetry_multiplicity
 _atom_site_fract_x
 _atom_site_fract_y
 _atom_site_fract_z
 _atom_site_occupancy
  Hf  Hf0  1  0.40727224  0.39957596  0.25321959  1
  Hf  Hf1  1  0.80257935  0.80042704  0.00828479  1
  Hf  Hf2  1  0.19079783  0.59725900  0.74989622  1
  Hf  Hf3  1  0.78617575  0.20706668  0.24567034  1
  Hf  Hf4  1  0.30270660  0.70150552  0.86747232  1
  Hf  Hf5  1  -0.00677869  0.40993028  0.26873881  1
  Hf  Hf6  1  0.49471964  0.71616087  0.85943945  1
  Hf  Hf7  1  0.91324768  0.89907537  0.61688975  1
  Hf  Hf8  1  0.70764830  0.69575231  0.12526749  1
  Hf  Hf9  1  0.70480082  0.91015843  0.39291001  1
  Hf  Hf10  1  0.50865657  0.89917058  0.11839639  1
  Hf  Hf11  1  0.40663488  0.79978144  0.25087559  1
  Hf  Hf12  1  0.19599586  0.19576795  0.73303031  1
  Hf  Hf13  1  0.50301748  0.70453945  0.63312703  1
  Hf  Hf14  1  0.30906816  0.09593440  0.87381351  1
  Hf  Hf15  1  0.09172426  0.29480410  0.13333155  1
  Hf  Hf16  1  0.20527683  0.20154497  0.51785529  1
  Hf  Hf17  1  0.20793482  0.00630607  0.23489506  1
  Hf  Hf18  1  0.68875852  0.29728755  0.10368775  1
  Hf  Hf19  1  0.70146835  0.89561651  0.60641562  1
  Hf  Hf20  1  0.49650363  0.09342636  0.37641934  1
  Hf  Hf21  1  0.19764292  -0.00546648  0.01139926  1
  Hf  Hf22  1  0.20067417  0.39887491  0.51088213  1
  Hf  Hf23  1  0.78407307  0.59546999  0.74480764  1
  Hf  Hf24  1  0.58331035  0.40191884  -0.01494602  1
  Hf  Hf25  1  0.10687765  0.08613194  0.37594035  1
  Hf  Hf26  1  -0.00390007  0.19261778  0.50539755  1
  Hf  Hf27  1  0.69296919  0.50274613  0.10391997  1
  Hf  Hf28  1  0.69755440  0.12037580  0.38426134  1
  Hf  Hf29  1  0.59908209  0.59246144  0.25937103  1
  Hf  Hf30  1  -0.01175989  0.40044839  0.48737172  1
  Hf  Hf31  1  0.00606885  0.80512174  0.00409966  1
  Hf  Hf32  1  0.89026441  0.70060898  0.86940808  1
  Hf  Hf33  1  0.68954777  0.70578924  0.87590490  1
  Hf  Hf34  1  -0.00892139  0.59682675  0.75479611  1
  Hf  Hf35  1  0.79255391  0.01090988  0.73795431  1
  Hf  Hf36  1  0.50800051  0.51470139  0.85344433  1
  Hf  Hf37  1  0.60874361  0.80572152  0.25395781  1
  Hf  Hf38  1  0.00068469  -0.00446754  0.75461167  1
  Hf  Hf39  1  0.30121926  0.29984459  0.11972596  1
  Zr  Zr40  1  0.20712519  -0.00403209  0.50510671  1
  Zr  Zr41  1  -0.01002261  0.17934164  0.25007830  1
  Zr  Zr42  1  0.29767341  0.50548775  0.37394316  1
  Zr  Zr43  1  0.51377279  0.29123579  0.38079799  1
  Zr  Zr44  1  0.29919729  0.28851250  0.87290988  1
  Zr  Zr45  1  0.19060165  0.39978984  -0.01435988  1
  Zr  Zr46  1  0.89620443  0.89853805  0.86480809  1
  Zr  Zr47  1  0.78959765  0.41851858  0.26878987  1
  Zr  Zr48  1  0.30989723  0.90680851  0.37503511  1
  Zr  Zr49  1  0.31015007  0.89293082  0.63374852  1
  Zr  Zr50  1  0.09471760  0.49709308  0.13398159  1
  Zr  Zr51  1  0.49486985  0.69857798  0.38403905  1
  Zr  Zr52  1  0.30441783  0.29102374  0.37494252  1
  Zr  Zr53  1  0.41518051  0.40000676  0.50708567  1
  Zr  Zr54  1  0.09094034  0.08386013  0.62638826  1
  Zr  Zr55  1  0.69028410  0.09664929  0.86984932  1
  Zr  Zr56  1  0.10480801  0.29270588  0.36774515  1
  Zr  Zr57  1  -0.00383378  0.60054743  -0.01032874  1
  Zr  Zr58  1  0.39408514  0.60184791  0.50930415  1
  Zr  Zr59  1  0.19117055  0.39199835  0.74898980  1
  Zr  Zr60  1  0.80790750  0.00510928  -0.00683361  1
  Zr  Zr61  1  0.19556976  0.80009430  0.25517126  1
  Zr  Zr62  1  0.42978744  0.00175797  0.75595563  1
  Zr  Zr63  1  0.10178082  0.09685379  0.86850646  1
  Zr  Zr64  1  0.08705876  0.49337868  0.62213568  1
  Zr  Zr65  1  0.30064574  0.49989065  0.12735252  1
  Zr  Zr66  1  0.60725955  0.20298628  0.73373076  1
  Zr  Zr67  1  0.81071996  0.00373906  0.25772265  1
  Zr  Zr68  1  0.20346572  0.79186609  0.50290577  1
  Zr  Zr69  1  0.89092523  0.31339857  0.12801410  1
  Zr  Zr70  1  0.31456006  0.89124759  0.88081717  1
  Zr  Zr71  1  0.88867704  0.52904583  0.12465407  1
  Zr  Zr72  1  0.29876044  0.69849588  0.12203384  1
  Zr  Zr73  1  -0.01265974  0.39365542  -0.01225308  1
  Zr  Zr74  1  0.19304236  0.18825160  0.01342729  1
  Zr  Zr75  1  0.60084349  0.39375604  0.24751474  1
  Zr  Zr76  1  0.88477480  0.50137564  0.61769261  1
  Zr  Zr77  1  0.70379599  0.71092956  0.39600952  1
  Zr  Zr78  1  0.91414446  0.91736463  0.13263747  1
  Zr  Zr79  1  0.19652843  0.59582126  -0.01141292  1
  Ta  Ta80  1  0.70071718  0.69304713  0.60751763  1
  Ta  Ta81  1  0.08514326  0.69551876  0.13192586  1
  Ta  Ta82  1  0.81235137  0.79717291  0.25299363  1
  Ta  Ta83  1  0.70444648  0.90374970  0.13024606  1
  Ta  Ta84  1  0.19295534  0.60041586  0.51180999  1
  Ta  Ta85  1  0.19193057  0.80003194  0.74795122  1
  Ta  Ta86  1  0.50332703  0.90659437  0.61334827  1
  Ta  Ta87  1  0.78079374  0.39878566  0.48651037  1
  Ta  Ta88  1  0.91204181  0.88820105  0.39371625  1
  Ta  Ta89  1  0.70173721  0.30284536  0.88042407  1
  Ta  Ta90  1  0.78965738  0.39120302  0.75450363  1
  Ta  Ta91  1  0.10814480  0.89320088  0.87224728  1
  Ta  Ta92  1  0.81230327  0.01387770  0.50729677  1
  Ta  Ta93  1  0.79604890  0.79784177  0.73610893  1
  Ta  Ta94  1  0.41171681  0.18924225  0.51759035  1
  Ta  Ta95  1  0.80178709  0.20319603  -0.00588714  1
  Ta  Ta96  1  0.88495296  0.28877485  0.37815835  1
  Ta  Ta97  1  0.40110715  0.19115718  0.23819342  1
  Ta  Ta98  1  0.40980212  0.60061140  -0.00745721  1
  Ta  Ta99  1  0.39596447  0.40346291  -0.01451454  1
  Ta  Ta100  1  0.08338837  0.28819353  0.86934368  1
  Ta  Ta101  1  0.70139565  0.50762829  0.88635999  1
  Ta  Ta102  1  -0.01179942  0.18855814  -0.00024296  1
  Ta  Ta103  1  0.30871871  0.50054182  0.64008189  1
  Ta  Ta104  1  0.40855534  0.00293462  0.24017060  1
  Ta  Ta105  1  -0.01204227  0.39305578  0.75917919  1
  Ta  Ta106  1  0.40960759  0.38997499  0.75171980  1
  Ta  Ta107  1  0.69990703  0.09656034  0.11861583  1
  Ta  Ta108  1  0.59859044  0.02360735  0.51249058  1
  Ta  Ta109  1  0.89626519  0.30357977  0.62570023  1
  Ta  Ta110  1  0.49409100  0.29958167  0.11349758  1
  Ta  Ta111  1  0.31183399  0.89784164  0.11484706  1
  Ta  Ta112  1  0.79514177  0.20741632  0.51254520  1
  Ta  Ta113  1  0.30701013  0.10417740  0.37541755  1
  Ta  Ta114  1  0.50390927  0.69340934  0.11871489  1
  Ta  Ta115  1  0.50967637  0.49959208  0.64618740  1
  Ta  Ta116  1  0.30731905  0.50053231  0.85912654  1
  Ta  Ta117  1  0.50722157  0.10321480  0.11630012  1
  Ta  Ta118  1  0.08775519  0.70252434  0.38580884  1
  Ta  Ta119  1  0.09520873  0.70761997  0.86758579  1
  Ti  Ti120  1  0.60396585  0.00578348  0.24845024  1
  Ti  Ti121  1  -0.01327403  0.61098212  0.26489804  1
  Ti  Ti122  1  0.20895584  -0.00542143  0.74939143  1
  Ti  Ti123  1  0.52318252  0.90931758  0.87789136  1
  Ti  Ti124  1  0.68953432  0.49116183  0.62336700  1
  Ti  Ti125  1  0.80822998  0.59509603  0.48792519  1
  Ti  Ti126  1  0.10176509  0.88856189  0.62901432  1
  Ti  Ti127  1  0.89925925  0.70323656  0.61371290  1
  Ti  Ti128  1  -0.01650215  0.19892016  0.74106175  1
  Ti  Ti129  1  0.50412773  0.28430065  0.87100647  1
  Ti  Ti130  1  -0.00029228  0.00375318  -0.01279432  1
  Ti  Ti131  1  0.18701906  0.60108441  0.25582016  1
  Ti  Ti132  1  0.31187947  0.30193283  0.63006966  1
  Ti  Ti133  1  0.60566721  0.22494200  0.52459242  1
  Ti  Ti134  1  0.80132403  0.60971194  0.27296022  1
  Ti  Ti135  1  0.10492960  0.89065742  0.13033841  1
  Ti  Ti136  1  0.59531312  0.58324603  0.49750832  1
  Ti  Ti137  1  0.88561009  0.49205279  0.87880420  1
  Ti  Ti138  1  0.60811273  0.00151369  -0.00153045  1
  Ti  Ti139  1  0.31621993  0.08919149  0.62919005  1
  Ti  Ti140  1  0.20849513  0.19331254  0.23806695  1
  Ti  Ti141  1  0.20012449  0.40082104  0.25470382  1
  Ti  Ti142  1  0.40165164  0.59851234  0.25150837  1
  Ti  Ti143  1  0.49555252  0.50086617  0.11672306  1
  Ti  Ti144  1  0.20180750  0.79421935  0.00271600  1
  Ti  Ti145  1  0.07026941  0.08109633  0.12974208  1
  Ti  Ti146  1  0.59865898  0.80251959  -0.00059947  1
  Ti  Ti147  1  0.40234995  0.80452531  0.49978960  1
  Ti  Ti148  1  0.50952387  0.90311753  0.39115576  1
  Ti  Ti149  1  0.90267908  0.09129886  0.38302446  1
  Ti  Ti150  1  -0.00312536  0.79882108  0.25719816  1
  Ti  Ti151  1  0.41105276  -0.00103371  -0.00183167  1
  Ti  Ti152  1  0.59252066  0.19717885  0.24211198  1
  Ti  Ti153  1  0.09794476  0.51123889  0.38348815  1
  Ti  Ti154  1  0.30045824  0.69823795  0.64032028  1
  Ti  Ti155  1  0.60493090  0.81870772  0.74457264  1
  Ti  Ti156  1  0.40832784  0.19629308  -0.00053554  1
  Ti  Ti157  1  0.40865453  0.19815854  0.73950291  1
  Ti  Ti158  1  0.29195471  0.69583549  0.37438008  1
  Ti  Ti159  1  0.08662637  0.70202260  0.62520681  1
  Mo  Mo160  1  0.60627911  -0.00481804  0.73695856  1
  Mo  Mo161  1  0.69653704  0.29563137  0.37925044  1
  Mo  Mo162  1  0.80502769  0.79778931  0.51082015  1
  Mo  Mo163  1  0.09269658  0.49564205  0.86593942  1
  Mo  Mo164  1  0.50416618  0.10326690  0.62244666  1
  Mo  Mo165  1  0.40311991  0.80514604  0.74516482  1
  Mo  Mo166  1  0.59298371  0.80356754  0.50385007  1
  Mo  Mo167  1  0.00087195  0.79240965  0.74449668  1
  Mo  Mo168  1  0.89779769  0.10151785  0.62052300  1
  Mo  Mo169  1  0.89192088  0.28883617  0.86696541  1
  Mo  Mo170  1  0.01287603  -0.02000160  0.26743631  1
  Mo  Mo171  1  0.58992924  0.60960968  -0.00060361  1
  Mo  Mo172  1  0.59976865  0.40821537  0.50165028  1
  Mo  Mo173  1  0.49893357  0.50284004  0.37456290  1
  Mo  Mo174  1  0.10087216  0.89454377  0.37266952  1
  Mo  Mo175  1  0.00843276  0.79607417  0.50484353  1
  Mo  Mo176  1  0.31828659  0.09440098  0.11767068  1
  Mo  Mo177  1  0.61094851  0.61034455  0.73901241  1
  Mo  Mo178  1  0.79719017  0.60406637  -0.00644737  1
  Mo  Mo179  1  0.50159872  0.10231886  0.88407295  1
  Mo  Mo180  1  0.40926485  0.79688847  0.00501286  1
  Mo  Mo181  1  0.79552138  0.40171666  -0.01202085  1
  Mo  Mo182  1  0.70413992  0.31821294  0.62666240  1
  Mo  Mo183  1  0.69526129  0.89192110  0.86724511  1
  Mo  Mo184  1  0.89983978  0.50700589  0.38429701  1
  Mo  Mo185  1  0.90264710  0.11403493  0.86992067  1
  Mo  Mo186  1  0.39668321  0.60085871  0.74223267  1
  Mo  Mo187  1  0.00478182  -0.00618760  0.49199372  1
  Mo  Mo188  1  0.00189080  0.60428241  0.49934043  1
  Mo  Mo189  1  0.50187547  0.31010646  0.63205606  1
  Mo  Mo190  1  0.40552121  0.00214528  0.50143466  1
  Mo  Mo191  1  0.60813339  0.40504915  0.76376944  1
  Mo  Mo192  1  0.59491605  0.19414875  -0.00544066  1
  Mo  Mo193  1  0.68974622  0.50541164  0.38564686  1
  Mo  Mo194  1  0.80651412  0.20773884  0.74103130  1
  Mo  Mo195  1  0.08761497  0.29776060  0.62938331  1
  Mo  Mo196  1  0.90287753  0.70698975  0.13579035  1
  Mo  Mo197  1  0.70506377  0.10780560  0.61761211  1
  Mo  Mo198  1  0.90182403  0.70401998  0.38414807  1
  Mo  Mo199  1  0.89015862  0.11125374  0.11896638  1
