# generated using pymatgen
data_HfZrTaTiMo
_symmetry_space_group_name_H-M   'P 1'
_cell_length_a   15.21579058
_cell_length_b   15.21892483
_cell_length_c   16.82069809
_cell_angle_alpha   90.03852238
_cell_angle_beta   90.00176413
_cell_angle_gamma   89.96058762
_symmetry_Int_Tables_number   1
_chemical_formula_structural   HfZrTaTiMo
_chemical_formula_sum   'Hf40 Zr40 Ta40 Ti40 Mo40'
_cell_volume   3895.13315805
_cell_formula_units_Z   40
loop_
 _symmetry_equiv_pos_site_id
 _symmetry_equiv_pos_as_xyz
  1  'x, y, z'
loop_
 _atom_site_type_symbol
 _atom_site_label
 _atom_site_symmetry_multiplicity
 _atom_site_fract_x
 _atom_site_fract_y
 _atom_site_fract_z
 _atom_site_occupancy
  Hf  Hf0  1  0.59944350  -0.00994315  0.25779119  1
  Hf  Hf1  1  -0.00117805  0.41348459  0.25571453  1
  Hf  Hf2  1  -0.01563112  0.61629734  0.24143583  1
  Hf  Hf3  1  0.60071648  -0.01095297  0.50087450  1
  Hf  Hf4  1  0.89482974  0.69517865  0.63077842  1
  Hf  Hf5  1  0.71238423  0.29918817  0.62937225  1
  Hf  Hf6  1  0.40324467  -0.00268807  0.48339649  1
  Hf  Hf7  1  0.01004950  0.39490286  0.76221297  1
  Hf  Hf8  1  0.81164340  0.40339625  0.48857277  1
  Hf  Hf9  1  0.51479396  0.11426257  0.13495791  1
  Hf  Hf10  1  0.61173341  0.59640626  0.75513345  1
  Hf  Hf11  1  0.78797740  0.20619863  0.24225065  1
  Hf  Hf12  1  0.38348371  0.20120082  0.73383201  1
  Hf  Hf13  1  0.09056160  0.91511960  0.62219153  1
  Hf  Hf14  1  0.89496833  0.70294967  0.87616496  1
  Hf  Hf15  1  0.49411032  0.08748197  0.86002869  1
  Hf  Hf16  1  0.70629821  0.68502049  0.37838684  1
  Hf  Hf17  1  0.41182281  0.40381931  0.50221857  1
  Hf  Hf18  1  0.29966999  0.10964818  0.88300229  1
  Hf  Hf19  1  0.87963871  0.31307667  0.11118578  1
  Hf  Hf20  1  0.19737548  0.79931966  0.50880502  1
  Hf  Hf21  1  0.20432079  0.40470582  0.24296458  1
  Hf  Hf22  1  0.70690995  0.28422704  0.38966530  1
  Hf  Hf23  1  0.40723014  0.40157395  0.26359697  1
  Hf  Hf24  1  0.59111867  0.00235434  -0.00533249  1
  Hf  Hf25  1  0.10725647  0.30881686  0.38307666  1
  Hf  Hf26  1  0.60040641  0.78554070  0.74212856  1
  Hf  Hf27  1  0.60116892  0.78387597  0.50683808  1
  Hf  Hf28  1  0.11138037  0.90008024  0.87128462  1
  Hf  Hf29  1  0.19750379  0.02381405  0.74393381  1
  Hf  Hf30  1  0.19897812  0.40427988  -0.00017794  1
  Hf  Hf31  1  0.60709494  0.37621464  0.25252071  1
  Hf  Hf32  1  0.19543987  0.79675800  0.72887156  1
  Hf  Hf33  1  0.79199099  0.00322943  0.50189243  1
  Hf  Hf34  1  0.39924692  0.19569754  0.51171817  1
  Hf  Hf35  1  0.89969842  0.90478282  0.62827421  1
  Hf  Hf36  1  -0.00980725  0.82289179  0.26417164  1
  Hf  Hf37  1  0.81764311  -0.00947225  0.25545334  1
  Hf  Hf38  1  0.30360815  0.91482542  0.62388910  1
  Hf  Hf39  1  0.41865923  0.20223030  -0.00019385  1
  Zr  Zr40  1  0.39415233  0.81983553  -0.00803075  1
  Zr  Zr41  1  0.21384108  -0.00792628  0.00224401  1
  Zr  Zr42  1  0.40110091  0.79397647  0.74530614  1
  Zr  Zr43  1  0.31021752  0.50781637  0.85645438  1
  Zr  Zr44  1  0.10952247  0.10315560  0.12062019  1
  Zr  Zr45  1  0.50508789  0.70211651  0.12137131  1
  Zr  Zr46  1  0.89665333  0.11827579  0.38292296  1
  Zr  Zr47  1  0.49743409  0.48730315  0.12366709  1
  Zr  Zr48  1  0.28968755  0.50115354  0.38884468  1
  Zr  Zr49  1  0.59864404  0.39995386  0.75372881  1
  Zr  Zr50  1  0.70364867  0.88713156  0.88360405  1
  Zr  Zr51  1  0.79210363  0.79631721  0.74518497  1
  Zr  Zr52  1  0.29726885  0.70255654  0.12732748  1
  Zr  Zr53  1  0.60174135  0.18620208  0.52388861  1
  Zr  Zr54  1  0.09142061  0.68564567  0.38323735  1
  Zr  Zr55  1  0.18275141  0.22220053  0.74331285  1
  Zr  Zr56  1  0.39433615  0.59819856  0.25346956  1
  Zr  Zr57  1  0.60053857  0.57857050  -0.01333201  1
  Zr  Zr58  1  0.30861575  0.29608434  0.12517504  1
  Zr  Zr59  1  -0.00369842  0.18898972  0.75416135  1
  Zr  Zr60  1  0.19618163  0.79822458  0.26075110  1
  Zr  Zr61  1  0.89724654  0.29805025  0.88616032  1
  Zr  Zr62  1  0.60285399  0.78784171  0.25182645  1
  Zr  Zr63  1  0.40599791  0.81068699  0.27017676  1
  Zr  Zr64  1  0.90733053  0.10092662  0.11983550  1
  Zr  Zr65  1  0.09630860  0.12965769  0.90034303  1
  Zr  Zr66  1  0.70018873  0.89173841  0.11614935  1
  Zr  Zr67  1  0.90912339  0.50253918  0.63188493  1
  Zr  Zr68  1  0.08557018  0.29885273  0.11184287  1
  Zr  Zr69  1  0.40039053  0.40863945  -0.00864947  1
  Zr  Zr70  1  0.29136215  0.70825791  0.87204589  1
  Zr  Zr71  1  0.09931957  0.70090898  0.87450655  1
  Zr  Zr72  1  0.80462512  0.78335526  0.24499885  1
  Zr  Zr73  1  0.08625820  0.71693404  0.12274103  1
  Zr  Zr74  1  0.89993377  0.10773823  0.61683095  1
  Zr  Zr75  1  0.61096541  -0.01096900  0.74423508  1
  Zr  Zr76  1  0.70820143  0.47514592  0.11827289  1
  Zr  Zr77  1  0.50053299  0.89245478  0.62256277  1
  Zr  Zr78  1  0.10070117  0.11117274  0.37456424  1
  Zr  Zr79  1  0.90895833  0.30647182  0.62383664  1
  Ta  Ta80  1  0.48747561  0.91202077  0.12457231  1
  Ta  Ta81  1  0.20341877  0.01254489  0.49715755  1
  Ta  Ta82  1  0.71569894  0.50276150  0.62983144  1
  Ta  Ta83  1  0.69575494  0.09589434  0.37278141  1
  Ta  Ta84  1  0.50441352  0.10732879  0.37012594  1
  Ta  Ta85  1  0.48713161  0.29745116  0.85413869  1
  Ta  Ta86  1  0.59291245  0.37733540  -0.01934212  1
  Ta  Ta87  1  -0.01200836  0.80118202  0.49287519  1
  Ta  Ta88  1  0.30085893  0.10814156  0.36749010  1
  Ta  Ta89  1  0.59535815  0.79243468  -0.00334296  1
  Ta  Ta90  1  0.31586609  0.09251961  0.13179405  1
  Ta  Ta91  1  -0.00627838  0.21144762  0.25107612  1
  Ta  Ta92  1  0.60212041  0.58426164  0.51046838  1
  Ta  Ta93  1  0.50183066  0.68015598  0.38185855  1
  Ta  Ta94  1  0.09810969  0.50810689  0.12035077  1
  Ta  Ta95  1  0.29741340  0.90621808  0.13654266  1
  Ta  Ta96  1  0.69536946  0.29039860  0.86825823  1
  Ta  Ta97  1  0.20233984  0.59862623  0.00503719  1
  Ta  Ta98  1  0.01249064  0.42711304  0.48585933  1
  Ta  Ta99  1  0.00058165  0.59995137  -0.00000293  1
  Ta  Ta100  1  0.09471883  0.91051800  0.38382675  1
  Ta  Ta101  1  0.60388853  0.39578856  0.51071427  1
  Ta  Ta102  1  0.49730520  0.69422628  0.87732282  1
  Ta  Ta103  1  0.40167264  0.79453013  0.49543814  1
  Ta  Ta104  1  0.19878598  0.00034848  0.25451554  1
  Ta  Ta105  1  0.30222447  0.29384038  0.38458882  1
  Ta  Ta106  1  0.39576720  0.60325099  -0.00134704  1
  Ta  Ta107  1  0.81008454  0.00472420  0.76142900  1
  Ta  Ta108  1  0.29039006  0.31102112  0.61169535  1
  Ta  Ta109  1  0.80816641  -0.00743941  -0.01016403  1
  Ta  Ta110  1  0.69264995  0.49360742  0.37729968  1
  Ta  Ta111  1  0.59769966  0.19362812  0.73689750  1
  Ta  Ta112  1  0.79595863  0.80081663  0.50555644  1
  Ta  Ta113  1  0.90617964  0.89386939  0.11520144  1
  Ta  Ta114  1  -0.00292540  -0.00259423  -0.01205184  1
  Ta  Ta115  1  0.40416850  0.60381541  0.51335402  1
  Ta  Ta116  1  0.29827808  0.69636616  0.38986590  1
  Ta  Ta117  1  0.80814965  0.40276465  0.26728810  1
  Ta  Ta118  1  0.60124358  0.58354350  0.25186777  1
  Ta  Ta119  1  0.10360905  0.50239765  0.87505868  1
  Ti  Ti120  1  0.20617517  0.20269866  0.24766632  1
  Ti  Ti121  1  0.80801002  0.58528801  -0.00774963  1
  Ti  Ti122  1  -0.00581721  0.00039334  0.77245389  1
  Ti  Ti123  1  0.70641804  0.68300168  0.11266179  1
  Ti  Ti124  1  0.70593662  0.09018430  0.12012110  1
  Ti  Ti125  1  0.28788616  0.30166050  0.87501702  1
  Ti  Ti126  1  0.40830836  0.60073631  0.73400749  1
  Ti  Ti127  1  0.79385354  0.59062951  0.24563709  1
  Ti  Ti128  1  0.19451679  0.80061131  0.00558359  1
  Ti  Ti129  1  -0.00204363  0.00485164  0.49422865  1
  Ti  Ti130  1  -0.00974950  0.80655495  -0.00472899  1
  Ti  Ti131  1  0.29897690  0.50339492  0.62566758  1
  Ti  Ti132  1  0.29170978  0.90177768  0.37940905  1
  Ti  Ti133  1  0.31713705  0.91584472  0.85820997  1
  Ti  Ti134  1  0.10270549  0.49648620  0.62745655  1
  Ti  Ti135  1  0.50816305  0.29575401  0.38287924  1
  Ti  Ti136  1  0.40010478  0.00252231  0.26459404  1
  Ti  Ti137  1  0.89851421  0.50602111  0.12090845  1
  Ti  Ti138  1  0.80556207  0.60236915  0.50009687  1
  Ti  Ti139  1  0.78871567  0.19324935  -0.00402918  1
  Ti  Ti140  1  0.10130004  0.11925222  0.60182656  1
  Ti  Ti141  1  0.67477390  0.27745956  0.10842608  1
  Ti  Ti142  1  -0.01073306  0.41325756  -0.00928543  1
  Ti  Ti143  1  0.41125614  0.20731897  0.25386475  1
  Ti  Ti144  1  0.20570863  0.40579230  0.74815627  1
  Ti  Ti145  1  0.09865036  0.30938655  0.60056340  1
  Ti  Ti146  1  0.50379515  0.49152247  0.63189845  1
  Ti  Ti147  1  0.79741233  0.19623843  0.75574141  1
  Ti  Ti148  1  0.08783841  0.69274293  0.61856606  1
  Ti  Ti149  1  0.19301399  0.59656966  0.24833730  1
  Ti  Ti150  1  0.70053707  0.10045149  0.87286662  1
  Ti  Ti151  1  -0.00110753  0.80521823  0.75161972  1
  Ti  Ti152  1  0.70346196  0.68813445  0.88456028  1
  Ti  Ti153  1  0.19934171  0.60304056  0.73648773  1
  Ti  Ti154  1  0.90360256  0.52463950  0.37579487  1
  Ti  Ti155  1  0.18917739  0.59064479  0.50958805  1
  Ti  Ti156  1  0.09445455  0.91200870  0.12796141  1
  Ti  Ti157  1  0.00362453  0.60113032  0.75545140  1
  Ti  Ti158  1  0.70626775  0.89205715  0.37572683  1
  Ti  Ti159  1  0.48476162  0.08530187  0.63551394  1
  Mo  Mo160  1  0.49635315  0.30230295  0.63729459  1
  Mo  Mo161  1  0.51198571  0.49689613  0.38239850  1
  Mo  Mo162  1  0.70567442  0.09321773  0.63948476  1
  Mo  Mo163  1  0.90790525  0.30871905  0.37420104  1
  Mo  Mo164  1  0.20388704  0.40750568  0.50604282  1
  Mo  Mo165  1  0.10009442  0.50804768  0.37106890  1
  Mo  Mo166  1  -0.00221091  0.60629496  0.50562913  1
  Mo  Mo167  1  -0.01030590  0.20569423  0.00533923  1
  Mo  Mo168  1  0.50008196  0.88915868  0.87544541  1
  Mo  Mo169  1  0.50639549  0.30074541  0.12398564  1
  Mo  Mo170  1  0.70502468  0.68392327  0.61883453  1
  Mo  Mo171  1  0.80030940  0.78843462  0.00537882  1
  Mo  Mo172  1  -0.00343203  0.21752227  0.49530628  1
  Mo  Mo173  1  0.88961480  0.69799608  0.10745843  1
  Mo  Mo174  1  0.10348712  0.31476294  0.88969123  1
  Mo  Mo175  1  0.90577254  0.50612062  0.87311215  1
  Mo  Mo176  1  0.00690580  0.00559991  0.25227111  1
  Mo  Mo177  1  0.29112798  0.50865186  0.12502336  1
  Mo  Mo178  1  0.50203032  0.89376834  0.38075102  1
  Mo  Mo179  1  0.60310914  0.19601384  -0.01765135  1
  Mo  Mo180  1  0.79953991  0.40509065  0.76153442  1
  Mo  Mo181  1  0.88837406  0.09864287  0.88392139  1
  Mo  Mo182  1  0.20355872  0.20337645  0.49973201  1
  Mo  Mo183  1  0.90630105  0.89774986  0.87565650  1
  Mo  Mo184  1  0.29764966  0.69280914  0.61367676  1
  Mo  Mo185  1  0.50053568  0.68236464  0.62216581  1
  Mo  Mo186  1  0.39646755  0.00255932  0.74736036  1
  Mo  Mo187  1  0.78561034  0.39981481  -0.00959068  1
  Mo  Mo188  1  0.89791851  0.90478676  0.38787050  1
  Mo  Mo189  1  0.28898719  0.10391739  0.61524519  1
  Mo  Mo190  1  0.21176358  0.20834433  0.00685462  1
  Mo  Mo191  1  0.71041448  0.89429568  0.62377159  1
  Mo  Mo192  1  0.89051257  0.70432541  0.38360295  1
  Mo  Mo193  1  0.79834646  0.20170868  0.50329697  1
  Mo  Mo194  1  0.71341057  0.48719545  0.87566307  1
  Mo  Mo195  1  0.39336702  0.39880812  0.73465190  1
  Mo  Mo196  1  0.49751003  0.50169148  0.86642495  1
  Mo  Mo197  1  0.40398708  0.00261110  0.00696836  1
  Mo  Mo198  1  0.60108377  0.19329890  0.25580083  1
  Mo  Mo199  1  0.80485512  0.58813807  0.76372721  1
