# generated using pymatgen
data_HfZrTaTiMo
_symmetry_space_group_name_H-M   'P 1'
_cell_length_a   15.19586305
_cell_length_b   15.19110541
_cell_length_c   16.80352351
_cell_angle_alpha   90.02965931
_cell_angle_beta   89.99023652
_cell_angle_gamma   90.04283249
_symmetry_Int_Tables_number   1
_chemical_formula_structural   HfZrTaTiMo
_chemical_formula_sum   'Hf40 Zr40 Ta40 Ti40 Mo40'
_cell_volume   3878.95659830
_cell_formula_units_Z   40
loop_
 _symmetry_equiv_pos_site_id
 _symmetry_equiv_pos_as_xyz
  1  'x, y, z'
loop_
 _atom_site_type_symbol
 _atom_site_label
 _atom_site_symmetry_multiplicity
 _atom_site_fract_x
 _atom_site_fract_y
 _atom_site_fract_z
 _atom_site_occupancy
  Hf  Hf0  1  0.89273857  0.08310125  0.87725589  1
  Hf  Hf1  1  0.71493669  0.90431212  0.86644961  1
  Hf  Hf2  1  0.40783857  0.79581790  0.75231499  1
  Hf  Hf3  1  0.21272592  0.18416776  0.24746305  1
  Hf  Hf4  1  0.29141320  0.68937037  0.37643686  1
  Hf  Hf5  1  0.49064335  0.50216069  0.37996042  1
  Hf  Hf6  1  0.29232031  0.30408037  0.62334499  1
  Hf  Hf7  1  0.29474839  0.10131148  0.88371195  1
  Hf  Hf8  1  0.38938034  0.41485472  0.24099529  1
  Hf  Hf9  1  0.09904900  0.29540145  0.13648226  1
  Hf  Hf10  1  0.29960713  0.69354314  0.88871484  1
  Hf  Hf11  1  0.69934241  0.90212571  0.36992697  1
  Hf  Hf12  1  -0.00051843  0.40884815  0.25731617  1
  Hf  Hf13  1  0.88521181  0.51653934  0.36881732  1
  Hf  Hf14  1  0.39174857  0.41017266  0.76797718  1
  Hf  Hf15  1  0.27610115  0.31536325  0.88778667  1
  Hf  Hf16  1  0.41021519  -0.00158232  0.00167708  1
  Hf  Hf17  1  0.80204912  0.00415655  0.73749374  1
  Hf  Hf18  1  0.50276481  0.49906539  0.62485081  1
  Hf  Hf19  1  0.59488353  0.79597274  0.48964738  1
  Hf  Hf20  1  0.50264784  0.89913399  0.62364600  1
  Hf  Hf21  1  0.49195213  0.10288201  0.36980677  1
  Hf  Hf22  1  0.10814099  0.49570715  0.12551351  1
  Hf  Hf23  1  0.11713505  0.52683004  0.36554301  1
  Hf  Hf24  1  0.49820758  0.50386729  0.10479864  1
  Hf  Hf25  1  0.89931610  0.31096077  0.62614655  1
  Hf  Hf26  1  0.50512298  0.90276835  0.13196272  1
  Hf  Hf27  1  0.89981959  0.89877563  0.38025098  1
  Hf  Hf28  1  0.29917430  0.89232781  0.87524473  1
  Hf  Hf29  1  0.89735914  0.11124878  0.62202309  1
  Hf  Hf30  1  0.00467935  0.00450037  0.25009069  1
  Hf  Hf31  1  0.78645820  0.21596653  0.49974333  1
  Hf  Hf32  1  -0.00673390  0.20136485  0.00153581  1
  Hf  Hf33  1  0.49776933  0.29384543  0.63254512  1
  Hf  Hf34  1  0.11340440  0.50016017  0.62164600  1
  Hf  Hf35  1  0.41067430  0.00669020  0.76248933  1
  Hf  Hf36  1  0.71002648  0.68929011  0.36868623  1
  Hf  Hf37  1  0.18557875  0.21499192  0.75663833  1
  Hf  Hf38  1  0.60794437  0.60622930  -0.01067721  1
  Hf  Hf39  1  0.81074982  0.78332520  0.51779110  1
  Zr  Zr40  1  0.68662878  0.68902374  0.64243476  1
  Zr  Zr41  1  0.89982699  0.10270155  0.37180677  1
  Zr  Zr42  1  0.58671513  0.39378236  0.24484701  1
  Zr  Zr43  1  0.59517601  0.19693508  0.50342295  1
  Zr  Zr44  1  0.09654803  0.89997424  0.13074540  1
  Zr  Zr45  1  0.80332003  0.39870337  -0.00784445  1
  Zr  Zr46  1  0.30943408  0.29216393  0.37737350  1
  Zr  Zr47  1  0.69193929  0.89802639  0.62957775  1
  Zr  Zr48  1  0.81092266  0.61326377  -0.00778800  1
  Zr  Zr49  1  0.70211310  0.29889939  0.65551980  1
  Zr  Zr50  1  0.70866175  0.50192062  0.85826381  1
  Zr  Zr51  1  0.91081920  0.70740761  0.36315451  1
  Zr  Zr52  1  0.89313439  0.29495225  0.13084370  1
  Zr  Zr53  1  0.78396167  0.41093210  0.24009992  1
  Zr  Zr54  1  0.38599066  0.60404674  0.74999917  1
  Zr  Zr55  1  0.61842687  0.39856225  0.50129167  1
  Zr  Zr56  1  0.20116032  0.40153691  0.48291399  1
  Zr  Zr57  1  0.49002791  0.30116466  0.10059220  1
  Zr  Zr58  1  0.93598001  0.50031818  0.87377718  1
  Zr  Zr59  1  0.11629808  0.89582540  0.62421861  1
  Zr  Zr60  1  0.50048589  0.70353131  0.12305944  1
  Zr  Zr61  1  0.21530507  0.00395023  0.49182286  1
  Zr  Zr62  1  0.39514827  0.20558217  0.76343602  1
  Zr  Zr63  1  0.90488324  0.50118850  0.63510201  1
  Zr  Zr64  1  0.88420937  0.29961092  0.36178190  1
  Zr  Zr65  1  0.19342887  0.78506428  0.01550962  1
  Zr  Zr66  1  0.70395793  0.49397746  0.65181516  1
  Zr  Zr67  1  0.70108546  0.71256386  0.85582085  1
  Zr  Zr68  1  0.09243202  0.10318685  0.87840698  1
  Zr  Zr69  1  0.09890356  0.67646918  0.87910033  1
  Zr  Zr70  1  0.39222664  0.01164004  0.24385587  1
  Zr  Zr71  1  -0.00619326  0.40544844  0.48267643  1
  Zr  Zr72  1  0.68766422  0.29371107  0.11500013  1
  Zr  Zr73  1  0.79219109  0.00463744  0.50729936  1
  Zr  Zr74  1  0.00622557  0.61412218  0.50270214  1
  Zr  Zr75  1  -0.00161393  -0.00939114  0.73969011  1
  Zr  Zr76  1  0.30914624  0.89592364  0.62423574  1
  Zr  Zr77  1  0.08312111  0.88545647  0.87278316  1
  Zr  Zr78  1  0.00716007  0.20177185  0.49391927  1
  Zr  Zr79  1  0.19450798  -0.00445158  0.00108563  1
  Ta  Ta80  1  -0.01169506  0.20867589  0.75409520  1
  Ta  Ta81  1  0.79972317  0.80889410  0.00714859  1
  Ta  Ta82  1  0.29818948  0.09942827  0.63168746  1
  Ta  Ta83  1  0.82041643  0.80679450  0.73373821  1
  Ta  Ta84  1  0.80095522  -0.00175336  0.24121499  1
  Ta  Ta85  1  0.20815253  0.40014322  0.25218406  1
  Ta  Ta86  1  0.79808480  -0.00308472  0.01431797  1
  Ta  Ta87  1  0.51837864  0.89980262  0.87541971  1
  Ta  Ta88  1  0.30172089  0.50314175  0.61817123  1
  Ta  Ta89  1  0.50089173  0.29742490  0.37478449  1
  Ta  Ta90  1  0.60933914  0.81069902  0.00149566  1
  Ta  Ta91  1  0.89082828  0.70492659  0.13804221  1
  Ta  Ta92  1  0.59695794  0.79664886  0.25929924  1
  Ta  Ta93  1  0.10659194  0.10813535  0.62854903  1
  Ta  Ta94  1  0.01403897  0.80195964  0.50881138  1
  Ta  Ta95  1  0.01100385  0.60497888  0.01627278  1
  Ta  Ta96  1  0.09578267  0.30384658  0.62593019  1
  Ta  Ta97  1  0.69669399  0.10703090  0.35925792  1
  Ta  Ta98  1  0.59995326  0.60067818  0.49955076  1
  Ta  Ta99  1  0.00826840  -0.00076664  0.50338488  1
  Ta  Ta100  1  0.61307496  0.00575450  0.00437582  1
  Ta  Ta101  1  0.58921981  0.00363586  0.49320970  1
  Ta  Ta102  1  0.10341348  0.88803488  0.37139570  1
  Ta  Ta103  1  0.39088663  0.18142877  0.50441076  1
  Ta  Ta104  1  0.09761256  0.10059040  0.12611634  1
  Ta  Ta105  1  0.30245316  0.10890876  0.11265464  1
  Ta  Ta106  1  0.20385959  -0.00023597  0.75238462  1
  Ta  Ta107  1  0.09800542  0.28805262  0.35548272  1
  Ta  Ta108  1  0.90193714  0.50763832  0.12404706  1
  Ta  Ta109  1  -0.01430474  0.79451714  0.01410981  1
  Ta  Ta110  1  0.19974787  0.77771824  0.74952811  1
  Ta  Ta111  1  0.30327524  0.89560158  0.13407745  1
  Ta  Ta112  1  0.40695996  0.21280125  0.23676474  1
  Ta  Ta113  1  0.78727479  0.18689803  -0.00820399  1
  Ta  Ta114  1  0.58833084  0.19176349  0.77265146  1
  Ta  Ta115  1  0.70023607  0.89516290  0.13651966  1
  Ta  Ta116  1  0.59937677  0.59567303  0.24798280  1
  Ta  Ta117  1  0.22985328  0.59854967  0.22883352  1
  Ta  Ta118  1  0.68066828  0.10375086  0.64075724  1
  Ta  Ta119  1  0.29666743  0.89840895  0.36329868  1
  Ti  Ti120  1  0.19318274  0.20628197  0.00666777  1
  Ti  Ti121  1  0.49912127  0.70621249  0.88383808  1
  Ti  Ti122  1  0.90385096  0.29344216  0.88024664  1
  Ti  Ti123  1  0.39497627  0.78598966  0.25069980  1
  Ti  Ti124  1  0.49328605  0.09255483  0.62556509  1
  Ti  Ti125  1  0.19754183  0.79114993  0.24142162  1
  Ti  Ti126  1  0.39060947  0.80326293  0.49154812  1
  Ti  Ti127  1  0.82196612  0.38852106  0.76850417  1
  Ti  Ti128  1  0.39641063  0.20492862  -0.00947474  1
  Ti  Ti129  1  0.69416032  0.49625751  0.37391519  1
  Ti  Ti130  1  0.58548021  0.39147488  0.77988018  1
  Ti  Ti131  1  0.02497055  0.59965619  0.74331841  1
  Ti  Ti132  1  0.50832365  0.10930296  0.11960281  1
  Ti  Ti133  1  0.89694933  0.10176702  0.12978934  1
  Ti  Ti134  1  -0.01440174  -0.01030628  0.00942439  1
  Ti  Ti135  1  0.28557463  0.69709075  0.61222617  1
  Ti  Ti136  1  0.59712697  0.19735455  -0.02380085  1
  Ti  Ti137  1  0.49093104  0.89814522  0.37083269  1
  Ti  Ti138  1  0.82827556  0.61341674  0.75393105  1
  Ti  Ti139  1  0.59829562  0.00484541  0.24996034  1
  Ti  Ti140  1  0.49750792  0.69599524  0.37200275  1
  Ti  Ti141  1  0.39673013  0.59970153  0.50120171  1
  Ti  Ti142  1  0.19738872  0.19743316  0.49516792  1
  Ti  Ti143  1  0.69856892  0.10381780  0.13508818  1
  Ti  Ti144  1  0.70010578  0.70254758  0.13513015  1
  Ti  Ti145  1  0.79219132  0.58390780  0.51115579  1
  Ti  Ti146  1  0.40347338  0.39449683  0.50019864  1
  Ti  Ti147  1  0.40452029  0.80128059  0.00440881  1
  Ti  Ti148  1  0.11043385  0.09162100  0.36850919  1
  Ti  Ti149  1  0.69499325  0.09446312  0.86640541  1
  Ti  Ti150  1  0.91031097  0.72095014  0.87285865  1
  Ti  Ti151  1  0.01192501  0.61131650  0.23942453  1
  Ti  Ti152  1  0.48982120  0.70112438  0.61691879  1
  Ti  Ti153  1  0.57530619  0.59948811  0.76340052  1
  Ti  Ti154  1  -0.00475931  0.80429363  0.24097673  1
  Ti  Ti155  1  0.28822730  0.50788629  0.89878346  1
  Ti  Ti156  1  0.59851580  0.39751411  -0.02723587  1
  Ti  Ti157  1  0.00023027  0.78846105  0.72816052  1
  Ti  Ti158  1  0.69123157  0.29501279  0.36084280  1
  Ti  Ti159  1  0.70201144  0.51016350  0.11637855  1
  Mo  Mo160  1  0.00296310  0.19362690  0.24809459  1
  Mo  Mo161  1  0.90783512  0.89993239  0.60885876  1
  Mo  Mo162  1  0.58948565  0.19530147  0.24566787  1
  Mo  Mo163  1  0.39895302  0.40540653  -0.01592246  1
  Mo  Mo164  1  0.30758036  0.50035527  0.37807212  1
  Mo  Mo165  1  0.29543095  0.30136929  0.11298131  1
  Mo  Mo166  1  0.49077455  0.50953480  0.88780074  1
  Mo  Mo167  1  0.10421638  0.71187548  0.35721573  1
  Mo  Mo168  1  0.40824020  -0.00487188  0.49466111  1
  Mo  Mo169  1  0.30038314  0.09692631  0.37654067  1
  Mo  Mo170  1  0.59438067  0.79666091  0.75322070  1
  Mo  Mo171  1  0.50381777  0.09384015  0.88962031  1
  Mo  Mo172  1  0.19870030  0.79421366  0.49046722  1
  Mo  Mo173  1  0.40158881  0.60883528  -0.00438548  1
  Mo  Mo174  1  -0.00244426  0.40134967  0.00846999  1
  Mo  Mo175  1  0.02051014  0.39094151  0.75300990  1
  Mo  Mo176  1  0.11209008  0.69600035  0.62789384  1
  Mo  Mo177  1  0.49314826  0.30070885  0.88733775  1
  Mo  Mo178  1  0.89942131  0.89063056  0.87825194  1
  Mo  Mo179  1  0.30891537  0.49686147  0.10706946  1
  Mo  Mo180  1  0.79397444  0.80294522  0.24671692  1
  Mo  Mo181  1  0.70513131  0.29147889  0.86779607  1
  Mo  Mo182  1  0.11812462  0.48579988  0.89325521  1
  Mo  Mo183  1  0.20708332  0.60650002  0.49905092  1
  Mo  Mo184  1  0.80035106  0.19925050  0.76483551  1
  Mo  Mo185  1  0.20804485  0.58679302  0.75317103  1
  Mo  Mo186  1  0.78894228  0.19095830  0.24538968  1
  Mo  Mo187  1  0.59507585  0.00245066  0.75267706  1
  Mo  Mo188  1  0.20559297  0.59727617  0.02251300  1
  Mo  Mo189  1  0.90706790  0.69450403  0.62851651  1
  Mo  Mo190  1  0.08284840  0.31653347  0.88320642  1
  Mo  Mo191  1  0.89376763  0.90371948  0.13003550  1
  Mo  Mo192  1  0.40972687  0.60365431  0.24983644  1
  Mo  Mo193  1  0.30807541  0.70143904  0.12375531  1
  Mo  Mo194  1  0.09600432  0.69737721  0.13570821  1
  Mo  Mo195  1  0.79377331  0.40788925  0.49563730  1
  Mo  Mo196  1  0.19959320  0.41361666  0.75133295  1
  Mo  Mo197  1  0.79437782  0.60204436  0.23797611  1
  Mo  Mo198  1  0.19687712  0.39592163  0.01357768  1
  Mo  Mo199  1  0.20339934  -0.00851500  0.25005829  1
