# generated using pymatgen
data_HfZrTaTiMo
_symmetry_space_group_name_H-M   'P 1'
_cell_length_a   15.20706770
_cell_length_b   15.21625283
_cell_length_c   16.83663263
_cell_angle_alpha   90.03483210
_cell_angle_beta   90.03077830
_cell_angle_gamma   90.14837947
_symmetry_Int_Tables_number   1
_chemical_formula_structural   HfZrTaTiMo
_chemical_formula_sum   'Hf40 Zr40 Ta40 Ti40 Mo40'
_cell_volume   3895.89130498
_cell_formula_units_Z   40
loop_
 _symmetry_equiv_pos_site_id
 _symmetry_equiv_pos_as_xyz
  1  'x, y, z'
loop_
 _atom_site_type_symbol
 _atom_site_label
 _atom_site_symmetry_multiplicity
 _atom_site_fract_x
 _atom_site_fract_y
 _atom_site_fract_z
 _atom_site_occupancy
  Hf  Hf0  1  0.09814018  0.69092389  0.35832270  1
  Hf  Hf1  1  0.69611767  0.71576421  0.89196460  1
  Hf  Hf2  1  0.00143975  -0.00095018  0.25123127  1
  Hf  Hf3  1  0.49724072  0.29332566  0.38378076  1
  Hf  Hf4  1  0.69744131  0.51283286  0.11565865  1
  Hf  Hf5  1  0.77259228  0.60726764  0.25985007  1
  Hf  Hf6  1  0.40194310  0.81264699  0.24536647  1
  Hf  Hf7  1  0.70008470  0.90113354  0.37329978  1
  Hf  Hf8  1  0.68819427  0.90921918  0.63418395  1
  Hf  Hf9  1  0.88991896  0.49470471  0.36431132  1
  Hf  Hf10  1  0.49384133  0.89565290  0.38377490  1
  Hf  Hf11  1  -0.00259577  0.00570905  0.49723595  1
  Hf  Hf12  1  0.70782640  0.30049233  0.13108924  1
  Hf  Hf13  1  0.90258157  0.50376519  0.62676243  1
  Hf  Hf14  1  0.10634275  0.09798514  0.13151573  1
  Hf  Hf15  1  0.19887620  0.00222613  -0.00952361  1
  Hf  Hf16  1  0.49906749  0.48293257  0.87160792  1
  Hf  Hf17  1  0.61469187  0.20531328  0.73385700  1
  Hf  Hf18  1  0.80163048  0.40221770  0.74910116  1
  Hf  Hf19  1  0.29223825  0.69485064  0.62413069  1
  Hf  Hf20  1  0.60027697  0.40985077  0.50647029  1
  Hf  Hf21  1  0.70114379  0.51446313  0.87783225  1
  Hf  Hf22  1  0.18678022  0.60274331  0.76321657  1
  Hf  Hf23  1  0.00100929  0.38928972  0.25610858  1
  Hf  Hf24  1  0.61084712  0.79179535  0.22659306  1
  Hf  Hf25  1  0.30289869  0.69702066  0.36427984  1
  Hf  Hf26  1  0.49207448  0.50121690  0.36756748  1
  Hf  Hf27  1  0.39527821  0.38996002  0.73994327  1
  Hf  Hf28  1  0.29581306  0.69336539  0.13008767  1
  Hf  Hf29  1  -0.00778616  0.79716111  0.23898685  1
  Hf  Hf30  1  0.80070385  0.80780000  0.24037793  1
  Hf  Hf31  1  0.19668806  0.80021102  0.00339285  1
  Hf  Hf32  1  0.09596633  0.30782660  0.87198411  1
  Hf  Hf33  1  0.89956945  0.50183113  0.13808493  1
  Hf  Hf34  1  0.50883768  0.08974023  0.61956487  1
  Hf  Hf35  1  0.18299168  0.59348291  -0.00219787  1
  Hf  Hf36  1  0.60565140  0.41010543  0.25030221  1
  Hf  Hf37  1  0.80853485  0.40202694  -0.00473969  1
  Hf  Hf38  1  0.70940312  0.30576457  0.36396731  1
  Hf  Hf39  1  0.22383858  0.00799224  0.27360496  1
  Zr  Zr40  1  0.39447342  0.18463812  0.26436669  1
  Zr  Zr41  1  0.09094665  0.11043271  0.86455777  1
  Zr  Zr42  1  0.79854597  0.02802396  0.50312076  1
  Zr  Zr43  1  0.79551767  0.39376870  0.50862044  1
  Zr  Zr44  1  0.19744097  -0.00417918  0.74521905  1
  Zr  Zr45  1  0.69028247  0.31030567  0.87681739  1
  Zr  Zr46  1  0.29092936  0.49238033  0.62296877  1
  Zr  Zr47  1  0.80288931  0.80421793  0.50229256  1
  Zr  Zr48  1  0.00785960  0.40495079  0.49340833  1
  Zr  Zr49  1  0.80417173  0.80738674  0.75342679  1
  Zr  Zr50  1  -0.00045010  0.78068831  0.75887496  1
  Zr  Zr51  1  0.40125775  0.78739427  0.74251773  1
  Zr  Zr52  1  0.59735452  -0.00336037  0.24318151  1
  Zr  Zr53  1  0.30392777  0.91392533  0.12477021  1
  Zr  Zr54  1  0.60853037  -0.00791656  0.01662402  1
  Zr  Zr55  1  0.49024165  0.09220677  0.13166550  1
  Zr  Zr56  1  0.60080816  0.60373385  0.50331757  1
  Zr  Zr57  1  0.19955780  0.00668317  0.49392188  1
  Zr  Zr58  1  0.51972132  0.08647901  0.86521747  1
  Zr  Zr59  1  0.70368034  0.91472850  0.87076115  1
  Zr  Zr60  1  0.40921477  0.19915014  0.74777797  1
  Zr  Zr61  1  0.20757550  0.40964094  -0.00355518  1
  Zr  Zr62  1  0.30814303  0.70379625  0.88335590  1
  Zr  Zr63  1  0.90298356  0.90627090  0.62223086  1
  Zr  Zr64  1  -0.01031714  -0.00866102  0.75655046  1
  Zr  Zr65  1  0.71618462  0.11539305  0.87822123  1
  Zr  Zr66  1  0.20178790  0.20446834  -0.00241799  1
  Zr  Zr67  1  0.28707684  0.49396328  0.36191277  1
  Zr  Zr68  1  0.40320787  -0.01679179  -0.01121926  1
  Zr  Zr69  1  0.29880024  0.10107222  0.86239533  1
  Zr  Zr70  1  0.51240302  0.69485862  0.36380895  1
  Zr  Zr71  1  0.39104665  0.58268741  -0.00063023  1
  Zr  Zr72  1  0.40866024  0.19717291  -0.00667557  1
  Zr  Zr73  1  0.62817611  0.20088939  0.50980181  1
  Zr  Zr74  1  0.50768104  0.86292938  0.87470503  1
  Zr  Zr75  1  0.00039153  -0.00647728  -0.00316425  1
  Zr  Zr76  1  0.79183139  0.60421826  0.49051434  1
  Zr  Zr77  1  0.49159621  0.89232334  0.61436605  1
  Zr  Zr78  1  0.09655256  0.89210879  0.37820532  1
  Zr  Zr79  1  0.10593129  0.30224178  0.12682086  1
  Ta  Ta80  1  0.19710546  0.80534666  0.24457622  1
  Ta  Ta81  1  0.89913171  0.10607332  0.12158387  1
  Ta  Ta82  1  0.19485446  0.80128541  0.74880037  1
  Ta  Ta83  1  0.30980551  0.31057587  0.87206529  1
  Ta  Ta84  1  0.49167494  0.29942197  0.60881820  1
  Ta  Ta85  1  0.60851700  0.79331316  0.50337657  1
  Ta  Ta86  1  0.29480353  0.89978276  0.61477182  1
  Ta  Ta87  1  0.58796830  0.60509616  0.00190049  1
  Ta  Ta88  1  0.60323391  0.20567631  0.00627470  1
  Ta  Ta89  1  0.09942167  0.88306266  0.61634864  1
  Ta  Ta90  1  0.19453094  0.78892293  0.49775745  1
  Ta  Ta91  1  0.80592720  0.00649543  0.24368351  1
  Ta  Ta92  1  0.09374498  0.51560050  0.62729377  1
  Ta  Ta93  1  0.30571075  0.10411541  0.61957804  1
  Ta  Ta94  1  0.60477998  -0.00079287  0.49442656  1
  Ta  Ta95  1  0.00377304  0.40532277  0.00145466  1
  Ta  Ta96  1  0.91112410  0.69736583  0.62078511  1
  Ta  Ta97  1  0.90567058  0.28047554  0.37906179  1
  Ta  Ta98  1  0.00210847  0.19407616  0.25329067  1
  Ta  Ta99  1  0.19209072  0.59647961  0.49541787  1
  Ta  Ta100  1  0.58816514  0.39911128  0.01078917  1
  Ta  Ta101  1  0.50984912  0.09826838  0.38097334  1
  Ta  Ta102  1  0.40137559  -0.01040431  0.74552223  1
  Ta  Ta103  1  0.40312950  0.38856621  0.00753851  1
  Ta  Ta104  1  0.89926563  0.29106101  0.87591517  1
  Ta  Ta105  1  0.00195914  0.61151473  0.49380812  1
  Ta  Ta106  1  0.39483668  0.59479843  0.50081992  1
  Ta  Ta107  1  0.49353177  0.50517927  0.62790381  1
  Ta  Ta108  1  0.40022046  0.59065068  0.75731664  1
  Ta  Ta109  1  0.09950580  0.10557921  0.62774707  1
  Ta  Ta110  1  0.00456634  0.19919142  0.50548951  1
  Ta  Ta111  1  0.50460801  0.29330780  0.13867499  1
  Ta  Ta112  1  0.29364059  0.49162562  0.14542886  1
  Ta  Ta113  1  0.20407078  0.21572409  0.73572140  1
  Ta  Ta114  1  0.90260151  0.29669436  0.12483716  1
  Ta  Ta115  1  0.59621050  0.40304438  0.73297759  1
  Ta  Ta116  1  0.19552346  0.40570651  0.75543317  1
  Ta  Ta117  1  0.30852441  0.29882660  0.13178140  1
  Ta  Ta118  1  0.08723981  0.69215489  0.12976615  1
  Ta  Ta119  1  0.80727264  0.61447503  0.75449432  1
  Ti  Ti120  1  0.09599124  0.89009278  0.87615458  1
  Ti  Ti121  1  0.48760971  0.49525475  0.13532045  1
  Ti  Ti122  1  -0.00225655  0.20529613  0.74118473  1
  Ti  Ti123  1  -0.00978258  0.20404499  0.00121927  1
  Ti  Ti124  1  0.20847451  0.21153333  0.50507380  1
  Ti  Ti125  1  0.69818429  0.51746002  0.63740041  1
  Ti  Ti126  1  0.29791445  0.10621732  0.12743782  1
  Ti  Ti127  1  0.09643340  0.11625990  0.37680675  1
  Ti  Ti128  1  0.70556933  0.10837178  0.12937090  1
  Ti  Ti129  1  0.49786682  0.68935248  0.12684475  1
  Ti  Ti130  1  0.89847187  0.09930401  0.87872559  1
  Ti  Ti131  1  -0.01072259  0.79173374  -0.00103143  1
  Ti  Ti132  1  0.50598096  0.69427120  0.62519102  1
  Ti  Ti133  1  0.09913942  0.50582887  0.14339480  1
  Ti  Ti134  1  0.39544506  0.78861940  0.49897813  1
  Ti  Ti135  1  0.90611463  0.29625396  0.61963730  1
  Ti  Ti136  1  0.91081066  0.50498680  0.87092071  1
  Ti  Ti137  1  0.09572731  0.50517182  0.35881272  1
  Ti  Ti138  1  0.20500803  0.21250070  0.26361364  1
  Ti  Ti139  1  0.79537546  0.02101238  0.74164131  1
  Ti  Ti140  1  0.08088451  0.69064327  0.88293604  1
  Ti  Ti141  1  0.39374331  0.00548323  0.48953655  1
  Ti  Ti142  1  0.10167695  0.89616375  0.12508926  1
  Ti  Ti143  1  0.19753674  0.40274781  0.49967332  1
  Ti  Ti144  1  0.00225236  0.40412768  0.74965975  1
  Ti  Ti145  1  0.89791650  0.90625792  0.37634522  1
  Ti  Ti146  1  0.89802216  0.90207503  0.11488376  1
  Ti  Ti147  1  0.38848037  0.39359417  0.50115343  1
  Ti  Ti148  1  0.88426410  0.69462810  0.11475746  1
  Ti  Ti149  1  0.70889254  0.10939404  0.36440656  1
  Ti  Ti150  1  0.81051891  0.20671383  0.73559097  1
  Ti  Ti151  1  0.89962048  0.70763669  0.37271887  1
  Ti  Ti152  1  0.81036633  0.20069831  0.24942100  1
  Ti  Ti153  1  0.80566330  0.00543909  0.00624216  1
  Ti  Ti154  1  0.39261458  0.38676878  0.25537818  1
  Ti  Ti155  1  0.59823933  0.61257548  0.75287537  1
  Ti  Ti156  1  0.30039091  0.89350413  0.87012928  1
  Ti  Ti157  1  -0.01233930  0.59196104  0.00228242  1
  Ti  Ti158  1  0.10318052  0.31143946  0.62590783  1
  Ti  Ti159  1  0.11075627  0.30472518  0.37769701  1
  Mo  Mo160  1  0.80494223  0.39394430  0.25083997  1
  Mo  Mo161  1  0.29159269  0.29515762  0.61713864  1
  Mo  Mo162  1  0.19855322  0.39265021  0.25151641  1
  Mo  Mo163  1  0.08846645  0.49949570  0.87482649  1
  Mo  Mo164  1  0.59467692  0.79679192  0.02120224  1
  Mo  Mo165  1  0.69980198  0.70249437  0.63541107  1
  Mo  Mo166  1  0.68860812  0.50093489  0.37398113  1
  Mo  Mo167  1  0.71234491  0.90938900  0.12213295  1
  Mo  Mo168  1  -0.01350508  0.60410684  0.24667879  1
  Mo  Mo169  1  0.70229145  0.70227280  0.10348286  1
  Mo  Mo170  1  0.29658412  0.49309094  0.86747590  1
  Mo  Mo171  1  0.80170963  0.81302279  0.00821706  1
  Mo  Mo172  1  0.29570761  0.30028411  0.38413492  1
  Mo  Mo173  1  0.81740247  0.20445488  0.50408864  1
  Mo  Mo174  1  0.91085630  0.11200154  0.63218492  1
  Mo  Mo175  1  0.30394079  0.11164471  0.39477902  1
  Mo  Mo176  1  0.70858387  0.10366321  0.62937938  1
  Mo  Mo177  1  0.80681237  0.20006896  0.00567612  1
  Mo  Mo178  1  0.60460682  0.78719498  0.74079917  1
  Mo  Mo179  1  -0.00873185  0.59370810  0.75324364  1
  Mo  Mo180  1  0.70647280  0.31363107  0.63039582  1
  Mo  Mo181  1  0.41187912  0.78543955  0.01309995  1
  Mo  Mo182  1  0.70076454  0.71041725  0.37281904  1
  Mo  Mo183  1  0.89270677  0.69227344  0.89098102  1
  Mo  Mo184  1  0.59058778  0.60033194  0.23722054  1
  Mo  Mo185  1  0.90242751  0.10012310  0.36749940  1
  Mo  Mo186  1  0.59705493  -0.00053854  0.74715155  1
  Mo  Mo187  1  0.30098810  0.89212282  0.38987971  1
  Mo  Mo188  1  0.49530631  0.88692900  0.12048427  1
  Mo  Mo189  1  0.40164877  0.59416241  0.24021215  1
  Mo  Mo190  1  0.19089296  0.60239161  0.24212886  1
  Mo  Mo191  1  -0.00012119  0.79400270  0.49505022  1
  Mo  Mo192  1  0.89899406  0.89204969  0.89350983  1
  Mo  Mo193  1  0.50679022  0.29846415  0.87850942  1
  Mo  Mo194  1  0.40184924  0.19553792  0.50067640  1
  Mo  Mo195  1  0.60700697  0.19655642  0.25129715  1
  Mo  Mo196  1  0.80503938  0.60265889  -0.00531397  1
  Mo  Mo197  1  0.40124607  -0.00231357  0.27008149  1
  Mo  Mo198  1  0.50858316  0.68122889  0.87637545  1
  Mo  Mo199  1  0.09777889  0.69584108  0.62156317  1
