# generated using pymatgen
data_HfZrTaTiMo
_symmetry_space_group_name_H-M   'P 1'
_cell_length_a   15.16998837
_cell_length_b   15.18358872
_cell_length_c   16.81689684
_cell_angle_alpha   89.99970578
_cell_angle_beta   90.00905380
_cell_angle_gamma   90.14164086
_symmetry_Int_Tables_number   1
_chemical_formula_structural   HfZrTaTiMo
_chemical_formula_sum   'Hf40 Zr40 Ta40 Ti40 Mo40'
_cell_volume   3873.50576501
_cell_formula_units_Z   40
loop_
 _symmetry_equiv_pos_site_id
 _symmetry_equiv_pos_as_xyz
  1  'x, y, z'
loop_
 _atom_site_type_symbol
 _atom_site_label
 _atom_site_symmetry_multiplicity
 _atom_site_fract_x
 _atom_site_fract_y
 _atom_site_fract_z
 _atom_site_occupancy
  Hf  Hf0  1  0.20003755  0.20584186  -0.01108520  1
  Hf  Hf1  1  0.41141469  0.39194769  0.75236076  1
  Hf  Hf2  1  0.29720392  0.89104080  0.38049490  1
  Hf  Hf3  1  0.79712085  0.81026337  0.27298270  1
  Hf  Hf4  1  0.70283725  0.70575741  0.60959492  1
  Hf  Hf5  1  0.00066564  0.38332397  0.75128104  1
  Hf  Hf6  1  0.20954583  0.40490314  0.75094623  1
  Hf  Hf7  1  0.49495166  0.49364139  0.88678831  1
  Hf  Hf8  1  -0.00840833  0.19656665  0.00268119  1
  Hf  Hf9  1  -0.00624543  0.80784171  0.74400203  1
  Hf  Hf10  1  0.09636933  0.90586734  0.62337175  1
  Hf  Hf11  1  0.89909002  0.28340420  0.87512089  1
  Hf  Hf12  1  0.69519501  0.50820159  0.88478067  1
  Hf  Hf13  1  0.30047709  0.47890595  0.36971677  1
  Hf  Hf14  1  0.00334559  0.81029856  0.25556616  1
  Hf  Hf15  1  -0.00060807  0.40493136  0.24740391  1
  Hf  Hf16  1  0.39448013  0.59408650  0.75046617  1
  Hf  Hf17  1  0.19007693  0.59377277  0.26144862  1
  Hf  Hf18  1  0.70371337  0.91153658  0.13431943  1
  Hf  Hf19  1  0.80719524  0.60831438  0.00056491  1
  Hf  Hf20  1  0.90043624  0.71267441  0.40166860  1
  Hf  Hf21  1  0.31768170  0.09866912  0.11246802  1
  Hf  Hf22  1  0.49510572  0.50363450  0.13303630  1
  Hf  Hf23  1  0.61301920  0.38818930  0.24234335  1
  Hf  Hf24  1  0.88624666  0.48787437  0.62364898  1
  Hf  Hf25  1  0.20154371  -0.00512728  0.25072711  1
  Hf  Hf26  1  0.60486586  0.01554839  -0.00625446  1
  Hf  Hf27  1  0.59130870  -0.00301379  0.49483272  1
  Hf  Hf28  1  0.10983789  0.71735133  0.40000663  1
  Hf  Hf29  1  0.60087218  0.61601141  0.26341927  1
  Hf  Hf30  1  0.10013088  0.09863556  0.37442606  1
  Hf  Hf31  1  0.41218234  0.60382054  0.48099923  1
  Hf  Hf32  1  0.30491378  0.70026413  0.61686303  1
  Hf  Hf33  1  0.38370689  0.59699140  0.00071494  1
  Hf  Hf34  1  0.41521608  0.37764809  0.49508326  1
  Hf  Hf35  1  0.79608846  -0.00016128  0.49555832  1
  Hf  Hf36  1  0.40542287  -0.01846455  -0.01074680  1
  Hf  Hf37  1  0.39993666  0.36187324  0.23890703  1
  Hf  Hf38  1  -0.00332942  0.60605022  0.26303459  1
  Hf  Hf39  1  0.09962950  0.69900889  0.87373178  1
  Zr  Zr40  1  0.51918402  0.90294941  0.86257821  1
  Zr  Zr41  1  0.10614839  0.89780966  0.11131200  1
  Zr  Zr42  1  0.00214242  0.20711457  0.24583402  1
  Zr  Zr43  1  -0.00470528  0.79699068  -0.00177167  1
  Zr  Zr44  1  0.80145268  0.60209342  0.26088182  1
  Zr  Zr45  1  0.08985415  0.48180794  0.38585648  1
  Zr  Zr46  1  0.90641554  0.09753871  0.63300916  1
  Zr  Zr47  1  0.10352442  0.09490107  0.11825176  1
  Zr  Zr48  1  0.00897694  0.40677364  -0.00878019  1
  Zr  Zr49  1  0.78965991  0.21632412  0.25809223  1
  Zr  Zr50  1  0.79206366  -0.02170301  0.74681862  1
  Zr  Zr51  1  0.48595888  0.10064877  0.63258715  1
  Zr  Zr52  1  0.20532264  0.78710972  0.24877317  1
  Zr  Zr53  1  0.20858836  0.59164842  0.49270133  1
  Zr  Zr54  1  0.69278760  0.71448759  0.12618693  1
  Zr  Zr55  1  0.68842571  0.11184669  0.12932963  1
  Zr  Zr56  1  0.50600209  0.48722161  0.36145064  1
  Zr  Zr57  1  0.28458101  0.48841291  0.13465086  1
  Zr  Zr58  1  0.51369833  0.50549556  0.61574318  1
  Zr  Zr59  1  0.29163013  0.08300375  0.87828043  1
  Zr  Zr60  1  -0.00426425  0.60156034  0.73647186  1
  Zr  Zr61  1  0.30467214  0.28191188  0.62612870  1
  Zr  Zr62  1  0.10997344  0.90557766  0.88077198  1
  Zr  Zr63  1  0.59356723  0.21435547  0.49277382  1
  Zr  Zr64  1  0.30752747  0.49129187  0.61320297  1
  Zr  Zr65  1  0.89208085  0.09386779  0.12991675  1
  Zr  Zr66  1  0.69147902  0.71088686  0.87634835  1
  Zr  Zr67  1  0.60979851  0.40914932  0.75027431  1
  Zr  Zr68  1  0.11093869  0.50497920  0.86670652  1
  Zr  Zr69  1  0.88808266  0.30839413  0.11576290  1
  Zr  Zr70  1  0.48708718  0.72172141  0.12885234  1
  Zr  Zr71  1  0.21218368  0.20412087  0.24322160  1
  Zr  Zr72  1  0.57359030  0.19829649  0.25556641  1
  Zr  Zr73  1  0.70627130  0.49989689  0.11718290  1
  Zr  Zr74  1  0.69051962  0.10598380  0.85495594  1
  Zr  Zr75  1  -0.00101788  0.58933664  0.50754168  1
  Zr  Zr76  1  0.90089717  0.70881509  0.12792694  1
  Zr  Zr77  1  0.31813347  0.88899506  0.12674447  1
  Zr  Zr78  1  0.69164317  0.10755881  0.63053188  1
  Zr  Zr79  1  0.30669220  0.90399744  0.62998571  1
  Ta  Ta80  1  0.10484187  0.49314915  0.62616631  1
  Ta  Ta81  1  0.49113022  0.70377794  0.87791171  1
  Ta  Ta82  1  0.89994777  0.50653713  0.87229203  1
  Ta  Ta83  1  0.90146205  0.10655058  0.37947905  1
  Ta  Ta84  1  0.00463795  0.19541462  0.50423177  1
  Ta  Ta85  1  0.11589648  0.31539099  0.11514455  1
  Ta  Ta86  1  0.89445567  0.70216820  0.60799705  1
  Ta  Ta87  1  0.19430908  0.20648679  0.76573280  1
  Ta  Ta88  1  0.60878763  0.60685448  0.47836064  1
  Ta  Ta89  1  0.40485652  0.19905121  0.76918990  1
  Ta  Ta90  1  0.80636364  0.21520397  0.49922183  1
  Ta  Ta91  1  0.07811300  0.10351283  0.86545115  1
  Ta  Ta92  1  0.79687957  0.39557677  -0.01355976  1
  Ta  Ta93  1  0.39922720  0.38568440  0.01240951  1
  Ta  Ta94  1  0.58789373  0.82298606  0.27308621  1
  Ta  Ta95  1  0.19885838  0.00636752  0.50500276  1
  Ta  Ta96  1  0.30954533  0.87456239  0.86643842  1
  Ta  Ta97  1  0.09734162  0.29004166  0.62771860  1
  Ta  Ta98  1  0.80018300  0.00528886  0.26860222  1
  Ta  Ta99  1  0.10420358  0.70496340  0.61543283  1
  Ta  Ta100  1  0.79539071  0.81705970  -0.00620668  1
  Ta  Ta101  1  0.80170993  0.40325315  0.76134894  1
  Ta  Ta102  1  0.80422349  0.00569625  -0.01282102  1
  Ta  Ta103  1  0.61262629  0.80904245  0.74028162  1
  Ta  Ta104  1  0.30159081  0.09318038  0.37817956  1
  Ta  Ta105  1  0.69605472  0.10801216  0.37712324  1
  Ta  Ta106  1  0.41252889  0.80696871  0.49556325  1
  Ta  Ta107  1  0.80439384  0.40753553  0.25645367  1
  Ta  Ta108  1  -0.00999309  0.37907645  0.51322295  1
  Ta  Ta109  1  0.89634821  0.69987515  0.87244182  1
  Ta  Ta110  1  0.41218165  0.79014232  0.74526687  1
  Ta  Ta111  1  0.58761619  0.61005565  0.00499414  1
  Ta  Ta112  1  0.50865120  0.70831953  0.61589862  1
  Ta  Ta113  1  0.10444440  0.10261935  0.63885516  1
  Ta  Ta114  1  0.20393157  0.78795285  0.74638645  1
  Ta  Ta115  1  0.51303196  0.29544363  0.62922868  1
  Ta  Ta116  1  0.30656630  0.31082309  0.88229582  1
  Ta  Ta117  1  0.39030951  0.61578168  0.26289336  1
  Ta  Ta118  1  0.22286635  0.79016412  -0.00240813  1
  Ta  Ta119  1  0.41749668  -0.00000212  0.25609001  1
  Ti  Ti120  1  0.88600265  0.88812155  0.61387274  1
  Ti  Ti121  1  -0.00615337  0.00210224  -0.00589234  1
  Ti  Ti122  1  0.19330888  0.38745917  0.25350768  1
  Ti  Ti123  1  -0.00581148  -0.00160483  0.25637024  1
  Ti  Ti124  1  0.59428287  0.61446680  0.74910862  1
  Ti  Ti125  1  0.10228279  0.29284117  0.38313119  1
  Ti  Ti126  1  0.29425863  0.68398899  0.86831572  1
  Ti  Ti127  1  0.29128538  0.09701864  0.64004442  1
  Ti  Ti128  1  0.71144715  0.31379085  0.62687941  1
  Ti  Ti129  1  0.79103707  0.59938003  0.74967905  1
  Ti  Ti130  1  0.09314623  0.50675600  0.12117072  1
  Ti  Ti131  1  0.80038620  0.78873819  0.74781138  1
  Ti  Ti132  1  0.51135207  0.91520498  0.13082287  1
  Ti  Ti133  1  0.30818985  0.27771189  0.38224726  1
  Ti  Ti134  1  0.59534269  0.81264925  -0.00034071  1
  Ti  Ti135  1  0.78155628  0.19785873  -0.00581519  1
  Ti  Ti136  1  0.09930921  0.69365412  0.11686029  1
  Ti  Ti137  1  0.59625114  0.38686396  0.01145562  1
  Ti  Ti138  1  0.39300341  0.00485179  0.50297582  1
  Ti  Ti139  1  0.68692455  0.30114640  0.87314718  1
  Ti  Ti140  1  0.18960145  0.59200355  0.00099320  1
  Ti  Ti141  1  0.70205130  0.50824051  0.61671982  1
  Ti  Ti142  1  0.09270728  0.90349511  0.39238739  1
  Ti  Ti143  1  0.51002874  0.89941581  0.62862525  1
  Ti  Ti144  1  0.42179704  0.19258293  -0.01517324  1
  Ti  Ti145  1  0.88652000  0.49341737  0.39349584  1
  Ti  Ti146  1  0.61992860  0.40501435  0.48875777  1
  Ti  Ti147  1  0.29455621  0.69189426  0.12551375  1
  Ti  Ti148  1  0.89773656  0.90665755  0.12465437  1
  Ti  Ti149  1  0.48390844  0.10885541  0.38339178  1
  Ti  Ti150  1  0.90321592  0.30468059  0.37970393  1
  Ti  Ti151  1  0.20215833  0.19211307  0.50415104  1
  Ti  Ti152  1  0.19531275  0.38324826  0.50415868  1
  Ti  Ti153  1  0.90122128  0.90532183  0.87104427  1
  Ti  Ti154  1  0.40277585  -0.00511295  0.75717751  1
  Ti  Ti155  1  0.90500748  0.50646849  0.11890628  1
  Ti  Ti156  1  0.80322749  0.21034354  0.74556968  1
  Ti  Ti157  1  0.19304057  -0.00535539  0.75347493  1
  Ti  Ti158  1  -0.00279032  0.00296596  0.50106540  1
  Ti  Ti159  1  0.60369251  0.80613525  0.48020478  1
  Mo  Mo160  1  0.20591822  0.81060250  0.50897724  1
  Mo  Mo161  1  0.70022996  0.30504391  0.11379804  1
  Mo  Mo162  1  0.79205756  0.80802625  0.49033274  1
  Mo  Mo163  1  0.39015176  0.18357545  0.25066018  1
  Mo  Mo164  1  -0.00106220  -0.00252706  0.75171570  1
  Mo  Mo165  1  0.30174079  0.50116565  0.87920261  1
  Mo  Mo166  1  0.50086275  0.10179056  0.86017684  1
  Mo  Mo167  1  0.30148253  0.29084918  0.10856365  1
  Mo  Mo168  1  0.89427961  0.29316975  0.63071272  1
  Mo  Mo169  1  0.49568167  0.29532291  0.37696431  1
  Mo  Mo170  1  0.60385169  0.00556317  0.26460201  1
  Mo  Mo171  1  0.20078292  0.60502077  0.73870659  1
  Mo  Mo172  1  0.49919772  0.27703670  0.11306886  1
  Mo  Mo173  1  0.89374623  0.09233192  0.86885733  1
  Mo  Mo174  1  0.00001330  0.19506925  0.74888932  1
  Mo  Mo175  1  0.59863084  0.21374077  0.74254862  1
  Mo  Mo176  1  0.69960211  0.91277663  0.37345046  1
  Mo  Mo177  1  -0.00074612  0.60121531  -0.00305628  1
  Mo  Mo178  1  0.30307655  0.69874951  0.38298314  1
  Mo  Mo179  1  0.20140055  -0.00803063  -0.00909456  1
  Mo  Mo180  1  0.59438839  -0.00140697  0.73865217  1
  Mo  Mo181  1  0.79195212  0.59350634  0.49639787  1
  Mo  Mo182  1  0.10514092  0.29524350  0.87480524  1
  Mo  Mo183  1  0.38964501  0.18716957  0.50465732  1
  Mo  Mo184  1  0.70005999  0.70746726  0.38464045  1
  Mo  Mo185  1  -0.00142003  0.81199785  0.51547710  1
  Mo  Mo186  1  0.49662809  0.08830040  0.12147704  1
  Mo  Mo187  1  0.40276929  0.80143887  0.25963558  1
  Mo  Mo188  1  0.49499146  0.71278410  0.37299036  1
  Mo  Mo189  1  0.40776287  0.78865112  -0.00835003  1
  Mo  Mo190  1  0.69194139  0.89283667  0.61542565  1
  Mo  Mo191  1  0.70664761  0.30728094  0.37763473  1
  Mo  Mo192  1  0.59592670  0.20686034  -0.00326529  1
  Mo  Mo193  1  0.21063506  0.40761616  -0.00638842  1
  Mo  Mo194  1  0.91156909  0.91509043  0.38265945  1
  Mo  Mo195  1  0.79631916  0.39514643  0.49829345  1
  Mo  Mo196  1  0.71048098  0.89961654  0.87466382  1
  Mo  Mo197  1  0.70641418  0.49905612  0.37228990  1
  Mo  Mo198  1  0.49101334  0.91698436  0.38286013  1
  Mo  Mo199  1  0.50739057  0.29681558  0.88188367  1
