# generated using pymatgen
data_HfZrTaTiMo
_symmetry_space_group_name_H-M   'P 1'
_cell_length_a   15.21475533
_cell_length_b   15.21297893
_cell_length_c   16.84823407
_cell_angle_alpha   89.93940706
_cell_angle_beta   89.95202056
_cell_angle_gamma   90.06127164
_symmetry_Int_Tables_number   1
_chemical_formula_structural   HfZrTaTiMo
_chemical_formula_sum   'Hf40 Zr40 Ta40 Ti40 Mo40'
_cell_volume   3899.71599825
_cell_formula_units_Z   40
loop_
 _symmetry_equiv_pos_site_id
 _symmetry_equiv_pos_as_xyz
  1  'x, y, z'
loop_
 _atom_site_type_symbol
 _atom_site_label
 _atom_site_symmetry_multiplicity
 _atom_site_fract_x
 _atom_site_fract_y
 _atom_site_fract_z
 _atom_site_occupancy
  Hf  Hf0  1  0.40602338  0.20821288  0.75114889  1
  Hf  Hf1  1  0.38158594  0.01190722  0.25778919  1
  Hf  Hf2  1  0.58966158  0.59408335  0.24978326  1
  Hf  Hf3  1  0.01039263  0.60019719  0.25056060  1
  Hf  Hf4  1  0.48528504  0.50319712  0.11673585  1
  Hf  Hf5  1  0.89486990  0.70478190  0.86599577  1
  Hf  Hf6  1  0.40232922  0.39552666  0.25324126  1
  Hf  Hf7  1  0.01498839  0.79482450  0.49801102  1
  Hf  Hf8  1  0.01792283  0.20750472  0.51361236  1
  Hf  Hf9  1  0.19390306  0.40562230  -0.00762404  1
  Hf  Hf10  1  0.50966429  0.30701708  0.38925458  1
  Hf  Hf11  1  0.61985245  0.19920521  -0.00836416  1
  Hf  Hf12  1  0.70181245  0.10367533  0.38287306  1
  Hf  Hf13  1  0.11172112  0.09542421  0.63009292  1
  Hf  Hf14  1  0.80225266  -0.00246824  0.73112610  1
  Hf  Hf15  1  0.69926743  0.70185987  0.37677231  1
  Hf  Hf16  1  0.38759457  0.79133513  0.75457356  1
  Hf  Hf17  1  0.49178361  0.10848747  0.12769369  1
  Hf  Hf18  1  0.48939443  0.50108106  0.62176941  1
  Hf  Hf19  1  0.19556161  0.21623074  0.76453725  1
  Hf  Hf20  1  0.89950016  0.09974409  0.86883634  1
  Hf  Hf21  1  0.72393064  0.30792078  0.86539618  1
  Hf  Hf22  1  0.61521461  0.41176643  -0.01477537  1
  Hf  Hf23  1  0.31419516  0.29699486  0.11141581  1
  Hf  Hf24  1  0.19563113  0.18989418  -0.00928561  1
  Hf  Hf25  1  0.79806814  0.59093367  -0.00815579  1
  Hf  Hf26  1  0.89604859  0.89962154  0.38072467  1
  Hf  Hf27  1  0.70075837  0.90842773  0.12681450  1
  Hf  Hf28  1  0.92315551  0.30352866  0.87189681  1
  Hf  Hf29  1  0.80152589  0.39512997  0.52590110  1
  Hf  Hf30  1  0.70332601  0.90754620  0.88172358  1
  Hf  Hf31  1  0.60564268  0.37987522  0.24576632  1
  Hf  Hf32  1  0.00022696  0.79615628  0.00379211  1
  Hf  Hf33  1  0.89690851  0.49634876  0.85462155  1
  Hf  Hf34  1  0.80643566  0.59251120  0.24483094  1
  Hf  Hf35  1  0.68133501  0.69897129  0.62915502  1
  Hf  Hf36  1  0.52021028  0.30732670  0.61321524  1
  Hf  Hf37  1  0.49997263  0.11059871  0.36619908  1
  Hf  Hf38  1  0.09909772  0.49898955  0.86451558  1
  Hf  Hf39  1  0.59018685  0.80297098  0.75136713  1
  Zr  Zr40  1  0.69294770  0.48934877  0.38214450  1
  Zr  Zr41  1  0.50779844  0.09352918  0.88154967  1
  Zr  Zr42  1  0.00150663  0.00761545  0.25488353  1
  Zr  Zr43  1  0.58610980  0.59661786  0.49587432  1
  Zr  Zr44  1  0.70370811  0.12150018  0.13027654  1
  Zr  Zr45  1  0.58912511  -0.00528819  0.50466668  1
  Zr  Zr46  1  0.18749720  0.60087768  0.48753756  1
  Zr  Zr47  1  0.09535815  0.29192470  0.11999702  1
  Zr  Zr48  1  0.57537043  0.59158447  0.76173482  1
  Zr  Zr49  1  0.39446610  0.19502544  0.50110049  1
  Zr  Zr50  1  0.30150573  0.09664798  0.63079728  1
  Zr  Zr51  1  0.90299195  0.49531298  0.65087644  1
  Zr  Zr52  1  0.19660984  0.39724895  0.24513703  1
  Zr  Zr53  1  0.80642578  0.79623596  0.23839819  1
  Zr  Zr54  1  0.20026590  0.81622312  -0.00468318  1
  Zr  Zr55  1  0.29209828  0.89486806  0.13725401  1
  Zr  Zr56  1  0.01231196  -0.00347332  0.00167752  1
  Zr  Zr57  1  -0.00325321  0.59205552  0.51129181  1
  Zr  Zr58  1  0.81627118  0.19462119  0.52067841  1
  Zr  Zr59  1  -0.01525254  0.39775128  0.24047889  1
  Zr  Zr60  1  0.89902417  0.69735700  0.38437504  1
  Zr  Zr61  1  0.30783622  0.09736265  0.87660163  1
  Zr  Zr62  1  0.11668617  0.49655531  0.63978818  1
  Zr  Zr63  1  0.80247219  0.21477915  0.25436757  1
  Zr  Zr64  1  0.80767433  0.01025348  0.24836400  1
  Zr  Zr65  1  0.30318298  0.89711340  0.62398462  1
  Zr  Zr66  1  0.48993640  0.89418013  0.88215686  1
  Zr  Zr67  1  0.38436348  0.60695921  0.47880030  1
  Zr  Zr68  1  0.69214992  0.89724488  0.37114463  1
  Zr  Zr69  1  0.89401997  0.70769921  0.62957959  1
  Zr  Zr70  1  0.89813834  0.49094313  0.38656064  1
  Zr  Zr71  1  0.87777515  0.30538463  0.09800361  1
  Zr  Zr72  1  0.71094649  0.48743412  0.12341878  1
  Zr  Zr73  1  0.00369990  0.00286745  0.49396152  1
  Zr  Zr74  1  0.30339968  0.31199201  0.62459091  1
  Zr  Zr75  1  0.80075675  0.80349018  0.00692773  1
  Zr  Zr76  1  0.09602681  0.29303874  0.36719079  1
  Zr  Zr77  1  0.58937039  0.79942903  0.01484340  1
  Zr  Zr78  1  0.59099405  0.60825305  0.00067562  1
  Zr  Zr79  1  0.60516494  0.20397010  0.75273767  1
  Ta  Ta80  1  0.29571115  0.09691623  0.11319588  1
  Ta  Ta81  1  0.68513653  0.48514326  0.64234584  1
  Ta  Ta82  1  0.81245996  0.20149014  0.72946380  1
  Ta  Ta83  1  0.69185708  0.70332817  0.87061109  1
  Ta  Ta84  1  0.40855419  -0.00573546  0.74904520  1
  Ta  Ta85  1  0.49891237  0.30273513  0.89062569  1
  Ta  Ta86  1  0.28325801  0.69507412  0.62439191  1
  Ta  Ta87  1  0.22424256  0.41082867  0.76785940  1
  Ta  Ta88  1  0.69209090  0.10326139  0.62023859  1
  Ta  Ta89  1  0.01705930  0.61931254  0.74458104  1
  Ta  Ta90  1  0.21673435  0.18481757  0.24471322  1
  Ta  Ta91  1  0.11194868  0.69860339  0.12881650  1
  Ta  Ta92  1  0.19934090  0.60801701  0.00006701  1
  Ta  Ta93  1  0.47420787  0.70254879  0.62230994  1
  Ta  Ta94  1  0.30391241  0.50497595  0.62401361  1
  Ta  Ta95  1  0.47911764  0.68881252  0.88226841  1
  Ta  Ta96  1  0.38702023  0.60052330  0.26133187  1
  Ta  Ta97  1  0.09627400  0.70421224  0.87596964  1
  Ta  Ta98  1  -0.00322623  0.81217625  0.74938095  1
  Ta  Ta99  1  0.10944008  0.89429640  0.62371954  1
  Ta  Ta100  1  0.20555011  0.00037906  0.48450461  1
  Ta  Ta101  1  0.10191172  0.89416016  0.14348709  1
  Ta  Ta102  1  0.50946568  0.29960225  0.10760918  1
  Ta  Ta103  1  0.21001322  0.79934846  0.48658100  1
  Ta  Ta104  1  0.18677014  0.79396041  0.75400146  1
  Ta  Ta105  1  0.10292843  0.08465781  0.86387757  1
  Ta  Ta106  1  0.41547808  0.40756566  0.76372931  1
  Ta  Ta107  1  0.00250697  0.59302439  -0.00156002  1
  Ta  Ta108  1  0.59136364  0.79904159  0.23803487  1
  Ta  Ta109  1  0.60181992  -0.00329538  0.73880528  1
  Ta  Ta110  1  0.59962628  0.00000262  0.00950047  1
  Ta  Ta111  1  0.29127173  0.50679706  0.12295571  1
  Ta  Ta112  1  0.40019015  0.80308879  0.48707769  1
  Ta  Ta113  1  0.11525091  0.88861459  0.35889527  1
  Ta  Ta114  1  0.78776074  0.59616358  0.51785691  1
  Ta  Ta115  1  0.70154773  0.29415460  0.39417225  1
  Ta  Ta116  1  0.79782555  -0.00579243  0.51651509  1
  Ta  Ta117  1  0.49796603  0.70818501  0.36479615  1
  Ta  Ta118  1  0.39077169  -0.01058333  0.00562755  1
  Ta  Ta119  1  0.19980130  0.38938974  0.49498693  1
  Ti  Ti120  1  0.37783902  0.59266879  0.75659546  1
  Ti  Ti121  1  0.49070897  0.90131575  0.13145838  1
  Ti  Ti122  1  0.79938827  0.39753689  0.25250161  1
  Ti  Ti123  1  0.80568249  0.02106053  0.00876981  1
  Ti  Ti124  1  0.11152760  0.10279784  0.37031634  1
  Ti  Ti125  1  0.00814665  0.39677690  0.51422397  1
  Ti  Ti126  1  0.90900711  0.68970741  0.12237572  1
  Ti  Ti127  1  0.30219274  0.69284871  0.13448393  1
  Ti  Ti128  1  0.89883133  0.30127453  0.38451899  1
  Ti  Ti129  1  0.70944248  0.09671609  0.86869198  1
  Ti  Ti130  1  0.00594940  0.19932938  0.74065592  1
  Ti  Ti131  1  0.78950558  0.80164098  0.51049270  1
  Ti  Ti132  1  0.90198923  0.90513020  0.87346241  1
  Ti  Ti133  1  0.29141253  0.69726070  0.88026257  1
  Ti  Ti134  1  0.28947415  0.49322820  0.36665188  1
  Ti  Ti135  1  0.49786688  0.09752610  0.62344149  1
  Ti  Ti136  1  -0.00002015  0.19387021  -0.00265168  1
  Ti  Ti137  1  0.90688373  0.90192437  0.61874598  1
  Ti  Ti138  1  0.31273910  0.30914704  0.89089540  1
  Ti  Ti139  1  0.49837977  0.89672763  0.62274883  1
  Ti  Ti140  1  0.49953248  0.90069818  0.36616954  1
  Ti  Ti141  1  0.90656216  0.11247140  0.38090397  1
  Ti  Ti142  1  0.39856676  0.41252571  0.48673659  1
  Ti  Ti143  1  0.90733676  0.91071013  0.12577836  1
  Ti  Ti144  1  0.09534144  0.50363659  0.11962649  1
  Ti  Ti145  1  0.00152310  0.79452148  0.25034981  1
  Ti  Ti146  1  0.29967264  0.28641454  0.37449280  1
  Ti  Ti147  1  0.78559147  0.60424358  0.75050960  1
  Ti  Ti148  1  -0.00461335  0.19621372  0.23975388  1
  Ti  Ti149  1  0.69752183  0.69570268  0.12800903  1
  Ti  Ti150  1  0.09634156  0.49450227  0.37271075  1
  Ti  Ti151  1  0.59140649  0.79912655  0.50276131  1
  Ti  Ti152  1  0.28125522  0.91036559  0.86720187  1
  Ti  Ti153  1  0.39632307  0.78647631  0.01085541  1
  Ti  Ti154  1  0.39319101  -0.00664053  0.48505964  1
  Ti  Ti155  1  0.00612308  -0.00364806  0.74492912  1
  Ti  Ti156  1  0.59686767  0.00477549  0.24647423  1
  Ti  Ti157  1  0.39419973  0.79956780  0.25814935  1
  Ti  Ti158  1  0.79143120  0.80723211  0.74577765  1
  Ti  Ti159  1  0.10528591  0.08892391  0.12812205  1
  Mo  Mo160  1  0.91391741  0.10667138  0.11576454  1
  Mo  Mo161  1  0.48724895  0.49826014  0.88822294  1
  Mo  Mo162  1  0.40149683  0.40675621  -0.00343378  1
  Mo  Mo163  1  0.80289394  0.39298291  0.73752841  1
  Mo  Mo164  1  0.90908745  0.09108960  0.63073739  1
  Mo  Mo165  1  0.92251988  0.30023155  0.63827067  1
  Mo  Mo166  1  -0.00085297  0.41234804  0.00025777  1
  Mo  Mo167  1  0.38593079  0.60891825  0.00614153  1
  Mo  Mo168  1  0.20114256  0.19744809  0.49355209  1
  Mo  Mo169  1  0.69176136  0.30278813  0.11580319  1
  Mo  Mo170  1  0.40611923  0.19855976  -0.00107702  1
  Mo  Mo171  1  0.10555749  0.29378011  0.88079332  1
  Mo  Mo172  1  0.70662448  0.30124063  0.63314715  1
  Mo  Mo173  1  0.19918800  0.78565623  0.25374453  1
  Mo  Mo174  1  0.60566802  0.40300509  0.50336878  1
  Mo  Mo175  1  0.59650493  0.39911286  0.76623275  1
  Mo  Mo176  1  0.30549471  0.90016179  0.37230422  1
  Mo  Mo177  1  0.80704211  0.40749275  -0.01411238  1
  Mo  Mo178  1  0.59268456  0.20379106  0.25127598  1
  Mo  Mo179  1  0.19786747  -0.00183220  0.00105352  1
  Mo  Mo180  1  0.30835965  0.51097596  0.88533055  1
  Mo  Mo181  1  0.20758421  0.60896597  0.75721331  1
  Mo  Mo182  1  0.02527020  0.38143791  0.74600532  1
  Mo  Mo183  1  0.19826784  -0.00745545  0.75076123  1
  Mo  Mo184  1  0.90916750  0.50323568  0.11576611  1
  Mo  Mo185  1  0.70008806  0.50721284  0.85465218  1
  Mo  Mo186  1  0.80882753  0.19385478  -0.01186701  1
  Mo  Mo187  1  0.10472826  0.71074252  0.62789498  1
  Mo  Mo188  1  0.48945961  0.50007915  0.36882142  1
  Mo  Mo189  1  0.60745836  0.19734624  0.50816714  1
  Mo  Mo190  1  0.40000876  0.21169347  0.24824073  1
  Mo  Mo191  1  0.19569292  0.00113025  0.25551845  1
  Mo  Mo192  1  0.09900934  0.69847253  0.36587508  1
  Mo  Mo193  1  0.11702922  0.30424181  0.62855580  1
  Mo  Mo194  1  0.48470449  0.70576408  0.14340990  1
  Mo  Mo195  1  0.29447506  0.10496154  0.37748154  1
  Mo  Mo196  1  0.28974501  0.70766289  0.36291970  1
  Mo  Mo197  1  0.09170131  0.89999611  0.86537489  1
  Mo  Mo198  1  0.19990938  0.59087365  0.24661657  1
  Mo  Mo199  1  0.69561912  0.89473916  0.62098729  1
