# generated using pymatgen
data_HfZrTaTiMo
_symmetry_space_group_name_H-M   'P 1'
_cell_length_a   15.21943915
_cell_length_b   15.21086820
_cell_length_c   16.80980349
_cell_angle_alpha   90.01182274
_cell_angle_beta   89.97945961
_cell_angle_gamma   90.06866080
_symmetry_Int_Tables_number   1
_chemical_formula_structural   HfZrTaTiMo
_chemical_formula_sum   'Hf40 Zr40 Ta40 Ti40 Mo40'
_cell_volume   3891.48122499
_cell_formula_units_Z   40
loop_
 _symmetry_equiv_pos_site_id
 _symmetry_equiv_pos_as_xyz
  1  'x, y, z'
loop_
 _atom_site_type_symbol
 _atom_site_label
 _atom_site_symmetry_multiplicity
 _atom_site_fract_x
 _atom_site_fract_y
 _atom_site_fract_z
 _atom_site_occupancy
  Hf  Hf0  1  0.10110082  0.31851486  0.11916094  1
  Hf  Hf1  1  0.89641672  0.90957043  0.88132664  1
  Hf  Hf2  1  0.81248823  0.80195499  0.74539597  1
  Hf  Hf3  1  0.91891138  0.10943107  0.37757545  1
  Hf  Hf4  1  0.28779757  0.68250822  0.60658654  1
  Hf  Hf5  1  0.20906503  0.20574930  0.00145091  1
  Hf  Hf6  1  0.79391275  0.39864834  0.51014323  1
  Hf  Hf7  1  0.18392762  0.19090065  0.23072531  1
  Hf  Hf8  1  0.79834325  0.19407234  0.24825447  1
  Hf  Hf9  1  0.80484418  0.79623957  0.26542560  1
  Hf  Hf10  1  0.90223740  0.50066165  0.63648600  1
  Hf  Hf11  1  0.89629920  0.51605203  0.38589397  1
  Hf  Hf12  1  0.79835728  0.41003596  0.24135875  1
  Hf  Hf13  1  0.30154901  0.50912700  0.87656313  1
  Hf  Hf14  1  0.18549144  0.00031225  0.02006741  1
  Hf  Hf15  1  0.40000545  -0.00567339  0.00567026  1
  Hf  Hf16  1  0.49767945  0.29305063  0.62647975  1
  Hf  Hf17  1  0.40194715  -0.01408023  0.75411662  1
  Hf  Hf18  1  0.30138996  0.09291242  0.63265731  1
  Hf  Hf19  1  0.60974362  0.78376756  0.74552459  1
  Hf  Hf20  1  0.90572094  0.70911913  0.87942420  1
  Hf  Hf21  1  0.29245301  0.28381565  0.35921027  1
  Hf  Hf22  1  0.31857516  0.29928199  0.13698963  1
  Hf  Hf23  1  0.49655997  0.69126239  0.60418042  1
  Hf  Hf24  1  0.29096024  0.88494032  0.87856158  1
  Hf  Hf25  1  0.40228642  0.39219812  0.76397535  1
  Hf  Hf26  1  0.50720202  0.68777433  0.13180532  1
  Hf  Hf27  1  0.10223232  0.52378226  0.86209139  1
  Hf  Hf28  1  0.50951320  0.09166543  0.62253743  1
  Hf  Hf29  1  0.51191960  0.09307724  0.87870595  1
  Hf  Hf30  1  0.90235231  0.50190380  0.85861211  1
  Hf  Hf31  1  0.50205624  0.89699512  0.14650721  1
  Hf  Hf32  1  0.00609804  0.81211498  0.01445270  1
  Hf  Hf33  1  0.91601271  0.89758474  0.60849695  1
  Hf  Hf34  1  0.30231065  0.68808482  0.13939611  1
  Hf  Hf35  1  0.78020272  0.61003753  0.74627402  1
  Hf  Hf36  1  0.29924322  0.88997638  0.14573947  1
  Hf  Hf37  1  0.61256541  -0.00501419  0.00615918  1
  Hf  Hf38  1  0.68846185  0.50684934  0.11571340  1
  Hf  Hf39  1  0.70720483  0.89151183  0.60203616  1
  Zr  Zr40  1  0.09333325  0.91338245  0.87818922  1
  Zr  Zr41  1  0.50432455  0.88023616  0.88170624  1
  Zr  Zr42  1  0.90256449  0.29470008  0.87019865  1
  Zr  Zr43  1  0.20313932  0.39974473  0.50405981  1
  Zr  Zr44  1  0.38714099  0.18344725  0.49142504  1
  Zr  Zr45  1  0.09884697  0.31036324  0.86843887  1
  Zr  Zr46  1  0.68394994  0.50043124  0.88371781  1
  Zr  Zr47  1  0.39378730  0.39458514  -0.01090430  1
  Zr  Zr48  1  0.10346432  0.93051650  0.36095967  1
  Zr  Zr49  1  0.29432731  0.88183094  0.62100411  1
  Zr  Zr50  1  0.58983942  0.39970031  0.49394141  1
  Zr  Zr51  1  0.49292631  0.67133381  0.89277175  1
  Zr  Zr52  1  0.51128761  0.11432148  0.13931597  1
  Zr  Zr53  1  0.69580505  0.30360107  0.36516525  1
  Zr  Zr54  1  0.28635258  0.08815318  0.87341651  1
  Zr  Zr55  1  0.80806605  0.59761555  0.00198185  1
  Zr  Zr56  1  0.50539989  0.88753296  0.61182476  1
  Zr  Zr57  1  0.00395049  0.41404008  0.51051365  1
  Zr  Zr58  1  0.90120109  0.30702855  0.37491994  1
  Zr  Zr59  1  0.00117135  0.63491711  0.74245812  1
  Zr  Zr60  1  0.88924650  0.70175570  0.59372242  1
  Zr  Zr61  1  0.40326004  0.19781951  0.76442991  1
  Zr  Zr62  1  0.10237332  0.11569731  0.63635819  1
  Zr  Zr63  1  0.29433558  0.07737258  0.34786832  1
  Zr  Zr64  1  0.78325971  0.38878367  0.75123739  1
  Zr  Zr65  1  0.61338417  -0.00540385  0.74939695  1
  Zr  Zr66  1  0.39877091  0.77898869  0.74865380  1
  Zr  Zr67  1  0.09647667  0.73490801  0.60869242  1
  Zr  Zr68  1  0.00186573  0.42437654  0.24607806  1
  Zr  Zr69  1  0.40325190  -0.02722610  0.47776548  1
  Zr  Zr70  1  0.39468773  0.57551728  0.48722111  1
  Zr  Zr71  1  0.09888866  0.31253489  0.36773174  1
  Zr  Zr72  1  0.80357314  0.17933364  0.75091730  1
  Zr  Zr73  1  0.79991233  0.19368698  0.00368778  1
  Zr  Zr74  1  0.59794490  0.19397705  0.48465117  1
  Zr  Zr75  1  0.79667352  0.80489013  0.01375771  1
  Zr  Zr76  1  0.58416249  0.41842463  0.24501123  1
  Zr  Zr77  1  0.70144864  0.89338678  0.14123833  1
  Zr  Zr78  1  -0.00971699  0.41620835  -0.00018405  1
  Zr  Zr79  1  0.18499970  0.59460859  0.26638858  1
  Ta  Ta80  1  0.60702905  -0.00774555  0.47202923  1
  Ta  Ta81  1  0.68547577  0.29311629  0.12962038  1
  Ta  Ta82  1  0.10120184  0.52049330  0.12059369  1
  Ta  Ta83  1  0.80595998  0.00171438  0.48016148  1
  Ta  Ta84  1  0.19317865  0.79499971  0.26704845  1
  Ta  Ta85  1  0.29055638  0.69504591  0.87930004  1
  Ta  Ta86  1  0.69781015  0.28837179  0.62381706  1
  Ta  Ta87  1  0.71138771  0.09028113  0.13128303  1
  Ta  Ta88  1  0.90767758  0.29224497  0.63724078  1
  Ta  Ta89  1  0.58411469  0.58990652  0.74518220  1
  Ta  Ta90  1  0.10174968  0.31616464  0.64393935  1
  Ta  Ta91  1  0.41586941  0.58514409  0.26517830  1
  Ta  Ta92  1  -0.00430424  0.81046666  0.25934274  1
  Ta  Ta93  1  0.70397060  0.09341305  0.60986272  1
  Ta  Ta94  1  0.01101316  0.01271100  0.50218555  1
  Ta  Ta95  1  0.20599658  0.80984974  0.47264366  1
  Ta  Ta96  1  0.90417168  0.70747181  0.39540229  1
  Ta  Ta97  1  0.70417323  0.89414139  0.87878467  1
  Ta  Ta98  1  0.59011008  0.38837345  -0.00012055  1
  Ta  Ta99  1  0.40296053  0.78595791  0.27342941  1
  Ta  Ta100  1  0.61716781  0.00474104  0.27113748  1
  Ta  Ta101  1  0.29239564  0.49543208  0.13485298  1
  Ta  Ta102  1  0.30969511  0.09360325  0.13492777  1
  Ta  Ta103  1  0.68762498  0.50024804  0.62691678  1
  Ta  Ta104  1  0.41011339  0.20112227  -0.00605051  1
  Ta  Ta105  1  0.00975736  0.21244342  0.51053641  1
  Ta  Ta106  1  0.91260845  0.09375679  0.88129765  1
  Ta  Ta107  1  0.20405185  0.00916358  0.50079293  1
  Ta  Ta108  1  0.39637579  0.38320537  0.49463622  1
  Ta  Ta109  1  -0.01083135  0.00652434  0.74111047  1
  Ta  Ta110  1  0.39485281  0.58818445  0.74310699  1
  Ta  Ta111  1  0.19944770  0.79388275  0.01177128  1
  Ta  Ta112  1  0.11354015  0.52397849  0.63371625  1
  Ta  Ta113  1  0.69344681  0.70266197  0.88345313  1
  Ta  Ta114  1  0.81268887  -0.00213229  0.26965891  1
  Ta  Ta115  1  0.29310727  0.29185116  0.62628508  1
  Ta  Ta116  1  0.48597696  0.30116922  0.35603425  1
  Ta  Ta117  1  0.61206394  0.20355495  0.75762932  1
  Ta  Ta118  1  0.89240474  0.30623772  0.12058045  1
  Ta  Ta119  1  0.29596038  0.47825395  0.36130085  1
  Ti  Ti120  1  0.90455068  0.70639413  0.13069378  1
  Ti  Ti121  1  0.71430144  0.08884769  0.88040497  1
  Ti  Ti122  1  0.09108189  0.10688873  0.86912937  1
  Ti  Ti123  1  0.49806509  0.10187824  0.35481832  1
  Ti  Ti124  1  0.60397048  0.78985645  0.27118123  1
  Ti  Ti125  1  0.09894579  0.70764951  0.13537615  1
  Ti  Ti126  1  0.89772419  0.92159232  0.12865273  1
  Ti  Ti127  1  0.00380208  0.19363845  0.01170589  1
  Ti  Ti128  1  0.19788381  0.41139820  -0.00442312  1
  Ti  Ti129  1  0.18511186  -0.02008926  0.74275789  1
  Ti  Ti130  1  0.80064248  -0.00676637  0.74283914  1
  Ti  Ti131  1  0.39425623  0.78686277  0.00904366  1
  Ti  Ti132  1  0.60366818  0.58807319  0.49640473  1
  Ti  Ti133  1  0.20303180  0.60759758  0.00600679  1
  Ti  Ti134  1  0.69355473  0.69739253  0.59991492  1
  Ti  Ti135  1  0.29657071  0.68789733  0.38003452  1
  Ti  Ti136  1  0.69480069  0.51104123  0.37224404  1
  Ti  Ti137  1  0.70756007  0.69573348  0.39362956  1
  Ti  Ti138  1  0.69898697  0.69471636  0.13167991  1
  Ti  Ti139  1  0.59355188  0.39428655  0.75843482  1
  Ti  Ti140  1  0.20431280  0.20942841  0.76213940  1
  Ti  Ti141  1  0.80457969  0.20034977  0.49998912  1
  Ti  Ti142  1  0.79776658  0.60566151  0.25088104  1
  Ti  Ti143  1  0.90232411  0.51493717  0.12431988  1
  Ti  Ti144  1  0.30118123  0.48790835  0.62767284  1
  Ti  Ti145  1  0.11044312  0.12387152  0.38207089  1
  Ti  Ti146  1  0.89628915  0.10087032  0.61494409  1
  Ti  Ti147  1  -0.00783331  0.62016466  0.25784003  1
  Ti  Ti148  1  0.48401576  0.49744321  0.11571558  1
  Ti  Ti149  1  -0.00725514  0.21100964  0.23318268  1
  Ti  Ti150  1  0.50856723  0.69093635  0.38603144  1
  Ti  Ti151  1  0.20673851  0.40848898  0.75208010  1
  Ti  Ti152  1  0.49458741  0.49013578  0.62365351  1
  Ti  Ti153  1  0.01212645  0.61649593  0.00113072  1
  Ti  Ti154  1  0.09392000  0.90245474  0.14165691  1
  Ti  Ti155  1  0.60359604  0.20219394  -0.00309622  1
  Ti  Ti156  1  0.59911398  0.79025864  0.00762210  1
  Ti  Ti157  1  0.10973239  0.72138807  0.86775654  1
  Ti  Ti158  1  0.00409547  0.02330697  0.23828934  1
  Ti  Ti159  1  0.78871557  0.39036469  -0.00268589  1
  Mo  Mo160  1  0.09525557  0.51193249  0.38150146  1
  Mo  Mo161  1  0.29506799  0.29817869  0.88080064  1
  Mo  Mo162  1  0.50436310  0.89441879  0.35755915  1
  Mo  Mo163  1  0.40963755  -0.00781584  0.24979673  1
  Mo  Mo164  1  0.59368868  0.79649006  0.48216491  1
  Mo  Mo165  1  0.79564450  0.80665127  0.48277991  1
  Mo  Mo166  1  0.19545668  0.19773304  0.50491074  1
  Mo  Mo167  1  0.29888400  0.89120592  0.35624221  1
  Mo  Mo168  1  0.39632823  0.40301936  0.24708823  1
  Mo  Mo169  1  0.89959161  0.10226806  0.13070464  1
  Mo  Mo170  1  0.00658571  0.40916227  0.74090397  1
  Mo  Mo171  1  0.70480933  0.89321031  0.37537430  1
  Mo  Mo172  1  0.19399865  0.79627006  0.74966672  1
  Mo  Mo173  1  0.21034638  0.61120023  0.74615243  1
  Mo  Mo174  1  -0.00734342  0.01039681  0.01411666  1
  Mo  Mo175  1  0.01147430  0.82672424  0.74980358  1
  Mo  Mo176  1  0.00229206  0.19852745  0.74912997  1
  Mo  Mo177  1  0.38648309  0.59646213  0.01245784  1
  Mo  Mo178  1  0.18790719  0.59349258  0.48408568  1
  Mo  Mo179  1  0.19382155  -0.00271508  0.22814764  1
  Mo  Mo180  1  0.00787507  0.81940126  0.47745511  1
  Mo  Mo181  1  0.51103977  0.29443492  0.87754754  1
  Mo  Mo182  1  0.49838045  0.49560564  0.37783274  1
  Mo  Mo183  1  0.09465448  0.10606980  0.11800448  1
  Mo  Mo184  1  0.09163390  0.70753826  0.38379571  1
  Mo  Mo185  1  0.10727992  0.91653213  0.61420675  1
  Mo  Mo186  1  0.39713573  0.78581409  0.47321499  1
  Mo  Mo187  1  0.00789043  0.60426476  0.50353670  1
  Mo  Mo188  1  0.70912035  0.10271158  0.37979322  1
  Mo  Mo189  1  0.60404758  0.20123194  0.25506947  1
  Mo  Mo190  1  0.49983833  0.49625945  0.87653862  1
  Mo  Mo191  1  0.50704399  0.30430136  0.12482293  1
  Mo  Mo192  1  0.91037386  0.90894189  0.37783727  1
  Mo  Mo193  1  0.19588694  0.40329311  0.24309225  1
  Mo  Mo194  1  0.61089100  0.61106718  0.26387949  1
  Mo  Mo195  1  0.40417268  0.19666291  0.24846147  1
  Mo  Mo196  1  0.80155328  0.00184119  0.00409076  1
  Mo  Mo197  1  0.79212986  0.59044098  0.50419245  1
  Mo  Mo198  1  0.69255334  0.28914227  0.88106419  1
  Mo  Mo199  1  0.59546169  0.59723088  0.00837406  1
