# generated using pymatgen
data_HfZrTaTiMo
_symmetry_space_group_name_H-M   'P 1'
_cell_length_a   15.20786639
_cell_length_b   15.20750667
_cell_length_c   16.86783655
_cell_angle_alpha   89.95640713
_cell_angle_beta   89.97894259
_cell_angle_gamma   89.82943586
_symmetry_Int_Tables_number   1
_chemical_formula_structural   HfZrTaTiMo
_chemical_formula_sum   'Hf40 Zr40 Ta40 Ti40 Mo40'
_cell_volume   3901.06879419
_cell_formula_units_Z   40
loop_
 _symmetry_equiv_pos_site_id
 _symmetry_equiv_pos_as_xyz
  1  'x, y, z'
loop_
 _atom_site_type_symbol
 _atom_site_label
 _atom_site_symmetry_multiplicity
 _atom_site_fract_x
 _atom_site_fract_y
 _atom_site_fract_z
 _atom_site_occupancy
  Hf  Hf0  1  0.38456895  -0.00438676  0.26154635  1
  Hf  Hf1  1  0.18507203  0.39746867  0.24513980  1
  Hf  Hf2  1  0.71223423  0.29924056  0.37174767  1
  Hf  Hf3  1  0.28755556  0.10136690  0.39697526  1
  Hf  Hf4  1  0.80451243  0.18859781  0.74552014  1
  Hf  Hf5  1  0.50009408  0.51114585  0.38731873  1
  Hf  Hf6  1  0.01281315  0.20767521  -0.00521298  1
  Hf  Hf7  1  0.17446584  0.79588324  -0.00621437  1
  Hf  Hf8  1  0.81281929  0.19000493  0.51300074  1
  Hf  Hf9  1  0.70286126  0.68851439  0.12581614  1
  Hf  Hf10  1  0.60353805  0.39504985  0.49616923  1
  Hf  Hf11  1  0.40360479  0.20414532  0.50189006  1
  Hf  Hf12  1  -0.01266384  0.01751936  0.25318279  1
  Hf  Hf13  1  0.89400003  0.70069143  0.87608048  1
  Hf  Hf14  1  0.71726359  0.09415805  0.36565034  1
  Hf  Hf15  1  0.90584070  0.89440817  0.12010710  1
  Hf  Hf16  1  0.18792280  -0.00711359  0.26421424  1
  Hf  Hf17  1  0.09836591  0.69381929  0.14543291  1
  Hf  Hf18  1  0.51174882  0.29606885  0.62548938  1
  Hf  Hf19  1  0.00354780  0.80954002  0.26961742  1
  Hf  Hf20  1  0.29358788  0.89513721  0.40201436  1
  Hf  Hf21  1  0.58714749  0.00870125  0.74087951  1
  Hf  Hf22  1  0.08144179  0.49190295  0.12062360  1
  Hf  Hf23  1  0.91823427  0.28011592  0.38027236  1
  Hf  Hf24  1  0.90539560  0.49021118  0.39248587  1
  Hf  Hf25  1  0.81053633  0.20075772  0.00869449  1
  Hf  Hf26  1  0.41037543  0.19161228  -0.00572887  1
  Hf  Hf27  1  0.27882408  0.89630841  0.60541259  1
  Hf  Hf28  1  0.11128275  0.67736761  0.36929962  1
  Hf  Hf29  1  0.11110970  0.89758302  0.12978913  1
  Hf  Hf30  1  0.49781016  0.89809415  0.61462399  1
  Hf  Hf31  1  0.29875182  0.29069778  0.11830274  1
  Hf  Hf32  1  0.70968114  0.32597937  0.12323161  1
  Hf  Hf33  1  0.60153695  0.40752690  -0.01339185  1
  Hf  Hf34  1  0.89198813  0.69346001  0.37210474  1
  Hf  Hf35  1  0.19325676  0.38643513  -0.00775025  1
  Hf  Hf36  1  0.38433732  0.40388734  0.50187339  1
  Hf  Hf37  1  0.30165200  0.50388092  0.12793446  1
  Hf  Hf38  1  0.60444558  0.60457734  0.75766038  1
  Hf  Hf39  1  0.29793624  0.30537262  0.64229528  1
  Zr  Zr40  1  0.30129234  0.71637426  0.12677825  1
  Zr  Zr41  1  -0.02006619  0.00016256  0.50941037  1
  Zr  Zr42  1  0.39906239  0.20644051  0.25909509  1
  Zr  Zr43  1  0.51508717  0.10160324  0.36797145  1
  Zr  Zr44  1  0.01194189  0.00132135  -0.00845365  1
  Zr  Zr45  1  0.69807852  0.28947615  0.87222203  1
  Zr  Zr46  1  0.91031654  0.50715244  0.61264717  1
  Zr  Zr47  1  0.59560537  -0.00180977  0.00504298  1
  Zr  Zr48  1  0.39821998  0.40279486  0.25804520  1
  Zr  Zr49  1  -0.00698695  -0.00200395  0.74334670  1
  Zr  Zr50  1  0.42369299  0.18027105  0.74364068  1
  Zr  Zr51  1  0.19902504  0.19516205  0.25145235  1
  Zr  Zr52  1  0.20338015  0.17717875  -0.01302845  1
  Zr  Zr53  1  0.50490343  0.70515949  0.12252363  1
  Zr  Zr54  1  0.38436587  0.82578380  -0.01295255  1
  Zr  Zr55  1  0.31786444  0.06776815  0.86129035  1
  Zr  Zr56  1  0.82160280  0.20063493  0.22994543  1
  Zr  Zr57  1  0.28282747  0.51814821  0.37327258  1
  Zr  Zr58  1  0.19633723  0.59677256  0.00209336  1
  Zr  Zr59  1  0.49670517  0.10247867  0.13591547  1
  Zr  Zr60  1  0.40515492  0.59895694  0.74690945  1
  Zr  Zr61  1  0.30463944  0.28610267  0.85839562  1
  Zr  Zr62  1  0.70059398  0.51375851  0.61393878  1
  Zr  Zr63  1  0.41007283  0.59928693  -0.01315168  1
  Zr  Zr64  1  0.00140881  0.60837728  0.74523189  1
  Zr  Zr65  1  0.79044037  -0.00234833  0.51964352  1
  Zr  Zr66  1  0.71481787  0.08301939  0.87681713  1
  Zr  Zr67  1  0.07875259  0.11703247  0.39291460  1
  Zr  Zr68  1  -0.01281378  0.41167844  -0.02041575  1
  Zr  Zr69  1  0.38866124  0.80679091  0.73977274  1
  Zr  Zr70  1  0.90172425  0.69728310  0.13501938  1
  Zr  Zr71  1  0.27984884  0.70250783  0.86230298  1
  Zr  Zr72  1  0.51333463  0.50528015  0.12687669  1
  Zr  Zr73  1  0.30310785  0.49421763  0.86969735  1
  Zr  Zr74  1  0.48739450  0.89837229  0.13048936  1
  Zr  Zr75  1  0.60499725  0.40423583  0.26157622  1
  Zr  Zr76  1  0.60113241  0.40436717  0.75976332  1
  Zr  Zr77  1  0.80526678  0.80154550  0.49978011  1
  Zr  Zr78  1  0.50547214  0.89773053  0.38723624  1
  Zr  Zr79  1  0.87988722  0.90182878  0.88414249  1
  Ta  Ta80  1  0.78297616  0.80445692  0.25100324  1
  Ta  Ta81  1  0.11979730  0.50218661  0.62252433  1
  Ta  Ta82  1  -0.00833216  0.39009828  0.24956184  1
  Ta  Ta83  1  0.40429362  0.79939619  0.26582819  1
  Ta  Ta84  1  0.72651224  0.50804737  0.87651152  1
  Ta  Ta85  1  0.70749451  0.30268614  0.63069833  1
  Ta  Ta86  1  0.69646900  0.90013158  0.37248766  1
  Ta  Ta87  1  0.80820862  0.38986227  0.50672544  1
  Ta  Ta88  1  0.60795416  0.60973448  0.26180521  1
  Ta  Ta89  1  0.69087878  0.70512136  0.38339028  1
  Ta  Ta90  1  0.21437014  0.79484326  0.26817480  1
  Ta  Ta91  1  0.08870519  0.70243396  0.61452501  1
  Ta  Ta92  1  0.87593765  0.50429042  0.12061319  1
  Ta  Ta93  1  0.10335426  0.10113079  0.62008302  1
  Ta  Ta94  1  0.48305581  0.92005646  0.86305723  1
  Ta  Ta95  1  0.61274940  0.60625543  -0.01437898  1
  Ta  Ta96  1  0.70386043  0.71077873  0.87624774  1
  Ta  Ta97  1  0.50052694  0.70197763  0.39252271  1
  Ta  Ta98  1  0.10438412  0.09915440  0.12237850  1
  Ta  Ta99  1  0.01979279  0.37965461  0.51074302  1
  Ta  Ta100  1  -0.00316972  0.61698773  -0.00560542  1
  Ta  Ta101  1  0.00767142  0.19819790  0.74827636  1
  Ta  Ta102  1  0.49592211  0.50104158  0.61751237  1
  Ta  Ta103  1  0.09957681  0.51694800  0.86829365  1
  Ta  Ta104  1  0.00427971  0.40435759  0.75437741  1
  Ta  Ta105  1  -0.00722711  0.57697659  0.25716276  1
  Ta  Ta106  1  0.71202844  0.51470491  0.39219042  1
  Ta  Ta107  1  0.10067966  0.89586773  0.86527063  1
  Ta  Ta108  1  0.50300186  0.30548218  0.12194577  1
  Ta  Ta109  1  0.51575893  0.69540153  0.61080609  1
  Ta  Ta110  1  0.18828195  0.22212167  0.50954906  1
  Ta  Ta111  1  0.39910841  0.61348695  0.25786382  1
  Ta  Ta112  1  0.80832200  0.41011377  0.74589643  1
  Ta  Ta113  1  0.60847731  0.20297369  0.01411737  1
  Ta  Ta114  1  0.90755647  0.30139926  0.63553641  1
  Ta  Ta115  1  0.89773032  0.30513140  0.86416427  1
  Ta  Ta116  1  0.19852945  -0.00769992  0.73871684  1
  Ta  Ta117  1  0.79520305  -0.00047672  0.22716005  1
  Ta  Ta118  1  0.60433017  0.00396826  0.50703681  1
  Ta  Ta119  1  0.50609813  0.71771526  0.87504474  1
  Ti  Ti120  1  -0.01806039  0.80432991  0.74558382  1
  Ti  Ti121  1  0.29657077  0.10071808  0.62249475  1
  Ti  Ti122  1  0.21634869  -0.01564806  -0.00780663  1
  Ti  Ti123  1  0.91294027  0.10490211  0.87360825  1
  Ti  Ti124  1  0.89189307  0.70947026  0.61858048  1
  Ti  Ti125  1  0.41494567  0.40159278  0.75868424  1
  Ti  Ti126  1  0.79714785  -0.01770408  0.73483334  1
  Ti  Ti127  1  0.69713607  0.88033661  0.63064083  1
  Ti  Ti128  1  0.79944716  0.61249896  0.74316420  1
  Ti  Ti129  1  0.40833372  0.39418794  -0.01174870  1
  Ti  Ti130  1  0.91539951  0.31606855  0.11565342  1
  Ti  Ti131  1  0.19176063  0.77422408  0.49542220  1
  Ti  Ti132  1  0.08502368  0.88984722  0.60983606  1
  Ti  Ti133  1  0.88669259  0.91495223  0.36985002  1
  Ti  Ti134  1  0.79257059  0.79759503  0.00747106  1
  Ti  Ti135  1  0.61030453  0.19646866  0.49779274  1
  Ti  Ti136  1  0.10362537  0.29330758  0.85695294  1
  Ti  Ti137  1  0.00776128  0.60571005  0.49827592  1
  Ti  Ti138  1  0.61170891  -0.01691579  0.23719979  1
  Ti  Ti139  1  0.50296454  0.29875472  0.37791937  1
  Ti  Ti140  1  0.17573241  0.79377450  0.74107128  1
  Ti  Ti141  1  0.09586166  0.89889566  0.39998636  1
  Ti  Ti142  1  0.68476635  0.89297618  0.86624085  1
  Ti  Ti143  1  0.01355820  0.20861076  0.23098983  1
  Ti  Ti144  1  0.40216702  0.00812209  0.50843988  1
  Ti  Ti145  1  0.52402594  0.11542037  0.87753456  1
  Ti  Ti146  1  0.59784585  0.79819107  0.74813570  1
  Ti  Ti147  1  0.28128693  0.30806033  0.38085586  1
  Ti  Ti148  1  0.09841862  0.48123031  0.38545889  1
  Ti  Ti149  1  0.38552812  0.60128928  0.51181283  1
  Ti  Ti150  1  0.79159191  0.00358298  0.02812305  1
  Ti  Ti151  1  0.80504791  0.42159347  0.25528295  1
  Ti  Ti152  1  0.39641396  0.78563050  0.50712198  1
  Ti  Ti153  1  0.61464722  0.20016590  0.23511061  1
  Ti  Ti154  1  0.10625601  0.30084536  0.64291194  1
  Ti  Ti155  1  0.68667814  0.10793834  0.63166724  1
  Ti  Ti156  1  0.29877366  0.07453356  0.12015590  1
  Ti  Ti157  1  0.59879063  0.80617892  -0.00447393  1
  Ti  Ti158  1  0.28257214  0.68256769  0.62931777  1
  Ti  Ti159  1  0.19945582  0.41160351  0.75411634  1
  Mo  Mo160  1  -0.00590198  0.80016259  -0.00174872  1
  Mo  Mo161  1  0.49989205  0.29928939  0.87990421  1
  Mo  Mo162  1  0.90198691  0.50433865  0.86449536  1
  Mo  Mo163  1  0.39823083  0.00247269  -0.00325967  1
  Mo  Mo164  1  0.00056602  0.79528290  0.48722609  1
  Mo  Mo165  1  0.69931226  0.70376338  0.62603492  1
  Mo  Mo166  1  0.80284031  0.59891252  -0.00316765  1
  Mo  Mo167  1  0.89878668  0.88736503  0.63143098  1
  Mo  Mo168  1  0.60928750  0.20121915  0.74637464  1
  Mo  Mo169  1  0.59868837  0.79618281  0.25722776  1
  Mo  Mo170  1  0.50946776  0.50887144  0.87899517  1
  Mo  Mo171  1  0.30686173  0.49610212  0.63809153  1
  Mo  Mo172  1  0.50181692  0.10047974  0.60985185  1
  Mo  Mo173  1  0.30975127  0.70033369  0.38159308  1
  Mo  Mo174  1  0.79665814  0.59509060  0.25901076  1
  Mo  Mo175  1  0.28658574  0.89490500  0.85885421  1
  Mo  Mo176  1  0.91185054  0.10226953  0.11528901  1
  Mo  Mo177  1  0.89105877  0.09626419  0.37249277  1
  Mo  Mo178  1  0.78925895  0.79539262  0.74633377  1
  Mo  Mo179  1  0.69953714  0.10330089  0.12778131  1
  Mo  Mo180  1  0.19114886  0.00492976  0.51176019  1
  Mo  Mo181  1  0.80434275  0.60057625  0.50360184  1
  Mo  Mo182  1  0.70009659  0.50817674  0.12474350  1
  Mo  Mo183  1  0.09988536  0.29802194  0.11737116  1
  Mo  Mo184  1  0.19410928  0.60245525  0.74174677  1
  Mo  Mo185  1  0.60538266  0.80588458  0.50343349  1
  Mo  Mo186  1  0.10906458  0.09712718  0.85700269  1
  Mo  Mo187  1  0.20029284  0.59401800  0.50894122  1
  Mo  Mo188  1  -0.00114074  0.20381291  0.52405042  1
  Mo  Mo189  1  0.08646827  0.70862039  0.86729963  1
  Mo  Mo190  1  0.29051954  0.90225310  0.13392893  1
  Mo  Mo191  1  0.69661834  0.88795720  0.12532127  1
  Mo  Mo192  1  0.59685522  0.60421869  0.49961955  1
  Mo  Mo193  1  0.80206022  0.40270106  -0.00679117  1
  Mo  Mo194  1  0.19869532  0.59756887  0.24399184  1
  Mo  Mo195  1  0.90013858  0.09943108  0.64054460  1
  Mo  Mo196  1  0.19792890  0.18781838  0.74620986  1
  Mo  Mo197  1  0.10124247  0.30518767  0.37748173  1
  Mo  Mo198  1  0.39301249  -0.01034684  0.72261458  1
  Mo  Mo199  1  0.20101452  0.40038499  0.50893298  1
