# generated using pymatgen
data_HfZrTaTiMo
_symmetry_space_group_name_H-M   'P 1'
_cell_length_a   15.20895115
_cell_length_b   15.22372753
_cell_length_c   16.84795770
_cell_angle_alpha   89.96609237
_cell_angle_beta   89.98555844
_cell_angle_gamma   89.96996572
_symmetry_Int_Tables_number   1
_chemical_formula_structural   HfZrTaTiMo
_chemical_formula_sum   'Hf40 Zr40 Ta40 Ti40 Mo40'
_cell_volume   3900.92303321
_cell_formula_units_Z   40
loop_
 _symmetry_equiv_pos_site_id
 _symmetry_equiv_pos_as_xyz
  1  'x, y, z'
loop_
 _atom_site_type_symbol
 _atom_site_label
 _atom_site_symmetry_multiplicity
 _atom_site_fract_x
 _atom_site_fract_y
 _atom_site_fract_z
 _atom_site_occupancy
  Hf  Hf0  1  0.69241042  0.10646124  0.37494568  1
  Hf  Hf1  1  0.00549929  0.60208516  0.51254440  1
  Hf  Hf2  1  0.58383143  -0.00360979  0.24994917  1
  Hf  Hf3  1  0.30372918  0.50370215  0.35701035  1
  Hf  Hf4  1  0.71410598  0.09370642  0.62230764  1
  Hf  Hf5  1  0.70305847  0.69711125  0.12794964  1
  Hf  Hf6  1  0.59611958  0.57901427  0.50279859  1
  Hf  Hf7  1  0.71455357  0.90702765  0.87070581  1
  Hf  Hf8  1  0.39242643  0.79365143  -0.01497951  1
  Hf  Hf9  1  0.20348977  0.39715921  0.48696963  1
  Hf  Hf10  1  0.29203635  0.11983351  0.62836177  1
  Hf  Hf11  1  0.50061599  0.69435540  0.62424201  1
  Hf  Hf12  1  0.10781886  0.71557177  0.87883112  1
  Hf  Hf13  1  0.20676104  0.61294588  0.01546236  1
  Hf  Hf14  1  0.80201447  0.40487535  -0.00894100  1
  Hf  Hf15  1  0.08087661  0.10414512  0.61644337  1
  Hf  Hf16  1  0.00466841  0.60724095  0.73488499  1
  Hf  Hf17  1  0.70242606  0.68826948  0.38943905  1
  Hf  Hf18  1  0.11243960  0.30348449  0.61795664  1
  Hf  Hf19  1  0.00873345  0.39200028  0.01146370  1
  Hf  Hf20  1  -0.01238360  -0.00180310  0.26525357  1
  Hf  Hf21  1  0.68008852  0.10317632  0.87418788  1
  Hf  Hf22  1  0.90864079  0.69772288  0.87202065  1
  Hf  Hf23  1  0.50675534  0.49229594  0.35841744  1
  Hf  Hf24  1  0.10755884  0.49113642  0.87159534  1
  Hf  Hf25  1  0.38519896  0.39270410  0.76485632  1
  Hf  Hf26  1  0.41019688  0.39609356  -0.00885718  1
  Hf  Hf27  1  0.59848241  0.21979888  0.50329287  1
  Hf  Hf28  1  0.70157834  0.70037356  0.61907659  1
  Hf  Hf29  1  0.41204372  0.40280138  0.49612806  1
  Hf  Hf30  1  0.48158817  0.09732939  0.11848674  1
  Hf  Hf31  1  0.90822244  0.68489506  0.13237378  1
  Hf  Hf32  1  0.80902023  0.17927481  0.75656041  1
  Hf  Hf33  1  0.89054661  0.92444753  0.61857079  1
  Hf  Hf34  1  0.50415164  0.10753097  0.62843805  1
  Hf  Hf35  1  0.79083999  0.20545876  -0.00154812  1
  Hf  Hf36  1  0.19899417  0.21715641  0.75522515  1
  Hf  Hf37  1  0.48702263  0.89011755  0.11985019  1
  Hf  Hf38  1  0.60145470  0.79668835  -0.00922429  1
  Hf  Hf39  1  0.90184307  0.49702405  0.86064965  1
  Zr  Zr40  1  0.51229719  0.48881938  0.13808682  1
  Zr  Zr41  1  0.89498221  0.10186376  0.13056485  1
  Zr  Zr42  1  0.80740965  0.80454317  0.49744910  1
  Zr  Zr43  1  0.29318092  0.10714634  0.36846420  1
  Zr  Zr44  1  0.81070546  0.80741637  0.74047128  1
  Zr  Zr45  1  0.69923192  0.89715989  0.13084425  1
  Zr  Zr46  1  0.81588892  0.58170968  0.26237187  1
  Zr  Zr47  1  0.40143954  0.62501155  0.24351327  1
  Zr  Zr48  1  0.21145213  0.60865543  0.75068501  1
  Zr  Zr49  1  0.22921102  0.80286408  0.25728554  1
  Zr  Zr50  1  0.11370371  0.91225829  0.14565746  1
  Zr  Zr51  1  -0.00908478  0.00430221  0.46882913  1
  Zr  Zr52  1  0.41093486  0.80466833  0.49426056  1
  Zr  Zr53  1  0.68737393  0.89654849  0.37836552  1
  Zr  Zr54  1  0.29877274  0.29007247  0.12511791  1
  Zr  Zr55  1  0.91795989  0.28960482  0.87543235  1
  Zr  Zr56  1  0.68815159  0.10227911  0.12184361  1
  Zr  Zr57  1  0.39891291  -0.00006598  0.75543073  1
  Zr  Zr58  1  0.40045305  0.00306570  0.50720526  1
  Zr  Zr59  1  0.60788125  0.38953037  -0.01879765  1
  Zr  Zr60  1  0.60437301  0.58655058  -0.01094519  1
  Zr  Zr61  1  -0.01796414  0.00765524  0.75891691  1
  Zr  Zr62  1  0.27293366  0.30673100  0.89273044  1
  Zr  Zr63  1  -0.00773146  0.40552014  0.49374235  1
  Zr  Zr64  1  0.68980543  0.30025024  0.64348590  1
  Zr  Zr65  1  0.19824134  0.81888326  0.01039431  1
  Zr  Zr66  1  0.70523403  0.69236198  0.86381053  1
  Zr  Zr67  1  0.30739876  0.49838984  0.13591597  1
  Zr  Zr68  1  0.20784511  0.59737815  0.49270268  1
  Zr  Zr69  1  0.49669016  0.10020854  0.38325918  1
  Zr  Zr70  1  0.29307270  0.89827479  0.63271707  1
  Zr  Zr71  1  0.09360179  0.89971791  0.61740353  1
  Zr  Zr72  1  0.39063468  0.78828617  0.76103640  1
  Zr  Zr73  1  0.81436007  0.79556964  0.00022232  1
  Zr  Zr74  1  0.90530860  0.88726246  0.13521652  1
  Zr  Zr75  1  0.19559276  0.00549519  0.49041223  1
  Zr  Zr76  1  0.71501172  0.49323374  0.13043519  1
  Zr  Zr77  1  0.00856572  -0.00820716  0.00672125  1
  Zr  Zr78  1  0.89889915  0.28520990  0.62587890  1
  Zr  Zr79  1  0.30235384  0.69241634  0.61705849  1
  Ta  Ta80  1  0.01067637  0.78496923  0.27160335  1
  Ta  Ta81  1  0.09353352  0.30802235  0.35440705  1
  Ta  Ta82  1  0.30309165  0.51380664  0.88635204  1
  Ta  Ta83  1  0.58777078  0.40304816  0.76846249  1
  Ta  Ta84  1  0.70075987  0.29765562  0.36963223  1
  Ta  Ta85  1  0.59613383  0.78923761  0.25538407  1
  Ta  Ta86  1  0.40957251  0.58570286  0.75745310  1
  Ta  Ta87  1  0.80549346  0.79199795  0.26627053  1
  Ta  Ta88  1  0.50799500  0.90319583  0.86967070  1
  Ta  Ta89  1  0.11014366  0.49874280  0.63054320  1
  Ta  Ta90  1  -0.01048210  0.20480431  0.47848363  1
  Ta  Ta91  1  0.89114736  0.08795001  0.89419858  1
  Ta  Ta92  1  0.38926557  -0.00650610  -0.01614944  1
  Ta  Ta93  1  0.40497652  0.60185877  0.00477997  1
  Ta  Ta94  1  0.01039558  0.80238945  0.47611015  1
  Ta  Ta95  1  0.59257925  0.20947699  0.24747565  1
  Ta  Ta96  1  0.91283879  0.68084989  0.38161557  1
  Ta  Ta97  1  0.60936572  0.60317568  0.25676269  1
  Ta  Ta98  1  0.00484205  0.59548084  0.00545970  1
  Ta  Ta99  1  0.08869013  0.11743858  0.88413762  1
  Ta  Ta100  1  0.38902124  0.18594018  -0.01530370  1
  Ta  Ta101  1  0.80322589  0.59454672  0.73050475  1
  Ta  Ta102  1  0.78713133  0.38724713  0.49831744  1
  Ta  Ta103  1  0.09845370  0.11358570  0.14500927  1
  Ta  Ta104  1  0.89115465  0.30203645  0.13086054  1
  Ta  Ta105  1  0.30115163  0.30409931  0.35599094  1
  Ta  Ta106  1  0.28777083  0.08997479  0.12763046  1
  Ta  Ta107  1  -0.01501841  0.41879192  0.24455234  1
  Ta  Ta108  1  0.18979328  0.61296236  0.24419005  1
  Ta  Ta109  1  0.50286896  0.48973461  0.63250982  1
  Ta  Ta110  1  0.40643003  0.19986331  0.77007974  1
  Ta  Ta111  1  0.09631523  0.11905605  0.35045252  1
  Ta  Ta112  1  0.20511927  0.80103150  0.47807904  1
  Ta  Ta113  1  0.30661027  0.48441165  0.62540045  1
  Ta  Ta114  1  0.08597131  0.51281972  0.36342311  1
  Ta  Ta115  1  0.20282735  0.01603659  -0.00455459  1
  Ta  Ta116  1  0.80997384  0.58102527  0.51186387  1
  Ta  Ta117  1  0.38477999  -0.01148726  0.25444437  1
  Ta  Ta118  1  0.80214403  0.01423583  0.48476995  1
  Ta  Ta119  1  0.59871942  0.80602797  0.74545652  1
  Ti  Ti120  1  0.18023303  0.00316515  0.75840113  1
  Ti  Ti121  1  0.08994142  0.30023978  0.14482387  1
  Ti  Ti122  1  0.19145046  0.40891764  0.24358518  1
  Ti  Ti123  1  0.11489077  0.90783189  0.36121102  1
  Ti  Ti124  1  0.79217919  -0.00289473  0.25934237  1
  Ti  Ti125  1  0.70184597  0.48524785  0.37816498  1
  Ti  Ti126  1  0.60547050  0.00032407  0.74297387  1
  Ti  Ti127  1  0.89934292  0.48418770  0.63442207  1
  Ti  Ti128  1  0.80705132  0.59367568  -0.00465053  1
  Ti  Ti129  1  0.11034585  0.71280173  0.62082253  1
  Ti  Ti130  1  0.50089838  0.30148923  0.36567559  1
  Ti  Ti131  1  0.50457515  0.69702402  0.38720019  1
  Ti  Ti132  1  0.49727966  0.69101532  0.86985685  1
  Ti  Ti133  1  0.09843540  0.70858531  0.12801119  1
  Ti  Ti134  1  0.01330071  0.39163290  0.74626747  1
  Ti  Ti135  1  0.69232394  0.30094624  0.13006219  1
  Ti  Ti136  1  0.60204412  0.59573109  0.75188829  1
  Ti  Ti137  1  0.58969384  -0.00046999  -0.00270855  1
  Ti  Ti138  1  0.58129948  0.20269924  -0.00520227  1
  Ti  Ti139  1  0.80020412  0.38522420  0.25687388  1
  Ti  Ti140  1  0.70442194  0.30167090  0.85437088  1
  Ti  Ti141  1  0.01526702  0.81072185  0.74912784  1
  Ti  Ti142  1  0.17371192  0.20624864  0.00923435  1
  Ti  Ti143  1  0.49834783  0.29632666  0.12777895  1
  Ti  Ti144  1  0.79407072  -0.00497008  0.00649308  1
  Ti  Ti145  1  0.41496419  0.80830243  0.26913006  1
  Ti  Ti146  1  0.19178829  0.20770384  0.48670177  1
  Ti  Ti147  1  0.48688697  0.30242823  0.63686212  1
  Ti  Ti148  1  0.27839063  0.89396460  0.86447982  1
  Ti  Ti149  1  0.50534917  0.69780258  0.12167163  1
  Ti  Ti150  1  0.39806311  0.19426023  0.24790918  1
  Ti  Ti151  1  0.91275084  0.71397482  0.61831422  1
  Ti  Ti152  1  0.69828609  0.48842076  0.63352998  1
  Ti  Ti153  1  0.28697168  0.09767987  0.87133480  1
  Ti  Ti154  1  0.59831385  -0.02050631  0.51187253  1
  Ti  Ti155  1  0.00642781  0.19747262  0.75193381  1
  Ti  Ti156  1  0.19520620  0.41280015  0.01916418  1
  Ti  Ti157  1  0.88378320  0.13055466  0.35543486  1
  Ti  Ti158  1  0.91873242  0.89301538  0.88359765  1
  Ti  Ti159  1  0.38723746  0.21435402  0.49950324  1
  Mo  Mo160  1  0.90358519  0.49427156  0.11770385  1
  Mo  Mo161  1  0.09707687  0.50851596  0.13189536  1
  Mo  Mo162  1  0.19012725  0.80845058  0.75055817  1
  Mo  Mo163  1  0.31661410  0.71346633  0.12551664  1
  Mo  Mo164  1  0.59236903  0.19888634  0.75037938  1
  Mo  Mo165  1  0.19870003  0.40850109  0.74722033  1
  Mo  Mo166  1  0.78476453  0.20499028  0.24037428  1
  Mo  Mo167  1  0.70951941  0.49826463  0.85361732  1
  Mo  Mo168  1  0.49907014  0.50267329  0.87217268  1
  Mo  Mo169  1  0.30787500  0.90387684  0.37976150  1
  Mo  Mo170  1  0.30803053  0.29889905  0.62286239  1
  Mo  Mo171  1  0.89647920  0.89221347  0.36601345  1
  Mo  Mo172  1  -0.01272511  0.21562865  0.25318410  1
  Mo  Mo173  1  0.89259480  0.30821014  0.36806338  1
  Mo  Mo174  1  0.60053152  0.79587151  0.50758320  1
  Mo  Mo175  1  0.51164778  0.89781252  0.63809288  1
  Mo  Mo176  1  0.31274063  0.69546223  0.38235712  1
  Mo  Mo177  1  0.10893215  0.69829538  0.37512339  1
  Mo  Mo178  1  0.00738016  0.59904507  0.24837559  1
  Mo  Mo179  1  0.49418290  0.09167568  0.88001757  1
  Mo  Mo180  1  0.00061352  0.19643767  0.01414346  1
  Mo  Mo181  1  0.80316613  0.20030341  0.49454738  1
  Mo  Mo182  1  0.79812418  -0.00094105  0.75730572  1
  Mo  Mo183  1  0.69187046  0.90292510  0.62093209  1
  Mo  Mo184  1  0.60379480  0.39707609  0.50312262  1
  Mo  Mo185  1  0.89342806  0.49449567  0.38463397  1
  Mo  Mo186  1  0.90377009  0.10368348  0.61327342  1
  Mo  Mo187  1  0.00652601  0.78691796  0.00413672  1
  Mo  Mo188  1  0.40734916  0.38155825  0.24977406  1
  Mo  Mo189  1  0.30209888  0.69612734  0.87816922  1
  Mo  Mo190  1  0.10180006  0.91556892  0.87357976  1
  Mo  Mo191  1  0.19981951  0.00698698  0.25540715  1
  Mo  Mo192  1  0.19914898  0.21246232  0.24346768  1
  Mo  Mo193  1  0.60996684  0.39305287  0.25013623  1
  Mo  Mo194  1  0.31277507  0.91202986  0.12149151  1
  Mo  Mo195  1  0.50433276  0.89816960  0.37548385  1
  Mo  Mo196  1  0.40307316  0.59020208  0.49497657  1
  Mo  Mo197  1  0.50297091  0.28696782  0.87350481  1
  Mo  Mo198  1  0.09477111  0.30247020  0.87994461  1
  Mo  Mo199  1  0.80154943  0.40176194  0.75140522  1
