# generated using pymatgen
data_HfZrTaTiMo
_symmetry_space_group_name_H-M   'P 1'
_cell_length_a   15.18678416
_cell_length_b   15.19844346
_cell_length_c   16.81016820
_cell_angle_alpha   89.98892411
_cell_angle_beta   90.00674912
_cell_angle_gamma   89.87445628
_symmetry_Int_Tables_number   1
_chemical_formula_structural   HfZrTaTiMo
_chemical_formula_sum   'Hf40 Zr40 Ta40 Ti40 Mo40'
_cell_volume   3880.03763317
_cell_formula_units_Z   40
loop_
 _symmetry_equiv_pos_site_id
 _symmetry_equiv_pos_as_xyz
  1  'x, y, z'
loop_
 _atom_site_type_symbol
 _atom_site_label
 _atom_site_symmetry_multiplicity
 _atom_site_fract_x
 _atom_site_fract_y
 _atom_site_fract_z
 _atom_site_occupancy
  Hf  Hf0  1  0.19452396  0.60362087  -0.00494426  1
  Hf  Hf1  1  0.80706524  0.20124966  0.24590598  1
  Hf  Hf2  1  0.10280202  0.72643010  0.11896098  1
  Hf  Hf3  1  0.10478712  0.70589953  0.63643602  1
  Hf  Hf4  1  0.39840612  0.39225416  0.25109202  1
  Hf  Hf5  1  0.79393134  0.00950346  -0.01221302  1
  Hf  Hf6  1  0.11670913  0.92473185  0.63672182  1
  Hf  Hf7  1  0.19766793  0.80342598  0.49858346  1
  Hf  Hf8  1  0.21902438  0.80539122  0.75813405  1
  Hf  Hf9  1  0.79740239  0.41187588  0.74254964  1
  Hf  Hf10  1  0.30480116  0.29193241  0.61825853  1
  Hf  Hf11  1  -0.01402822  0.61924749  0.75911331  1
  Hf  Hf12  1  0.88629947  0.90779696  0.38681507  1
  Hf  Hf13  1  0.50474524  0.69691027  0.38470985  1
  Hf  Hf14  1  0.59805119  0.37988013  0.49127365  1
  Hf  Hf15  1  0.50138172  0.49308346  0.13437869  1
  Hf  Hf16  1  0.70962474  0.88160077  0.86934544  1
  Hf  Hf17  1  0.20114014  0.60740210  0.24691486  1
  Hf  Hf18  1  0.10986318  0.92250221  0.85802368  1
  Hf  Hf19  1  0.40111438  0.18350974  -0.00415927  1
  Hf  Hf20  1  0.70196871  0.70998668  0.38685349  1
  Hf  Hf21  1  0.08956976  0.49841714  0.87908850  1
  Hf  Hf22  1  -0.00294447  0.81481805  0.51617184  1
  Hf  Hf23  1  0.88399556  0.51314279  0.88063975  1
  Hf  Hf24  1  0.89491177  0.11529084  0.87275114  1
  Hf  Hf25  1  0.19692504  0.81494102  -0.01667914  1
  Hf  Hf26  1  0.69922963  0.49487924  0.36645663  1
  Hf  Hf27  1  0.40500898  0.39108304  0.00586752  1
  Hf  Hf28  1  0.60542572  0.17645487  0.48924858  1
  Hf  Hf29  1  0.49250762  0.08781631  0.62958739  1
  Hf  Hf30  1  0.29349206  0.28901620  0.87548036  1
  Hf  Hf31  1  0.77761723  0.61265023  0.00634851  1
  Hf  Hf32  1  0.40920684  0.58811497  0.74347188  1
  Hf  Hf33  1  0.29640127  0.48731232  0.61569988  1
  Hf  Hf34  1  0.09236898  0.30328464  0.87295442  1
  Hf  Hf35  1  0.91720476  0.90264262  0.11109150  1
  Hf  Hf36  1  0.80376441  0.21390132  0.50554100  1
  Hf  Hf37  1  0.19519218  0.59469079  0.49969744  1
  Hf  Hf38  1  0.30260025  0.69573241  0.37813184  1
  Hf  Hf39  1  0.00107221  0.01513527  0.50509124  1
  Zr  Zr40  1  0.49982356  0.48144048  0.61311476  1
  Zr  Zr41  1  0.31654819  0.69715016  0.11656124  1
  Zr  Zr42  1  -0.00204910  -0.00221422  0.26234780  1
  Zr  Zr43  1  0.60164741  0.39513780  -0.00212563  1
  Zr  Zr44  1  0.89349743  0.50380756  0.37620273  1
  Zr  Zr45  1  0.31515546  0.69889759  0.87728608  1
  Zr  Zr46  1  0.79982254  0.80871169  0.24892226  1
  Zr  Zr47  1  0.90127671  0.71170937  0.11126154  1
  Zr  Zr48  1  0.18943555  0.19635923  0.00488931  1
  Zr  Zr49  1  0.80446361  0.00314732  0.74525075  1
  Zr  Zr50  1  0.10782787  0.09144588  0.13548274  1
  Zr  Zr51  1  0.30679064  0.49002892  0.88609869  1
  Zr  Zr52  1  0.90463171  0.31211272  0.87457498  1
  Zr  Zr53  1  0.31375805  0.90280145  0.61975113  1
  Zr  Zr54  1  0.29808808  0.28609422  0.13468237  1
  Zr  Zr55  1  0.00974933  0.21071130  0.50909474  1
  Zr  Zr56  1  0.49903741  0.89016372  0.11981592  1
  Zr  Zr57  1  0.88638406  0.52534524  0.62480979  1
  Zr  Zr58  1  0.19825393  0.59648678  0.75854080  1
  Zr  Zr59  1  0.18913454  0.18721624  0.74445785  1
  Zr  Zr60  1  0.30887188  0.90070626  0.37870880  1
  Zr  Zr61  1  0.42261153  0.80777964  0.50431297  1
  Zr  Zr62  1  0.90431167  0.10300763  0.12126870  1
  Zr  Zr63  1  0.70184941  0.90646877  0.11410297  1
  Zr  Zr64  1  0.90644368  0.31362785  0.36235132  1
  Zr  Zr65  1  0.00298156  0.60222409  0.24351862  1
  Zr  Zr66  1  0.69375867  0.29554643  0.63921559  1
  Zr  Zr67  1  0.29927201  0.48922570  0.37880443  1
  Zr  Zr68  1  0.49450033  0.28275954  0.63516063  1
  Zr  Zr69  1  0.59282745  0.60468881  0.24848548  1
  Zr  Zr70  1  0.70781691  0.29827154  0.86410216  1
  Zr  Zr71  1  0.79969581  0.40810096  0.01936032  1
  Zr  Zr72  1  -0.00262639  0.40453740  0.51107763  1
  Zr  Zr73  1  0.79918396  0.59515561  0.22899988  1
  Zr  Zr74  1  0.60321444  0.18768393  -0.01481373  1
  Zr  Zr75  1  0.89673636  0.70503563  0.38230733  1
  Zr  Zr76  1  0.50495147  0.08727278  0.12754147  1
  Zr  Zr77  1  0.00167188  0.60983311  0.50371319  1
  Zr  Zr78  1  0.29063253  0.89727017  0.12532090  1
  Zr  Zr79  1  0.52194876  0.68487594  0.85918736  1
  Ta  Ta80  1  0.19173673  0.40671847  0.24189284  1
  Ta  Ta81  1  0.40400879  0.59379303  0.50440733  1
  Ta  Ta82  1  0.19287591  0.38545938  0.49108986  1
  Ta  Ta83  1  0.59676139  -0.02585504  0.51138277  1
  Ta  Ta84  1  0.10641942  0.11529906  0.36629119  1
  Ta  Ta85  1  0.42353408  0.79151464  -0.00726063  1
  Ta  Ta86  1  0.29660781  0.49780483  0.11958453  1
  Ta  Ta87  1  0.50975138  0.69279093  0.62486736  1
  Ta  Ta88  1  0.59477322  0.81365342  0.25511962  1
  Ta  Ta89  1  0.69189709  0.30287756  0.14111923  1
  Ta  Ta90  1  0.08556874  0.29743528  0.14335451  1
  Ta  Ta91  1  0.09424959  0.49293125  0.36719578  1
  Ta  Ta92  1  0.79145269  0.81362564  0.52486360  1
  Ta  Ta93  1  0.08796553  0.10837289  0.87457187  1
  Ta  Ta94  1  0.00829145  0.80811723  0.25816621  1
  Ta  Ta95  1  0.61524323  0.78684324  0.73542716  1
  Ta  Ta96  1  0.78453727  0.00822750  0.25443303  1
  Ta  Ta97  1  0.79682618  0.21041134  0.01152650  1
  Ta  Ta98  1  0.61534615  0.78619266  -0.00814343  1
  Ta  Ta99  1  0.49793018  0.49084932  0.38022364  1
  Ta  Ta100  1  0.69480877  0.10359096  0.12360509  1
  Ta  Ta101  1  -0.00508128  0.81900468  0.74715360  1
  Ta  Ta102  1  0.59909497  0.17960547  0.76679422  1
  Ta  Ta103  1  -0.01557298  0.21073595  0.72892181  1
  Ta  Ta104  1  0.50960182  0.07648587  0.37246659  1
  Ta  Ta105  1  0.58128621  0.59947028  0.00946500  1
  Ta  Ta106  1  0.50726147  0.28319128  0.14065229  1
  Ta  Ta107  1  0.19902508  0.39773362  0.74872526  1
  Ta  Ta108  1  0.60685895  0.18292579  0.26424837  1
  Ta  Ta109  1  0.49426534  0.29655796  0.86250802  1
  Ta  Ta110  1  0.81027296  0.79710074  0.73206404  1
  Ta  Ta111  1  0.31068777  0.69570178  0.62471041  1
  Ta  Ta112  1  0.40932058  -0.01369750  0.25796913  1
  Ta  Ta113  1  0.79206631  0.01105462  0.51637348  1
  Ta  Ta114  1  0.89495105  0.10807393  0.37825762  1
  Ta  Ta115  1  0.59306670  -0.01467161  0.75947024  1
  Ta  Ta116  1  0.29270773  0.09394210  0.61671432  1
  Ta  Ta117  1  0.28852749  0.28571439  0.36642636  1
  Ta  Ta118  1  0.30748992  0.08422026  0.12667933  1
  Ta  Ta119  1  0.20941134  0.00583731  0.26603819  1
  Ti  Ti120  1  0.40406908  0.00866379  0.49269785  1
  Ti  Ti121  1  0.00027400  0.40923146  0.74009340  1
  Ti  Ti122  1  0.78986951  0.41400255  0.51397244  1
  Ti  Ti123  1  -0.00227789  0.40312154  0.01639091  1
  Ti  Ti124  1  -0.00387312  0.61156121  -0.00583073  1
  Ti  Ti125  1  0.19397806  0.81364122  0.26075528  1
  Ti  Ti126  1  0.40430286  0.79048234  0.25282541  1
  Ti  Ti127  1  0.60792078  0.59014461  0.50257520  1
  Ti  Ti128  1  0.69254594  0.09603225  0.63413476  1
  Ti  Ti129  1  0.49611282  0.28987310  0.36536597  1
  Ti  Ti130  1  0.78078114  0.61452161  0.75375508  1
  Ti  Ti131  1  0.40016552  0.19825276  0.48633009  1
  Ti  Ti132  1  0.39380816  -0.01242898  0.75088654  1
  Ti  Ti133  1  0.91306547  0.90726876  0.88050235  1
  Ti  Ti134  1  0.19095491  0.39535579  0.01460800  1
  Ti  Ti135  1  0.28384191  0.08214742  0.88043452  1
  Ti  Ti136  1  0.32400529  0.90497716  0.87988907  1
  Ti  Ti137  1  0.70345841  0.29982443  0.36051082  1
  Ti  Ti138  1  0.48501106  0.07906080  0.87148268  1
  Ti  Ti139  1  0.09521225  0.50701235  0.12102691  1
  Ti  Ti140  1  0.10713463  0.30824643  0.62841446  1
  Ti  Ti141  1  0.89063006  0.72244574  0.88358809  1
  Ti  Ti142  1  0.58960648  0.41023377  0.75719984  1
  Ti  Ti143  1  0.67862732  0.51494144  0.87250673  1
  Ti  Ti144  1  -0.00706425  0.20994202  0.00704175  1
  Ti  Ti145  1  0.70923813  0.68434384  0.61435322  1
  Ti  Ti146  1  0.02292816  0.00029158  -0.00203950  1
  Ti  Ti147  1  0.58685836  -0.01369998  -0.02237347  1
  Ti  Ti148  1  0.39845422  0.59707308  0.25118287  1
  Ti  Ti149  1  0.39597890  0.17807941  0.25994966  1
  Ti  Ti150  1  0.10179215  0.50186606  0.63196324  1
  Ti  Ti151  1  0.68328613  0.70940037  0.12867384  1
  Ti  Ti152  1  0.19788177  0.00789152  0.48292247  1
  Ti  Ti153  1  0.39101480  0.18089083  0.75781211  1
  Ti  Ti154  1  0.09783175  0.70611848  0.37481943  1
  Ti  Ti155  1  0.39443426  0.39209534  0.75517034  1
  Ti  Ti156  1  0.09853945  0.30485108  0.35258995  1
  Ti  Ti157  1  0.68805988  0.91125188  0.38306430  1
  Ti  Ti158  1  0.20197387  0.19470401  0.49743844  1
  Ti  Ti159  1  0.00391328  0.02309530  0.73484370  1
  Mo  Mo160  1  0.10234198  0.90277427  0.12774756  1
  Mo  Mo161  1  0.08352888  0.71382871  0.87191528  1
  Mo  Mo162  1  0.50104429  0.48826081  0.87311399  1
  Mo  Mo163  1  0.20563097  0.19818809  0.24948398  1
  Mo  Mo164  1  0.69349944  0.49895524  0.13483883  1
  Mo  Mo165  1  0.39847642  -0.00958244  -0.00598387  1
  Mo  Mo166  1  0.90796630  0.50751838  0.10890305  1
  Mo  Mo167  1  -0.00277140  0.40852480  0.23504128  1
  Mo  Mo168  1  0.21254037  0.00922564  0.75190029  1
  Mo  Mo169  1  0.20651120  0.00523544  -0.00219226  1
  Mo  Mo170  1  0.39552593  0.38400101  0.48240324  1
  Mo  Mo171  1  0.79669233  0.20020802  0.74013341  1
  Mo  Mo172  1  0.59737648  0.38692430  0.26223719  1
  Mo  Mo173  1  0.40628193  0.59299844  0.00284483  1
  Mo  Mo174  1  0.41893190  0.80097123  0.74241805  1
  Mo  Mo175  1  0.71015027  0.09266801  0.38360992  1
  Mo  Mo176  1  0.90313043  0.91366894  0.62531233  1
  Mo  Mo177  1  0.79776576  0.40436252  0.22969672  1
  Mo  Mo178  1  0.50964900  0.89105567  0.37420481  1
  Mo  Mo179  1  0.89807740  0.31434946  0.62747340  1
  Mo  Mo180  1  0.69523299  0.09353245  0.87130908  1
  Mo  Mo181  1  0.50175771  0.70243892  0.12620531  1
  Mo  Mo182  1  0.79086059  0.60352045  0.49968954  1
  Mo  Mo183  1  0.60715244  -0.00393766  0.25171202  1
  Mo  Mo184  1  0.30875548  0.10316188  0.38042101  1
  Mo  Mo185  1  0.90067439  0.30420311  0.13296306  1
  Mo  Mo186  1  0.89194693  0.11258998  0.62561419  1
  Mo  Mo187  1  0.69590185  0.90277518  0.63497998  1
  Mo  Mo188  1  0.50265467  0.88517007  0.86627547  1
  Mo  Mo189  1  0.89916529  0.71135988  0.62723632  1
  Mo  Mo190  1  0.68954417  0.49997382  0.62264728  1
  Mo  Mo191  1  0.10647699  0.11087212  0.61795186  1
  Mo  Mo192  1  0.50564166  0.89644353  0.63913939  1
  Mo  Mo193  1  0.60942998  0.58879339  0.73477997  1
  Mo  Mo194  1  0.80238595  0.80630495  -0.00347983  1
  Mo  Mo195  1  0.09845347  0.90329329  0.37945100  1
  Mo  Mo196  1  0.00496699  0.80734159  -0.02176129  1
  Mo  Mo197  1  0.00189716  0.19935092  0.25733476  1
  Mo  Mo198  1  0.70972484  0.69173961  0.87181402  1
  Mo  Mo199  1  0.61009201  0.79230278  0.51659033  1
