# generated using pymatgen
data_HfZrTaTiMo
_symmetry_space_group_name_H-M   'P 1'
_cell_length_a   15.18324363
_cell_length_b   15.18041173
_cell_length_c   16.80924038
_cell_angle_alpha   89.94103555
_cell_angle_beta   90.03217925
_cell_angle_gamma   89.96857196
_symmetry_Int_Tables_number   1
_chemical_formula_structural   HfZrTaTiMo
_chemical_formula_sum   'Hf40 Zr40 Ta40 Ti40 Mo40'
_cell_volume   3874.32309684
_cell_formula_units_Z   40
loop_
 _symmetry_equiv_pos_site_id
 _symmetry_equiv_pos_as_xyz
  1  'x, y, z'
loop_
 _atom_site_type_symbol
 _atom_site_label
 _atom_site_symmetry_multiplicity
 _atom_site_fract_x
 _atom_site_fract_y
 _atom_site_fract_z
 _atom_site_occupancy
  Hf  Hf0  1  0.31772724  0.10877442  0.86787370  1
  Hf  Hf1  1  0.59283796  0.18690321  0.24801926  1
  Hf  Hf2  1  0.19746240  0.20158299  0.50203695  1
  Hf  Hf3  1  0.51197997  0.70372041  0.12373391  1
  Hf  Hf4  1  -0.00571948  0.20540944  0.50215292  1
  Hf  Hf5  1  0.09925078  0.70426881  0.13665256  1
  Hf  Hf6  1  0.31254042  0.50446284  0.61621298  1
  Hf  Hf7  1  0.87869470  0.70966293  0.37834826  1
  Hf  Hf8  1  0.79447126  0.00411593  0.01657523  1
  Hf  Hf9  1  0.89546111  0.09729658  0.36287352  1
  Hf  Hf10  1  0.69832256  0.91220394  0.88301678  1
  Hf  Hf11  1  0.79977070  0.40105390  0.25299844  1
  Hf  Hf12  1  0.09599855  0.91486134  0.11944850  1
  Hf  Hf13  1  0.69746803  0.86402777  0.10902503  1
  Hf  Hf14  1  0.69119821  0.49196587  0.12285923  1
  Hf  Hf15  1  0.59872223  0.17814131  0.74647381  1
  Hf  Hf16  1  0.21371011  0.81313082  0.74084867  1
  Hf  Hf17  1  0.50744868  0.69290450  0.38612538  1
  Hf  Hf18  1  0.80506382  0.81909892  0.75230149  1
  Hf  Hf19  1  0.00406270  0.60808584  0.73420140  1
  Hf  Hf20  1  0.70134748  0.27592620  0.88618187  1
  Hf  Hf21  1  0.79537127  0.60243129  -0.00387893  1
  Hf  Hf22  1  0.10298218  0.11328050  0.36864249  1
  Hf  Hf23  1  0.49227125  0.27622473  0.88466489  1
  Hf  Hf24  1  -0.00621187  0.40984844  0.75429143  1
  Hf  Hf25  1  0.30058827  0.50182062  0.87334743  1
  Hf  Hf26  1  0.10090251  0.90942916  0.88059609  1
  Hf  Hf27  1  0.59901992  0.58375388  0.74098099  1
  Hf  Hf28  1  0.89491999  0.49622388  0.38250617  1
  Hf  Hf29  1  0.69554899  0.08237480  0.61912175  1
  Hf  Hf30  1  0.10149690  0.50048007  0.12923548  1
  Hf  Hf31  1  0.10188468  0.11434827  0.12056063  1
  Hf  Hf32  1  0.11303282  0.91969692  0.62608859  1
  Hf  Hf33  1  0.30713616  0.91275764  0.87710285  1
  Hf  Hf34  1  0.59707435  0.38589457  0.75041478  1
  Hf  Hf35  1  0.09195619  0.10648529  0.87295346  1
  Hf  Hf36  1  0.50023761  0.69767071  0.86874889  1
  Hf  Hf37  1  0.59698745  0.59573236  -0.00609838  1
  Hf  Hf38  1  0.10175400  0.51799488  0.87120301  1
  Hf  Hf39  1  0.09328838  0.70477928  0.37750714  1
  Zr  Zr40  1  0.87621747  0.10081258  0.87698390  1
  Zr  Zr41  1  0.49901232  0.89714084  0.87457024  1
  Zr  Zr42  1  0.10225212  0.30684056  0.63597258  1
  Zr  Zr43  1  0.10694917  0.30689135  0.86437222  1
  Zr  Zr44  1  0.20303908  0.80309861  0.00645267  1
  Zr  Zr45  1  0.40326185  0.39083188  0.74672809  1
  Zr  Zr46  1  0.58150667  0.58337447  0.25135909  1
  Zr  Zr47  1  0.88101181  0.71484519  0.12725885  1
  Zr  Zr48  1  0.19997683  0.81578612  0.26247191  1
  Zr  Zr49  1  0.49419174  0.68889449  0.61519109  1
  Zr  Zr50  1  0.10376578  0.50036538  0.60825123  1
  Zr  Zr51  1  0.00192463  0.61002223  0.00536005  1
  Zr  Zr52  1  0.29462395  0.30386190  0.12719893  1
  Zr  Zr53  1  0.79853538  0.18738911  0.49252490  1
  Zr  Zr54  1  0.30479912  0.50830286  0.12308704  1
  Zr  Zr55  1  0.40561050  0.41367610  0.26458624  1
  Zr  Zr56  1  0.89738500  0.29691265  0.63583331  1
  Zr  Zr57  1  0.70313128  0.29196336  0.37568791  1
  Zr  Zr58  1  0.69627731  0.29455931  0.61620646  1
  Zr  Zr59  1  -0.00625869  0.59336677  0.25503312  1
  Zr  Zr60  1  0.89914316  0.91764691  0.61652725  1
  Zr  Zr61  1  0.00940123  0.80413017  0.74349481  1
  Zr  Zr62  1  0.08885648  0.10687293  0.64281009  1
  Zr  Zr63  1  0.30854087  0.70438426  0.13702965  1
  Zr  Zr64  1  0.80400128  -0.02257192  0.23685556  1
  Zr  Zr65  1  0.19813028  0.40100199  0.25913088  1
  Zr  Zr66  1  -0.00145931  0.40317762  -0.00740189  1
  Zr  Zr67  1  0.22239054  0.61458242  0.48911512  1
  Zr  Zr68  1  0.10047240  0.48457209  0.39477353  1
  Zr  Zr69  1  0.30529253  0.70672143  0.87577992  1
  Zr  Zr70  1  0.78606226  0.59898396  0.51146791  1
  Zr  Zr71  1  0.80036648  0.59654494  0.74568078  1
  Zr  Zr72  1  0.20976737  0.21078733  -0.00803752  1
  Zr  Zr73  1  0.20120869  0.82227317  0.48999370  1
  Zr  Zr74  1  0.49139217  0.08219746  0.37727153  1
  Zr  Zr75  1  0.38502005  0.20054193  0.25543694  1
  Zr  Zr76  1  0.90341411  0.70794634  0.87412660  1
  Zr  Zr77  1  0.39290236  0.80109241  0.49713693  1
  Zr  Zr78  1  -0.01466073  0.81858173  0.25944086  1
  Zr  Zr79  1  0.70353584  0.28733482  0.12168785  1
  Ta  Ta80  1  0.78047903  0.60763867  0.25258610  1
  Ta  Ta81  1  0.89211785  0.49686756  0.12745120  1
  Ta  Ta82  1  0.50004966  0.29640456  0.39058183  1
  Ta  Ta83  1  0.60155476  0.16566018  0.01649355  1
  Ta  Ta84  1  0.39033016  0.19274623  0.49730007  1
  Ta  Ta85  1  0.49771447  0.49185186  0.87821451  1
  Ta  Ta86  1  0.00618895  0.00383217  0.48958382  1
  Ta  Ta87  1  0.80008963  0.39630381  -0.00436084  1
  Ta  Ta88  1  0.90088605  0.71019336  0.61819479  1
  Ta  Ta89  1  0.51154429  0.90431127  0.61682532  1
  Ta  Ta90  1  0.00967571  0.00753080  0.25233243  1
  Ta  Ta91  1  0.69193660  0.07379542  0.36262936  1
  Ta  Ta92  1  0.09085932  0.30249130  0.11855080  1
  Ta  Ta93  1  0.90386777  0.29686523  0.12098633  1
  Ta  Ta94  1  0.90791463  0.10418332  0.12272205  1
  Ta  Ta95  1  -0.01606063  -0.00071446  0.76052724  1
  Ta  Ta96  1  0.29366692  0.09310851  0.63314019  1
  Ta  Ta97  1  0.41972938  0.80888560  0.25727866  1
  Ta  Ta98  1  0.60128037  0.80187445  0.74226628  1
  Ta  Ta99  1  0.10744336  0.70902951  0.87401285  1
  Ta  Ta100  1  0.39529724  0.39763837  0.49547135  1
  Ta  Ta101  1  0.70961376  0.88027454  0.37432300  1
  Ta  Ta102  1  0.50080301  0.30228205  0.12055575  1
  Ta  Ta103  1  -0.00709916  0.60874808  0.50550952  1
  Ta  Ta104  1  0.21300723  0.01825802  0.24873907  1
  Ta  Ta105  1  -0.01527655  0.82055538  0.00025663  1
  Ta  Ta106  1  0.49903616  0.29354217  0.60369942  1
  Ta  Ta107  1  0.31712840  0.92233464  0.36359970  1
  Ta  Ta108  1  0.49491089  0.09270860  0.61166329  1
  Ta  Ta109  1  0.39891596  0.59651772  0.74512954  1
  Ta  Ta110  1  0.89859809  0.29251754  0.87155480  1
  Ta  Ta111  1  0.20536855  0.61291489  0.73699828  1
  Ta  Ta112  1  0.21505305  0.60086067  0.27186848  1
  Ta  Ta113  1  0.30075831  0.29815547  0.61834434  1
  Ta  Ta114  1  0.68846335  0.50221891  0.38241783  1
  Ta  Ta115  1  0.30910262  0.90837372  0.13212365  1
  Ta  Ta116  1  0.41262834  0.00864929  0.01742511  1
  Ta  Ta117  1  0.70008091  0.70342283  0.63070370  1
  Ta  Ta118  1  0.79024052  0.39724829  0.75616946  1
  Ta  Ta119  1  0.39779208  0.39330566  -0.00608132  1
  Ti  Ti120  1  0.40323227  0.19355554  0.01608987  1
  Ti  Ti121  1  0.40908330  0.00609746  0.23522365  1
  Ti  Ti122  1  0.40519841  0.19843341  0.73668818  1
  Ti  Ti123  1  0.51444525  0.08107318  0.87871743  1
  Ti  Ti124  1  0.40370565  0.79984490  0.73251398  1
  Ti  Ti125  1  0.59609892  0.38829714  0.25583804  1
  Ti  Ti126  1  0.49258537  0.49269620  0.11655788  1
  Ti  Ti127  1  0.18621956  0.21182353  0.25254174  1
  Ti  Ti128  1  -0.00191361  0.81334478  0.49398674  1
  Ti  Ti129  1  0.20157212  0.60580343  0.00198797  1
  Ti  Ti130  1  0.80312704  0.19388402  0.24522860  1
  Ti  Ti131  1  0.89404404  0.49562746  0.61912995  1
  Ti  Ti132  1  0.20306113  0.40680193  -0.00438128  1
  Ti  Ti133  1  0.39909530  0.59917574  -0.00321957  1
  Ti  Ti134  1  0.21018315  0.40927294  0.74834249  1
  Ti  Ti135  1  0.51897412  0.89876823  0.38097218  1
  Ti  Ti136  1  0.59647453  -0.02289769  0.23239568  1
  Ti  Ti137  1  0.59729566  0.18145643  0.48985238  1
  Ti  Ti138  1  0.69682537  0.70437281  0.86834120  1
  Ti  Ti139  1  0.61294345  0.79346162  0.50352270  1
  Ti  Ti140  1  0.28677648  0.30487837  0.38441545  1
  Ti  Ti141  1  0.40459294  -0.00266820  0.73811727  1
  Ti  Ti142  1  0.69971222  0.89897642  0.62316981  1
  Ti  Ti143  1  0.91295546  0.30029446  0.37313764  1
  Ti  Ti144  1  0.79743142  -0.00736419  0.48824187  1
  Ti  Ti145  1  0.20819263  0.00999002  0.48951060  1
  Ti  Ti146  1  0.59489076  0.38823515  -0.00400722  1
  Ti  Ti147  1  0.79865812  0.39552987  0.49998380  1
  Ti  Ti148  1  0.10596674  0.71006651  0.60940727  1
  Ti  Ti149  1  0.89329311  0.49972441  0.87429967  1
  Ti  Ti150  1  0.62115989  0.78307304  0.25501665  1
  Ti  Ti151  1  0.00019892  0.38702679  0.24935099  1
  Ti  Ti152  1  0.41252059  0.80860585  0.00912649  1
  Ti  Ti153  1  0.21338540  0.20727651  0.75391824  1
  Ti  Ti154  1  0.50195592  0.49625643  0.39813346  1
  Ti  Ti155  1  0.39482257  -0.00228738  0.50408077  1
  Ti  Ti156  1  0.69631167  0.49053913  0.87735462  1
  Ti  Ti157  1  0.21398589  0.01122649  0.00644999  1
  Ti  Ti158  1  0.88855892  0.10306627  0.64305258  1
  Ti  Ti159  1  0.80019162  0.80308491  0.50695640  1
  Mo  Mo160  1  0.20420114  0.39313594  0.49810698  1
  Mo  Mo161  1  0.60359544  0.39447445  0.49770100  1
  Mo  Mo162  1  0.60134509  0.58965130  0.51412509  1
  Mo  Mo163  1  0.59320494  -0.01169039  0.74323305  1
  Mo  Mo164  1  0.68390951  0.09525401  0.88054982  1
  Mo  Mo165  1  -0.00883357  0.20048915  0.75630057  1
  Mo  Mo166  1  0.59125813  -0.00959662  0.01773789  1
  Mo  Mo167  1  0.29841097  0.70443395  0.62927728  1
  Mo  Mo168  1  0.31287358  0.50345755  0.38524882  1
  Mo  Mo169  1  0.29948751  0.10365655  0.37511731  1
  Mo  Mo170  1  0.50925343  0.48492791  0.60917083  1
  Mo  Mo171  1  -0.00548875  0.20750525  0.24662343  1
  Mo  Mo172  1  0.78220368  0.00798583  0.74990945  1
  Mo  Mo173  1  0.89827039  0.90493552  0.38756168  1
  Mo  Mo174  1  0.31426939  0.91455299  0.62539609  1
  Mo  Mo175  1  0.60534676  -0.01501541  0.49254096  1
  Mo  Mo176  1  0.69318388  0.69395309  0.38227960  1
  Mo  Mo177  1  0.09051102  0.30268509  0.37827787  1
  Mo  Mo178  1  0.90245843  0.91024452  0.87829950  1
  Mo  Mo179  1  0.40094651  0.60706200  0.25972780  1
  Mo  Mo180  1  0.20677055  0.00980662  0.75571365  1
  Mo  Mo181  1  0.79345272  0.79371058  0.25159138  1
  Mo  Mo182  1  0.79160156  0.20137426  0.75055168  1
  Mo  Mo183  1  0.49906116  0.10002195  0.13552459  1
  Mo  Mo184  1  0.90474314  0.90517985  0.12079351  1
  Mo  Mo185  1  0.10166590  0.91835882  0.37541030  1
  Mo  Mo186  1  0.70425005  0.48840664  0.62688289  1
  Mo  Mo187  1  0.79864682  0.79591398  -0.01737798  1
  Mo  Mo188  1  0.00074166  0.00910726  -0.00030588  1
  Mo  Mo189  1  0.29653963  0.09871428  0.12407688  1
  Mo  Mo190  1  0.69773884  0.68161848  0.12169090  1
  Mo  Mo191  1  0.70122865  0.08859523  0.14494316  1
  Mo  Mo192  1  -0.00947135  0.20261777  -0.00111867  1
  Mo  Mo193  1  0.60165446  0.78802614  -0.00979533  1
  Mo  Mo194  1  -0.01364870  0.40067761  0.50383629  1
  Mo  Mo195  1  0.30776807  0.30340120  0.87365897  1
  Mo  Mo196  1  0.40444201  0.59698116  0.49577032  1
  Mo  Mo197  1  0.79923236  0.20000911  0.01231194  1
  Mo  Mo198  1  0.49903603  0.89125348  0.12824180  1
  Mo  Mo199  1  0.31158373  0.70974984  0.35918131  1
