# generated using pymatgen
data_HfZrTaTiMo
_symmetry_space_group_name_H-M   'P 1'
_cell_length_a   15.20652789
_cell_length_b   15.19991681
_cell_length_c   16.81636980
_cell_angle_alpha   89.97816027
_cell_angle_beta   89.95674701
_cell_angle_gamma   89.96632497
_symmetry_Int_Tables_number   1
_chemical_formula_structural   HfZrTaTiMo
_chemical_formula_sum   'Hf40 Zr40 Ta40 Ti40 Mo40'
_cell_volume   3886.89933028
_cell_formula_units_Z   40
loop_
 _symmetry_equiv_pos_site_id
 _symmetry_equiv_pos_as_xyz
  1  'x, y, z'
loop_
 _atom_site_type_symbol
 _atom_site_label
 _atom_site_symmetry_multiplicity
 _atom_site_fract_x
 _atom_site_fract_y
 _atom_site_fract_z
 _atom_site_occupancy
  Hf  Hf0  1  0.50115342  0.48995305  0.38988647  1
  Hf  Hf1  1  0.48783508  0.69823525  0.88708110  1
  Hf  Hf2  1  0.41259688  0.21147618  -0.00103082  1
  Hf  Hf3  1  0.70638795  0.09010445  0.13677318  1
  Hf  Hf4  1  0.10433245  0.90933826  0.62578577  1
  Hf  Hf5  1  0.48448283  0.69694166  0.11205793  1
  Hf  Hf6  1  0.30070979  0.89690381  0.13295452  1
  Hf  Hf7  1  0.60698308  0.59353389  -0.00657869  1
  Hf  Hf8  1  0.81056229  0.18985001  0.75236722  1
  Hf  Hf9  1  0.90675472  0.49619286  0.38035606  1
  Hf  Hf10  1  0.29848632  0.70300242  0.62383476  1
  Hf  Hf11  1  0.70838452  0.51242526  0.61501369  1
  Hf  Hf12  1  -0.00540303  0.78773356  0.75477493  1
  Hf  Hf13  1  0.29334146  0.11024763  0.89288353  1
  Hf  Hf14  1  0.89389185  0.89789134  0.62603245  1
  Hf  Hf15  1  0.60622686  0.60799990  0.75499021  1
  Hf  Hf16  1  0.58573077  0.81104510  0.49722155  1
  Hf  Hf17  1  0.29787982  0.11273968  0.12799748  1
  Hf  Hf18  1  0.30471624  0.91234425  0.88904979  1
  Hf  Hf19  1  0.50870834  0.10243197  0.13637347  1
  Hf  Hf20  1  0.30321417  0.50313488  0.88166590  1
  Hf  Hf21  1  0.79891830  0.80118075  0.00830543  1
  Hf  Hf22  1  0.17647523  0.59793455  -0.01219553  1
  Hf  Hf23  1  0.00994856  0.01193018  0.49577223  1
  Hf  Hf24  1  0.91364325  0.29227588  0.37085270  1
  Hf  Hf25  1  0.68929881  0.09535424  0.62754343  1
  Hf  Hf26  1  0.60600044  0.39478126  0.75506248  1
  Hf  Hf27  1  0.18440780  0.79627642  0.49652881  1
  Hf  Hf28  1  0.29345287  0.71697931  0.89511006  1
  Hf  Hf29  1  0.27755167  0.68500827  0.36962162  1
  Hf  Hf30  1  0.70633743  0.29629417  0.62862678  1
  Hf  Hf31  1  0.01563917  0.61088084  0.26959192  1
  Hf  Hf32  1  0.18995151  0.60776312  0.76437425  1
  Hf  Hf33  1  0.20394806  0.40042849  0.50807676  1
  Hf  Hf34  1  0.60067159  0.19462335  0.48560007  1
  Hf  Hf35  1  0.61857732  0.18775323  -0.01538965  1
  Hf  Hf36  1  0.19134398  0.19754392  0.48926086  1
  Hf  Hf37  1  0.59976135  0.57973779  0.25393075  1
  Hf  Hf38  1  0.92578950  0.50313627  0.13864854  1
  Hf  Hf39  1  0.49905214  0.50620497  0.62488938  1
  Zr  Zr40  1  0.77969995  0.79410056  0.74645467  1
  Zr  Zr41  1  0.70077240  0.29222636  0.13820993  1
  Zr  Zr42  1  0.39227820  0.18482138  0.75122744  1
  Zr  Zr43  1  0.09063159  0.89018390  0.13016265  1
  Zr  Zr44  1  0.88540783  0.69329987  0.87364935  1
  Zr  Zr45  1  0.22084164  -0.00069598  0.49037648  1
  Zr  Zr46  1  0.69830490  0.69245001  0.13002098  1
  Zr  Zr47  1  0.79573968  -0.00148276  0.49323739  1
  Zr  Zr48  1  0.48428356  0.69662851  0.38118626  1
  Zr  Zr49  1  0.07955071  0.90128802  0.36147887  1
  Zr  Zr50  1  0.01370453  0.40537641  0.00213630  1
  Zr  Zr51  1  0.49184412  0.48932573  0.87226029  1
  Zr  Zr52  1  0.59790367  0.78720153  0.25373214  1
  Zr  Zr53  1  0.27899365  0.70459430  0.11960928  1
  Zr  Zr54  1  0.91325929  0.10948084  0.62161338  1
  Zr  Zr55  1  0.31039237  0.09352526  0.35305334  1
  Zr  Zr56  1  0.60309386  0.38371421  -0.01691928  1
  Zr  Zr57  1  0.48740293  0.90802918  0.35546381  1
  Zr  Zr58  1  0.90121582  0.48412080  0.87232859  1
  Zr  Zr59  1  0.00368590  0.01239279  0.75162869  1
  Zr  Zr60  1  0.49683418  0.90183673  0.88246893  1
  Zr  Zr61  1  0.19489719  0.40361097  0.74662060  1
  Zr  Zr62  1  0.18629088  0.01664505  0.01624272  1
  Zr  Zr63  1  0.87731675  0.91563385  0.86658912  1
  Zr  Zr64  1  0.60164476  0.19450984  0.77378793  1
  Zr  Zr65  1  0.09975063  0.90225177  0.88580753  1
  Zr  Zr66  1  0.21073437  0.41970663  0.24525297  1
  Zr  Zr67  1  0.19925547  0.81146210  0.75143436  1
  Zr  Zr68  1  0.80660494  0.60529051  0.25915083  1
  Zr  Zr69  1  0.81178684  0.38109943  0.01146040  1
  Zr  Zr70  1  0.60050734  0.39132671  0.50863137  1
  Zr  Zr71  1  0.80456164  0.19928031  0.49030808  1
  Zr  Zr72  1  0.59108655  0.80004253  0.74918979  1
  Zr  Zr73  1  0.80366636  0.58830605  0.01193035  1
  Zr  Zr74  1  -0.02001777  0.00656764  0.01186596  1
  Zr  Zr75  1  0.40177132  0.17966181  0.50023491  1
  Zr  Zr76  1  0.08912356  0.69480074  0.62271987  1
  Zr  Zr77  1  0.29371804  0.88436768  0.34484888  1
  Zr  Zr78  1  0.69987886  0.31229540  0.35565588  1
  Zr  Zr79  1  0.39493183  0.59080130  0.24501780  1
  Ta  Ta80  1  0.09459510  0.11771864  0.87862594  1
  Ta  Ta81  1  0.30670785  0.30887290  0.11862494  1
  Ta  Ta82  1  0.50800051  0.30579401  0.13069013  1
  Ta  Ta83  1  0.30828404  0.30785855  0.87898868  1
  Ta  Ta84  1  0.91123484  0.30566831  0.62464698  1
  Ta  Ta85  1  0.70607066  0.89342863  0.37531998  1
  Ta  Ta86  1  0.18685636  0.00690273  0.23998369  1
  Ta  Ta87  1  0.89673508  0.72440147  0.39522878  1
  Ta  Ta88  1  0.60630339  0.80377155  0.00026819  1
  Ta  Ta89  1  0.38607343  0.81480148  0.50361463  1
  Ta  Ta90  1  0.40477142  0.21597255  0.24603574  1
  Ta  Ta91  1  0.30598637  0.50484300  0.10424106  1
  Ta  Ta92  1  0.90992686  0.50353026  0.61243600  1
  Ta  Ta93  1  0.00976518  0.60824769  0.48914518  1
  Ta  Ta94  1  0.39809696  0.38743166  0.51668972  1
  Ta  Ta95  1  0.69960720  0.69559892  0.39393882  1
  Ta  Ta96  1  -0.00539145  0.58340988  0.74988691  1
  Ta  Ta97  1  0.08240357  0.69049315  0.12492429  1
  Ta  Ta98  1  0.20246727  0.39393571  0.00068259  1
  Ta  Ta99  1  0.39865701  0.39136402  0.73694241  1
  Ta  Ta100  1  0.29604136  0.28609425  0.62530897  1
  Ta  Ta101  1  0.81312175  0.40384533  0.74082073  1
  Ta  Ta102  1  0.81664242  0.18948768  0.24666785  1
  Ta  Ta103  1  0.30842012  0.30517989  0.37500222  1
  Ta  Ta104  1  0.68876880  0.90489308  0.61930887  1
  Ta  Ta105  1  0.00741366  0.20775418  0.01049087  1
  Ta  Ta106  1  0.10474405  0.31354496  0.36436392  1
  Ta  Ta107  1  -0.02538680  0.80374254  0.24659392  1
  Ta  Ta108  1  0.90870712  0.08818150  0.36150033  1
  Ta  Ta109  1  0.09411817  0.29111550  0.62651769  1
  Ta  Ta110  1  0.09386920  0.11379649  0.35343505  1
  Ta  Ta111  1  0.39463079  0.80463539  0.74698880  1
  Ta  Ta112  1  0.30918933  0.49365327  0.38712419  1
  Ta  Ta113  1  0.58770092  0.00569975  0.48926071  1
  Ta  Ta114  1  0.88902174  0.69398760  0.60632712  1
  Ta  Ta115  1  0.50165930  0.89645807  0.13084328  1
  Ta  Ta116  1  0.21732992  0.01695749  0.75244700  1
  Ta  Ta117  1  0.80888705  0.39864654  0.50301273  1
  Ta  Ta118  1  0.70309035  0.09348448  0.35541637  1
  Ta  Ta119  1  0.11939822  0.51149592  0.38567079  1
  Ti  Ti120  1  0.80137292  0.60085118  0.74205519  1
  Ti  Ti121  1  0.39208411  0.59963236  0.50632628  1
  Ti  Ti122  1  0.09607549  0.49853424  0.61876055  1
  Ti  Ti123  1  0.40797536  0.40319290  0.24550589  1
  Ti  Ti124  1  0.29826592  0.50331484  0.62742298  1
  Ti  Ti125  1  0.78791231  -0.00424077  0.00988912  1
  Ti  Ti126  1  0.70131056  0.50392570  0.39144058  1
  Ti  Ti127  1  -0.00748084  0.60439084  -0.00654254  1
  Ti  Ti128  1  0.50142233  0.28332956  0.63019466  1
  Ti  Ti129  1  0.90051398  0.10760501  0.87718529  1
  Ti  Ti130  1  0.79401522  0.79997825  0.24516980  1
  Ti  Ti131  1  0.61463436  -0.00373167  0.76530053  1
  Ti  Ti132  1  0.73008975  0.29617183  0.87363645  1
  Ti  Ti133  1  0.49513671  0.70413644  0.61848955  1
  Ti  Ti134  1  0.81348458  -0.01885314  0.24339648  1
  Ti  Ti135  1  0.11661797  0.10804573  0.62762699  1
  Ti  Ti136  1  0.92365429  0.29148698  0.86253989  1
  Ti  Ti137  1  0.39674292  0.60580511  0.74758961  1
  Ti  Ti138  1  0.50373792  0.10066582  0.35230469  1
  Ti  Ti139  1  0.60670908  -0.00737137  0.00042142  1
  Ti  Ti140  1  0.08888828  0.11846245  0.14005665  1
  Ti  Ti141  1  0.19731869  0.20247315  0.75221447  1
  Ti  Ti142  1  0.31051329  0.91904091  0.62915342  1
  Ti  Ti143  1  0.81751590  0.39729926  0.24255333  1
  Ti  Ti144  1  0.69488583  0.70281286  0.59968889  1
  Ti  Ti145  1  0.71225011  0.50276154  0.86830325  1
  Ti  Ti146  1  0.40849858  0.00286220  0.01549043  1
  Ti  Ti147  1  0.49687990  0.90620091  0.62918789  1
  Ti  Ti148  1  0.49672851  0.09063713  0.87876148  1
  Ti  Ti149  1  0.69621929  0.48336235  0.13253766  1
  Ti  Ti150  1  0.10808536  0.30306843  0.87284925  1
  Ti  Ti151  1  0.49711897  0.29851057  0.36862051  1
  Ti  Ti152  1  0.50058821  0.48990186  0.11129952  1
  Ti  Ti153  1  0.20350994  0.21547425  0.25051899  1
  Ti  Ti154  1  -0.00324352  0.79310002  -0.00095982  1
  Ti  Ti155  1  0.49121775  0.08427159  0.63149901  1
  Ti  Ti156  1  0.60979349  -0.01076342  0.24891877  1
  Ti  Ti157  1  0.09958952  0.31588935  0.13618668  1
  Ti  Ti158  1  0.81786951  0.18710024  0.00908696  1
  Ti  Ti159  1  0.00895243  0.39302393  0.49895930  1
  Mo  Mo160  1  0.40239594  0.81118541  0.01000770  1
  Mo  Mo161  1  0.09366965  0.70816281  0.37951503  1
  Mo  Mo162  1  0.09465802  0.49432263  0.86945292  1
  Mo  Mo163  1  0.11295584  0.50916189  0.12627564  1
  Mo  Mo164  1  0.40403937  0.39843613  0.00425211  1
  Mo  Mo165  1  0.69535344  0.89742513  0.88270853  1
  Mo  Mo166  1  0.41352650  -0.01079095  0.49856894  1
  Mo  Mo167  1  0.69126918  0.89909489  0.12895415  1
  Mo  Mo168  1  0.88709007  0.89544752  0.12436310  1
  Mo  Mo169  1  0.08503884  0.69953347  0.87559359  1
  Mo  Mo170  1  0.79027411  0.80502911  0.50632793  1
  Mo  Mo171  1  0.40145388  0.00586776  0.23181605  1
  Mo  Mo172  1  0.58788232  0.40222741  0.25020238  1
  Mo  Mo173  1  0.69307197  0.69299596  0.87818505  1
  Mo  Mo174  1  0.49271304  0.29265746  0.86502295  1
  Mo  Mo175  1  0.17634917  0.78581824  0.24978094  1
  Mo  Mo176  1  0.80334179  0.59682183  0.49189859  1
  Mo  Mo177  1  0.91319556  0.29319237  0.13454613  1
  Mo  Mo178  1  0.19816194  0.59813960  0.24525728  1
  Mo  Mo179  1  0.78861718  -0.00060616  0.74601761  1
  Mo  Mo180  1  0.00644884  0.21140018  0.24213820  1
  Mo  Mo181  1  0.01009718  0.40635849  0.25753047  1
  Mo  Mo182  1  0.89992642  0.09976524  0.13002941  1
  Mo  Mo183  1  0.01194429  0.20445077  0.49226782  1
  Mo  Mo184  1  0.39152760  0.79395307  0.23944138  1
  Mo  Mo185  1  0.18893987  0.21754626  0.00685110  1
  Mo  Mo186  1  0.00215174  0.39877994  0.74040475  1
  Mo  Mo187  1  0.40703842  -0.00564081  0.75330891  1
  Mo  Mo188  1  0.88769216  0.90339158  0.37265678  1
  Mo  Mo189  1  0.20313146  0.59376795  0.50695406  1
  Mo  Mo190  1  0.39699141  0.59882709  0.00403118  1
  Mo  Mo191  1  -0.01072101  0.00882739  0.23800515  1
  Mo  Mo192  1  0.71872664  0.08351993  0.88294067  1
  Mo  Mo193  1  0.60192282  0.19932313  0.26012868  1
  Mo  Mo194  1  0.29770588  0.09633450  0.62524567  1
  Mo  Mo195  1  -0.00869682  0.80872051  0.50483412  1
  Mo  Mo196  1  0.01288552  0.20487185  0.75396033  1
  Mo  Mo197  1  0.18351722  0.80392145  -0.00270714  1
  Mo  Mo198  1  0.90715766  0.70425686  0.12634731  1
  Mo  Mo199  1  0.59348569  0.60475336  0.50139819  1
