# generated using pymatgen
data_HfZrTaTiMo
_symmetry_space_group_name_H-M   'P 1'
_cell_length_a   15.20956407
_cell_length_b   15.21161951
_cell_length_c   16.82340849
_cell_angle_alpha   89.98753185
_cell_angle_beta   89.98515155
_cell_angle_gamma   90.05061966
_symmetry_Int_Tables_number   1
_chemical_formula_structural   HfZrTaTiMo
_chemical_formula_sum   'Hf40 Zr40 Ta40 Ti40 Mo40'
_cell_volume   3892.29740088
_cell_formula_units_Z   40
loop_
 _symmetry_equiv_pos_site_id
 _symmetry_equiv_pos_as_xyz
  1  'x, y, z'
loop_
 _atom_site_type_symbol
 _atom_site_label
 _atom_site_symmetry_multiplicity
 _atom_site_fract_x
 _atom_site_fract_y
 _atom_site_fract_z
 _atom_site_occupancy
  Hf  Hf0  1  0.08909320  0.68428726  0.87419600  1
  Hf  Hf1  1  0.50731958  0.70119125  0.10578939  1
  Hf  Hf2  1  0.10557855  0.28437280  0.60842159  1
  Hf  Hf3  1  0.30287231  0.28553125  0.39890590  1
  Hf  Hf4  1  0.89427760  0.90337593  0.88025445  1
  Hf  Hf5  1  0.30187612  0.69731005  0.37920580  1
  Hf  Hf6  1  0.88321426  0.68868011  0.37681235  1
  Hf  Hf7  1  0.10249065  0.49473743  0.15037385  1
  Hf  Hf8  1  0.09830964  0.31629639  0.87282408  1
  Hf  Hf9  1  0.69413671  0.89503291  0.88643424  1
  Hf  Hf10  1  0.70225432  0.52698131  0.35977035  1
  Hf  Hf11  1  0.40481257  0.59998269  0.74861100  1
  Hf  Hf12  1  0.09370125  0.90283202  0.87535656  1
  Hf  Hf13  1  0.71944456  0.49329208  0.88016100  1
  Hf  Hf14  1  0.70052863  0.28840156  0.89826952  1
  Hf  Hf15  1  0.81312525  0.57987219  0.72936289  1
  Hf  Hf16  1  0.59531393  0.41036102  0.00677902  1
  Hf  Hf17  1  0.41964547  0.59882157  0.50071187  1
  Hf  Hf18  1  0.80716006  0.01322681  0.50163447  1
  Hf  Hf19  1  0.78692445  0.78821646  0.74662688  1
  Hf  Hf20  1  0.89322225  0.29889433  0.61336333  1
  Hf  Hf21  1  0.30068771  0.49631014  0.38317364  1
  Hf  Hf22  1  0.88729726  0.69837675  0.87534141  1
  Hf  Hf23  1  0.30272732  0.70260284  0.12340130  1
  Hf  Hf24  1  0.29712788  0.91747550  0.12148947  1
  Hf  Hf25  1  0.00721787  0.41340968  0.00875489  1
  Hf  Hf26  1  0.30848316  0.49379537  0.60952658  1
  Hf  Hf27  1  -0.00968393  0.80582605  0.26150349  1
  Hf  Hf28  1  0.61402827  0.60230737  0.75426626  1
  Hf  Hf29  1  0.59601126  0.78944922  0.24935905  1
  Hf  Hf30  1  0.19256996  0.79422405  0.00208231  1
  Hf  Hf31  1  0.59664240  0.00051834  0.49988233  1
  Hf  Hf32  1  0.90539600  0.31151620  0.12967381  1
  Hf  Hf33  1  0.79536303  0.79787252  0.24373047  1
  Hf  Hf34  1  -0.01213222  0.79806357  0.01030210  1
  Hf  Hf35  1  0.59440447  0.19665447  0.24309847  1
  Hf  Hf36  1  0.92614598  0.50290575  0.87053850  1
  Hf  Hf37  1  0.00143854  0.60220735  0.49975187  1
  Hf  Hf38  1  0.79044537  0.01703484  0.01307804  1
  Hf  Hf39  1  0.30152184  0.69691038  0.88197744  1
  Zr  Zr40  1  0.49041753  0.90463194  0.10982443  1
  Zr  Zr41  1  0.81568749  0.58928738  0.01716263  1
  Zr  Zr42  1  0.50311240  0.70429362  0.63137133  1
  Zr  Zr43  1  0.40057581  0.03300022  -0.01375927  1
  Zr  Zr44  1  0.79691971  0.79783708  0.50121421  1
  Zr  Zr45  1  0.60963472  0.38880867  0.75245016  1
  Zr  Zr46  1  0.50303373  0.49951736  0.36199933  1
  Zr  Zr47  1  0.89358021  0.09372565  0.36045535  1
  Zr  Zr48  1  0.70681348  0.29002437  0.11302323  1
  Zr  Zr49  1  0.80188282  0.00874127  0.74732143  1
  Zr  Zr50  1  0.69970469  0.11949470  0.62435442  1
  Zr  Zr51  1  0.30143798  0.47808480  0.87021770  1
  Zr  Zr52  1  -0.00041223  0.79513431  0.74192177  1
  Zr  Zr53  1  0.01166229  0.00105737  0.25495815  1
  Zr  Zr54  1  0.40518277  0.60810709  0.24598702  1
  Zr  Zr55  1  0.28683752  0.10127594  0.61873170  1
  Zr  Zr56  1  0.50084727  0.70522395  0.89190162  1
  Zr  Zr57  1  0.89552194  0.11203080  0.88378596  1
  Zr  Zr58  1  -0.00086975  0.19845051  0.74620585  1
  Zr  Zr59  1  0.29326460  0.70350954  0.61329735  1
  Zr  Zr60  1  0.39766026  0.57305632  0.00674888  1
  Zr  Zr61  1  0.60262382  0.40592794  0.49274600  1
  Zr  Zr62  1  0.48970760  0.89776439  0.63585597  1
  Zr  Zr63  1  0.79068831  0.21884349  0.75195648  1
  Zr  Zr64  1  0.48774797  0.29586910  0.89106887  1
  Zr  Zr65  1  0.40301448  0.20616033  0.74893446  1
  Zr  Zr66  1  -0.00807817  0.39475629  0.47885103  1
  Zr  Zr67  1  0.20976310  0.80709376  0.75036359  1
  Zr  Zr68  1  0.69009898  0.89909007  0.63145342  1
  Zr  Zr69  1  0.09880282  0.69535712  0.14596075  1
  Zr  Zr70  1  0.39468254  0.37991297  0.25077978  1
  Zr  Zr71  1  0.19381727  0.00987255  -0.00955984  1
  Zr  Zr72  1  0.11090625  0.10812700  0.12796642  1
  Zr  Zr73  1  0.68900809  0.89714918  0.11373503  1
  Zr  Zr74  1  0.20152591  0.81362384  0.25713498  1
  Zr  Zr75  1  0.20334725  0.38979074  0.73419969  1
  Zr  Zr76  1  0.91053241  0.91035721  0.62513563  1
  Zr  Zr77  1  0.70287645  0.90325782  0.37027384  1
  Zr  Zr78  1  0.38631587  -0.00178657  0.76263124  1
  Zr  Zr79  1  0.19216045  0.59449321  0.74286550  1
  Ta  Ta80  1  0.00577846  0.60284094  0.01648753  1
  Ta  Ta81  1  0.68940412  0.10529914  0.36696291  1
  Ta  Ta82  1  0.49926566  0.10522210  0.62543617  1
  Ta  Ta83  1  0.59445851  0.79401185  0.49160843  1
  Ta  Ta84  1  0.00296934  0.20494333  0.00232960  1
  Ta  Ta85  1  0.79435781  0.21401775  0.48186971  1
  Ta  Ta86  1  0.01123205  0.21273425  0.26430337  1
  Ta  Ta87  1  0.19065369  0.58399856  0.00325741  1
  Ta  Ta88  1  0.21090607  0.20748963  -0.00998394  1
  Ta  Ta89  1  0.49909392  0.28679484  0.38093718  1
  Ta  Ta90  1  0.40159535  0.81464211  0.25738215  1
  Ta  Ta91  1  0.00235445  0.80457200  0.48408129  1
  Ta  Ta92  1  0.70616808  0.49522849  0.13382407  1
  Ta  Ta93  1  0.10438823  0.50730392  0.36863933  1
  Ta  Ta94  1  0.59133058  0.01312612  0.76039700  1
  Ta  Ta95  1  0.40067054  -0.00062100  0.50301789  1
  Ta  Ta96  1  0.50619732  0.49453014  0.13762348  1
  Ta  Ta97  1  0.39539044  0.17831248  0.24841357  1
  Ta  Ta98  1  0.89798659  0.11413868  0.13326389  1
  Ta  Ta99  1  0.50757732  0.49950000  0.87473159  1
  Ta  Ta100  1  0.20969125  0.39837300  0.00675843  1
  Ta  Ta101  1  0.29512296  0.89989711  0.61500176  1
  Ta  Ta102  1  0.09554155  0.90473430  0.12407173  1
  Ta  Ta103  1  -0.00638810  0.40676441  0.73478607  1
  Ta  Ta104  1  0.31311443  0.29452884  0.59960800  1
  Ta  Ta105  1  -0.00551839  0.18634913  0.48657866  1
  Ta  Ta106  1  0.79180298  0.00420210  0.23779841  1
  Ta  Ta107  1  0.00611236  -0.00813931  0.48186390  1
  Ta  Ta108  1  0.40377972  0.80661374  0.48965674  1
  Ta  Ta109  1  0.20633957  0.19965744  0.25938226  1
  Ta  Ta110  1  0.48855074  0.29142485  0.11651840  1
  Ta  Ta111  1  0.60457357  0.39235110  0.24860959  1
  Ta  Ta112  1  0.79721633  0.40575092  0.47619142  1
  Ta  Ta113  1  0.80100423  0.39926901  0.26509512  1
  Ta  Ta114  1  0.30228062  0.90893229  0.38251410  1
  Ta  Ta115  1  -0.00485402  0.40002616  0.26929707  1
  Ta  Ta116  1  0.19276862  0.38383539  0.26677520  1
  Ta  Ta117  1  0.19035806  0.79868327  0.49110068  1
  Ta  Ta118  1  0.10242806  0.69334063  0.36555549  1
  Ta  Ta119  1  0.10020946  0.49905561  0.60784926  1
  Ti  Ti120  1  0.40677348  0.39735527  0.74122953  1
  Ti  Ti121  1  0.51321668  0.69666398  0.37208918  1
  Ti  Ti122  1  0.61502849  0.60378800  0.50265697  1
  Ti  Ti123  1  0.51602100  0.49416215  0.62847430  1
  Ti  Ti124  1  0.30359679  0.89633863  0.88507058  1
  Ti  Ti125  1  0.59082102  0.17128614  0.01478711  1
  Ti  Ti126  1  0.89741524  0.90385535  0.12237539  1
  Ti  Ti127  1  0.11653816  0.10339664  0.37843917  1
  Ti  Ti128  1  0.09831946  0.10796484  0.87454187  1
  Ti  Ti129  1  0.21948692  0.01116883  0.25633626  1
  Ti  Ti130  1  0.60230099  0.20138934  0.49373252  1
  Ti  Ti131  1  -0.00347348  0.00922714  0.00847649  1
  Ti  Ti132  1  0.29690757  0.49068700  0.13861729  1
  Ti  Ti133  1  0.69678931  0.69467750  0.62186604  1
  Ti  Ti134  1  0.50682268  0.29703942  0.61686732  1
  Ti  Ti135  1  0.90507228  0.70273825  0.61523396  1
  Ti  Ti136  1  0.10488532  0.29897336  0.12879456  1
  Ti  Ti137  1  0.69527904  0.69525935  0.90170337  1
  Ti  Ti138  1  0.00596664  0.59734355  0.72365739  1
  Ti  Ti139  1  0.49407331  0.09511943  0.37685470  1
  Ti  Ti140  1  0.70206624  0.69850488  0.10556778  1
  Ti  Ti141  1  0.20327327  0.19666376  0.75568940  1
  Ti  Ti142  1  0.29276451  0.29027586  0.12773118  1
  Ti  Ti143  1  0.08562537  0.08624479  0.61606878  1
  Ti  Ti144  1  0.79584487  0.20762588  0.25674490  1
  Ti  Ti145  1  0.70108205  0.31936132  0.61797785  1
  Ti  Ti146  1  0.58543910  0.00219197  0.24535915  1
  Ti  Ti147  1  0.30849629  0.09721934  0.38961571  1
  Ti  Ti148  1  0.80725683  0.60455119  0.23242164  1
  Ti  Ti149  1  0.19079527  0.00472429  0.75160135  1
  Ti  Ti150  1  0.58656055  0.80412506  0.76392816  1
  Ti  Ti151  1  0.68757817  0.10119217  0.87752825  1
  Ti  Ti152  1  0.00266201  0.00505144  0.74973285  1
  Ti  Ti153  1  0.89280076  0.31310484  0.88691561  1
  Ti  Ti154  1  0.49817286  0.90334305  0.37317444  1
  Ti  Ti155  1  0.19473964  0.39977810  0.49443750  1
  Ti  Ti156  1  0.80075520  0.58614568  0.51358538  1
  Ti  Ti157  1  0.49800193  0.90403066  0.88767807  1
  Ti  Ti158  1  0.19389721  -0.00533323  0.49540346  1
  Ti  Ti159  1  0.10468020  0.89392364  0.62027209  1
  Mo  Mo160  1  0.80936556  0.39422327  0.74977413  1
  Mo  Mo161  1  0.60516124  0.58975640  0.00698909  1
  Mo  Mo162  1  -0.00661199  0.59940307  0.25715013  1
  Mo  Mo163  1  0.39551198  0.80411188  0.75990233  1
  Mo  Mo164  1  0.29441573  0.29842962  0.87372572  1
  Mo  Mo165  1  0.29006039  0.11338531  0.86443738  1
  Mo  Mo166  1  0.50748221  0.10555159  0.87234923  1
  Mo  Mo167  1  0.20593348  0.59086816  0.25570340  1
  Mo  Mo168  1  0.38823713  0.80958324  -0.00190058  1
  Mo  Mo169  1  0.69160361  0.70069543  0.37496193  1
  Mo  Mo170  1  0.80147677  0.79963975  0.00730225  1
  Mo  Mo171  1  0.59684226  0.00486715  -0.00716647  1
  Mo  Mo172  1  0.39020931  0.39387666  0.01577829  1
  Mo  Mo173  1  0.59600095  0.19785500  0.75047572  1
  Mo  Mo174  1  0.59959048  0.80008505  -0.00639287  1
  Mo  Mo175  1  0.39176520  0.20954725  0.00464855  1
  Mo  Mo176  1  0.61213311  0.60152488  0.22984984  1
  Mo  Mo177  1  0.69018063  0.30094590  0.36895869  1
  Mo  Mo178  1  0.89822861  0.50697586  0.36304810  1
  Mo  Mo179  1  0.70377896  0.49560967  0.61870488  1
  Mo  Mo180  1  0.41599216  0.18892722  0.50475824  1
  Mo  Mo181  1  0.10393883  0.29395895  0.38475429  1
  Mo  Mo182  1  0.19463888  0.18632389  0.49965779  1
  Mo  Mo183  1  0.09443109  0.70764699  0.61332822  1
  Mo  Mo184  1  0.69846179  0.09825693  0.13933844  1
  Mo  Mo185  1  0.80898750  0.20071954  0.00679410  1
  Mo  Mo186  1  0.89868656  0.89915674  0.37387832  1
  Mo  Mo187  1  0.10273186  0.50116523  0.87397651  1
  Mo  Mo188  1  0.90585236  0.50192474  0.14621768  1
  Mo  Mo189  1  0.30296920  0.11117264  0.12877956  1
  Mo  Mo190  1  0.90211449  0.49045842  0.61548519  1
  Mo  Mo191  1  0.89506305  0.29410442  0.37009902  1
  Mo  Mo192  1  0.10828556  0.90405416  0.37735244  1
  Mo  Mo193  1  0.49498119  0.09856296  0.12927877  1
  Mo  Mo194  1  0.81140159  0.39753876  0.00463452  1
  Mo  Mo195  1  0.41076748  0.39564066  0.50498815  1
  Mo  Mo196  1  0.89884343  0.70462755  0.13145583  1
  Mo  Mo197  1  0.91321044  0.10881203  0.61240751  1
  Mo  Mo198  1  0.39889257  -0.00233056  0.25775827  1
  Mo  Mo199  1  0.19510844  0.59733830  0.49760287  1
