# generated using pymatgen
data_HfZrTaTiMo
_symmetry_space_group_name_H-M   'P 1'
_cell_length_a   15.21317260
_cell_length_b   15.21849621
_cell_length_c   16.86043060
_cell_angle_alpha   89.95395999
_cell_angle_beta   90.03572063
_cell_angle_gamma   90.01145129
_symmetry_Int_Tables_number   1
_chemical_formula_structural   HfZrTaTiMo
_chemical_formula_sum   'Hf40 Zr40 Ta40 Ti40 Mo40'
_cell_volume   3903.55193332
_cell_formula_units_Z   40
loop_
 _symmetry_equiv_pos_site_id
 _symmetry_equiv_pos_as_xyz
  1  'x, y, z'
loop_
 _atom_site_type_symbol
 _atom_site_label
 _atom_site_symmetry_multiplicity
 _atom_site_fract_x
 _atom_site_fract_y
 _atom_site_fract_z
 _atom_site_occupancy
  Hf  Hf0  1  0.90105159  0.70643880  0.62533706  1
  Hf  Hf1  1  0.80065260  0.80782559  0.25139512  1
  Hf  Hf2  1  0.49515592  0.08869852  0.88090074  1
  Hf  Hf3  1  0.81325675  0.80645146  0.49167411  1
  Hf  Hf4  1  0.70112815  0.68811858  0.61838329  1
  Hf  Hf5  1  0.70960949  0.70747454  0.87525367  1
  Hf  Hf6  1  0.50631812  0.70060795  0.86573384  1
  Hf  Hf7  1  0.87973421  0.31115375  0.86254866  1
  Hf  Hf8  1  0.51648002  0.50399502  0.61747383  1
  Hf  Hf9  1  0.30099977  0.90419212  0.63028997  1
  Hf  Hf10  1  0.40258563  0.00409036  0.49632496  1
  Hf  Hf11  1  0.71189781  0.89845887  0.61337240  1
  Hf  Hf12  1  0.57433917  0.21655277  0.24851049  1
  Hf  Hf13  1  0.19953733  0.01420742  0.23130473  1
  Hf  Hf14  1  0.58542364  0.20772938  0.00386286  1
  Hf  Hf15  1  0.09217131  0.89992164  0.62736409  1
  Hf  Hf16  1  0.78431163  0.00748642  0.01310223  1
  Hf  Hf17  1  0.00246275  0.78429762  0.24755864  1
  Hf  Hf18  1  -0.00086677  0.19923215  0.76436623  1
  Hf  Hf19  1  0.10747870  0.49309129  0.64098535  1
  Hf  Hf20  1  0.09834087  0.31397774  0.12366935  1
  Hf  Hf21  1  0.60760714  0.80846418  0.01472528  1
  Hf  Hf22  1  0.01013116  0.58844729  0.50649069  1
  Hf  Hf23  1  0.11870459  0.68111388  0.10917677  1
  Hf  Hf24  1  0.11330540  0.89370848  0.36702699  1
  Hf  Hf25  1  0.79997470  0.58572133  -0.00780761  1
  Hf  Hf26  1  0.38507269  0.19445326  0.74851159  1
  Hf  Hf27  1  0.46951839  0.10441318  0.12463142  1
  Hf  Hf28  1  0.70066415  0.68985774  0.38410849  1
  Hf  Hf29  1  -0.01289936  -0.00225493  0.50446662  1
  Hf  Hf30  1  0.90394785  0.90704205  0.36694235  1
  Hf  Hf31  1  0.49499598  0.29799761  0.62042604  1
  Hf  Hf32  1  0.39265360  0.40017025  0.74063068  1
  Hf  Hf33  1  0.41401962  0.39487912  0.26188644  1
  Hf  Hf34  1  0.51330897  0.49669128  0.86432841  1
  Hf  Hf35  1  0.19332934  0.81569603  0.76513076  1
  Hf  Hf36  1  0.00738013  0.60626392  0.76132019  1
  Hf  Hf37  1  0.10825524  0.70034799  0.63299687  1
  Hf  Hf38  1  0.31554102  0.90716898  0.10827479  1
  Hf  Hf39  1  -0.00956418  0.21329179  -0.00353157  1
  Zr  Zr40  1  0.10040915  0.88898116  0.10578082  1
  Zr  Zr41  1  0.39191193  0.40189493  0.49429825  1
  Zr  Zr42  1  0.69634705  0.10947214  0.36739696  1
  Zr  Zr43  1  0.09049496  0.10998029  0.36994586  1
  Zr  Zr44  1  0.41455054  0.80119235  0.23998035  1
  Zr  Zr45  1  0.91610059  0.69928590  0.10224986  1
  Zr  Zr46  1  0.91766591  0.49671679  0.37983692  1
  Zr  Zr47  1  0.30304602  0.28377064  0.14427447  1
  Zr  Zr48  1  0.59277165  -0.00464545  0.74875865  1
  Zr  Zr49  1  0.40842116  0.39884372  0.00308766  1
  Zr  Zr50  1  0.21248246  0.79238933  0.23959204  1
  Zr  Zr51  1  0.88210662  0.30366597  0.37675012  1
  Zr  Zr52  1  0.82137774  0.60477940  0.25043037  1
  Zr  Zr53  1  0.30080183  0.69991197  0.63645158  1
  Zr  Zr54  1  0.89852315  0.89150218  0.90059027  1
  Zr  Zr55  1  0.29432287  0.10467873  0.37048026  1
  Zr  Zr56  1  0.89372372  0.30773270  0.63903805  1
  Zr  Zr57  1  0.69045170  0.32004108  0.13598736  1
  Zr  Zr58  1  0.50648122  0.70617469  0.62645564  1
  Zr  Zr59  1  0.49172577  0.29863837  0.86778150  1
  Zr  Zr60  1  0.59284266  -0.00746018  0.24204198  1
  Zr  Zr61  1  0.70845356  0.48060043  0.36259543  1
  Zr  Zr62  1  0.89502872  0.08963448  0.63125963  1
  Zr  Zr63  1  0.29227877  0.50168513  0.13558443  1
  Zr  Zr64  1  0.60514959  0.79429731  0.25081067  1
  Zr  Zr65  1  0.19816964  -0.00366965  0.49685488  1
  Zr  Zr66  1  0.78957031  0.20765908  0.50768135  1
  Zr  Zr67  1  0.22183692  0.59532524  -0.01093611  1
  Zr  Zr68  1  0.80216024  -0.02123756  0.75481788  1
  Zr  Zr69  1  0.30503091  0.70898987  0.37565840  1
  Zr  Zr70  1  0.78562926  0.20898599  0.00034082  1
  Zr  Zr71  1  0.91068152  0.49236820  0.12100175  1
  Zr  Zr72  1  0.30493516  0.69528148  0.85896022  1
  Zr  Zr73  1  0.20404473  0.38711554  -0.01660217  1
  Zr  Zr74  1  0.01731499  -0.00101256  0.76633129  1
  Zr  Zr75  1  0.18382989  0.40180286  0.49339016  1
  Zr  Zr76  1  -0.00482402  0.00474535  0.22559624  1
  Zr  Zr77  1  0.59583238  0.59519281  0.00016977  1
  Zr  Zr78  1  0.89396053  0.10464394  0.37044879  1
  Zr  Zr79  1  0.40259273  0.77911708  0.00669752  1
  Ta  Ta80  1  0.90803068  0.69578088  0.88891529  1
  Ta  Ta81  1  0.49858000  0.89992287  0.38198117  1
  Ta  Ta82  1  0.89268435  0.89471915  0.10935679  1
  Ta  Ta83  1  0.80911643  0.59539125  0.75879227  1
  Ta  Ta84  1  0.40370199  0.59934871  0.25234746  1
  Ta  Ta85  1  0.20631615  0.01800283  0.00821762  1
  Ta  Ta86  1  0.09768796  0.29778235  0.63576103  1
  Ta  Ta87  1  0.39913173  0.80536918  0.49823812  1
  Ta  Ta88  1  0.62204087  0.39224344  0.49873063  1
  Ta  Ta89  1  0.00035534  0.01928114  0.00903951  1
  Ta  Ta90  1  0.68810432  0.10901614  0.13378584  1
  Ta  Ta91  1  0.28588900  0.09186503  0.87052092  1
  Ta  Ta92  1  0.61665401  0.80479455  0.74956518  1
  Ta  Ta93  1  0.59837707  0.80229415  0.49361465  1
  Ta  Ta94  1  0.50935604  0.48624474  0.13162264  1
  Ta  Ta95  1  -0.01436741  0.80457339  0.76212562  1
  Ta  Ta96  1  0.69353819  0.90962386  0.88305105  1
  Ta  Ta97  1  0.70954912  0.69895208  0.12412298  1
  Ta  Ta98  1  0.70099466  0.50793408  0.14003849  1
  Ta  Ta99  1  -0.00713269  0.39312770  0.24743329  1
  Ta  Ta100  1  0.00381399  0.21121697  0.50822808  1
  Ta  Ta101  1  0.20691430  0.59969489  0.50016051  1
  Ta  Ta102  1  0.68748339  0.09710682  0.61698873  1
  Ta  Ta103  1  0.10610568  0.68149312  0.37408951  1
  Ta  Ta104  1  0.59418768  0.19313806  0.74853624  1
  Ta  Ta105  1  0.69177968  0.30117194  0.64064182  1
  Ta  Ta106  1  0.28675529  0.29778161  0.36313519  1
  Ta  Ta107  1  0.30781832  0.90475217  0.88673859  1
  Ta  Ta108  1  0.41563103  0.81663170  0.75204371  1
  Ta  Ta109  1  0.49403782  0.09750026  0.62026836  1
  Ta  Ta110  1  0.58904408  0.19700441  0.50037648  1
  Ta  Ta111  1  0.79732658  0.00622064  0.22986283  1
  Ta  Ta112  1  0.01359088  0.79487925  0.49262012  1
  Ta  Ta113  1  0.39506743  -0.00165947  0.25738472  1
  Ta  Ta114  1  0.37234809  0.19336938  -0.00740937  1
  Ta  Ta115  1  0.19523575  0.20566928  0.50210109  1
  Ta  Ta116  1  -0.00035113  0.41110105  -0.01767358  1
  Ta  Ta117  1  0.88509557  0.09787947  0.87911989  1
  Ta  Ta118  1  0.40073464  0.60361883  0.50031057  1
  Ta  Ta119  1  0.10579930  0.10664967  0.62719201  1
  Ti  Ti120  1  0.20518946  0.79629410  0.49765008  1
  Ti  Ti121  1  0.29825858  0.50263420  0.62568936  1
  Ti  Ti122  1  0.90067381  0.49721380  0.62747159  1
  Ti  Ti123  1  0.18414218  0.19859538  -0.01298548  1
  Ti  Ti124  1  0.50270344  0.30137185  0.38780901  1
  Ti  Ti125  1  0.61729153  0.59158447  0.75172577  1
  Ti  Ti126  1  0.10168109  0.71198555  0.88996504  1
  Ti  Ti127  1  0.58981487  0.00218636  0.01498314  1
  Ti  Ti128  1  0.71177462  0.49026262  0.62847124  1
  Ti  Ti129  1  0.10908729  0.50736016  0.86724452  1
  Ti  Ti130  1  0.49711771  0.10225765  0.37632511  1
  Ti  Ti131  1  0.50117735  0.68235840  0.12598422  1
  Ti  Ti132  1  0.39349598  -0.00051842  0.74866515  1
  Ti  Ti133  1  0.68543608  0.30755355  0.85652101  1
  Ti  Ti134  1  0.28219099  0.29910047  0.62545845  1
  Ti  Ti135  1  0.80457188  0.21073142  0.23540987  1
  Ti  Ti136  1  0.79823738  0.58262364  0.50084753  1
  Ti  Ti137  1  -0.00289648  0.40712374  0.76407075  1
  Ti  Ti138  1  0.59603628  0.59691873  0.25180609  1
  Ti  Ti139  1  0.38805110  0.20353943  0.49954520  1
  Ti  Ti140  1  0.08559992  0.30439761  0.37105770  1
  Ti  Ti141  1  0.18355765  0.41206918  0.25893743  1
  Ti  Ti142  1  0.91050805  0.69568462  0.38146346  1
  Ti  Ti143  1  0.29303600  0.50951379  0.36904672  1
  Ti  Ti144  1  0.31260987  0.49552163  0.86697758  1
  Ti  Ti145  1  0.50094237  0.89598330  0.88219594  1
  Ti  Ti146  1  0.18976485  0.19433908  0.76349638  1
  Ti  Ti147  1  0.78277590  0.18565331  0.75573063  1
  Ti  Ti148  1  0.61341185  0.40348083  -0.00395368  1
  Ti  Ti149  1  0.03286667  0.58235087  0.24675011  1
  Ti  Ti150  1  0.29179387  0.10455951  0.62538941  1
  Ti  Ti151  1  0.19832695  0.38688688  0.76630694  1
  Ti  Ti152  1  0.50791726  0.90393221  0.61593045  1
  Ti  Ti153  1  0.40597265  0.59805700  0.74156837  1
  Ti  Ti154  1  0.11098618  0.91303857  0.89658880  1
  Ti  Ti155  1  0.50360357  0.69455888  0.38277330  1
  Ti  Ti156  1  -0.00369621  0.20140899  0.23027762  1
  Ti  Ti157  1  0.50869332  0.50665638  0.38731013  1
  Ti  Ti158  1  0.79996983  0.39833899  -0.00169739  1
  Ti  Ti159  1  0.70004759  0.91492606  0.38630215  1
  Mo  Mo160  1  0.30755338  0.90320033  0.37225675  1
  Mo  Mo161  1  0.80304181  0.78978943  0.75358316  1
  Mo  Mo162  1  0.90735043  0.88810741  0.62631343  1
  Mo  Mo163  1  0.80383203  0.39743869  0.24313742  1
  Mo  Mo164  1  0.09394131  0.09884449  0.88665238  1
  Mo  Mo165  1  0.31325133  0.69275968  0.12404382  1
  Mo  Mo166  1  0.20697548  0.80489251  -0.01277337  1
  Mo  Mo167  1  -0.00297801  0.39104637  0.51092405  1
  Mo  Mo168  1  0.79237448  0.00010937  0.50026784  1
  Mo  Mo169  1  0.41172791  0.58734101  0.00301017  1
  Mo  Mo170  1  0.89598003  0.30566476  0.12281914  1
  Mo  Mo171  1  0.01229252  0.59220171  -0.01858580  1
  Mo  Mo172  1  0.70893893  0.48766854  0.86777916  1
  Mo  Mo173  1  0.89161770  0.10948781  0.12284325  1
  Mo  Mo174  1  0.09241459  0.30374980  0.86683202  1
  Mo  Mo175  1  0.59986163  0.39933104  0.74019289  1
  Mo  Mo176  1  0.60207404  0.59371897  0.49471735  1
  Mo  Mo177  1  0.69444121  0.10122942  0.87415234  1
  Mo  Mo178  1  0.18185863  0.21413418  0.25400855  1
  Mo  Mo179  1  0.20801766  0.01005351  0.75099338  1
  Mo  Mo180  1  0.09987375  0.11495959  0.11666577  1
  Mo  Mo181  1  0.59772382  0.00269259  0.49688173  1
  Mo  Mo182  1  0.28796022  0.10611477  0.12532998  1
  Mo  Mo183  1  0.68997819  0.29545239  0.37069556  1
  Mo  Mo184  1  0.70156163  0.90119820  0.12657928  1
  Mo  Mo185  1  0.20771290  0.59698805  0.25150144  1
  Mo  Mo186  1  0.09974338  0.49476791  0.11945414  1
  Mo  Mo187  1  0.79251735  0.40951615  0.74969791  1
  Mo  Mo188  1  0.10546982  0.49468389  0.37604943  1
  Mo  Mo189  1  0.40144526  0.00427102  -0.00670414  1
  Mo  Mo190  1  0.90314370  0.50274705  0.87439312  1
  Mo  Mo191  1  0.21050844  0.58507908  0.75938516  1
  Mo  Mo192  1  0.00851840  0.80225952  -0.00502767  1
  Mo  Mo193  1  0.49354822  0.30442883  0.12008637  1
  Mo  Mo194  1  0.29387956  0.29356992  0.87062418  1
  Mo  Mo195  1  0.50368906  0.90590733  0.12255100  1
  Mo  Mo196  1  0.79635478  0.79752401  0.00596831  1
  Mo  Mo197  1  0.39225050  0.19409306  0.26325731  1
  Mo  Mo198  1  0.80117717  0.40275009  0.51118452  1
  Mo  Mo199  1  0.59237764  0.40965805  0.26015624  1
