# generated using pymatgen
data_HfZrTaTiMo
_symmetry_space_group_name_H-M   'P 1'
_cell_length_a   15.20879864
_cell_length_b   15.21980608
_cell_length_c   16.85978077
_cell_angle_alpha   89.97098961
_cell_angle_beta   89.96560172
_cell_angle_gamma   89.93736039
_symmetry_Int_Tables_number   1
_chemical_formula_structural   HfZrTaTiMo
_chemical_formula_sum   'Hf40 Zr40 Ta40 Ti40 Mo40'
_cell_volume   3902.61364458
_cell_formula_units_Z   40
loop_
 _symmetry_equiv_pos_site_id
 _symmetry_equiv_pos_as_xyz
  1  'x, y, z'
loop_
 _atom_site_type_symbol
 _atom_site_label
 _atom_site_symmetry_multiplicity
 _atom_site_fract_x
 _atom_site_fract_y
 _atom_site_fract_z
 _atom_site_occupancy
  Hf  Hf0  1  0.30448708  0.10416688  0.85671299  1
  Hf  Hf1  1  -0.02222158  0.83010708  0.24487635  1
  Hf  Hf2  1  0.00353115  0.60709358  0.48778907  1
  Hf  Hf3  1  0.30455940  0.11032461  0.13155227  1
  Hf  Hf4  1  0.89204896  0.70579546  0.37103194  1
  Hf  Hf5  1  0.00089300  -0.01133012  0.74668661  1
  Hf  Hf6  1  0.11038690  0.31222002  0.87598335  1
  Hf  Hf7  1  0.61492132  -0.01454156  0.25947298  1
  Hf  Hf8  1  0.50971981  0.08831385  0.64043969  1
  Hf  Hf9  1  0.49007603  0.69941011  0.36822631  1
  Hf  Hf10  1  0.48654044  0.89453676  0.36544010  1
  Hf  Hf11  1  0.39081594  0.60011491  0.49887654  1
  Hf  Hf12  1  0.49027929  0.47095991  0.87137772  1
  Hf  Hf13  1  0.80331685  0.20261239  0.76373338  1
  Hf  Hf14  1  0.51492858  0.28720221  0.38724697  1
  Hf  Hf15  1  0.88429697  0.71373089  0.88045664  1
  Hf  Hf16  1  0.10206684  0.89660551  0.88372407  1
  Hf  Hf17  1  0.69435420  0.90315664  0.63487387  1
  Hf  Hf18  1  0.09380551  0.72053013  0.13805951  1
  Hf  Hf19  1  0.30335570  0.49696307  0.12290731  1
  Hf  Hf20  1  0.70593478  0.10506844  0.37538607  1
  Hf  Hf21  1  0.60579136  0.78204390  -0.00130851  1
  Hf  Hf22  1  0.10698093  0.51443108  0.35872999  1
  Hf  Hf23  1  0.60788421  -0.00631089  -0.00941938  1
  Hf  Hf24  1  0.79963520  0.19233126  -0.01471210  1
  Hf  Hf25  1  0.11800661  0.29234110  0.12102486  1
  Hf  Hf26  1  0.59476629  -0.00510832  0.49726154  1
  Hf  Hf27  1  0.80650799  0.21759989  0.50716475  1
  Hf  Hf28  1  0.88956567  0.48213878  0.61898518  1
  Hf  Hf29  1  0.22842439  0.20961363  -0.01053258  1
  Hf  Hf30  1  0.81607065  -0.01806127  -0.01900645  1
  Hf  Hf31  1  0.62308889  0.40123515  0.50317849  1
  Hf  Hf32  1  0.89327009  0.69292941  0.61423930  1
  Hf  Hf33  1  0.49637712  0.49014158  0.38734034  1
  Hf  Hf34  1  0.50111200  0.48863930  0.62835905  1
  Hf  Hf35  1  0.09963097  0.51115708  0.62206033  1
  Hf  Hf36  1  0.00466911  0.79583340  0.74363125  1
  Hf  Hf37  1  0.18410097  0.01764220  0.24532372  1
  Hf  Hf38  1  -0.00888873  0.59979052  0.75172814  1
  Hf  Hf39  1  0.89700416  0.50726970  0.88436113  1
  Zr  Zr40  1  0.51129266  0.68609705  0.86280241  1
  Zr  Zr41  1  0.30697452  0.09798486  0.63983970  1
  Zr  Zr42  1  0.50559814  0.09415500  0.12750551  1
  Zr  Zr43  1  0.00333729  0.39608900  0.48537163  1
  Zr  Zr44  1  0.30065967  0.70354707  0.13878586  1
  Zr  Zr45  1  0.59710944  0.39176605  0.24844289  1
  Zr  Zr46  1  0.71307495  0.31729877  0.63739596  1
  Zr  Zr47  1  0.20051348  0.79886435  0.49371510  1
  Zr  Zr48  1  0.00522641  0.20352353  0.51953237  1
  Zr  Zr49  1  0.08929920  0.91096960  0.37398750  1
  Zr  Zr50  1  0.29228485  0.50477152  0.62072317  1
  Zr  Zr51  1  0.92112485  0.08639410  0.11463331  1
  Zr  Zr52  1  0.39874641  0.79279966  -0.00480482  1
  Zr  Zr53  1  0.00612802  0.21532935  0.73855097  1
  Zr  Zr54  1  0.78603830  0.62296050  0.02236215  1
  Zr  Zr55  1  0.50420748  0.09508409  0.85930891  1
  Zr  Zr56  1  0.90783374  0.30823933  0.88508825  1
  Zr  Zr57  1  0.41116229  0.18543050  0.50210047  1
  Zr  Zr58  1  0.78996246  0.58770821  0.48994627  1
  Zr  Zr59  1  0.69249571  0.32017458  0.87710048  1
  Zr  Zr60  1  0.89223550  0.09516747  0.63188658  1
  Zr  Zr61  1  0.39193725  -0.00478186  -0.00743713  1
  Zr  Zr62  1  0.37778060  0.79581135  0.75218220  1
  Zr  Zr63  1  0.80577616  -0.00437466  0.49670960  1
  Zr  Zr64  1  0.80656655  0.39994663  0.23442593  1
  Zr  Zr65  1  0.69042354  0.52242897  0.88833393  1
  Zr  Zr66  1  0.69981348  0.88074869  0.86106218  1
  Zr  Zr67  1  0.00710726  0.38669268  0.25227662  1
  Zr  Zr68  1  0.38286118  0.58591756  0.75772100  1
  Zr  Zr69  1  0.11080362  0.10278317  0.85912482  1
  Zr  Zr70  1  0.11590528  0.08970744  0.63565286  1
  Zr  Zr71  1  0.19626181  0.60734027  0.00377012  1
  Zr  Zr72  1  -0.01427987  0.60770264  0.02288867  1
  Zr  Zr73  1  0.71229486  0.09352746  0.12678898  1
  Zr  Zr74  1  0.20941113  0.20838915  0.50275652  1
  Zr  Zr75  1  0.28431330  0.69959979  0.35202672  1
  Zr  Zr76  1  0.09999793  0.11649985  0.38286139  1
  Zr  Zr77  1  0.69712446  0.29147670  0.11781115  1
  Zr  Zr78  1  0.49982453  0.88303058  0.13865271  1
  Zr  Zr79  1  0.10567917  0.49953206  0.13730393  1
  Ta  Ta80  1  0.27958328  0.70906273  0.88066951  1
  Ta  Ta81  1  0.80489342  0.41117952  0.01800492  1
  Ta  Ta82  1  0.40726665  0.20000226  0.25917996  1
  Ta  Ta83  1  0.30913911  0.09048509  0.36979368  1
  Ta  Ta84  1  0.79766378  0.78639693  0.74121261  1
  Ta  Ta85  1  0.49619191  0.69581439  0.63096134  1
  Ta  Ta86  1  0.08765711  0.70552879  0.88838621  1
  Ta  Ta87  1  0.71431350  0.89316210  0.12307507  1
  Ta  Ta88  1  0.29338316  0.90564155  0.14139667  1
  Ta  Ta89  1  0.59220969  0.59080123  0.25229417  1
  Ta  Ta90  1  0.39380382  0.57863719  0.25541404  1
  Ta  Ta91  1  0.49540692  0.67555415  0.13061768  1
  Ta  Ta92  1  0.50547907  0.29504962  0.62932236  1
  Ta  Ta93  1  -0.00944049  0.81122899  0.49787863  1
  Ta  Ta94  1  0.19747788  0.81729760  0.01121505  1
  Ta  Ta95  1  0.60190170  0.20831607  0.75837731  1
  Ta  Ta96  1  0.40303822  0.38801378  0.25707417  1
  Ta  Ta97  1  0.68259133  0.70773340  0.14281576  1
  Ta  Ta98  1  0.59346582  0.19678985  -0.01603169  1
  Ta  Ta99  1  0.67983618  0.50771336  0.11942241  1
  Ta  Ta100  1  0.71916115  0.30124552  0.36944366  1
  Ta  Ta101  1  0.91014160  0.29150065  0.11287302  1
  Ta  Ta102  1  0.00629050  0.40336913  0.00964265  1
  Ta  Ta103  1  0.31597703  0.30584207  0.12824526  1
  Ta  Ta104  1  0.81796233  -0.00636126  0.26140297  1
  Ta  Ta105  1  0.78051315  0.81008383  0.26356879  1
  Ta  Ta106  1  0.20882429  0.40792825  0.48447889  1
  Ta  Ta107  1  0.68416937  0.69961833  0.37076109  1
  Ta  Ta108  1  0.60687899  0.19572467  0.25417613  1
  Ta  Ta109  1  0.50007558  0.89189522  0.85559141  1
  Ta  Ta110  1  0.59684318  0.60604858  0.50608723  1
  Ta  Ta111  1  0.31133638  0.31367530  0.62239943  1
  Ta  Ta112  1  0.48906245  0.48296909  0.11950002  1
  Ta  Ta113  1  0.20921674  0.42149483  0.76159720  1
  Ta  Ta114  1  -0.01946445  0.60314285  0.23964480  1
  Ta  Ta115  1  0.79076763  0.60220916  0.24287508  1
  Ta  Ta116  1  0.39295769  -0.01723837  0.50329518  1
  Ta  Ta117  1  0.49383817  0.89051389  0.63606137  1
  Ta  Ta118  1  0.20615857  -0.00227983  0.49654412  1
  Ta  Ta119  1  0.08525939  0.92808165  0.11773480  1
  Ti  Ti120  1  0.61754754  0.59436593  0.73859552  1
  Ti  Ti121  1  0.58870493  0.79824629  0.50438331  1
  Ti  Ti122  1  0.18746381  0.61842614  0.75913937  1
  Ti  Ti123  1  0.01356507  0.19023201  0.24315625  1
  Ti  Ti124  1  0.69973872  0.49794642  0.36756551  1
  Ti  Ti125  1  0.79421416  0.42338723  0.75605159  1
  Ti  Ti126  1  0.11198496  0.32234737  0.62910501  1
  Ti  Ti127  1  0.49655223  0.28535555  0.12113075  1
  Ti  Ti128  1  -0.02356729  0.81821211  0.01202379  1
  Ti  Ti129  1  0.69913448  0.10262585  0.63788053  1
  Ti  Ti130  1  0.79861778  -0.00240809  0.76407178  1
  Ti  Ti131  1  0.39453795  -0.01251249  0.75145613  1
  Ti  Ti132  1  0.21824109  0.23162107  0.74814398  1
  Ti  Ti133  1  0.49912992  0.09091233  0.37068488  1
  Ti  Ti134  1  0.91489329  0.09176391  0.87380375  1
  Ti  Ti135  1  0.31111440  0.30305028  0.38330355  1
  Ti  Ti136  1  0.10232004  0.70922899  0.61855752  1
  Ti  Ti137  1  0.22029628  0.40643472  0.26465586  1
  Ti  Ti138  1  0.29615439  0.89925602  0.35184858  1
  Ti  Ti139  1  0.21303766  0.40717423  -0.01036335  1
  Ti  Ti140  1  0.89939875  0.89421258  0.62086521  1
  Ti  Ti141  1  0.81715356  0.19238886  0.24812937  1
  Ti  Ti142  1  0.19527498  0.01072391  0.00531165  1
  Ti  Ti143  1  0.39519180  0.79834488  0.50836954  1
  Ti  Ti144  1  0.78359775  0.80184616  0.49117826  1
  Ti  Ti145  1  0.61360858  0.19447861  0.50933009  1
  Ti  Ti146  1  0.09283475  0.71186139  0.34981562  1
  Ti  Ti147  1  0.19627007  0.60560856  0.49066680  1
  Ti  Ti148  1  0.91409547  0.28403380  0.36970028  1
  Ti  Ti149  1  0.91202260  0.09218099  0.38242350  1
  Ti  Ti150  1  0.40017854  0.58649455  -0.01030375  1
  Ti  Ti151  1  0.29014944  0.69989778  0.62658337  1
  Ti  Ti152  1  0.89224674  0.49274592  0.36740171  1
  Ti  Ti153  1  0.20966497  0.21904716  0.26117162  1
  Ti  Ti154  1  0.69420160  0.69868583  0.62083187  1
  Ti  Ti155  1  0.01735887  0.19231105  -0.00385782  1
  Ti  Ti156  1  0.09843020  0.51077449  0.88136019  1
  Ti  Ti157  1  0.28269914  0.89577969  0.62678799  1
  Ti  Ti158  1  0.58735755  0.39456040  0.00485180  1
  Ti  Ti159  1  0.00394983  0.40668015  0.75190965  1
  Mo  Mo160  1  0.59562041  0.79091567  0.25181133  1
  Mo  Mo161  1  0.89358304  0.49798872  0.12759019  1
  Mo  Mo162  1  0.89284179  0.90520845  0.12452347  1
  Mo  Mo163  1  0.39722014  0.79569299  0.24347212  1
  Mo  Mo164  1  0.11172522  0.11417381  0.11880780  1
  Mo  Mo165  1  0.58230097  0.59494685  0.00775417  1
  Mo  Mo166  1  0.28989631  0.50405047  0.88126967  1
  Mo  Mo167  1  0.60022689  0.40248491  0.74586908  1
  Mo  Mo168  1  0.81071617  0.39458010  0.48209781  1
  Mo  Mo169  1  0.10980476  0.30354182  0.36773148  1
  Mo  Mo170  1  0.00826465  -0.00615977  0.51392076  1
  Mo  Mo171  1  0.41163939  0.20088257  -0.00090968  1
  Mo  Mo172  1  0.18952484  0.79305792  0.74937793  1
  Mo  Mo173  1  0.79425522  0.80077475  0.00580388  1
  Mo  Mo174  1  0.39448944  0.38468858  0.74691880  1
  Mo  Mo175  1  0.59511031  0.78929861  0.73629009  1
  Mo  Mo176  1  0.01057699  0.00149552  -0.01221042  1
  Mo  Mo177  1  0.70281856  0.09904375  0.86760872  1
  Mo  Mo178  1  0.40184527  0.38892013  0.50249691  1
  Mo  Mo179  1  0.89223533  0.90484560  0.38550328  1
  Mo  Mo180  1  0.09594488  0.89698211  0.61226750  1
  Mo  Mo181  1  0.19273232  0.59970209  0.24548685  1
  Mo  Mo182  1  0.39601736  0.38141283  0.00083230  1
  Mo  Mo183  1  0.69285454  0.88985104  0.38482092  1
  Mo  Mo184  1  0.29568323  0.90164507  0.87918537  1
  Mo  Mo185  1  0.88041389  0.71631508  0.14372759  1
  Mo  Mo186  1  0.31899637  0.31360923  0.86926652  1
  Mo  Mo187  1  0.79949357  0.60497611  0.74485880  1
  Mo  Mo188  1  0.70025662  0.51243090  0.62503825  1
  Mo  Mo189  1  0.69684315  0.69622151  0.86560695  1
  Mo  Mo190  1  0.39745667  0.00499442  0.25197610  1
  Mo  Mo191  1  0.20897728  -0.03569535  0.75174175  1
  Mo  Mo192  1  0.60329168  -0.00487137  0.75024579  1
  Mo  Mo193  1  0.18769573  0.81561297  0.23864605  1
  Mo  Mo194  1  0.90930223  0.30837475  0.63687015  1
  Mo  Mo195  1  0.30481571  0.49809990  0.37823257  1
  Mo  Mo196  1  0.40407915  0.20512558  0.74022242  1
  Mo  Mo197  1  0.90496376  0.89490222  0.86488790  1
  Mo  Mo198  1  -0.00861928  0.02102014  0.25230440  1
  Mo  Mo199  1  0.49590436  0.29163321  0.87088057  1
