# generated using pymatgen
data_HfZrTaTiMo
_symmetry_space_group_name_H-M   'P 1'
_cell_length_a   15.20925557
_cell_length_b   15.22357637
_cell_length_c   16.84437338
_cell_angle_alpha   89.95845399
_cell_angle_beta   90.00339954
_cell_angle_gamma   89.92091090
_symmetry_Int_Tables_number   1
_chemical_formula_structural   HfZrTaTiMo
_chemical_formula_sum   'Hf40 Zr40 Ta40 Ti40 Mo40'
_cell_volume   3900.12906069
_cell_formula_units_Z   40
loop_
 _symmetry_equiv_pos_site_id
 _symmetry_equiv_pos_as_xyz
  1  'x, y, z'
loop_
 _atom_site_type_symbol
 _atom_site_label
 _atom_site_symmetry_multiplicity
 _atom_site_fract_x
 _atom_site_fract_y
 _atom_site_fract_z
 _atom_site_occupancy
  Hf  Hf0  1  0.79920045  0.59342542  -0.00755833  1
  Hf  Hf1  1  0.79667632  0.38189590  0.51614978  1
  Hf  Hf2  1  0.89720888  0.91020855  0.12365314  1
  Hf  Hf3  1  0.70202208  0.50127917  0.37858559  1
  Hf  Hf4  1  0.21047688  0.19946975  0.00001032  1
  Hf  Hf5  1  -0.01777717  0.80851891  0.51719964  1
  Hf  Hf6  1  0.20978917  0.61470471  0.51741024  1
  Hf  Hf7  1  0.09305201  0.12198759  0.63731574  1
  Hf  Hf8  1  -0.01092550  0.02226408  0.49178779  1
  Hf  Hf9  1  -0.00064778  0.60620850  0.25653323  1
  Hf  Hf10  1  0.78721700  0.60553255  0.52650100  1
  Hf  Hf11  1  0.50133993  0.50397516  0.36964946  1
  Hf  Hf12  1  0.60728211  0.61225662  0.22557511  1
  Hf  Hf13  1  0.58618741  0.80890922  0.50214581  1
  Hf  Hf14  1  0.29922875  0.70585122  0.11882635  1
  Hf  Hf15  1  0.49636054  0.69499730  0.88509247  1
  Hf  Hf16  1  0.38361911  -0.01058634  0.25754574  1
  Hf  Hf17  1  -0.00076332  0.61121460  0.73785627  1
  Hf  Hf18  1  0.20527757  0.00249483  -0.00019225  1
  Hf  Hf19  1  0.19939404  0.40588674  0.00104681  1
  Hf  Hf20  1  0.48009485  0.90397088  0.11246334  1
  Hf  Hf21  1  0.42106633  -0.01585607  0.75419132  1
  Hf  Hf22  1  0.88904189  0.70616073  0.38050885  1
  Hf  Hf23  1  0.39313327  0.39713420  0.24889657  1
  Hf  Hf24  1  0.39917438  0.39598644  0.00549819  1
  Hf  Hf25  1  0.69434237  0.71039996  0.87522526  1
  Hf  Hf26  1  0.39792091  0.18967927  0.49152323  1
  Hf  Hf27  1  0.40123615  0.38851415  0.49443522  1
  Hf  Hf28  1  -0.00170651  0.60306813  0.52167407  1
  Hf  Hf29  1  0.50813892  0.08569266  0.37489044  1
  Hf  Hf30  1  0.00104633  0.20341330  -0.00190112  1
  Hf  Hf31  1  0.09882153  0.70896481  0.38693646  1
  Hf  Hf32  1  -0.00899797  0.40772633  0.25621345  1
  Hf  Hf33  1  0.70268458  0.29465750  0.11808269  1
  Hf  Hf34  1  0.89547311  0.29910855  0.12139856  1
  Hf  Hf35  1  0.89662352  0.49928917  0.38953897  1
  Hf  Hf36  1  0.49899120  0.29080315  0.13078704  1
  Hf  Hf37  1  0.61199753  0.39966562  0.24548650  1
  Hf  Hf38  1  0.09430511  0.70584239  0.87260137  1
  Hf  Hf39  1  0.31264213  0.30208782  0.86945878  1
  Zr  Zr40  1  0.69748074  0.49700531  0.85373330  1
  Zr  Zr41  1  0.89994920  0.09282453  0.87583077  1
  Zr  Zr42  1  0.80383861  0.20192682  0.25461486  1
  Zr  Zr43  1  0.71810180  0.09236524  0.61472914  1
  Zr  Zr44  1  0.90153690  0.69519258  0.12112778  1
  Zr  Zr45  1  0.09411221  0.92086886  0.62041544  1
  Zr  Zr46  1  0.68977575  0.91403002  0.11724487  1
  Zr  Zr47  1  0.89664284  0.48505983  0.64133315  1
  Zr  Zr48  1  0.10831961  0.11052267  0.85762899  1
  Zr  Zr49  1  0.29468024  0.69484469  0.88550579  1
  Zr  Zr50  1  0.31284158  0.09696454  0.63342510  1
  Zr  Zr51  1  0.50007702  0.70027849  0.36831181  1
  Zr  Zr52  1  0.69217240  0.28347812  0.87480948  1
  Zr  Zr53  1  0.51693588  0.07856252  0.61832743  1
  Zr  Zr54  1  0.48488509  0.70225667  0.63081219  1
  Zr  Zr55  1  0.30349755  0.48793377  0.62513986  1
  Zr  Zr56  1  0.19779235  0.60350736  0.24551278  1
  Zr  Zr57  1  0.00703858  0.19604687  0.25308306  1
  Zr  Zr58  1  0.29577587  0.70378104  0.36510585  1
  Zr  Zr59  1  -0.02460251  0.81485718  0.73413044  1
  Zr  Zr60  1  0.08374058  0.91232841  0.86507871  1
  Zr  Zr61  1  0.38105537  0.78603552  0.49777753  1
  Zr  Zr62  1  0.79777692  0.19395054  0.74397971  1
  Zr  Zr63  1  0.61547088  0.20108243  0.49422544  1
  Zr  Zr64  1  0.60011223  0.40622739  -0.00103254  1
  Zr  Zr65  1  0.10370393  0.90343613  0.38638673  1
  Zr  Zr66  1  0.51466470  0.09533056  0.12955074  1
  Zr  Zr67  1  0.68691242  0.48276102  0.65046950  1
  Zr  Zr68  1  0.52586712  0.09662199  0.87406814  1
  Zr  Zr69  1  0.19726285  0.59939504  0.74216544  1
  Zr  Zr70  1  -0.00259424  0.80389810  -0.00141408  1
  Zr  Zr71  1  0.69612894  0.69786084  0.37667105  1
  Zr  Zr72  1  0.12977526  0.10898831  0.37212797  1
  Zr  Zr73  1  0.49619901  0.48868051  0.64284996  1
  Zr  Zr74  1  0.29562590  0.89637005  0.87451857  1
  Zr  Zr75  1  0.80261317  0.00419401  0.25415004  1
  Zr  Zr76  1  0.29706362  0.49910479  0.38145458  1
  Zr  Zr77  1  0.10466138  0.31618197  0.85489526  1
  Zr  Zr78  1  0.10266866  0.30568644  0.12783229  1
  Zr  Zr79  1  -0.00235630  0.41397225  -0.01594147  1
  Ta  Ta80  1  0.78600914  0.80586009  0.52008254  1
  Ta  Ta81  1  0.20613806  -0.00064445  0.74543974  1
  Ta  Ta82  1  0.40483009  0.60200782  0.23123811  1
  Ta  Ta83  1  0.69303062  0.91300139  0.88576843  1
  Ta  Ta84  1  0.30593896  0.89284574  0.62456389  1
  Ta  Ta85  1  0.67658218  0.90663352  0.62463771  1
  Ta  Ta86  1  0.19453870  0.40065643  0.24995509  1
  Ta  Ta87  1  0.20533655  0.21433998  0.51417876  1
  Ta  Ta88  1  0.39620271  0.19128799  0.26167937  1
  Ta  Ta89  1  0.90424277  0.29924116  0.38025788  1
  Ta  Ta90  1  0.39536580  0.59592272  0.75983518  1
  Ta  Ta91  1  0.82713027  0.18925261  0.49870140  1
  Ta  Ta92  1  0.19073693  0.59858693  0.00314403  1
  Ta  Ta93  1  0.50941992  0.29245772  0.62465410  1
  Ta  Ta94  1  0.80537100  0.39473272  -0.01456848  1
  Ta  Ta95  1  0.10128290  0.90756386  0.12936111  1
  Ta  Ta96  1  0.79213539  0.80017540  0.00227248  1
  Ta  Ta97  1  0.09242150  0.51083863  0.12429014  1
  Ta  Ta98  1  0.10694422  0.31123819  0.37492028  1
  Ta  Ta99  1  0.10028802  0.50152729  0.38833377  1
  Ta  Ta100  1  0.77580270  0.80571111  0.73812827  1
  Ta  Ta101  1  0.80222018  0.58978661  0.24425156  1
  Ta  Ta102  1  0.31274755  0.10098164  0.86242310  1
  Ta  Ta103  1  0.49302340  0.48232189  0.85984494  1
  Ta  Ta104  1  0.78952655  0.79252286  0.24113102  1
  Ta  Ta105  1  0.19212659  0.79958590  0.73310924  1
  Ta  Ta106  1  0.58167751  0.82069772  0.75512055  1
  Ta  Ta107  1  0.42376916  0.20861749  0.75156938  1
  Ta  Ta108  1  0.40827130  0.18925187  -0.00335172  1
  Ta  Ta109  1  0.69163839  0.89388527  0.37085974  1
  Ta  Ta110  1  0.92033502  0.28572263  0.63705835  1
  Ta  Ta111  1  0.59997473  0.39785582  0.49884533  1
  Ta  Ta112  1  0.58757642  0.59607519  0.51227227  1
  Ta  Ta113  1  0.50696722  0.29640098  0.36606851  1
  Ta  Ta114  1  0.89891554  0.49472898  0.12206985  1
  Ta  Ta115  1  -0.00246002  0.80773819  0.25094783  1
  Ta  Ta116  1  0.70769993  0.30214036  0.37383971  1
  Ta  Ta117  1  0.88898223  0.70382698  0.86911341  1
  Ta  Ta118  1  0.00541701  0.00026340  0.25493217  1
  Ta  Ta119  1  0.20175587  0.82082959  0.24298841  1
  Ti  Ti120  1  0.61788298  0.18166803  0.00404627  1
  Ti  Ti121  1  0.49926642  0.49942559  0.12536600  1
  Ti  Ti122  1  0.89888032  0.30211912  0.85941084  1
  Ti  Ti123  1  0.21761737  0.21876015  0.73506722  1
  Ti  Ti124  1  0.41460101  -0.02025974  0.49020440  1
  Ti  Ti125  1  0.19577536  0.39332263  0.50462349  1
  Ti  Ti126  1  0.60047170  -0.00741244  0.25519406  1
  Ti  Ti127  1  0.71470139  0.49585189  0.12155909  1
  Ti  Ti128  1  0.80432502  -0.01100650  0.74784204  1
  Ti  Ti129  1  0.40116690  0.79723456  0.24115298  1
  Ti  Ti130  1  0.50033635  0.90064561  0.89793754  1
  Ti  Ti131  1  0.01203392  0.21145167  0.49574955  1
  Ti  Ti132  1  0.29029912  0.90636109  0.38296782  1
  Ti  Ti133  1  0.79932869  -0.01001420  0.49156739  1
  Ti  Ti134  1  0.39992335  0.58991343  0.00444132  1
  Ti  Ti135  1  0.89236432  0.89907288  0.37030057  1
  Ti  Ti136  1  0.61037565  0.18927036  0.25560173  1
  Ti  Ti137  1  0.90342585  0.50061559  0.85298311  1
  Ti  Ti138  1  0.59531138  0.62024474  0.74895857  1
  Ti  Ti139  1  0.59872571  0.60346727  0.01273796  1
  Ti  Ti140  1  0.30788936  0.09266723  0.12571838  1
  Ti  Ti141  1  0.29025761  0.28585373  0.36831950  1
  Ti  Ti142  1  0.38956895  0.79133702  0.75453997  1
  Ti  Ti143  1  0.88344083  0.89771314  0.88106470  1
  Ti  Ti144  1  0.10834065  0.10020089  0.13443988  1
  Ti  Ti145  1  0.59261918  0.80212793  0.23526498  1
  Ti  Ti146  1  0.59685039  0.79446762  0.01120345  1
  Ti  Ti147  1  0.00486618  0.39299218  0.50497073  1
  Ti  Ti148  1  0.21611558  0.01145848  0.50848092  1
  Ti  Ti149  1  0.09695859  0.70668900  0.12527412  1
  Ti  Ti150  1  0.29348562  0.49736579  0.12619824  1
  Ti  Ti151  1  0.29117195  0.49632897  0.87082776  1
  Ti  Ti152  1  0.09924875  0.48574513  0.62896567  1
  Ti  Ti153  1  0.39141495  0.80284481  0.00264283  1
  Ti  Ti154  1  0.30081336  0.28888930  0.13138716  1
  Ti  Ti155  1  0.71274394  0.09571434  0.38212029  1
  Ti  Ti156  1  -0.00040950  0.00807524  0.00849421  1
  Ti  Ti157  1  0.19240744  0.80396915  0.00694445  1
  Ti  Ti158  1  -0.00111637  0.60037105  -0.01026243  1
  Ti  Ti159  1  0.79642532  0.61466533  0.73944755  1
  Mo  Mo160  1  0.39456255  0.39095805  0.75385521  1
  Mo  Mo161  1  -0.00908336  0.00743777  0.74714599  1
  Mo  Mo162  1  0.80017206  0.39083542  0.75359886  1
  Mo  Mo163  1  0.90981764  0.09313913  0.62856782  1
  Mo  Mo164  1  0.68317312  0.70293480  0.63443026  1
  Mo  Mo165  1  0.87553766  0.92036912  0.62120200  1
  Mo  Mo166  1  0.70358795  0.29512781  0.62477557  1
  Mo  Mo167  1  0.40734353  0.59132468  0.50158585  1
  Mo  Mo168  1  0.19326901  0.80914469  0.51935309  1
  Mo  Mo169  1  0.80145096  0.40519372  0.25216438  1
  Mo  Mo170  1  0.29950812  0.69888434  0.63533212  1
  Mo  Mo171  1  0.60324120  0.18751995  0.74009640  1
  Mo  Mo172  1  0.50179989  0.29334302  0.88351956  1
  Mo  Mo173  1  0.30477805  0.09560924  0.38436803  1
  Mo  Mo174  1  0.91138749  0.09839493  0.11667014  1
  Mo  Mo175  1  0.09723301  0.70979716  0.61969865  1
  Mo  Mo176  1  0.19757744  0.00504946  0.24195017  1
  Mo  Mo177  1  0.39552143  0.00944426  -0.00798988  1
  Mo  Mo178  1  0.60920864  -0.01146732  0.48379012  1
  Mo  Mo179  1  0.49592283  0.70027020  0.10992601  1
  Mo  Mo180  1  0.58751417  0.35994842  0.75646550  1
  Mo  Mo181  1  0.80637672  0.20103181  -0.00276477  1
  Mo  Mo182  1  0.00037112  0.20467054  0.75368686  1
  Mo  Mo183  1  0.10624736  0.31357357  0.63318291  1
  Mo  Mo184  1  0.49897792  0.89110273  0.36214972  1
  Mo  Mo185  1  0.29162124  0.90263771  0.11909093  1
  Mo  Mo186  1  0.00229111  0.40681694  0.75500275  1
  Mo  Mo187  1  0.59993775  -0.00188377  0.00198558  1
  Mo  Mo188  1  0.48920961  0.90071310  0.62629191  1
  Mo  Mo189  1  0.10178220  0.51461119  0.87234616  1
  Mo  Mo190  1  0.70354916  0.70228286  0.11825862  1
  Mo  Mo191  1  0.21646204  0.20368569  0.24301714  1
  Mo  Mo192  1  0.88542092  0.70692029  0.63175768  1
  Mo  Mo193  1  0.20447437  0.40492652  0.74730888  1
  Mo  Mo194  1  0.71314172  0.08869340  0.87796250  1
  Mo  Mo195  1  0.72325032  0.10363372  0.11661118  1
  Mo  Mo196  1  0.31092930  0.29703537  0.62595126  1
  Mo  Mo197  1  0.61863597  -0.00863831  0.75287026  1
  Mo  Mo198  1  0.80059471  0.00692965  0.00135838  1
  Mo  Mo199  1  0.90593231  0.10010302  0.37602563  1
