# generated using pymatgen
data_HfZrTaTiMo
_symmetry_space_group_name_H-M   'P 1'
_cell_length_a   15.22314489
_cell_length_b   15.20711644
_cell_length_c   16.83030200
_cell_angle_alpha   90.07586907
_cell_angle_beta   89.96281134
_cell_angle_gamma   89.89537090
_symmetry_Int_Tables_number   1
_chemical_formula_structural   HfZrTaTiMo
_chemical_formula_sum   'Hf40 Zr40 Ta40 Ti40 Mo40'
_cell_volume   3896.20647895
_cell_formula_units_Z   40
loop_
 _symmetry_equiv_pos_site_id
 _symmetry_equiv_pos_as_xyz
  1  'x, y, z'
loop_
 _atom_site_type_symbol
 _atom_site_label
 _atom_site_symmetry_multiplicity
 _atom_site_fract_x
 _atom_site_fract_y
 _atom_site_fract_z
 _atom_site_occupancy
  Hf  Hf0  1  0.70506361  0.30047480  0.38878747  1
  Hf  Hf1  1  0.50883138  0.89930851  0.10759236  1
  Hf  Hf2  1  0.08580237  0.90130842  0.60499140  1
  Hf  Hf3  1  0.60984793  -0.00664185  0.74648725  1
  Hf  Hf4  1  0.90605909  0.50297502  0.62987001  1
  Hf  Hf5  1  -0.00049796  0.40464661  -0.00467350  1
  Hf  Hf6  1  0.59824396  0.77729583  -0.00884315  1
  Hf  Hf7  1  0.11269188  0.49769603  0.63415456  1
  Hf  Hf8  1  0.59099952  0.39865077  0.75079869  1
  Hf  Hf9  1  0.50485515  0.29377394  0.39366766  1
  Hf  Hf10  1  0.60710203  0.59634259  0.26098485  1
  Hf  Hf11  1  0.80276441  0.60069559  -0.00935905  1
  Hf  Hf12  1  0.30658299  0.48999657  0.87973543  1
  Hf  Hf13  1  0.50849150  0.49956024  0.12621603  1
  Hf  Hf14  1  0.60010307  0.19308558  0.74975369  1
  Hf  Hf15  1  0.50588233  0.49151320  0.60314546  1
  Hf  Hf16  1  0.81420519  -0.00136349  0.00151356  1
  Hf  Hf17  1  0.90685045  0.71301721  0.62906681  1
  Hf  Hf18  1  -0.01062702  0.80950508  0.26059183  1
  Hf  Hf19  1  0.80582653  -0.00369673  0.25285993  1
  Hf  Hf20  1  0.90769192  0.50723330  0.12573539  1
  Hf  Hf21  1  0.82436316  0.39233841  0.50251051  1
  Hf  Hf22  1  0.20409799  0.58857041  0.49739789  1
  Hf  Hf23  1  0.21990863  0.39672343  0.25665089  1
  Hf  Hf24  1  0.19899604  0.80678885  0.01376141  1
  Hf  Hf25  1  0.49949674  0.71265650  0.37950540  1
  Hf  Hf26  1  0.68280270  0.90416529  0.38824741  1
  Hf  Hf27  1  0.30191111  0.89606249  0.37811332  1
  Hf  Hf28  1  0.00458951  0.19487865  0.00115452  1
  Hf  Hf29  1  0.50393765  0.49655408  0.39172939  1
  Hf  Hf30  1  0.07483745  0.91561827  0.12847033  1
  Hf  Hf31  1  0.49807453  0.29293676  0.61182433  1
  Hf  Hf32  1  -0.02202238  -0.00198990  0.73854491  1
  Hf  Hf33  1  0.10904030  0.72482813  0.85933713  1
  Hf  Hf34  1  0.19447081  0.20273568  0.50599088  1
  Hf  Hf35  1  0.09586599  0.10153992  0.85523517  1
  Hf  Hf36  1  0.49008694  0.87144226  0.87575372  1
  Hf  Hf37  1  0.79399974  0.20858842  0.24870917  1
  Hf  Hf38  1  0.61110165  0.38869867  0.24981537  1
  Hf  Hf39  1  0.10170829  0.29711499  0.86207624  1
  Zr  Zr40  1  0.32415975  0.71113074  0.86399956  1
  Zr  Zr41  1  0.20037651  0.60890661  -0.00172511  1
  Zr  Zr42  1  0.40241836  -0.00215546  0.75548267  1
  Zr  Zr43  1  0.39494807  0.19222619  0.50509732  1
  Zr  Zr44  1  0.59622525  0.79016486  0.74007610  1
  Zr  Zr45  1  0.29767052  0.49926063  0.11950334  1
  Zr  Zr46  1  0.18246653  0.01321945  -0.00672524  1
  Zr  Zr47  1  0.59174070  0.81116698  0.51514616  1
  Zr  Zr48  1  0.69925474  0.10298605  0.11781591  1
  Zr  Zr49  1  0.42409911  0.59278589  0.75144325  1
  Zr  Zr50  1  -0.00791213  0.22269147  0.50109370  1
  Zr  Zr51  1  0.39604044  0.80084431  0.23703934  1
  Zr  Zr52  1  0.27569657  0.89543124  0.86257186  1
  Zr  Zr53  1  0.90333591  0.90449831  0.40527612  1
  Zr  Zr54  1  0.49676019  0.09751378  0.11170673  1
  Zr  Zr55  1  0.60726831  0.39574368  -0.00785123  1
  Zr  Zr56  1  0.41718602  0.60484173  -0.00596747  1
  Zr  Zr57  1  0.49162368  0.29318674  0.87925957  1
  Zr  Zr58  1  0.89323083  0.70796448  0.12852019  1
  Zr  Zr59  1  0.38640648  -0.00490284  -0.01024529  1
  Zr  Zr60  1  0.59574204  -0.00371228  0.25233412  1
  Zr  Zr61  1  0.10554584  0.49910821  0.87365367  1
  Zr  Zr62  1  0.20389711  0.78749492  0.50431188  1
  Zr  Zr63  1  0.78707592  0.79152727  0.26944436  1
  Zr  Zr64  1  0.09535488  0.69343692  0.13880848  1
  Zr  Zr65  1  0.79035353  0.40268262  0.74468563  1
  Zr  Zr66  1  0.70765882  0.88839189  0.11733268  1
  Zr  Zr67  1  0.38744871  0.20760294  0.25362931  1
  Zr  Zr68  1  0.80851743  0.59756602  0.49681910  1
  Zr  Zr69  1  0.39113556  0.00350862  0.24796279  1
  Zr  Zr70  1  0.10115810  0.30864281  0.13346506  1
  Zr  Zr71  1  0.91641563  0.09588297  0.12735741  1
  Zr  Zr72  1  0.12787214  0.10896184  0.14821244  1
  Zr  Zr73  1  0.10250505  0.30850161  0.37113149  1
  Zr  Zr74  1  0.50289070  0.29517548  0.11631314  1
  Zr  Zr75  1  0.29059583  0.09571822  0.63445869  1
  Zr  Zr76  1  0.29079028  0.29153602  0.86612652  1
  Zr  Zr77  1  0.89118150  0.10904616  0.38956831  1
  Zr  Zr78  1  0.00019434  0.60310618  0.75750272  1
  Zr  Zr79  1  -0.00856231  0.81308473  -0.00434821  1
  Ta  Ta80  1  0.40890268  0.40120704  0.25642883  1
  Ta  Ta81  1  0.89952905  0.29558794  0.86646148  1
  Ta  Ta82  1  0.80475288  0.59227672  0.26326969  1
  Ta  Ta83  1  0.39389775  0.60425146  0.49701081  1
  Ta  Ta84  1  0.10769669  0.30116253  0.64150115  1
  Ta  Ta85  1  0.00473833  0.00536022  0.26785295  1
  Ta  Ta86  1  0.89580144  0.71299390  0.85851602  1
  Ta  Ta87  1  0.10471025  0.90862640  0.39208619  1
  Ta  Ta88  1  0.59632362  0.19590644  0.25400472  1
  Ta  Ta89  1  0.62252306  0.59035111  0.72645679  1
  Ta  Ta90  1  0.88528737  0.90873076  0.60370367  1
  Ta  Ta91  1  0.61440749  0.61106314  0.50753346  1
  Ta  Ta92  1  0.59564159  0.79675043  0.25130990  1
  Ta  Ta93  1  0.39598680  0.39491348  0.74274595  1
  Ta  Ta94  1  0.89180699  0.09733375  0.61134723  1
  Ta  Ta95  1  0.78645612  0.79085656  0.50261768  1
  Ta  Ta96  1  0.39637085  0.59307852  0.25479102  1
  Ta  Ta97  1  0.10467310  0.70245902  0.63553817  1
  Ta  Ta98  1  0.89269038  0.90635728  0.86521466  1
  Ta  Ta99  1  0.61134622  0.19165151  -0.01220733  1
  Ta  Ta100  1  -0.00387064  0.20654059  0.26187840  1
  Ta  Ta101  1  -0.00217239  0.39536709  0.75364532  1
  Ta  Ta102  1  0.50382451  0.69373669  0.13235436  1
  Ta  Ta103  1  0.01370505  0.60900498  0.49955598  1
  Ta  Ta104  1  0.39482121  -0.00924080  0.50602997  1
  Ta  Ta105  1  0.68514099  0.10517681  0.38602009  1
  Ta  Ta106  1  0.71370587  0.49035199  0.12632781  1
  Ta  Ta107  1  0.29326474  0.69037604  0.36397444  1
  Ta  Ta108  1  0.69214968  0.51053780  0.86854057  1
  Ta  Ta109  1  0.79675309  0.82126445  0.73710660  1
  Ta  Ta110  1  0.28692997  0.09713615  0.38169494  1
  Ta  Ta111  1  0.09923159  0.50419303  0.13627483  1
  Ta  Ta112  1  0.49537254  0.69550882  0.61762616  1
  Ta  Ta113  1  0.70035163  0.89928142  0.87891836  1
  Ta  Ta114  1  0.19501925  0.81115519  0.24706479  1
  Ta  Ta115  1  0.80708183  0.40427752  0.25762575  1
  Ta  Ta116  1  0.89517536  0.10767209  0.87012374  1
  Ta  Ta117  1  0.69576689  0.68355032  0.12852513  1
  Ta  Ta118  1  0.09897185  0.70425024  0.36551281  1
  Ta  Ta119  1  0.21563904  0.60028346  0.75009357  1
  Ti  Ti120  1  0.08733422  0.10427929  0.62673329  1
  Ti  Ti121  1  0.80006652  0.18793925  0.74330114  1
  Ti  Ti122  1  0.70844118  0.70118751  0.85915793  1
  Ti  Ti123  1  0.69526643  0.30528256  0.61420390  1
  Ti  Ti124  1  0.09988328  0.09680881  0.38136108  1
  Ti  Ti125  1  0.20749129  0.21139178  0.00514198  1
  Ti  Ti126  1  0.39631868  0.79883859  0.50537827  1
  Ti  Ti127  1  0.78972786  0.19885678  0.50938364  1
  Ti  Ti128  1  0.38931423  0.38898587  0.00506443  1
  Ti  Ti129  1  0.02312610  0.41456629  0.49847525  1
  Ti  Ti130  1  0.60890626  0.59024065  -0.00218138  1
  Ti  Ti131  1  0.29248945  0.89150587  0.62950505  1
  Ti  Ti132  1  0.30455676  0.69487594  0.63363281  1
  Ti  Ti133  1  0.79865096  0.79425972  -0.00676412  1
  Ti  Ti134  1  0.89107986  0.30825785  0.12579012  1
  Ti  Ti135  1  0.69582416  0.09752383  0.61996243  1
  Ti  Ti136  1  0.79939034  0.39892138  -0.00734334  1
  Ti  Ti137  1  0.49486356  0.08702248  0.38132553  1
  Ti  Ti138  1  0.91891362  0.49860281  0.37666187  1
  Ti  Ti139  1  0.40118996  0.19871030  0.74108801  1
  Ti  Ti140  1  0.48652509  0.90254198  0.63215726  1
  Ti  Ti141  1  -0.00058751  0.60969534  -0.01245141  1
  Ti  Ti142  1  0.58538255  0.01078565  0.51437460  1
  Ti  Ti143  1  0.70960264  0.29237170  0.87064057  1
  Ti  Ti144  1  0.11046882  0.51611992  0.35797310  1
  Ti  Ti145  1  0.90417178  0.29338572  0.63866888  1
  Ti  Ti146  1  0.70846046  0.09433526  0.87634576  1
  Ti  Ti147  1  0.18275027  -0.01132052  0.74265031  1
  Ti  Ti148  1  0.50791050  0.08820119  0.88534624  1
  Ti  Ti149  1  0.28414143  0.92079510  0.12975731  1
  Ti  Ti150  1  0.21814337  0.39558227  0.49636821  1
  Ti  Ti151  1  0.90396502  0.69479896  0.38084890  1
  Ti  Ti152  1  0.70611550  0.49953661  0.38560987  1
  Ti  Ti153  1  0.39129957  0.19221477  -0.00022657  1
  Ti  Ti154  1  0.30821480  0.49263130  0.62550395  1
  Ti  Ti155  1  0.80357887  0.21051560  0.00126856  1
  Ti  Ti156  1  -0.00574366  0.40515489  0.25263822  1
  Ti  Ti157  1  0.38655204  0.79167927  0.02314729  1
  Ti  Ti158  1  0.89090264  0.50157974  0.86588792  1
  Ti  Ti159  1  0.29424810  0.10381435  0.85984974  1
  Mo  Mo160  1  0.19902519  0.80046740  0.72911449  1
  Mo  Mo161  1  0.89703888  0.90226047  0.13106186  1
  Mo  Mo162  1  0.70183751  0.90730125  0.61578715  1
  Mo  Mo163  1  0.29491174  0.30838405  0.63397975  1
  Mo  Mo164  1  0.20408312  0.60373400  0.25313288  1
  Mo  Mo165  1  0.71060240  0.30178477  0.12027279  1
  Mo  Mo166  1  0.60388582  0.18992478  0.50758585  1
  Mo  Mo167  1  0.30727842  0.49882723  0.37550299  1
  Mo  Mo168  1  -0.00621662  0.00570200  -0.01726080  1
  Mo  Mo169  1  0.38949319  0.40315958  0.49714203  1
  Mo  Mo170  1  0.20721850  0.40509895  0.74507771  1
  Mo  Mo171  1  0.08413843  0.90234917  0.86312299  1
  Mo  Mo172  1  0.61562814  0.40248210  0.50476718  1
  Mo  Mo173  1  0.78959097  0.00914176  0.74805942  1
  Mo  Mo174  1  0.20224953  0.00454931  0.50262577  1
  Mo  Mo175  1  0.19776233  0.19366007  0.73738763  1
  Mo  Mo176  1  0.30003860  0.70373994  0.13806979  1
  Mo  Mo177  1  0.30868833  0.30282292  0.38204053  1
  Mo  Mo178  1  0.20185757  0.19738123  0.26968597  1
  Mo  Mo179  1  0.19493694  -0.00382285  0.26332283  1
  Mo  Mo180  1  0.53209855  0.66911972  0.86433739  1
  Mo  Mo181  1  0.49990438  0.09381408  0.62847626  1
  Mo  Mo182  1  0.49182167  0.90725681  0.38505937  1
  Mo  Mo183  1  -0.01136181  0.20047595  0.74004071  1
  Mo  Mo184  1  -0.00302734  0.79050119  0.49187466  1
  Mo  Mo185  1  0.90124344  0.31093731  0.36966449  1
  Mo  Mo186  1  0.70605532  0.49520285  0.61303396  1
  Mo  Mo187  1  0.19680325  0.39456672  0.00995215  1
  Mo  Mo188  1  0.60404304  -0.00600964  -0.01988442  1
  Mo  Mo189  1  0.79934521  0.60871620  0.75154694  1
  Mo  Mo190  1  0.39987540  0.79364004  0.73489110  1
  Mo  Mo191  1  -0.00298578  0.81300090  0.74650055  1
  Mo  Mo192  1  0.77997097  0.00579932  0.50309428  1
  Mo  Mo193  1  0.50499445  0.49436562  0.87496588  1
  Mo  Mo194  1  0.30199744  0.10845074  0.12349747  1
  Mo  Mo195  1  0.00296204  0.01315907  0.50474820  1
  Mo  Mo196  1  0.29669574  0.29018207  0.12054842  1
  Mo  Mo197  1  -0.00476799  0.59612665  0.26150643  1
  Mo  Mo198  1  0.70893505  0.70196530  0.62859752  1
  Mo  Mo199  1  0.69720212  0.69556575  0.37756482  1
