# generated using pymatgen
data_HfZrTaTiMo
_symmetry_space_group_name_H-M   'P 1'
_cell_length_a   15.21695888
_cell_length_b   15.19427689
_cell_length_c   16.85127304
_cell_angle_alpha   89.97080175
_cell_angle_beta   89.96661779
_cell_angle_gamma   89.99528341
_symmetry_Int_Tables_number   1
_chemical_formula_structural   HfZrTaTiMo
_chemical_formula_sum   'Hf40 Zr40 Ta40 Ti40 Mo40'
_cell_volume   3896.19322948
_cell_formula_units_Z   40
loop_
 _symmetry_equiv_pos_site_id
 _symmetry_equiv_pos_as_xyz
  1  'x, y, z'
loop_
 _atom_site_type_symbol
 _atom_site_label
 _atom_site_symmetry_multiplicity
 _atom_site_fract_x
 _atom_site_fract_y
 _atom_site_fract_z
 _atom_site_occupancy
  Hf  Hf0  1  0.39472075  0.00998798  0.75773237  1
  Hf  Hf1  1  -0.00193028  0.18464543  0.73221494  1
  Hf  Hf2  1  0.59763928  0.61367524  0.25314000  1
  Hf  Hf3  1  0.51216543  0.48867556  0.63246528  1
  Hf  Hf4  1  0.49840774  0.29094021  0.13073836  1
  Hf  Hf5  1  0.88791951  0.88634263  0.39948290  1
  Hf  Hf6  1  0.28019744  0.10209075  0.12914464  1
  Hf  Hf7  1  0.00148689  0.01210512  -0.00175451  1
  Hf  Hf8  1  0.19782951  0.18970672  0.48830368  1
  Hf  Hf9  1  0.39162677  0.00874136  0.00224868  1
  Hf  Hf10  1  0.00503791  0.17828053  0.25296193  1
  Hf  Hf11  1  0.90206154  0.08596233  0.38276138  1
  Hf  Hf12  1  0.18995273  -0.00178250  0.74984241  1
  Hf  Hf13  1  0.20362458  0.58433095  0.00230949  1
  Hf  Hf14  1  0.81224720  0.60509407  0.48897206  1
  Hf  Hf15  1  0.90184599  0.27863658  0.88126709  1
  Hf  Hf16  1  0.09684540  0.29580438  0.36697862  1
  Hf  Hf17  1  0.70918791  0.70979760  0.12731957  1
  Hf  Hf18  1  0.70011197  0.71906906  0.37689245  1
  Hf  Hf19  1  0.29391893  0.69768874  0.36802806  1
  Hf  Hf20  1  0.31341297  0.30066416  0.61961965  1
  Hf  Hf21  1  0.12352662  0.48673281  0.14196515  1
  Hf  Hf22  1  0.50504831  0.70766046  0.86924705  1
  Hf  Hf23  1  0.59900397  0.41109677  -0.00087911  1
  Hf  Hf24  1  0.50167740  0.50475658  0.13173127  1
  Hf  Hf25  1  0.49025487  0.10953767  0.62500615  1
  Hf  Hf26  1  0.19938084  -0.00973462  0.49231155  1
  Hf  Hf27  1  0.79746268  0.20273349  0.49494870  1
  Hf  Hf28  1  0.08099749  0.69491694  0.11380245  1
  Hf  Hf29  1  0.79564331  0.40870729  0.75323078  1
  Hf  Hf30  1  0.09745950  0.91300875  0.12161374  1
  Hf  Hf31  1  0.69558055  0.91306052  0.12172598  1
  Hf  Hf32  1  0.59100875  0.20816762  -0.00365090  1
  Hf  Hf33  1  0.70881270  0.50140652  0.13713862  1
  Hf  Hf34  1  0.39848520  0.59309747  0.75962346  1
  Hf  Hf35  1  0.80713145  0.00527166  0.74384035  1
  Hf  Hf36  1  0.39830505  0.79991674  0.00744794  1
  Hf  Hf37  1  0.60874638  0.59562471  0.49647537  1
  Hf  Hf38  1  0.49817391  0.50367882  0.36561330  1
  Hf  Hf39  1  0.39901929  0.79939986  0.23513561  1
  Zr  Zr40  1  0.59680344  0.80761062  0.00125939  1
  Zr  Zr41  1  0.21118281  0.40078661  0.75457898  1
  Zr  Zr42  1  0.71228004  0.11339585  0.87937309  1
  Zr  Zr43  1  0.82493014  0.61270981  -0.00076188  1
  Zr  Zr44  1  0.11962910  0.49631810  0.35607680  1
  Zr  Zr45  1  0.18531382  0.78581964  0.76171949  1
  Zr  Zr46  1  0.68906831  0.31359599  0.61893678  1
  Zr  Zr47  1  -0.01172530  0.80954401  0.25439090  1
  Zr  Zr48  1  0.30019265  0.90019704  0.87986137  1
  Zr  Zr49  1  0.39544008  0.20686844  0.47674623  1
  Zr  Zr50  1  0.40112326  0.00786738  0.48376084  1
  Zr  Zr51  1  0.92309698  0.50638809  0.13610751  1
  Zr  Zr52  1  0.59429476  0.19133000  0.47343981  1
  Zr  Zr53  1  0.19831744  0.60394310  0.49873251  1
  Zr  Zr54  1  0.50204723  0.69980059  0.63552246  1
  Zr  Zr55  1  0.89752753  0.09873864  0.12775320  1
  Zr  Zr56  1  0.48053003  0.11591023  0.87942616  1
  Zr  Zr57  1  0.59158992  0.21211178  0.75663098  1
  Zr  Zr58  1  0.20286277  0.19227989  0.76085261  1
  Zr  Zr59  1  0.40373813  0.60346126  0.50518311  1
  Zr  Zr60  1  0.91545800  0.49867453  0.87588957  1
  Zr  Zr61  1  0.90448218  0.89221040  0.87225372  1
  Zr  Zr62  1  0.69412966  0.90017269  0.87042867  1
  Zr  Zr63  1  0.18212995  0.19269785  -0.00399703  1
  Zr  Zr64  1  0.18121247  0.00793761  0.26656155  1
  Zr  Zr65  1  0.38956650  0.19386059  0.26086240  1
  Zr  Zr66  1  0.81607921  0.61682650  0.25819934  1
  Zr  Zr67  1  0.29593649  0.50591096  0.63131385  1
  Zr  Zr68  1  0.50709256  0.90497591  0.62188666  1
  Zr  Zr69  1  0.69191959  0.10744496  0.12276036  1
  Zr  Zr70  1  0.49934028  0.89038240  0.37630025  1
  Zr  Zr71  1  0.61063894  0.60275628  -0.00774329  1
  Zr  Zr72  1  0.10919399  0.30158092  0.62354649  1
  Zr  Zr73  1  0.91133149  0.51037303  0.62587414  1
  Zr  Zr74  1  0.69016479  0.08932460  0.61710563  1
  Zr  Zr75  1  0.30158177  0.89523315  0.62650916  1
  Zr  Zr76  1  0.89230037  0.88903070  0.61286807  1
  Zr  Zr77  1  0.00704005  0.40434528  0.50224969  1
  Zr  Zr78  1  0.80913217  0.39764704  0.00501172  1
  Zr  Zr79  1  0.80219948  0.20499452  0.73547341  1
  Ta  Ta80  1  0.09952690  0.87820705  0.61957138  1
  Ta  Ta81  1  0.50043817  0.30371364  0.61966352  1
  Ta  Ta82  1  0.09617740  0.68345303  0.62729882  1
  Ta  Ta83  1  0.11142217  0.50109758  0.87525787  1
  Ta  Ta84  1  0.70854250  0.69826824  0.63008530  1
  Ta  Ta85  1  0.00763728  0.60223533  0.48140223  1
  Ta  Ta86  1  0.79920234  0.00641810  -0.00636337  1
  Ta  Ta87  1  0.39369923  0.39887636  0.01013626  1
  Ta  Ta88  1  0.90150463  0.29939823  0.37313777  1
  Ta  Ta89  1  0.60694421  0.39217405  0.25404194  1
  Ta  Ta90  1  0.80133959  -0.00380568  0.25597747  1
  Ta  Ta91  1  0.39362641  0.40281070  0.24077420  1
  Ta  Ta92  1  0.60083114  0.19555815  0.26442700  1
  Ta  Ta93  1  0.19340262  0.80028252  0.00113218  1
  Ta  Ta94  1  0.40746240  0.59552989  -0.00505893  1
  Ta  Ta95  1  0.79817829  0.40618529  0.48724769  1
  Ta  Ta96  1  0.70621216  0.49717466  0.36437687  1
  Ta  Ta97  1  0.69671146  0.91652980  0.39289815  1
  Ta  Ta98  1  0.81001085  0.60759605  0.75382439  1
  Ta  Ta99  1  0.09467937  0.89613592  0.88486533  1
  Ta  Ta100  1  0.31342709  0.48526358  0.87838134  1
  Ta  Ta101  1  0.91315870  0.49281414  0.36209252  1
  Ta  Ta102  1  -0.00004311  0.19229196  0.50845391  1
  Ta  Ta103  1  0.58841404  0.00151511  -0.00620733  1
  Ta  Ta104  1  0.80774738  0.39280143  0.25251429  1
  Ta  Ta105  1  0.21129011  0.40093787  0.49693568  1
  Ta  Ta106  1  0.00449958  0.39703224  0.74500509  1
  Ta  Ta107  1  0.40031594  0.80249027  0.75839939  1
  Ta  Ta108  1  0.00252956  -0.01224836  0.73589202  1
  Ta  Ta109  1  0.00551212  0.00010499  0.51562727  1
  Ta  Ta110  1  0.71624542  0.70224773  0.86735260  1
  Ta  Ta111  1  0.29078722  0.68924927  0.88100439  1
  Ta  Ta112  1  0.19198733  0.79071745  0.24221528  1
  Ta  Ta113  1  0.09410395  0.30464590  0.87327449  1
  Ta  Ta114  1  0.02330219  0.39454252  0.00656060  1
  Ta  Ta115  1  0.01822526  0.61515716  0.26549774  1
  Ta  Ta116  1  0.69648305  0.31641372  0.87650795  1
  Ta  Ta117  1  0.29317585  0.10260806  0.62228154  1
  Ta  Ta118  1  0.70613632  0.29764690  0.12953837  1
  Ta  Ta119  1  0.79328173  0.19939412  0.26386320  1
  Ti  Ti120  1  0.60285641  0.39641142  0.48376695  1
  Ti  Ti121  1  0.49699329  0.30908270  0.36359519  1
  Ti  Ti122  1  0.40476749  0.40503680  0.49310399  1
  Ti  Ti123  1  0.79533832  0.81313022  0.25159570  1
  Ti  Ti124  1  0.59854757  0.00360114  0.25627486  1
  Ti  Ti125  1  0.09913080  0.28849808  0.13813839  1
  Ti  Ti126  1  0.89571126  0.89446568  0.11848261  1
  Ti  Ti127  1  0.30432101  0.28759308  0.89040128  1
  Ti  Ti128  1  0.39124913  0.21285592  0.75274600  1
  Ti  Ti129  1  0.01027799  0.78425981  0.49520814  1
  Ti  Ti130  1  0.09168426  0.89502673  0.38051375  1
  Ti  Ti131  1  0.07942495  0.69751475  0.89166554  1
  Ti  Ti132  1  0.61583154  0.58783354  0.76207002  1
  Ti  Ti133  1  0.29209833  0.68997205  0.12096480  1
  Ti  Ti134  1  0.38956276  0.60169155  0.24056379  1
  Ti  Ti135  1  0.28996562  0.70586524  0.63383841  1
  Ti  Ti136  1  0.29240587  0.31088474  0.36657615  1
  Ti  Ti137  1  0.29149142  0.88895747  0.36953173  1
  Ti  Ti138  1  0.80677544  0.80396026  -0.00312254  1
  Ti  Ti139  1  0.60562088  0.80234596  0.74768927  1
  Ti  Ti140  1  0.30579884  0.49859737  0.36684822  1
  Ti  Ti141  1  0.80795620  0.79671561  0.74677293  1
  Ti  Ti142  1  0.38494917  0.79707301  0.50124987  1
  Ti  Ti143  1  0.39729265  -0.00435400  0.25364813  1
  Ti  Ti144  1  0.49398990  0.09046130  0.12934750  1
  Ti  Ti145  1  0.70779508  0.50425886  0.62357802  1
  Ti  Ti146  1  0.49301032  0.70220622  0.37549240  1
  Ti  Ti147  1  0.90693618  0.70193824  0.62277021  1
  Ti  Ti148  1  0.59605331  0.79618369  0.50501128  1
  Ti  Ti149  1  0.90426288  0.29618032  0.12872255  1
  Ti  Ti150  1  0.69854645  0.89375684  0.61220829  1
  Ti  Ti151  1  0.01259076  0.60613765  0.75523614  1
  Ti  Ti152  1  0.29529850  0.90204197  0.12408276  1
  Ti  Ti153  1  0.48788088  0.32378499  0.87529777  1
  Ti  Ti154  1  0.50107379  0.70435763  0.12240936  1
  Ti  Ti155  1  0.59430216  0.00043742  0.75934366  1
  Ti  Ti156  1  0.08208363  0.09915839  0.87192280  1
  Ti  Ti157  1  0.28591791  0.30781850  0.12287406  1
  Ti  Ti158  1  0.89647469  0.30743499  0.61687969  1
  Ti  Ti159  1  0.59769879  0.81374204  0.24479023  1
  Mo  Mo160  1  0.59934906  0.40667757  0.75898213  1
  Mo  Mo161  1  0.70338549  0.09423579  0.37187647  1
  Mo  Mo162  1  0.50234187  0.49992105  0.87461014  1
  Mo  Mo163  1  -0.00983460  0.79744048  0.00383520  1
  Mo  Mo164  1  0.49733978  0.91341056  0.13264924  1
  Mo  Mo165  1  0.20435416  0.39123989  -0.00804011  1
  Mo  Mo166  1  0.09408770  0.10356024  0.12634234  1
  Mo  Mo167  1  0.10434801  0.08714031  0.62264209  1
  Mo  Mo168  1  0.78828349  0.79064707  0.50952718  1
  Mo  Mo169  1  0.70537412  0.50635670  0.87169349  1
  Mo  Mo170  1  -0.00211633  0.39283611  0.24857569  1
  Mo  Mo171  1  0.50322675  0.08936931  0.35962409  1
  Mo  Mo172  1  0.70245435  0.30568049  0.37049131  1
  Mo  Mo173  1  0.79609035  0.00287372  0.50896625  1
  Mo  Mo174  1  0.19621794  -0.00648133  -0.00396256  1
  Mo  Mo175  1  0.39160263  0.20851985  0.01038441  1
  Mo  Mo176  1  0.59759923  -0.00304412  0.49768988  1
  Mo  Mo177  1  0.21135979  0.60635791  0.24062165  1
  Mo  Mo178  1  0.90710012  0.70375398  0.86583973  1
  Mo  Mo179  1  0.19698511  0.79713417  0.50118908  1
  Mo  Mo180  1  -0.01545035  -0.01377440  0.25420153  1
  Mo  Mo181  1  0.19816956  0.20237034  0.25458788  1
  Mo  Mo182  1  0.28510550  0.10236565  0.88112199  1
  Mo  Mo183  1  0.80004592  0.20389284  0.00542602  1
  Mo  Mo184  1  0.09965402  0.50444234  0.63107593  1
  Mo  Mo185  1  0.40912634  0.38883705  0.75317751  1
  Mo  Mo186  1  0.50142869  0.90367931  0.86684850  1
  Mo  Mo187  1  0.10532384  0.71092231  0.37143354  1
  Mo  Mo188  1  0.90526440  0.70011312  0.38076127  1
  Mo  Mo189  1  -0.00234861  0.79325371  0.74485798  1
  Mo  Mo190  1  0.00792509  0.59156426  -0.00207663  1
  Mo  Mo191  1  0.90052687  0.09909829  0.61221910  1
  Mo  Mo192  1  0.21229135  0.38856461  0.24844976  1
  Mo  Mo193  1  0.19821609  0.60031492  0.76378477  1
  Mo  Mo194  1  0.29378374  0.09476627  0.36436400  1
  Mo  Mo195  1  0.31077914  0.49871582  0.12169333  1
  Mo  Mo196  1  0.90485588  0.09312772  0.87443050  1
  Mo  Mo197  1  0.08981566  0.09121989  0.38578083  1
  Mo  Mo198  1  -0.00948553  0.21085206  0.00701750  1
  Mo  Mo199  1  0.90012664  0.71310705  0.12538941  1
