# generated using pymatgen
data_HfZrTaTiMo
_symmetry_space_group_name_H-M   'P 1'
_cell_length_a   15.17270241
_cell_length_b   15.16100236
_cell_length_c   16.82176051
_cell_angle_alpha   90.06171418
_cell_angle_beta   89.99138053
_cell_angle_gamma   90.07760105
_symmetry_Int_Tables_number   1
_chemical_formula_structural   HfZrTaTiMo
_chemical_formula_sum   'Hf40 Zr40 Ta40 Ti40 Mo40'
_cell_volume   3869.56054161
_cell_formula_units_Z   40
loop_
 _symmetry_equiv_pos_site_id
 _symmetry_equiv_pos_as_xyz
  1  'x, y, z'
loop_
 _atom_site_type_symbol
 _atom_site_label
 _atom_site_symmetry_multiplicity
 _atom_site_fract_x
 _atom_site_fract_y
 _atom_site_fract_z
 _atom_site_occupancy
  Hf  Hf0  1  0.39066425  0.19312896  0.74842079  1
  Hf  Hf1  1  0.39169657  0.62793157  0.24754171  1
  Hf  Hf2  1  0.11783525  0.89616977  0.36900989  1
  Hf  Hf3  1  0.09793681  0.89189974  0.14035015  1
  Hf  Hf4  1  0.69158111  0.11210715  0.87909664  1
  Hf  Hf5  1  0.49762473  0.70622817  0.87522772  1
  Hf  Hf6  1  0.08951094  0.10067944  0.36478844  1
  Hf  Hf7  1  0.87992580  0.10111080  0.13209751  1
  Hf  Hf8  1  0.90250751  0.89982275  0.62286451  1
  Hf  Hf9  1  0.50580163  0.50100370  0.63098984  1
  Hf  Hf10  1  0.40914202  0.81851392  0.50598541  1
  Hf  Hf11  1  0.21161613  0.41067377  0.49419412  1
  Hf  Hf12  1  0.79816217  -0.00579053  0.76176110  1
  Hf  Hf13  1  0.90437965  0.88032310  0.87370662  1
  Hf  Hf14  1  0.49260891  0.50393514  0.36025796  1
  Hf  Hf15  1  -0.00699237  0.40036415  -0.00847702  1
  Hf  Hf16  1  -0.00040327  0.19317186  0.76396879  1
  Hf  Hf17  1  0.29830140  0.49965768  0.86916392  1
  Hf  Hf18  1  0.69434845  0.90453941  0.11431967  1
  Hf  Hf19  1  0.30025004  0.87951544  0.14234178  1
  Hf  Hf20  1  0.48696672  0.11027951  0.88392874  1
  Hf  Hf21  1  0.19537947  0.18943438  0.01408557  1
  Hf  Hf22  1  0.80160463  0.82187015  0.25152242  1
  Hf  Hf23  1  -0.00646432  0.60087539  0.72912493  1
  Hf  Hf24  1  0.11173876  0.30797695  0.62745908  1
  Hf  Hf25  1  0.30311735  0.71667771  0.38613503  1
  Hf  Hf26  1  0.89753153  0.67671800  0.87458268  1
  Hf  Hf27  1  0.40881773  0.39979584  0.00182508  1
  Hf  Hf28  1  0.80109301  0.00646911  -0.00964622  1
  Hf  Hf29  1  0.69734578  0.30838954  0.62329505  1
  Hf  Hf30  1  -0.00165440  -0.00410482  0.00557587  1
  Hf  Hf31  1  0.39583091  0.21888802  0.49768961  1
  Hf  Hf32  1  0.79361192  0.19957985  0.75608663  1
  Hf  Hf33  1  0.40249999  0.61109216  0.74893246  1
  Hf  Hf34  1  0.90354826  0.48144171  0.61445436  1
  Hf  Hf35  1  0.00920708  0.40023001  0.75968680  1
  Hf  Hf36  1  0.39199002  -0.01724084  0.74482463  1
  Hf  Hf37  1  0.58709388  0.80687609  0.75026445  1
  Hf  Hf38  1  0.70362473  0.50898820  0.36022286  1
  Hf  Hf39  1  0.59873386  -0.01762885  0.25063274  1
  Zr  Zr40  1  0.59862029  0.19924153  0.49449808  1
  Zr  Zr41  1  0.30413456  0.29035405  0.88816166  1
  Zr  Zr42  1  0.81114867  0.20187150  0.49236883  1
  Zr  Zr43  1  0.61689662  0.61134093  0.00365735  1
  Zr  Zr44  1  0.79680061  0.78486151  0.73816605  1
  Zr  Zr45  1  0.09929264  0.50720837  0.88171361  1
  Zr  Zr46  1  0.19000808  0.60034737  0.73064479  1
  Zr  Zr47  1  0.60350834  0.60829676  0.49860617  1
  Zr  Zr48  1  0.38678991  -0.00511939  0.00803636  1
  Zr  Zr49  1  0.82250495  0.40299657  0.25553619  1
  Zr  Zr50  1  0.10259706  0.49138054  0.11789269  1
  Zr  Zr51  1  0.12446740  0.69232802  0.13817279  1
  Zr  Zr52  1  0.80238916  -0.00827769  0.49177107  1
  Zr  Zr53  1  0.41115830  0.59803119  -0.00017149  1
  Zr  Zr54  1  0.90480002  0.28683663  0.62497839  1
  Zr  Zr55  1  0.90331666  0.68807969  0.38651971  1
  Zr  Zr56  1  0.69954681  0.09778183  0.62510060  1
  Zr  Zr57  1  0.10632124  0.71249695  0.87208928  1
  Zr  Zr58  1  -0.02226940  -0.01308514  0.25050999  1
  Zr  Zr59  1  0.80223772  0.78766099  0.00905036  1
  Zr  Zr60  1  0.58847993  -0.02037775  0.49348957  1
  Zr  Zr61  1  0.50799686  0.30652093  0.14271208  1
  Zr  Zr62  1  0.11108638  0.68339519  0.38828446  1
  Zr  Zr63  1  0.30463974  0.47249426  0.63711718  1
  Zr  Zr64  1  0.49190981  0.10291023  0.36640475  1
  Zr  Zr65  1  0.79636190  0.40153234  0.00704792  1
  Zr  Zr66  1  0.58826572  0.39875446  0.48652244  1
  Zr  Zr67  1  0.60968538  0.40971042  0.00645240  1
  Zr  Zr68  1  0.19163431  0.20313318  0.49475212  1
  Zr  Zr69  1  0.11246567  0.90423015  0.87186984  1
  Zr  Zr70  1  0.51944367  0.51702026  0.14560922  1
  Zr  Zr71  1  0.50193923  0.08966454  0.12908522  1
  Zr  Zr72  1  0.28939499  0.09429266  0.36510078  1
  Zr  Zr73  1  0.30637876  0.31189771  0.35926404  1
  Zr  Zr74  1  -0.00023394  0.00031264  0.75482856  1
  Zr  Zr75  1  0.78547525  0.79443616  0.50404178  1
  Zr  Zr76  1  0.70490487  0.09252491  0.36477258  1
  Zr  Zr77  1  -0.00035197  0.78236293  0.26191990  1
  Zr  Zr78  1  0.59314364  0.00899489  0.75229776  1
  Zr  Zr79  1  0.28654162  0.31337912  0.12229607  1
  Ta  Ta80  1  0.30531245  0.70116619  0.61307263  1
  Ta  Ta81  1  0.01025630  0.79110013  0.72932823  1
  Ta  Ta82  1  0.19893120  0.00780693  0.73976071  1
  Ta  Ta83  1  0.21327268  0.61949915  -0.00467259  1
  Ta  Ta84  1  0.70308987  0.49765983  0.62371158  1
  Ta  Ta85  1  0.19533683  0.20013289  0.75233068  1
  Ta  Ta86  1  0.48792856  0.30791480  0.62601377  1
  Ta  Ta87  1  0.29056483  0.10354553  0.61961521  1
  Ta  Ta88  1  0.00372944  0.38628457  0.49133943  1
  Ta  Ta89  1  0.81033936  0.60971724  0.24657548  1
  Ta  Ta90  1  0.28411421  0.08448812  0.87766586  1
  Ta  Ta91  1  -0.00244091  0.60511328  0.00616714  1
  Ta  Ta92  1  0.19089438  0.20307025  0.23827203  1
  Ta  Ta93  1  0.39978265  0.19563315  0.01767659  1
  Ta  Ta94  1  0.79995861  0.40202345  0.48167185  1
  Ta  Ta95  1  -0.01136822  0.19555589  -0.00277997  1
  Ta  Ta96  1  0.89274153  0.29682288  0.87753450  1
  Ta  Ta97  1  0.61201808  0.60577833  0.74716572  1
  Ta  Ta98  1  0.38222688  0.79105287  -0.00140198  1
  Ta  Ta99  1  0.80338703  0.59530850  0.50815320  1
  Ta  Ta100  1  0.10835243  0.29952679  0.88565061  1
  Ta  Ta101  1  0.49323443  0.89991217  0.88704338  1
  Ta  Ta102  1  0.51487921  0.49582092  0.86624747  1
  Ta  Ta103  1  0.39107219  0.19623167  0.23441513  1
  Ta  Ta104  1  0.70099398  0.29788117  0.35715018  1
  Ta  Ta105  1  0.09082335  0.10333755  0.61819608  1
  Ta  Ta106  1  0.60027856  0.20930985  0.01033285  1
  Ta  Ta107  1  0.68736863  0.89342157  0.88619898  1
  Ta  Ta108  1  0.69759179  0.70605306  0.36566279  1
  Ta  Ta109  1  0.71483961  0.51294253  0.86864780  1
  Ta  Ta110  1  0.29357160  0.51546593  0.12494478  1
  Ta  Ta111  1  0.21348032  0.80722179  0.72892767  1
  Ta  Ta112  1  0.90951765  0.69815589  0.13015658  1
  Ta  Ta113  1  0.39541494  0.59040483  0.50253106  1
  Ta  Ta114  1  0.09867003  0.30059081  0.36527491  1
  Ta  Ta115  1  0.19781525  -0.00971871  0.01517522  1
  Ta  Ta116  1  0.50607592  0.71143661  0.62202231  1
  Ta  Ta117  1  0.80337295  0.40473464  0.75742229  1
  Ta  Ta118  1  0.49081776  0.10229921  0.62053377  1
  Ta  Ta119  1  0.58543492  0.21592400  0.74946029  1
  Ti  Ti120  1  0.00319515  0.57704053  0.25579989  1
  Ti  Ti121  1  0.60988058  0.19273659  0.24221582  1
  Ti  Ti122  1  0.39096273  0.41244432  0.24040655  1
  Ti  Ti123  1  0.69716456  0.69354462  0.13924971  1
  Ti  Ti124  1  0.29788519  0.88261840  0.87265973  1
  Ti  Ti125  1  0.19053465  0.41071256  0.25204427  1
  Ti  Ti126  1  0.39136163  0.00612351  0.49972350  1
  Ti  Ti127  1  0.01020218  0.79468515  0.00932778  1
  Ti  Ti128  1  0.89688833  0.09989884  0.36359078  1
  Ti  Ti129  1  -0.00749609  0.20856574  0.24385605  1
  Ti  Ti130  1  0.39585808  -0.00924574  0.24883003  1
  Ti  Ti131  1  0.01330347  0.58952422  0.51557622  1
  Ti  Ti132  1  -0.00077703  0.80218731  0.50275365  1
  Ti  Ti133  1  0.71058311  0.29796005  0.14345300  1
  Ti  Ti134  1  0.49865993  0.72291695  0.12299959  1
  Ti  Ti135  1  0.00037602  0.00379018  0.49156569  1
  Ti  Ti136  1  0.29047468  0.51668603  0.37070872  1
  Ti  Ti137  1  0.90574611  0.49916720  0.12979237  1
  Ti  Ti138  1  0.60560935  0.40376632  0.75303574  1
  Ti  Ti139  1  0.09255111  0.09798436  0.13429750  1
  Ti  Ti140  1  0.80224066  0.59559156  0.73165733  1
  Ti  Ti141  1  0.90263755  0.09629099  0.62124401  1
  Ti  Ti142  1  0.20191862  -0.00442574  0.50247304  1
  Ti  Ti143  1  0.50206921  0.30406109  0.34927417  1
  Ti  Ti144  1  0.10161124  0.90736520  0.61853331  1
  Ti  Ti145  1  0.68239571  0.88979156  0.62453857  1
  Ti  Ti146  1  0.79297989  0.20692448  0.00074337  1
  Ti  Ti147  1  0.10059964  0.10038088  0.88397816  1
  Ti  Ti148  1  0.08925195  0.30078233  0.12127019  1
  Ti  Ti149  1  0.09398988  0.49496401  0.37699853  1
  Ti  Ti150  1  0.50458461  0.70912687  0.37890024  1
  Ti  Ti151  1  0.41057139  0.38497248  0.76503751  1
  Ti  Ti152  1  0.59492871  0.00565195  0.00051036  1
  Ti  Ti153  1  0.70147327  0.70449463  0.87570618  1
  Ti  Ti154  1  0.80590242  0.59022346  0.01432925  1
  Ti  Ti155  1  0.59104210  0.79671566  0.25075619  1
  Ti  Ti156  1  0.68732842  0.31091371  0.87484056  1
  Ti  Ti157  1  0.20067334  0.80581401  0.51301430  1
  Ti  Ti158  1  0.90915717  0.29579232  0.37112083  1
  Ti  Ti159  1  0.90337743  0.29982011  0.12614892  1
  Mo  Mo160  1  0.60671116  0.39912468  0.25648478  1
  Mo  Mo161  1  0.29587610  0.70751138  0.86702248  1
  Mo  Mo162  1  0.10224037  0.70877299  0.60865794  1
  Mo  Mo163  1  -0.00048910  0.19517703  0.49145185  1
  Mo  Mo164  1  0.39462791  0.79842164  0.74069183  1
  Mo  Mo165  1  0.79095689  0.00197751  0.24862292  1
  Mo  Mo166  1  0.59920429  0.79714522  0.49774439  1
  Mo  Mo167  1  0.50121235  0.89187997  0.11209847  1
  Mo  Mo168  1  0.89836203  0.10448543  0.88572947  1
  Mo  Mo169  1  0.21793623  0.78960274  0.26292704  1
  Mo  Mo170  1  0.20480018  0.38458785  0.75849859  1
  Mo  Mo171  1  0.50882572  0.30002493  0.87954099  1
  Mo  Mo172  1  0.89614885  0.50072570  0.87296850  1
  Mo  Mo173  1  0.90292078  0.69501893  0.61019249  1
  Mo  Mo174  1  0.20216764  0.40760144  -0.00005801  1
  Mo  Mo175  1  0.59103419  0.80432734  -0.00182294  1
  Mo  Mo176  1  0.69312087  0.88798628  0.37042821  1
  Mo  Mo177  1  0.01012582  0.39170862  0.25208099  1
  Mo  Mo178  1  0.19685282  0.00377878  0.23952446  1
  Mo  Mo179  1  0.20514198  0.59989186  0.51496941  1
  Mo  Mo180  1  0.30461450  0.90826912  0.37064657  1
  Mo  Mo181  1  0.30594930  0.29249406  0.63040352  1
  Mo  Mo182  1  0.30789853  0.69730165  0.12564681  1
  Mo  Mo183  1  0.80476875  0.20081890  0.25179882  1
  Mo  Mo184  1  0.89904562  0.89088206  0.11549853  1
  Mo  Mo185  1  0.28954547  0.09391074  0.13803121  1
  Mo  Mo186  1  0.49182667  0.89634256  0.37144246  1
  Mo  Mo187  1  0.10130625  0.49383602  0.61860300  1
  Mo  Mo188  1  0.40602552  0.40675531  0.49306649  1
  Mo  Mo189  1  0.41642269  0.81121716  0.25790039  1
  Mo  Mo190  1  0.69446678  0.69116663  0.62740598  1
  Mo  Mo191  1  0.71552968  0.50902662  0.14658429  1
  Mo  Mo192  1  0.91226367  0.49782075  0.38838355  1
  Mo  Mo193  1  0.49655954  0.90834827  0.62485920  1
  Mo  Mo194  1  0.60233552  0.61516483  0.25361662  1
  Mo  Mo195  1  0.29344047  0.91015563  0.61812003  1
  Mo  Mo196  1  0.69473891  0.11060671  0.11904827  1
  Mo  Mo197  1  0.20083407  0.59149332  0.25750938  1
  Mo  Mo198  1  0.20207527  0.80622455  0.00059207  1
  Mo  Mo199  1  0.90565148  0.90601430  0.38746961  1
