# generated using pymatgen
data_HfZrTaTiMo
_symmetry_space_group_name_H-M   'P 1'
_cell_length_a   15.21158124
_cell_length_b   15.21139005
_cell_length_c   16.83254867
_cell_angle_alpha   89.97436735
_cell_angle_beta   90.03233546
_cell_angle_gamma   89.99090383
_symmetry_Int_Tables_number   1
_chemical_formula_structural   HfZrTaTiMo
_chemical_formula_sum   'Hf40 Zr40 Ta40 Ti40 Mo40'
_cell_volume   3894.87052018
_cell_formula_units_Z   40
loop_
 _symmetry_equiv_pos_site_id
 _symmetry_equiv_pos_as_xyz
  1  'x, y, z'
loop_
 _atom_site_type_symbol
 _atom_site_label
 _atom_site_symmetry_multiplicity
 _atom_site_fract_x
 _atom_site_fract_y
 _atom_site_fract_z
 _atom_site_occupancy
  Hf  Hf0  1  0.19749482  -0.00747847  0.51055546  1
  Hf  Hf1  1  0.88385710  0.09853336  0.88822527  1
  Hf  Hf2  1  0.29561083  0.50620046  0.61352709  1
  Hf  Hf3  1  0.40967002  -0.00957047  0.75887059  1
  Hf  Hf4  1  0.70528844  0.49607847  0.87401196  1
  Hf  Hf5  1  0.00806182  0.40658217  0.00550563  1
  Hf  Hf6  1  0.10720670  0.70970550  0.61499328  1
  Hf  Hf7  1  0.79291324  0.39447482  0.25795796  1
  Hf  Hf8  1  0.38830032  0.40214740  0.74284004  1
  Hf  Hf9  1  0.41286333  0.61339138  0.50329124  1
  Hf  Hf10  1  0.09863093  0.69573479  0.13341032  1
  Hf  Hf11  1  0.00308508  0.39100357  0.48289938  1
  Hf  Hf12  1  0.79177772  0.19174444  0.25945524  1
  Hf  Hf13  1  0.80286698  0.60462685  0.48815297  1
  Hf  Hf14  1  0.90840351  0.08370853  0.61428202  1
  Hf  Hf15  1  0.30291086  0.09803703  0.38593195  1
  Hf  Hf16  1  0.59812811  0.21073762  0.49699865  1
  Hf  Hf17  1  0.29897885  0.51350481  0.87700308  1
  Hf  Hf18  1  0.60641876  0.00920448  0.23965324  1
  Hf  Hf19  1  0.70017497  0.08382712  0.62057385  1
  Hf  Hf20  1  0.61106545  0.61600527  0.75343562  1
  Hf  Hf21  1  -0.00184626  0.79143219  0.00023083  1
  Hf  Hf22  1  0.49960260  0.72434546  0.87280685  1
  Hf  Hf23  1  0.66822901  0.71224304  0.37047173  1
  Hf  Hf24  1  0.09638477  0.10061749  0.11893095  1
  Hf  Hf25  1  0.50897592  0.49401351  0.11772251  1
  Hf  Hf26  1  0.67921217  0.49011341  0.37868520  1
  Hf  Hf27  1  0.79899959  0.60463736  0.26404566  1
  Hf  Hf28  1  0.29548822  0.71331729  0.87372003  1
  Hf  Hf29  1  -0.01122666  0.79308231  0.74919165  1
  Hf  Hf30  1  0.71181532  0.28938128  0.86597744  1
  Hf  Hf31  1  0.30524731  0.10270700  0.62389736  1
  Hf  Hf32  1  0.50906683  0.88789784  0.37442310  1
  Hf  Hf33  1  0.19966567  -0.01096179  0.74838155  1
  Hf  Hf34  1  0.78284087  0.80187262  0.48698828  1
  Hf  Hf35  1  0.88810103  0.89012386  0.61602160  1
  Hf  Hf36  1  0.10091269  0.88948331  0.87252552  1
  Hf  Hf37  1  0.80397161  -0.00790410  0.25262153  1
  Hf  Hf38  1  0.30577663  0.50764745  0.12132744  1
  Hf  Hf39  1  0.01074800  0.19449394  0.48380111  1
  Zr  Zr40  1  0.41818674  0.39275821  -0.00598184  1
  Zr  Zr41  1  0.80103106  0.38711443  0.00232830  1
  Zr  Zr42  1  0.91180304  0.50573769  0.87917156  1
  Zr  Zr43  1  0.30041184  0.31044607  0.38148049  1
  Zr  Zr44  1  0.09425207  0.90183268  0.12554062  1
  Zr  Zr45  1  0.89798865  0.29088626  0.13588294  1
  Zr  Zr46  1  0.49441957  0.11354218  0.11707209  1
  Zr  Zr47  1  0.09003798  0.31015208  0.87073845  1
  Zr  Zr48  1  0.79621269  0.80385164  0.25037693  1
  Zr  Zr49  1  0.39978379  0.18910179  0.76148538  1
  Zr  Zr50  1  0.19917270  0.19428522  0.25362464  1
  Zr  Zr51  1  0.18696254  0.60381748  0.00331755  1
  Zr  Zr52  1  0.49838035  0.50757190  0.86289525  1
  Zr  Zr53  1  0.90129897  0.50858617  0.12985050  1
  Zr  Zr54  1  0.80393728  0.19765612  0.48347871  1
  Zr  Zr55  1  0.31179670  0.29528514  0.12300413  1
  Zr  Zr56  1  0.00427126  0.59989949  0.27277729  1
  Zr  Zr57  1  0.19800866  0.20105737  -0.00427195  1
  Zr  Zr58  1  0.41679325  0.40575731  0.25480424  1
  Zr  Zr59  1  0.58670462  0.60271260  0.24345995  1
  Zr  Zr60  1  0.71035730  0.50405931  0.62445691  1
  Zr  Zr61  1  0.59611727  0.60079110  -0.00380261  1
  Zr  Zr62  1  0.71343377  0.70903806  0.89015753  1
  Zr  Zr63  1  0.30162794  0.89779752  0.12790513  1
  Zr  Zr64  1  0.82018106  0.60913423  0.74095421  1
  Zr  Zr65  1  0.90421944  0.29980658  0.61953574  1
  Zr  Zr66  1  0.51122372  0.49995602  0.63542168  1
  Zr  Zr67  1  0.29775735  0.89379131  0.37311787  1
  Zr  Zr68  1  0.89844270  0.08310722  0.11547257  1
  Zr  Zr69  1  0.80217714  0.18285642  0.74668325  1
  Zr  Zr70  1  0.79136846  0.38970056  0.48817810  1
  Zr  Zr71  1  0.19967545  0.20226798  0.74869902  1
  Zr  Zr72  1  0.40412376  -0.00339259  0.25042770  1
  Zr  Zr73  1  0.41190955  -0.00393372  0.50890720  1
  Zr  Zr74  1  0.70277548  0.69590632  0.11536050  1
  Zr  Zr75  1  0.29777026  0.30808264  0.87620818  1
  Zr  Zr76  1  0.40824142  0.20174797  0.25766447  1
  Zr  Zr77  1  0.68872548  0.30053283  0.64047875  1
  Zr  Zr78  1  0.20959306  0.60312169  0.26240294  1
  Zr  Zr79  1  -0.00202754  0.20114697  0.75255443  1
  Ta  Ta80  1  0.90740361  0.89511498  0.38469545  1
  Ta  Ta81  1  0.09812407  0.30195994  0.13225317  1
  Ta  Ta82  1  0.81672150  0.39856443  0.75162288  1
  Ta  Ta83  1  0.09506694  0.69044204  0.86698096  1
  Ta  Ta84  1  0.58424280  -0.00659305  0.00480210  1
  Ta  Ta85  1  0.11817702  0.49140632  0.38775652  1
  Ta  Ta86  1  0.68247434  0.89920735  0.88382322  1
  Ta  Ta87  1  0.30896788  0.50439935  0.39053603  1
  Ta  Ta88  1  0.09226242  0.09281025  0.88140734  1
  Ta  Ta89  1  0.69332848  0.71861590  0.62311187  1
  Ta  Ta90  1  -0.01157824  0.20668989  -0.00611458  1
  Ta  Ta91  1  0.70168046  0.10937871  0.10755795  1
  Ta  Ta92  1  0.41038808  0.39241272  0.50943467  1
  Ta  Ta93  1  -0.00421292  0.79855980  0.26063829  1
  Ta  Ta94  1  0.38610780  0.80306027  0.52045176  1
  Ta  Ta95  1  0.00063935  0.19187460  0.26462877  1
  Ta  Ta96  1  -0.01071844  -0.00355422  0.75679814  1
  Ta  Ta97  1  0.18769113  0.41658007  0.73756245  1
  Ta  Ta98  1  0.50765688  0.10366884  0.37984928  1
  Ta  Ta99  1  0.51743807  0.29984942  0.85469422  1
  Ta  Ta100  1  0.30587945  0.70336723  0.12005157  1
  Ta  Ta101  1  0.01656193  0.59124719  0.73784032  1
  Ta  Ta102  1  0.79572550  -0.00494904  0.48466993  1
  Ta  Ta103  1  0.59788310  0.21474067  -0.00642342  1
  Ta  Ta104  1  0.08620022  0.90372184  0.62105806  1
  Ta  Ta105  1  0.20289611  -0.00754784  -0.00876763  1
  Ta  Ta106  1  0.09620389  0.50622843  0.60249150  1
  Ta  Ta107  1  0.10947813  0.30807143  0.61989722  1
  Ta  Ta108  1  0.20376235  0.20958075  0.50409172  1
  Ta  Ta109  1  0.29657547  0.09203000  0.11416416  1
  Ta  Ta110  1  0.78984767  -0.01659101  0.75514092  1
  Ta  Ta111  1  0.49691245  0.29258791  0.64124579  1
  Ta  Ta112  1  0.10615497  0.50561863  0.87008512  1
  Ta  Ta113  1  0.51337826  0.89691322  0.63702497  1
  Ta  Ta114  1  0.88376040  0.89313126  0.87650664  1
  Ta  Ta115  1  0.10128717  0.49298751  0.13791407  1
  Ta  Ta116  1  0.20601710  0.61519510  0.49173780  1
  Ta  Ta117  1  0.51221987  0.09919897  0.62995323  1
  Ta  Ta118  1  0.19966653  0.40354658  0.00821220  1
  Ta  Ta119  1  0.59236065  0.81294328  0.22519606  1
  Ti  Ti120  1  0.60176057  0.60604482  0.50648406  1
  Ti  Ti121  1  0.69193785  0.09239717  0.37865016  1
  Ti  Ti122  1  0.70278146  0.49467448  0.11924266  1
  Ti  Ti123  1  0.30676256  0.70862764  0.37918446  1
  Ti  Ti124  1  0.59745077  0.21729104  0.25755853  1
  Ti  Ti125  1  0.68583476  0.09218763  0.88475014  1
  Ti  Ti126  1  0.00997811  0.38892455  0.26837974  1
  Ti  Ti127  1  0.48853552  0.70579308  0.10848167  1
  Ti  Ti128  1  0.19583809  0.79847348  0.25537630  1
  Ti  Ti129  1  0.60626435  -0.01360982  0.49828715  1
  Ti  Ti130  1  0.40627603  0.20406002  0.50427965  1
  Ti  Ti131  1  0.10448650  0.08639281  0.37791933  1
  Ti  Ti132  1  0.20360944  0.40039968  0.25188675  1
  Ti  Ti133  1  0.49368318  0.70363504  0.64397077  1
  Ti  Ti134  1  0.00142978  0.40685530  0.74090091  1
  Ti  Ti135  1  0.90525321  0.69537043  0.61044134  1
  Ti  Ti136  1  0.49725815  0.50374146  0.38436504  1
  Ti  Ti137  1  0.40057850  0.60680467  0.25828988  1
  Ti  Ti138  1  0.90284636  0.69623370  0.88426329  1
  Ti  Ti139  1  0.09643650  0.10061677  0.62296937  1
  Ti  Ti140  1  0.68185977  0.30331688  0.12435318  1
  Ti  Ti141  1  -0.00876928  -0.01136372  -0.00603805  1
  Ti  Ti142  1  0.09766017  0.89109063  0.38620518  1
  Ti  Ti143  1  0.00141256  -0.00959361  0.25336914  1
  Ti  Ti144  1  0.00337103  0.61059175  0.47923307  1
  Ti  Ti145  1  0.20755328  0.61025725  0.74152270  1
  Ti  Ti146  1  0.57870525  0.79493252  0.50795018  1
  Ti  Ti147  1  0.90141075  0.70108725  0.12337108  1
  Ti  Ti148  1  0.20284940  0.80203474  0.00059841  1
  Ti  Ti149  1  0.90984594  0.50077287  0.61226678  1
  Ti  Ti150  1  0.40551222  0.79092005  0.24516585  1
  Ti  Ti151  1  0.40720079  0.82363292  -0.00298132  1
  Ti  Ti152  1  0.29859326  0.08408165  0.88028047  1
  Ti  Ti153  1  0.78435999  0.79891936  0.74945775  1
  Ti  Ti154  1  0.40595012  0.19016960  -0.01770909  1
  Ti  Ti155  1  0.90088981  0.49403526  0.37544918  1
  Ti  Ti156  1  0.38091737  0.80267051  0.74153682  1
  Ti  Ti157  1  0.19634170  -0.00385555  0.25247184  1
  Ti  Ti158  1  0.90749141  0.08846156  0.37558084  1
  Ti  Ti159  1  0.79941056  0.81715765  0.01516362  1
  Mo  Mo160  1  0.49641228  0.89912248  0.12424858  1
  Mo  Mo161  1  0.81337478  0.60526696  0.00590463  1
  Mo  Mo162  1  0.59679298  0.81193981  0.01697324  1
  Mo  Mo163  1  0.49901678  0.90392407  0.87136376  1
  Mo  Mo164  1  0.60674211  0.39574006  -0.00648032  1
  Mo  Mo165  1  0.20322449  0.40276389  0.50401983  1
  Mo  Mo166  1  0.70249785  0.91419216  0.11306038  1
  Mo  Mo167  1  0.39530981  0.61563560  0.00234093  1
  Mo  Mo168  1  0.60506713  0.00301548  0.75616512  1
  Mo  Mo169  1  0.39306004  0.00353280  -0.00842224  1
  Mo  Mo170  1  0.00057737  -0.00396696  0.49568831  1
  Mo  Mo171  1  0.19986807  0.80010875  0.49771389  1
  Mo  Mo172  1  0.59997021  0.81247458  0.74996298  1
  Mo  Mo173  1  0.79403162  0.19531772  0.00115629  1
  Mo  Mo174  1  0.10807592  0.29573040  0.36765351  1
  Mo  Mo175  1  0.39554262  0.61188793  0.74286440  1
  Mo  Mo176  1  0.60211873  0.39846044  0.24683980  1
  Mo  Mo177  1  0.30137450  0.70140291  0.63048507  1
  Mo  Mo178  1  0.48665490  0.70269378  0.37590544  1
  Mo  Mo179  1  0.18985361  0.79937749  0.74768266  1
  Mo  Mo180  1  0.69601268  0.89866685  0.62413032  1
  Mo  Mo181  1  0.30144611  0.89490150  0.87816527  1
  Mo  Mo182  1  0.89967337  0.70235709  0.38039935  1
  Mo  Mo183  1  0.69225856  0.90716751  0.37071980  1
  Mo  Mo184  1  0.68875187  0.29350858  0.36976518  1
  Mo  Mo185  1  0.51125679  0.29785060  0.12099395  1
  Mo  Mo186  1  0.90489700  0.89142147  0.12742755  1
  Mo  Mo187  1  0.90083696  0.30210886  0.87320338  1
  Mo  Mo188  1  0.78945641  -0.00750938  -0.00293609  1
  Mo  Mo189  1  0.58786558  0.40190404  0.50384272  1
  Mo  Mo190  1  0.59826850  0.18292067  0.75506277  1
  Mo  Mo191  1  0.60666190  0.39678469  0.75181562  1
  Mo  Mo192  1  0.10764193  0.70924564  0.38236787  1
  Mo  Mo193  1  0.00012131  0.60201714  0.00488423  1
  Mo  Mo194  1  0.30114013  0.30014575  0.61854142  1
  Mo  Mo195  1  0.29473227  0.89111285  0.62985906  1
  Mo  Mo196  1  0.50633068  0.09742927  0.88574190  1
  Mo  Mo197  1  0.51136198  0.31268334  0.38350713  1
  Mo  Mo198  1  0.90443883  0.29439861  0.35964751  1
  Mo  Mo199  1  -0.00373892  0.79724848  0.49506121  1
