# generated using pymatgen
data_HfZrTaTiMo
_symmetry_space_group_name_H-M   'P 1'
_cell_length_a   15.20381566
_cell_length_b   15.20791438
_cell_length_c   16.86332327
_cell_angle_alpha   90.03683945
_cell_angle_beta   89.97534159
_cell_angle_gamma   89.91241593
_symmetry_Int_Tables_number   1
_chemical_formula_structural   HfZrTaTiMo
_chemical_formula_sum   'Hf40 Zr40 Ta40 Ti40 Mo40'
_cell_volume   3899.10366858
_cell_formula_units_Z   40
loop_
 _symmetry_equiv_pos_site_id
 _symmetry_equiv_pos_as_xyz
  1  'x, y, z'
loop_
 _atom_site_type_symbol
 _atom_site_label
 _atom_site_symmetry_multiplicity
 _atom_site_fract_x
 _atom_site_fract_y
 _atom_site_fract_z
 _atom_site_occupancy
  Hf  Hf0  1  0.01082057  0.60037640  0.24428394  1
  Hf  Hf1  1  0.19549347  0.39318050  -0.00777370  1
  Hf  Hf2  1  0.90837294  0.30756301  0.38023381  1
  Hf  Hf3  1  0.08322925  0.89264918  0.13048605  1
  Hf  Hf4  1  0.09254131  0.90554585  0.87517056  1
  Hf  Hf5  1  0.69411397  0.10693835  0.63141115  1
  Hf  Hf6  1  0.68888864  0.49426057  0.12653543  1
  Hf  Hf7  1  0.90856524  0.29703583  0.88483638  1
  Hf  Hf8  1  0.18937181  0.40915008  0.23757692  1
  Hf  Hf9  1  0.09583830  0.10813016  0.12776531  1
  Hf  Hf10  1  0.28782637  0.49094563  0.64615185  1
  Hf  Hf11  1  0.50336210  0.88957343  0.36136247  1
  Hf  Hf12  1  0.31792668  0.28552137  0.88282867  1
  Hf  Hf13  1  0.70270580  0.89268440  0.87344975  1
  Hf  Hf14  1  0.18458022  0.58232163  0.51549411  1
  Hf  Hf15  1  0.21653703  0.20937074  0.49929914  1
  Hf  Hf16  1  0.49182337  0.10607738  0.88324824  1
  Hf  Hf17  1  0.28462333  0.50633438  0.37877353  1
  Hf  Hf18  1  0.30560432  0.29080866  0.12491913  1
  Hf  Hf19  1  0.29918747  0.50678997  0.11257202  1
  Hf  Hf20  1  0.39478155  0.01006741  0.74697839  1
  Hf  Hf21  1  0.61810824  0.19842000  0.25466950  1
  Hf  Hf22  1  0.60046720  0.78483639  0.73527396  1
  Hf  Hf23  1  0.88355179  0.50784552  0.87410153  1
  Hf  Hf24  1  0.80374557  0.18080590  -0.00910757  1
  Hf  Hf25  1  0.50270810  0.89240197  0.13691776  1
  Hf  Hf26  1  0.61292863  0.39793743  0.73272950  1
  Hf  Hf27  1  0.30329094  0.90515450  0.88072666  1
  Hf  Hf28  1  0.80581634  0.22099805  0.74221047  1
  Hf  Hf29  1  0.80624368  0.79084023  0.51299813  1
  Hf  Hf30  1  0.08861994  0.89872681  0.62735985  1
  Hf  Hf31  1  0.00803912  0.21213454  0.51521541  1
  Hf  Hf32  1  0.51153478  0.30595642  0.13292608  1
  Hf  Hf33  1  0.11002763  0.31518653  0.38115250  1
  Hf  Hf34  1  0.60095112  0.20942349  0.00108184  1
  Hf  Hf35  1  0.61081580  -0.00072868  0.00094605  1
  Hf  Hf36  1  0.60304831  0.39678331  0.50776677  1
  Hf  Hf37  1  0.31278502  0.10008784  0.35058812  1
  Hf  Hf38  1  0.10119365  0.69064287  0.38171412  1
  Hf  Hf39  1  0.19358453  -0.00007889  0.00766553  1
  Zr  Zr40  1  0.01457174  0.42180009  0.52630406  1
  Zr  Zr41  1  0.80780383  0.79910846  0.73651080  1
  Zr  Zr42  1  0.20557015  0.79914698  0.49582628  1
  Zr  Zr43  1  0.90231932  0.71759430  0.13842264  1
  Zr  Zr44  1  0.80718725  0.20897277  0.51171210  1
  Zr  Zr45  1  0.40348897  0.41586812  0.24939278  1
  Zr  Zr46  1  0.48695135  0.70067869  0.38011221  1
  Zr  Zr47  1  0.29721060  0.91072473  0.62249337  1
  Zr  Zr48  1  0.49666064  0.68974169  0.13297560  1
  Zr  Zr49  1  0.89095715  0.51458090  0.37430500  1
  Zr  Zr50  1  0.29552757  0.69522257  0.11348647  1
  Zr  Zr51  1  0.08523419  0.69473573  0.63895954  1
  Zr  Zr52  1  0.80418602  0.79050218  -0.00176874  1
  Zr  Zr53  1  -0.01459590  0.39312834  0.74935227  1
  Zr  Zr54  1  0.50579241  0.27716069  0.62239873  1
  Zr  Zr55  1  0.80407017  0.39727667  0.24520854  1
  Zr  Zr56  1  0.80251726  0.41142420  0.52181988  1
  Zr  Zr57  1  0.19560231  0.77619288  0.25517319  1
  Zr  Zr58  1  0.29915923  0.89660296  0.13407351  1
  Zr  Zr59  1  0.92470617  0.30285442  0.10151539  1
  Zr  Zr60  1  -0.01563163  0.01009412  0.25976945  1
  Zr  Zr61  1  0.38374951  0.39711242  0.50852385  1
  Zr  Zr62  1  0.49909091  0.89711657  0.87842627  1
  Zr  Zr63  1  0.00266979  0.00489225  0.48883573  1
  Zr  Zr64  1  0.50997992  0.69354538  0.87272112  1
  Zr  Zr65  1  0.49581582  0.10102320  0.13668278  1
  Zr  Zr66  1  0.69438548  0.89495193  0.39070516  1
  Zr  Zr67  1  0.50138561  0.49185449  0.86654354  1
  Zr  Zr68  1  0.12460334  0.09543156  0.61736513  1
  Zr  Zr69  1  0.80524321  0.00504510  0.51037499  1
  Zr  Zr70  1  0.40280927  -0.01763773  0.48995136  1
  Zr  Zr71  1  0.89726499  0.71772535  0.35766403  1
  Zr  Zr72  1  0.30069607  0.49610960  0.86241531  1
  Zr  Zr73  1  0.20376975  0.80382122  0.75478328  1
  Zr  Zr74  1  0.49948012  0.29611649  0.37099895  1
  Zr  Zr75  1  0.08676374  0.49390412  0.10190887  1
  Zr  Zr76  1  0.89144219  0.53295223  0.64346803  1
  Zr  Zr77  1  0.40729054  0.18560497  0.49357193  1
  Zr  Zr78  1  0.88837064  0.51605834  0.10969645  1
  Zr  Zr79  1  0.69439726  0.69363033  0.37262230  1
  Ta  Ta80  1  -0.00945150  0.61591593  -0.01894293  1
  Ta  Ta81  1  0.71259264  0.09058684  0.12679851  1
  Ta  Ta82  1  0.10241050  0.11261914  0.37096327  1
  Ta  Ta83  1  0.01939593  0.19275348  0.74378142  1
  Ta  Ta84  1  0.81857913  0.19269381  0.25063755  1
  Ta  Ta85  1  0.19032541  0.60448000  -0.02409448  1
  Ta  Ta86  1  0.59015588  0.58904470  0.25635846  1
  Ta  Ta87  1  0.30037392  0.69425969  0.63182600  1
  Ta  Ta88  1  0.00546833  0.21372308  0.25118150  1
  Ta  Ta89  1  0.61065290  0.59711907  0.00155011  1
  Ta  Ta90  1  0.22795981  0.19907377  0.74672691  1
  Ta  Ta91  1  0.10998440  0.29227634  0.86732505  1
  Ta  Ta92  1  0.78406614  0.39946507  -0.00187685  1
  Ta  Ta93  1  0.69073535  0.50282518  0.87414952  1
  Ta  Ta94  1  0.70023406  0.30747150  0.87307352  1
  Ta  Ta95  1  0.40020111  0.37716938  0.74021770  1
  Ta  Ta96  1  0.70162596  0.69361417  0.14049148  1
  Ta  Ta97  1  0.40188927  0.79871569  -0.00015773  1
  Ta  Ta98  1  0.19443020  0.01372174  0.75672948  1
  Ta  Ta99  1  0.19305465  -0.00550034  0.25921795  1
  Ta  Ta100  1  -0.00203988  -0.00495164  0.74977285  1
  Ta  Ta101  1  0.59861323  -0.00668724  0.75119524  1
  Ta  Ta102  1  0.49804513  0.50374710  0.38431416  1
  Ta  Ta103  1  0.91059068  0.09833208  0.63808961  1
  Ta  Ta104  1  0.89962101  0.10277390  0.12115471  1
  Ta  Ta105  1  0.71857144  0.09537483  0.37233248  1
  Ta  Ta106  1  0.09784251  0.69410264  0.11194178  1
  Ta  Ta107  1  0.60423730  0.78817918  0.00621425  1
  Ta  Ta108  1  0.41377133  0.39030409  0.00197865  1
  Ta  Ta109  1  0.90223759  0.09347115  0.85925618  1
  Ta  Ta110  1  0.61929275  -0.01103354  0.24689206  1
  Ta  Ta111  1  0.30214382  0.09629333  0.14387474  1
  Ta  Ta112  1  0.12521618  0.31405528  0.63941337  1
  Ta  Ta113  1  -0.01668123  0.00884591  -0.00381857  1
  Ta  Ta114  1  0.30600169  0.70235875  0.87416568  1
  Ta  Ta115  1  0.60591951  0.40293781  0.26135396  1
  Ta  Ta116  1  0.50573220  0.07538095  0.61984887  1
  Ta  Ta117  1  0.68212529  0.90465983  0.61323320  1
  Ta  Ta118  1  0.19379794  0.79381922  -0.00782155  1
  Ta  Ta119  1  0.61067300  0.18517798  0.48841484  1
  Ti  Ti120  1  -0.00535605  0.80792432  0.50140507  1
  Ti  Ti121  1  0.40364746  0.59875659  -0.00859406  1
  Ti  Ti122  1  0.09140373  0.89424101  0.36731386  1
  Ti  Ti123  1  0.09037027  0.70341942  0.86205512  1
  Ti  Ti124  1  0.40612417  0.60854166  0.74395663  1
  Ti  Ti125  1  0.19747163  0.20638973  0.24737782  1
  Ti  Ti126  1  0.69844349  0.68539898  0.61471378  1
  Ti  Ti127  1  0.50874620  0.30075174  0.87153971  1
  Ti  Ti128  1  0.70522158  0.89524435  0.12002845  1
  Ti  Ti129  1  0.78774787  0.82067790  0.24873352  1
  Ti  Ti130  1  0.71169560  0.29244691  0.12477980  1
  Ti  Ti131  1  0.70922939  0.30083494  0.37715325  1
  Ti  Ti132  1  -0.00004625  0.39941412  0.24287876  1
  Ti  Ti133  1  0.88812107  0.91677128  0.12427013  1
  Ti  Ti134  1  0.10271583  0.51072217  0.67155925  1
  Ti  Ti135  1  0.08777616  0.50003700  0.37669858  1
  Ti  Ti136  1  0.88932976  0.91234013  0.37114101  1
  Ti  Ti137  1  0.20440368  0.00014617  0.47240212  1
  Ti  Ti138  1  0.69787866  0.50025466  0.37793077  1
  Ti  Ti139  1  0.09007859  0.49837888  0.86537096  1
  Ti  Ti140  1  0.49774049  0.50966656  0.62813183  1
  Ti  Ti141  1  0.29599186  0.10002614  0.88561140  1
  Ti  Ti142  1  0.70402520  0.09764747  0.86329124  1
  Ti  Ti143  1  0.00016535  0.80353029  -0.00623163  1
  Ti  Ti144  1  0.40559072  0.80251944  0.74029661  1
  Ti  Ti145  1  0.89810029  0.90037374  0.87256386  1
  Ti  Ti146  1  0.49871203  0.49976752  0.11890704  1
  Ti  Ti147  1  -0.02614142  0.61740284  0.50216711  1
  Ti  Ti148  1  0.39737079  0.00540966  0.01015463  1
  Ti  Ti149  1  0.30760569  0.87870311  0.36113799  1
  Ti  Ti150  1  0.59540765  0.19354196  0.75496983  1
  Ti  Ti151  1  0.09851672  0.10528020  0.87793853  1
  Ti  Ti152  1  0.51337874  0.08759020  0.36046796  1
  Ti  Ti153  1  0.77587732  0.60749518  0.75629218  1
  Ti  Ti154  1  0.59734340  0.59957790  0.50534007  1
  Ti  Ti155  1  0.39137967  0.60378303  0.50893594  1
  Ti  Ti156  1  0.20129074  0.19567123  0.00651609  1
  Ti  Ti157  1  0.37731790  0.61146576  0.26014047  1
  Ti  Ti158  1  0.79849787  -0.00225737  0.73844108  1
  Ti  Ti159  1  0.30219463  0.30361994  0.36256269  1
  Mo  Mo160  1  0.60663506  0.79439899  0.24174036  1
  Mo  Mo161  1  0.40464795  0.20251174  0.25257168  1
  Mo  Mo162  1  0.20043414  0.39126460  0.76885820  1
  Mo  Mo163  1  0.29642043  0.69185752  0.38721217  1
  Mo  Mo164  1  0.59695557  0.00490702  0.49363637  1
  Mo  Mo165  1  0.19663892  0.40197604  0.50720828  1
  Mo  Mo166  1  0.70151675  0.29866339  0.62366244  1
  Mo  Mo167  1  0.78854777  0.60572350  -0.00462331  1
  Mo  Mo168  1  0.90661930  0.11385204  0.37565176  1
  Mo  Mo169  1  -0.00499471  0.80845238  0.75484180  1
  Mo  Mo170  1  0.59707847  0.59785583  0.73629159  1
  Mo  Mo171  1  0.50129916  0.89412336  0.62486149  1
  Mo  Mo172  1  0.70193719  0.69071857  0.87631179  1
  Mo  Mo173  1  0.30425151  0.29232489  0.63137266  1
  Mo  Mo174  1  0.41346973  0.19225261  0.74996356  1
  Mo  Mo175  1  0.39451424  0.19446566  0.00800415  1
  Mo  Mo176  1  0.79549359  0.00506162  0.24987446  1
  Mo  Mo177  1  0.80190542  -0.00269739  -0.00761610  1
  Mo  Mo178  1  0.79061099  0.60178018  0.50098556  1
  Mo  Mo179  1  0.60121718  0.39877781  -0.00233274  1
  Mo  Mo180  1  -0.00085538  0.81005977  0.25209096  1
  Mo  Mo181  1  0.90101258  0.71113978  0.62624554  1
  Mo  Mo182  1  0.89777505  0.70977442  0.87285805  1
  Mo  Mo183  1  0.10261260  0.29563802  0.11993339  1
  Mo  Mo184  1  0.20114633  0.60418279  0.76927394  1
  Mo  Mo185  1  -0.01222816  0.61459424  0.77156892  1
  Mo  Mo186  1  0.49135190  0.69577179  0.61632797  1
  Mo  Mo187  1  0.79175017  0.40656732  0.74795575  1
  Mo  Mo188  1  0.58877046  0.79657483  0.51741085  1
  Mo  Mo189  1  0.69033369  0.51008161  0.62555884  1
  Mo  Mo190  1  0.40187783  -0.00613873  0.25320713  1
  Mo  Mo191  1  0.91284217  0.30136143  0.63287140  1
  Mo  Mo192  1  0.39716136  0.78844190  0.50963440  1
  Mo  Mo193  1  0.00142890  0.40369871  -0.02205286  1
  Mo  Mo194  1  0.78514762  0.59745690  0.24993923  1
  Mo  Mo195  1  0.39628705  0.79291869  0.25082691  1
  Mo  Mo196  1  0.01500522  0.19216168  -0.01150892  1
  Mo  Mo197  1  0.90004518  0.90689034  0.62563161  1
  Mo  Mo198  1  0.19483135  0.58956787  0.24634744  1
  Mo  Mo199  1  0.31059031  0.10294123  0.62144936  1
