# generated using pymatgen
data_HfZrTaTiMo
_symmetry_space_group_name_H-M   'P 1'
_cell_length_a   15.20186169
_cell_length_b   15.21222770
_cell_length_c   16.85017285
_cell_angle_alpha   89.98423794
_cell_angle_beta   89.97816228
_cell_angle_gamma   90.00005205
_symmetry_Int_Tables_number   1
_chemical_formula_structural   HfZrTaTiMo
_chemical_formula_sum   'Hf40 Zr40 Ta40 Ti40 Mo40'
_cell_volume   3896.67250025
_cell_formula_units_Z   40
loop_
 _symmetry_equiv_pos_site_id
 _symmetry_equiv_pos_as_xyz
  1  'x, y, z'
loop_
 _atom_site_type_symbol
 _atom_site_label
 _atom_site_symmetry_multiplicity
 _atom_site_fract_x
 _atom_site_fract_y
 _atom_site_fract_z
 _atom_site_occupancy
  Hf  Hf0  1  0.80408680  0.41351350  0.00156501  1
  Hf  Hf1  1  0.89281224  0.49123654  0.37482622  1
  Hf  Hf2  1  0.30112113  0.91560378  0.12066705  1
  Hf  Hf3  1  0.29179713  0.89015609  0.37774827  1
  Hf  Hf4  1  0.42419112  0.80760772  0.25586661  1
  Hf  Hf5  1  0.48790503  0.29897259  0.87670410  1
  Hf  Hf6  1  0.50608206  0.30916686  0.37683733  1
  Hf  Hf7  1  0.59760712  0.00104032  0.25195364  1
  Hf  Hf8  1  0.21081811  0.59055160  0.50598504  1
  Hf  Hf9  1  0.19195748  0.59254262  0.24456975  1
  Hf  Hf10  1  0.61294802  0.21000724  0.23707610  1
  Hf  Hf11  1  0.51669735  0.71479858  0.86991952  1
  Hf  Hf12  1  0.18955999  0.20524056  0.75147371  1
  Hf  Hf13  1  0.09055008  0.90426936  0.62634699  1
  Hf  Hf14  1  0.57364293  0.00530435  0.75546013  1
  Hf  Hf15  1  0.90954838  0.10097299  0.12569146  1
  Hf  Hf16  1  0.89546394  0.90368182  0.13753625  1
  Hf  Hf17  1  0.09448091  0.28723801  0.12504628  1
  Hf  Hf18  1  0.80894578  0.57963430  0.74134945  1
  Hf  Hf19  1  0.19722656  0.78553030  0.50456700  1
  Hf  Hf20  1  0.20006641  0.19934855  0.50456200  1
  Hf  Hf21  1  0.42056344  0.81305202  0.00296762  1
  Hf  Hf22  1  0.39444403  0.40207882  -0.00271136  1
  Hf  Hf23  1  0.70216647  0.30605634  0.87773442  1
  Hf  Hf24  1  0.20047968  0.00652506  -0.01331133  1
  Hf  Hf25  1  0.41274147  0.60238696  -0.00086175  1
  Hf  Hf26  1  -0.00752458  0.58745175  0.00928215  1
  Hf  Hf27  1  0.19319768  0.00193621  0.25355719  1
  Hf  Hf28  1  0.68869469  0.89197969  0.86236685  1
  Hf  Hf29  1  0.01075051  0.59634458  0.50987319  1
  Hf  Hf30  1  0.09489694  0.48407664  0.87037777  1
  Hf  Hf31  1  0.50122271  0.51189683  0.13660282  1
  Hf  Hf32  1  0.59502758  0.60682268  0.48933813  1
  Hf  Hf33  1  0.31046695  0.10870119  0.86091870  1
  Hf  Hf34  1  0.19444275  0.39647906  0.49556034  1
  Hf  Hf35  1  0.49187097  0.31242828  0.13095202  1
  Hf  Hf36  1  0.41094335  0.19908905  0.73135772  1
  Hf  Hf37  1  0.80428948  0.19926062  0.00314363  1
  Hf  Hf38  1  0.39745663  0.40987217  0.50991835  1
  Hf  Hf39  1  0.90272282  0.68951972  0.86901962  1
  Zr  Zr40  1  0.59114245  0.19542871  0.00753828  1
  Zr  Zr41  1  0.39921265  0.41196889  0.73852025  1
  Zr  Zr42  1  0.60102480  0.61433318  0.26207882  1
  Zr  Zr43  1  0.69539126  0.49061291  0.61491096  1
  Zr  Zr44  1  0.20025708  0.79382607  0.24648016  1
  Zr  Zr45  1  0.80588305  0.01456174  0.48226833  1
  Zr  Zr46  1  0.39506350  0.00866119  0.25974496  1
  Zr  Zr47  1  0.20538152  0.79200422  0.74736026  1
  Zr  Zr48  1  0.60763170  0.59749043  -0.00249869  1
  Zr  Zr49  1  0.60053537  0.60708168  0.74349205  1
  Zr  Zr50  1  0.88989988  0.07517670  0.64132688  1
  Zr  Zr51  1  0.91784780  0.70620439  0.36487470  1
  Zr  Zr52  1  0.30043237  0.08491984  0.63339728  1
  Zr  Zr53  1  0.79891210  0.61729803  0.01042699  1
  Zr  Zr54  1  0.00485665  0.18870103  0.25944713  1
  Zr  Zr55  1  0.60172069  0.20702312  0.75504885  1
  Zr  Zr56  1  0.40379534  -0.00261116  0.48656485  1
  Zr  Zr57  1  0.30179627  0.89373807  0.62149512  1
  Zr  Zr58  1  0.09404757  0.09473396  0.62035354  1
  Zr  Zr59  1  0.80529958  0.81000427  0.49798626  1
  Zr  Zr60  1  0.00488787  0.79930435  0.74632033  1
  Zr  Zr61  1  0.41460299  0.20119561  0.51657049  1
  Zr  Zr62  1  0.40714811  0.01658092  -0.00745132  1
  Zr  Zr63  1  0.89069447  0.89929107  0.86882492  1
  Zr  Zr64  1  -0.01951081  0.18839699  0.49554131  1
  Zr  Zr65  1  -0.00064107  0.40114111  0.25411508  1
  Zr  Zr66  1  0.30132165  0.48108772  0.13923075  1
  Zr  Zr67  1  0.41404155  0.81214060  0.75350167  1
  Zr  Zr68  1  0.80290686  0.59836809  0.49620226  1
  Zr  Zr69  1  0.59863879  -0.01092448  0.01104183  1
  Zr  Zr70  1  0.39560157  0.61279983  0.26444317  1
  Zr  Zr71  1  0.20035132  0.59130482  0.01004278  1
  Zr  Zr72  1  0.21083542  0.59174324  0.74191637  1
  Zr  Zr73  1  0.87253566  0.28204328  0.36603625  1
  Zr  Zr74  1  0.79709562  0.59173782  0.25486529  1
  Zr  Zr75  1  0.10775621  0.69872579  0.88743778  1
  Zr  Zr76  1  0.70658709  0.91376673  0.63199081  1
  Zr  Zr77  1  -0.00369352  0.19926687  0.75346905  1
  Zr  Zr78  1  0.60741305  0.02115467  0.48756648  1
  Zr  Zr79  1  0.30743765  0.70553935  0.11571207  1
  Ta  Ta80  1  0.90117332  0.69927033  0.62728213  1
  Ta  Ta81  1  0.11128461  0.09489288  0.11842851  1
  Ta  Ta82  1  0.70052441  0.49078898  0.12990219  1
  Ta  Ta83  1  0.09605835  0.89872815  0.11151335  1
  Ta  Ta84  1  0.30539470  0.29701912  0.37335248  1
  Ta  Ta85  1  0.28401829  0.31357230  0.86483149  1
  Ta  Ta86  1  -0.00043788  0.79575275  0.50967934  1
  Ta  Ta87  1  0.00636343  0.59332612  0.73511462  1
  Ta  Ta88  1  0.90440927  0.30868190  0.87599127  1
  Ta  Ta89  1  0.29097808  0.28393586  0.12896573  1
  Ta  Ta90  1  0.50758604  0.11848915  0.36934316  1
  Ta  Ta91  1  0.62315725  0.79432672  0.00694603  1
  Ta  Ta92  1  0.08489331  0.88749460  0.37684230  1
  Ta  Ta93  1  0.88616613  0.30232944  0.13414728  1
  Ta  Ta94  1  0.30663969  0.70284661  0.88636551  1
  Ta  Ta95  1  0.10460537  0.48312097  0.62978758  1
  Ta  Ta96  1  0.70241888  0.09325769  0.87732110  1
  Ta  Ta97  1  0.59951790  0.40468101  0.00109321  1
  Ta  Ta98  1  0.60676954  0.40717854  0.75203290  1
  Ta  Ta99  1  -0.01567024  0.40150688  0.74654354  1
  Ta  Ta100  1  0.29893538  0.49016143  0.36653023  1
  Ta  Ta101  1  0.18627065  -0.00518630  0.76769788  1
  Ta  Ta102  1  -0.00110469  0.38543616  0.00399092  1
  Ta  Ta103  1  0.89948019  0.09855957  0.87552017  1
  Ta  Ta104  1  0.09751578  0.08740146  0.38456548  1
  Ta  Ta105  1  0.30054127  0.50324305  0.87482937  1
  Ta  Ta106  1  -0.00623401  0.39273883  0.49438604  1
  Ta  Ta107  1  0.69150734  0.11440738  0.62827018  1
  Ta  Ta108  1  0.71292350  0.70430663  0.86387199  1
  Ta  Ta109  1  0.19690186  0.38910089  -0.00005664  1
  Ta  Ta110  1  0.59962504  0.81410627  0.48822107  1
  Ta  Ta111  1  0.79669431  -0.01218718  0.00202859  1
  Ta  Ta112  1  0.29681895  0.10784871  0.38226743  1
  Ta  Ta113  1  0.50246184  0.90999985  0.61620451  1
  Ta  Ta114  1  -0.01319064  0.80026599  0.00479358  1
  Ta  Ta115  1  0.09835366  0.49879992  0.37309492  1
  Ta  Ta116  1  0.48273570  0.10303442  0.13313650  1
  Ta  Ta117  1  0.40700445  0.78966784  0.48898492  1
  Ta  Ta118  1  0.70180561  0.88107928  0.14438997  1
  Ta  Ta119  1  0.89436357  0.71274194  0.13932992  1
  Ti  Ti120  1  0.39426267  0.20555104  0.25154558  1
  Ti  Ti121  1  0.31676884  0.68985008  0.62243379  1
  Ti  Ti122  1  0.09631653  0.48650181  0.12645399  1
  Ti  Ti123  1  0.89904151  0.49700359  0.13747067  1
  Ti  Ti124  1  0.70779565  0.30123433  0.62701195  1
  Ti  Ti125  1  0.00581858  0.60597911  0.24165589  1
  Ti  Ti126  1  0.39839834  0.60465611  0.48484174  1
  Ti  Ti127  1  0.79901085  0.20239760  0.75760551  1
  Ti  Ti128  1  0.30297283  0.89503979  0.87753272  1
  Ti  Ti129  1  0.88925223  0.29381644  0.62232355  1
  Ti  Ti130  1  0.08421336  0.30135036  0.62172582  1
  Ti  Ti131  1  0.10071487  0.29457077  0.37739129  1
  Ti  Ti132  1  0.78464327  0.38248618  0.49345657  1
  Ti  Ti133  1  0.28147134  0.31691741  0.63539448  1
  Ti  Ti134  1  -0.00272956  0.00836674  -0.00477155  1
  Ti  Ti135  1  0.69821544  0.70707231  0.61983401  1
  Ti  Ti136  1  0.18654856  0.20221776  -0.01453104  1
  Ti  Ti137  1  0.52574155  0.31240286  0.61576603  1
  Ti  Ti138  1  0.00621242  -0.00621706  0.25097197  1
  Ti  Ti139  1  0.61014951  0.40669353  0.25329622  1
  Ti  Ti140  1  0.71046430  0.09079664  0.12916235  1
  Ti  Ti141  1  0.70600826  0.70925402  0.37554592  1
  Ti  Ti142  1  0.50020779  0.49781120  0.37269017  1
  Ti  Ti143  1  0.50565362  0.71469617  0.62006043  1
  Ti  Ti144  1  0.79924933  0.79836387  0.73640016  1
  Ti  Ti145  1  0.09471619  0.89718661  0.88660713  1
  Ti  Ti146  1  0.20209483  0.19125305  0.25799637  1
  Ti  Ti147  1  0.40247863  0.60731442  0.75461320  1
  Ti  Ti148  1  0.38192562  0.20502442  0.00273692  1
  Ti  Ti149  1  0.70390399  0.90593893  0.35961205  1
  Ti  Ti150  1  0.50489483  0.50030322  0.87035539  1
  Ti  Ti151  1  0.90014932  0.48223111  0.61373857  1
  Ti  Ti152  1  0.10823622  0.69567709  0.37238334  1
  Ti  Ti153  1  0.89978978  0.89806211  0.35325269  1
  Ti  Ti154  1  -0.00913628  -0.01657198  0.49222785  1
  Ti  Ti155  1  0.20124352  0.38459553  0.25837830  1
  Ti  Ti156  1  0.19252322  -0.00743918  0.49417112  1
  Ti  Ti157  1  0.71108842  0.50227508  0.87030686  1
  Ti  Ti158  1  0.49473496  0.51612361  0.62114561  1
  Ti  Ti159  1  0.09496393  0.70869194  0.11562717  1
  Mo  Mo160  1  0.39816931  0.39588444  0.25777005  1
  Mo  Mo161  1  0.60670347  0.80474171  0.26778438  1
  Mo  Mo162  1  0.20045468  0.80726238  -0.00090904  1
  Mo  Mo163  1  0.29734333  0.69222596  0.37704343  1
  Mo  Mo164  1  0.70179185  0.70050848  0.13573196  1
  Mo  Mo165  1  0.49818889  0.90349704  0.87594481  1
  Mo  Mo166  1  0.60647221  0.80143684  0.73413487  1
  Mo  Mo167  1  0.79065855  0.01094259  0.75909246  1
  Mo  Mo168  1  0.50604584  0.90765991  0.38318754  1
  Mo  Mo169  1  0.18792909  0.39705819  0.74671961  1
  Mo  Mo170  1  0.50841968  0.10003145  0.61910494  1
  Mo  Mo171  1  0.50989517  0.90254442  0.12890141  1
  Mo  Mo172  1  0.01021369  0.80041757  0.23960836  1
  Mo  Mo173  1  0.59597581  0.40713958  0.49976960  1
  Mo  Mo174  1  0.79502515  0.19333316  0.23558926  1
  Mo  Mo175  1  0.30551524  0.50165296  0.62385987  1
  Mo  Mo176  1  0.50376811  0.70595126  0.38522146  1
  Mo  Mo177  1  0.80060181  0.00951097  0.25772172  1
  Mo  Mo178  1  0.79902470  0.79965105  0.26030476  1
  Mo  Mo179  1  0.69153162  0.29953872  0.37389902  1
  Mo  Mo180  1  0.09356853  0.09484920  0.87700074  1
  Mo  Mo181  1  0.90068072  0.49517871  0.87234862  1
  Mo  Mo182  1  0.71049100  0.12092377  0.36195283  1
  Mo  Mo183  1  -0.00106838  0.19768196  -0.00367856  1
  Mo  Mo184  1  0.78445752  0.39105842  0.24282461  1
  Mo  Mo185  1  0.79991933  0.80635253  0.00324399  1
  Mo  Mo186  1  0.69093799  0.48213064  0.38340989  1
  Mo  Mo187  1  0.50191344  0.10806764  0.88210099  1
  Mo  Mo188  1  0.90305289  0.08584972  0.36394252  1
  Mo  Mo189  1  0.52468657  0.72172559  0.12703192  1
  Mo  Mo190  1  0.80189195  0.38885227  0.74830760  1
  Mo  Mo191  1  0.78851444  0.19640133  0.50564770  1
  Mo  Mo192  1  0.39109490  0.00039786  0.75617309  1
  Mo  Mo193  1  0.61738296  0.21494135  0.49854784  1
  Mo  Mo194  1  0.69904965  0.30627706  0.11403382  1
  Mo  Mo195  1  0.09882423  0.69130426  0.62426620  1
  Mo  Mo196  1  0.29227465  0.11220228  0.12437288  1
  Mo  Mo197  1  0.09431871  0.29731788  0.88083741  1
  Mo  Mo198  1  0.00234792  -0.00233670  0.76708871  1
  Mo  Mo199  1  0.90015907  0.89543391  0.62807282  1
