# generated using pymatgen
data_HfZrTaTiMo
_symmetry_space_group_name_H-M   'P 1'
_cell_length_a   15.21532082
_cell_length_b   15.20680007
_cell_length_c   16.87380729
_cell_angle_alpha   90.00156303
_cell_angle_beta   89.95147820
_cell_angle_gamma   89.97202239
_symmetry_Int_Tables_number   1
_chemical_formula_structural   HfZrTaTiMo
_chemical_formula_sum   'Hf40 Zr40 Ta40 Ti40 Mo40'
_cell_volume   3904.19793548
_cell_formula_units_Z   40
loop_
 _symmetry_equiv_pos_site_id
 _symmetry_equiv_pos_as_xyz
  1  'x, y, z'
loop_
 _atom_site_type_symbol
 _atom_site_label
 _atom_site_symmetry_multiplicity
 _atom_site_fract_x
 _atom_site_fract_y
 _atom_site_fract_z
 _atom_site_occupancy
  Hf  Hf0  1  0.60241852  0.61426087  0.25359086  1
  Hf  Hf1  1  0.49617938  0.90926207  0.14123420  1
  Hf  Hf2  1  0.79469370  -0.02234701  -0.00741853  1
  Hf  Hf3  1  -0.01764356  0.60939969  -0.00642528  1
  Hf  Hf4  1  0.60869893  0.20110764  -0.00415582  1
  Hf  Hf5  1  0.20700960  0.19695854  0.75398555  1
  Hf  Hf6  1  0.26929555  0.70333096  0.87084977  1
  Hf  Hf7  1  0.21216395  0.40039542  0.50675022  1
  Hf  Hf8  1  0.50995029  0.11445000  0.36727726  1
  Hf  Hf9  1  0.18781894  0.79893797  0.25512404  1
  Hf  Hf10  1  0.09540187  0.89886702  0.62845271  1
  Hf  Hf11  1  -0.01842244  0.80605153  -0.01697714  1
  Hf  Hf12  1  0.29727139  0.48933805  0.88368604  1
  Hf  Hf13  1  0.00139498  0.19258502  0.24779232  1
  Hf  Hf14  1  0.70119171  0.87834062  0.13647914  1
  Hf  Hf15  1  0.11394463  0.31157236  0.88113534  1
  Hf  Hf16  1  0.60854898  0.40593386  0.76212500  1
  Hf  Hf17  1  0.13101506  0.88727567  0.88430868  1
  Hf  Hf18  1  0.89534833  0.29723162  0.12568420  1
  Hf  Hf19  1  -0.01237082  0.61444448  0.25708004  1
  Hf  Hf20  1  0.50319342  0.29989221  0.87619213  1
  Hf  Hf21  1  0.50876522  0.31033615  0.63294661  1
  Hf  Hf22  1  0.39420686  0.78903302  0.26075192  1
  Hf  Hf23  1  0.20025365  -0.00452605  0.50157814  1
  Hf  Hf24  1  0.70061490  0.70096290  0.86673026  1
  Hf  Hf25  1  0.38671209  0.61272031  0.01355032  1
  Hf  Hf26  1  0.00293748  0.40979430  0.00090628  1
  Hf  Hf27  1  0.89326083  0.50232848  0.12847140  1
  Hf  Hf28  1  0.07985371  0.70936240  0.12411481  1
  Hf  Hf29  1  0.58990957  0.59938286  0.75150080  1
  Hf  Hf30  1  0.89306977  0.49651314  0.37769690  1
  Hf  Hf31  1  0.68111156  0.49963948  0.38669488  1
  Hf  Hf32  1  0.61761518  0.00579364  0.49978700  1
  Hf  Hf33  1  0.70620869  0.09712316  0.12410563  1
  Hf  Hf34  1  0.00375881  0.80126661  0.76471170  1
  Hf  Hf35  1  0.23088320  0.20178529  -0.00686008  1
  Hf  Hf36  1  0.21458644  0.40162138  0.74184435  1
  Hf  Hf37  1  0.18320147  0.58506437  0.02014049  1
  Hf  Hf38  1  0.58840224  0.00059950  -0.00214109  1
  Hf  Hf39  1  0.09956873  0.51984610  0.86266856  1
  Zr  Zr40  1  -0.00388523  0.39317205  0.75015267  1
  Zr  Zr41  1  0.40408038  0.58775470  0.23642610  1
  Zr  Zr42  1  0.11445206  0.30805303  0.11684830  1
  Zr  Zr43  1  0.31670268  0.48709771  0.37152649  1
  Zr  Zr44  1  0.50019312  0.89873413  0.62509544  1
  Zr  Zr45  1  0.11276926  0.10293198  0.88384320  1
  Zr  Zr46  1  0.39149831  0.37978568  0.00453947  1
  Zr  Zr47  1  0.67674010  0.49725814  0.60900938  1
  Zr  Zr48  1  0.51593560  0.10541063  0.63351443  1
  Zr  Zr49  1  0.10737096  0.51493598  0.38282051  1
  Zr  Zr50  1  0.20039023  0.59982887  0.23139283  1
  Zr  Zr51  1  0.39964354  0.21585352  0.24861197  1
  Zr  Zr52  1  0.19976499  0.18531582  0.25512974  1
  Zr  Zr53  1  0.09931860  0.30491408  0.37208186  1
  Zr  Zr54  1  -0.00548219  0.39639813  0.50195279  1
  Zr  Zr55  1  0.79957223  0.61305579  0.50735618  1
  Zr  Zr56  1  0.39419640  0.59829086  0.49488090  1
  Zr  Zr57  1  0.40342185  0.00502765  0.50094774  1
  Zr  Zr58  1  -0.00209081  0.19172028  0.49056025  1
  Zr  Zr59  1  -0.00910755  0.00907423  0.77124854  1
  Zr  Zr60  1  0.89590539  0.49611898  0.62366366  1
  Zr  Zr61  1  0.39787979  0.81688949  -0.00634354  1
  Zr  Zr62  1  0.79912584  0.18940512  0.49717571  1
  Zr  Zr63  1  0.61206648  0.80155756  -0.00921290  1
  Zr  Zr64  1  0.49931471  0.90497927  0.36783395  1
  Zr  Zr65  1  0.20232091  0.19172850  0.49531150  1
  Zr  Zr66  1  0.79549822  0.78186489  0.26273735  1
  Zr  Zr67  1  0.10585712  0.51105451  0.62546089  1
  Zr  Zr68  1  0.61103135  0.22065916  0.24015302  1
  Zr  Zr69  1  0.69965303  0.30015251  0.37320076  1
  Zr  Zr70  1  0.50047883  0.69713610  0.61346442  1
  Zr  Zr71  1  0.21794602  0.39065060  0.24822746  1
  Zr  Zr72  1  0.11189056  0.09012637  0.11085658  1
  Zr  Zr73  1  0.39207703  0.59972678  0.75590223  1
  Zr  Zr74  1  0.29446758  0.89823864  0.13019774  1
  Zr  Zr75  1  0.21276437  -0.00896808  0.74811237  1
  Zr  Zr76  1  0.87393870  0.49303358  0.86904664  1
  Zr  Zr77  1  0.89851793  0.89660397  0.37588569  1
  Zr  Zr78  1  0.69093760  0.50168822  0.11927567  1
  Zr  Zr79  1  -0.00753770  0.00087928  -0.01664151  1
  Ta  Ta80  1  -0.00270079  0.00219918  0.50473377  1
  Ta  Ta81  1  0.19309309  0.79262694  0.49548893  1
  Ta  Ta82  1  0.69663216  0.90046708  0.37239379  1
  Ta  Ta83  1  0.50143551  0.90805859  0.86145080  1
  Ta  Ta84  1  0.09755362  0.70475085  0.62575524  1
  Ta  Ta85  1  0.40668284  0.20753094  0.49722275  1
  Ta  Ta86  1  0.31348100  0.08974795  0.12805215  1
  Ta  Ta87  1  0.38962461  0.80522032  0.75484404  1
  Ta  Ta88  1  0.30657607  0.08493990  0.37045877  1
  Ta  Ta89  1  0.59856667  0.21178448  0.49816272  1
  Ta  Ta90  1  0.78565786  0.81133244  0.51527159  1
  Ta  Ta91  1  0.90370201  0.08950736  0.12279858  1
  Ta  Ta92  1  0.90287918  0.28303142  0.63237728  1
  Ta  Ta93  1  0.61889927  0.19936300  0.76050683  1
  Ta  Ta94  1  0.70154487  0.91323029  0.64191973  1
  Ta  Ta95  1  0.38701660  0.80333793  0.48718353  1
  Ta  Ta96  1  0.09149499  0.10379198  0.63348263  1
  Ta  Ta97  1  0.87508031  0.70664113  0.12117615  1
  Ta  Ta98  1  0.89298995  0.09338529  0.63412229  1
  Ta  Ta99  1  0.80911201  -0.00259405  0.24656113  1
  Ta  Ta100  1  0.50673887  0.50690134  0.89637711  1
  Ta  Ta101  1  0.81294735  0.19408210  0.76175449  1
  Ta  Ta102  1  0.81109902  0.18921695  -0.00728490  1
  Ta  Ta103  1  0.59745847  0.80139290  0.75111259  1
  Ta  Ta104  1  0.78185715  0.60592736  -0.00262885  1
  Ta  Ta105  1  0.80822335  -0.00241099  0.50489830  1
  Ta  Ta106  1  0.78746362  0.60101280  0.73577521  1
  Ta  Ta107  1  0.71861982  0.30847778  0.88414928  1
  Ta  Ta108  1  -0.01363521  0.80277420  0.50530160  1
  Ta  Ta109  1  0.89473195  0.30078207  0.35960282  1
  Ta  Ta110  1  0.09511870  0.90376447  0.11546346  1
  Ta  Ta111  1  0.31129262  0.50330087  0.62420477  1
  Ta  Ta112  1  0.50048096  0.33062234  0.37162256  1
  Ta  Ta113  1  0.30528573  0.10373348  0.62419379  1
  Ta  Ta114  1  0.49971533  0.10344877  0.13297454  1
  Ta  Ta115  1  0.40127507  0.20252228  0.75362661  1
  Ta  Ta116  1  0.51259396  0.70851176  0.12266599  1
  Ta  Ta117  1  0.09800108  0.90572573  0.38161259  1
  Ta  Ta118  1  0.28723279  0.70102443  0.62503343  1
  Ta  Ta119  1  0.10195610  0.29238157  0.62733917  1
  Ti  Ti120  1  -0.00667516  0.60719639  0.74795023  1
  Ti  Ti121  1  0.00009203  0.61226428  0.50207715  1
  Ti  Ti122  1  0.00184394  0.20013231  0.00209101  1
  Ti  Ti123  1  0.30053238  0.89170318  0.62269820  1
  Ti  Ti124  1  0.70551376  0.28445791  0.62749984  1
  Ti  Ti125  1  0.51032716  0.30817256  0.11758587  1
  Ti  Ti126  1  0.69360140  0.70896792  0.39101980  1
  Ti  Ti127  1  0.30996228  0.29386392  0.38227412  1
  Ti  Ti128  1  0.79507753  0.59627961  0.25845148  1
  Ti  Ti129  1  0.70566476  0.31063085  0.10785128  1
  Ti  Ti130  1  0.50584679  0.49952475  0.10577734  1
  Ti  Ti131  1  0.50325079  0.09672800  0.86466508  1
  Ti  Ti132  1  0.28249236  0.69198876  0.37988334  1
  Ti  Ti133  1  0.90563380  0.09259052  0.36745697  1
  Ti  Ti134  1  0.79421032  0.39262479  0.74203271  1
  Ti  Ti135  1  0.50771978  0.69908347  0.38794120  1
  Ti  Ti136  1  0.00955902  -0.00254936  0.24688217  1
  Ti  Ti137  1  0.78376648  0.39790694  0.24867730  1
  Ti  Ti138  1  -0.00699805  0.80839342  0.25293275  1
  Ti  Ti139  1  0.49157386  0.70447442  0.87845366  1
  Ti  Ti140  1  0.20219651  -0.00686336  0.25908222  1
  Ti  Ti141  1  0.41882412  0.40148567  0.50675434  1
  Ti  Ti142  1  0.40786518  0.40411827  0.75467610  1
  Ti  Ti143  1  0.20218013  0.78896535  0.01345758  1
  Ti  Ti144  1  0.80474393  0.19351623  0.24643449  1
  Ti  Ti145  1  0.90365832  0.89634220  0.12778649  1
  Ti  Ti146  1  0.88852034  0.70003083  0.86182599  1
  Ti  Ti147  1  0.29591536  0.47485770  0.11938081  1
  Ti  Ti148  1  0.89710453  0.71001171  0.63335119  1
  Ti  Ti149  1  0.90910323  0.29064492  0.87730279  1
  Ti  Ti150  1  0.89674730  0.90358699  0.63734865  1
  Ti  Ti151  1  0.08411267  0.70990701  0.38284116  1
  Ti  Ti152  1  0.41506757  0.18077580  -0.00148550  1
  Ti  Ti153  1  0.60763423  0.00415397  0.25124148  1
  Ti  Ti154  1  0.71146667  0.09493302  0.36670986  1
  Ti  Ti155  1  0.79513696  0.38561911  0.50420035  1
  Ti  Ti156  1  0.30993603  0.29686160  0.62310818  1
  Ti  Ti157  1  0.70634144  0.08899006  0.87073712  1
  Ti  Ti158  1  0.00216324  0.40803581  0.24725593  1
  Ti  Ti159  1  0.40067015  0.00455724  0.74821680  1
  Mo  Mo160  1  0.29998957  0.69937222  0.12643813  1
  Mo  Mo161  1  0.40183079  0.00966185  -0.00438277  1
  Mo  Mo162  1  0.41886488  0.40072129  0.22989741  1
  Mo  Mo163  1  0.80464419  0.79069594  -0.00534311  1
  Mo  Mo164  1  0.79407406  0.00117039  0.75590212  1
  Mo  Mo165  1  0.59050998  0.60700847  -0.00392627  1
  Mo  Mo166  1  0.59734923  0.39356424  0.50400287  1
  Mo  Mo167  1  0.86841153  0.89265819  0.85894073  1
  Mo  Mo168  1  0.00316294  0.20186002  0.74970540  1
  Mo  Mo169  1  0.69446460  0.90113536  0.85579300  1
  Mo  Mo170  1  0.19803605  0.39802751  -0.00000761  1
  Mo  Mo171  1  0.19371923  0.60546886  0.74312594  1
  Mo  Mo172  1  0.59253941  0.60826773  0.49779715  1
  Mo  Mo173  1  0.59606927  0.79763856  0.25875025  1
  Mo  Mo174  1  0.69618075  0.69369759  0.12414038  1
  Mo  Mo175  1  0.89495307  0.10635486  0.87974768  1
  Mo  Mo176  1  0.19558835  0.60885212  0.49889888  1
  Mo  Mo177  1  0.79670201  0.79552594  0.73366685  1
  Mo  Mo178  1  0.50479572  0.50568196  0.37471542  1
  Mo  Mo179  1  0.29174771  0.89098629  0.37595327  1
  Mo  Mo180  1  0.39499811  0.00732947  0.25556478  1
  Mo  Mo181  1  0.31618038  0.28235283  0.12191502  1
  Mo  Mo182  1  0.09628494  0.08410883  0.37168100  1
  Mo  Mo183  1  0.70867280  0.10699092  0.63253753  1
  Mo  Mo184  1  0.08731585  0.49938824  0.13240448  1
  Mo  Mo185  1  0.59849367  0.00590277  0.75424404  1
  Mo  Mo186  1  0.20247380  0.79492774  0.74171319  1
  Mo  Mo187  1  0.48960349  0.49784258  0.62909314  1
  Mo  Mo188  1  0.30995211  0.29427421  0.86415278  1
  Mo  Mo189  1  0.32236422  0.09319781  0.87252094  1
  Mo  Mo190  1  0.08970887  0.69761588  0.87603472  1
  Mo  Mo191  1  0.69529299  0.71272220  0.62943882  1
  Mo  Mo192  1  0.69672075  0.50089422  0.87791441  1
  Mo  Mo193  1  0.22438948  -0.00967994  -0.00056050  1
  Mo  Mo194  1  0.80212878  0.39261508  0.00027873  1
  Mo  Mo195  1  0.89805511  0.69898476  0.38943821  1
  Mo  Mo196  1  0.60339883  0.80567629  0.49989201  1
  Mo  Mo197  1  0.31372581  0.90182291  0.87196999  1
  Mo  Mo198  1  0.58918040  0.41240140  0.24131067  1
  Mo  Mo199  1  0.60562353  0.40169807  -0.00976058  1
