# generated using pymatgen
data_HfZrTaTiMo
_symmetry_space_group_name_H-M   'P 1'
_cell_length_a   15.20524602
_cell_length_b   15.20144701
_cell_length_c   16.87186771
_cell_angle_alpha   90.03848978
_cell_angle_beta   90.02422543
_cell_angle_gamma   89.96001138
_symmetry_Int_Tables_number   1
_chemical_formula_structural   HfZrTaTiMo
_chemical_formula_sum   'Hf40 Zr40 Ta40 Ti40 Mo40'
_cell_volume   3899.79070963
_cell_formula_units_Z   40
loop_
 _symmetry_equiv_pos_site_id
 _symmetry_equiv_pos_as_xyz
  1  'x, y, z'
loop_
 _atom_site_type_symbol
 _atom_site_label
 _atom_site_symmetry_multiplicity
 _atom_site_fract_x
 _atom_site_fract_y
 _atom_site_fract_z
 _atom_site_occupancy
  Hf  Hf0  1  0.09463024  0.10372553  0.62755203  1
  Hf  Hf1  1  0.59706367  0.60385489  0.49260267  1
  Hf  Hf2  1  0.10556719  0.29171192  0.11596772  1
  Hf  Hf3  1  0.81225413  0.39995257  0.74166503  1
  Hf  Hf4  1  0.61027761  0.19778341  0.51137472  1
  Hf  Hf5  1  0.50325560  0.09258793  0.65458982  1
  Hf  Hf6  1  0.61799554  0.39881267  0.00830921  1
  Hf  Hf7  1  0.00390465  0.77874829  0.24517425  1
  Hf  Hf8  1  0.20866580  0.19738766  0.26040680  1
  Hf  Hf9  1  0.48625204  0.90399863  0.61418437  1
  Hf  Hf10  1  0.09007708  0.70410839  0.87797786  1
  Hf  Hf11  1  0.01062152  0.42035563  0.24789415  1
  Hf  Hf12  1  0.58756179  0.80711251  0.73966105  1
  Hf  Hf13  1  0.20907563  0.40417830  0.24122045  1
  Hf  Hf14  1  0.01256859  -0.00546287  0.25306528  1
  Hf  Hf15  1  0.79131732  0.00149250  0.50086205  1
  Hf  Hf16  1  0.01279685  -0.00070858  0.00693493  1
  Hf  Hf17  1  0.00025765  -0.01782087  0.48597594  1
  Hf  Hf18  1  0.71089241  0.52098291  0.62765299  1
  Hf  Hf19  1  0.20704637  0.21576576  0.50178137  1
  Hf  Hf20  1  0.78435277  0.78594993  0.74402310  1
  Hf  Hf21  1  0.38541429  0.59892783  0.24585903  1
  Hf  Hf22  1  0.80126805  0.00871639  -0.00358270  1
  Hf  Hf23  1  0.21170151  0.39007185  -0.00538222  1
  Hf  Hf24  1  0.91003873  0.89609453  0.87806815  1
  Hf  Hf25  1  0.50677485  0.28958075  0.37324734  1
  Hf  Hf26  1  0.21072185  -0.00280908  0.49991100  1
  Hf  Hf27  1  0.20257051  0.61758732  0.75240091  1
  Hf  Hf28  1  0.89406286  0.30944703  0.11598905  1
  Hf  Hf29  1  0.09374490  0.89195376  0.62101604  1
  Hf  Hf30  1  0.89198007  0.88882307  0.36530957  1
  Hf  Hf31  1  0.48686468  0.48465869  0.37405144  1
  Hf  Hf32  1  0.92499628  0.28573639  0.61761015  1
  Hf  Hf33  1  0.70013910  0.71905174  0.36824528  1
  Hf  Hf34  1  0.68557177  0.11199295  0.11931606  1
  Hf  Hf35  1  0.27167660  0.69951323  0.37264433  1
  Hf  Hf36  1  0.80388036  -0.00955510  0.75581585  1
  Hf  Hf37  1  0.90383343  0.30781153  0.37740708  1
  Hf  Hf38  1  0.89492210  0.90456396  0.13417662  1
  Hf  Hf39  1  0.37737445  0.58638590  0.50188581  1
  Zr  Zr40  1  0.80058933  0.60472196  0.48364227  1
  Zr  Zr41  1  0.78278834  0.80284980  0.00568771  1
  Zr  Zr42  1  0.88634319  0.09499979  0.35893365  1
  Zr  Zr43  1  0.48536455  0.49003930  0.62341584  1
  Zr  Zr44  1  0.71432590  0.51255866  0.87469492  1
  Zr  Zr45  1  0.50092433  0.87496651  0.88861279  1
  Zr  Zr46  1  0.69808781  0.10547252  0.64448945  1
  Zr  Zr47  1  0.89700966  0.69810446  0.62039819  1
  Zr  Zr48  1  0.38010927  0.18844447  -0.01292377  1
  Zr  Zr49  1  0.80690759  0.39837754  0.50292392  1
  Zr  Zr50  1  0.38787651  0.78646704  0.74638100  1
  Zr  Zr51  1  0.80495333  0.40956350  0.24862945  1
  Zr  Zr52  1  0.30311644  0.50760035  0.87739532  1
  Zr  Zr53  1  0.91939618  0.49516082  0.62423359  1
  Zr  Zr54  1  0.40671865  0.19712658  0.51046521  1
  Zr  Zr55  1  0.60192744  0.61712875  0.74112207  1
  Zr  Zr56  1  0.40113180  0.61240762  0.00419622  1
  Zr  Zr57  1  0.90888721  0.49037556  0.87690237  1
  Zr  Zr58  1  0.41200090  0.18926418  0.24196372  1
  Zr  Zr59  1  0.01718932  0.58675192  0.48591660  1
  Zr  Zr60  1  0.41444190  0.39015784  -0.00039443  1
  Zr  Zr61  1  0.60555748  0.59400831  0.25516870  1
  Zr  Zr62  1  0.81343393  0.20529066  0.75600211  1
  Zr  Zr63  1  0.60102119  0.39393409  0.50909773  1
  Zr  Zr64  1  0.29355490  0.50837833  0.11767498  1
  Zr  Zr65  1  0.00644214  0.20606171  0.25378320  1
  Zr  Zr66  1  0.88300745  0.68904564  0.86887971  1
  Zr  Zr67  1  0.58294649  0.01004338  0.24268541  1
  Zr  Zr68  1  0.48523009  0.70300483  0.37550685  1
  Zr  Zr69  1  0.51129352  0.50677107  0.87659131  1
  Zr  Zr70  1  0.12175245  0.88810232  0.12893287  1
  Zr  Zr71  1  0.48889104  0.90180610  0.38148407  1
  Zr  Zr72  1  0.60836925  0.39554726  0.74689116  1
  Zr  Zr73  1  0.49883449  0.08573947  0.86327069  1
  Zr  Zr74  1  0.30640913  0.09913477  0.64208385  1
  Zr  Zr75  1  -0.00774827  0.78413391  0.01376986  1
  Zr  Zr76  1  0.00816392  0.18992561  0.48358589  1
  Zr  Zr77  1  0.60620363  0.38270725  0.23618960  1
  Zr  Zr78  1  0.18757554  0.22060363  0.74063055  1
  Zr  Zr79  1  0.09730813  0.29133987  0.88823761  1
  Ta  Ta80  1  0.30437480  0.28309442  0.12168236  1
  Ta  Ta81  1  0.18993913  0.82260887  0.76401239  1
  Ta  Ta82  1  0.79751971  0.20455515  -0.00334160  1
  Ta  Ta83  1  0.40038108  0.60144881  0.74525548  1
  Ta  Ta84  1  0.67440209  0.70931567  0.88603916  1
  Ta  Ta85  1  0.38640841  0.81183616  0.01272362  1
  Ta  Ta86  1  0.01907149  0.38273609  0.74983063  1
  Ta  Ta87  1  0.50657910  0.50184900  0.12673076  1
  Ta  Ta88  1  0.80549796  0.60206976  0.01257894  1
  Ta  Ta89  1  0.11733838  0.49982326  0.63097974  1
  Ta  Ta90  1  0.28264944  0.71816227  0.12908421  1
  Ta  Ta91  1  0.28585302  0.90190385  0.36385738  1
  Ta  Ta92  1  0.00251493  0.59344466  0.74724425  1
  Ta  Ta93  1  0.37105185  0.80593535  0.50127322  1
  Ta  Ta94  1  0.21930562  0.00435542  -0.00631894  1
  Ta  Ta95  1  0.69626418  0.10201085  0.87075416  1
  Ta  Ta96  1  0.79995696  0.19718317  0.50564626  1
  Ta  Ta97  1  0.69867172  0.70058545  0.13484220  1
  Ta  Ta98  1  0.49289493  0.70389465  0.13259040  1
  Ta  Ta99  1  0.09504051  0.67001203  0.12570889  1
  Ta  Ta100  1  0.90550343  0.08638389  0.62630390  1
  Ta  Ta101  1  0.10018391  0.50116623  0.87389795  1
  Ta  Ta102  1  0.29003177  0.09982481  0.85537651  1
  Ta  Ta103  1  0.69213000  0.90701605  0.12974251  1
  Ta  Ta104  1  0.50226449  0.28736960  0.64518414  1
  Ta  Ta105  1  0.31595667  0.09241055  0.37761017  1
  Ta  Ta106  1  0.78503112  0.20708618  0.24147073  1
  Ta  Ta107  1  0.00967865  -0.00743719  0.75390769  1
  Ta  Ta108  1  0.21024024  0.42378944  0.50180645  1
  Ta  Ta109  1  0.11386742  0.32237496  0.37958128  1
  Ta  Ta110  1  0.89567300  0.10405796  0.13430150  1
  Ta  Ta111  1  0.60537347  0.60935014  0.01382758  1
  Ta  Ta112  1  0.69205913  0.10703549  0.36812837  1
  Ta  Ta113  1  0.59713183  0.00344372  0.50076989  1
  Ta  Ta114  1  0.09866734  0.09136567  0.86979567  1
  Ta  Ta115  1  0.70823004  0.30332257  0.88223223  1
  Ta  Ta116  1  0.59232753  0.80500836  0.24185260  1
  Ta  Ta117  1  0.48950361  0.70182714  0.60698487  1
  Ta  Ta118  1  0.50305960  0.09491221  0.38099145  1
  Ta  Ta119  1  0.81832249  0.60648601  0.25366753  1
  Ti  Ti120  1  0.38846966  -0.02384262  0.76159226  1
  Ti  Ti121  1  0.69455477  0.91471182  0.36328247  1
  Ti  Ti122  1  0.79368217  0.80314675  0.24194744  1
  Ti  Ti123  1  0.20773859  0.40971750  0.75562152  1
  Ti  Ti124  1  0.79814153  0.80667542  0.50214028  1
  Ti  Ti125  1  0.90467503  0.29919394  0.88814054  1
  Ti  Ti126  1  0.11774509  0.09479988  0.12839233  1
  Ti  Ti127  1  0.71633058  0.50042133  0.12379852  1
  Ti  Ti128  1  0.19703855  0.80670036  -0.00908004  1
  Ti  Ti129  1  0.39104819  0.80908529  0.24421232  1
  Ti  Ti130  1  0.51087590  0.28273826  0.11811540  1
  Ti  Ti131  1  0.39608409  0.39723159  0.75977514  1
  Ti  Ti132  1  0.11753388  0.08653619  0.37254974  1
  Ti  Ti133  1  0.70404226  0.29534644  0.37593318  1
  Ti  Ti134  1  -0.00268650  0.79594885  0.74959814  1
  Ti  Ti135  1  0.59581674  -0.00693416  0.00101805  1
  Ti  Ti136  1  -0.00291482  0.18799515  0.00773890  1
  Ti  Ti137  1  0.59615907  0.19850858  -0.01306912  1
  Ti  Ti138  1  0.40362430  0.39228164  0.23506306  1
  Ti  Ti139  1  0.28887648  0.89889466  0.62763941  1
  Ti  Ti140  1  0.30634119  0.92343763  0.13530064  1
  Ti  Ti141  1  0.90736801  0.10483333  0.87449739  1
  Ti  Ti142  1  0.00470970  0.41127815  0.00666387  1
  Ti  Ti143  1  0.19047938  0.60573640  -0.00375803  1
  Ti  Ti144  1  0.30558698  0.71392941  0.88111998  1
  Ti  Ti145  1  0.90055127  0.89584895  0.62430776  1
  Ti  Ti146  1  0.09493263  0.70255754  0.61949629  1
  Ti  Ti147  1  0.47707110  0.08798265  0.10838506  1
  Ti  Ti148  1  0.60276878  0.80648164  0.50293979  1
  Ti  Ti149  1  0.31409422  0.30904362  0.37881215  1
  Ti  Ti150  1  0.49394079  0.90052511  0.11911406  1
  Ti  Ti151  1  0.28934478  0.49622273  0.36883322  1
  Ti  Ti152  1  0.69452338  0.90458458  0.62515218  1
  Ti  Ti153  1  0.69281366  0.90389961  0.87589837  1
  Ti  Ti154  1  0.70588879  0.49393875  0.37308879  1
  Ti  Ti155  1  0.30673526  0.32455445  0.62593498  1
  Ti  Ti156  1  0.91982503  0.52272825  0.12039906  1
  Ti  Ti157  1  0.50203791  0.29065029  0.86361797  1
  Ti  Ti158  1  0.90856193  0.69847350  0.37818864  1
  Ti  Ti159  1  0.28330823  0.70382127  0.61890935  1
  Mo  Mo160  1  0.39032732  0.38766160  0.50101912  1
  Mo  Mo161  1  0.60355145  -0.01154949  0.75816610  1
  Mo  Mo162  1  0.20084641  0.79793295  0.24444577  1
  Mo  Mo163  1  0.39968381  -0.00567358  -0.00416216  1
  Mo  Mo164  1  0.18183658  0.59947877  0.24815320  1
  Mo  Mo165  1  0.19712779  -0.00227544  0.74998961  1
  Mo  Mo166  1  0.39550407  0.21124496  0.75934707  1
  Mo  Mo167  1  0.39534826  -0.00258030  0.24938318  1
  Mo  Mo168  1  0.11788748  0.51332137  0.37253206  1
  Mo  Mo169  1  0.18790509  0.18389165  -0.00493587  1
  Mo  Mo170  1  0.29090335  0.09919826  0.12460330  1
  Mo  Mo171  1  0.90407449  0.50063635  0.37335208  1
  Mo  Mo172  1  0.10225399  0.49425143  0.11269261  1
  Mo  Mo173  1  0.10511964  0.88489914  0.37297763  1
  Mo  Mo174  1  0.60560656  0.20428466  0.76726793  1
  Mo  Mo175  1  0.00252853  0.59504444  -0.00418887  1
  Mo  Mo176  1  -0.00265146  0.19341246  0.75257975  1
  Mo  Mo177  1  0.81009676  0.40474137  0.00478316  1
  Mo  Mo178  1  0.68915925  0.71397552  0.60842051  1
  Mo  Mo179  1  0.10793856  0.31550416  0.61552596  1
  Mo  Mo180  1  0.29826959  0.50580442  0.63944549  1
  Mo  Mo181  1  -0.01229176  0.79617765  0.49754197  1
  Mo  Mo182  1  0.18563477  0.80346859  0.50161942  1
  Mo  Mo183  1  0.20560613  0.00284144  0.25726514  1
  Mo  Mo184  1  0.59073011  0.79668288  0.02331518  1
  Mo  Mo185  1  0.70272270  0.29642859  0.10958250  1
  Mo  Mo186  1  0.80144212  0.60580669  0.74832684  1
  Mo  Mo187  1  0.09519487  0.71365746  0.37977452  1
  Mo  Mo188  1  0.79298687  0.00538093  0.24376647  1
  Mo  Mo189  1  0.39936079  -0.00220225  0.50314435  1
  Mo  Mo190  1  0.00199140  0.59476027  0.26215069  1
  Mo  Mo191  1  0.49433029  0.69433721  0.88394433  1
  Mo  Mo192  1  0.30302314  0.29718583  0.86533755  1
  Mo  Mo193  1  0.02255826  0.39330938  0.49533423  1
  Mo  Mo194  1  0.20178124  0.61093814  0.51039351  1
  Mo  Mo195  1  0.60277078  0.20184333  0.24946594  1
  Mo  Mo196  1  0.10043840  0.90275727  0.88111727  1
  Mo  Mo197  1  0.70701785  0.30059115  0.62689244  1
  Mo  Mo198  1  0.89177119  0.69492661  0.12984525  1
  Mo  Mo199  1  0.29863662  0.90341355  0.87985036  1
