# generated using pymatgen
data_HfZrTaTiMo
_symmetry_space_group_name_H-M   'P 1'
_cell_length_a   15.21196580
_cell_length_b   15.21266573
_cell_length_c   16.85624804
_cell_angle_alpha   89.98474475
_cell_angle_beta   90.03084068
_cell_angle_gamma   89.96753470
_symmetry_Int_Tables_number   1
_chemical_formula_structural   HfZrTaTiMo
_chemical_formula_sum   'Hf40 Zr40 Ta40 Ti40 Mo40'
_cell_volume   3900.77973962
_cell_formula_units_Z   40
loop_
 _symmetry_equiv_pos_site_id
 _symmetry_equiv_pos_as_xyz
  1  'x, y, z'
loop_
 _atom_site_type_symbol
 _atom_site_label
 _atom_site_symmetry_multiplicity
 _atom_site_fract_x
 _atom_site_fract_y
 _atom_site_fract_z
 _atom_site_occupancy
  Hf  Hf0  1  0.41068425  0.39530201  -0.00332731  1
  Hf  Hf1  1  0.49867071  0.29794148  0.35276407  1
  Hf  Hf2  1  -0.00558794  0.38619680  0.50923707  1
  Hf  Hf3  1  0.90024483  0.49324096  0.36709054  1
  Hf  Hf4  1  0.09576325  0.08975426  0.88855153  1
  Hf  Hf5  1  0.19630113  0.00339560  0.50523807  1
  Hf  Hf6  1  0.79983610  -0.01092510  0.24368480  1
  Hf  Hf7  1  0.40662296  0.58808069  0.23992158  1
  Hf  Hf8  1  0.91150430  0.50219465  0.86072432  1
  Hf  Hf9  1  0.17930022  0.78457859  0.23948221  1
  Hf  Hf10  1  0.18790368  -0.01247294  0.23975666  1
  Hf  Hf11  1  0.50577939  0.70267774  0.10390067  1
  Hf  Hf12  1  0.69659161  0.10383387  0.36694558  1
  Hf  Hf13  1  0.88155521  0.70345788  0.87715916  1
  Hf  Hf14  1  0.80504449  -0.00802687  0.74491976  1
  Hf  Hf15  1  0.09021057  0.69061471  0.88281538  1
  Hf  Hf16  1  0.09541372  0.89656149  0.63513944  1
  Hf  Hf17  1  0.40880406  0.19518302  -0.00905397  1
  Hf  Hf18  1  0.10522810  0.49400397  0.87488836  1
  Hf  Hf19  1  0.07893582  0.87062351  0.37027430  1
  Hf  Hf20  1  0.20487777  0.39329741  0.74569047  1
  Hf  Hf21  1  0.48941295  0.90147635  0.62706252  1
  Hf  Hf22  1  0.00717442  0.61934702  0.24997606  1
  Hf  Hf23  1  0.79851201  0.59700304  0.50676921  1
  Hf  Hf24  1  0.81890679  0.20980429  0.48004943  1
  Hf  Hf25  1  0.90191919  0.10148902  0.13544588  1
  Hf  Hf26  1  0.81860403  0.41455116  0.00862515  1
  Hf  Hf27  1  0.39990077  0.40665354  0.50251909  1
  Hf  Hf28  1  0.80376401  0.38935125  0.74543181  1
  Hf  Hf29  1  0.50524174  0.29911461  0.14276910  1
  Hf  Hf30  1  0.80493174  -0.00342266  0.00674585  1
  Hf  Hf31  1  0.19032602  0.78823418  0.50502025  1
  Hf  Hf32  1  0.70768937  0.29390389  0.61841914  1
  Hf  Hf33  1  0.10089029  0.50050433  0.62828266  1
  Hf  Hf34  1  0.10889210  0.29502629  0.37388828  1
  Hf  Hf35  1  0.59287952  0.20141801  0.48769070  1
  Hf  Hf36  1  0.30804528  0.29596706  0.13336929  1
  Hf  Hf37  1  0.49649221  0.11440329  0.62736127  1
  Hf  Hf38  1  0.90787103  0.11146447  0.61896607  1
  Hf  Hf39  1  0.60972342  0.61456404  0.24255805  1
  Zr  Zr40  1  -0.00971355  -0.00934666  0.50503854  1
  Zr  Zr41  1  0.60569815  -0.00577709  0.75622462  1
  Zr  Zr42  1  0.68952259  0.11283176  0.13640763  1
  Zr  Zr43  1  0.20093844  0.58730494  0.24359430  1
  Zr  Zr44  1  0.01593565  0.41235742  0.24520507  1
  Zr  Zr45  1  0.30244262  0.68346810  0.37284695  1
  Zr  Zr46  1  0.61203401  0.20995386  0.75376342  1
  Zr  Zr47  1  0.59572242  0.00921313  -0.00516017  1
  Zr  Zr48  1  0.71125371  0.10520529  0.87802183  1
  Zr  Zr49  1  0.20500344  0.20297157  -0.00750219  1
  Zr  Zr50  1  0.40477077  0.62237844  0.76958779  1
  Zr  Zr51  1  0.29375709  0.11240255  0.62203957  1
  Zr  Zr52  1  0.90242171  0.71220459  0.36783586  1
  Zr  Zr53  1  0.58295052  0.00159898  0.25708676  1
  Zr  Zr54  1  0.71254320  0.52503670  0.11454795  1
  Zr  Zr55  1  0.21124782  0.38469091  0.51239906  1
  Zr  Zr56  1  0.29029949  0.89379273  0.87007197  1
  Zr  Zr57  1  -0.02044493  0.79981480  0.74595342  1
  Zr  Zr58  1  0.69571617  0.88726963  0.37899181  1
  Zr  Zr59  1  0.39408333  0.01152746  0.76254106  1
  Zr  Zr60  1  0.29629748  0.69055689  0.11182322  1
  Zr  Zr61  1  0.87588126  0.69087806  0.12453892  1
  Zr  Zr62  1  0.48926198  0.90828091  0.12104397  1
  Zr  Zr63  1  0.28739097  0.90149750  0.37058136  1
  Zr  Zr64  1  0.80260028  0.21140247  0.00346254  1
  Zr  Zr65  1  0.70820228  0.51136084  0.88344857  1
  Zr  Zr66  1  0.60265200  0.40500677  0.49560134  1
  Zr  Zr67  1  0.39401524  0.80040896  0.49854816  1
  Zr  Zr68  1  0.50080650  0.51795187  0.37780591  1
  Zr  Zr69  1  0.01023140  0.38607499  0.00732077  1
  Zr  Zr70  1  0.69978387  0.50413654  0.62753977  1
  Zr  Zr71  1  0.70039024  0.09864881  0.61627171  1
  Zr  Zr72  1  0.00690529  0.60444222  0.49920610  1
  Zr  Zr73  1  0.30829877  0.09203964  0.12654496  1
  Zr  Zr74  1  0.70193682  0.31352460  0.14451567  1
  Zr  Zr75  1  0.00513922  0.19879709  0.75838284  1
  Zr  Zr76  1  0.80523483  0.79863485  0.51282738  1
  Zr  Zr77  1  0.08615655  0.89216796  0.87621156  1
  Zr  Zr78  1  0.09765600  0.09167013  0.11671569  1
  Zr  Zr79  1  0.10174329  0.08464200  0.36803178  1
  Ta  Ta80  1  0.69311731  0.89597086  0.61679185  1
  Ta  Ta81  1  0.51172096  0.50581233  0.88447245  1
  Ta  Ta82  1  0.60371118  0.60928486  0.75404601  1
  Ta  Ta83  1  0.50935930  0.88568950  0.87413566  1
  Ta  Ta84  1  -0.01521582  0.58916827  0.00677618  1
  Ta  Ta85  1  -0.00015990  0.39207515  0.73431974  1
  Ta  Ta86  1  0.71285984  0.31223282  0.35418254  1
  Ta  Ta87  1  0.49788466  0.51283778  0.63081273  1
  Ta  Ta88  1  0.11094431  0.27131455  0.62412653  1
  Ta  Ta89  1  0.59101515  -0.00633698  0.49399568  1
  Ta  Ta90  1  0.39453126  0.80183460  -0.01184461  1
  Ta  Ta91  1  0.08924140  0.69672648  0.10459858  1
  Ta  Ta92  1  0.49220857  0.89370703  0.37864964  1
  Ta  Ta93  1  -0.01857064  0.80893230  0.01038430  1
  Ta  Ta94  1  0.50682257  0.31263131  0.86496677  1
  Ta  Ta95  1  0.67748339  0.71517102  0.88172639  1
  Ta  Ta96  1  0.29511188  0.89138848  0.11967727  1
  Ta  Ta97  1  0.31167696  0.30094310  0.86315668  1
  Ta  Ta98  1  0.20954765  0.18995641  0.76387891  1
  Ta  Ta99  1  0.22022456  0.59172634  0.50835352  1
  Ta  Ta100  1  0.21655296  0.40189127  0.24982623  1
  Ta  Ta101  1  0.00574869  0.19767020  0.25264781  1
  Ta  Ta102  1  0.79796594  0.00131273  0.49680157  1
  Ta  Ta103  1  0.90257252  0.30525553  0.14745276  1
  Ta  Ta104  1  0.39383928  -0.00135392  -0.01610858  1
  Ta  Ta105  1  -0.00685873  0.00462621  0.74725353  1
  Ta  Ta106  1  0.30709968  0.70074142  0.63213278  1
  Ta  Ta107  1  0.18882486  0.00408864  0.74826600  1
  Ta  Ta108  1  0.39944710  0.79751588  0.24973170  1
  Ta  Ta109  1  0.89521464  0.90553328  0.36750032  1
  Ta  Ta110  1  0.20192387  0.60069398  0.75558792  1
  Ta  Ta111  1  0.39906621  0.00980822  0.49503678  1
  Ta  Ta112  1  0.29658853  0.89856940  0.63651631  1
  Ta  Ta113  1  0.59212449  0.78020203  0.51074718  1
  Ta  Ta114  1  0.80683028  0.39943712  0.49918787  1
  Ta  Ta115  1  0.10599633  0.69385277  0.63825568  1
  Ta  Ta116  1  0.69110825  0.69110870  0.38054084  1
  Ta  Ta117  1  0.12031214  0.50119294  0.38522061  1
  Ta  Ta118  1  0.10700505  0.29477133  0.13183704  1
  Ta  Ta119  1  0.58389689  0.79104904  0.74164628  1
  Ti  Ti120  1  0.78169299  0.80210618  0.00238404  1
  Ti  Ti121  1  0.30639687  0.30563215  0.36350594  1
  Ti  Ti122  1  0.39215197  0.00186671  0.26058507  1
  Ti  Ti123  1  0.39342585  0.59998918  -0.01315892  1
  Ti  Ti124  1  0.30729432  0.49229116  0.11328709  1
  Ti  Ti125  1  0.30328926  0.11230854  0.37492346  1
  Ti  Ti126  1  0.90293773  0.29595205  0.87598282  1
  Ti  Ti127  1  -0.00606211  0.79480426  0.51628575  1
  Ti  Ti128  1  0.69162686  0.89115312  0.12583569  1
  Ti  Ti129  1  0.59215882  0.80121030  0.24974227  1
  Ti  Ti130  1  0.70586298  0.50374281  0.37151550  1
  Ti  Ti131  1  0.39350094  0.20997629  0.49454331  1
  Ti  Ti132  1  0.78797088  0.78859835  0.24480423  1
  Ti  Ti133  1  0.49556531  0.10901602  0.13085538  1
  Ti  Ti134  1  0.59689313  0.42114010  0.25061716  1
  Ti  Ti135  1  0.49952801  0.11040655  0.86847415  1
  Ti  Ti136  1  0.32005968  0.29863587  0.64429666  1
  Ti  Ti137  1  0.81377191  0.19601449  0.75460351  1
  Ti  Ti138  1  0.11071635  0.49959592  0.11170972  1
  Ti  Ti139  1  0.20639011  0.19575293  0.24995570  1
  Ti  Ti140  1  0.10325798  0.30052584  0.87354954  1
  Ti  Ti141  1  0.01918455  0.19093750  0.49352167  1
  Ti  Ti142  1  0.30354674  0.49819730  0.87444840  1
  Ti  Ti143  1  0.20710750  0.78904301  0.75489572  1
  Ti  Ti144  1  -0.00720265  0.19506908  -0.00010492  1
  Ti  Ti145  1  0.90212612  0.68575217  0.63520012  1
  Ti  Ti146  1  0.50138544  0.31388712  0.63855126  1
  Ti  Ti147  1  0.88935880  0.90864069  0.87916259  1
  Ti  Ti148  1  0.31201763  0.50461596  0.63946158  1
  Ti  Ti149  1  0.90493994  0.09930727  0.36207246  1
  Ti  Ti150  1  0.19416430  0.79222280  0.00028719  1
  Ti  Ti151  1  0.19833291  -0.01355048  0.00472730  1
  Ti  Ti152  1  0.69994789  0.31556319  0.88277406  1
  Ti  Ti153  1  0.21028917  0.39717218  -0.00325969  1
  Ti  Ti154  1  0.77702099  0.79644654  0.74055458  1
  Ti  Ti155  1  0.59935573  0.21928289  -0.00289793  1
  Ti  Ti156  1  0.79956761  0.60397056  0.74387687  1
  Ti  Ti157  1  0.41545473  0.60901265  0.50581263  1
  Ti  Ti158  1  0.60045003  0.41367699  0.75151134  1
  Ti  Ti159  1  0.51066381  0.49795644  0.10764955  1
  Mo  Mo160  1  0.79637413  0.60315159  0.26041045  1
  Mo  Mo161  1  0.69452959  0.70012267  0.63238621  1
  Mo  Mo162  1  0.09577389  0.89212226  0.11031386  1
  Mo  Mo163  1  0.50651065  0.71282096  0.37014527  1
  Mo  Mo164  1  0.88833942  0.89729155  0.12168933  1
  Mo  Mo165  1  0.49649442  0.69560812  0.62824513  1
  Mo  Mo166  1  0.39747551  0.19023231  0.25592365  1
  Mo  Mo167  1  -0.01765000  0.81895776  0.22191323  1
  Mo  Mo168  1  0.90510185  0.29892925  0.62146064  1
  Mo  Mo169  1  0.90117315  0.49743557  0.63479479  1
  Mo  Mo170  1  0.91148178  0.50248111  0.13306427  1
  Mo  Mo171  1  0.30403220  0.49046289  0.37987857  1
  Mo  Mo172  1  0.80267486  0.41568288  0.24613251  1
  Mo  Mo173  1  0.60424472  0.39557507  -0.00239047  1
  Mo  Mo174  1  0.59981400  0.19997139  0.25998572  1
  Mo  Mo175  1  0.39958457  0.40920820  0.24269573  1
  Mo  Mo176  1  0.48722198  0.09625960  0.38169724  1
  Mo  Mo177  1  0.00034046  0.59755746  0.74624667  1
  Mo  Mo178  1  0.10246324  0.09765632  0.62797271  1
  Mo  Mo179  1  0.10623698  0.68331734  0.38747102  1
  Mo  Mo180  1  -0.00472647  -0.00952267  0.24821389  1
  Mo  Mo181  1  0.59977358  0.60244639  0.50250403  1
  Mo  Mo182  1  -0.00825039  -0.00167598  -0.00191490  1
  Mo  Mo183  1  0.80181925  0.61265702  -0.01022474  1
  Mo  Mo184  1  0.59725694  0.81505401  -0.00056839  1
  Mo  Mo185  1  0.90398923  0.09763709  0.87841576  1
  Mo  Mo186  1  0.21043266  0.19985297  0.49416983  1
  Mo  Mo187  1  0.29917655  0.09882329  0.87714195  1
  Mo  Mo188  1  0.39442965  0.80312817  0.75570347  1
  Mo  Mo189  1  0.28539329  0.69236374  0.88816462  1
  Mo  Mo190  1  0.59604202  0.60529305  -0.00409537  1
  Mo  Mo191  1  0.69033712  0.71669660  0.11831721  1
  Mo  Mo192  1  0.41043023  0.41261766  0.75533191  1
  Mo  Mo193  1  0.19625224  0.58716427  -0.00250045  1
  Mo  Mo194  1  0.70514294  0.89024166  0.87100450  1
  Mo  Mo195  1  0.49544088  0.70135895  0.89031008  1
  Mo  Mo196  1  0.90660110  0.29825096  0.35809808  1
  Mo  Mo197  1  0.40455066  0.21156215  0.75651747  1
  Mo  Mo198  1  0.80940168  0.20427990  0.26242528  1
  Mo  Mo199  1  0.88774675  0.89858176  0.62644899  1
