# generated using pymatgen
data_HfZrTaTiMo
_symmetry_space_group_name_H-M   'P 1'
_cell_length_a   15.21706503
_cell_length_b   15.21211703
_cell_length_c   16.83908440
_cell_angle_alpha   89.95616750
_cell_angle_beta   89.95918796
_cell_angle_gamma   89.89718576
_symmetry_Int_Tables_number   1
_chemical_formula_structural   HfZrTaTiMo
_chemical_formula_sum   'Hf40 Zr40 Ta40 Ti40 Mo40'
_cell_volume   3897.96640611
_cell_formula_units_Z   40
loop_
 _symmetry_equiv_pos_site_id
 _symmetry_equiv_pos_as_xyz
  1  'x, y, z'
loop_
 _atom_site_type_symbol
 _atom_site_label
 _atom_site_symmetry_multiplicity
 _atom_site_fract_x
 _atom_site_fract_y
 _atom_site_fract_z
 _atom_site_occupancy
  Hf  Hf0  1  0.38865792  0.00170443  0.24535703  1
  Hf  Hf1  1  0.58754689  0.01637407  0.74361267  1
  Hf  Hf2  1  0.01020228  0.58560899  0.75447397  1
  Hf  Hf3  1  0.19813309  0.00009066  0.50713909  1
  Hf  Hf4  1  0.12200696  0.50518812  0.14264082  1
  Hf  Hf5  1  0.50012761  0.29963041  0.62418676  1
  Hf  Hf6  1  0.12075060  0.69957605  0.88813620  1
  Hf  Hf7  1  0.19672473  0.78792681  0.24154312  1
  Hf  Hf8  1  0.49187297  0.30756025  0.87032988  1
  Hf  Hf9  1  0.59191669  0.41434319  0.75435305  1
  Hf  Hf10  1  0.40117236  0.19172535  -0.00861718  1
  Hf  Hf11  1  0.19446485  -0.00990589  0.24177939  1
  Hf  Hf12  1  0.79928142  0.00587983  0.75251019  1
  Hf  Hf13  1  0.49935776  0.90824569  0.12742406  1
  Hf  Hf14  1  -0.00325983  0.61077221  0.50348884  1
  Hf  Hf15  1  0.09911389  0.10445461  0.12541926  1
  Hf  Hf16  1  0.29403825  0.88916980  0.38767786  1
  Hf  Hf17  1  0.09607675  0.69691460  0.10182790  1
  Hf  Hf18  1  0.18422869  0.39629890  -0.00520709  1
  Hf  Hf19  1  0.90393688  0.70146093  0.10905949  1
  Hf  Hf20  1  0.60565757  0.81189314  0.25694836  1
  Hf  Hf21  1  0.70720216  0.31119545  0.63302492  1
  Hf  Hf22  1  0.71856119  0.31449667  0.86755505  1
  Hf  Hf23  1  0.89440807  0.90239795  0.63173864  1
  Hf  Hf24  1  0.00597290  0.79665699  0.75611149  1
  Hf  Hf25  1  0.59128509  0.41401734  -0.00349511  1
  Hf  Hf26  1  0.89751546  0.29111387  0.61396340  1
  Hf  Hf27  1  0.80238882  -0.00454336  0.24022582  1
  Hf  Hf28  1  0.00326027  0.00245014  0.50383684  1
  Hf  Hf29  1  0.08357778  0.30528379  0.14387224  1
  Hf  Hf30  1  0.91807160  0.10252192  0.35645368  1
  Hf  Hf31  1  0.29133647  0.29280557  0.63731518  1
  Hf  Hf32  1  0.81828115  0.20608935  0.01278427  1
  Hf  Hf33  1  0.79688147  0.40260563  0.01430579  1
  Hf  Hf34  1  0.20236903  0.20227179  -0.01010691  1
  Hf  Hf35  1  0.39484705  0.38734801  0.26430834  1
  Hf  Hf36  1  0.08957325  0.89952566  0.88665107  1
  Hf  Hf37  1  0.29896807  0.67428838  0.12047752  1
  Hf  Hf38  1  0.21491653  -0.00521487  0.00820690  1
  Hf  Hf39  1  0.61619464  0.19890675  0.50636855  1
  Zr  Zr40  1  0.59946223  0.81158918  -0.00282560  1
  Zr  Zr41  1  0.39256514  0.79754197  0.00226179  1
  Zr  Zr42  1  0.71077872  0.69466874  0.36779737  1
  Zr  Zr43  1  0.20859495  0.61362737  0.73103911  1
  Zr  Zr44  1  0.59808287  0.61049723  -0.00784639  1
  Zr  Zr45  1  0.61082305  0.21012213  -0.00531873  1
  Zr  Zr46  1  0.80469871  0.58174907  0.49174176  1
  Zr  Zr47  1  0.09806672  0.72042073  0.38157582  1
  Zr  Zr48  1  0.48225455  0.49858995  0.13067327  1
  Zr  Zr49  1  0.39703253  0.78184475  0.74106115  1
  Zr  Zr50  1  0.89489951  0.69468301  0.63586983  1
  Zr  Zr51  1  0.90565131  0.69752763  0.89100769  1
  Zr  Zr52  1  0.69318373  0.90672999  0.87177944  1
  Zr  Zr53  1  0.60572576  0.80434039  0.49113496  1
  Zr  Zr54  1  0.10245224  0.51362688  0.36631275  1
  Zr  Zr55  1  0.39181192  0.79517324  0.25132011  1
  Zr  Zr56  1  0.91984250  0.49819852  0.12727583  1
  Zr  Zr57  1  0.50343447  0.29095426  0.12652787  1
  Zr  Zr58  1  0.80284643  0.01010410  0.49644605  1
  Zr  Zr59  1  -0.00580826  0.41016456  0.50030896  1
  Zr  Zr60  1  0.28645249  0.87794679  0.86678031  1
  Zr  Zr61  1  0.30413055  0.09054119  0.62988907  1
  Zr  Zr62  1  0.21603119  0.19315589  0.26278296  1
  Zr  Zr63  1  0.29469655  0.30085326  0.12763234  1
  Zr  Zr64  1  0.81204390  0.80033223  0.48943207  1
  Zr  Zr65  1  0.19817979  0.39360121  0.50214846  1
  Zr  Zr66  1  0.48620183  0.69950612  0.38794008  1
  Zr  Zr67  1  0.10219130  0.10123844  0.86935704  1
  Zr  Zr68  1  0.50476935  0.69694612  0.13144916  1
  Zr  Zr69  1  0.70351319  0.10830859  0.36566165  1
  Zr  Zr70  1  0.59966257  0.59655300  0.25586615  1
  Zr  Zr71  1  0.88923509  0.30908696  0.37266867  1
  Zr  Zr72  1  0.70089593  0.51349014  0.63371245  1
  Zr  Zr73  1  0.58389542  0.62432132  0.75922747  1
  Zr  Zr74  1  0.50333946  0.49420047  0.38015909  1
  Zr  Zr75  1  0.50263018  0.28947390  0.38213709  1
  Zr  Zr76  1  0.09167648  0.29263743  0.36275006  1
  Zr  Zr77  1  0.69590991  0.71423522  0.62894764  1
  Zr  Zr78  1  0.82072193  0.20252265  0.75587909  1
  Zr  Zr79  1  0.41510984  0.18528883  0.75417492  1
  Ta  Ta80  1  0.27983941  0.48387072  0.85596435  1
  Ta  Ta81  1  0.81090862  0.79738352  0.24654716  1
  Ta  Ta82  1  -0.00624700  0.37263614  -0.01053531  1
  Ta  Ta83  1  0.32226772  0.67404482  0.87543734  1
  Ta  Ta84  1  0.48236967  0.91955728  0.87185056  1
  Ta  Ta85  1  0.10868474  0.30465826  0.85100899  1
  Ta  Ta86  1  0.09995501  0.90058627  0.63572530  1
  Ta  Ta87  1  0.09630780  0.29543547  0.63785064  1
  Ta  Ta88  1  0.69302592  0.90906308  0.62932382  1
  Ta  Ta89  1  0.48789390  0.69451963  0.60417759  1
  Ta  Ta90  1  0.69906363  0.50952708  0.13145027  1
  Ta  Ta91  1  0.59190015  0.01523950  0.00055642  1
  Ta  Ta92  1  0.09372870  0.89473733  0.10828046  1
  Ta  Ta93  1  0.00381393  0.19264630  0.50128410  1
  Ta  Ta94  1  -0.01337883  0.38834608  0.75176126  1
  Ta  Ta95  1  0.58931623  0.01398164  0.25068266  1
  Ta  Ta96  1  0.79443515  0.21304039  0.23212341  1
  Ta  Ta97  1  0.60231681  0.00080664  0.50302750  1
  Ta  Ta98  1  0.68749504  0.10780929  0.13091466  1
  Ta  Ta99  1  0.49406710  0.90949896  0.38355053  1
  Ta  Ta100  1  0.89240286  0.48314613  0.87481383  1
  Ta  Ta101  1  0.37776159  0.40685896  -0.01052781  1
  Ta  Ta102  1  0.70129967  0.30131367  0.37295348  1
  Ta  Ta103  1  0.20117458  -0.00945383  0.74717489  1
  Ta  Ta104  1  0.49264990  0.90082559  0.61424386  1
  Ta  Ta105  1  0.70381393  0.10533275  0.88054037  1
  Ta  Ta106  1  0.39108029  0.40640737  0.74471547  1
  Ta  Ta107  1  0.79224063  0.00677083  0.00968095  1
  Ta  Ta108  1  0.71389869  0.48370789  0.36571277  1
  Ta  Ta109  1  0.19044977  0.59673115  0.52252972  1
  Ta  Ta110  1  0.47399979  0.51934130  0.87164556  1
  Ta  Ta111  1  0.21946140  0.57972858  -0.00756244  1
  Ta  Ta112  1  0.19235041  0.19451143  0.49509253  1
  Ta  Ta113  1  0.61239662  0.40510254  0.50179538  1
  Ta  Ta114  1  0.31510428  0.08140553  0.86222169  1
  Ta  Ta115  1  0.70916614  0.70495783  0.12809813  1
  Ta  Ta116  1  0.29111654  0.68674264  0.39877268  1
  Ta  Ta117  1  0.49750881  0.09433180  0.38677660  1
  Ta  Ta118  1  -0.00116061  0.81263610  0.24137478  1
  Ta  Ta119  1  0.79853241  0.80807921  0.00262456  1
  Ti  Ti120  1  0.70250145  0.70839261  0.87606463  1
  Ti  Ti121  1  0.49888971  0.09454365  0.60887518  1
  Ti  Ti122  1  0.49799917  0.50221186  0.61608016  1
  Ti  Ti123  1  0.79625628  0.80263119  0.75946285  1
  Ti  Ti124  1  0.00243811  0.80756651  0.50685023  1
  Ti  Ti125  1  0.21020233  0.40558844  0.26652169  1
  Ti  Ti126  1  0.79449436  0.59810560  -0.00074496  1
  Ti  Ti127  1  0.80330680  0.60205055  0.76225483  1
  Ti  Ti128  1  0.90886078  0.10594803  0.13403202  1
  Ti  Ti129  1  0.40011571  0.00379412  0.01114065  1
  Ti  Ti130  1  0.59005519  0.81585826  0.75079120  1
  Ti  Ti131  1  0.69967682  0.90334635  0.12534851  1
  Ti  Ti132  1  -0.00977483  0.01098252  0.00378263  1
  Ti  Ti133  1  0.30251783  0.09489607  0.38464506  1
  Ti  Ti134  1  0.60357284  0.59582135  0.49427318  1
  Ti  Ti135  1  0.19125915  0.79610539  0.51850816  1
  Ti  Ti136  1  0.90576575  0.10561129  0.88480286  1
  Ti  Ti137  1  0.61076505  0.38637396  0.24322670  1
  Ti  Ti138  1  0.01448027  0.56814462  -0.01406763  1
  Ti  Ti139  1  0.09765417  0.10656264  0.63998310  1
  Ti  Ti140  1  0.39966241  0.39357943  0.50303062  1
  Ti  Ti141  1  0.70146165  0.91051808  0.37022625  1
  Ti  Ti142  1  0.41255876  0.18662572  0.25207067  1
  Ti  Ti143  1  0.81300597  0.60050288  0.25022084  1
  Ti  Ti144  1  -0.00649850  0.00741963  0.75112607  1
  Ti  Ti145  1  0.90164358  0.90294202  0.11723960  1
  Ti  Ti146  1  0.80530463  0.40480031  0.23546708  1
  Ti  Ti147  1  0.71870736  0.10735005  0.62328857  1
  Ti  Ti148  1  0.30484016  0.50011017  0.62192860  1
  Ti  Ti149  1  0.89568261  0.48948210  0.63503013  1
  Ti  Ti150  1  0.30242684  0.89020630  0.62561510  1
  Ti  Ti151  1  0.61093365  0.20264684  0.75472276  1
  Ti  Ti152  1  0.30059637  0.49818538  0.39250933  1
  Ti  Ti153  1  0.00245861  0.61824522  0.25381975  1
  Ti  Ti154  1  0.90681804  0.89553986  0.36652431  1
  Ti  Ti155  1  0.69912348  0.51034009  0.87123191  1
  Ti  Ti156  1  0.89401855  0.90791901  0.88342474  1
  Ti  Ti157  1  0.38935462  0.19695885  0.49934255  1
  Ti  Ti158  1  0.09233182  0.91590407  0.37016527  1
  Ti  Ti159  1  0.37718628  0.59021900  0.26206419  1
  Mo  Mo160  1  0.90978995  0.70596914  0.36476472  1
  Mo  Mo161  1  0.18683456  0.40940520  0.73307719  1
  Mo  Mo162  1  0.80926515  0.20033568  0.49824594  1
  Mo  Mo163  1  0.91019973  0.29321910  0.87631037  1
  Mo  Mo164  1  0.40364277  0.58958000  0.73559816  1
  Mo  Mo165  1  0.20188434  0.78945043  0.00459340  1
  Mo  Mo166  1  -0.00252109  0.19835356  0.24924001  1
  Mo  Mo167  1  0.29151276  0.89246058  0.12011390  1
  Mo  Mo168  1  0.09379697  0.70819422  0.62231710  1
  Mo  Mo169  1  -0.00693812  0.81370464  -0.00383305  1
  Mo  Mo170  1  0.29977899  0.48722711  0.13033919  1
  Mo  Mo171  1  0.40175323  0.58670630  -0.00321615  1
  Mo  Mo172  1  0.40323498  -0.01519888  0.74411751  1
  Mo  Mo173  1  0.20824217  0.60182238  0.26170309  1
  Mo  Mo174  1  0.69973013  0.31130121  0.12814987  1
  Mo  Mo175  1  0.30421601  0.29371719  0.38784954  1
  Mo  Mo176  1  0.00014611  -0.00893698  0.23835302  1
  Mo  Mo177  1  0.39317119  0.58618549  0.50279327  1
  Mo  Mo178  1  0.39101114  0.80201644  0.50529284  1
  Mo  Mo179  1  0.90102680  0.50820404  0.35672878  1
  Mo  Mo180  1  0.91048540  0.09828906  0.62414324  1
  Mo  Mo181  1  0.10685116  0.09121550  0.37546496  1
  Mo  Mo182  1  0.79273278  0.39798522  0.49677217  1
  Mo  Mo183  1  0.90472203  0.29762185  0.13533605  1
  Mo  Mo184  1  0.30995514  0.09925029  0.12425087  1
  Mo  Mo185  1  0.49899013  0.10006216  0.12561350  1
  Mo  Mo186  1  0.40094702  -0.00015504  0.49817174  1
  Mo  Mo187  1  0.08992529  0.49342137  0.62647569  1
  Mo  Mo188  1  0.29399339  0.29396265  0.85590017  1
  Mo  Mo189  1  0.30114214  0.70001526  0.60430393  1
  Mo  Mo190  1  0.49842235  0.71488058  0.87241149  1
  Mo  Mo191  1  0.00440689  0.19324331  0.74570137  1
  Mo  Mo192  1  0.20412428  0.19518961  0.75645615  1
  Mo  Mo193  1  0.00851610  0.19860689  -0.00048403  1
  Mo  Mo194  1  0.09294916  0.49492260  0.87007582  1
  Mo  Mo195  1  -0.00647070  0.41341009  0.25724682  1
  Mo  Mo196  1  0.19633631  0.79911532  0.73839103  1
  Mo  Mo197  1  0.50782600  0.09684224  0.87660798  1
  Mo  Mo198  1  0.59927800  0.19993065  0.25232054  1
  Mo  Mo199  1  0.80411880  0.41305492  0.75334355  1
