# generated using pymatgen
data_HfZrTaTiMo
_symmetry_space_group_name_H-M   'P 1'
_cell_length_a   15.20488578
_cell_length_b   15.21359812
_cell_length_c   16.83956054
_cell_angle_alpha   90.01190702
_cell_angle_beta   89.98349834
_cell_angle_gamma   90.05095925
_symmetry_Int_Tables_number   1
_chemical_formula_structural   HfZrTaTiMo
_chemical_formula_sum   'Hf40 Zr40 Ta40 Ti40 Mo40'
_cell_volume   3895.34255998
_cell_formula_units_Z   40
loop_
 _symmetry_equiv_pos_site_id
 _symmetry_equiv_pos_as_xyz
  1  'x, y, z'
loop_
 _atom_site_type_symbol
 _atom_site_label
 _atom_site_symmetry_multiplicity
 _atom_site_fract_x
 _atom_site_fract_y
 _atom_site_fract_z
 _atom_site_occupancy
  Hf  Hf0  1  0.78463910  0.18142821  0.00439155  1
  Hf  Hf1  1  0.31391484  0.11026258  0.61104405  1
  Hf  Hf2  1  0.72525551  0.11598727  0.38369650  1
  Hf  Hf3  1  0.39137944  0.39125030  0.74682431  1
  Hf  Hf4  1  0.59814605  0.81517356  0.23809395  1
  Hf  Hf5  1  0.38206175  0.79551229  -0.00266992  1
  Hf  Hf6  1  0.89768949  0.49961416  0.62749230  1
  Hf  Hf7  1  0.60026723  0.80415765  0.74545181  1
  Hf  Hf8  1  0.88910149  0.29271260  0.37735289  1
  Hf  Hf9  1  0.91343088  0.69857427  0.89631750  1
  Hf  Hf10  1  0.80745402  0.60235488  0.49764025  1
  Hf  Hf11  1  0.40921934  -0.00449731  0.74011837  1
  Hf  Hf12  1  0.60817381  0.62325801  0.25545635  1
  Hf  Hf13  1  0.31091269  0.09854909  0.39479510  1
  Hf  Hf14  1  0.50436023  0.30370600  0.12840924  1
  Hf  Hf15  1  0.40152515  0.39649206  -0.00544223  1
  Hf  Hf16  1  0.68814456  0.90736168  0.38268132  1
  Hf  Hf17  1  -0.01534421  0.19746023  0.50696710  1
  Hf  Hf18  1  0.80230712  0.60458406  0.76281027  1
  Hf  Hf19  1  0.09867403  0.90344629  0.13070697  1
  Hf  Hf20  1  0.09183602  0.30947343  0.87526568  1
  Hf  Hf21  1  0.19876501  0.19854903  -0.00225588  1
  Hf  Hf22  1  0.49730944  0.50654567  0.37445193  1
  Hf  Hf23  1  0.10886603  0.09857690  0.61224643  1
  Hf  Hf24  1  0.90658334  0.88559979  0.12482751  1
  Hf  Hf25  1  0.00289126  0.00369795  0.74507270  1
  Hf  Hf26  1  0.10509706  0.89333792  0.62514503  1
  Hf  Hf27  1  0.40137579  0.78100465  0.24006859  1
  Hf  Hf28  1  0.40213833  -0.00636895  0.25030658  1
  Hf  Hf29  1  0.48737157  0.10326624  0.12246234  1
  Hf  Hf30  1  0.21364653  -0.00043862  -0.00561763  1
  Hf  Hf31  1  0.58738446  0.79954509  0.50948973  1
  Hf  Hf32  1  0.39897973  0.61300999  0.49997681  1
  Hf  Hf33  1  0.38852646  0.80438004  0.51480448  1
  Hf  Hf34  1  0.60680885  0.41787718  -0.01727751  1
  Hf  Hf35  1  0.59890360  0.19346640  0.75631244  1
  Hf  Hf36  1  0.59121292  0.20316557  0.49468454  1
  Hf  Hf37  1  0.10211060  0.51095982  0.12051201  1
  Hf  Hf38  1  -0.00859378  0.20358870  0.00112364  1
  Hf  Hf39  1  0.51009747  0.49032298  0.61874450  1
  Zr  Zr40  1  0.70150441  0.10752158  0.61658703  1
  Zr  Zr41  1  0.09593991  0.68772811  0.35715040  1
  Zr  Zr42  1  0.71585755  0.50572118  0.37096975  1
  Zr  Zr43  1  0.10696554  0.51656589  0.88737102  1
  Zr  Zr44  1  0.08638899  0.30654316  0.12519638  1
  Zr  Zr45  1  0.09669974  0.71030755  0.12526059  1
  Zr  Zr46  1  0.90337295  0.89163937  0.36571827  1
  Zr  Zr47  1  0.48391941  0.51188286  0.13822301  1
  Zr  Zr48  1  0.30115517  0.51074653  0.62025319  1
  Zr  Zr49  1  0.58985587  0.20725494  -0.00940744  1
  Zr  Zr50  1  0.69848320  0.72375515  0.88918029  1
  Zr  Zr51  1  0.50762069  0.89822162  0.88577312  1
  Zr  Zr52  1  0.00262768  0.78583636  0.49709914  1
  Zr  Zr53  1  0.79171740  -0.00094380  0.24262545  1
  Zr  Zr54  1  0.79682980  0.79321290  0.49817752  1
  Zr  Zr55  1  0.11311563  0.09983787  0.13333882  1
  Zr  Zr56  1  0.90678277  0.09517479  0.12722916  1
  Zr  Zr57  1  0.30092896  0.29234600  0.12519491  1
  Zr  Zr58  1  0.38876559  0.78764751  0.74829849  1
  Zr  Zr59  1  0.59289925  0.40424627  0.76483346  1
  Zr  Zr60  1  0.29829090  0.90528821  0.12573975  1
  Zr  Zr61  1  0.79318399  0.40040972  0.75445099  1
  Zr  Zr62  1  0.60123420  0.38910336  0.26507171  1
  Zr  Zr63  1  0.28415527  0.50933217  0.38445177  1
  Zr  Zr64  1  0.79068837  0.78332423  0.24038094  1
  Zr  Zr65  1  0.51725230  0.08856159  0.37207536  1
  Zr  Zr66  1  0.89385899  0.08477902  0.87714641  1
  Zr  Zr67  1  0.90739202  0.48540903  0.10647719  1
  Zr  Zr68  1  0.39568153  0.38130920  0.49548128  1
  Zr  Zr69  1  0.19921415  0.20703870  0.73595696  1
  Zr  Zr70  1  0.78552785  0.59033895  -0.00346650  1
  Zr  Zr71  1  -0.00642424  0.79897078  0.75647051  1
  Zr  Zr72  1  0.38188119  0.40127870  0.26091278  1
  Zr  Zr73  1  0.82195445  0.01336144  0.50444303  1
  Zr  Zr74  1  0.79734549  -0.00905865  0.74650600  1
  Zr  Zr75  1  0.89764693  0.28927921  0.86456741  1
  Zr  Zr76  1  0.68998887  0.50204616  0.12840644  1
  Zr  Zr77  1  0.10851021  0.11005007  0.38703017  1
  Zr  Zr78  1  0.29437148  0.29454607  0.87440844  1
  Zr  Zr79  1  0.18961292  0.41291221  0.73923038  1
  Ta  Ta80  1  0.18301965  0.39957949  0.51277265  1
  Ta  Ta81  1  0.18911804  0.40086460  0.25150721  1
  Ta  Ta82  1  -0.00606094  0.40423221  0.25418088  1
  Ta  Ta83  1  0.22304196  0.60099382  0.23941271  1
  Ta  Ta84  1  0.80520849  0.39238691  0.24514154  1
  Ta  Ta85  1  0.61002614  0.00857167  0.00422757  1
  Ta  Ta86  1  0.20694349  0.20439711  0.25618341  1
  Ta  Ta87  1  0.48906555  0.28157723  0.62459901  1
  Ta  Ta88  1  0.39783366  0.59161150  -0.00464769  1
  Ta  Ta89  1  0.79834629  0.20306728  0.23880540  1
  Ta  Ta90  1  0.19136576  0.61139635  0.50579722  1
  Ta  Ta91  1  0.69642429  0.90068712  0.61691175  1
  Ta  Ta92  1  0.69623945  0.50737260  0.62056913  1
  Ta  Ta93  1  0.60355500  0.59983048  0.76233500  1
  Ta  Ta94  1  0.90986084  0.49201328  0.88538746  1
  Ta  Ta95  1  0.10912773  0.89672575  0.36949688  1
  Ta  Ta96  1  0.20900572  0.62275787  0.75027150  1
  Ta  Ta97  1  0.50239786  0.68745027  0.63038446  1
  Ta  Ta98  1  0.49715883  0.69235281  0.88408260  1
  Ta  Ta99  1  0.09734790  0.90715163  0.87632991  1
  Ta  Ta100  1  0.20703789  0.80028664  0.25568509  1
  Ta  Ta101  1  0.11764370  0.71623000  0.88563644  1
  Ta  Ta102  1  0.00858981  -0.00785035  0.49340061  1
  Ta  Ta103  1  0.10308459  0.10245033  0.86749090  1
  Ta  Ta104  1  0.00826912  0.59791085  0.75716650  1
  Ta  Ta105  1  0.40774249  0.59367290  0.75398359  1
  Ta  Ta106  1  0.70434701  0.29980853  0.12099802  1
  Ta  Ta107  1  0.00586544  0.00211961  0.26375563  1
  Ta  Ta108  1  0.42641698  -0.00457661  0.51591449  1
  Ta  Ta109  1  0.60793820  0.60739965  0.49384324  1
  Ta  Ta110  1  0.68793742  0.31192100  0.62513041  1
  Ta  Ta111  1  0.49399964  0.89789523  0.37732776  1
  Ta  Ta112  1  0.79586200  0.39458886  0.50229757  1
  Ta  Ta113  1  0.60393346  0.39647114  0.48849850  1
  Ta  Ta114  1  0.90710699  0.69533861  0.63180148  1
  Ta  Ta115  1  0.40204569  0.20019116  0.26304360  1
  Ta  Ta116  1  0.20481815  0.41115981  0.00372273  1
  Ta  Ta117  1  0.81463789  0.59134180  0.23853555  1
  Ta  Ta118  1  0.50117837  0.90249349  0.10486921  1
  Ta  Ta119  1  0.09079687  0.51372259  0.62507428  1
  Ti  Ti120  1  0.50820223  0.69960735  0.10690790  1
  Ti  Ti121  1  0.09523612  0.49762510  0.37277706  1
  Ti  Ti122  1  0.89729183  0.68752614  0.35887414  1
  Ti  Ti123  1  0.29863793  0.08667254  0.86090204  1
  Ti  Ti124  1  -0.00175320  0.20137282  0.73431776  1
  Ti  Ti125  1  0.21679694  0.61677080  0.00866578  1
  Ti  Ti126  1  0.20813985  0.00698434  0.25985535  1
  Ti  Ti127  1  0.90657351  0.69013940  0.11227574  1
  Ti  Ti128  1  0.20115812  0.79244203  0.49142453  1
  Ti  Ti129  1  0.49727202  0.09329442  0.87920746  1
  Ti  Ti130  1  0.00277640  0.59600747  0.50027188  1
  Ti  Ti131  1  0.79821630  0.19062551  0.74590515  1
  Ti  Ti132  1  0.60668337  0.19889138  0.25391643  1
  Ti  Ti133  1  0.79831887  0.80297597  0.74765681  1
  Ti  Ti134  1  0.28385186  0.29395722  0.38457282  1
  Ti  Ti135  1  0.09646362  0.30742557  0.37926860  1
  Ti  Ti136  1  -0.00534351  0.40161775  0.50391787  1
  Ti  Ti137  1  -0.00096651  0.20471117  0.25591716  1
  Ti  Ti138  1  -0.00268522  0.40016812  0.74320693  1
  Ti  Ti139  1  0.38867732  0.18050539  -0.00668733  1
  Ti  Ti140  1  0.49667897  0.70884638  0.37621875  1
  Ti  Ti141  1  0.60324543  0.00545248  0.23211266  1
  Ti  Ti142  1  0.88841610  0.29380130  0.62678048  1
  Ti  Ti143  1  0.21110997  -0.01562569  0.49797639  1
  Ti  Ti144  1  0.00398767  -0.00100354  -0.00442460  1
  Ti  Ti145  1  0.10522341  0.70126639  0.63187321  1
  Ti  Ti146  1  0.30637174  0.89253231  0.37601668  1
  Ti  Ti147  1  0.70388917  0.69589170  0.63042207  1
  Ti  Ti148  1  0.49046953  0.29541269  0.87222787  1
  Ti  Ti149  1  0.70181716  0.29054286  0.87404213  1
  Ti  Ti150  1  0.30352376  0.50904947  0.87181271  1
  Ti  Ti151  1  0.29110673  0.90110694  0.63418706  1
  Ti  Ti152  1  0.88858582  0.88927142  0.89221459  1
  Ti  Ti153  1  0.90998118  0.49951983  0.37284246  1
  Ti  Ti154  1  0.60402685  -0.00044585  0.75007046  1
  Ti  Ti155  1  0.80626916  0.38118999  -0.00673422  1
  Ti  Ti156  1  0.79152197  -0.01345120  0.01008978  1
  Ti  Ti157  1  0.90184791  0.89635490  0.62046834  1
  Ti  Ti158  1  0.28559230  0.88795550  0.86597596  1
  Ti  Ti159  1  0.40273558  0.19237170  0.74974868  1
  Mo  Mo160  1  0.60701871  -0.00597920  0.50334295  1
  Mo  Mo161  1  0.49343893  0.29165004  0.37072715  1
  Mo  Mo162  1  0.29419156  0.29951215  0.61826373  1
  Mo  Mo163  1  -0.00218052  0.59124684  0.24788104  1
  Mo  Mo164  1  0.60162956  0.80421440  0.01041826  1
  Mo  Mo165  1  0.90763745  0.10003315  0.63140885  1
  Mo  Mo166  1  0.29579046  0.49873760  0.12280067  1
  Mo  Mo167  1  0.19270953  0.80920148  0.75222008  1
  Mo  Mo168  1  0.89428642  0.29617122  0.12958437  1
  Mo  Mo169  1  0.19674333  0.80590053  -0.00120683  1
  Mo  Mo170  1  0.58756765  0.60528531  -0.00686496  1
  Mo  Mo171  1  0.79582693  0.21851880  0.51191529  1
  Mo  Mo172  1  0.40304068  0.60601216  0.25645699  1
  Mo  Mo173  1  0.69946552  0.70368361  0.11072612  1
  Mo  Mo174  1  0.70558275  0.91235416  0.88145139  1
  Mo  Mo175  1  0.30272116  0.10425715  0.13569808  1
  Mo  Mo176  1  0.30738625  0.68839010  0.12282053  1
  Mo  Mo177  1  0.79892421  0.80151910  0.01647078  1
  Mo  Mo178  1  0.50729461  0.09904069  0.62817266  1
  Mo  Mo179  1  0.08095943  0.31263974  0.62177138  1
  Mo  Mo180  1  0.49407770  0.50322999  0.87134185  1
  Mo  Mo181  1  0.29872638  0.70831142  0.37438212  1
  Mo  Mo182  1  0.29857669  0.69300809  0.87653583  1
  Mo  Mo183  1  0.69633239  0.90176950  0.11755283  1
  Mo  Mo184  1  0.68987243  0.10581009  0.12914238  1
  Mo  Mo185  1  0.00894983  0.60310972  -0.00507087  1
  Mo  Mo186  1  0.00181081  0.80013500  0.25439262  1
  Mo  Mo187  1  0.69906023  0.30183416  0.37247697  1
  Mo  Mo188  1  0.40135369  0.00672708  -0.00962958  1
  Mo  Mo189  1  0.00444077  0.81071731  -0.00590771  1
  Mo  Mo190  1  0.29052629  0.70629590  0.62541098  1
  Mo  Mo191  1  0.20429872  0.00105627  0.75417014  1
  Mo  Mo192  1  0.70509750  0.50262883  0.87621962  1
  Mo  Mo193  1  0.69871299  0.70146069  0.37412665  1
  Mo  Mo194  1  0.40262612  0.19976428  0.49130296  1
  Mo  Mo195  1  0.69176009  0.08636532  0.87243117  1
  Mo  Mo196  1  0.00183864  0.39873929  -0.00523906  1
  Mo  Mo197  1  0.50481931  0.89863534  0.63304627  1
  Mo  Mo198  1  0.20074537  0.21818419  0.50881622  1
  Mo  Mo199  1  0.91269318  0.10239946  0.36414507  1
