# generated using pymatgen
data_HfZrTaTiMo
_symmetry_space_group_name_H-M   'P 1'
_cell_length_a   15.21773144
_cell_length_b   15.20553898
_cell_length_c   16.83827644
_cell_angle_alpha   89.98862277
_cell_angle_beta   89.95139062
_cell_angle_gamma   89.85096278
_symmetry_Int_Tables_number   1
_chemical_formula_structural   HfZrTaTiMo
_chemical_formula_sum   'Hf40 Zr40 Ta40 Ti40 Mo40'
_cell_volume   3896.25825806
_cell_formula_units_Z   40
loop_
 _symmetry_equiv_pos_site_id
 _symmetry_equiv_pos_as_xyz
  1  'x, y, z'
loop_
 _atom_site_type_symbol
 _atom_site_label
 _atom_site_symmetry_multiplicity
 _atom_site_fract_x
 _atom_site_fract_y
 _atom_site_fract_z
 _atom_site_occupancy
  Hf  Hf0  1  0.21566950  0.19231700  0.76711173  1
  Hf  Hf1  1  0.80134469  0.39879203  0.26470132  1
  Hf  Hf2  1  0.89102807  0.29743377  0.12890449  1
  Hf  Hf3  1  0.30324407  0.52149076  0.36830555  1
  Hf  Hf4  1  0.32214560  0.31243496  0.63632876  1
  Hf  Hf5  1  0.19494399  0.60402597  -0.01194709  1
  Hf  Hf6  1  0.00102707  0.78639551  0.00117295  1
  Hf  Hf7  1  0.80835300  0.58886910  -0.00813520  1
  Hf  Hf8  1  0.79934852  0.19643145  0.47980450  1
  Hf  Hf9  1  0.29127919  0.11236133  0.60769989  1
  Hf  Hf10  1  0.69422460  0.69595299  0.12005756  1
  Hf  Hf11  1  0.59330311  0.19094935  0.01565801  1
  Hf  Hf12  1  0.20021147  -0.00769160  0.74847990  1
  Hf  Hf13  1  0.30247264  0.49372453  0.85938222  1
  Hf  Hf14  1  -0.00724812  0.19868993  -0.00621578  1
  Hf  Hf15  1  0.59969894  -0.00370594  0.00973740  1
  Hf  Hf16  1  0.09618881  0.89275915  0.13614285  1
  Hf  Hf17  1  0.10075941  0.90302224  0.35770715  1
  Hf  Hf18  1  0.09979861  0.89096048  0.88052903  1
  Hf  Hf19  1  0.30678349  0.31834332  0.35574867  1
  Hf  Hf20  1  0.01294816  0.19238293  0.49257806  1
  Hf  Hf21  1  0.39795388  0.00934242  0.73227755  1
  Hf  Hf22  1  0.69635596  0.70164333  0.87618794  1
  Hf  Hf23  1  0.40407393  0.21077951  0.48473140  1
  Hf  Hf24  1  0.09551564  0.89235076  0.62523351  1
  Hf  Hf25  1  0.29968879  0.92617500  0.88735492  1
  Hf  Hf26  1  0.80119838  0.59877114  0.26203012  1
  Hf  Hf27  1  0.70451464  0.49436920  0.12720831  1
  Hf  Hf28  1  0.60076999  0.21549970  0.47555634  1
  Hf  Hf29  1  0.20948489  0.80423289  0.01006103  1
  Hf  Hf30  1  0.89388708  0.89587366  0.87868817  1
  Hf  Hf31  1  0.10223001  0.48657407  0.38660856  1
  Hf  Hf32  1  0.21679635  0.80477225  0.50153111  1
  Hf  Hf33  1  0.00175319  0.19087276  0.76669140  1
  Hf  Hf34  1  -0.02195846  0.39223469  0.74048248  1
  Hf  Hf35  1  0.70061155  0.90943610  0.61626903  1
  Hf  Hf36  1  0.00822606  0.58105392  0.25599392  1
  Hf  Hf37  1  0.79484540  0.58287554  0.75806187  1
  Hf  Hf38  1  0.39577942  0.01667047  0.01661059  1
  Hf  Hf39  1  0.11149435  0.29257509  0.63363320  1
  Zr  Zr40  1  0.21140052  0.39466821  0.50583213  1
  Zr  Zr41  1  0.19980755  0.00665645  0.24559900  1
  Zr  Zr42  1  0.69851253  0.31590716  0.61815389  1
  Zr  Zr43  1  0.67982436  0.51014291  0.37965545  1
  Zr  Zr44  1  0.00624240  0.79359798  0.49001532  1
  Zr  Zr45  1  0.48853099  0.09919155  0.87409296  1
  Zr  Zr46  1  0.80225003  0.22664698  0.75806752  1
  Zr  Zr47  1  0.88107043  0.49985051  0.61331591  1
  Zr  Zr48  1  0.80242304  0.79901605  0.74657421  1
  Zr  Zr49  1  0.09565227  0.09298177  0.62967594  1
  Zr  Zr50  1  0.69771236  0.90990351  0.87301091  1
  Zr  Zr51  1  0.39731341  -0.01625307  0.49952952  1
  Zr  Zr52  1  0.39831626  0.60392073  0.00615010  1
  Zr  Zr53  1  -0.01199862  -0.01174536  0.49576078  1
  Zr  Zr54  1  0.57817675  0.41632465  0.25283740  1
  Zr  Zr55  1  0.59477389  0.38840364  0.01661403  1
  Zr  Zr56  1  0.89346579  0.09314957  0.88276387  1
  Zr  Zr57  1  0.59110308  0.59398066  -0.00951641  1
  Zr  Zr58  1  0.20632782  0.40581753  0.00631202  1
  Zr  Zr59  1  0.30959440  0.71530360  0.87069882  1
  Zr  Zr60  1  0.11356521  0.68114985  0.13701340  1
  Zr  Zr61  1  0.21163654  0.19033341  -0.00518351  1
  Zr  Zr62  1  0.90096045  0.69535514  0.12381369  1
  Zr  Zr63  1  0.90744757  0.70479262  0.61821368  1
  Zr  Zr64  1  0.50629626  0.47990495  0.63611169  1
  Zr  Zr65  1  0.50796285  0.31032501  0.87486736  1
  Zr  Zr66  1  0.68753069  0.90555777  0.37642256  1
  Zr  Zr67  1  0.41634488  0.61226586  0.23528605  1
  Zr  Zr68  1  0.90369733  0.08249758  0.35889533  1
  Zr  Zr69  1  0.12033040  0.69023373  0.36910652  1
  Zr  Zr70  1  0.10304061  0.31234388  0.87171971  1
  Zr  Zr71  1  0.78909680  0.39645854  0.48341471  1
  Zr  Zr72  1  0.89267797  0.10640846  0.62650405  1
  Zr  Zr73  1  0.29375480  0.10340815  0.36880046  1
  Zr  Zr74  1  0.49601835  0.88740342  0.86991647  1
  Zr  Zr75  1  0.78587857  0.79291299  0.25583506  1
  Zr  Zr76  1  0.70475053  0.68392678  0.60517588  1
  Zr  Zr77  1  0.38801307  0.81118803  0.72030531  1
  Zr  Zr78  1  0.09716195  0.29935832  0.12085568  1
  Zr  Zr79  1  0.59175984  0.79457366  0.73373972  1
  Ta  Ta80  1  0.41024282  0.80411430  0.01690134  1
  Ta  Ta81  1  0.10860698  0.29077029  0.37180066  1
  Ta  Ta82  1  0.69603425  0.70395201  0.39612431  1
  Ta  Ta83  1  0.00721934  0.79227318  0.75557058  1
  Ta  Ta84  1  0.89825007  0.09679536  0.13167724  1
  Ta  Ta85  1  0.59501204  0.01136045  0.49448844  1
  Ta  Ta86  1  0.19109317  0.41810992  0.23885594  1
  Ta  Ta87  1  0.00779191  0.18966254  0.25020968  1
  Ta  Ta88  1  0.91166512  0.68966829  0.87375209  1
  Ta  Ta89  1  0.40199127  0.21800078  0.01113341  1
  Ta  Ta90  1  0.00100274  -0.00659829  0.01334418  1
  Ta  Ta91  1  0.31083835  0.12286055  0.14202429  1
  Ta  Ta92  1  0.78546411  0.20544732  0.00347216  1
  Ta  Ta93  1  0.59541198  0.79648653  0.00085346  1
  Ta  Ta94  1  0.89168844  0.90229586  0.13505145  1
  Ta  Ta95  1  0.19039471  0.00529563  0.48644608  1
  Ta  Ta96  1  -0.00100551  0.38813738  0.51189413  1
  Ta  Ta97  1  0.69333909  0.89584983  0.12968759  1
  Ta  Ta98  1  0.50125525  0.09567230  0.15200221  1
  Ta  Ta99  1  0.90788186  0.49361703  0.12491794  1
  Ta  Ta100  1  0.69216218  0.11048367  0.61969597  1
  Ta  Ta101  1  0.50720277  0.69528816  0.38280422  1
  Ta  Ta102  1  0.30169922  0.50669526  0.63987719  1
  Ta  Ta103  1  0.89626358  0.89316673  0.35404772  1
  Ta  Ta104  1  0.48356456  0.29116744  0.14964372  1
  Ta  Ta105  1  0.40750282  0.61031320  0.74714706  1
  Ta  Ta106  1  0.50360078  0.11321349  0.61573765  1
  Ta  Ta107  1  0.69204118  0.10764238  0.87499915  1
  Ta  Ta108  1  0.41844388  0.40913343  0.49303836  1
  Ta  Ta109  1  0.09304555  0.50805666  0.85649912  1
  Ta  Ta110  1  0.50129903  0.08505006  0.35989401  1
  Ta  Ta111  1  0.69352830  0.28858773  0.14563115  1
  Ta  Ta112  1  0.31601440  0.30354134  0.87085241  1
  Ta  Ta113  1  -0.00617855  0.40738889  -0.00272827  1
  Ta  Ta114  1  0.58362146  0.80930271  0.50726439  1
  Ta  Ta115  1  0.79818016  0.19581400  0.26271789  1
  Ta  Ta116  1  0.10305509  0.49923915  0.63486099  1
  Ta  Ta117  1  0.60418257  0.19922067  0.74736586  1
  Ta  Ta118  1  0.78966122  0.01370324  0.74680286  1
  Ta  Ta119  1  0.91514012  0.29899809  0.36999959  1
  Ti  Ti120  1  0.60050311  0.19974756  0.26753875  1
  Ti  Ti121  1  0.00571051  0.59210609  0.50412408  1
  Ti  Ti122  1  0.10152937  0.09586777  0.11975901  1
  Ti  Ti123  1  0.32159013  0.71879153  0.37221171  1
  Ti  Ti124  1  0.79654472  0.80458938  0.00246040  1
  Ti  Ti125  1  0.58595296  0.58402706  0.50563301  1
  Ti  Ti126  1  0.28688372  0.52068186  0.13305838  1
  Ti  Ti127  1  0.22545117  0.79291602  0.24514578  1
  Ti  Ti128  1  0.79621967  0.00523153  0.01130573  1
  Ti  Ti129  1  0.60215102  0.59598920  0.75034242  1
  Ti  Ti130  1  0.39348546  0.60303245  0.50711030  1
  Ti  Ti131  1  0.40127752  0.79617756  0.51462731  1
  Ti  Ti132  1  -0.00219871  0.60180623  0.74707907  1
  Ti  Ti133  1  0.00259200  0.39050877  0.24985379  1
  Ti  Ti134  1  0.39925461  0.40768315  0.02415635  1
  Ti  Ti135  1  0.90621482  0.49860497  0.38871769  1
  Ti  Ti136  1  0.58917994  -0.02439743  0.25043554  1
  Ti  Ti137  1  0.70420372  0.47009762  0.88499552  1
  Ti  Ti138  1  0.59589955  0.00647830  0.73943719  1
  Ti  Ti139  1  0.70267130  0.09400118  0.14420222  1
  Ti  Ti140  1  0.61784303  0.39738178  0.75399638  1
  Ti  Ti141  1  0.79242219  0.00424562  0.49342251  1
  Ti  Ti142  1  -0.00376138  0.78844377  0.25203415  1
  Ti  Ti143  1  0.19915525  0.60727758  0.75107460  1
  Ti  Ti144  1  0.89888952  0.48255135  0.87477468  1
  Ti  Ti145  1  0.11076977  0.08097616  0.88852904  1
  Ti  Ti146  1  -0.00751453  -0.00874727  0.75588012  1
  Ti  Ti147  1  0.49657204  0.68953166  0.61853836  1
  Ti  Ti148  1  0.19776295  0.21238998  0.24388048  1
  Ti  Ti149  1  0.30762060  0.91059638  0.13054985  1
  Ti  Ti150  1  0.89725286  0.90455533  0.63139474  1
  Ti  Ti151  1  0.41371909  0.20572981  0.74787692  1
  Ti  Ti152  1  0.41953131  0.81459542  0.23952512  1
  Ti  Ti153  1  0.10568305  0.69182652  0.62649979  1
  Ti  Ti154  1  0.00659085  0.59034471  -0.00567642  1
  Ti  Ti155  1  0.50001528  0.50417114  0.86331170  1
  Ti  Ti156  1  0.80646682  0.80944121  0.49303937  1
  Ti  Ti157  1  0.20527793  0.60184259  0.51275175  1
  Ti  Ti158  1  0.90253185  0.69548043  0.38214145  1
  Ti  Ti159  1  0.20014588  0.79441262  0.74277992  1
  Mo  Mo160  1  0.48538270  0.88380612  0.37557486  1
  Mo  Mo161  1  0.29403521  0.69027924  0.62518307  1
  Mo  Mo162  1  0.69882781  0.29607820  0.88174706  1
  Mo  Mo163  1  0.29911834  0.30842276  0.13811263  1
  Mo  Mo164  1  0.40026331  -0.00295105  0.24656939  1
  Mo  Mo165  1  0.60677841  0.61727948  0.25377556  1
  Mo  Mo166  1  0.58843390  0.39704150  0.48703597  1
  Mo  Mo167  1  0.79174517  0.40572030  0.75099066  1
  Mo  Mo168  1  0.30551333  0.71392885  0.12613816  1
  Mo  Mo169  1  0.79006663  -0.00268702  0.24026721  1
  Mo  Mo170  1  0.80154965  0.39160704  0.00837374  1
  Mo  Mo171  1  0.30538816  0.10974276  0.87938824  1
  Mo  Mo172  1  0.90570590  0.29564112  0.61673129  1
  Mo  Mo173  1  0.09861135  0.69584913  0.86682953  1
  Mo  Mo174  1  0.20815526  0.60302674  0.25428520  1
  Mo  Mo175  1  0.09231058  0.49718484  0.12181956  1
  Mo  Mo176  1  0.48468797  0.51140235  0.37932563  1
  Mo  Mo177  1  0.69967813  0.29943338  0.35688110  1
  Mo  Mo178  1  -0.00219028  -0.00429054  0.23325773  1
  Mo  Mo179  1  0.49814328  0.50039035  0.12248250  1
  Mo  Mo180  1  0.40774901  0.40173584  0.75406890  1
  Mo  Mo181  1  0.49975120  0.69722833  0.86575262  1
  Mo  Mo182  1  0.88762001  0.30969959  0.89176790  1
  Mo  Mo183  1  0.19716424  0.00301366  0.01999558  1
  Mo  Mo184  1  0.50866040  0.70588493  0.12466544  1
  Mo  Mo185  1  0.80752405  0.60602596  0.48265672  1
  Mo  Mo186  1  0.28683117  0.90517974  0.61870698  1
  Mo  Mo187  1  0.40329682  0.20247110  0.26379942  1
  Mo  Mo188  1  0.69265728  0.09231359  0.36227100  1
  Mo  Mo189  1  0.30896279  0.89116416  0.36443146  1
  Mo  Mo190  1  0.59152815  0.78525726  0.25381419  1
  Mo  Mo191  1  0.50487551  0.91132888  0.61631582  1
  Mo  Mo192  1  0.69281357  0.50670891  0.61848509  1
  Mo  Mo193  1  0.49430949  0.30773472  0.35712830  1
  Mo  Mo194  1  0.19837788  0.40592358  0.74652117  1
  Mo  Mo195  1  0.20368582  0.20342390  0.49408958  1
  Mo  Mo196  1  0.50950716  0.28868710  0.62620569  1
  Mo  Mo197  1  0.50566978  0.90050815  0.12491123  1
  Mo  Mo198  1  0.38688805  0.41378962  0.23253236  1
  Mo  Mo199  1  0.10045379  0.10434531  0.36731396  1
