# generated using pymatgen
data_HfZrTaTiMo
_symmetry_space_group_name_H-M   'P 1'
_cell_length_a   15.19763163
_cell_length_b   15.17132320
_cell_length_c   16.82041189
_cell_angle_alpha   89.99042143
_cell_angle_beta   90.06070102
_cell_angle_gamma   89.91671476
_symmetry_Int_Tables_number   1
_chemical_formula_structural   HfZrTaTiMo
_chemical_formula_sum   'Hf40 Zr40 Ta40 Ti40 Mo40'
_cell_volume   3878.24545021
_cell_formula_units_Z   40
loop_
 _symmetry_equiv_pos_site_id
 _symmetry_equiv_pos_as_xyz
  1  'x, y, z'
loop_
 _atom_site_type_symbol
 _atom_site_label
 _atom_site_symmetry_multiplicity
 _atom_site_fract_x
 _atom_site_fract_y
 _atom_site_fract_z
 _atom_site_occupancy
  Hf  Hf0  1  0.08807927  0.90521533  0.87220237  1
  Hf  Hf1  1  0.30333623  0.28861653  0.37654583  1
  Hf  Hf2  1  0.90075421  0.09070094  0.88774022  1
  Hf  Hf3  1  0.80852872  0.40416961  0.49804875  1
  Hf  Hf4  1  0.60009893  0.00412518  0.25070446  1
  Hf  Hf5  1  0.78884405  0.20536686  0.24363950  1
  Hf  Hf6  1  0.70680471  0.68991332  0.13157370  1
  Hf  Hf7  1  0.20357639  0.78283000  0.75450349  1
  Hf  Hf8  1  0.59373400  0.59946445  -0.00430575  1
  Hf  Hf9  1  0.90149398  0.51498401  0.13120011  1
  Hf  Hf10  1  0.32103039  0.50205009  0.38712160  1
  Hf  Hf11  1  0.51618535  0.89338265  0.62677537  1
  Hf  Hf12  1  0.59070979  0.60363525  0.74389808  1
  Hf  Hf13  1  0.69855623  0.70532051  0.87378117  1
  Hf  Hf14  1  0.90746949  0.30515054  0.87289625  1
  Hf  Hf15  1  0.78545520  0.80089335  0.73273287  1
  Hf  Hf16  1  0.81441703  0.78372154  0.25874293  1
  Hf  Hf17  1  0.59437394  0.38959280  -0.01099961  1
  Hf  Hf18  1  0.40092171  0.01013459  0.50749785  1
  Hf  Hf19  1  0.10135278  0.30631314  0.34762221  1
  Hf  Hf20  1  0.31435808  0.11151274  0.87256743  1
  Hf  Hf21  1  0.70452275  0.30139285  0.63053626  1
  Hf  Hf22  1  0.81168064  0.19553515  0.49865731  1
  Hf  Hf23  1  0.58513701  0.58640235  0.25697061  1
  Hf  Hf24  1  0.79887434  0.57285853  0.27307115  1
  Hf  Hf25  1  0.80255102  0.00089048  0.49436029  1
  Hf  Hf26  1  0.10626837  0.29172793  0.14790140  1
  Hf  Hf27  1  0.49933008  0.32031863  0.39957476  1
  Hf  Hf28  1  0.20931024  0.19224855  0.51141045  1
  Hf  Hf29  1  -0.00191580  0.58817289  -0.00683259  1
  Hf  Hf30  1  0.19690087  0.79615146  0.00753871  1
  Hf  Hf31  1  0.30811230  0.89330446  0.64271746  1
  Hf  Hf32  1  0.07659968  0.69834570  0.13691840  1
  Hf  Hf33  1  0.10467317  0.30876641  0.63568570  1
  Hf  Hf34  1  0.79681177  -0.01904105  0.01474925  1
  Hf  Hf35  1  0.59393331  0.20402670  0.24708894  1
  Hf  Hf36  1  0.10742749  0.88803751  0.37563792  1
  Hf  Hf37  1  0.70011328  0.47965127  0.11870899  1
  Hf  Hf38  1  0.80361567  0.18904335  0.75298789  1
  Hf  Hf39  1  0.20530906  0.59680884  0.01328140  1
  Zr  Zr40  1  0.39447014  0.22905900  0.00086654  1
  Zr  Zr41  1  0.49452816  0.69640383  0.12904875  1
  Zr  Zr42  1  0.19281867  0.39632792  0.49612487  1
  Zr  Zr43  1  -0.01606822  0.79773067  0.00137492  1
  Zr  Zr44  1  0.48938258  0.11209337  0.38019983  1
  Zr  Zr45  1  0.20184215  0.00638876  0.75238520  1
  Zr  Zr46  1  0.90865331  0.90375200  0.37201776  1
  Zr  Zr47  1  0.20740533  -0.00551229  0.50268080  1
  Zr  Zr48  1  0.10252348  0.10395198  0.37126796  1
  Zr  Zr49  1  0.78712624  0.20648288  0.00646241  1
  Zr  Zr50  1  0.21172905  0.39848140  0.00657886  1
  Zr  Zr51  1  0.89843809  0.31093324  0.12614647  1
  Zr  Zr52  1  0.19588005  0.79208736  0.50527164  1
  Zr  Zr53  1  0.70472741  0.49883766  0.86789564  1
  Zr  Zr54  1  0.80259090  0.79899894  0.49861884  1
  Zr  Zr55  1  0.49849244  0.90869700  0.12370398  1
  Zr  Zr56  1  0.69205636  0.69069732  0.38391401  1
  Zr  Zr57  1  0.38958946  0.21177324  0.23881331  1
  Zr  Zr58  1  0.09506447  0.10034909  0.63221034  1
  Zr  Zr59  1  0.09509082  0.50492822  0.35651940  1
  Zr  Zr60  1  0.69891222  0.29765625  0.86134928  1
  Zr  Zr61  1  0.21332728  0.00252863  0.25214542  1
  Zr  Zr62  1  0.59188832  0.18793490  0.74466380  1
  Zr  Zr63  1  0.39185713  0.41440302  0.73204631  1
  Zr  Zr64  1  0.18918648  0.20787631  -0.00449583  1
  Zr  Zr65  1  0.40119358  0.80040198  -0.00281902  1
  Zr  Zr66  1  0.48516516  0.69856481  0.62085895  1
  Zr  Zr67  1  0.21615862  0.59733378  0.24398220  1
  Zr  Zr68  1  0.61190512  -0.01244513  0.74601892  1
  Zr  Zr69  1  0.10333214  0.69226825  0.87713691  1
  Zr  Zr70  1  0.39192732  0.80741765  0.49091465  1
  Zr  Zr71  1  0.80713955  0.00748578  0.24543729  1
  Zr  Zr72  1  0.09937248  0.48584884  0.14818511  1
  Zr  Zr73  1  0.31478491  0.89578762  0.86614507  1
  Zr  Zr74  1  -0.00347709  0.59763065  0.75683383  1
  Zr  Zr75  1  0.30121743  0.10170115  0.11415701  1
  Zr  Zr76  1  0.61539795  0.39703557  0.25908008  1
  Zr  Zr77  1  0.20044188  -0.00309366  -0.00536296  1
  Zr  Zr78  1  0.90821676  0.30962658  0.63384242  1
  Zr  Zr79  1  0.88705500  0.89185183  0.87423684  1
  Ta  Ta80  1  0.50374076  0.30894801  0.61720487  1
  Ta  Ta81  1  0.59519251  0.79637367  0.25805382  1
  Ta  Ta82  1  0.91507288  0.88846302  0.13265092  1
  Ta  Ta83  1  0.50122497  0.32060644  0.12161872  1
  Ta  Ta84  1  0.79884342  0.59404806  0.73510312  1
  Ta  Ta85  1  0.80308851  -0.00286672  0.74376905  1
  Ta  Ta86  1  0.39218136  0.80464590  0.25820630  1
  Ta  Ta87  1  0.58476209  0.18843295  -0.00806686  1
  Ta  Ta88  1  0.90244725  0.69253598  0.61918147  1
  Ta  Ta89  1  0.60407174  -0.00465315  0.49641267  1
  Ta  Ta90  1  0.39799109  0.20323323  0.73060587  1
  Ta  Ta91  1  0.19508602  0.80501585  0.24124275  1
  Ta  Ta92  1  0.29176740  0.50704208  0.61116284  1
  Ta  Ta93  1  -0.01323310  0.18437162  0.24878682  1
  Ta  Ta94  1  0.00020961  0.00541209  0.50210283  1
  Ta  Ta95  1  0.48414852  0.68789133  0.37982397  1
  Ta  Ta96  1  0.51365011  0.91375434  0.88155322  1
  Ta  Ta97  1  0.69171858  0.08150473  0.88450964  1
  Ta  Ta98  1  0.09322211  0.89341109  0.63028485  1
  Ta  Ta99  1  0.60246161  0.19290191  0.50979011  1
  Ta  Ta100  1  0.68933497  0.70051864  0.61375263  1
  Ta  Ta101  1  0.69572940  0.90059003  0.36798699  1
  Ta  Ta102  1  0.29663048  0.50721621  0.87404449  1
  Ta  Ta103  1  0.90212520  0.30019510  0.36681122  1
  Ta  Ta104  1  0.41754475  0.42094036  0.25375360  1
  Ta  Ta105  1  0.48989081  0.50201294  0.86832055  1
  Ta  Ta106  1  0.08913593  0.50645859  0.61990879  1
  Ta  Ta107  1  0.09446617  0.10685714  0.87193605  1
  Ta  Ta108  1  -0.00779395  0.79977731  0.74338009  1
  Ta  Ta109  1  0.09574113  0.69382254  0.62724171  1
  Ta  Ta110  1  0.28696249  0.70514968  0.36855724  1
  Ta  Ta111  1  0.70413844  0.08760083  0.61925901  1
  Ta  Ta112  1  0.69969749  0.29664489  0.38841799  1
  Ta  Ta113  1  0.50026028  0.89960898  0.37219432  1
  Ta  Ta114  1  0.48789036  0.30120530  0.86055787  1
  Ta  Ta115  1  0.00516685  0.20835996  0.49326229  1
  Ta  Ta116  1  0.90408407  0.90414231  0.62188790  1
  Ta  Ta117  1  0.09199603  0.08926168  0.12670116  1
  Ta  Ta118  1  0.69879648  0.50338784  0.61691852  1
  Ta  Ta119  1  0.20059442  0.58370492  0.74569834  1
  Ti  Ti120  1  0.68850071  0.09733322  0.11610048  1
  Ti  Ti121  1  0.41597015  0.01234629  0.74344370  1
  Ti  Ti122  1  0.80767210  0.40498055  -0.00485866  1
  Ti  Ti123  1  0.90411508  0.09416220  0.11497666  1
  Ti  Ti124  1  0.39746894  0.20304423  0.52528861  1
  Ti  Ti125  1  0.39952631  0.59788978  -0.00677798  1
  Ti  Ti126  1  0.00252558  0.19675795  0.75545822  1
  Ti  Ti127  1  0.00774410  -0.00965528  0.24588417  1
  Ti  Ti128  1  0.90480803  0.10185944  0.62533928  1
  Ti  Ti129  1  0.29776118  0.31809303  0.86012485  1
  Ti  Ti130  1  0.59768589  0.40650887  0.74342292  1
  Ti  Ti131  1  0.29343400  0.69227261  0.62328993  1
  Ti  Ti132  1  0.49667985  0.50510763  0.59865746  1
  Ti  Ti133  1  0.33164218  0.49631286  0.12565555  1
  Ti  Ti134  1  0.00108160  0.19769753  0.00303689  1
  Ti  Ti135  1  0.70118126  0.10108955  0.37726889  1
  Ti  Ti136  1  0.69899038  0.89302930  0.88186146  1
  Ti  Ti137  1  -0.00013041  0.40544811  0.49437999  1
  Ti  Ti138  1  0.30516120  0.70277183  0.13210706  1
  Ti  Ti139  1  0.80517456  0.59606753  0.49582874  1
  Ti  Ti140  1  0.10369690  0.30186002  0.86259150  1
  Ti  Ti141  1  0.88941006  0.69754808  0.86882867  1
  Ti  Ti142  1  0.18907808  0.60304983  0.49252495  1
  Ti  Ti143  1  0.80361396  0.60817311  -0.00164042  1
  Ti  Ti144  1  0.70147252  0.88942112  0.13596058  1
  Ti  Ti145  1  0.49732683  0.10368573  0.11678480  1
  Ti  Ti146  1  0.00197150  0.79468834  0.50257709  1
  Ti  Ti147  1  -0.00271683  0.41057356  0.75025411  1
  Ti  Ti148  1  0.10355106  0.48637012  0.87349186  1
  Ti  Ti149  1  -0.00350822  0.60054835  0.48991777  1
  Ti  Ti150  1  0.38675588  0.61726872  0.75597898  1
  Ti  Ti151  1  0.60940848  0.80524454  0.00658315  1
  Ti  Ti152  1  -0.00805577  0.00088862  0.74758578  1
  Ti  Ti153  1  0.89522492  0.49882201  0.87213731  1
  Ti  Ti154  1  0.59776765  0.80105971  0.49030343  1
  Ti  Ti155  1  0.20825622  0.20877743  0.74683514  1
  Ti  Ti156  1  0.30302313  0.90207418  0.12272168  1
  Ti  Ti157  1  0.40084948  0.00423738  0.25701581  1
  Ti  Ti158  1  0.01043665  0.39234310  -0.00138328  1
  Ti  Ti159  1  0.49462624  0.71251420  0.86952562  1
  Mo  Mo160  1  0.23745046  0.39165068  0.24684381  1
  Mo  Mo161  1  0.19819053  0.19304726  0.24566539  1
  Mo  Mo162  1  0.30474336  0.10010993  0.63874953  1
  Mo  Mo163  1  0.10439616  0.90130876  0.12775233  1
  Mo  Mo164  1  0.59711331  0.60353903  0.50421503  1
  Mo  Mo165  1  0.19224860  0.40777455  0.74863287  1
  Mo  Mo166  1  0.30722556  0.10116610  0.37732347  1
  Mo  Mo167  1  0.89029173  0.69625060  0.12786188  1
  Mo  Mo168  1  0.38280948  0.60667295  0.50151936  1
  Mo  Mo169  1  0.09607206  0.70041327  0.36806002  1
  Mo  Mo170  1  0.49842071  0.10174110  0.87474861  1
  Mo  Mo171  1  0.90604657  0.10697543  0.37436027  1
  Mo  Mo172  1  0.50670900  0.10082697  0.61721424  1
  Mo  Mo173  1  0.30417899  0.31475426  0.13156952  1
  Mo  Mo174  1  0.41761260  0.01697110  -0.00739757  1
  Mo  Mo175  1  0.30621856  0.68787055  0.87649221  1
  Mo  Mo176  1  0.68861058  0.28936493  0.11579709  1
  Mo  Mo177  1  0.79362657  0.39002638  0.25948491  1
  Mo  Mo178  1  0.59723234  0.79491281  0.75401804  1
  Mo  Mo179  1  0.29847701  0.30550265  0.62827457  1
  Mo  Mo180  1  -0.03036589  0.40314353  0.25471160  1
  Mo  Mo181  1  0.00470862  0.80091190  0.25169734  1
  Mo  Mo182  1  0.69097425  0.48932306  0.39926907  1
  Mo  Mo183  1  -0.01216885  0.61471893  0.26593167  1
  Mo  Mo184  1  0.60673240  0.39899380  0.50951327  1
  Mo  Mo185  1  0.90435149  0.50851174  0.61837844  1
  Mo  Mo186  1  0.60348412  -0.00205154  0.00587413  1
  Mo  Mo187  1  0.39425617  0.39702081  0.51838286  1
  Mo  Mo188  1  0.30741568  0.90211121  0.36824775  1
  Mo  Mo189  1  0.80279455  0.41201832  0.74367992  1
  Mo  Mo190  1  0.90071149  0.49339194  0.38094379  1
  Mo  Mo191  1  0.70401067  0.89536215  0.61310446  1
  Mo  Mo192  1  0.40356132  0.60638404  0.25293970  1
  Mo  Mo193  1  0.50355678  0.50159449  0.11867392  1
  Mo  Mo194  1  0.41263952  0.80316089  0.75986282  1
  Mo  Mo195  1  0.50809972  0.50818528  0.39923186  1
  Mo  Mo196  1  0.78973271  0.79103027  0.00962840  1
  Mo  Mo197  1  0.91253683  0.69334317  0.38573382  1
  Mo  Mo198  1  0.00133879  0.00439751  0.00876693  1
  Mo  Mo199  1  0.40405595  0.41476430  -0.01133876  1
