# generated using pymatgen
data_HfZrTaTiMo
_symmetry_space_group_name_H-M   'P 1'
_cell_length_a   15.21362406
_cell_length_b   15.20835584
_cell_length_c   16.83586438
_cell_angle_alpha   89.96880323
_cell_angle_beta   89.99675173
_cell_angle_gamma   89.99433463
_symmetry_Int_Tables_number   1
_chemical_formula_structural   HfZrTaTiMo
_chemical_formula_sum   'Hf40 Zr40 Ta40 Ti40 Mo40'
_cell_volume   3895.38419183
_cell_formula_units_Z   40
loop_
 _symmetry_equiv_pos_site_id
 _symmetry_equiv_pos_as_xyz
  1  'x, y, z'
loop_
 _atom_site_type_symbol
 _atom_site_label
 _atom_site_symmetry_multiplicity
 _atom_site_fract_x
 _atom_site_fract_y
 _atom_site_fract_z
 _atom_site_occupancy
  Hf  Hf0  1  0.88788248  0.11076458  0.11415913  1
  Hf  Hf1  1  0.40939442  0.00761023  0.23593708  1
  Hf  Hf2  1  0.88952338  0.29324340  0.63466372  1
  Hf  Hf3  1  0.60831912  0.20102998  0.76197033  1
  Hf  Hf4  1  0.20272255  0.59579652  0.02156312  1
  Hf  Hf5  1  0.08661360  0.11512482  0.11420715  1
  Hf  Hf6  1  0.20070631  0.21094950  -0.00110906  1
  Hf  Hf7  1  0.40403245  0.79454883  0.49151975  1
  Hf  Hf8  1  0.60404999  0.60378640  -0.00556623  1
  Hf  Hf9  1  0.00605884  0.80688087  0.48404007  1
  Hf  Hf10  1  0.38402183  0.19514120  0.49983062  1
  Hf  Hf11  1  0.00636995  0.60902673  0.01168115  1
  Hf  Hf12  1  0.11149227  0.71497010  0.62351276  1
  Hf  Hf13  1  0.60194984  -0.01395454  0.25820922  1
  Hf  Hf14  1  0.11332335  0.09106437  0.88298788  1
  Hf  Hf15  1  0.00830870  0.19051617  0.75153521  1
  Hf  Hf16  1  0.89001912  0.90434225  0.88023369  1
  Hf  Hf17  1  -0.00324456  0.60875859  0.50797563  1
  Hf  Hf18  1  0.20108157  0.00162030  0.23715701  1
  Hf  Hf19  1  0.59542688  -0.00567176  0.74972464  1
  Hf  Hf20  1  0.81047140  0.79746335  0.50151985  1
  Hf  Hf21  1  0.01433958  0.19819568  0.50850328  1
  Hf  Hf22  1  0.48471421  0.50866436  0.38547329  1
  Hf  Hf23  1  0.59394351  0.38792918  -0.01738842  1
  Hf  Hf24  1  -0.00988411  0.62102292  0.73328333  1
  Hf  Hf25  1  -0.00445586  0.39906249  0.51477234  1
  Hf  Hf26  1  0.79521795  0.00527787  0.25482483  1
  Hf  Hf27  1  0.48193361  0.09750872  0.87192379  1
  Hf  Hf28  1  0.50249946  0.29285317  0.12626016  1
  Hf  Hf29  1  0.70042031  0.09998094  0.62002071  1
  Hf  Hf30  1  0.72144205  0.68396997  0.85859952  1
  Hf  Hf31  1  0.29700629  0.31211343  0.12706578  1
  Hf  Hf32  1  0.70858357  0.28010885  0.11594166  1
  Hf  Hf33  1  0.08979435  0.90100135  0.11971446  1
  Hf  Hf34  1  0.30549872  0.69367958  0.87349408  1
  Hf  Hf35  1  0.78880422  0.79797935  0.00399958  1
  Hf  Hf36  1  0.69695566  0.30241723  0.61620378  1
  Hf  Hf37  1  0.40948333  0.80361845  0.23966404  1
  Hf  Hf38  1  0.58353893  0.39565686  0.76201552  1
  Hf  Hf39  1  0.89090361  0.51870686  0.86529423  1
  Zr  Zr40  1  0.49084218  0.30606129  0.61815668  1
  Zr  Zr41  1  0.40474902  0.79990266  0.01319878  1
  Zr  Zr42  1  0.50640337  0.68595950  0.61892473  1
  Zr  Zr43  1  0.80465916  0.59418802  0.01639371  1
  Zr  Zr44  1  0.50307050  0.89077570  0.63094193  1
  Zr  Zr45  1  0.90673929  0.08576502  0.62800224  1
  Zr  Zr46  1  0.29422642  0.92118483  0.89172691  1
  Zr  Zr47  1  0.27839052  0.30983870  0.38801514  1
  Zr  Zr48  1  0.10300069  0.49625007  0.38281553  1
  Zr  Zr49  1  0.90900748  0.70916651  0.13788382  1
  Zr  Zr50  1  0.70751981  0.30801185  0.39074237  1
  Zr  Zr51  1  0.09032212  0.90972774  0.62369780  1
  Zr  Zr52  1  0.37861178  0.00850252  0.74409072  1
  Zr  Zr53  1  0.39407382  0.59504299  0.01727460  1
  Zr  Zr54  1  0.19028286  0.20700795  0.24633583  1
  Zr  Zr55  1  -0.00413040  0.40504662  0.74811989  1
  Zr  Zr56  1  0.69934164  0.09689842  0.39013307  1
  Zr  Zr57  1  0.69292820  0.50962581  0.37941963  1
  Zr  Zr58  1  0.11482384  0.30302271  0.86133298  1
  Zr  Zr59  1  0.59365866  0.39370695  0.26029738  1
  Zr  Zr60  1  0.79470858  0.59755435  0.24067109  1
  Zr  Zr61  1  0.60395038  0.58627281  0.75324098  1
  Zr  Zr62  1  0.47243972  0.49812124  0.88234268  1
  Zr  Zr63  1  0.30597188  0.90174546  0.36606598  1
  Zr  Zr64  1  0.69116900  0.88091529  0.86139574  1
  Zr  Zr65  1  0.89348554  0.49439703  0.37758107  1
  Zr  Zr66  1  0.11908379  0.50014645  0.62543490  1
  Zr  Zr67  1  0.59527263  0.18543943  0.25382967  1
  Zr  Zr68  1  0.68880369  0.48732094  0.12983404  1
  Zr  Zr69  1  0.80364525  0.39399604  -0.01272160  1
  Zr  Zr70  1  0.01047737  0.39732044  -0.01213282  1
  Zr  Zr71  1  0.88870412  0.91130209  0.12363118  1
  Zr  Zr72  1  0.00983764  0.80354375  0.26568506  1
  Zr  Zr73  1  0.09180079  0.88995647  0.88878668  1
  Zr  Zr74  1  0.80279591  0.20498721  0.25230591  1
  Zr  Zr75  1  0.20130182  0.01169133  0.49663920  1
  Zr  Zr76  1  0.40529600  -0.00216479  0.50339475  1
  Zr  Zr77  1  0.77897886  0.39846306  0.76604724  1
  Zr  Zr78  1  0.10942852  0.51717786  0.86598572  1
  Zr  Zr79  1  0.19831905  0.79025169  0.01858589  1
  Ta  Ta80  1  0.49493744  0.89458684  0.87812300  1
  Ta  Ta81  1  0.58778409  0.19375791  0.49737047  1
  Ta  Ta82  1  0.70445774  0.08417592  0.88260001  1
  Ta  Ta83  1  0.91716001  0.71431631  0.87758889  1
  Ta  Ta84  1  0.82661098  0.79606166  0.73430746  1
  Ta  Ta85  1  0.68636510  0.07247795  0.10503223  1
  Ta  Ta86  1  0.70693056  0.89533007  0.62956630  1
  Ta  Ta87  1  -0.00797986  0.00835632  -0.00305978  1
  Ta  Ta88  1  0.90481865  0.10586898  0.38096204  1
  Ta  Ta89  1  0.79034670  0.80652259  0.25998112  1
  Ta  Ta90  1  0.39719417  0.59603894  0.23910753  1
  Ta  Ta91  1  0.23046958  0.19395734  0.75229003  1
  Ta  Ta92  1  0.39666804  0.58916580  0.74404128  1
  Ta  Ta93  1  -0.00070959  0.01628828  0.25850320  1
  Ta  Ta94  1  0.20690223  0.79601519  0.48947269  1
  Ta  Ta95  1  0.52573693  0.90471934  0.11253868  1
  Ta  Ta96  1  0.30237984  0.69097502  0.36247089  1
  Ta  Ta97  1  0.30547777  0.69917950  0.62614367  1
  Ta  Ta98  1  0.89847376  0.69332971  0.36845788  1
  Ta  Ta99  1  0.28857952  0.30675647  0.61576418  1
  Ta  Ta100  1  0.70568557  0.69959590  0.63035347  1
  Ta  Ta101  1  0.49692482  0.10596219  0.62980972  1
  Ta  Ta102  1  0.19126722  0.40648668  0.24952041  1
  Ta  Ta103  1  0.29073916  0.89051909  0.62291209  1
  Ta  Ta104  1  0.39859375  0.20462814  0.25712013  1
  Ta  Ta105  1  0.39103119  0.40105331  0.25687151  1
  Ta  Ta106  1  0.91974268  0.30194620  0.11781605  1
  Ta  Ta107  1  0.19741368  0.59939359  0.23758865  1
  Ta  Ta108  1  0.80340270  -0.00851677  0.49945581  1
  Ta  Ta109  1  0.60268119  0.79710533  0.26219052  1
  Ta  Ta110  1  0.90903408  0.30064430  0.38301077  1
  Ta  Ta111  1  0.61020555  0.80076038  0.48937690  1
  Ta  Ta112  1  0.40284849  0.20878227  0.00015520  1
  Ta  Ta113  1  0.59704291  0.18394442  -0.00994211  1
  Ta  Ta114  1  0.79373427  0.60026271  0.50925472  1
  Ta  Ta115  1  0.50994145  0.70944522  0.86501538  1
  Ta  Ta116  1  0.90167803  0.10191647  0.87295602  1
  Ta  Ta117  1  0.20619871  0.80648045  0.75403063  1
  Ta  Ta118  1  -0.00271632  0.00008584  0.48667086  1
  Ta  Ta119  1  0.58784414  0.40747840  0.50004466  1
  Ti  Ti120  1  0.21894288  0.40922991  -0.00559890  1
  Ti  Ti121  1  0.39335067  0.39836039  0.74307603  1
  Ti  Ti122  1  0.10872749  0.91136249  0.36884813  1
  Ti  Ti123  1  0.80665983  0.19919057  0.50022639  1
  Ti  Ti124  1  0.48989810  0.48727463  0.12397719  1
  Ti  Ti125  1  0.49173685  0.09411637  0.37860853  1
  Ti  Ti126  1  0.80470062  0.19783713  -0.01672301  1
  Ti  Ti127  1  0.00365033  0.58836898  0.24432802  1
  Ti  Ti128  1  0.19376942  0.00014433  0.74777477  1
  Ti  Ti129  1  0.59072759  0.60236711  0.24801044  1
  Ti  Ti130  1  0.87718786  0.50194017  0.62771286  1
  Ti  Ti131  1  0.10933575  0.29806931  0.63706420  1
  Ti  Ti132  1  0.68273884  0.50243044  0.61381041  1
  Ti  Ti133  1  0.80130598  0.00346724  0.74642373  1
  Ti  Ti134  1  0.11894216  0.10508695  0.62857066  1
  Ti  Ti135  1  0.69034619  0.71384080  0.13132416  1
  Ti  Ti136  1  -0.00165086  0.20838793  0.25431613  1
  Ti  Ti137  1  0.09563521  0.48252490  0.12679654  1
  Ti  Ti138  1  0.30548158  0.10692784  0.12130460  1
  Ti  Ti139  1  0.10319794  0.70458905  0.86962490  1
  Ti  Ti140  1  0.32147523  0.30531907  0.87403446  1
  Ti  Ti141  1  0.00252217  0.39303058  0.24982527  1
  Ti  Ti142  1  0.21303207  0.60495673  0.74411245  1
  Ti  Ti143  1  0.20754282  0.79621292  0.23536974  1
  Ti  Ti144  1  0.50182209  0.69633542  0.37619542  1
  Ti  Ti145  1  0.40147046  0.79769766  0.75009185  1
  Ti  Ti146  1  0.50914210  0.69834930  0.12682953  1
  Ti  Ti147  1  0.21812032  0.40872226  0.75064204  1
  Ti  Ti148  1  0.70158684  0.69807142  0.37767829  1
  Ti  Ti149  1  0.81278971  0.39646224  0.24126285  1
  Ti  Ti150  1  0.48667309  0.30117508  0.38671740  1
  Ti  Ti151  1  0.29531336  0.50588329  0.37777837  1
  Ti  Ti152  1  0.40431878  0.01077027  0.01395830  1
  Ti  Ti153  1  0.11032020  0.69443478  0.37132520  1
  Ti  Ti154  1  0.89652926  0.90547287  0.36904414  1
  Ti  Ti155  1  0.21767238  0.60083250  0.50236956  1
  Ti  Ti156  1  0.10249188  0.11538902  0.37511044  1
  Ti  Ti157  1  0.29638231  0.10387703  0.36650752  1
  Ti  Ti158  1  0.59973723  -0.00910863  0.49818724  1
  Ti  Ti159  1  -0.00319787  -0.01523552  0.75486902  1
  Mo  Mo160  1  -0.00589551  0.79861585  0.00198937  1
  Mo  Mo161  1  0.50092123  0.10098309  0.11666091  1
  Mo  Mo162  1  0.90377288  0.70361297  0.61467050  1
  Mo  Mo163  1  0.49276124  0.49838735  0.61508528  1
  Mo  Mo164  1  0.00875168  0.80595071  0.75077178  1
  Mo  Mo165  1  0.90856953  0.48664575  0.13553795  1
  Mo  Mo166  1  0.90084854  0.29064765  0.86401263  1
  Mo  Mo167  1  0.40422994  0.21223202  0.74482092  1
  Mo  Mo168  1  0.70473690  0.89317786  0.38349241  1
  Mo  Mo169  1  -0.00722095  0.20627223  -0.01593801  1
  Mo  Mo170  1  0.39142484  0.60727138  0.49503240  1
  Mo  Mo171  1  0.59773161  0.78766641  -0.00372600  1
  Mo  Mo172  1  0.79253359  0.00304420  -0.00544636  1
  Mo  Mo173  1  0.49311015  0.29112000  0.87480682  1
  Mo  Mo174  1  0.79602073  0.40279743  0.50836698  1
  Mo  Mo175  1  0.09594709  0.30789323  0.12122949  1
  Mo  Mo176  1  0.50887062  0.89639228  0.37678927  1
  Mo  Mo177  1  0.80091369  0.19256098  0.76519549  1
  Mo  Mo178  1  0.59215344  -0.01428382  -0.01334732  1
  Mo  Mo179  1  0.69668424  0.49746089  0.87688483  1
  Mo  Mo180  1  0.80149136  0.59848415  0.73080582  1
  Mo  Mo181  1  0.31410517  0.50163345  0.62016021  1
  Mo  Mo182  1  0.30461677  0.91143070  0.12027053  1
  Mo  Mo183  1  0.29800129  0.49379404  0.13635088  1
  Mo  Mo184  1  0.38886668  0.40973846  0.49985200  1
  Mo  Mo185  1  0.29303213  0.49828983  0.86921639  1
  Mo  Mo186  1  0.29866326  0.10237708  0.62586356  1
  Mo  Mo187  1  0.59930678  0.61077927  0.49990963  1
  Mo  Mo188  1  0.09838649  0.69649781  0.13963449  1
  Mo  Mo189  1  0.29992178  0.11332898  0.88583717  1
  Mo  Mo190  1  0.89864419  0.90363607  0.62337476  1
  Mo  Mo191  1  0.20689573  0.00522823  0.02093823  1
  Mo  Mo192  1  0.19250893  0.20388824  0.50673388  1
  Mo  Mo193  1  0.60384582  0.79580837  0.74451264  1
  Mo  Mo194  1  0.30494297  0.70223411  0.14383783  1
  Mo  Mo195  1  0.69772663  0.88822900  0.12516034  1
  Mo  Mo196  1  0.19429841  0.40051577  0.50851737  1
  Mo  Mo197  1  0.39304874  0.39325814  0.00364252  1
  Mo  Mo198  1  0.08585684  0.30323943  0.37772215  1
  Mo  Mo199  1  0.69939443  0.28225813  0.88438637  1
