# generated using pymatgen
data_HfZrTaTiMo
_symmetry_space_group_name_H-M   'P 1'
_cell_length_a   15.20915751
_cell_length_b   15.20767082
_cell_length_c   16.84113448
_cell_angle_alpha   90.00340003
_cell_angle_beta   90.05865397
_cell_angle_gamma   90.14557754
_symmetry_Int_Tables_number   1
_chemical_formula_structural   HfZrTaTiMo
_chemical_formula_sum   'Hf40 Zr40 Ta40 Ti40 Mo40'
_cell_volume   3895.27007432
_cell_formula_units_Z   40
loop_
 _symmetry_equiv_pos_site_id
 _symmetry_equiv_pos_as_xyz
  1  'x, y, z'
loop_
 _atom_site_type_symbol
 _atom_site_label
 _atom_site_symmetry_multiplicity
 _atom_site_fract_x
 _atom_site_fract_y
 _atom_site_fract_z
 _atom_site_occupancy
  Hf  Hf0  1  0.09293493  0.29444987  0.62825918  1
  Hf  Hf1  1  0.49241208  0.10457795  0.38044073  1
  Hf  Hf2  1  0.29553614  0.10101515  0.12413583  1
  Hf  Hf3  1  0.10406029  0.69501603  0.63379405  1
  Hf  Hf4  1  0.10889503  0.51199238  0.13231985  1
  Hf  Hf5  1  0.59975674  0.82124619  0.73196231  1
  Hf  Hf6  1  0.68929036  0.30188571  0.11939073  1
  Hf  Hf7  1  0.89927177  0.08956097  0.12800463  1
  Hf  Hf8  1  0.10655383  0.70569440  0.86328301  1
  Hf  Hf9  1  0.09194926  0.08236032  0.63097806  1
  Hf  Hf10  1  0.19348495  0.18783963  -0.00055161  1
  Hf  Hf11  1  0.10188049  0.50076947  0.35849792  1
  Hf  Hf12  1  0.69796818  0.90856354  0.86664676  1
  Hf  Hf13  1  0.70440207  0.09259370  0.37889884  1
  Hf  Hf14  1  0.70592232  0.69686740  0.62075458  1
  Hf  Hf15  1  0.39322634  0.00441120  -0.01123278  1
  Hf  Hf16  1  0.39709600  0.19870101  0.75027652  1
  Hf  Hf17  1  0.81643476  0.80897537  0.50356541  1
  Hf  Hf18  1  0.79764224  0.39193667  0.24232210  1
  Hf  Hf19  1  -0.01270752  0.40311685  0.48406886  1
  Hf  Hf20  1  0.19539315  -0.02381602  0.50684492  1
  Hf  Hf21  1  0.50640229  0.30102736  0.86521964  1
  Hf  Hf22  1  0.59381461  0.00021468  0.00410116  1
  Hf  Hf23  1  0.19798306  0.38635602  0.00448963  1
  Hf  Hf24  1  0.80032726  0.00276386  -0.00083173  1
  Hf  Hf25  1  0.60292339  -0.00807665  0.50196149  1
  Hf  Hf26  1  0.59764255  0.21195596  0.24903816  1
  Hf  Hf27  1  0.09999794  0.71648059  0.37355298  1
  Hf  Hf28  1  0.27888398  0.89295322  0.86504513  1
  Hf  Hf29  1  0.30129378  0.70391316  0.62121502  1
  Hf  Hf30  1  0.50559720  0.69274382  0.13668455  1
  Hf  Hf31  1  0.00380218  0.60489054  -0.00111786  1
  Hf  Hf32  1  0.49765965  0.70151085  0.61519635  1
  Hf  Hf33  1  0.70968063  0.51273604  0.87150236  1
  Hf  Hf34  1  0.49116531  0.11383774  0.12996618  1
  Hf  Hf35  1  0.49722437  0.70053940  0.37419687  1
  Hf  Hf36  1  0.89758536  0.10897572  0.37252402  1
  Hf  Hf37  1  0.40190431  0.40835296  0.49639983  1
  Hf  Hf38  1  0.69027950  0.48836449  0.37180044  1
  Hf  Hf39  1  0.29616961  0.68532816  0.10861580  1
  Zr  Zr40  1  0.61807679  0.20923782  0.51663551  1
  Zr  Zr41  1  0.28723668  0.50366150  0.61718923  1
  Zr  Zr42  1  0.40750033  0.80247870  -0.00105287  1
  Zr  Zr43  1  0.80843153  0.80552600  0.00237397  1
  Zr  Zr44  1  0.00058376  0.39190876  0.01664785  1
  Zr  Zr45  1  0.91837790  0.70296546  0.14806091  1
  Zr  Zr46  1  0.60839191  0.80185767  0.49264811  1
  Zr  Zr47  1  0.09666159  0.29117718  0.36201027  1
  Zr  Zr48  1  0.69449858  0.51709498  0.13576365  1
  Zr  Zr49  1  0.39326801  0.20000083  0.50611950  1
  Zr  Zr50  1  0.31216203  0.68685554  0.88988847  1
  Zr  Zr51  1  0.39348311  0.58990662  0.25589440  1
  Zr  Zr52  1  0.70522324  0.49412561  0.62260258  1
  Zr  Zr53  1  0.72028789  0.30531814  0.88006617  1
  Zr  Zr54  1  0.60005542  0.40971032  -0.00536578  1
  Zr  Zr55  1  -0.00914565  0.19905188  0.50261790  1
  Zr  Zr56  1  -0.00003473  0.60543452  0.49444351  1
  Zr  Zr57  1  0.69433007  0.70615678  0.86194412  1
  Zr  Zr58  1  0.51186963  0.31740460  0.38251813  1
  Zr  Zr59  1  0.72292750  0.28994518  0.37809539  1
  Zr  Zr60  1  0.49541622  0.09388242  0.62413224  1
  Zr  Zr61  1  -0.00914095  0.56861793  0.75274985  1
  Zr  Zr62  1  0.38704571  0.82145387  0.49374757  1
  Zr  Zr63  1  0.89655375  0.69570941  0.86175231  1
  Zr  Zr64  1  0.82347476  0.21196997  0.73695548  1
  Zr  Zr65  1  0.70173329  0.11079794  0.87894234  1
  Zr  Zr66  1  0.81612954  0.81741183  0.73482836  1
  Zr  Zr67  1  0.50028506  0.90534940  0.13545326  1
  Zr  Zr68  1  0.00066437  -0.00412021  -0.00878337  1
  Zr  Zr69  1  0.49703724  0.50984991  0.62933883  1
  Zr  Zr70  1  0.60620550  0.81967599  0.26850182  1
  Zr  Zr71  1  0.61609853  0.19435081  0.73627660  1
  Zr  Zr72  1  0.29603661  0.29792523  0.62697995  1
  Zr  Zr73  1  0.18892617  0.79965921  0.23342086  1
  Zr  Zr74  1  0.61066124  0.79972796  0.00916578  1
  Zr  Zr75  1  0.21372855  0.59051794  0.75771976  1
  Zr  Zr76  1  0.39239032  0.41270632  0.75822159  1
  Zr  Zr77  1  0.18209275  0.39730284  0.76041962  1
  Zr  Zr78  1  0.79835582  0.60824280  0.00992251  1
  Zr  Zr79  1  0.09817342  0.08470526  0.37948808  1
  Ta  Ta80  1  0.90457006  0.70462788  0.35988063  1
  Ta  Ta81  1  0.39957160  0.79230588  0.75195726  1
  Ta  Ta82  1  0.90409647  0.50590697  0.14531228  1
  Ta  Ta83  1  0.29477460  0.90003574  0.12072739  1
  Ta  Ta84  1  0.20366695  0.60370062  0.25073134  1
  Ta  Ta85  1  0.29588618  0.29602865  0.37316460  1
  Ta  Ta86  1  0.28057824  0.90127183  0.36772400  1
  Ta  Ta87  1  0.90604559  0.69112621  0.63032843  1
  Ta  Ta88  1  0.80531238  0.19456396  0.23766817  1
  Ta  Ta89  1  0.38829348  0.80218012  0.25326425  1
  Ta  Ta90  1  0.59166971  0.20178994  0.00313390  1
  Ta  Ta91  1  0.81170148  0.40788729  0.01302322  1
  Ta  Ta92  1  -0.01644004  -0.01161654  0.76083714  1
  Ta  Ta93  1  0.29023376  0.29446744  0.87499586  1
  Ta  Ta94  1  0.19312808  0.00046183  0.24177050  1
  Ta  Ta95  1  0.49658489  0.51811360  0.87251135  1
  Ta  Ta96  1  0.19390892  0.18950679  0.75488836  1
  Ta  Ta97  1  0.80658432  0.59548063  0.48828526  1
  Ta  Ta98  1  0.38897720  -0.00061780  0.25297936  1
  Ta  Ta99  1  0.18356233  0.79620387  0.00550026  1
  Ta  Ta100  1  0.90974086  0.12041261  0.87602929  1
  Ta  Ta101  1  0.71184815  0.71862722  0.15464873  1
  Ta  Ta102  1  0.82141624  0.41922526  0.75175956  1
  Ta  Ta103  1  0.19286111  0.39522049  0.49198182  1
  Ta  Ta104  1  0.29495588  0.09372217  0.37600443  1
  Ta  Ta105  1  0.78999448  0.01191025  0.74256658  1
  Ta  Ta106  1  0.40326494  0.39501648  -0.00672706  1
  Ta  Ta107  1  0.40265728  -0.00610425  0.75715870  1
  Ta  Ta108  1  0.69530656  0.09530053  0.12757372  1
  Ta  Ta109  1  0.71284779  0.69677663  0.36878924  1
  Ta  Ta110  1  0.60023416  0.59092648  0.48798905  1
  Ta  Ta111  1  0.49518284  0.48736452  0.12671322  1
  Ta  Ta112  1  0.51236178  0.31594264  0.62859377  1
  Ta  Ta113  1  0.00404573  0.19894144  0.01965759  1
  Ta  Ta114  1  0.07764517  0.27735568  0.87098939  1
  Ta  Ta115  1  0.00128334  -0.00512595  0.24588046  1
  Ta  Ta116  1  0.29192480  0.90055185  0.64302623  1
  Ta  Ta117  1  0.39974190  0.20433248  -0.01149302  1
  Ta  Ta118  1  0.19183860  -0.01121027  0.00115976  1
  Ta  Ta119  1  0.90966508  0.90593329  0.37409184  1
  Ti  Ti120  1  0.79692562  0.39311523  0.49933610  1
  Ti  Ti121  1  0.31448624  0.29931028  0.12533427  1
  Ti  Ti122  1  0.50013112  0.89950149  0.86793033  1
  Ti  Ti123  1  0.89981660  0.31976719  0.62199768  1
  Ti  Ti124  1  0.21476250  0.39642436  0.24222130  1
  Ti  Ti125  1  0.61249844  0.40344199  0.75315254  1
  Ti  Ti126  1  0.40861845  0.39407213  0.25389090  1
  Ti  Ti127  1  0.29828952  0.49478728  0.37472352  1
  Ti  Ti128  1  0.09246296  0.48803970  0.88510943  1
  Ti  Ti129  1  0.88819018  0.89282852  0.13740172  1
  Ti  Ti130  1  0.08454506  0.48916061  0.61962637  1
  Ti  Ti131  1  0.59711673  0.59391724  0.26088866  1
  Ti  Ti132  1  0.48649604  0.90586934  0.62178272  1
  Ti  Ti133  1  0.81028158  0.20949284  0.01258876  1
  Ti  Ti134  1  0.19852852  0.59779539  0.49171024  1
  Ti  Ti135  1  0.19836564  0.19602606  0.50058205  1
  Ti  Ti136  1  0.59506204  0.60752341  0.00418076  1
  Ti  Ti137  1  0.29950902  0.49860842  0.89397881  1
  Ti  Ti138  1  0.79055051  -0.00985450  0.25121573  1
  Ti  Ti139  1  0.00304781  0.38959837  0.23839706  1
  Ti  Ti140  1  0.29498102  0.09696807  0.86930914  1
  Ti  Ti141  1  0.59838920  0.60513919  0.74722590  1
  Ti  Ti142  1  0.89609357  0.08546140  0.61676702  1
  Ti  Ti143  1  0.50500215  0.09626457  0.86791041  1
  Ti  Ti144  1  0.00437725  0.19848118  0.23080695  1
  Ti  Ti145  1  0.39190945  0.20348328  0.25745118  1
  Ti  Ti146  1  0.30612675  0.49458402  0.11395739  1
  Ti  Ti147  1  -0.00215821  0.80660769  -0.01034755  1
  Ti  Ti148  1  0.59762384  0.00705065  0.25492176  1
  Ti  Ti149  1  0.48559919  0.91265119  0.37420964  1
  Ti  Ti150  1  0.89653731  0.50266909  0.35297341  1
  Ti  Ti151  1  0.10235470  0.08375814  0.86321128  1
  Ti  Ti152  1  0.29184229  0.70451972  0.37898666  1
  Ti  Ti153  1  0.50551755  0.70292020  0.87102605  1
  Ti  Ti154  1  0.01497902  0.81479887  0.50621944  1
  Ti  Ti155  1  0.08428348  0.89611145  0.12173751  1
  Ti  Ti156  1  0.09821945  0.88847476  0.64855891  1
  Ti  Ti157  1  0.39609668  0.60235870  0.48657225  1
  Ti  Ti158  1  0.29463541  0.08815106  0.62855031  1
  Ti  Ti159  1  0.19942081  0.19762359  0.24317645  1
  Mo  Mo160  1  0.80043607  0.60060639  0.26238590  1
  Mo  Mo161  1  0.38897509  -0.00048222  0.49739869  1
  Mo  Mo162  1  0.80419266  0.81033195  0.26254470  1
  Mo  Mo163  1  0.00213708  0.81255883  0.25108288  1
  Mo  Mo164  1  0.70614452  0.91154808  0.13297021  1
  Mo  Mo165  1  0.60356990  0.40414304  0.50739324  1
  Mo  Mo166  1  0.19723237  0.58792596  -0.00636010  1
  Mo  Mo167  1  0.11412609  0.29393583  0.14006675  1
  Mo  Mo168  1  0.81156277  0.20480313  0.51451419  1
  Mo  Mo169  1  -0.00026579  0.18852043  0.74506854  1
  Mo  Mo170  1  0.48664262  0.30151981  0.12167938  1
  Mo  Mo171  1  0.19812027  0.00181431  0.74887748  1
  Mo  Mo172  1  0.59451086  0.00048614  0.74472337  1
  Mo  Mo173  1  0.10246435  0.70300994  0.11689199  1
  Mo  Mo174  1  0.20428419  0.79576429  0.75090754  1
  Mo  Mo175  1  0.09176042  0.89581856  0.86543880  1
  Mo  Mo176  1  0.71050843  0.30900757  0.62865733  1
  Mo  Mo177  1  0.41491229  0.58516553  0.00592509  1
  Mo  Mo178  1  0.10197728  0.08976359  0.12756895  1
  Mo  Mo179  1  0.79717877  0.59998422  0.74328294  1
  Mo  Mo180  1  0.89911148  0.48750786  0.88651891  1
  Mo  Mo181  1  -0.00905440  0.38046064  0.75350863  1
  Mo  Mo182  1  0.80561775  0.00273157  0.50303715  1
  Mo  Mo183  1  0.00996659  0.60129005  0.25552229  1
  Mo  Mo184  1  0.71087584  0.09586589  0.61682773  1
  Mo  Mo185  1  0.90459361  0.30242027  0.88412067  1
  Mo  Mo186  1  0.00185609  0.79477926  0.74680032  1
  Mo  Mo187  1  0.40921002  0.60800156  0.75479616  1
  Mo  Mo188  1  0.90334174  0.30105811  0.36106648  1
  Mo  Mo189  1  0.58888599  0.40385915  0.24413789  1
  Mo  Mo190  1  0.09789493  0.90350370  0.37313366  1
  Mo  Mo191  1  0.71475678  0.90457258  0.38044474  1
  Mo  Mo192  1  0.70926897  0.91659406  0.62169755  1
  Mo  Mo193  1  0.19362704  0.79144584  0.50390546  1
  Mo  Mo194  1  0.89919295  0.50241850  0.61314498  1
  Mo  Mo195  1  -0.00926942  -0.01438354  0.50364521  1
  Mo  Mo196  1  0.91570041  0.90587444  0.62244454  1
  Mo  Mo197  1  0.49556896  0.50401294  0.37656153  1
  Mo  Mo198  1  0.90071641  0.29771547  0.13065565  1
  Mo  Mo199  1  0.89683573  0.90981903  0.87210825  1
