# generated using pymatgen
data_HfZrTaTiMo
_symmetry_space_group_name_H-M   'P 1'
_cell_length_a   15.20526258
_cell_length_b   15.22744091
_cell_length_c   16.87130755
_cell_angle_alpha   90.03776046
_cell_angle_beta   89.98412568
_cell_angle_gamma   89.97236638
_symmetry_Int_Tables_number   1
_chemical_formula_structural   HfZrTaTiMo
_chemical_formula_sum   'Hf40 Zr40 Ta40 Ti40 Mo40'
_cell_volume   3906.33448840
_cell_formula_units_Z   40
loop_
 _symmetry_equiv_pos_site_id
 _symmetry_equiv_pos_as_xyz
  1  'x, y, z'
loop_
 _atom_site_type_symbol
 _atom_site_label
 _atom_site_symmetry_multiplicity
 _atom_site_fract_x
 _atom_site_fract_y
 _atom_site_fract_z
 _atom_site_occupancy
  Hf  Hf0  1  0.09486258  0.89274394  0.39237933  1
  Hf  Hf1  1  0.30354246  0.11093300  0.63571124  1
  Hf  Hf2  1  0.41363406  0.60015650  0.49445669  1
  Hf  Hf3  1  0.69740328  0.89381500  0.87340421  1
  Hf  Hf4  1  0.70462583  0.49719573  0.62317237  1
  Hf  Hf5  1  0.80702558  0.40079417  0.49793356  1
  Hf  Hf6  1  0.09737661  0.50720890  0.11658847  1
  Hf  Hf7  1  0.90779879  0.09231379  0.11521196  1
  Hf  Hf8  1  0.28747451  0.30863710  0.63278259  1
  Hf  Hf9  1  0.90724878  0.30280913  0.36860901  1
  Hf  Hf10  1  0.18850470  0.80173413  0.25065052  1
  Hf  Hf11  1  0.28277350  0.89999282  0.87694334  1
  Hf  Hf12  1  0.48525936  0.88797638  0.37794508  1
  Hf  Hf13  1  0.80660893  0.00930413  0.76075492  1
  Hf  Hf14  1  0.89314703  0.69534032  0.12211120  1
  Hf  Hf15  1  0.60411112  0.19912068  0.74692223  1
  Hf  Hf16  1  0.40121041  0.01025946  0.49651481  1
  Hf  Hf17  1  0.49157404  0.68642339  0.12861812  1
  Hf  Hf18  1  0.29512050  0.48794052  0.11597872  1
  Hf  Hf19  1  0.10578296  0.10286354  0.63510130  1
  Hf  Hf20  1  0.21264486  0.40672140  0.78187374  1
  Hf  Hf21  1  0.00895345  0.20762757  0.23771540  1
  Hf  Hf22  1  0.49702252  0.89240576  0.62643680  1
  Hf  Hf23  1  0.01751392  0.21750852  0.50718197  1
  Hf  Hf24  1  0.39147498  0.79750356  0.74862891  1
  Hf  Hf25  1  0.59404249  0.81448836  0.23920673  1
  Hf  Hf26  1  0.80090128  0.21436511  0.75032479  1
  Hf  Hf27  1  0.68907648  0.91309403  0.37666738  1
  Hf  Hf28  1  0.11853509  0.32525669  0.36301338  1
  Hf  Hf29  1  0.49363726  0.30350695  0.62372804  1
  Hf  Hf30  1  0.61392819  0.37282234  0.01210417  1
  Hf  Hf31  1  0.29995079  0.71191948  0.38484073  1
  Hf  Hf32  1  0.08017681  0.89892661  0.87544692  1
  Hf  Hf33  1  0.89544494  0.71759810  0.86798750  1
  Hf  Hf34  1  0.69621906  0.69336175  0.87676966  1
  Hf  Hf35  1  0.01129070  0.20453298  0.00147944  1
  Hf  Hf36  1  0.50769113  0.49644082  0.62539161  1
  Hf  Hf37  1  0.71919109  0.50124473  0.11872010  1
  Hf  Hf38  1  0.49174466  0.89890612  0.87530938  1
  Hf  Hf39  1  0.39616326  0.58782057  0.75876479  1
  Zr  Zr40  1  0.30893231  0.49627281  0.61693378  1
  Zr  Zr41  1  0.30784129  0.09180141  0.88381687  1
  Zr  Zr42  1  0.90206331  0.50506731  0.86289658  1
  Zr  Zr43  1  0.51476553  0.49637431  0.88619776  1
  Zr  Zr44  1  0.70825971  0.49622796  0.36782065  1
  Zr  Zr45  1  0.10021010  0.48169335  0.63348349  1
  Zr  Zr46  1  0.49642695  0.29225109  0.35331211  1
  Zr  Zr47  1  0.10776868  0.12108973  0.37263603  1
  Zr  Zr48  1  0.39925791  0.38413690  -0.00596582  1
  Zr  Zr49  1  0.09327024  0.88936223  0.60718982  1
  Zr  Zr50  1  0.10014400  0.09019514  0.87243012  1
  Zr  Zr51  1  0.09230107  0.70190129  0.87270770  1
  Zr  Zr52  1  0.20179332  0.01605984  0.49204027  1
  Zr  Zr53  1  0.19553325  0.59407746  0.25638750  1
  Zr  Zr54  1  0.50620172  0.09815120  0.62253788  1
  Zr  Zr55  1  0.79805272  0.22544014  0.01719770  1
  Zr  Zr56  1  -0.00629322  0.00353430  0.26019642  1
  Zr  Zr57  1  0.69527822  0.12004431  0.88979897  1
  Zr  Zr58  1  0.58426519  0.78605026  0.49681799  1
  Zr  Zr59  1  0.51827269  0.09069900  0.36280165  1
  Zr  Zr60  1  0.50413081  0.68764498  0.35562930  1
  Zr  Zr61  1  0.70019712  0.90733649  0.63182295  1
  Zr  Zr62  1  0.20542741  0.01446581  0.25390602  1
  Zr  Zr63  1  0.18817594  0.61057030  0.74753906  1
  Zr  Zr64  1  0.40350029  0.20763802  0.77006550  1
  Zr  Zr65  1  0.28940672  0.71398055  0.61192297  1
  Zr  Zr66  1  0.28639462  0.47631579  0.38084642  1
  Zr  Zr67  1  0.28700032  0.89943025  0.12231793  1
  Zr  Zr68  1  0.29966650  0.70340874  0.87840683  1
  Zr  Zr69  1  0.89364760  0.90495234  0.38898884  1
  Zr  Zr70  1  0.68865397  0.70091348  0.63721131  1
  Zr  Zr71  1  0.49908763  0.48576615  0.35726528  1
  Zr  Zr72  1  0.50468977  0.47858743  0.13869069  1
  Zr  Zr73  1  0.18354532  0.59196378  0.49967662  1
  Zr  Zr74  1  0.70044057  0.70515592  0.12131551  1
  Zr  Zr75  1  0.79344974  0.79570317  0.50216421  1
  Zr  Zr76  1  0.60267683  0.20290002  0.49598688  1
  Zr  Zr77  1  0.80867894  0.19359303  0.49861018  1
  Zr  Zr78  1  -0.01174983  0.60169208  -0.00107131  1
  Zr  Zr79  1  0.78321163  0.01115559  0.24753493  1
  Ta  Ta80  1  0.61543115  0.39543821  0.75727397  1
  Ta  Ta81  1  0.30408217  0.10620523  0.11306708  1
  Ta  Ta82  1  0.58875210  0.80443277  0.00819891  1
  Ta  Ta83  1  0.79830409  0.59919312  0.74909285  1
  Ta  Ta84  1  0.89990582  0.69800141  0.37642443  1
  Ta  Ta85  1  0.91261440  0.31008714  0.63317141  1
  Ta  Ta86  1  0.50455037  0.70321977  0.87762268  1
  Ta  Ta87  1  0.79875205  0.80171741  0.25526891  1
  Ta  Ta88  1  0.59886725  0.59495613  0.75736437  1
  Ta  Ta89  1  0.90295363  0.50184959  0.63722449  1
  Ta  Ta90  1  0.80731015  -0.00726226  -0.00539298  1
  Ta  Ta91  1  0.59640398  0.00544644  0.00030865  1
  Ta  Ta92  1  0.59629344  0.00090036  0.75870234  1
  Ta  Ta93  1  0.38748642  0.79522267  0.23687756  1
  Ta  Ta94  1  0.00261027  0.41369094  0.23977979  1
  Ta  Ta95  1  0.08038981  0.90859458  0.12246116  1
  Ta  Ta96  1  0.18774231  0.79831777  0.00747868  1
  Ta  Ta97  1  0.39864400  0.00111489  0.75133765  1
  Ta  Ta98  1  0.40540748  -0.00929851  0.00993864  1
  Ta  Ta99  1  -0.00922304  0.39553617  0.00299517  1
  Ta  Ta100  1  0.59966421  0.39727871  0.49295882  1
  Ta  Ta101  1  0.40647532  -0.01039742  0.24087735  1
  Ta  Ta102  1  0.89204530  0.30590273  0.87450612  1
  Ta  Ta103  1  0.12099483  0.30780371  0.12453586  1
  Ta  Ta104  1  0.19370323  0.21072969  0.76884006  1
  Ta  Ta105  1  0.18905555  0.39733445  -0.02159670  1
  Ta  Ta106  1  0.90201942  0.70059756  0.63092646  1
  Ta  Ta107  1  0.39559549  0.79361177  0.00905741  1
  Ta  Ta108  1  0.42516970  0.18870159  0.00507158  1
  Ta  Ta109  1  0.09592135  0.70977623  0.12133417  1
  Ta  Ta110  1  0.90455384  0.10116959  0.62850515  1
  Ta  Ta111  1  -0.00819624  0.79913285  0.25033512  1
  Ta  Ta112  1  0.88738371  0.89426748  0.12813655  1
  Ta  Ta113  1  0.08771419  0.69889567  0.38288565  1
  Ta  Ta114  1  0.29120651  0.91089357  0.62699683  1
  Ta  Ta115  1  -0.00224610  0.60680532  0.24883289  1
  Ta  Ta116  1  0.80689015  0.20456967  0.23836578  1
  Ta  Ta117  1  0.19969808  0.59649092  -0.00920230  1
  Ta  Ta118  1  0.61515876  0.18858873  0.22801040  1
  Ta  Ta119  1  -0.00271941  0.19998707  0.75653277  1
  Ti  Ti120  1  0.39978526  0.59720488  -0.00331662  1
  Ti  Ti121  1  0.18807624  0.00060930  0.00600205  1
  Ti  Ti122  1  0.50957916  0.08306048  0.13140030  1
  Ti  Ti123  1  0.70304029  0.69916091  0.36863439  1
  Ti  Ti124  1  0.00328492  0.79638748  0.73757837  1
  Ti  Ti125  1  0.80857471  0.39999457  0.24269653  1
  Ti  Ti126  1  0.21169811  0.20881122  -0.01138801  1
  Ti  Ti127  1  -0.00902390  0.59878817  0.50583367  1
  Ti  Ti128  1  0.49540832  0.69414723  0.63271044  1
  Ti  Ti129  1  0.52491578  0.28117847  0.88322596  1
  Ti  Ti130  1  0.29869827  0.90581212  0.37506391  1
  Ti  Ti131  1  0.70320514  0.30484324  0.62172577  1
  Ti  Ti132  1  0.69264702  0.91354871  0.11874608  1
  Ti  Ti133  1  0.60996925  0.59263641  0.49186900  1
  Ti  Ti134  1  0.39416986  0.18516591  0.23692747  1
  Ti  Ti135  1  0.89795643  0.90598862  0.61069164  1
  Ti  Ti136  1  0.70833731  0.10003954  0.62759009  1
  Ti  Ti137  1  0.37014672  0.37566652  0.24088938  1
  Ti  Ti138  1  0.61191236  0.59074290  0.24531253  1
  Ti  Ti139  1  0.90579599  0.09611142  0.88586713  1
  Ti  Ti140  1  0.00997583  0.39345663  0.76189108  1
  Ti  Ti141  1  0.69936827  0.29350606  0.35956233  1
  Ti  Ti142  1  0.39316488  0.37676245  0.48997029  1
  Ti  Ti143  1  -0.00354660  -0.00827367  0.74420043  1
  Ti  Ti144  1  0.38763494  0.59056368  0.24819553  1
  Ti  Ti145  1  0.60218744  0.59925124  0.00325117  1
  Ti  Ti146  1  0.22139303  0.21475374  0.49642368  1
  Ti  Ti147  1  0.11414323  0.10523551  0.12296033  1
  Ti  Ti148  1  -0.01485023  0.02183560  0.49490438  1
  Ti  Ti149  1  0.79468820  0.80111210  -0.00145054  1
  Ti  Ti150  1  0.91243414  0.50447511  0.37396362  1
  Ti  Ti151  1  0.61422369  0.00431455  0.50346455  1
  Ti  Ti152  1  0.00965005  0.40950015  0.50157863  1
  Ti  Ti153  1  0.28958790  0.68940820  0.11984240  1
  Ti  Ti154  1  0.80964866  0.60134976  0.25377105  1
  Ti  Ti155  1  0.80429149  0.60012919  0.50157205  1
  Ti  Ti156  1  -0.01456920  0.81745398  0.00381025  1
  Ti  Ti157  1  0.41168525  0.39652857  0.77329986  1
  Ti  Ti158  1  0.71275965  0.48881674  0.88372234  1
  Ti  Ti159  1  0.80317392  0.80957010  0.74626918  1
  Mo  Mo160  1  0.09093177  0.29674382  0.87867868  1
  Mo  Mo161  1  0.21805936  0.21042291  0.23735057  1
  Mo  Mo162  1  0.50769890  0.08994412  0.87994727  1
  Mo  Mo163  1  0.59906769  0.19509439  0.02339773  1
  Mo  Mo164  1  0.59552217  -0.00002868  0.24324890  1
  Mo  Mo165  1  0.19794728  0.40155183  0.23953489  1
  Mo  Mo166  1  0.80297797  0.40201785  0.74371243  1
  Mo  Mo167  1  0.79995942  0.00851359  0.50766119  1
  Mo  Mo168  1  0.89682877  0.90429385  0.86963123  1
  Mo  Mo169  1  0.90243017  0.50284782  0.12958415  1
  Mo  Mo170  1  0.18813884  0.38531580  0.50306765  1
  Mo  Mo171  1  0.49277181  0.28294317  0.14274752  1
  Mo  Mo172  1  0.30210876  0.28001699  0.36828954  1
  Mo  Mo173  1  0.19848229  -0.00589266  0.74594762  1
  Mo  Mo174  1  -0.00631261  0.78251325  0.50528231  1
  Mo  Mo175  1  0.18936258  0.81862008  0.74368324  1
  Mo  Mo176  1  0.09998087  0.29447254  0.63985287  1
  Mo  Mo177  1  -0.00351660  -0.00041372  0.00593252  1
  Mo  Mo178  1  0.09360882  0.49916473  0.87986005  1
  Mo  Mo179  1  0.30438781  0.50318144  0.88709721  1
  Mo  Mo180  1  0.71347503  0.10936192  0.37003568  1
  Mo  Mo181  1  0.19919943  0.80335069  0.48969034  1
  Mo  Mo182  1  0.31671888  0.10680729  0.36799088  1
  Mo  Mo183  1  0.49648333  0.89452325  0.11880362  1
  Mo  Mo184  1  0.59228297  0.79352479  0.75377081  1
  Mo  Mo185  1  0.61503208  0.38886500  0.24183954  1
  Mo  Mo186  1  0.38893564  0.80825152  0.50817653  1
  Mo  Mo187  1  0.08151356  0.50744837  0.37449981  1
  Mo  Mo188  1  0.79448430  0.60465010  -0.00836002  1
  Mo  Mo189  1  0.81420577  0.41146742  0.00397606  1
  Mo  Mo190  1  0.30042462  0.28911130  0.10981777  1
  Mo  Mo191  1  -0.00489086  0.60428418  0.74265244  1
  Mo  Mo192  1  0.70404910  0.30486451  0.14035862  1
  Mo  Mo193  1  0.08716431  0.69749524  0.61995607  1
  Mo  Mo194  1  0.89484378  0.11394885  0.37389774  1
  Mo  Mo195  1  0.70587867  0.31242244  0.87591144  1
  Mo  Mo196  1  0.70482954  0.09501936  0.10973044  1
  Mo  Mo197  1  0.30804664  0.29299072  0.88659749  1
  Mo  Mo198  1  0.39788687  0.20253842  0.49602100  1
  Mo  Mo199  1  0.91114791  0.31138198  0.13230914  1
