# generated using pymatgen
data_HfZrTaTiMo
_symmetry_space_group_name_H-M   'P 1'
_cell_length_a   15.20570217
_cell_length_b   15.20819618
_cell_length_c   16.84388717
_cell_angle_alpha   89.94577982
_cell_angle_beta   90.06358096
_cell_angle_gamma   90.09497606
_symmetry_Int_Tables_number   1
_chemical_formula_structural   HfZrTaTiMo
_chemical_formula_sum   'Hf40 Zr40 Ta40 Ti40 Mo40'
_cell_volume   3895.16134520
_cell_formula_units_Z   40
loop_
 _symmetry_equiv_pos_site_id
 _symmetry_equiv_pos_as_xyz
  1  'x, y, z'
loop_
 _atom_site_type_symbol
 _atom_site_label
 _atom_site_symmetry_multiplicity
 _atom_site_fract_x
 _atom_site_fract_y
 _atom_site_fract_z
 _atom_site_occupancy
  Hf  Hf0  1  0.91506701  0.29257213  0.86742239  1
  Hf  Hf1  1  0.49005923  0.69816875  0.38579195  1
  Hf  Hf2  1  0.39824605  0.59593888  -0.00429553  1
  Hf  Hf3  1  -0.00114060  0.80296307  -0.01250644  1
  Hf  Hf4  1  0.20438818  -0.00171893  0.50508802  1
  Hf  Hf5  1  0.50384427  0.49873830  0.12739862  1
  Hf  Hf6  1  0.92802985  0.50263043  0.60300274  1
  Hf  Hf7  1  0.89237681  0.70418255  0.62694558  1
  Hf  Hf8  1  0.40423806  0.38611724  -0.00786207  1
  Hf  Hf9  1  0.59524731  0.02149029  0.23464417  1
  Hf  Hf10  1  0.80122570  0.19616996  0.74569327  1
  Hf  Hf11  1  0.29671845  0.70358907  0.64447035  1
  Hf  Hf12  1  0.19642900  0.19095205  0.48615882  1
  Hf  Hf13  1  0.00138427  0.59821577  -0.00335130  1
  Hf  Hf14  1  0.08325726  0.30432455  0.14229375  1
  Hf  Hf15  1  0.77762639  0.20200651  0.23709521  1
  Hf  Hf16  1  0.30688366  0.50106121  0.85872899  1
  Hf  Hf17  1  0.70063947  0.49928457  0.38718406  1
  Hf  Hf18  1  -0.01364595  0.20969340  0.01035737  1
  Hf  Hf19  1  0.51295631  0.49822797  0.86373862  1
  Hf  Hf20  1  0.19649735  0.01434773  0.74589527  1
  Hf  Hf21  1  0.49703874  0.71265336  0.11696314  1
  Hf  Hf22  1  0.59756763  0.60238142  0.25169159  1
  Hf  Hf23  1  0.60734016  0.81122005  0.75189188  1
  Hf  Hf24  1  0.80229959  0.59420744  0.00724896  1
  Hf  Hf25  1  0.00084624  -0.01167805  0.49039852  1
  Hf  Hf26  1  0.19716999  0.39297248  -0.00325086  1
  Hf  Hf27  1  0.20780497  -0.00692559  -0.01010721  1
  Hf  Hf28  1  0.70870324  0.09132965  0.88057669  1
  Hf  Hf29  1  0.79333608  0.79492525  -0.01467393  1
  Hf  Hf30  1  0.10487233  0.70486174  0.12733236  1
  Hf  Hf31  1  -0.00878567  0.19524142  0.47620912  1
  Hf  Hf32  1  0.39705042  0.16625858  0.25455114  1
  Hf  Hf33  1  0.82330342  0.38751133  0.01463542  1
  Hf  Hf34  1  0.10806034  0.50273995  0.12777075  1
  Hf  Hf35  1  0.50376701  0.29941013  0.36273261  1
  Hf  Hf36  1  0.70192298  0.70249735  0.12627996  1
  Hf  Hf37  1  0.30458719  0.50472113  0.38087365  1
  Hf  Hf38  1  0.38804947  0.80394485  0.25172034  1
  Hf  Hf39  1  -0.00483296  -0.00756356  0.25262298  1
  Zr  Zr40  1  0.30121784  0.89604875  0.12090984  1
  Zr  Zr41  1  0.89331482  0.29636650  0.61685868  1
  Zr  Zr42  1  0.80758667  0.00979604  0.01746865  1
  Zr  Zr43  1  0.62160582  0.39932248  0.73161216  1
  Zr  Zr44  1  0.19638579  0.19213622  0.00891529  1
  Zr  Zr45  1  0.59277680  0.81745055  0.25239747  1
  Zr  Zr46  1  0.61164720  0.40188085  -0.00104185  1
  Zr  Zr47  1  0.60473381  0.00777644  0.74507010  1
  Zr  Zr48  1  0.70766055  0.30620843  0.87555557  1
  Zr  Zr49  1  0.38668097  0.81181348  0.51229045  1
  Zr  Zr50  1  0.90048385  0.92585465  0.87593622  1
  Zr  Zr51  1  0.38979809  0.80384707  -0.01761679  1
  Zr  Zr52  1  0.58365664  0.20586412  0.74874686  1
  Zr  Zr53  1  0.89455781  0.49700243  0.87198685  1
  Zr  Zr54  1  0.39486151  0.19019030  0.48881130  1
  Zr  Zr55  1  0.08871302  0.11110201  0.87430119  1
  Zr  Zr56  1  0.41514179  0.38087803  0.74626737  1
  Zr  Zr57  1  0.29097700  0.70325199  0.38235576  1
  Zr  Zr58  1  0.50276187  0.69809855  0.86370347  1
  Zr  Zr59  1  0.92031564  0.50365004  0.37543593  1
  Zr  Zr60  1  0.18134841  0.80165125  0.50726906  1
  Zr  Zr61  1  0.58743852  0.81466345  0.51169811  1
  Zr  Zr62  1  0.80738963  0.60963419  0.26303928  1
  Zr  Zr63  1  0.21672448  0.00376070  0.25064125  1
  Zr  Zr64  1  0.79561036  0.81534344  0.25427866  1
  Zr  Zr65  1  0.51297512  0.28743951  0.13961632  1
  Zr  Zr66  1  0.72081330  0.50857098  0.60426928  1
  Zr  Zr67  1  0.69031422  0.71393419  0.38940517  1
  Zr  Zr68  1  0.40771489  0.39427732  0.51586594  1
  Zr  Zr69  1  0.91365660  0.48797033  0.14944892  1
  Zr  Zr70  1  0.29851828  0.29096764  0.13784331  1
  Zr  Zr71  1  0.09134084  0.28957459  0.61373030  1
  Zr  Zr72  1  0.79872953  0.78779254  0.77147797  1
  Zr  Zr73  1  0.09773547  0.89748175  0.12598271  1
  Zr  Zr74  1  0.69617358  0.70269725  0.61138339  1
  Zr  Zr75  1  0.20205992  0.39622682  0.50712754  1
  Zr  Zr76  1  0.59880145  0.21051834  0.51513742  1
  Zr  Zr77  1  0.19732593  0.38588320  0.74107830  1
  Zr  Zr78  1  0.50224554  0.49864025  0.37985265  1
  Zr  Zr79  1  0.09977170  0.49062584  0.87689284  1
  Ta  Ta80  1  0.60693743  0.60772594  -0.00128891  1
  Ta  Ta81  1  -0.01215361  0.60141860  0.75298166  1
  Ta  Ta82  1  0.51630045  0.09129219  0.37964344  1
  Ta  Ta83  1  0.71304306  0.90802559  0.62115297  1
  Ta  Ta84  1  0.19600683  0.59687882  0.51920897  1
  Ta  Ta85  1  0.69355511  0.93610443  0.38140615  1
  Ta  Ta86  1  0.09241961  0.68479812  0.37373734  1
  Ta  Ta87  1  0.39874362  0.60138911  0.52279970  1
  Ta  Ta88  1  0.90883817  0.70222214  0.13072426  1
  Ta  Ta89  1  0.30669861  0.26823728  0.63384828  1
  Ta  Ta90  1  0.39884641  0.01046110  0.76590951  1
  Ta  Ta91  1  0.00511748  0.40065512  0.74358468  1
  Ta  Ta92  1  0.00070106  0.79254154  0.26209040  1
  Ta  Ta93  1  0.30127541  0.49959674  0.12571377  1
  Ta  Ta94  1  0.59330602  0.19859119  -0.00434522  1
  Ta  Ta95  1  0.29398317  0.69309707  0.12389359  1
  Ta  Ta96  1  0.08479110  0.69688115  0.63311104  1
  Ta  Ta97  1  0.39536097  0.60051438  0.24411104  1
  Ta  Ta98  1  0.29108528  0.27958564  0.86536269  1
  Ta  Ta99  1  0.39931628  0.19062929  -0.00655941  1
  Ta  Ta100  1  0.18747607  0.59341524  0.73919568  1
  Ta  Ta101  1  -0.00179562  0.80468969  0.75815343  1
  Ta  Ta102  1  0.87571336  0.09347383  0.36390666  1
  Ta  Ta103  1  0.00650709  0.01067058  0.01095492  1
  Ta  Ta104  1  0.78887264  0.00287439  0.23385453  1
  Ta  Ta105  1  0.29780986  0.30190612  0.36417092  1
  Ta  Ta106  1  0.09870022  0.69786023  0.86266778  1
  Ta  Ta107  1  -0.00400555  0.19673548  0.26503789  1
  Ta  Ta108  1  0.90833265  0.09217271  0.61995289  1
  Ta  Ta109  1  0.68841890  0.90066268  0.11010489  1
  Ta  Ta110  1  -0.01243170  0.78804202  0.48892220  1
  Ta  Ta111  1  0.71022231  0.10471085  0.62404639  1
  Ta  Ta112  1  0.70441802  0.48974502  0.13864888  1
  Ta  Ta113  1  0.82377533  0.62029928  0.48330896  1
  Ta  Ta114  1  0.20365877  0.60159318  0.25121315  1
  Ta  Ta115  1  0.50915223  0.91060571  0.87926541  1
  Ta  Ta116  1  0.69731809  0.29982794  0.37246807  1
  Ta  Ta117  1  0.49402094  0.90989022  0.37854151  1
  Ta  Ta118  1  0.59742514  0.01060341  0.51619242  1
  Ta  Ta119  1  0.29350727  0.69645070  0.85087005  1
  Ti  Ti120  1  0.10290092  0.90331379  0.87023538  1
  Ti  Ti121  1  0.80099512  0.81779525  0.49181084  1
  Ti  Ti122  1  0.10946443  0.49429811  0.37646818  1
  Ti  Ti123  1  0.89880780  0.89209708  0.12462924  1
  Ti  Ti124  1  0.79372777  0.19666725  0.49419325  1
  Ti  Ti125  1  0.47774969  0.11053026  0.62994601  1
  Ti  Ti126  1  0.19184201  0.80777753  0.75080255  1
  Ti  Ti127  1  0.49384040  0.91176134  0.63602623  1
  Ti  Ti128  1  0.89449606  0.90204718  0.37229761  1
  Ti  Ti129  1  0.29622150  0.90904512  0.37362722  1
  Ti  Ti130  1  0.01069165  0.19568471  0.74239825  1
  Ti  Ti131  1  0.79093953  0.20007442  0.02005210  1
  Ti  Ti132  1  0.89967618  0.89831590  0.62527626  1
  Ti  Ti133  1  0.19579365  0.19779664  0.26504676  1
  Ti  Ti134  1  0.39914818  0.81313863  0.75922626  1
  Ti  Ti135  1  0.50834389  0.51126759  0.63144602  1
  Ti  Ti136  1  0.61886878  0.60666243  0.74572971  1
  Ti  Ti137  1  0.80909404  0.38999031  0.49235788  1
  Ti  Ti138  1  0.10713469  0.10061572  0.13558531  1
  Ti  Ti139  1  0.30094955  0.90941628  0.63846164  1
  Ti  Ti140  1  0.49573963  0.70188919  0.63888542  1
  Ti  Ti141  1  0.30434228  0.49701589  0.63818734  1
  Ti  Ti142  1  0.59582994  0.00555406  0.00146973  1
  Ti  Ti143  1  0.08625904  0.90007699  0.63041665  1
  Ti  Ti144  1  0.81232827  0.40981362  0.73763546  1
  Ti  Ti145  1  0.20009954  0.79204657  -0.01829787  1
  Ti  Ti146  1  0.70704294  0.51116106  0.86813034  1
  Ti  Ti147  1  0.20138560  0.40145127  0.25560063  1
  Ti  Ti148  1  0.80025238  0.00823557  0.50170467  1
  Ti  Ti149  1  -0.00458982  0.00601301  0.74440226  1
  Ti  Ti150  1  0.89330120  0.30459565  0.36092977  1
  Ti  Ti151  1  0.10123754  0.08296236  0.36834017  1
  Ti  Ti152  1  0.80321722  -0.00312274  0.74686414  1
  Ti  Ti153  1  0.60447878  0.40073981  0.51489789  1
  Ti  Ti154  1  0.20682720  0.60413160  -0.00851438  1
  Ti  Ti155  1  0.39881254  0.00742485  -0.01927834  1
  Ti  Ti156  1  0.39900931  0.40426352  0.24884970  1
  Ti  Ti157  1  0.40116258  0.00179007  0.50412778  1
  Ti  Ti158  1  0.49338219  0.91137698  0.11185484  1
  Ti  Ti159  1  0.90697455  0.10640900  0.13818795  1
  Mo  Mo160  1  0.29643499  0.89431788  0.86166012  1
  Mo  Mo161  1  0.48621224  0.09308548  0.11037585  1
  Mo  Mo162  1  0.90159577  0.71063104  0.37244037  1
  Mo  Mo163  1  0.00920844  0.39435597  0.26944934  1
  Mo  Mo164  1  0.68555452  0.10556444  0.11138524  1
  Mo  Mo165  1  0.69942792  0.30452138  0.12407701  1
  Mo  Mo166  1  0.10336263  0.50002222  0.62658101  1
  Mo  Mo167  1  0.00614735  0.39186492  0.47784282  1
  Mo  Mo168  1  0.61355191  0.39554662  0.25134171  1
  Mo  Mo169  1  0.79407322  0.40009379  0.25938872  1
  Mo  Mo170  1  0.49746476  0.29744348  0.88156264  1
  Mo  Mo171  1  0.40251095  0.59946416  0.73545982  1
  Mo  Mo172  1  0.01686184  0.60596538  0.49856733  1
  Mo  Mo173  1  0.00493589  0.39295680  0.00402378  1
  Mo  Mo174  1  0.90449255  0.69537580  0.87104350  1
  Mo  Mo175  1  0.69604168  0.68498213  0.87799816  1
  Mo  Mo176  1  0.89878933  0.29550066  0.14734188  1
  Mo  Mo177  1  0.79888309  0.59009453  0.74450714  1
  Mo  Mo178  1  0.01306125  0.60315334  0.24845899  1
  Mo  Mo179  1  0.70910970  0.30045456  0.61770053  1
  Mo  Mo180  1  0.89915762  0.10358441  0.87331659  1
  Mo  Mo181  1  0.50285100  0.10288599  0.88182786  1
  Mo  Mo182  1  0.09874925  0.29987457  0.86943897  1
  Mo  Mo183  1  0.29801356  0.09683093  0.87542480  1
  Mo  Mo184  1  0.58322067  0.59768812  0.51079216  1
  Mo  Mo185  1  0.08882107  0.09154491  0.61926255  1
  Mo  Mo186  1  0.41019025  -0.01367787  0.25198209  1
  Mo  Mo187  1  0.49651633  0.30052007  0.62347344  1
  Mo  Mo188  1  0.19649211  0.19338454  0.74400070  1
  Mo  Mo189  1  0.10035992  0.30123865  0.36763271  1
  Mo  Mo190  1  0.69741001  0.10767039  0.38075590  1
  Mo  Mo191  1  0.69110589  0.89887608  0.89108726  1
  Mo  Mo192  1  0.59564256  0.19885451  0.25287974  1
  Mo  Mo193  1  0.31003907  0.09023690  0.11609317  1
  Mo  Mo194  1  0.59812183  0.80677404  -0.00561156  1
  Mo  Mo195  1  0.30015504  0.09071041  0.62431965  1
  Mo  Mo196  1  0.30747627  0.09206878  0.37818465  1
  Mo  Mo197  1  0.19325928  0.79461442  0.26078137  1
  Mo  Mo198  1  0.10233268  0.88836424  0.36930561  1
  Mo  Mo199  1  0.39132386  0.18770582  0.75990910  1
