# generated using pymatgen
data_HfZrTaTiMo
_symmetry_space_group_name_H-M   'P 1'
_cell_length_a   15.21568614
_cell_length_b   15.22226580
_cell_length_c   16.83560180
_cell_angle_alpha   90.03740010
_cell_angle_beta   90.00936873
_cell_angle_gamma   90.00374767
_symmetry_Int_Tables_number   1
_chemical_formula_structural   HfZrTaTiMo
_chemical_formula_sum   'Hf40 Zr40 Ta40 Ti40 Mo40'
_cell_volume   3899.41437423
_cell_formula_units_Z   40
loop_
 _symmetry_equiv_pos_site_id
 _symmetry_equiv_pos_as_xyz
  1  'x, y, z'
loop_
 _atom_site_type_symbol
 _atom_site_label
 _atom_site_symmetry_multiplicity
 _atom_site_fract_x
 _atom_site_fract_y
 _atom_site_fract_z
 _atom_site_occupancy
  Hf  Hf0  1  0.89422738  0.68572365  0.62430453  1
  Hf  Hf1  1  0.39459816  0.40106325  0.26246591  1
  Hf  Hf2  1  0.00049201  0.40471282  0.00584513  1
  Hf  Hf3  1  0.59369333  0.59547948  0.25450237  1
  Hf  Hf4  1  0.40142476  0.81460780  -0.00389378  1
  Hf  Hf5  1  0.70531227  0.50864760  0.61927305  1
  Hf  Hf6  1  0.90276469  0.09110217  0.87346215  1
  Hf  Hf7  1  0.40660922  0.01573372  -0.00593983  1
  Hf  Hf8  1  0.29601545  0.29820303  0.12974832  1
  Hf  Hf9  1  0.50716365  0.50506862  0.86696832  1
  Hf  Hf10  1  0.49845262  0.88595953  0.62688244  1
  Hf  Hf11  1  0.90427862  0.89603216  0.87092939  1
  Hf  Hf12  1  0.28714112  0.70727123  0.11787767  1
  Hf  Hf13  1  0.20259769  0.60795537  0.75080966  1
  Hf  Hf14  1  0.70004892  0.71399824  0.35716233  1
  Hf  Hf15  1  0.07425799  0.28800697  0.61568457  1
  Hf  Hf16  1  0.70469285  0.10448135  0.86511714  1
  Hf  Hf17  1  0.90462016  0.29384356  0.87943738  1
  Hf  Hf18  1  0.59968372  0.19894414  -0.00399896  1
  Hf  Hf19  1  0.71109507  0.90555717  0.87612016  1
  Hf  Hf20  1  0.41088725  0.60210606  -0.00121812  1
  Hf  Hf21  1  0.18028032  0.19783323  0.73891692  1
  Hf  Hf22  1  0.89543354  0.30387070  0.14705247  1
  Hf  Hf23  1  0.60920034  0.40327313  0.27108575  1
  Hf  Hf24  1  0.49730899  0.30205969  0.13553515  1
  Hf  Hf25  1  0.11038089  0.09703091  0.12932019  1
  Hf  Hf26  1  0.30250854  0.49574596  0.11803391  1
  Hf  Hf27  1  0.69735786  0.70164499  0.88694326  1
  Hf  Hf28  1  0.28818344  0.91154741  0.85801231  1
  Hf  Hf29  1  0.28438474  0.31050054  0.85570375  1
  Hf  Hf30  1  0.50258473  0.90663250  0.85988531  1
  Hf  Hf31  1  0.61313439  0.60423017  0.48115851  1
  Hf  Hf32  1  0.70554324  0.71627153  0.14524924  1
  Hf  Hf33  1  0.20633621  -0.00545614  0.00446502  1
  Hf  Hf34  1  0.90071095  0.47913756  0.63228506  1
  Hf  Hf35  1  0.30849995  0.10839195  0.85484832  1
  Hf  Hf36  1  0.21620893  -0.00338105  0.25849608  1
  Hf  Hf37  1  0.80405129  0.00719703  0.73291623  1
  Hf  Hf38  1  0.69579607  0.30152675  0.13730349  1
  Hf  Hf39  1  0.09996925  0.09232338  0.87437504  1
  Zr  Zr40  1  0.42252310  0.00231322  0.50623147  1
  Zr  Zr41  1  0.91227776  0.69585840  0.87897653  1
  Zr  Zr42  1  0.08808581  0.69252846  0.36535563  1
  Zr  Zr43  1  0.90281539  0.29055538  0.35872580  1
  Zr  Zr44  1  0.50741848  0.51155084  0.62438584  1
  Zr  Zr45  1  0.20562846  0.19674755  0.25921248  1
  Zr  Zr46  1  0.30474739  0.49665502  0.87706728  1
  Zr  Zr47  1  0.90635729  0.89290822  0.62254016  1
  Zr  Zr48  1  0.49464847  0.70864766  0.13641879  1
  Zr  Zr49  1  0.39416727  0.78571070  0.75438513  1
  Zr  Zr50  1  0.72019756  0.30229662  0.62050207  1
  Zr  Zr51  1  0.28605409  0.70352592  0.88379475  1
  Zr  Zr52  1  0.40534235  0.60308518  0.49800029  1
  Zr  Zr53  1  0.09758729  0.71353110  0.62673256  1
  Zr  Zr54  1  0.09888438  0.49757868  0.87399248  1
  Zr  Zr55  1  0.00191994  0.40952977  0.48187174  1
  Zr  Zr56  1  -0.00632666  0.19444481  0.01364003  1
  Zr  Zr57  1  0.88858093  0.69651608  0.35089994  1
  Zr  Zr58  1  0.20132780  0.59985520  0.24938752  1
  Zr  Zr59  1  -0.00666246  0.78815024  0.49100569  1
  Zr  Zr60  1  0.30100680  0.29453709  0.38902059  1
  Zr  Zr61  1  0.40124524  0.21663445  -0.00563959  1
  Zr  Zr62  1  0.27350410  0.90726654  0.61512996  1
  Zr  Zr63  1  0.60831841  0.79727344  0.75109436  1
  Zr  Zr64  1  0.69862604  0.30469914  0.86693537  1
  Zr  Zr65  1  -0.00745918  0.79315842  0.02477006  1
  Zr  Zr66  1  0.79000110  0.59710728  0.75600565  1
  Zr  Zr67  1  0.19448832  0.39555018  0.49624477  1
  Zr  Zr68  1  0.81472368  0.60230392  0.02293383  1
  Zr  Zr69  1  0.49991501  0.28196793  0.38555239  1
  Zr  Zr70  1  0.79172804  0.40480642  0.00918380  1
  Zr  Zr71  1  0.49248262  0.30205628  0.85290503  1
  Zr  Zr72  1  0.19652547  0.20382933  -0.00335438  1
  Zr  Zr73  1  0.30372829  0.70694611  0.61050315  1
  Zr  Zr74  1  0.79857107  0.40567103  0.47878896  1
  Zr  Zr75  1  0.60925559  0.17617601  0.51077004  1
  Zr  Zr76  1  0.61149676  0.59513580  0.01814624  1
  Zr  Zr77  1  0.60606361  -0.00034823  0.00101091  1
  Zr  Zr78  1  0.50182649  0.09134370  0.13263632  1
  Zr  Zr79  1  0.38566528  0.80695528  0.25304968  1
  Ta  Ta80  1  0.69239472  0.70848173  0.61553858  1
  Ta  Ta81  1  0.00356771  0.00108738  0.49675386  1
  Ta  Ta82  1  0.39357652  0.59811559  0.26148579  1
  Ta  Ta83  1  0.29397638  0.50551476  0.38750115  1
  Ta  Ta84  1  0.09569420  0.49875699  0.63372245  1
  Ta  Ta85  1  0.30251101  0.89511818  0.39535589  1
  Ta  Ta86  1  0.59657975  0.80344966  0.00460486  1
  Ta  Ta87  1  0.81008256  0.00376393  0.01312372  1
  Ta  Ta88  1  0.40202769  0.19785373  0.52725438  1
  Ta  Ta89  1  0.00355622  0.37836765  0.75535464  1
  Ta  Ta90  1  0.78694830  0.80405588  0.49638167  1
  Ta  Ta91  1  0.41394442  -0.00401352  0.26956800  1
  Ta  Ta92  1  0.00114030  -0.01129845  0.01220169  1
  Ta  Ta93  1  0.31220094  0.09736535  0.39454972  1
  Ta  Ta94  1  0.09922047  0.89844811  0.37450082  1
  Ta  Ta95  1  0.29077661  0.70418352  0.38840612  1
  Ta  Ta96  1  0.01990350  -0.00778804  0.73819108  1
  Ta  Ta97  1  0.00136579  0.59645556  0.75373609  1
  Ta  Ta98  1  0.40281391  0.39655710  0.51553510  1
  Ta  Ta99  1  0.79993827  0.01143283  0.50492731  1
  Ta  Ta100  1  0.39980537  0.18302066  0.25447376  1
  Ta  Ta101  1  0.91510363  0.11805202  0.61643558  1
  Ta  Ta102  1  0.89811056  0.09393453  0.37124197  1
  Ta  Ta103  1  0.61104976  0.40881978  0.74352067  1
  Ta  Ta104  1  0.89489714  0.90210510  0.37404727  1
  Ta  Ta105  1  0.17457536  0.59688359  0.49751500  1
  Ta  Ta106  1  0.19030942  0.40154456  0.26668080  1
  Ta  Ta107  1  0.09425573  0.88586126  0.87395754  1
  Ta  Ta108  1  0.28987204  0.50279765  0.62039490  1
  Ta  Ta109  1  0.59988628  0.39997592  0.48895621  1
  Ta  Ta110  1  0.69439538  0.90794745  0.61602362  1
  Ta  Ta111  1  0.00264363  -0.00560700  0.25010222  1
  Ta  Ta112  1  0.49101080  0.71191125  0.36928914  1
  Ta  Ta113  1  0.50604668  0.10308865  0.84515146  1
  Ta  Ta114  1  -0.00642933  0.80545680  0.23555132  1
  Ta  Ta115  1  0.00429521  0.19243880  0.25088173  1
  Ta  Ta116  1  0.39429462  0.40401907  0.72671462  1
  Ta  Ta117  1  0.09745967  0.30694827  0.13798932  1
  Ta  Ta118  1  0.58252360  0.39944165  0.00185748  1
  Ta  Ta119  1  0.09850050  0.09992645  0.37925124  1
  Ti  Ti120  1  0.49824130  0.49317970  0.13079179  1
  Ti  Ti121  1  0.69572668  0.91193856  0.13043550  1
  Ti  Ti122  1  0.40483857  0.60153364  0.74578796  1
  Ti  Ti123  1  0.58926140  0.82460295  0.25346701  1
  Ti  Ti124  1  0.79287166  0.57478184  0.23301895  1
  Ti  Ti125  1  0.60180180  0.00446144  0.25964614  1
  Ti  Ti126  1  0.70602178  0.09940652  0.37501349  1
  Ti  Ti127  1  0.60067140  0.19077370  0.26096243  1
  Ti  Ti128  1  0.19376552  0.80197948  0.25282827  1
  Ti  Ti129  1  0.39678727  0.00857570  0.72666524  1
  Ti  Ti130  1  0.58857653  0.80496613  0.49209952  1
  Ti  Ti131  1  0.28497619  0.30279959  0.62552908  1
  Ti  Ti132  1  0.49407346  0.49769588  0.38252810  1
  Ti  Ti133  1  0.31657193  0.91676644  0.12732992  1
  Ti  Ti134  1  0.40102730  0.20136198  0.72031408  1
  Ti  Ti135  1  0.00234094  0.60090046  0.02322716  1
  Ti  Ti136  1  0.19805709  0.39594757  -0.00001107  1
  Ti  Ti137  1  0.70801207  0.28712607  0.37491238  1
  Ti  Ti138  1  0.18275736  0.60219596  0.00305584  1
  Ti  Ti139  1  0.51269211  0.30590590  0.62465405  1
  Ti  Ti140  1  0.79683780  0.19641285  0.00685168  1
  Ti  Ti141  1  0.70208826  0.49757328  0.87666434  1
  Ti  Ti142  1  0.70678356  0.10591321  0.13425329  1
  Ti  Ti143  1  0.10854443  0.89462725  0.13139904  1
  Ti  Ti144  1  0.18561035  0.79903799  0.00084473  1
  Ti  Ti145  1  0.81940085  0.21311365  0.74123545  1
  Ti  Ti146  1  0.69979587  0.91029445  0.37995039  1
  Ti  Ti147  1  0.81286896  0.60492568  0.48747814  1
  Ti  Ti148  1  0.19329234  0.18961564  0.50271502  1
  Ti  Ti149  1  0.89782404  0.09652109  0.13688298  1
  Ti  Ti150  1  0.59467238  0.61244168  0.75081735  1
  Ti  Ti151  1  0.79912572  0.81013100  0.01653012  1
  Ti  Ti152  1  0.80338572  0.79673759  0.74438360  1
  Ti  Ti153  1  0.89564158  0.49200646  0.86835919  1
  Ti  Ti154  1  0.10232473  0.49303899  0.12929865  1
  Ti  Ti155  1  0.90570518  0.50420268  0.35353454  1
  Ti  Ti156  1  0.79979542  -0.00079924  0.24876134  1
  Ti  Ti157  1  0.61022715  0.19303314  0.72963051  1
  Ti  Ti158  1  0.11041207  0.08117617  0.61365043  1
  Ti  Ti159  1  -0.00093517  0.59625695  0.22703968  1
  Mo  Mo160  1  0.40215914  0.40265569  -0.00049143  1
  Mo  Mo161  1  0.09740862  0.30165590  0.87373861  1
  Mo  Mo162  1  0.09341439  0.69932502  0.88005222  1
  Mo  Mo163  1  0.10203264  0.69978181  0.13215216  1
  Mo  Mo164  1  0.50932880  0.89866414  0.37942140  1
  Mo  Mo165  1  0.50752557  0.09644266  0.37515490  1
  Mo  Mo166  1  0.79610813  0.40017758  0.26174715  1
  Mo  Mo167  1  0.29731174  0.10660417  0.61784130  1
  Mo  Mo168  1  0.19813138  0.00176565  0.74598719  1
  Mo  Mo169  1  0.89328754  0.90966386  0.13276183  1
  Mo  Mo170  1  0.81123211  0.19310518  0.49394021  1
  Mo  Mo171  1  0.71335091  0.09928376  0.62798382  1
  Mo  Mo172  1  0.70909393  0.50688691  0.37480865  1
  Mo  Mo173  1  0.50723882  0.89913937  0.12907420  1
  Mo  Mo174  1  -0.00607297  0.18558008  0.74943090  1
  Mo  Mo175  1  -0.00085143  0.19171985  0.48683565  1
  Mo  Mo176  1  0.19731135  0.00290830  0.48541291  1
  Mo  Mo177  1  0.17596624  0.81131524  0.75159143  1
  Mo  Mo178  1  0.89516769  0.70050346  0.14509822  1
  Mo  Mo179  1  0.79633748  0.82640052  0.25023854  1
  Mo  Mo180  1  0.09347757  0.90181580  0.61392788  1
  Mo  Mo181  1  0.90528926  0.49194521  0.13817652  1
  Mo  Mo182  1  0.80373123  0.40056528  0.75916217  1
  Mo  Mo183  1  0.50413073  0.70078155  0.88129077  1
  Mo  Mo184  1  0.19373708  0.40330681  0.73383075  1
  Mo  Mo185  1  0.00670502  0.40519641  0.25431857  1
  Mo  Mo186  1  0.90191651  0.30082544  0.61924728  1
  Mo  Mo187  1  0.61541615  -0.00977998  0.49726840  1
  Mo  Mo188  1  0.69023271  0.49165919  0.13136965  1
  Mo  Mo189  1  0.51059847  0.09480906  0.63999518  1
  Mo  Mo190  1  0.40271432  0.79898719  0.49442841  1
  Mo  Mo191  1  0.60436740  0.00315916  0.74357241  1
  Mo  Mo192  1  -0.00731323  0.58960003  0.49968256  1
  Mo  Mo193  1  0.09870383  0.29072453  0.37118054  1
  Mo  Mo194  1  -0.00055331  0.79338226  0.75097092  1
  Mo  Mo195  1  0.51202088  0.69986227  0.61993894  1
  Mo  Mo196  1  0.30832151  0.09430018  0.13222380  1
  Mo  Mo197  1  0.19254348  0.79967908  0.48792285  1
  Mo  Mo198  1  0.79204627  0.18671896  0.24991732  1
  Mo  Mo199  1  0.09391514  0.50131077  0.36559097  1
