# generated using pymatgen
data_HfZrTaTiMo
_symmetry_space_group_name_H-M   'P 1'
_cell_length_a   15.18421913
_cell_length_b   15.20258129
_cell_length_c   16.78858104
_cell_angle_alpha   89.95825859
_cell_angle_beta   89.89775566
_cell_angle_gamma   89.87185464
_symmetry_Int_Tables_number   1
_chemical_formula_structural   HfZrTaTiMo
_chemical_formula_sum   'Hf40 Zr40 Ta40 Ti40 Mo40'
_cell_volume   3875.44784502
_cell_formula_units_Z   40
loop_
 _symmetry_equiv_pos_site_id
 _symmetry_equiv_pos_as_xyz
  1  'x, y, z'
loop_
 _atom_site_type_symbol
 _atom_site_label
 _atom_site_symmetry_multiplicity
 _atom_site_fract_x
 _atom_site_fract_y
 _atom_site_fract_z
 _atom_site_occupancy
  Hf  Hf0  1  0.70395045  0.71511054  0.38551192  1
  Hf  Hf1  1  0.30164805  0.70002591  0.37490759  1
  Hf  Hf2  1  0.29358072  0.08829024  0.88807919  1
  Hf  Hf3  1  0.89481878  0.88457653  0.39648915  1
  Hf  Hf4  1  0.88647862  0.68344331  0.63722986  1
  Hf  Hf5  1  0.00831520  -0.01896520  0.26607872  1
  Hf  Hf6  1  0.79883698  0.60317229  0.00133216  1
  Hf  Hf7  1  0.30617033  0.69346788  0.12434311  1
  Hf  Hf8  1  0.28699621  0.69160358  0.62701207  1
  Hf  Hf9  1  0.88958925  0.09614962  0.14015492  1
  Hf  Hf10  1  0.30389405  0.48764751  0.88427347  1
  Hf  Hf11  1  0.90129944  0.71338200  0.11610163  1
  Hf  Hf12  1  0.58825405  0.21079828  0.46970784  1
  Hf  Hf13  1  0.40400745  -0.01212512  0.01393415  1
  Hf  Hf14  1  0.11367222  0.50158147  0.10559674  1
  Hf  Hf15  1  0.41280368  -0.01833724  0.75902461  1
  Hf  Hf16  1  0.60320457  0.60019596  0.50822868  1
  Hf  Hf17  1  0.41551795  0.39457085  0.48675241  1
  Hf  Hf18  1  0.49000489  0.31285328  0.14535020  1
  Hf  Hf19  1  0.39931084  0.18959855  0.75160491  1
  Hf  Hf20  1  0.09786626  0.89947318  0.86544332  1
  Hf  Hf21  1  0.19150315  0.60563934  0.49766447  1
  Hf  Hf22  1  0.89830733  0.32269238  0.37971061  1
  Hf  Hf23  1  0.39678159  0.43083828  0.26672618  1
  Hf  Hf24  1  0.32756823  0.88850042  0.61185528  1
  Hf  Hf25  1  0.78406219  0.21831279  0.48812782  1
  Hf  Hf26  1  0.89731600  0.09518847  0.38398121  1
  Hf  Hf27  1  0.58624743  0.40743570  -0.00020123  1
  Hf  Hf28  1  0.21478007  0.59168971  0.24988913  1
  Hf  Hf29  1  0.69973412  0.10296366  0.14215191  1
  Hf  Hf30  1  0.60716754  0.60737475  0.73818135  1
  Hf  Hf31  1  0.01066267  0.78346233  0.51578873  1
  Hf  Hf32  1  0.88253651  0.09341259  0.60402508  1
  Hf  Hf33  1  0.09590455  0.49147220  0.37263830  1
  Hf  Hf34  1  0.20903174  -0.00236848  0.74720629  1
  Hf  Hf35  1  0.41082371  0.20046377  0.00861624  1
  Hf  Hf36  1  0.40274862  0.59312154  0.75512528  1
  Hf  Hf37  1  0.29674738  0.29794175  0.37247201  1
  Hf  Hf38  1  0.90032823  0.70265491  0.87043117  1
  Hf  Hf39  1  0.29435644  0.29245636  0.89119615  1
  Zr  Zr40  1  0.69034709  0.71667330  0.11986783  1
  Zr  Zr41  1  0.60290079  0.40201520  0.75048728  1
  Zr  Zr42  1  0.18988331  -0.02584672  -0.00015167  1
  Zr  Zr43  1  0.39671371  0.78804576  -0.01085348  1
  Zr  Zr44  1  0.20060898  0.19873323  0.50242690  1
  Zr  Zr45  1  -0.00524363  0.19932410  0.25145701  1
  Zr  Zr46  1  0.60512665  -0.00287084  0.01506424  1
  Zr  Zr47  1  0.79590808  0.22236506  0.74370482  1
  Zr  Zr48  1  -0.01415762  0.58746064  0.50834296  1
  Zr  Zr49  1  0.19804592  0.39773875  0.24225742  1
  Zr  Zr50  1  0.70257419  0.11481745  0.87532720  1
  Zr  Zr51  1  0.19298823  0.19424391  0.74953881  1
  Zr  Zr52  1  0.10746088  0.71300379  0.12200255  1
  Zr  Zr53  1  0.71559448  0.50855035  0.37517561  1
  Zr  Zr54  1  0.09221042  0.70113524  0.36334835  1
  Zr  Zr55  1  0.19049508  0.19787869  0.24285207  1
  Zr  Zr56  1  0.10737783  0.51251201  0.64105950  1
  Zr  Zr57  1  -0.00024921  0.20290556  0.50808307  1
  Zr  Zr58  1  0.69813482  0.92383583  0.60760079  1
  Zr  Zr59  1  0.69054194  0.29869920  0.14150202  1
  Zr  Zr60  1  0.50762872  0.09375706  0.87808773  1
  Zr  Zr61  1  0.81552543  0.01161715  -0.00749214  1
  Zr  Zr62  1  0.79435528  0.81020667  0.74670130  1
  Zr  Zr63  1  0.40340983  0.17500294  0.48959037  1
  Zr  Zr64  1  0.30548418  0.89535842  0.37523258  1
  Zr  Zr65  1  0.79370979  0.01545817  0.74935996  1
  Zr  Zr66  1  0.30568128  0.29544568  0.61865225  1
  Zr  Zr67  1  -0.00157549  0.39471654  0.22589624  1
  Zr  Zr68  1  0.79935718  0.40334428  0.01200036  1
  Zr  Zr69  1  -0.01371833  0.19292016  0.00186174  1
  Zr  Zr70  1  0.19506920  0.39195255  0.74973348  1
  Zr  Zr71  1  0.09001395  0.49038558  0.88252990  1
  Zr  Zr72  1  0.21419059  0.79337895  0.75993211  1
  Zr  Zr73  1  0.40881474  0.38973554  0.74564722  1
  Zr  Zr74  1  0.80069210  0.61354859  0.24163323  1
  Zr  Zr75  1  0.68664386  0.71969152  0.87496217  1
  Zr  Zr76  1  0.30071385  0.09610893  0.13162196  1
  Zr  Zr77  1  0.09295130  0.07527960  0.12528399  1
  Zr  Zr78  1  -0.00325475  0.20493780  0.74081653  1
  Zr  Zr79  1  -0.00324654  0.00001922  0.73389691  1
  Ta  Ta80  1  0.68106191  0.51039721  0.13222125  1
  Ta  Ta81  1  0.10651842  0.09269143  0.61673810  1
  Ta  Ta82  1  0.49938170  0.70179622  0.38015027  1
  Ta  Ta83  1  0.59653928  0.20101894  0.74487241  1
  Ta  Ta84  1  0.09986315  0.69699205  0.87581105  1
  Ta  Ta85  1  0.30595049  0.09034916  0.35626110  1
  Ta  Ta86  1  0.59466903  0.60631270  -0.00693724  1
  Ta  Ta87  1  0.19998579  0.40413365  0.50428650  1
  Ta  Ta88  1  0.28108567  0.88698317  0.13887818  1
  Ta  Ta89  1  0.01176047  -0.00800192  0.50168133  1
  Ta  Ta90  1  0.00383123  0.81436918  -0.00540678  1
  Ta  Ta91  1  0.09523725  0.29867798  0.38095151  1
  Ta  Ta92  1  0.32351342  0.49859429  0.10599452  1
  Ta  Ta93  1  0.69937892  0.50840664  0.87476913  1
  Ta  Ta94  1  0.50114313  0.89828368  0.37011315  1
  Ta  Ta95  1  0.60246075  0.20680605  0.00806915  1
  Ta  Ta96  1  0.00465749  0.39910192  0.51689539  1
  Ta  Ta97  1  -0.00309723  0.59274464  0.23598003  1
  Ta  Ta98  1  0.79535853  0.21088869  0.00260612  1
  Ta  Ta99  1  0.60219649  -0.01206842  0.25207830  1
  Ta  Ta100  1  0.50504945  0.10788203  0.14872742  1
  Ta  Ta101  1  0.10937151  0.09044941  0.37992078  1
  Ta  Ta102  1  0.80018026  0.81874052  -0.00749148  1
  Ta  Ta103  1  0.59961252  0.40795592  0.26965972  1
  Ta  Ta104  1  0.50434227  0.08067870  0.62556023  1
  Ta  Ta105  1  0.48898505  0.70847559  0.62112374  1
  Ta  Ta106  1  0.11815744  0.89077891  0.61909396  1
  Ta  Ta107  1  0.00343091  0.79809808  0.73704798  1
  Ta  Ta108  1  0.41125436  0.78912567  0.76576007  1
  Ta  Ta109  1  0.21145082  0.60827198  -0.01151583  1
  Ta  Ta110  1  0.40055462  0.59357586  0.50116544  1
  Ta  Ta111  1  0.40877433  0.79172760  0.24496370  1
  Ta  Ta112  1  0.68341715  0.12271254  0.61292127  1
  Ta  Ta113  1  0.58544814  0.81229877  0.50432551  1
  Ta  Ta114  1  0.71484845  0.90301459  0.13042788  1
  Ta  Ta115  1  0.29312571  0.30805468  0.11359814  1
  Ta  Ta116  1  0.49983362  0.68427359  0.12463845  1
  Ta  Ta117  1  0.69119927  0.32288994  0.61348200  1
  Ta  Ta118  1  0.80578802  0.41156688  0.23391992  1
  Ta  Ta119  1  0.21385360  -0.00150594  0.50037643  1
  Ti  Ti120  1  0.51459434  0.88631279  0.88384570  1
  Ti  Ti121  1  0.51277029  0.48638388  0.61599728  1
  Ti  Ti122  1  0.50956159  0.28277656  0.61794661  1
  Ti  Ti123  1  0.70044400  0.90577690  0.38998278  1
  Ti  Ti124  1  0.58591579  0.01471175  0.48357161  1
  Ti  Ti125  1  0.88695661  0.31373072  0.61736648  1
  Ti  Ti126  1  0.80078594  -0.00884964  0.26408652  1
  Ti  Ti127  1  -0.00300972  0.60033273  -0.00054245  1
  Ti  Ti128  1  -0.00905319  0.39170892  0.01692550  1
  Ti  Ti129  1  0.30876870  0.49648910  0.62467305  1
  Ti  Ti130  1  0.08326707  0.09668036  0.87947833  1
  Ti  Ti131  1  0.60357521  0.79895451  0.25464688  1
  Ti  Ti132  1  0.89673137  0.30424889  0.87443629  1
  Ti  Ti133  1  0.89568925  0.49611913  0.87086707  1
  Ti  Ti134  1  0.11295903  0.88958323  0.38659656  1
  Ti  Ti135  1  0.90216232  0.91060668  0.86813907  1
  Ti  Ti136  1  0.69369185  0.91439369  0.87211641  1
  Ti  Ti137  1  -0.00891971  0.39496038  0.74139561  1
  Ti  Ti138  1  0.79530882  0.21243761  0.26556970  1
  Ti  Ti139  1  0.18820795  0.19670118  0.00879212  1
  Ti  Ti140  1  0.89560345  0.89522219  0.60776741  1
  Ti  Ti141  1  0.09141869  0.29730508  0.88801724  1
  Ti  Ti142  1  0.58283213  0.60192231  0.25903210  1
  Ti  Ti143  1  0.69804970  0.30979155  0.87788723  1
  Ti  Ti144  1  0.59167847  0.81952038  0.73679632  1
  Ti  Ti145  1  0.61315077  0.40020620  0.47973210  1
  Ti  Ti146  1  0.69849540  0.71185458  0.61678285  1
  Ti  Ti147  1  0.40313413  -0.00980458  0.23896457  1
  Ti  Ti148  1  -0.00668774  0.79324016  0.25132958  1
  Ti  Ti149  1  0.90962454  0.90444494  0.12478954  1
  Ti  Ti150  1  0.69238099  0.09828279  0.36355897  1
  Ti  Ti151  1  0.79662275  0.41764497  0.74613419  1
  Ti  Ti152  1  0.50846843  0.88362191  0.12856095  1
  Ti  Ti153  1  0.50133522  0.30180919  0.87781183  1
  Ti  Ti154  1  0.80088563  0.81029847  0.25359448  1
  Ti  Ti155  1  0.90462930  0.50779891  0.37157258  1
  Ti  Ti156  1  0.89523699  0.69304100  0.38046755  1
  Ti  Ti157  1  -0.00103477  0.59614760  0.75536666  1
  Ti  Ti158  1  0.41688808  0.58859058  -0.01815231  1
  Ti  Ti159  1  0.30928967  0.08681654  0.62247123  1
  Mo  Mo160  1  0.50983798  0.49905117  0.87196303  1
  Mo  Mo161  1  0.09975350  0.29466890  0.10652707  1
  Mo  Mo162  1  0.29661826  0.50356613  0.39053325  1
  Mo  Mo163  1  0.79955842  0.60183554  0.50336196  1
  Mo  Mo164  1  0.50341284  0.50805550  0.12796915  1
  Mo  Mo165  1  0.49329417  0.09074486  0.34751583  1
  Mo  Mo166  1  -0.00944649  -0.00803119  -0.00573069  1
  Mo  Mo167  1  0.31051710  0.89687194  0.87833074  1
  Mo  Mo168  1  0.40766716  0.60624237  0.25454325  1
  Mo  Mo169  1  0.71484301  0.50933902  0.61921609  1
  Mo  Mo170  1  0.89932806  0.50967358  0.11880936  1
  Mo  Mo171  1  0.40452157  0.39618276  -0.00004497  1
  Mo  Mo172  1  0.80758275  0.42000975  0.50555753  1
  Mo  Mo173  1  0.41504401  -0.00769373  0.49148363  1
  Mo  Mo174  1  0.88878530  0.29401777  0.12861329  1
  Mo  Mo175  1  0.20065468  0.59748774  0.77236226  1
  Mo  Mo176  1  0.49664444  0.30071078  0.35587786  1
  Mo  Mo177  1  0.19971181  0.79499043  -0.01182270  1
  Mo  Mo178  1  0.19937427  0.80068508  0.50491370  1
  Mo  Mo179  1  0.79004008  0.00808755  0.48801006  1
  Mo  Mo180  1  0.79822585  0.59558973  0.76389740  1
  Mo  Mo181  1  0.50684359  0.89787618  0.62365672  1
  Mo  Mo182  1  0.90696070  0.11329641  0.86993816  1
  Mo  Mo183  1  0.60296131  0.00534548  0.74819582  1
  Mo  Mo184  1  0.09727991  0.69984975  0.64249922  1
  Mo  Mo185  1  0.19904460  -0.01059020  0.25796950  1
  Mo  Mo186  1  0.09692321  0.30421620  0.62277749  1
  Mo  Mo187  1  0.79566985  0.79437114  0.50795084  1
  Mo  Mo188  1  0.39255253  0.20851723  0.24542973  1
  Mo  Mo189  1  0.19543070  0.80541922  0.25247065  1
  Mo  Mo190  1  0.40526096  0.78737087  0.49685231  1
  Mo  Mo191  1  0.59568008  0.19954428  0.26866836  1
  Mo  Mo192  1  0.19571411  0.39477348  0.00304874  1
  Mo  Mo193  1  0.89722348  0.49358655  0.64119530  1
  Mo  Mo194  1  0.59837191  0.80686088  0.00545422  1
  Mo  Mo195  1  0.70612059  0.31005798  0.36128813  1
  Mo  Mo196  1  0.50454025  0.51100064  0.38743167  1
  Mo  Mo197  1  0.50767720  0.69568108  0.86838615  1
  Mo  Mo198  1  0.08901532  0.88775091  0.13023662  1
  Mo  Mo199  1  0.30164254  0.68977777  0.87478450  1
