# generated using pymatgen
data_HfZrTaTiMo
_symmetry_space_group_name_H-M   'P 1'
_cell_length_a   15.21263807
_cell_length_b   15.20633172
_cell_length_c   16.86657854
_cell_angle_alpha   90.01108403
_cell_angle_beta   90.00256425
_cell_angle_gamma   90.01865817
_symmetry_Int_Tables_number   1
_chemical_formula_structural   HfZrTaTiMo
_chemical_formula_sum   'Hf40 Zr40 Ta40 Ti40 Mo40'
_cell_volume   3901.71869543
_cell_formula_units_Z   40
loop_
 _symmetry_equiv_pos_site_id
 _symmetry_equiv_pos_as_xyz
  1  'x, y, z'
loop_
 _atom_site_type_symbol
 _atom_site_label
 _atom_site_symmetry_multiplicity
 _atom_site_fract_x
 _atom_site_fract_y
 _atom_site_fract_z
 _atom_site_occupancy
  Hf  Hf0  1  0.79699999  0.59532118  0.25167750  1
  Hf  Hf1  1  0.80091347  0.19988507  0.26204910  1
  Hf  Hf2  1  0.69370153  0.88880829  0.37938548  1
  Hf  Hf3  1  0.13042024  0.09488108  0.37594607  1
  Hf  Hf4  1  0.80020788  0.18956414  0.75164916  1
  Hf  Hf5  1  0.81075801  0.38565618  0.75428361  1
  Hf  Hf6  1  0.60328452  0.18847071  0.00759737  1
  Hf  Hf7  1  0.49121369  0.90941239  0.61851341  1
  Hf  Hf8  1  0.49517129  0.89965182  0.86897504  1
  Hf  Hf9  1  0.48883126  0.69081651  0.61523202  1
  Hf  Hf10  1  0.60075640  0.40175520  0.23963004  1
  Hf  Hf11  1  0.80642936  -0.00566800  0.49414276  1
  Hf  Hf12  1  0.30664236  0.72560341  0.13873783  1
  Hf  Hf13  1  0.20080827  0.40034156  0.01172151  1
  Hf  Hf14  1  0.41012427  0.60652102  0.24894857  1
  Hf  Hf15  1  0.49396355  0.09124368  0.36744983  1
  Hf  Hf16  1  0.71135854  0.08524407  0.12509259  1
  Hf  Hf17  1  0.00478950  0.59799874  0.24342937  1
  Hf  Hf18  1  -0.01026246  0.81022712  0.75667906  1
  Hf  Hf19  1  0.20162521  0.21325649  0.50972605  1
  Hf  Hf20  1  0.50584967  0.70028709  0.39235760  1
  Hf  Hf21  1  0.18650744  0.82188931  0.48348108  1
  Hf  Hf22  1  0.90645921  0.49130916  0.87584173  1
  Hf  Hf23  1  0.39125405  0.58741602  0.74668747  1
  Hf  Hf24  1  0.91424316  0.10538441  0.12847562  1
  Hf  Hf25  1  0.91318182  0.10723280  0.87768038  1
  Hf  Hf26  1  -0.00823588  0.80737394  0.24716391  1
  Hf  Hf27  1  0.70072488  0.49517304  0.11172761  1
  Hf  Hf28  1  0.09468159  0.90558837  0.88558957  1
  Hf  Hf29  1  0.01381861  0.38230102  0.48895561  1
  Hf  Hf30  1  0.00102767  0.59682368  0.00897561  1
  Hf  Hf31  1  0.79547407  0.38409800  0.49979958  1
  Hf  Hf32  1  0.89552516  0.49286132  0.12162215  1
  Hf  Hf33  1  0.88579940  0.71006255  0.87767537  1
  Hf  Hf34  1  0.40737864  0.38785414  0.48653277  1
  Hf  Hf35  1  0.10181833  0.70410398  0.88330056  1
  Hf  Hf36  1  0.59005690  0.38074641  0.76513211  1
  Hf  Hf37  1  0.59689428  -0.02426113  0.24563729  1
  Hf  Hf38  1  0.11773152  0.91009429  0.13732534  1
  Hf  Hf39  1  0.38981609  0.80091421  0.74185216  1
  Zr  Zr40  1  0.50523570  0.70363915  0.87123602  1
  Zr  Zr41  1  0.00714074  0.20314830  0.26973087  1
  Zr  Zr42  1  0.68590547  0.47750085  0.62665241  1
  Zr  Zr43  1  0.60375773  0.61001438  0.24782940  1
  Zr  Zr44  1  0.20320656  0.61480257  0.74946068  1
  Zr  Zr45  1  0.38045543  0.58500439  0.49550081  1
  Zr  Zr46  1  0.49699189  0.28729185  0.36033238  1
  Zr  Zr47  1  0.48400585  0.89405485  0.39931495  1
  Zr  Zr48  1  0.91365665  0.10269643  0.61788181  1
  Zr  Zr49  1  0.29950188  0.71818191  0.36996571  1
  Zr  Zr50  1  0.18625231  0.20243731  0.01487262  1
  Zr  Zr51  1  0.11239005  0.69818656  0.13367955  1
  Zr  Zr52  1  0.59580302  0.59185720  0.74684249  1
  Zr  Zr53  1  0.31459128  0.31691745  0.62650064  1
  Zr  Zr54  1  0.28633546  0.92032187  0.62045484  1
  Zr  Zr55  1  -0.00264350  0.38402286  0.00449509  1
  Zr  Zr56  1  0.60628572  0.00000015  0.74803899  1
  Zr  Zr57  1  0.01203011  0.00867788  0.74568010  1
  Zr  Zr58  1  0.77902844  0.79732785  0.24485674  1
  Zr  Zr59  1  0.91670766  0.48128912  0.62183741  1
  Zr  Zr60  1  0.60185805  0.01278813  0.50784479  1
  Zr  Zr61  1  0.90033253  0.71373266  0.38336055  1
  Zr  Zr62  1  0.79413792  0.60137405  0.74504562  1
  Zr  Zr63  1  0.11549159  0.50856694  0.37713930  1
  Zr  Zr64  1  0.00821748  0.59353879  0.74688319  1
  Zr  Zr65  1  0.88750084  0.91144946  0.12495602  1
  Zr  Zr66  1  0.89535126  0.50362310  0.38469118  1
  Zr  Zr67  1  0.91108681  0.70581804  0.62312626  1
  Zr  Zr68  1  0.79743642  0.19391013  0.49217249  1
  Zr  Zr69  1  0.11342206  0.10071648  0.87434550  1
  Zr  Zr70  1  0.28984974  0.51397230  0.13534767  1
  Zr  Zr71  1  -0.00965031  0.39532009  0.26123230  1
  Zr  Zr72  1  0.49857262  0.29940204  0.12188259  1
  Zr  Zr73  1  0.79440426  0.59994229  0.51524336  1
  Zr  Zr74  1  0.38588706  0.19828244  0.01080224  1
  Zr  Zr75  1  0.08777557  0.29996273  0.86569439  1
  Zr  Zr76  1  -0.00754534  0.80835089  0.01132869  1
  Zr  Zr77  1  0.20799652  0.40926084  0.74811918  1
  Zr  Zr78  1  0.20554806  0.19498393  0.73671938  1
  Zr  Zr79  1  0.40030007  0.61813806  0.00536962  1
  Ta  Ta80  1  0.41129017  0.21559039  0.75866663  1
  Ta  Ta81  1  0.70008047  0.88033905  0.87317183  1
  Ta  Ta82  1  0.11928056  0.50187209  0.61088976  1
  Ta  Ta83  1  0.69683119  0.69315580  0.39169190  1
  Ta  Ta84  1  0.49622436  0.11470297  0.63362133  1
  Ta  Ta85  1  0.80764160  0.19859846  -0.00414648  1
  Ta  Ta86  1  0.29268633  0.91244029  0.86961237  1
  Ta  Ta87  1  0.28663189  0.70918934  0.60866296  1
  Ta  Ta88  1  0.69710915  0.49894350  0.88070626  1
  Ta  Ta89  1  0.60661328  0.79441183  0.72968739  1
  Ta  Ta90  1  0.39433311  0.39622065  0.24443327  1
  Ta  Ta91  1  0.78966776  0.80331944  0.73786999  1
  Ta  Ta92  1  0.30055742  0.50034707  0.88515039  1
  Ta  Ta93  1  0.01570052  0.61005463  0.50098378  1
  Ta  Ta94  1  0.19084257  0.81420055  0.74887212  1
  Ta  Ta95  1  0.50236193  0.49271509  0.37163100  1
  Ta  Ta96  1  0.78068448  0.79641005  0.00088508  1
  Ta  Ta97  1  0.60001823  0.18782696  0.23535909  1
  Ta  Ta98  1  0.10608843  0.50138992  0.87923263  1
  Ta  Ta99  1  0.18975214  0.39560741  0.24190876  1
  Ta  Ta100  1  0.21255018  0.00430899  0.00813812  1
  Ta  Ta101  1  0.48977424  0.29623150  0.89100742  1
  Ta  Ta102  1  0.49581363  0.07366107  0.12451428  1
  Ta  Ta103  1  0.88684649  0.29656173  0.12692547  1
  Ta  Ta104  1  0.21606448  0.80875432  0.00188256  1
  Ta  Ta105  1  0.60308598  -0.01364909  -0.00505141  1
  Ta  Ta106  1  0.39986482  0.18905401  0.50090504  1
  Ta  Ta107  1  0.50457542  0.10401263  0.87357985  1
  Ta  Ta108  1  0.49305606  0.49258446  0.88622793  1
  Ta  Ta109  1  0.59976037  0.39774525  -0.00555600  1
  Ta  Ta110  1  0.68865827  0.49488500  0.38285575  1
  Ta  Ta111  1  0.80043286  0.80587396  0.51246119  1
  Ta  Ta112  1  0.59187155  0.58067854  0.50683334  1
  Ta  Ta113  1  0.61031711  0.79507942  0.52313356  1
  Ta  Ta114  1  0.20067561  0.60476037  -0.00017902  1
  Ta  Ta115  1  0.40236290  -0.00248156  -0.00616702  1
  Ta  Ta116  1  0.38742858  0.18269214  0.23385498  1
  Ta  Ta117  1  0.80931812  -0.01248712  0.75691477  1
  Ta  Ta118  1  0.28888855  0.29137256  0.36137182  1
  Ta  Ta119  1  0.68996632  0.29900615  0.36996239  1
  Ti  Ti120  1  0.50293880  0.50899286  0.11475113  1
  Ti  Ti121  1  0.70009556  0.09470644  0.63062461  1
  Ti  Ti122  1  0.00929712  0.01340127  0.00739877  1
  Ti  Ti123  1  0.68772509  0.89036783  0.11543494  1
  Ti  Ti124  1  0.01261682  0.00209001  0.26057897  1
  Ti  Ti125  1  0.69070718  0.09887594  0.36801999  1
  Ti  Ti126  1  0.59823403  0.20846876  0.49906062  1
  Ti  Ti127  1  0.00564626  0.19670643  0.48901493  1
  Ti  Ti128  1  0.41893147  0.81584559  0.25437394  1
  Ti  Ti129  1  0.10235995  0.70891411  0.36619169  1
  Ti  Ti130  1  0.51132337  0.29715890  0.62573711  1
  Ti  Ti131  1  0.88232833  0.69942803  0.11981095  1
  Ti  Ti132  1  0.70485066  0.29590935  0.12279487  1
  Ti  Ti133  1  0.01591878  -0.01836544  0.48345643  1
  Ti  Ti134  1  0.49969100  0.87545724  0.11120117  1
  Ti  Ti135  1  0.90707917  0.09244180  0.37825189  1
  Ti  Ti136  1  0.70105845  0.08908261  0.87641618  1
  Ti  Ti137  1  0.21448298  0.41273838  0.49490847  1
  Ti  Ti138  1  0.08402964  0.29246510  0.13097859  1
  Ti  Ti139  1  0.80877326  -0.00487346  0.26520131  1
  Ti  Ti140  1  0.11536672  0.09116408  0.61500569  1
  Ti  Ti141  1  0.79549258  0.39503221  0.26025033  1
  Ti  Ti142  1  0.69698868  0.28497618  0.87873868  1
  Ti  Ti143  1  0.30061374  0.49920319  0.35633723  1
  Ti  Ti144  1  0.80481404  -0.00663171  -0.01223588  1
  Ti  Ti145  1  0.31725836  0.91531618  0.13231607  1
  Ti  Ti146  1  0.68027218  0.70221782  0.11697787  1
  Ti  Ti147  1  0.69630403  0.28285755  0.62994768  1
  Ti  Ti148  1  0.48472715  0.47879526  0.62555290  1
  Ti  Ti149  1  0.20113856  0.19515142  0.23345887  1
  Ti  Ti150  1  0.79518014  0.38906601  -0.01105453  1
  Ti  Ti151  1  0.79282183  0.60151111  -0.00604747  1
  Ti  Ti152  1  0.90378169  0.90465678  0.62031134  1
  Ti  Ti153  1  0.09278202  0.90294476  0.62046917  1
  Ti  Ti154  1  0.30045131  0.71313395  0.87789169  1
  Ti  Ti155  1  0.39423203  0.40252645  0.01034937  1
  Ti  Ti156  1  0.10182073  0.71297658  0.61666598  1
  Ti  Ti157  1  0.60379415  0.60646846  -0.00721273  1
  Ti  Ti158  1  0.30728083  0.11128855  0.87446494  1
  Ti  Ti159  1  0.38855517  0.01757920  0.75069764  1
  Mo  Mo160  1  0.90200324  0.90573751  0.37310361  1
  Mo  Mo161  1  0.20216000  0.60439571  0.25269040  1
  Mo  Mo162  1  0.08493420  0.30267770  0.62973319  1
  Mo  Mo163  1  0.38790247  0.01364610  0.50623273  1
  Mo  Mo164  1  0.29305909  0.30150683  0.14134063  1
  Mo  Mo165  1  0.89435431  0.29291087  0.37949002  1
  Mo  Mo166  1  0.20778354  0.81644730  0.26388493  1
  Mo  Mo167  1  0.89033610  0.29665986  0.87558327  1
  Mo  Mo168  1  0.40614574  -0.00626196  0.24559425  1
  Mo  Mo169  1  0.19470237  0.61095095  0.49802679  1
  Mo  Mo170  1  0.88989811  0.90593837  0.88116078  1
  Mo  Mo171  1  0.29571821  0.93226215  0.37514905  1
  Mo  Mo172  1  0.50339921  0.70354755  0.12003923  1
  Mo  Mo173  1  0.69879760  0.69521164  0.61762427  1
  Mo  Mo174  1  0.30254867  0.50872534  0.61943024  1
  Mo  Mo175  1  -0.00357512  0.81011246  0.49606016  1
  Mo  Mo176  1  0.31265261  0.10845212  0.37266858  1
  Mo  Mo177  1  0.10062872  0.09492651  0.13406625  1
  Mo  Mo178  1  0.11376759  0.29965272  0.37364133  1
  Mo  Mo179  1  0.00922523  0.39638344  0.74489813  1
  Mo  Mo180  1  0.29790605  0.09074851  0.12166432  1
  Mo  Mo181  1  0.60216829  0.19483755  0.75696951  1
  Mo  Mo182  1  0.10357147  0.90054886  0.35621963  1
  Mo  Mo183  1  0.90756676  0.29122242  0.62243850  1
  Mo  Mo184  1  0.09842331  0.49646056  0.12761879  1
  Mo  Mo185  1  0.70863074  0.90457668  0.62739559  1
  Mo  Mo186  1  -0.00721341  0.19883978  0.00872105  1
  Mo  Mo187  1  0.40289130  0.40100818  0.76349650  1
  Mo  Mo188  1  0.69828469  0.69594445  0.87259006  1
  Mo  Mo189  1  0.59454643  0.79705907  -0.00505597  1
  Mo  Mo190  1  0.30848071  0.31108182  0.87708854  1
  Mo  Mo191  1  0.59056350  0.79093091  0.25202396  1
  Mo  Mo192  1  0.31076982  0.10923988  0.62976048  1
  Mo  Mo193  1  0.59603614  0.38798652  0.49761584  1
  Mo  Mo194  1  0.22369331  0.01189155  0.24559701  1
  Mo  Mo195  1  -0.00456791  0.21675092  0.73793023  1
  Mo  Mo196  1  0.39140747  0.81667852  -0.00406064  1
  Mo  Mo197  1  0.20118209  0.01405345  0.49877629  1
  Mo  Mo198  1  0.20518774  -0.00020281  0.75151506  1
  Mo  Mo199  1  0.39420352  0.80368474  0.50853330  1
