# generated using pymatgen
data_HfZrTaTiMo
_symmetry_space_group_name_H-M   'P 1'
_cell_length_a   15.20851447
_cell_length_b   15.20475610
_cell_length_c   16.84568201
_cell_angle_alpha   89.97325524
_cell_angle_beta   90.03407096
_cell_angle_gamma   89.97475194
_symmetry_Int_Tables_number   1
_chemical_formula_structural   HfZrTaTiMo
_chemical_formula_sum   'Hf40 Zr40 Ta40 Ti40 Mo40'
_cell_volume   3895.42354831
_cell_formula_units_Z   40
loop_
 _symmetry_equiv_pos_site_id
 _symmetry_equiv_pos_as_xyz
  1  'x, y, z'
loop_
 _atom_site_type_symbol
 _atom_site_label
 _atom_site_symmetry_multiplicity
 _atom_site_fract_x
 _atom_site_fract_y
 _atom_site_fract_z
 _atom_site_occupancy
  Hf  Hf0  1  0.68903694  0.10200076  0.87738283  1
  Hf  Hf1  1  0.80187299  0.80294548  0.50234075  1
  Hf  Hf2  1  0.90097978  0.30419530  0.12146597  1
  Hf  Hf3  1  0.40563653  0.80802719  0.01302871  1
  Hf  Hf4  1  0.10965731  0.69369121  0.87303809  1
  Hf  Hf5  1  0.11050386  0.90113225  0.13349185  1
  Hf  Hf6  1  0.09605556  0.29658464  0.86160016  1
  Hf  Hf7  1  0.59156646  0.40367930  -0.00081731  1
  Hf  Hf8  1  0.11361638  0.29920870  0.37184641  1
  Hf  Hf9  1  0.38224257  0.60293092  0.50342782  1
  Hf  Hf10  1  0.00700742  0.58873961  0.25985543  1
  Hf  Hf11  1  0.80944842  0.79466307  0.74929843  1
  Hf  Hf12  1  0.21165863  0.79906102  -0.00221740  1
  Hf  Hf13  1  0.68970368  0.30058388  0.12655940  1
  Hf  Hf14  1  0.79037670  0.58985380  0.49919260  1
  Hf  Hf15  1  0.31837580  0.90130029  0.86855762  1
  Hf  Hf16  1  0.50378702  0.72218112  0.87150062  1
  Hf  Hf17  1  0.31589442  0.91223543  0.62208187  1
  Hf  Hf18  1  0.38822947  0.62403534  0.74970715  1
  Hf  Hf19  1  0.90536205  0.70104118  0.37895769  1
  Hf  Hf20  1  0.69676783  0.30647056  0.86865868  1
  Hf  Hf21  1  0.79179956  0.19339890  0.01051174  1
  Hf  Hf22  1  0.89923123  0.48423874  0.61528313  1
  Hf  Hf23  1  0.69093381  0.70140546  0.37582665  1
  Hf  Hf24  1  0.40337793  0.60539832  -0.01074058  1
  Hf  Hf25  1  0.48544627  0.09010054  0.61146896  1
  Hf  Hf26  1  0.01117369  0.79301105  0.75197524  1
  Hf  Hf27  1  0.71866380  0.10039236  0.37889340  1
  Hf  Hf28  1  0.50527894  0.50295144  0.85197992  1
  Hf  Hf29  1  0.59514996  0.19582114  0.74511971  1
  Hf  Hf30  1  0.58595690  0.41521353  0.49689062  1
  Hf  Hf31  1  0.00021214  -0.00188726  0.74111482  1
  Hf  Hf32  1  0.81059006  0.01095383  0.22780281  1
  Hf  Hf33  1  0.89949501  0.48265268  0.38749928  1
  Hf  Hf34  1  0.00899876  0.58184266  0.74804613  1
  Hf  Hf35  1  0.89603791  0.09668072  0.87638526  1
  Hf  Hf36  1  0.21540673  0.77842709  0.49904191  1
  Hf  Hf37  1  0.49400521  0.91628526  0.13671340  1
  Hf  Hf38  1  0.42277034  0.80088301  0.50535799  1
  Hf  Hf39  1  0.00118442  0.79948826  0.24421590  1
  Zr  Zr40  1  0.11043681  0.88590877  0.62232213  1
  Zr  Zr41  1  0.90651431  0.27898427  0.37694764  1
  Zr  Zr42  1  -0.00912250  -0.00331385  0.01379927  1
  Zr  Zr43  1  0.69615861  0.69064842  0.11637753  1
  Zr  Zr44  1  0.29589082  0.11469322  0.87920841  1
  Zr  Zr45  1  0.09932279  0.89370305  0.37514625  1
  Zr  Zr46  1  0.89814632  0.29922236  0.88184788  1
  Zr  Zr47  1  0.69868858  0.69608148  0.62548683  1
  Zr  Zr48  1  0.70415670  0.30451976  0.38408144  1
  Zr  Zr49  1  0.01944279  0.19981068  0.00738346  1
  Zr  Zr50  1  0.60416995  0.00891761  0.25105244  1
  Zr  Zr51  1  0.79490908  -0.00237603  0.74707981  1
  Zr  Zr52  1  0.49074149  0.29415008  0.86516026  1
  Zr  Zr53  1  0.79884063  0.80080163  0.24100829  1
  Zr  Zr54  1  0.21095720  0.58676182  -0.01148181  1
  Zr  Zr55  1  0.90110981  0.91783082  0.37410569  1
  Zr  Zr56  1  0.30390779  0.09446363  0.12575276  1
  Zr  Zr57  1  0.59330458  0.40095935  0.25622681  1
  Zr  Zr58  1  0.39988166  0.80033031  0.24591750  1
  Zr  Zr59  1  0.10912830  0.67759236  0.12484487  1
  Zr  Zr60  1  0.38741923  0.40770933  -0.00697241  1
  Zr  Zr61  1  0.69738999  0.89704569  0.88263735  1
  Zr  Zr62  1  0.59879494  -0.01272189  0.49078951  1
  Zr  Zr63  1  0.29850554  0.29477697  0.13217967  1
  Zr  Zr64  1  -0.00882069  0.20262353  0.72757219  1
  Zr  Zr65  1  0.70782771  0.30703470  0.61846430  1
  Zr  Zr66  1  0.49549915  0.31198799  0.62855918  1
  Zr  Zr67  1  0.01433223  0.19176428  0.52059210  1
  Zr  Zr68  1  0.20135738  -0.00070737  0.75209884  1
  Zr  Zr69  1  0.19468090  0.01093152  0.49456834  1
  Zr  Zr70  1  0.18616861  0.39089200  -0.00433488  1
  Zr  Zr71  1  0.02008860  0.59617397  0.50148960  1
  Zr  Zr72  1  0.68306034  0.49801753  0.64305298  1
  Zr  Zr73  1  0.48914745  0.50932027  0.13215104  1
  Zr  Zr74  1  0.69393699  0.09515711  0.62022938  1
  Zr  Zr75  1  0.70570132  0.69450349  0.88179018  1
  Zr  Zr76  1  0.89821973  0.68911168  0.11556926  1
  Zr  Zr77  1  0.90705681  0.49778893  0.12285674  1
  Zr  Zr78  1  0.00934735  0.79719537  -0.00204256  1
  Zr  Zr79  1  0.57050760  -0.01057129  0.75673271  1
  Ta  Ta80  1  0.48650103  0.50702996  0.37206976  1
  Ta  Ta81  1  0.39221246  0.19096823  0.74378958  1
  Ta  Ta82  1  0.90783589  0.89460670  0.87775701  1
  Ta  Ta83  1  0.81137951  0.59568020  0.75150358  1
  Ta  Ta84  1  0.50665777  0.89578219  0.36516723  1
  Ta  Ta85  1  0.37390709  0.40637164  0.49771125  1
  Ta  Ta86  1  0.81403180  0.19189332  0.51088376  1
  Ta  Ta87  1  0.59308231  0.60589875  0.24984052  1
  Ta  Ta88  1  -0.00822376  0.00109815  0.51371843  1
  Ta  Ta89  1  0.59683261  0.80539687  0.01342694  1
  Ta  Ta90  1  0.80687146  0.80902622  0.00542403  1
  Ta  Ta91  1  0.10300038  0.30735204  0.13699963  1
  Ta  Ta92  1  0.59404448  0.00669766  0.00646776  1
  Ta  Ta93  1  0.20645949  0.22518096  0.51293745  1
  Ta  Ta94  1  -0.00223539  0.18912449  0.23992331  1
  Ta  Ta95  1  0.50027464  0.10937658  0.37900439  1
  Ta  Ta96  1  0.39467693  0.21000453  0.49491360  1
  Ta  Ta97  1  0.08545432  0.10152287  0.37165837  1
  Ta  Ta98  1  0.28127020  0.49724480  0.14398149  1
  Ta  Ta99  1  0.70145100  0.89547058  0.36980961  1
  Ta  Ta100  1  0.39600747  0.00283447  0.47773872  1
  Ta  Ta101  1  0.49889597  0.11607784  0.12973823  1
  Ta  Ta102  1  0.79358894  0.41472837  -0.00274139  1
  Ta  Ta103  1  0.40273604  0.20621977  0.26409581  1
  Ta  Ta104  1  0.80105883  0.40065584  0.25207354  1
  Ta  Ta105  1  0.68930063  0.89264960  0.62319207  1
  Ta  Ta106  1  0.49706021  0.70010233  0.37179055  1
  Ta  Ta107  1  0.00624762  0.79788257  0.50589692  1
  Ta  Ta108  1  0.49018815  0.30076756  0.13095321  1
  Ta  Ta109  1  0.29495557  0.31814340  0.63868954  1
  Ta  Ta110  1  0.70407282  0.50140660  0.12770394  1
  Ta  Ta111  1  0.70440964  0.50083526  0.85986066  1
  Ta  Ta112  1  0.59588018  0.20327647  0.49587198  1
  Ta  Ta113  1  0.29214623  0.31185330  0.85169980  1
  Ta  Ta114  1  0.19449770  -0.00029775  -0.00845346  1
  Ta  Ta115  1  0.20184666  0.00251505  0.26382394  1
  Ta  Ta116  1  0.28017258  0.51123786  0.63834849  1
  Ta  Ta117  1  0.30905840  0.68978880  0.13088465  1
  Ta  Ta118  1  0.19258019  0.20095508  0.73097270  1
  Ta  Ta119  1  0.79546778  0.59069478  0.25848869  1
  Ti  Ti120  1  0.59871849  0.79776849  0.23800257  1
  Ti  Ti121  1  0.60032805  0.20093469  0.25535007  1
  Ti  Ti122  1  0.40457301  0.00941375  -0.00148581  1
  Ti  Ti123  1  0.58618815  0.19818045  0.00120021  1
  Ti  Ti124  1  0.19904986  0.19691243  0.25436758  1
  Ti  Ti125  1  0.69935119  0.90363160  0.12195452  1
  Ti  Ti126  1  0.90135267  0.69021767  0.88391181  1
  Ti  Ti127  1  0.00327611  0.39315832  0.25493863  1
  Ti  Ti128  1  0.57946567  0.61245773  0.50527446  1
  Ti  Ti129  1  0.00785844  0.57533479  -0.00797830  1
  Ti  Ti130  1  0.90471239  0.49331740  0.87721062  1
  Ti  Ti131  1  0.29059560  0.11928123  0.38071532  1
  Ti  Ti132  1  0.41676181  0.82039648  0.73684955  1
  Ti  Ti133  1  0.29604915  0.10877433  0.61635823  1
  Ti  Ti134  1  0.39324874  0.01098365  0.27036911  1
  Ti  Ti135  1  0.38919690  0.59973243  0.25835396  1
  Ti  Ti136  1  0.89856735  0.89367473  0.62372657  1
  Ti  Ti137  1  0.11502556  0.10468279  0.12595668  1
  Ti  Ti138  1  0.00193903  0.00670124  0.23714552  1
  Ti  Ti139  1  0.20747965  0.78976659  0.25365522  1
  Ti  Ti140  1  0.30254483  0.89001370  0.37487506  1
  Ti  Ti141  1  0.80220010  0.19817232  0.73719902  1
  Ti  Ti142  1  0.79570426  0.00046917  0.01610569  1
  Ti  Ti143  1  0.48909011  0.30781344  0.37838785  1
  Ti  Ti144  1  0.48670777  0.50849697  0.64114444  1
  Ti  Ti145  1  0.12722641  0.67755833  0.62940952  1
  Ti  Ti146  1  0.60058008  0.79620063  0.74409556  1
  Ti  Ti147  1  0.39507664  0.20749901  -0.00227179  1
  Ti  Ti148  1  0.80031687  0.19882046  0.23962899  1
  Ti  Ti149  1  0.90937494  0.69419457  0.62077549  1
  Ti  Ti150  1  0.80498381  -0.00129065  0.50714196  1
  Ti  Ti151  1  0.29648221  0.90649367  0.13209850  1
  Ti  Ti152  1  0.60393270  0.59562260  -0.00239188  1
  Ti  Ti153  1  0.69158229  0.50254597  0.37395400  1
  Ti  Ti154  1  0.11760424  0.69115504  0.37464730  1
  Ti  Ti155  1  0.22131962  0.78653268  0.75182758  1
  Ti  Ti156  1  0.01577289  0.38750376  0.50642156  1
  Ti  Ti157  1  0.81440498  0.39442800  0.75037065  1
  Ti  Ti158  1  0.11931700  0.49459353  0.37504039  1
  Ti  Ti159  1  0.09662918  0.09341035  0.87534675  1
  Mo  Mo160  1  0.60548079  0.79526783  0.49428399  1
  Mo  Mo161  1  0.50623315  0.89919558  0.61919626  1
  Mo  Mo162  1  0.10976687  0.09631365  0.62256777  1
  Mo  Mo163  1  0.20147852  0.60253738  0.25561064  1
  Mo  Mo164  1  0.89478137  0.09004291  0.62667666  1
  Mo  Mo165  1  0.39022308  0.40574405  0.74711271  1
  Mo  Mo166  1  0.89668039  0.30146801  0.61678723  1
  Mo  Mo167  1  0.29251779  0.50092957  0.85346188  1
  Mo  Mo168  1  0.29857124  0.49400037  0.36069227  1
  Mo  Mo169  1  0.20144938  0.41193357  0.50121911  1
  Mo  Mo170  1  0.09261784  0.48954982  0.87323177  1
  Mo  Mo171  1  0.30187648  0.30234173  0.37178410  1
  Mo  Mo172  1  -0.01171249  0.39916508  0.74573308  1
  Mo  Mo173  1  0.19406526  0.40114905  0.25028125  1
  Mo  Mo174  1  0.10426559  0.90364933  0.87342517  1
  Mo  Mo175  1  0.59914191  0.60841455  0.75063471  1
  Mo  Mo176  1  -0.00146133  0.40025387  -0.00013064  1
  Mo  Mo177  1  0.30879530  0.70729176  0.87385637  1
  Mo  Mo178  1  0.50600767  0.69929479  0.63173628  1
  Mo  Mo179  1  0.10422048  0.31659482  0.63151226  1
  Mo  Mo180  1  0.20866512  0.58727392  0.49611165  1
  Mo  Mo181  1  0.18277243  0.41258563  0.75413852  1
  Mo  Mo182  1  0.19782316  0.60476121  0.76103866  1
  Mo  Mo183  1  0.50436215  0.90901995  0.88816425  1
  Mo  Mo184  1  0.39565799  0.39994871  0.25693853  1
  Mo  Mo185  1  0.68771267  0.10566211  0.12154946  1
  Mo  Mo186  1  0.30444009  0.69676058  0.36805316  1
  Mo  Mo187  1  0.49122315  0.09980814  0.88573137  1
  Mo  Mo188  1  0.49980894  0.69825982  0.12591059  1
  Mo  Mo189  1  0.90822010  0.09627799  0.37466722  1
  Mo  Mo190  1  0.09751346  0.48893904  0.13167728  1
  Mo  Mo191  1  0.90234881  0.10556209  0.12342424  1
  Mo  Mo192  1  0.80142183  0.59398269  -0.01241650  1
  Mo  Mo193  1  0.59901043  0.40100225  0.75093932  1
  Mo  Mo194  1  0.29935727  0.71028857  0.62913780  1
  Mo  Mo195  1  0.20468317  0.19560168  -0.00232511  1
  Mo  Mo196  1  0.39648358  0.01057538  0.74767254  1
  Mo  Mo197  1  0.10512877  0.49160821  0.62408979  1
  Mo  Mo198  1  0.79770907  0.39610038  0.49416361  1
  Mo  Mo199  1  0.90011461  0.89769326  0.12176660  1
