# generated using pymatgen
data_HfZrTaTiMo
_symmetry_space_group_name_H-M   'P 1'
_cell_length_a   15.18353276
_cell_length_b   15.19063806
_cell_length_c   16.80075651
_cell_angle_alpha   90.03854633
_cell_angle_beta   90.04484796
_cell_angle_gamma   90.12343225
_symmetry_Int_Tables_number   1
_chemical_formula_structural   HfZrTaTiMo
_chemical_formula_sum   'Hf40 Zr40 Ta40 Ti40 Mo40'
_cell_volume   3875.04227642
_cell_formula_units_Z   40
loop_
 _symmetry_equiv_pos_site_id
 _symmetry_equiv_pos_as_xyz
  1  'x, y, z'
loop_
 _atom_site_type_symbol
 _atom_site_label
 _atom_site_symmetry_multiplicity
 _atom_site_fract_x
 _atom_site_fract_y
 _atom_site_fract_z
 _atom_site_occupancy
  Hf  Hf0  1  0.60529266  0.80388457  0.49512276  1
  Hf  Hf1  1  0.88908542  0.90086397  0.11532943  1
  Hf  Hf2  1  0.49623787  0.09400940  0.38448655  1
  Hf  Hf3  1  0.39958627  0.59091266  0.74056066  1
  Hf  Hf4  1  0.80659816  0.39646249  -0.01593530  1
  Hf  Hf5  1  0.69807462  0.08780448  0.87949872  1
  Hf  Hf6  1  0.41802366  0.80875130  0.00814499  1
  Hf  Hf7  1  0.81304629  -0.00106159  0.75313362  1
  Hf  Hf8  1  0.11276983  0.50058884  0.85481819  1
  Hf  Hf9  1  0.40056750  0.79912237  0.24312495  1
  Hf  Hf10  1  0.40076884  0.60211086  0.24736935  1
  Hf  Hf11  1  -0.00031033  0.80314951  0.24146463  1
  Hf  Hf12  1  0.60983322  0.59418322  0.73494433  1
  Hf  Hf13  1  0.39239263  -0.02191177  0.50386909  1
  Hf  Hf14  1  0.19794048  0.00417614  0.23507304  1
  Hf  Hf15  1  0.69728268  0.30038193  0.86559434  1
  Hf  Hf16  1  0.51418140  0.69242348  0.86631906  1
  Hf  Hf17  1  0.59715889  -0.01336700  0.74385640  1
  Hf  Hf18  1  0.38592273  0.19348229  -0.00725688  1
  Hf  Hf19  1  0.60077345  0.41411879  -0.00666233  1
  Hf  Hf20  1  0.52611670  0.50110345  0.13832810  1
  Hf  Hf21  1  0.30943251  0.92489893  0.88362099  1
  Hf  Hf22  1  0.89314382  0.70023752  0.11041065  1
  Hf  Hf23  1  0.00093626  0.80155615  0.50605110  1
  Hf  Hf24  1  0.09744134  0.89642428  0.63771708  1
  Hf  Hf25  1  0.19856782  0.20008974  0.73469110  1
  Hf  Hf26  1  0.91018642  0.49022478  0.12707460  1
  Hf  Hf27  1  0.60074641  0.59671888  0.51747847  1
  Hf  Hf28  1  0.08814542  0.91349696  0.87708564  1
  Hf  Hf29  1  0.70380784  0.09316594  0.11617034  1
  Hf  Hf30  1  0.39555558  0.18046508  0.75097127  1
  Hf  Hf31  1  0.19954303  0.01903438  0.00960121  1
  Hf  Hf32  1  0.29895269  0.49785742  0.38718379  1
  Hf  Hf33  1  0.49526387  0.09164595  0.61110126  1
  Hf  Hf34  1  0.61978572  0.39467403  0.51609509  1
  Hf  Hf35  1  0.10120153  0.30045714  0.37845766  1
  Hf  Hf36  1  0.30074221  0.29030864  0.60622452  1
  Hf  Hf37  1  0.10870080  0.10690018  0.86783236  1
  Hf  Hf38  1  0.70016800  0.10713024  0.62487774  1
  Hf  Hf39  1  0.90699350  0.70231328  0.37364719  1
  Zr  Zr40  1  0.09193627  0.69774802  0.09766491  1
  Zr  Zr41  1  0.50463333  0.72159252  0.63794003  1
  Zr  Zr42  1  0.29107490  0.70694093  0.63794023  1
  Zr  Zr43  1  0.40624886  0.39481090  0.26156080  1
  Zr  Zr44  1  0.78757916  0.80138927  0.76466152  1
  Zr  Zr45  1  0.40600586  0.78465956  0.48795910  1
  Zr  Zr46  1  0.20066496  0.80312351  0.50610379  1
  Zr  Zr47  1  0.69589763  0.69239272  0.37658034  1
  Zr  Zr48  1  0.28986716  0.30148565  0.86799417  1
  Zr  Zr49  1  0.09702338  0.89768378  0.37066581  1
  Zr  Zr50  1  0.00295439  0.39306519  -0.01669678  1
  Zr  Zr51  1  0.48690961  0.08407815  0.87932739  1
  Zr  Zr52  1  0.20331183  0.80809914  0.76115596  1
  Zr  Zr53  1  0.28112229  0.69463537  0.36893596  1
  Zr  Zr54  1  0.38802381  0.19481752  0.26061587  1
  Zr  Zr55  1  0.27927340  0.10741354  0.39123407  1
  Zr  Zr56  1  -0.00020432  0.01589993  0.24333848  1
  Zr  Zr57  1  0.79854534  0.18931806  0.25367160  1
  Zr  Zr58  1  0.01302433  0.59783125  0.24729898  1
  Zr  Zr59  1  0.51573823  0.50692061  0.37546879  1
  Zr  Zr60  1  -0.01905503  0.20344284  0.50859258  1
  Zr  Zr61  1  0.80562444  0.00119597  0.50212233  1
  Zr  Zr62  1  0.49463330  0.29521061  0.12760140  1
  Zr  Zr63  1  0.29799557  0.90477206  0.36120821  1
  Zr  Zr64  1  0.81247607  0.40044375  0.51806923  1
  Zr  Zr65  1  0.69520032  0.31223809  0.13072922  1
  Zr  Zr66  1  0.89770958  0.29272058  0.13359442  1
  Zr  Zr67  1  0.08575653  0.30731169  0.13982203  1
  Zr  Zr68  1  0.79717248  0.59104025  -0.00828810  1
  Zr  Zr69  1  0.19813090  0.41436980  0.25598626  1
  Zr  Zr70  1  0.29146536  0.30637416  0.12688969  1
  Zr  Zr71  1  0.79579584  0.59447486  0.24632914  1
  Zr  Zr72  1  0.51103817  0.28147507  0.61192841  1
  Zr  Zr73  1  0.59741408  0.19987336  -0.00346501  1
  Zr  Zr74  1  0.91650979  0.52243315  0.64199546  1
  Zr  Zr75  1  0.09003539  0.31110298  0.63481230  1
  Zr  Zr76  1  0.18343863  0.60016879  0.51641146  1
  Zr  Zr77  1  0.40425721  0.39459514  0.73372963  1
  Zr  Zr78  1  0.30976188  0.70420770  0.87731444  1
  Zr  Zr79  1  0.00724750  0.41709826  0.50580463  1
  Ta  Ta80  1  0.69265003  0.50369816  0.86078052  1
  Ta  Ta81  1  0.90749450  0.09968722  0.11326925  1
  Ta  Ta82  1  0.69159342  0.88588661  0.12805858  1
  Ta  Ta83  1  0.20213601  0.80746817  -0.00014935  1
  Ta  Ta84  1  0.50629880  0.88777842  0.86999531  1
  Ta  Ta85  1  0.30160571  0.69804494  0.11028973  1
  Ta  Ta86  1  0.80612876  0.79895185  0.50263266  1
  Ta  Ta87  1  0.69351415  0.69143422  0.12766366  1
  Ta  Ta88  1  0.09512242  0.30005581  0.85804394  1
  Ta  Ta89  1  0.80558664  0.20032886  0.75529788  1
  Ta  Ta90  1  0.10010950  0.70334000  0.88175256  1
  Ta  Ta91  1  0.90236162  0.49920194  0.37660529  1
  Ta  Ta92  1  0.69843605  0.30151498  0.37131561  1
  Ta  Ta93  1  0.40201402  0.40591011  -0.00369443  1
  Ta  Ta94  1  0.50845538  0.70140400  0.12465022  1
  Ta  Ta95  1  0.30676185  0.90591253  0.11856036  1
  Ta  Ta96  1  0.08459420  0.09253993  0.62036489  1
  Ta  Ta97  1  0.50641404  0.29547088  0.39105686  1
  Ta  Ta98  1  -0.01355420  0.80268001  0.75974005  1
  Ta  Ta99  1  0.40926588  0.40769972  0.50742533  1
  Ta  Ta100  1  0.19538080  0.79780344  0.22518481  1
  Ta  Ta101  1  0.79719922  -0.00738731  0.25085762  1
  Ta  Ta102  1  0.59342458  -0.02716562  0.00635328  1
  Ta  Ta103  1  0.49710922  0.08824400  0.12343456  1
  Ta  Ta104  1  0.77703620  0.79906312  -0.01494772  1
  Ta  Ta105  1  0.20934616  0.59504023  -0.00657806  1
  Ta  Ta106  1  0.91298420  0.09003480  0.88074689  1
  Ta  Ta107  1  0.59315696  0.19698014  0.25606224  1
  Ta  Ta108  1  0.72169021  0.69958465  0.62404568  1
  Ta  Ta109  1  0.18590663  0.21456736  0.00148860  1
  Ta  Ta110  1  0.60439995  -0.00120488  0.24886173  1
  Ta  Ta111  1  0.49702708  0.30916674  0.86911959  1
  Ta  Ta112  1  0.31293322  0.50033247  0.87332637  1
  Ta  Ta113  1  0.79761494  0.40202345  0.74425477  1
  Ta  Ta114  1  0.59754257  0.19753443  0.75523093  1
  Ta  Ta115  1  0.78776507  0.20980453  0.50092341  1
  Ta  Ta116  1  0.20175519  0.40606472  -0.00391030  1
  Ta  Ta117  1  0.81063434  0.19765694  -0.01167568  1
  Ta  Ta118  1  0.50936745  0.89590599  0.36342950  1
  Ta  Ta119  1  0.89689679  0.10074181  0.37752590  1
  Ti  Ti120  1  0.70815484  0.49428593  0.37860487  1
  Ti  Ti121  1  0.40557884  0.00077972  0.24456262  1
  Ti  Ti122  1  0.20542551  0.00822810  0.74172574  1
  Ti  Ti123  1  0.89980461  0.30265601  0.36845186  1
  Ti  Ti124  1  0.09358801  0.90828587  0.11010502  1
  Ti  Ti125  1  0.00208530  0.19768412  -0.00586045  1
  Ti  Ti126  1  0.00102668  0.58624009  -0.01969248  1
  Ti  Ti127  1  0.70588894  0.90191531  0.37118480  1
  Ti  Ti128  1  0.30022292  0.29694654  0.40083895  1
  Ti  Ti129  1  0.69663876  0.89387044  0.62314668  1
  Ti  Ti130  1  0.19866508  0.40802803  0.51179059  1
  Ti  Ti131  1  -0.00121800  0.61190952  0.50463840  1
  Ti  Ti132  1  0.30668635  0.50351732  0.11758989  1
  Ti  Ti133  1  0.90275447  0.90802335  0.62606500  1
  Ti  Ti134  1  0.60342849  -0.00604554  0.49819616  1
  Ti  Ti135  1  0.10951027  0.50124583  0.11666063  1
  Ti  Ti136  1  0.60056871  0.79110271  0.25662589  1
  Ti  Ti137  1  0.18231926  0.19473053  0.24988668  1
  Ti  Ti138  1  0.39313544  -0.01702724  0.73263438  1
  Ti  Ti139  1  0.80804060  0.60053831  0.50706213  1
  Ti  Ti140  1  -0.01155167  0.18854935  0.74409675  1
  Ti  Ti141  1  0.80261523  -0.00810773  -0.00857143  1
  Ti  Ti142  1  0.69631610  0.09890390  0.37837626  1
  Ti  Ti143  1  -0.01144803  0.81233271  -0.01111747  1
  Ti  Ti144  1  0.09869182  0.51497632  0.37594625  1
  Ti  Ti145  1  0.28964606  0.09471436  0.60547386  1
  Ti  Ti146  1  0.81069524  0.60443329  0.76023199  1
  Ti  Ti147  1  0.89881802  0.90593745  0.37528055  1
  Ti  Ti148  1  0.90011018  0.70029729  0.88313291  1
  Ti  Ti149  1  0.79672086  0.80101056  0.25103913  1
  Ti  Ti150  1  0.18233900  -0.00378171  0.50670208  1
  Ti  Ti151  1  0.60622500  0.60559964  -0.00448788  1
  Ti  Ti152  1  0.79925010  0.40241087  0.25411034  1
  Ti  Ti153  1  0.60055494  0.39968207  0.73321073  1
  Ti  Ti154  1  0.08677082  0.10182531  0.38954394  1
  Ti  Ti155  1  0.39727644  0.59640045  0.51481898  1
  Ti  Ti156  1  0.20066920  0.60884384  0.23641281  1
  Ti  Ti157  1  0.29986023  0.10894244  0.12722099  1
  Ti  Ti158  1  -0.01112105  0.39946127  0.75709386  1
  Ti  Ti159  1  0.41401269  0.59174066  0.00074420  1
  Mo  Mo160  1  0.89348555  0.29535724  0.64008550  1
  Mo  Mo161  1  0.50181099  0.49456411  0.87300409  1
  Mo  Mo162  1  0.61143226  0.19111751  0.48803232  1
  Mo  Mo163  1  0.20226657  0.60245765  0.75215710  1
  Mo  Mo164  1  0.20872763  0.40796615  0.73931509  1
  Mo  Mo165  1  0.68957240  0.90026935  0.88054547  1
  Mo  Mo166  1  0.09999261  0.69903223  0.36757033  1
  Mo  Mo167  1  0.90461814  0.28817732  0.86458124  1
  Mo  Mo168  1  0.10900980  0.50917975  0.65399537  1
  Mo  Mo169  1  0.60119497  0.60358714  0.25141903  1
  Mo  Mo170  1  0.50449718  0.90200393  0.62179280  1
  Mo  Mo171  1  0.40322082  0.00153199  0.01339244  1
  Mo  Mo172  1  0.89551715  0.90157522  0.88577216  1
  Mo  Mo173  1  0.18622449  0.19838522  0.51066741  1
  Mo  Mo174  1  0.07674382  0.69246814  0.64718621  1
  Mo  Mo175  1  0.29754137  0.49622786  0.61789326  1
  Mo  Mo176  1  0.61293849  0.39639865  0.26253358  1
  Mo  Mo177  1  0.29859870  0.90571673  0.62616591  1
  Mo  Mo178  1  0.60156684  0.78800759  0.00410899  1
  Mo  Mo179  1  0.49931664  0.70025336  0.37242927  1
  Mo  Mo180  1  0.89850971  0.09982385  0.62843412  1
  Mo  Mo181  1  0.69860689  0.69309013  0.87161880  1
  Mo  Mo182  1  0.90362755  0.71569659  0.63016893  1
  Mo  Mo183  1  0.00107117  0.00096411  0.74924643  1
  Mo  Mo184  1  0.09930548  0.11593685  0.12281544  1
  Mo  Mo185  1  0.50775952  0.89876709  0.14234999  1
  Mo  Mo186  1  0.89997469  0.49928492  0.85834144  1
  Mo  Mo187  1  0.50152799  0.49945955  0.61595774  1
  Mo  Mo188  1  0.29246850  0.09979478  0.87158578  1
  Mo  Mo189  1  0.60623208  0.80068494  0.74608259  1
  Mo  Mo190  1  0.70345062  0.29444587  0.64136893  1
  Mo  Mo191  1  -0.00401115  -0.00327293  0.49766787  1
  Mo  Mo192  1  0.39725136  0.19544601  0.49164651  1
  Mo  Mo193  1  0.40869143  0.81240501  0.75506512  1
  Mo  Mo194  1  0.71067641  0.50040683  0.12601089  1
  Mo  Mo195  1  -0.00749752  0.40471194  0.26848102  1
  Mo  Mo196  1  -0.00251631  0.00809678  0.00679004  1
  Mo  Mo197  1  0.71178516  0.50505100  0.63563871  1
  Mo  Mo198  1  -0.00173825  0.19763827  0.26448727  1
  Mo  Mo199  1  -0.00126372  0.61516097  0.77064104  1
