# generated using pymatgen
data_HfZrTaTiMo
_symmetry_space_group_name_H-M   'P 1'
_cell_length_a   15.21471281
_cell_length_b   15.21640679
_cell_length_c   16.83128846
_cell_angle_alpha   90.01379660
_cell_angle_beta   89.96747158
_cell_angle_gamma   90.08095841
_symmetry_Int_Tables_number   1
_chemical_formula_structural   HfZrTaTiMo
_chemical_formula_sum   'Hf40 Zr40 Ta40 Ti40 Mo40'
_cell_volume   3896.66181857
_cell_formula_units_Z   40
loop_
 _symmetry_equiv_pos_site_id
 _symmetry_equiv_pos_as_xyz
  1  'x, y, z'
loop_
 _atom_site_type_symbol
 _atom_site_label
 _atom_site_symmetry_multiplicity
 _atom_site_fract_x
 _atom_site_fract_y
 _atom_site_fract_z
 _atom_site_occupancy
  Hf  Hf0  1  0.50018284  0.29561518  0.62930899  1
  Hf  Hf1  1  0.09306848  0.29780473  0.61862596  1
  Hf  Hf2  1  0.78280665  0.00423150  0.01016069  1
  Hf  Hf3  1  0.09677601  0.29495453  0.37023286  1
  Hf  Hf4  1  0.81252226  0.79165769  0.24717243  1
  Hf  Hf5  1  0.11873538  0.49527508  0.62607624  1
  Hf  Hf6  1  0.69506353  0.90415463  0.13542962  1
  Hf  Hf7  1  0.19725594  0.80233905  0.25152986  1
  Hf  Hf8  1  0.29179963  0.09594670  0.36348614  1
  Hf  Hf9  1  0.28849576  0.09406211  0.62678079  1
  Hf  Hf10  1  0.10205165  0.12192284  0.89307512  1
  Hf  Hf11  1  0.89063252  0.90562976  0.88400683  1
  Hf  Hf12  1  0.20381660  0.39325114  0.49071498  1
  Hf  Hf13  1  0.09546881  0.90406010  0.38283774  1
  Hf  Hf14  1  0.39346202  0.77844137  -0.01844240  1
  Hf  Hf15  1  0.20339316  0.40809701  0.00935984  1
  Hf  Hf16  1  0.59532154  0.60480606  0.00087837  1
  Hf  Hf17  1  0.38776285  -0.01117450  0.49711599  1
  Hf  Hf18  1  0.01206267  0.78621941  -0.00581853  1
  Hf  Hf19  1  0.40796609  0.59438149  0.49191969  1
  Hf  Hf20  1  -0.00680016  0.61042200  0.24477214  1
  Hf  Hf21  1  0.90941484  0.70672097  0.38777128  1
  Hf  Hf22  1  0.70695853  0.10679514  0.35651660  1
  Hf  Hf23  1  0.20926719  0.80838891  0.50554892  1
  Hf  Hf24  1  0.68490342  0.50289537  0.62660992  1
  Hf  Hf25  1  0.79644420  0.40320290  0.50733426  1
  Hf  Hf26  1  0.79718574  0.80613168  0.50144180  1
  Hf  Hf27  1  0.59875080  0.01220231  0.75566601  1
  Hf  Hf28  1  -0.00143645  0.59739746  0.72899144  1
  Hf  Hf29  1  0.59066181  0.40590375  0.48930160  1
  Hf  Hf30  1  0.60307891  0.39917934  -0.00270938  1
  Hf  Hf31  1  0.70099417  0.89783783  0.36226921  1
  Hf  Hf32  1  0.48220777  0.49462292  0.63623809  1
  Hf  Hf33  1  0.71263909  0.29459617  0.87951960  1
  Hf  Hf34  1  0.69962275  0.29404251  0.13544816  1
  Hf  Hf35  1  0.91129459  0.10007167  0.36441643  1
  Hf  Hf36  1  0.49629905  0.90897429  0.87255710  1
  Hf  Hf37  1  0.50349889  0.87747267  0.11958005  1
  Hf  Hf38  1  0.39556998  0.20459231  0.49638047  1
  Hf  Hf39  1  0.71095527  0.69420235  0.86305828  1
  Zr  Zr40  1  0.89746014  0.50456079  0.38170825  1
  Zr  Zr41  1  0.49660586  0.10063113  0.36435460  1
  Zr  Zr42  1  0.30688008  0.29835796  0.12721183  1
  Zr  Zr43  1  0.09426081  0.50665558  0.12216048  1
  Zr  Zr44  1  0.60872875  0.81122062  -0.01797356  1
  Zr  Zr45  1  0.29500636  0.49417936  0.36571914  1
  Zr  Zr46  1  0.50420114  0.30091003  0.13043239  1
  Zr  Zr47  1  0.19885593  0.20957073  0.75133320  1
  Zr  Zr48  1  0.20180780  0.60302668  0.49701803  1
  Zr  Zr49  1  0.80625898  0.78163467  0.00621782  1
  Zr  Zr50  1  0.37746063  0.38869624  0.77005883  1
  Zr  Zr51  1  0.69537376  0.49688101  0.13431058  1
  Zr  Zr52  1  0.80513662  0.59395123  0.72910375  1
  Zr  Zr53  1  0.30542038  0.68407975  0.12940620  1
  Zr  Zr54  1  0.39360673  -0.00284848  0.23434523  1
  Zr  Zr55  1  0.12499141  0.71741341  0.84302651  1
  Zr  Zr56  1  0.50120009  0.09954895  0.62135550  1
  Zr  Zr57  1  0.91082494  0.30380455  0.87928777  1
  Zr  Zr58  1  0.90516900  0.30289741  0.37698599  1
  Zr  Zr59  1  0.51800508  0.10131866  0.11470202  1
  Zr  Zr60  1  0.60585052  0.00035501  0.49417602  1
  Zr  Zr61  1  0.38941735  0.57740010  -0.01141460  1
  Zr  Zr62  1  0.38938865  0.79757776  0.76273541  1
  Zr  Zr63  1  0.09488986  0.92082713  0.88299863  1
  Zr  Zr64  1  0.40631647  0.18051895  0.76537126  1
  Zr  Zr65  1  0.79914428  0.19905875  0.49945218  1
  Zr  Zr66  1  0.69025930  0.70199682  0.13174459  1
  Zr  Zr67  1  0.29645287  0.88532477  0.11319325  1
  Zr  Zr68  1  0.49762127  0.89699587  0.63336720  1
  Zr  Zr69  1  0.50782592  0.69229976  0.63908838  1
  Zr  Zr70  1  0.60285130  0.39166848  0.76145595  1
  Zr  Zr71  1  0.19098640  0.61991931  -0.01137647  1
  Zr  Zr72  1  0.10127271  0.93439315  0.61836424  1
  Zr  Zr73  1  0.70775065  0.10513089  0.62822458  1
  Zr  Zr74  1  0.10073534  0.09674924  0.36996525  1
  Zr  Zr75  1  0.59096336  0.60871125  0.26067399  1
  Zr  Zr76  1  0.07924330  0.50045662  0.88108766  1
  Zr  Zr77  1  -0.00475198  0.82069150  0.74059864  1
  Zr  Zr78  1  0.91158622  0.68680530  0.86903424  1
  Zr  Zr79  1  0.29642505  0.68253672  0.64196167  1
  Ta  Ta80  1  0.39796050  0.39548126  0.49092669  1
  Ta  Ta81  1  0.69484886  0.29687155  0.63098041  1
  Ta  Ta82  1  0.30441770  0.70770356  0.37035656  1
  Ta  Ta83  1  0.70509491  0.10044457  0.87690280  1
  Ta  Ta84  1  0.50464107  0.49252052  0.87207670  1
  Ta  Ta85  1  0.28597993  0.28186654  0.89472037  1
  Ta  Ta86  1  0.81152785  0.00093089  0.75310080  1
  Ta  Ta87  1  0.20028156  0.19221333  0.50208134  1
  Ta  Ta88  1  0.00624265  0.00747568  0.22758714  1
  Ta  Ta89  1  0.69814863  0.71018923  0.62884823  1
  Ta  Ta90  1  0.80160200  0.60725042  0.51610595  1
  Ta  Ta91  1  0.59769073  0.79736252  0.49896504  1
  Ta  Ta92  1  0.19218984  0.19103313  0.22624251  1
  Ta  Ta93  1  0.29922462  0.89791009  0.36903116  1
  Ta  Ta94  1  0.08602816  0.49747125  0.37375834  1
  Ta  Ta95  1  0.80951394  0.19893612  0.01745412  1
  Ta  Ta96  1  0.21080217  0.01591262  0.00628353  1
  Ta  Ta97  1  0.49412670  0.89092014  0.37049150  1
  Ta  Ta98  1  0.70152368  0.30709589  0.35717218  1
  Ta  Ta99  1  0.09924958  0.90288419  0.10771150  1
  Ta  Ta100  1  0.82057609  0.20791745  0.23539325  1
  Ta  Ta101  1  0.80959325  0.00162274  0.49597611  1
  Ta  Ta102  1  0.09838626  0.71165004  0.12617984  1
  Ta  Ta103  1  0.81146659  0.40992045  0.00781698  1
  Ta  Ta104  1  0.19576183  0.59974864  0.25549288  1
  Ta  Ta105  1  0.81205058  0.00170575  0.23523738  1
  Ta  Ta106  1  0.89528617  0.91104952  0.62096816  1
  Ta  Ta107  1  -0.01485796  0.39552710  0.23641970  1
  Ta  Ta108  1  0.70126675  0.90257502  0.63052333  1
  Ta  Ta109  1  0.18759728  0.39703479  0.24251719  1
  Ta  Ta110  1  -0.00380339  0.19537773  0.74784938  1
  Ta  Ta111  1  0.90130824  0.10669246  0.88047863  1
  Ta  Ta112  1  0.50819465  0.68835329  0.86034860  1
  Ta  Ta113  1  0.49584774  0.30072084  0.35910860  1
  Ta  Ta114  1  0.40074046  0.59719791  0.25812239  1
  Ta  Ta115  1  0.29822744  0.28770852  0.35539124  1
  Ta  Ta116  1  0.10067939  0.69840745  0.37941306  1
  Ta  Ta117  1  0.60196105  0.21219618  0.48679021  1
  Ta  Ta118  1  0.50836077  0.10167098  0.89614814  1
  Ta  Ta119  1  0.90752574  0.89428889  0.11758546  1
  Ti  Ti120  1  0.10652072  0.71273162  0.63394596  1
  Ti  Ti121  1  -0.03464811  0.58884788  0.01664191  1
  Ti  Ti122  1  0.40224890  0.79360952  0.50160093  1
  Ti  Ti123  1  0.80186663  0.20060725  0.74795519  1
  Ti  Ti124  1  0.41139910  0.78934025  0.24966573  1
  Ti  Ti125  1  0.59417583  0.40963809  0.25933719  1
  Ti  Ti126  1  0.48433959  0.50450556  0.12670035  1
  Ti  Ti127  1  0.60462566  0.60600621  0.49273294  1
  Ti  Ti128  1  0.39670260  0.58617881  0.76908555  1
  Ti  Ti129  1  0.00137983  0.39733425  0.74414000  1
  Ti  Ti130  1  0.00062196  0.80131397  0.51332470  1
  Ti  Ti131  1  0.28605344  0.89779576  0.87730554  1
  Ti  Ti132  1  -0.00961400  0.01960999  0.01416731  1
  Ti  Ti133  1  0.29624258  0.31422886  0.62672323  1
  Ti  Ti134  1  0.88924671  0.49615349  0.87412478  1
  Ti  Ti135  1  0.59705971  -0.00125648  0.24955605  1
  Ti  Ti136  1  0.89893265  0.29744419  0.62183750  1
  Ti  Ti137  1  0.61109022  0.80554551  0.75866312  1
  Ti  Ti138  1  0.30033081  0.90198730  0.63769071  1
  Ti  Ti139  1  0.50281883  0.70658557  0.37875173  1
  Ti  Ti140  1  0.09666761  0.30999999  0.88727603  1
  Ti  Ti141  1  0.00142753  0.19003477  0.50528085  1
  Ti  Ti142  1  0.00028494  0.59701660  0.51680628  1
  Ti  Ti143  1  0.70336190  0.70048797  0.37671897  1
  Ti  Ti144  1  0.70065419  0.50474686  0.37476204  1
  Ti  Ti145  1  0.91500034  0.09496814  0.62663888  1
  Ti  Ti146  1  0.40137344  -0.00512808  0.00359925  1
  Ti  Ti147  1  0.19454414  -0.00248060  0.22918315  1
  Ti  Ti148  1  0.90564723  0.90761980  0.37197158  1
  Ti  Ti149  1  0.81074323  0.39778109  0.73812554  1
  Ti  Ti150  1  0.00379963  0.81061962  0.24543018  1
  Ti  Ti151  1  0.39888974  0.40496028  0.25185928  1
  Ti  Ti152  1  0.40107846  0.39138011  -0.00739532  1
  Ti  Ti153  1  0.21272852  0.56733329  0.76189963  1
  Ti  Ti154  1  0.50673190  0.28493501  0.88810480  1
  Ti  Ti155  1  0.38841078  0.18501709  -0.00027926  1
  Ti  Ti156  1  0.19695018  0.00928409  0.76148237  1
  Ti  Ti157  1  0.80420256  0.80274520  0.74121587  1
  Ti  Ti158  1  0.70347554  0.50246339  0.87117013  1
  Ti  Ti159  1  0.80174741  0.59482269  0.25072141  1
  Mo  Mo160  1  0.30620261  0.09634846  0.12603575  1
  Mo  Mo161  1  0.60007665  0.59835178  0.75657222  1
  Mo  Mo162  1  -0.00580035  0.02050430  0.75761292  1
  Mo  Mo163  1  0.60279755  0.00101613  -0.00499502  1
  Mo  Mo164  1  0.90417245  0.70770144  0.61285432  1
  Mo  Mo165  1  0.20050701  0.20345712  0.01550856  1
  Mo  Mo166  1  0.79578826  0.40649112  0.25547572  1
  Mo  Mo167  1  0.50130535  0.49745945  0.37493085  1
  Mo  Mo168  1  0.10118283  0.10140273  0.10974444  1
  Mo  Mo169  1  -0.00926638  0.00148105  0.49645554  1
  Mo  Mo170  1  0.00029130  0.40262184  0.50526221  1
  Mo  Mo171  1  0.59562937  0.80359899  0.26014371  1
  Mo  Mo172  1  0.61921199  0.19301299  -0.00233347  1
  Mo  Mo173  1  0.20365883  0.00327456  0.49540969  1
  Mo  Mo174  1  0.39742903  0.20256958  0.24794718  1
  Mo  Mo175  1  0.09570325  0.10924494  0.62333711  1
  Mo  Mo176  1  0.30152768  0.69208787  0.86008070  1
  Mo  Mo177  1  0.29185813  0.48352931  0.88031396  1
  Mo  Mo178  1  0.60329079  0.20186582  0.25896197  1
  Mo  Mo179  1  0.88800875  0.50353939  0.13391310  1
  Mo  Mo180  1  0.20214429  0.80680103  -0.00354801  1
  Mo  Mo181  1  0.70212793  0.10176454  0.14182760  1
  Mo  Mo182  1  0.30186888  0.49392698  0.14550896  1
  Mo  Mo183  1  0.90622300  0.69886124  0.12674186  1
  Mo  Mo184  1  0.49559378  0.69213474  0.12628187  1
  Mo  Mo185  1  0.90091472  0.10243631  0.12457359  1
  Mo  Mo186  1  0.90121891  0.31074237  0.12127659  1
  Mo  Mo187  1  0.30604232  0.48731137  0.62487337  1
  Mo  Mo188  1  0.00930503  0.20539387  0.23287196  1
  Mo  Mo189  1  0.18754590  0.39243451  0.76012350  1
  Mo  Mo190  1  -0.00520394  0.40074806  0.01105810  1
  Mo  Mo191  1  0.90997265  0.48780584  0.61383736  1
  Mo  Mo192  1  -0.00060931  0.21196839  0.01327521  1
  Mo  Mo193  1  0.79124358  0.58885707  -0.00306187  1
  Mo  Mo194  1  0.20154456  0.82279199  0.73829926  1
  Mo  Mo195  1  0.38535204  0.00003708  0.76299479  1
  Mo  Mo196  1  0.09425880  0.30105918  0.12261626  1
  Mo  Mo197  1  0.70695949  0.90365979  0.85907231  1
  Mo  Mo198  1  0.60923411  0.20076024  0.76224960  1
  Mo  Mo199  1  0.30267306  0.08705633  0.88218690  1
