# generated using pymatgen
data_HfZrTaTiMo
_symmetry_space_group_name_H-M   'P 1'
_cell_length_a   15.20915638
_cell_length_b   15.21915076
_cell_length_c   16.82926578
_cell_angle_alpha   90.03870300
_cell_angle_beta   90.01051364
_cell_angle_gamma   90.06917655
_symmetry_Int_Tables_number   1
_chemical_formula_structural   HfZrTaTiMo
_chemical_formula_sum   'Hf40 Zr40 Ta40 Ti40 Mo40'
_cell_volume   3895.47382728
_cell_formula_units_Z   40
loop_
 _symmetry_equiv_pos_site_id
 _symmetry_equiv_pos_as_xyz
  1  'x, y, z'
loop_
 _atom_site_type_symbol
 _atom_site_label
 _atom_site_symmetry_multiplicity
 _atom_site_fract_x
 _atom_site_fract_y
 _atom_site_fract_z
 _atom_site_occupancy
  Hf  Hf0  1  0.89988655  0.89804449  0.36496923  1
  Hf  Hf1  1  0.50710144  0.92229547  0.62032885  1
  Hf  Hf2  1  0.00033944  0.80365360  0.76437656  1
  Hf  Hf3  1  0.39698303  0.80283644  0.50805709  1
  Hf  Hf4  1  0.00735389  0.57165617  0.76009430  1
  Hf  Hf5  1  0.60855891  0.83279061  0.75485314  1
  Hf  Hf6  1  0.79481030  0.79691184  0.49862821  1
  Hf  Hf7  1  0.79518262  0.78771437  0.24738565  1
  Hf  Hf8  1  0.78278007  -0.00770803  0.76775281  1
  Hf  Hf9  1  0.49465583  0.69761328  0.38145241  1
  Hf  Hf10  1  0.50067249  0.50175180  0.38287157  1
  Hf  Hf11  1  0.39700709  0.81715913  0.74664050  1
  Hf  Hf12  1  0.29127786  0.10745611  0.88603144  1
  Hf  Hf13  1  0.40706604  0.60246850  -0.00243458  1
  Hf  Hf14  1  0.81422804  0.21439640  -0.01144879  1
  Hf  Hf15  1  0.01358076  0.18310895  0.00085921  1
  Hf  Hf16  1  0.89123051  0.67758994  0.37667338  1
  Hf  Hf17  1  0.68976488  0.31355091  0.87282336  1
  Hf  Hf18  1  0.70276200  0.70052811  0.63272137  1
  Hf  Hf19  1  0.69420790  0.09057547  0.63056991  1
  Hf  Hf20  1  0.09106899  0.30384184  0.63710251  1
  Hf  Hf21  1  0.39980805  0.01823192  0.74684928  1
  Hf  Hf22  1  0.90843508  0.48473593  0.61336595  1
  Hf  Hf23  1  0.71485756  0.51269138  0.39990735  1
  Hf  Hf24  1  0.11536173  0.09556149  0.13723471  1
  Hf  Hf25  1  0.59381639  0.80662910  0.24210790  1
  Hf  Hf26  1  0.49003954  0.91047200  0.38147829  1
  Hf  Hf27  1  0.49019259  0.10352312  0.10932949  1
  Hf  Hf28  1  0.80699062  0.42033013  0.25407993  1
  Hf  Hf29  1  0.00161284  0.80038297  0.49350739  1
  Hf  Hf30  1  0.29531641  0.31417562  0.63017612  1
  Hf  Hf31  1  0.90379874  0.10005599  0.36482781  1
  Hf  Hf32  1  0.59674261  0.19905274  0.24680257  1
  Hf  Hf33  1  0.29361355  0.50642440  0.37588532  1
  Hf  Hf34  1  0.10327730  0.69468495  0.63229925  1
  Hf  Hf35  1  0.50102068  0.69761239  0.63777713  1
  Hf  Hf36  1  0.30906921  0.51015770  0.85934007  1
  Hf  Hf37  1  0.80078805  -0.00335751  0.49816443  1
  Hf  Hf38  1  0.90045012  0.67344938  0.11578003  1
  Hf  Hf39  1  0.69797909  0.69714614  0.11340282  1
  Zr  Zr40  1  0.70483657  0.30559961  0.38347403  1
  Zr  Zr41  1  0.79952335  0.80850446  -0.01159597  1
  Zr  Zr42  1  0.11106301  0.29964007  0.12633143  1
  Zr  Zr43  1  0.80006891  0.01014338  -0.00156163  1
  Zr  Zr44  1  0.71076268  0.30648185  0.11903845  1
  Zr  Zr45  1  0.10307989  0.68348159  0.37232356  1
  Zr  Zr46  1  0.69437764  0.68434825  0.87034819  1
  Zr  Zr47  1  0.91955174  0.08687318  0.86528824  1
  Zr  Zr48  1  0.90450947  0.67299496  0.89021763  1
  Zr  Zr49  1  0.60084870  0.40081865  0.24992827  1
  Zr  Zr50  1  0.08909850  0.50158705  0.11506771  1
  Zr  Zr51  1  0.60909152  0.60298487  0.24954612  1
  Zr  Zr52  1  0.49603155  0.68603210  0.85128003  1
  Zr  Zr53  1  -0.00671467  0.19876852  0.50003297  1
  Zr  Zr54  1  -0.01348705  0.38391133  -0.00963630  1
  Zr  Zr55  1  0.09711795  0.92174957  0.87940643  1
  Zr  Zr56  1  0.10164193  0.70010616  0.12654691  1
  Zr  Zr57  1  0.81033845  0.21142149  0.24990057  1
  Zr  Zr58  1  0.89658886  0.90011440  0.62929316  1
  Zr  Zr59  1  0.78800734  0.40314263  0.74250404  1
  Zr  Zr60  1  0.40813559  0.39993375  -0.00776192  1
  Zr  Zr61  1  0.29956907  0.29390514  0.38074233  1
  Zr  Zr62  1  0.19251482  0.20178308  0.50344604  1
  Zr  Zr63  1  0.79578262  0.19882094  0.50036915  1
  Zr  Zr64  1  0.20182720  0.79912415  0.49347983  1
  Zr  Zr65  1  0.39522078  0.79190886  0.25187617  1
  Zr  Zr66  1  0.20556069  0.81592160  0.26064478  1
  Zr  Zr67  1  0.20812829  0.60047914  0.24873108  1
  Zr  Zr68  1  0.48925561  0.10533156  0.38121106  1
  Zr  Zr69  1  0.39655279  0.40043327  0.24753752  1
  Zr  Zr70  1  0.10032544  0.28655886  0.86622695  1
  Zr  Zr71  1  0.59378217  0.80284751  -0.00706485  1
  Zr  Zr72  1  0.90571809  0.68644492  0.62419135  1
  Zr  Zr73  1  0.39932749  0.80115821  -0.00880019  1
  Zr  Zr74  1  0.00749557  0.79808738  -0.00285761  1
  Zr  Zr75  1  0.90259547  0.89600075  0.13389409  1
  Zr  Zr76  1  0.49361499  0.11630311  0.89036428  1
  Zr  Zr77  1  0.80547967  0.79757453  0.76803242  1
  Zr  Zr78  1  0.37144258  0.00102071  0.24089161  1
  Zr  Zr79  1  0.29757040  0.49259483  0.12192050  1
  Ta  Ta80  1  0.39292881  0.60277125  0.51359493  1
  Ta  Ta81  1  0.19511842  0.00586063  0.74468622  1
  Ta  Ta82  1  0.70187052  0.49552450  0.60398527  1
  Ta  Ta83  1  0.60414658  0.81029859  0.50490076  1
  Ta  Ta84  1  0.39093586  0.40851634  0.50580447  1
  Ta  Ta85  1  0.30120791  0.10033447  0.61592193  1
  Ta  Ta86  1  0.69251264  0.90303111  0.36830086  1
  Ta  Ta87  1  0.29684969  0.70561243  0.85846614  1
  Ta  Ta88  1  0.20177832  0.39922163  -0.01882724  1
  Ta  Ta89  1  0.69316477  0.09474465  0.37003113  1
  Ta  Ta90  1  0.20853219  0.19405115  0.74297130  1
  Ta  Ta91  1  -0.00470480  0.39287124  0.25143982  1
  Ta  Ta92  1  0.60019270  0.56086365  0.73849627  1
  Ta  Ta93  1  0.29930368  0.91072075  0.87642907  1
  Ta  Ta94  1  0.11078966  0.69181434  0.87333960  1
  Ta  Ta95  1  0.78559424  0.00297751  0.24403425  1
  Ta  Ta96  1  0.60599999  0.41406334  0.00146242  1
  Ta  Ta97  1  0.30332518  0.50808138  0.64199962  1
  Ta  Ta98  1  0.50162645  0.11591706  0.61494488  1
  Ta  Ta99  1  0.40545273  0.21297268  0.74342874  1
  Ta  Ta100  1  0.29460711  0.70057150  0.64239647  1
  Ta  Ta101  1  0.30702441  0.70451874  0.12079940  1
  Ta  Ta102  1  0.11301719  0.49343603  0.62423549  1
  Ta  Ta103  1  0.90203466  0.09602302  0.63944382  1
  Ta  Ta104  1  0.00244434  0.79141861  0.25341273  1
  Ta  Ta105  1  0.89577779  0.28781338  0.64182294  1
  Ta  Ta106  1  0.50145801  0.30555716  0.61633007  1
  Ta  Ta107  1  0.19792754  0.81170990  0.75269947  1
  Ta  Ta108  1  0.49901231  0.30068860  0.38709051  1
  Ta  Ta109  1  0.39881631  0.20142963  0.24485878  1
  Ta  Ta110  1  0.20425386  0.60473644  -0.00703715  1
  Ta  Ta111  1  0.31064899  0.30039904  0.86580181  1
  Ta  Ta112  1  0.69391686  0.70438007  0.38136208  1
  Ta  Ta113  1  0.59526181  0.20226975  0.75294458  1
  Ta  Ta114  1  0.09804781  0.30357583  0.36987886  1
  Ta  Ta115  1  0.48822643  0.90126873  0.11778018  1
  Ta  Ta116  1  0.18946768  0.41133782  0.76360284  1
  Ta  Ta117  1  0.49897037  0.30315069  0.11801767  1
  Ta  Ta118  1  0.20726575  0.80448187  -0.00437288  1
  Ta  Ta119  1  0.00694331  0.00138072  0.49922192  1
  Ti  Ti120  1  0.19422922  0.39531436  0.25245492  1
  Ti  Ti121  1  0.28940127  0.90950792  0.61929201  1
  Ti  Ti122  1  0.58974102  0.00281209  0.24376446  1
  Ti  Ti123  1  0.50329886  0.51089036  0.12948698  1
  Ti  Ti124  1  0.00480859  -0.00527154  0.24695973  1
  Ti  Ti125  1  0.69703843  0.10374552  0.12288879  1
  Ti  Ti126  1  0.20348686  0.00647394  0.00831840  1
  Ti  Ti127  1  0.01336977  0.39084932  0.49564597  1
  Ti  Ti128  1  0.60339285  0.21107851  -0.00231442  1
  Ti  Ti129  1  0.01317897  0.58804461  0.49689173  1
  Ti  Ti130  1  0.60259985  0.00346712  -0.00271353  1
  Ti  Ti131  1  0.79354779  0.19517078  0.76258530  1
  Ti  Ti132  1  0.59769568  0.39476979  0.50367008  1
  Ti  Ti133  1  0.90161190  0.10536460  0.13373334  1
  Ti  Ti134  1  0.09831833  0.09220306  0.62534140  1
  Ti  Ti135  1  0.30339548  0.28487881  0.11548292  1
  Ti  Ti136  1  0.00616107  0.20446233  0.24894640  1
  Ti  Ti137  1  0.29149813  0.07920658  0.39081496  1
  Ti  Ti138  1  0.21473108  0.19152333  0.25677299  1
  Ti  Ti139  1  0.10597019  0.91453159  0.37419217  1
  Ti  Ti140  1  0.69172384  0.90997776  0.12353156  1
  Ti  Ti141  1  0.40052736  0.20366512  0.50426468  1
  Ti  Ti142  1  0.70882168  0.50751177  0.12035018  1
  Ti  Ti143  1  0.88604357  0.47874274  0.87970472  1
  Ti  Ti144  1  0.89290922  0.48370638  0.11106365  1
  Ti  Ti145  1  -0.01294761  0.58174111  0.25490677  1
  Ti  Ti146  1  0.90689392  0.48350129  0.39368509  1
  Ti  Ti147  1  0.00796975  0.18589466  0.75042479  1
  Ti  Ti148  1  0.10475153  0.09868737  0.36827350  1
  Ti  Ti149  1  0.59671767  0.59535843  -0.00268892  1
  Ti  Ti150  1  0.11154017  0.89860849  0.12923921  1
  Ti  Ti151  1  0.09712378  0.90309643  0.62634755  1
  Ti  Ti152  1  0.60327854  0.00863726  0.49506779  1
  Ti  Ti153  1  0.69552873  0.29299665  0.61999391  1
  Ti  Ti154  1  0.49780249  0.92015782  0.87768884  1
  Ti  Ti155  1  -0.00004045  -0.00565466  0.01276731  1
  Ti  Ti156  1  0.80057625  0.59023851  0.74805491  1
  Ti  Ti157  1  0.42545685  0.41063678  0.74964608  1
  Ti  Ti158  1  0.20623694  0.59134534  0.50290635  1
  Ti  Ti159  1  0.59749053  0.60891379  0.50949110  1
  Mo  Mo160  1  0.30838606  0.69319907  0.38542350  1
  Mo  Mo161  1  0.80388280  0.60033481  0.50867715  1
  Mo  Mo162  1  0.49734212  0.30706300  0.87226661  1
  Mo  Mo163  1  0.00520750  0.58497364  -0.00861252  1
  Mo  Mo164  1  0.81073044  0.38983970  0.51323130  1
  Mo  Mo165  1  0.29700041  0.90658375  0.38893664  1
  Mo  Mo166  1  0.39183053  0.00635425  0.50867076  1
  Mo  Mo167  1  0.40453069  0.59884780  0.73996245  1
  Mo  Mo168  1  0.39357429  -0.00498286  0.00551772  1
  Mo  Mo169  1  0.00450295  -0.00170170  0.74100736  1
  Mo  Mo170  1  0.91185775  0.30744929  0.37560647  1
  Mo  Mo171  1  0.09224429  0.48724505  0.37298557  1
  Mo  Mo172  1  0.51745684  0.49071997  0.87159987  1
  Mo  Mo173  1  0.09830896  0.50017797  0.88681284  1
  Mo  Mo174  1  0.11350187  0.09862158  0.87363512  1
  Mo  Mo175  1  0.59703007  0.38732576  0.73397273  1
  Mo  Mo176  1  0.89793680  0.29307419  0.85089991  1
  Mo  Mo177  1  0.59152908  0.02016253  0.75718856  1
  Mo  Mo178  1  0.78954817  0.57545600  -0.00220171  1
  Mo  Mo179  1  0.40574072  0.60451949  0.24020273  1
  Mo  Mo180  1  0.29098274  0.90336217  0.11317464  1
  Mo  Mo181  1  0.19493379  0.00530117  0.25345567  1
  Mo  Mo182  1  0.49644943  0.69461549  0.12533470  1
  Mo  Mo183  1  0.69060912  0.10729727  0.87891818  1
  Mo  Mo184  1  0.59626549  0.20273636  0.49965225  1
  Mo  Mo185  1  0.19675278  0.41145234  0.50350510  1
  Mo  Mo186  1  0.29779403  0.10929314  0.11577202  1
  Mo  Mo187  1  0.80562861  0.59486735  0.24885500  1
  Mo  Mo188  1  0.39770174  0.20866155  0.00269725  1
  Mo  Mo189  1  0.69779356  0.50413241  0.87335693  1
  Mo  Mo190  1  0.69613028  0.90352253  0.61983554  1
  Mo  Mo191  1  0.79354557  0.39827493  -0.00330274  1
  Mo  Mo192  1  0.68840460  0.91456410  0.88564419  1
  Mo  Mo193  1  -0.00590317  0.39090463  0.75669570  1
  Mo  Mo194  1  0.19795320  0.60307318  0.75384351  1
  Mo  Mo195  1  0.20620740  0.20950860  -0.00036776  1
  Mo  Mo196  1  0.49969924  0.49634680  0.60855738  1
  Mo  Mo197  1  0.18890292  -0.00042833  0.50766900  1
  Mo  Mo198  1  0.90981818  0.29708721  0.12746004  1
  Mo  Mo199  1  0.90063544  0.89784974  0.88339420  1
