# generated using pymatgen
data_HfZrTaTiMo
_symmetry_space_group_name_H-M   'P 1'
_cell_length_a   15.20455849
_cell_length_b   15.20695436
_cell_length_c   16.79467769
_cell_angle_alpha   90.01279049
_cell_angle_beta   89.98323828
_cell_angle_gamma   90.11051375
_symmetry_Int_Tables_number   1
_chemical_formula_structural   HfZrTaTiMo
_chemical_formula_sum   'Hf40 Zr40 Ta40 Ti40 Mo40'
_cell_volume   3883.17437095
_cell_formula_units_Z   40
loop_
 _symmetry_equiv_pos_site_id
 _symmetry_equiv_pos_as_xyz
  1  'x, y, z'
loop_
 _atom_site_type_symbol
 _atom_site_label
 _atom_site_symmetry_multiplicity
 _atom_site_fract_x
 _atom_site_fract_y
 _atom_site_fract_z
 _atom_site_occupancy
  Hf  Hf0  1  0.12026987  0.48530583  0.13526681  1
  Hf  Hf1  1  0.90537003  0.48164212  0.38899848  1
  Hf  Hf2  1  0.59823544  0.20806511  0.74061460  1
  Hf  Hf3  1  0.29988342  0.09960485  0.39165863  1
  Hf  Hf4  1  0.49664422  0.30738806  0.88780058  1
  Hf  Hf5  1  0.58656255  0.20864137  0.23202253  1
  Hf  Hf6  1  0.08749545  0.29963430  0.38485017  1
  Hf  Hf7  1  0.18608269  0.58982479  0.50806691  1
  Hf  Hf8  1  0.59844934  0.60547042  0.48880184  1
  Hf  Hf9  1  0.11266187  0.90274327  0.11395543  1
  Hf  Hf10  1  0.70039006  0.70884765  0.14343849  1
  Hf  Hf11  1  0.79307472  0.59909214  0.00943957  1
  Hf  Hf12  1  0.82252108  0.00036661  0.51028035  1
  Hf  Hf13  1  0.58995977  0.40416808  0.73755312  1
  Hf  Hf14  1  0.30364527  0.11031592  0.62016516  1
  Hf  Hf15  1  0.41195327  0.80655754  0.26407156  1
  Hf  Hf16  1  0.89816251  0.70385691  0.37262478  1
  Hf  Hf17  1  0.10521936  0.69851983  0.13018262  1
  Hf  Hf18  1  0.61072149  0.80662187  -0.00089176  1
  Hf  Hf19  1  0.29182852  0.69507324  0.37235443  1
  Hf  Hf20  1  0.60638514  0.41106184  0.01404295  1
  Hf  Hf21  1  0.89293128  0.08967157  0.12034643  1
  Hf  Hf22  1  0.00456839  0.80940365  0.50404490  1
  Hf  Hf23  1  0.00128197  -0.00408449  0.74753181  1
  Hf  Hf24  1  0.30039530  0.69731424  0.63264211  1
  Hf  Hf25  1  0.60385368  0.41231339  0.23194331  1
  Hf  Hf26  1  0.50072364  0.12164153  0.38995185  1
  Hf  Hf27  1  0.50081180  0.10579686  0.88821156  1
  Hf  Hf28  1  0.10981605  0.47978982  0.86179251  1
  Hf  Hf29  1  0.50421372  0.71323197  0.62163402  1
  Hf  Hf30  1  -0.00124268  0.59889185  0.00074882  1
  Hf  Hf31  1  0.19504442  0.20201669  0.75476039  1
  Hf  Hf32  1  0.89305392  0.69429019  0.86829404  1
  Hf  Hf33  1  0.79950434  0.39381877  0.00382251  1
  Hf  Hf34  1  0.59841160  0.00269023  0.73907436  1
  Hf  Hf35  1  0.80029144  -0.00270177  0.74988733  1
  Hf  Hf36  1  0.32047028  0.90339125  0.11660587  1
  Hf  Hf37  1  0.71684637  0.11639452  0.62440805  1
  Hf  Hf38  1  0.88687656  0.28619705  0.62820625  1
  Hf  Hf39  1  0.19406738  -0.01048795  0.50767561  1
  Zr  Zr40  1  0.30775627  0.30241072  0.39059558  1
  Zr  Zr41  1  0.49053999  0.50351427  0.61479908  1
  Zr  Zr42  1  0.21062405  -0.01006438  0.75657214  1
  Zr  Zr43  1  0.00574476  0.59050238  0.25365907  1
  Zr  Zr44  1  0.89491978  0.10208914  0.36910493  1
  Zr  Zr45  1  0.40582238  0.61002814  -0.00635240  1
  Zr  Zr46  1  0.40635829  0.39164220  0.25513905  1
  Zr  Zr47  1  0.79443383  0.60059055  0.50195438  1
  Zr  Zr48  1  0.31744908  0.49542057  0.12515433  1
  Zr  Zr49  1  0.20117332  0.79460289  0.50303710  1
  Zr  Zr50  1  0.40534239  0.00425548  0.24992939  1
  Zr  Zr51  1  0.90809276  0.49195511  0.12543040  1
  Zr  Zr52  1  0.09260209  0.08313389  0.38329175  1
  Zr  Zr53  1  0.80294141  0.80375969  0.50390472  1
  Zr  Zr54  1  -0.00843063  0.59174054  0.74310932  1
  Zr  Zr55  1  0.39221992  0.19408717  0.24286732  1
  Zr  Zr56  1  0.27708576  0.30056918  0.11358044  1
  Zr  Zr57  1  0.78570730  0.19279037  0.24324906  1
  Zr  Zr58  1  0.40621453  0.59472162  0.26309212  1
  Zr  Zr59  1  0.18961776  0.19943228  0.25514375  1
  Zr  Zr60  1  0.79168134  0.39944657  0.74124395  1
  Zr  Zr61  1  0.40697110  0.01452214  0.74689984  1
  Zr  Zr62  1  0.29854717  0.70080183  0.13680646  1
  Zr  Zr63  1  0.89917128  0.09237657  0.88510324  1
  Zr  Zr64  1  0.01414779  0.38790049  -0.00822611  1
  Zr  Zr65  1  0.59322876  0.60737824  0.27249461  1
  Zr  Zr66  1  0.78654056  -0.00992729  -0.00716915  1
  Zr  Zr67  1  0.10208773  0.89337862  0.87996343  1
  Zr  Zr68  1  0.20515842  0.58901008  -0.00892201  1
  Zr  Zr69  1  0.60970756  0.80689648  0.48671955  1
  Zr  Zr70  1  0.10107440  0.69749031  0.86774267  1
  Zr  Zr71  1  0.60328717  0.01152888  0.24111739  1
  Zr  Zr72  1  0.50379866  0.50681143  0.87345031  1
  Zr  Zr73  1  0.80673728  0.79997341  0.00216629  1
  Zr  Zr74  1  0.48118552  0.30556025  0.09952571  1
  Zr  Zr75  1  0.70358472  0.50659886  0.86983856  1
  Zr  Zr76  1  0.40163160  0.81638892  0.75181866  1
  Zr  Zr77  1  0.88436945  0.29032609  0.86995665  1
  Zr  Zr78  1  0.68768316  0.30217953  0.37681983  1
  Zr  Zr79  1  0.79545429  0.58760742  0.25571348  1
  Ta  Ta80  1  0.30590098  0.49282958  0.85504779  1
  Ta  Ta81  1  0.29598480  0.49359120  0.64036275  1
  Ta  Ta82  1  0.90684102  0.49765153  0.61251584  1
  Ta  Ta83  1  0.40479755  0.80365521  0.49339132  1
  Ta  Ta84  1  0.90161871  0.49739858  0.87230064  1
  Ta  Ta85  1  0.30288873  0.70504795  0.86071808  1
  Ta  Ta86  1  -0.00757270  0.19308141  0.74722888  1
  Ta  Ta87  1  0.60310928  0.80960989  0.26886653  1
  Ta  Ta88  1  0.19730594  0.40036408  0.51442954  1
  Ta  Ta89  1  -0.00953098  0.18873502  0.50987388  1
  Ta  Ta90  1  -0.00166843  0.38340696  0.25411512  1
  Ta  Ta91  1  0.51024434  0.70737482  0.86612591  1
  Ta  Ta92  1  0.48639122  0.09116259  0.10038700  1
  Ta  Ta93  1  0.79980526  0.79655798  0.73885130  1
  Ta  Ta94  1  0.09506106  0.09696373  0.62394863  1
  Ta  Ta95  1  0.39793899  0.21381793  0.75545156  1
  Ta  Ta96  1  0.91985495  0.90776288  0.36419242  1
  Ta  Ta97  1  0.28851474  0.09707646  0.10956867  1
  Ta  Ta98  1  0.51075211  0.90509136  0.87879937  1
  Ta  Ta99  1  0.60739040  0.80741168  0.74908918  1
  Ta  Ta100  1  0.09608731  0.69692162  0.37326216  1
  Ta  Ta101  1  0.72111668  0.91159967  0.36611237  1
  Ta  Ta102  1  0.69285798  0.09468930  0.38616179  1
  Ta  Ta103  1  0.40773317  0.60093756  0.75172856  1
  Ta  Ta104  1  0.90361130  0.70591803  0.13823916  1
  Ta  Ta105  1  0.01151296  0.00081660  0.23914037  1
  Ta  Ta106  1  0.00338991  0.38881606  0.74435522  1
  Ta  Ta107  1  0.51022558  0.91977855  0.38718802  1
  Ta  Ta108  1  0.20355000  -0.00253598  0.24796708  1
  Ta  Ta109  1  0.80432005  0.38780897  0.24658028  1
  Ta  Ta110  1  0.59961423  0.21201476  0.51337947  1
  Ta  Ta111  1  -0.00209070  0.79815241  0.73921189  1
  Ta  Ta112  1  0.10105421  0.10166292  0.11370949  1
  Ta  Ta113  1  0.50099785  0.71396438  0.12886100  1
  Ta  Ta114  1  0.19027187  0.20436394  0.50994526  1
  Ta  Ta115  1  0.21651701  0.79712022  -0.00626716  1
  Ta  Ta116  1  0.30125671  0.90531780  0.38000505  1
  Ta  Ta117  1  0.08888705  0.29236293  0.12661050  1
  Ta  Ta118  1  0.41052072  0.00000608  0.51304381  1
  Ta  Ta119  1  -0.00902443  0.19781077  0.24587402  1
  Ti  Ti120  1  0.79958458  0.20530802  0.49123376  1
  Ti  Ti121  1  0.60109975  0.00035357  0.00620429  1
  Ti  Ti122  1  0.79386859  0.60004123  0.72994574  1
  Ti  Ti123  1  0.90188928  0.89307218  0.13660763  1
  Ti  Ti124  1  0.78711603  0.39486840  0.51116179  1
  Ti  Ti125  1  0.60878375  0.00694614  0.51479123  1
  Ti  Ti126  1  0.48542753  0.30361683  0.61265163  1
  Ti  Ti127  1  0.28853802  0.49299955  0.37406586  1
  Ti  Ti128  1  0.21458298  0.00558500  -0.01722697  1
  Ti  Ti129  1  0.89812639  0.88806095  0.87076541  1
  Ti  Ti130  1  0.37677812  0.19495606  -0.01289861  1
  Ti  Ti131  1  0.41095675  0.80790161  -0.00943749  1
  Ti  Ti132  1  -0.00454008  0.19486245  -0.00211471  1
  Ti  Ti133  1  0.70772128  0.90723560  0.14161556  1
  Ti  Ti134  1  0.00348796  0.39576302  0.51185426  1
  Ti  Ti135  1  0.09853693  0.10096417  0.87846834  1
  Ti  Ti136  1  0.70058918  0.89338466  0.62486097  1
  Ti  Ti137  1  0.19784196  0.59802870  0.74565238  1
  Ti  Ti138  1  0.69624210  0.11467280  0.87374683  1
  Ti  Ti139  1  0.09765936  0.29853871  0.62678849  1
  Ti  Ti140  1  0.89874122  0.29001465  0.12024349  1
  Ti  Ti141  1  0.69984103  0.70717637  0.86670841  1
  Ti  Ti142  1  0.28684600  0.31105530  0.87311600  1
  Ti  Ti143  1  0.69860274  0.49154559  0.38105736  1
  Ti  Ti144  1  -0.00191076  -0.00997979  0.00196793  1
  Ti  Ti145  1  0.00164685  0.79570095  0.00501070  1
  Ti  Ti146  1  0.00890565  0.80579963  0.25158012  1
  Ti  Ti147  1  0.10465487  0.89135747  0.63481012  1
  Ti  Ti148  1  0.18373468  0.20746197  -0.01656542  1
  Ti  Ti149  1  0.49396660  0.47761768  0.39428424  1
  Ti  Ti150  1  0.38967070  0.59779737  0.49297725  1
  Ti  Ti151  1  0.30154497  0.30699711  0.62539821  1
  Ti  Ti152  1  0.60867745  0.60958021  0.73745688  1
  Ti  Ti153  1  0.77559410  0.19895500  0.00947787  1
  Ti  Ti154  1  0.60139080  0.61070846  0.00808593  1
  Ti  Ti155  1  0.30759879  0.89544834  0.62315061  1
  Ti  Ti156  1  0.09482694  0.68968546  0.62955246  1
  Ti  Ti157  1  0.90122109  0.69953440  0.61805011  1
  Ti  Ti158  1  0.10441043  0.49608400  0.37308742  1
  Ti  Ti159  1  0.19987111  0.80800261  0.25729090  1
  Mo  Mo160  1  0.09209817  0.28727751  0.86586434  1
  Mo  Mo161  1  0.00455463  -0.00629148  0.51096518  1
  Mo  Mo162  1  0.69934534  0.50587080  0.62155692  1
  Mo  Mo163  1  0.10596655  0.89151092  0.36547969  1
  Mo  Mo164  1  0.60107151  0.40506040  0.50931374  1
  Mo  Mo165  1  0.69641660  0.89776781  0.86449117  1
  Mo  Mo166  1  0.00172304  0.59750299  0.50349555  1
  Mo  Mo167  1  0.80613418  -0.00340991  0.24793053  1
  Mo  Mo168  1  0.79185217  0.19763078  0.75619350  1
  Mo  Mo169  1  0.89592617  0.30152803  0.38448219  1
  Mo  Mo170  1  0.50346615  0.30590727  0.38707125  1
  Mo  Mo171  1  0.29627420  0.10842263  0.87855003  1
  Mo  Mo172  1  0.40064779  -0.00413092  -0.00788204  1
  Mo  Mo173  1  0.69974723  0.70060413  0.63132920  1
  Mo  Mo174  1  0.20027663  0.39284831  0.73656826  1
  Mo  Mo175  1  0.19059885  0.40075925  0.25962495  1
  Mo  Mo176  1  0.90676025  0.89481533  0.63400667  1
  Mo  Mo177  1  0.51371008  0.89334867  0.12033791  1
  Mo  Mo178  1  0.50637677  0.90560356  0.61211171  1
  Mo  Mo179  1  0.09829424  0.49216146  0.63227450  1
  Mo  Mo180  1  0.69247106  0.30878537  0.61519872  1
  Mo  Mo181  1  0.19815126  0.79425845  0.74397994  1
  Mo  Mo182  1  0.70040837  0.50738354  0.12853369  1
  Mo  Mo183  1  0.68829202  0.29040996  0.87881288  1
  Mo  Mo184  1  0.39759115  0.20574095  0.51190419  1
  Mo  Mo185  1  0.19855205  0.59685669  0.26074703  1
  Mo  Mo186  1  0.38784965  0.40843099  0.50226506  1
  Mo  Mo187  1  0.39817042  0.39107573  0.74864569  1
  Mo  Mo188  1  0.70335768  0.70860900  0.36273255  1
  Mo  Mo189  1  0.30982068  0.89831762  0.88485329  1
  Mo  Mo190  1  0.50862420  0.52313784  0.11796321  1
  Mo  Mo191  1  0.70534006  0.30076966  0.12711867  1
  Mo  Mo192  1  0.80886396  0.80665147  0.25259733  1
  Mo  Mo193  1  0.49336610  0.70816214  0.38846680  1
  Mo  Mo194  1  0.50234845  0.11177983  0.61598766  1
  Mo  Mo195  1  0.20718893  0.39217582  -0.00871769  1
  Mo  Mo196  1  0.38770158  0.40808834  -0.01045454  1
  Mo  Mo197  1  0.60236784  0.19728339  0.00790351  1
  Mo  Mo198  1  0.68983278  0.09882089  0.11569155  1
  Mo  Mo199  1  0.90659947  0.09884314  0.62895151  1
