# generated using pymatgen
data_HfZrTaTiMo
_symmetry_space_group_name_H-M   'P 1'
_cell_length_a   15.21341738
_cell_length_b   15.21356135
_cell_length_c   16.82956811
_cell_angle_alpha   89.96814748
_cell_angle_beta   89.98631856
_cell_angle_gamma   90.09537040
_symmetry_Int_Tables_number   1
_chemical_formula_structural   HfZrTaTiMo
_chemical_formula_sum   'Hf40 Zr40 Ta40 Ti40 Mo40'
_cell_volume   3895.20178167
_cell_formula_units_Z   40
loop_
 _symmetry_equiv_pos_site_id
 _symmetry_equiv_pos_as_xyz
  1  'x, y, z'
loop_
 _atom_site_type_symbol
 _atom_site_label
 _atom_site_symmetry_multiplicity
 _atom_site_fract_x
 _atom_site_fract_y
 _atom_site_fract_z
 _atom_site_occupancy
  Hf  Hf0  1  0.50917579  0.31627194  0.87707943  1
  Hf  Hf1  1  0.59045733  0.40714040  0.25789156  1
  Hf  Hf2  1  0.32452903  0.50435197  0.36915549  1
  Hf  Hf3  1  0.59330866  0.39789845  0.01632752  1
  Hf  Hf4  1  0.30210237  0.51312420  0.63347333  1
  Hf  Hf5  1  0.71418493  0.50848218  0.12638762  1
  Hf  Hf6  1  0.09637878  0.29679345  0.63706653  1
  Hf  Hf7  1  0.80224108  0.16762327  0.24239771  1
  Hf  Hf8  1  0.58788486  0.19667762  0.25366906  1
  Hf  Hf9  1  0.91135127  0.28694173  0.37083890  1
  Hf  Hf10  1  0.10617904  0.89858483  0.37556109  1
  Hf  Hf11  1  0.30355735  0.30719889  0.88021755  1
  Hf  Hf12  1  0.31087600  0.70802216  0.12324092  1
  Hf  Hf13  1  0.48889518  0.89050490  0.11673555  1
  Hf  Hf14  1  0.19243951  -0.00329596  -0.01267142  1
  Hf  Hf15  1  0.79953378  0.58680053  0.50825589  1
  Hf  Hf16  1  0.89948356  0.49353812  0.87044794  1
  Hf  Hf17  1  0.20239883  0.00645994  0.25074992  1
  Hf  Hf18  1  0.29200300  0.90540743  0.12055458  1
  Hf  Hf19  1  0.70467433  0.70089192  0.86630785  1
  Hf  Hf20  1  0.00315732  0.59757727  0.24256846  1
  Hf  Hf21  1  0.59649813  0.79645870  0.51205483  1
  Hf  Hf22  1  0.50531427  0.91650763  0.63483283  1
  Hf  Hf23  1  0.69915903  0.89449942  0.38476459  1
  Hf  Hf24  1  0.40291667  0.00555099  0.25075779  1
  Hf  Hf25  1  0.70813131  0.29171640  0.37151981  1
  Hf  Hf26  1  0.49203979  0.69029486  0.37807249  1
  Hf  Hf27  1  0.30746266  0.51339194  0.87540635  1
  Hf  Hf28  1  0.78080536  0.37691212  0.76376093  1
  Hf  Hf29  1  0.70340902  0.08719031  0.39496843  1
  Hf  Hf30  1  0.08360858  0.09791746  0.87048477  1
  Hf  Hf31  1  0.10223901  0.50392887  0.62125968  1
  Hf  Hf32  1  -0.00748905  0.19099683  0.01164651  1
  Hf  Hf33  1  0.01923954  0.59462386  0.76095511  1
  Hf  Hf34  1  0.19360577  0.41131903  0.76016168  1
  Hf  Hf35  1  0.21726575  0.39521431  0.49512605  1
  Hf  Hf36  1  0.38693605  0.20640281  0.23267818  1
  Hf  Hf37  1  0.89561309  0.09194791  0.60795758  1
  Hf  Hf38  1  0.68535927  0.09184057  0.60595097  1
  Hf  Hf39  1  0.79876133  0.00210423  0.00757348  1
  Zr  Zr40  1  0.09803055  0.08460201  0.12401687  1
  Zr  Zr41  1  0.40145555  0.01319358  -0.00600310  1
  Zr  Zr42  1  0.90360967  0.50485796  0.37299844  1
  Zr  Zr43  1  -0.00381735  0.79117671  0.25595034  1
  Zr  Zr44  1  0.89565378  0.90829597  0.38452384  1
  Zr  Zr45  1  0.28850329  0.91125991  0.64069377  1
  Zr  Zr46  1  0.70783031  0.68856521  0.38606370  1
  Zr  Zr47  1  0.60566123  0.41087034  0.48019398  1
  Zr  Zr48  1  0.91116321  0.69064337  0.63374485  1
  Zr  Zr49  1  0.70981350  0.89149559  0.12571456  1
  Zr  Zr50  1  0.00655782  0.38997219  0.49556810  1
  Zr  Zr51  1  0.60883460  0.00241848  0.24599912  1
  Zr  Zr52  1  0.30324931  0.90600771  0.85980016  1
  Zr  Zr53  1  0.20434084  0.20195010  0.00822031  1
  Zr  Zr54  1  0.11459173  0.49513180  0.37264464  1
  Zr  Zr55  1  0.29942449  0.30653553  0.63238948  1
  Zr  Zr56  1  0.67199244  0.49690452  0.87144202  1
  Zr  Zr57  1  0.50491435  0.69580174  0.86750971  1
  Zr  Zr58  1  0.79371669  0.19813382  0.00454117  1
  Zr  Zr59  1  0.00181671  0.79441492  0.49951222  1
  Zr  Zr60  1  0.89121825  0.90515749  0.86901282  1
  Zr  Zr61  1  0.90242647  0.28712685  0.63139045  1
  Zr  Zr62  1  0.40693263  0.61501345  0.00194937  1
  Zr  Zr63  1  0.79952941  0.39838731  -0.00822123  1
  Zr  Zr64  1  0.39614730  0.01923801  0.50679590  1
  Zr  Zr65  1  0.89828432  0.70089056  0.10708013  1
  Zr  Zr66  1  0.59816824  0.79730524  -0.00073089  1
  Zr  Zr67  1  0.50746670  0.90632560  0.86125757  1
  Zr  Zr68  1  0.41383671  0.20955092  0.74731576  1
  Zr  Zr69  1  0.51133473  0.31212798  0.62182358  1
  Zr  Zr70  1  0.79742562  0.16853882  0.75355530  1
  Zr  Zr71  1  0.20820965  0.59755266  0.23864703  1
  Zr  Zr72  1  0.08838274  0.87879883  0.11909599  1
  Zr  Zr73  1  0.39364623  0.80628143  0.50566672  1
  Zr  Zr74  1  0.59694280  0.79263154  0.24962721  1
  Zr  Zr75  1  0.08632652  0.10079486  0.36913428  1
  Zr  Zr76  1  0.90193263  0.48304427  0.64063805  1
  Zr  Zr77  1  0.09586799  0.90455260  0.63320781  1
  Zr  Zr78  1  0.46632573  0.30835964  0.37607516  1
  Zr  Zr79  1  0.69916402  0.29746240  0.14052263  1
  Ta  Ta80  1  0.80034083  0.39205723  0.49728294  1
  Ta  Ta81  1  0.10310439  0.69422508  0.37891885  1
  Ta  Ta82  1  0.11388825  0.69994599  0.62972776  1
  Ta  Ta83  1  0.38823938  0.40826951  0.22711705  1
  Ta  Ta84  1  0.49713758  0.51622014  0.13201786  1
  Ta  Ta85  1  0.58399852  0.19801273  0.49274358  1
  Ta  Ta86  1  0.00124452  0.38845190  0.00080536  1
  Ta  Ta87  1  0.10468322  0.69317864  0.88834791  1
  Ta  Ta88  1  0.41463947  0.61176532  0.74220477  1
  Ta  Ta89  1  0.40172627  0.02155290  0.74729000  1
  Ta  Ta90  1  0.90789193  0.28018969  0.86754706  1
  Ta  Ta91  1  0.79928134  0.79691259  0.74040875  1
  Ta  Ta92  1  0.60554500  0.60020394  0.24851120  1
  Ta  Ta93  1  0.20124201  0.40404919  0.00811133  1
  Ta  Ta94  1  0.39756174  0.40741193  0.01730223  1
  Ta  Ta95  1  0.70381851  0.28900240  0.61377585  1
  Ta  Ta96  1  0.19042267  0.19646806  0.50087538  1
  Ta  Ta97  1  0.49311436  0.09948742  0.38055694  1
  Ta  Ta98  1  0.79406037  0.59455468  0.74761273  1
  Ta  Ta99  1  0.89969656  0.69623936  0.87741913  1
  Ta  Ta100  1  0.29378313  0.70555204  0.37404301  1
  Ta  Ta101  1  0.00138465  0.79852376  0.76298026  1
  Ta  Ta102  1  0.00178136  0.19636073  0.23530895  1
  Ta  Ta103  1  0.10420788  0.49811327  0.89289197  1
  Ta  Ta104  1  0.19061698  0.79664656  0.76449572  1
  Ta  Ta105  1  0.30171835  0.90505336  0.37574227  1
  Ta  Ta106  1  0.80616905  0.79850330  0.25017378  1
  Ta  Ta107  1  0.68970725  0.48488228  0.63393598  1
  Ta  Ta108  1  0.19790873  0.20897918  0.23127336  1
  Ta  Ta109  1  0.90088547  0.30484362  0.13468808  1
  Ta  Ta110  1  0.80462699  0.60904887  0.25208604  1
  Ta  Ta111  1  0.20047757  0.19443162  0.75873972  1
  Ta  Ta112  1  0.09893995  0.10159896  0.63469742  1
  Ta  Ta113  1  0.20991772  0.79444065  -0.01574314  1
  Ta  Ta114  1  0.29969860  0.71064696  0.64028317  1
  Ta  Ta115  1  0.39342255  0.80066745  0.25837875  1
  Ta  Ta116  1  0.80317649  0.79373857  0.51573326  1
  Ta  Ta117  1  0.11251355  0.29222004  0.36399362  1
  Ta  Ta118  1  0.69584762  0.68852708  0.62972788  1
  Ta  Ta119  1  0.51413420  0.11658346  0.87783645  1
  Ti  Ti120  1  0.09577397  0.30136145  0.87160544  1
  Ti  Ti121  1  0.89822437  0.89937347  0.63040254  1
  Ti  Ti122  1  0.38469896  0.21296578  0.50340498  1
  Ti  Ti123  1  0.50161774  0.10190901  0.11971724  1
  Ti  Ti124  1  0.30707114  0.70672607  0.86342264  1
  Ti  Ti125  1  0.80611435  0.40753624  0.25672336  1
  Ti  Ti126  1  0.60383066  0.00624880  0.00105029  1
  Ti  Ti127  1  0.59521842  0.78767177  0.73553771  1
  Ti  Ti128  1  0.19886165  0.79701101  0.25288387  1
  Ti  Ti129  1  0.69716627  0.90224512  0.86118327  1
  Ti  Ti130  1  0.40272933  0.60887980  0.51376684  1
  Ti  Ti131  1  0.49829102  0.90443379  0.38120748  1
  Ti  Ti132  1  0.30524303  0.10903594  0.87053051  1
  Ti  Ti133  1  0.29323915  0.12036737  0.37492225  1
  Ti  Ti134  1  0.10402063  0.69229257  0.09938345  1
  Ti  Ti135  1  0.70544977  0.90070900  0.62602231  1
  Ti  Ti136  1  0.41795997  0.42020437  0.75110220  1
  Ti  Ti137  1  -0.02665218  -0.00226882  0.24047627  1
  Ti  Ti138  1  0.59171986  0.59255668  0.50729471  1
  Ti  Ti139  1  0.90501390  0.49597644  0.12143027  1
  Ti  Ti140  1  0.00950510  0.00333796  0.50392507  1
  Ti  Ti141  1  0.29169391  0.10857258  0.63040338  1
  Ti  Ti142  1  0.60978905  0.60572363  0.01271788  1
  Ti  Ti143  1  -0.01098775  -0.01422300  0.00021448  1
  Ti  Ti144  1  0.20150634  0.80135705  0.50058874  1
  Ti  Ti145  1  0.60327289  0.02659698  0.74885398  1
  Ti  Ti146  1  -0.00683218  0.59262939  -0.00454043  1
  Ti  Ti147  1  0.80261858  0.79659124  -0.00411869  1
  Ti  Ti148  1  0.89445477  0.09886485  0.39366446  1
  Ti  Ti149  1  0.40735328  0.21247965  0.01424962  1
  Ti  Ti150  1  0.01185581  0.39468572  0.24033881  1
  Ti  Ti151  1  0.20940079  0.60963454  0.49942498  1
  Ti  Ti152  1  0.20154109  0.00612142  0.49723385  1
  Ti  Ti153  1  -0.01512898  0.00612633  0.75089316  1
  Ti  Ti154  1  0.09944142  0.49945048  0.11111180  1
  Ti  Ti155  1  0.41061023  0.41957216  0.50502531  1
  Ti  Ti156  1  0.00553813  0.60275424  0.49677470  1
  Ti  Ti157  1  0.70125081  0.09264134  0.87665209  1
  Ti  Ti158  1  0.60007066  0.19791655  0.00913719  1
  Ti  Ti159  1  0.20344090  0.39391662  0.23002867  1
  Mo  Mo160  1  0.00186468  0.39320987  0.76900697  1
  Mo  Mo161  1  0.41068998  0.60854374  0.24481180  1
  Mo  Mo162  1  0.50045410  0.51120162  0.36842428  1
  Mo  Mo163  1  0.29524591  0.50738636  0.12101209  1
  Mo  Mo164  1  0.20105821  0.59930634  0.00444226  1
  Mo  Mo165  1  0.28672935  0.30398823  0.36682125  1
  Mo  Mo166  1  0.59441764  0.39193920  0.74526794  1
  Mo  Mo167  1  0.79830978  0.60410892  -0.00686796  1
  Mo  Mo168  1  0.29675642  0.30400070  0.11240631  1
  Mo  Mo169  1  0.49873152  0.30470885  0.12348938  1
  Mo  Mo170  1  0.79836161  0.20280561  0.49765866  1
  Mo  Mo171  1  0.90271030  0.89631130  0.11942240  1
  Mo  Mo172  1  0.68635404  0.27752243  0.87812140  1
  Mo  Mo173  1  0.30652071  0.09719265  0.12096847  1
  Mo  Mo174  1  0.19645172  0.01242567  0.75828073  1
  Mo  Mo175  1  0.39398929  0.80625448  -0.00637669  1
  Mo  Mo176  1  0.00324761  0.79847467  -0.02006902  1
  Mo  Mo177  1  0.00984348  0.19416957  0.49771901  1
  Mo  Mo178  1  0.80264318  -0.01508734  0.50953252  1
  Mo  Mo179  1  0.68819630  0.09299451  0.12238331  1
  Mo  Mo180  1  0.58956965  -0.00624961  0.49674239  1
  Mo  Mo181  1  0.00329830  0.19259189  0.75419680  1
  Mo  Mo182  1  0.90259260  0.69963244  0.37970314  1
  Mo  Mo183  1  0.89435882  0.09387026  0.87626436  1
  Mo  Mo184  1  0.09180798  0.30791713  0.12654824  1
  Mo  Mo185  1  0.59902151  0.59193383  0.73946306  1
  Mo  Mo186  1  0.79015414  -0.01369429  0.74023415  1
  Mo  Mo187  1  0.49513020  0.50356774  0.87968489  1
  Mo  Mo188  1  0.61111655  0.20680639  0.75230054  1
  Mo  Mo189  1  0.70588772  0.49782276  0.36704330  1
  Mo  Mo190  1  0.70516798  0.69375929  0.12610309  1
  Mo  Mo191  1  0.89742442  0.09003806  0.12610783  1
  Mo  Mo192  1  0.09470417  0.89608671  0.87136719  1
  Mo  Mo193  1  0.49937947  0.70263914  0.62536127  1
  Mo  Mo194  1  0.40241169  0.80573503  0.74173445  1
  Mo  Mo195  1  0.50380587  0.50893358  0.62291245  1
  Mo  Mo196  1  0.20512379  0.60891449  0.75631347  1
  Mo  Mo197  1  0.80325554  -0.01207277  0.25061819  1
  Mo  Mo198  1  0.49446045  0.11248304  0.61968228  1
  Mo  Mo199  1  0.50761244  0.70309601  0.13111848  1
