# generated using pymatgen
data_HfZrTaTiMo
_symmetry_space_group_name_H-M   'P 1'
_cell_length_a   15.20797210
_cell_length_b   15.20689948
_cell_length_c   16.85048598
_cell_angle_alpha   89.98259968
_cell_angle_beta   90.04292528
_cell_angle_gamma   90.13648749
_symmetry_Int_Tables_number   1
_chemical_formula_structural   HfZrTaTiMo
_chemical_formula_sum   'Hf40 Zr40 Ta40 Ti40 Mo40'
_cell_volume   3896.93389922
_cell_formula_units_Z   40
loop_
 _symmetry_equiv_pos_site_id
 _symmetry_equiv_pos_as_xyz
  1  'x, y, z'
loop_
 _atom_site_type_symbol
 _atom_site_label
 _atom_site_symmetry_multiplicity
 _atom_site_fract_x
 _atom_site_fract_y
 _atom_site_fract_z
 _atom_site_occupancy
  Hf  Hf0  1  0.08839982  0.11979703  0.87578483  1
  Hf  Hf1  1  0.00583362  0.41660079  0.25333615  1
  Hf  Hf2  1  0.39632769  0.40428851  -0.01707901  1
  Hf  Hf3  1  0.10165953  0.49284251  0.87924940  1
  Hf  Hf4  1  0.79004012  0.59848379  0.50975881  1
  Hf  Hf5  1  0.19490504  0.20643823  0.00143313  1
  Hf  Hf6  1  0.89000082  0.69668348  0.88658397  1
  Hf  Hf7  1  0.11137588  0.91917750  0.88959159  1
  Hf  Hf8  1  0.28859198  0.09149297  0.87245952  1
  Hf  Hf9  1  0.37904826  -0.01483467  -0.00254158  1
  Hf  Hf10  1  0.50047411  0.50742721  0.38002435  1
  Hf  Hf11  1  0.91593214  0.88230815  0.35272392  1
  Hf  Hf12  1  0.28499497  0.90724850  0.61092354  1
  Hf  Hf13  1  0.70123769  0.88846929  0.14240099  1
  Hf  Hf14  1  0.11689953  0.30049376  0.37711673  1
  Hf  Hf15  1  0.49924144  0.29912287  0.87240005  1
  Hf  Hf16  1  0.49666056  0.69892646  0.38104007  1
  Hf  Hf17  1  -0.00534921  0.81047421  0.01050592  1
  Hf  Hf18  1  0.70160396  0.48972457  0.37837398  1
  Hf  Hf19  1  0.70952291  0.69030391  0.36352776  1
  Hf  Hf20  1  0.89718832  0.90847368  0.87863487  1
  Hf  Hf21  1  0.79436970  0.79102239  0.75158475  1
  Hf  Hf22  1  0.30145095  0.30130601  0.12858269  1
  Hf  Hf23  1  0.29185466  0.50794895  0.12215946  1
  Hf  Hf24  1  0.50371939  0.50457560  0.11913846  1
  Hf  Hf25  1  0.31195520  0.70726052  0.86737341  1
  Hf  Hf26  1  0.50655382  0.09722294  0.62239144  1
  Hf  Hf27  1  0.61010078  0.40524349  0.51785794  1
  Hf  Hf28  1  0.60550514  -0.00405078  0.49176053  1
  Hf  Hf29  1  0.39810621  0.40952761  0.25357787  1
  Hf  Hf30  1  0.10785657  0.69985622  0.89179288  1
  Hf  Hf31  1  0.80249714  0.39961229  0.24521356  1
  Hf  Hf32  1  0.49044384  0.09593848  0.12100925  1
  Hf  Hf33  1  0.90547790  0.91064138  0.63225528  1
  Hf  Hf34  1  0.30014391  0.89333428  0.38508743  1
  Hf  Hf35  1  0.48833770  0.88762501  0.14198174  1
  Hf  Hf36  1  0.61107457  0.78823687  0.50863008  1
  Hf  Hf37  1  0.60213086  0.39752613  0.24649627  1
  Hf  Hf38  1  0.72011787  0.29010470  0.62510680  1
  Hf  Hf39  1  0.50284849  0.09228339  0.87630074  1
  Zr  Zr40  1  0.00447841  0.20054508  0.25714337  1
  Zr  Zr41  1  0.49270370  0.88388494  0.86703183  1
  Zr  Zr42  1  0.19279278  0.00926146  0.26755414  1
  Zr  Zr43  1  0.80691768  0.40263605  0.76206875  1
  Zr  Zr44  1  0.49904983  0.89367717  0.37103337  1
  Zr  Zr45  1  0.90210693  0.52380418  0.37104063  1
  Zr  Zr46  1  0.19187960  0.59756647  0.24447529  1
  Zr  Zr47  1  -0.00613472  0.59628318  0.76211016  1
  Zr  Zr48  1  0.27484073  0.30336830  0.85571213  1
  Zr  Zr49  1  0.39608004  0.19790919  0.73792702  1
  Zr  Zr50  1  0.80837796  0.18986999  0.76040532  1
  Zr  Zr51  1  0.11158566  0.50866587  0.39058766  1
  Zr  Zr52  1  0.07520984  0.70918935  0.36186438  1
  Zr  Zr53  1  0.39923785  0.60872919  -0.00418051  1
  Zr  Zr54  1  0.10878049  0.31148990  0.13940783  1
  Zr  Zr55  1  0.48615298  0.10505424  0.38249553  1
  Zr  Zr56  1  0.89578328  0.48686084  0.61969092  1
  Zr  Zr57  1  0.40543593  0.39196160  0.51247399  1
  Zr  Zr58  1  0.40329837  0.19831529  0.25181476  1
  Zr  Zr59  1  0.70129349  0.11281044  0.35951688  1
  Zr  Zr60  1  0.69825532  0.88965130  0.87972706  1
  Zr  Zr61  1  0.20291962  0.81135661  0.75320067  1
  Zr  Zr62  1  0.60641578  0.20459468  0.50409598  1
  Zr  Zr63  1  0.09884681  0.30238981  0.61489464  1
  Zr  Zr64  1  0.39444066  -0.00878152  0.74099381  1
  Zr  Zr65  1  0.70878439  0.31110539  0.10234343  1
  Zr  Zr66  1  0.29306103  0.69128419  0.37707032  1
  Zr  Zr67  1  -0.00746127  0.18589885  0.48160612  1
  Zr  Zr68  1  0.60949190  0.39352516  0.75190917  1
  Zr  Zr69  1  0.08621966  0.09359316  0.61772663  1
  Zr  Zr70  1  0.71177349  0.89941528  0.35275572  1
  Zr  Zr71  1  0.50333596  0.30062907  0.10764187  1
  Zr  Zr72  1  0.38397195  0.59743409  0.52112832  1
  Zr  Zr73  1  0.69361580  0.09905957  0.12867670  1
  Zr  Zr74  1  0.48711885  0.49346530  0.65026028  1
  Zr  Zr75  1  0.09907244  0.50796583  0.62339713  1
  Zr  Zr76  1  0.90918730  0.70264010  0.63628840  1
  Zr  Zr77  1  0.81952224  0.80214165  0.49519683  1
  Zr  Zr78  1  0.59657573  -0.01592556  0.00468187  1
  Zr  Zr79  1  0.70896702  0.91353501  0.62687117  1
  Ta  Ta80  1  0.30759427  0.30270049  0.37763490  1
  Ta  Ta81  1  0.78131969  0.58561653  0.00815259  1
  Ta  Ta82  1  0.91359225  0.29109869  0.88710925  1
  Ta  Ta83  1  0.39920452  0.79710562  0.51889405  1
  Ta  Ta84  1  0.40172794  0.79097884  0.72316186  1
  Ta  Ta85  1  0.71007076  0.29329682  0.89045994  1
  Ta  Ta86  1  0.69093010  0.68667207  0.87616813  1
  Ta  Ta87  1  0.00073916  0.62560977  0.50297791  1
  Ta  Ta88  1  0.71026006  0.09140029  0.88822820  1
  Ta  Ta89  1  0.50309833  0.51511267  0.85809257  1
  Ta  Ta90  1  0.60997061  0.19164815  0.75232105  1
  Ta  Ta91  1  0.89505329  0.08578169  0.35378143  1
  Ta  Ta92  1  0.61885648  0.60586441  0.73326024  1
  Ta  Ta93  1  0.20127529  0.80499324  0.24462715  1
  Ta  Ta94  1  0.18204910  0.00103018  0.48631642  1
  Ta  Ta95  1  0.29260382  0.09768721  0.12681899  1
  Ta  Ta96  1  0.00343362  0.38566527  0.75717722  1
  Ta  Ta97  1  0.61387261  0.00272558  0.75128930  1
  Ta  Ta98  1  0.18326441  0.78884924  0.50129393  1
  Ta  Ta99  1  0.80689436  0.01328453  0.48912868  1
  Ta  Ta100  1  0.29770821  0.50932676  0.85178059  1
  Ta  Ta101  1  0.11484462  0.90616000  0.11556849  1
  Ta  Ta102  1  0.11525967  0.69989095  0.10644635  1
  Ta  Ta103  1  0.61268401  0.42174583  -0.01884234  1
  Ta  Ta104  1  0.19090852  0.01634957  0.74099615  1
  Ta  Ta105  1  -0.00303455  0.01347462  0.02026561  1
  Ta  Ta106  1  0.09011360  0.89469309  0.62442060  1
  Ta  Ta107  1  0.09528872  0.50662771  0.11442766  1
  Ta  Ta108  1  0.22524161  0.81236465  0.00013767  1
  Ta  Ta109  1  0.00546667  0.80791334  0.76425873  1
  Ta  Ta110  1  0.39356327  0.19552715  -0.00554294  1
  Ta  Ta111  1  0.80521178  0.20459858  0.23492115  1
  Ta  Ta112  1  0.88147196  0.10130485  0.62235035  1
  Ta  Ta113  1  0.81050475  -0.00836433  0.02198622  1
  Ta  Ta114  1  0.10773221  0.10500954  0.12973653  1
  Ta  Ta115  1  0.81474600  0.19090141  0.00865382  1
  Ta  Ta116  1  0.21650477  0.40696311  0.50969107  1
  Ta  Ta117  1  -0.00031377  -0.00719204  0.23235035  1
  Ta  Ta118  1  -0.00550743  0.59380590  0.00537452  1
  Ta  Ta119  1  0.51097284  0.30553311  0.37798699  1
  Ti  Ti120  1  0.29780384  0.90414904  0.13603012  1
  Ti  Ti121  1  0.59624875  0.60776421  0.00225457  1
  Ti  Ti122  1  0.60057313  0.19704895  -0.00650443  1
  Ti  Ti123  1  0.31037925  0.71259932  0.12838896  1
  Ti  Ti124  1  -0.00204306  0.39185908  0.00418592  1
  Ti  Ti125  1  0.59935531  0.78544433  0.01280934  1
  Ti  Ti126  1  0.38803972  0.01023829  0.50412794  1
  Ti  Ti127  1  0.41000822  0.61591702  0.24319575  1
  Ti  Ti128  1  0.50306651  0.90118596  0.61869012  1
  Ti  Ti129  1  0.81325985  0.77419134  0.23694655  1
  Ti  Ti130  1  0.00215129  0.20097685  0.74607607  1
  Ti  Ti131  1  0.20909660  0.20128776  0.50733428  1
  Ti  Ti132  1  0.28474710  0.50923839  0.65656733  1
  Ti  Ti133  1  0.10889375  0.70209304  0.63315013  1
  Ti  Ti134  1  0.78873329  0.79277153  0.01011248  1
  Ti  Ti135  1  0.60230701  0.20973197  0.24720115  1
  Ti  Ti136  1  0.59109280  0.00565702  0.25323203  1
  Ti  Ti137  1  0.88089709  0.29887062  0.37953460  1
  Ti  Ti138  1  0.59814442  0.79751586  0.73293562  1
  Ti  Ti139  1  0.89461005  0.68900127  0.11258739  1
  Ti  Ti140  1  -0.00262479  0.20421686  0.01993727  1
  Ti  Ti141  1  -0.00447988  -0.01737370  0.48437390  1
  Ti  Ti142  1  -0.00666869  0.00648316  0.75413243  1
  Ti  Ti143  1  0.89345387  0.48812714  0.11624712  1
  Ti  Ti144  1  0.39552388  0.20734243  0.51791600  1
  Ti  Ti145  1  -0.00621168  0.40265577  0.48856274  1
  Ti  Ti146  1  0.19879124  0.40746288  -0.00382902  1
  Ti  Ti147  1  0.90715222  0.29304556  0.61140271  1
  Ti  Ti148  1  0.28761172  0.11475061  0.38319980  1
  Ti  Ti149  1  0.89975865  0.09664919  0.88560578  1
  Ti  Ti150  1  0.00814581  0.79219063  0.21966282  1
  Ti  Ti151  1  0.89148325  0.49408583  0.88761928  1
  Ti  Ti152  1  0.50829580  0.69833778  0.85898765  1
  Ti  Ti153  1  0.58974101  0.77939246  0.24570518  1
  Ti  Ti154  1  0.61260057  0.59495878  0.23774129  1
  Ti  Ti155  1  0.41449903  0.79606746  0.00305793  1
  Ti  Ti156  1  0.30017706  0.49705262  0.37783148  1
  Ti  Ti157  1  0.59534764  0.59913261  0.52641180  1
  Ti  Ti158  1  0.39120190  -0.00153741  0.25790685  1
  Ti  Ti159  1  0.29663477  0.31169717  0.64421935  1
  Mo  Mo160  1  0.28931831  0.10404607  0.61129735  1
  Mo  Mo161  1  0.08858296  0.30230354  0.88010256  1
  Mo  Mo162  1  0.70664004  0.70023572  0.62787300  1
  Mo  Mo163  1  0.80653387  -0.00297130  0.23439207  1
  Mo  Mo164  1  0.19539297  0.00700730  0.00660585  1
  Mo  Mo165  1  0.50200576  0.29153083  0.64044022  1
  Mo  Mo166  1  0.00552390  0.80556279  0.50123586  1
  Mo  Mo167  1  0.80581514  0.38785080  0.49383771  1
  Mo  Mo168  1  0.40335872  0.60950961  0.74566412  1
  Mo  Mo169  1  0.19447954  0.60951677  0.75594196  1
  Mo  Mo170  1  0.20627153  0.40314818  0.25719989  1
  Mo  Mo171  1  0.28778352  0.69822205  0.62625405  1
  Mo  Mo172  1  0.69856402  0.49921962  0.11967562  1
  Mo  Mo173  1  0.90244675  0.89103398  0.13226548  1
  Mo  Mo174  1  0.70054251  0.30046140  0.37080088  1
  Mo  Mo175  1  0.90713339  0.30159776  0.11980256  1
  Mo  Mo176  1  0.49940474  0.69758837  0.13073946  1
  Mo  Mo177  1  0.20285317  0.60210645  0.00073515  1
  Mo  Mo178  1  0.80354905  0.19676765  0.49205439  1
  Mo  Mo179  1  0.69992976  0.50765617  0.87350997  1
  Mo  Mo180  1  0.18488574  0.19907761  0.73764018  1
  Mo  Mo181  1  0.80920708  0.39763075  -0.01006915  1
  Mo  Mo182  1  0.80219187  0.00475215  0.75978127  1
  Mo  Mo183  1  0.70596624  0.49817648  0.62525130  1
  Mo  Mo184  1  0.18871000  0.40338586  0.74611276  1
  Mo  Mo185  1  0.80036985  0.59214443  0.22896585  1
  Mo  Mo186  1  0.19526360  0.60191865  0.50611389  1
  Mo  Mo187  1  0.39623153  0.40213517  0.76046209  1
  Mo  Mo188  1  0.79742448  0.59518215  0.75849413  1
  Mo  Mo189  1  0.39124985  0.79838867  0.25235833  1
  Mo  Mo190  1  0.50358594  0.70341236  0.62574618  1
  Mo  Mo191  1  0.10120284  0.89559614  0.36758343  1
  Mo  Mo192  1  0.90250483  0.10119191  0.13702386  1
  Mo  Mo193  1  0.21073153  0.20293776  0.25794947  1
  Mo  Mo194  1  0.09298683  0.09439090  0.37942839  1
  Mo  Mo195  1  0.30111600  0.89974473  0.86877607  1
  Mo  Mo196  1  -0.01271359  0.60887890  0.21609299  1
  Mo  Mo197  1  0.89542802  0.69796264  0.36484791  1
  Mo  Mo198  1  0.70546693  0.09613382  0.62501991  1
  Mo  Mo199  1  0.69596499  0.69251143  0.12739419  1
