# generated using pymatgen
data_HfZrTaTiMo
_symmetry_space_group_name_H-M   'P 1'
_cell_length_a   15.20583235
_cell_length_b   15.20782454
_cell_length_c   16.86142571
_cell_angle_alpha   89.99518953
_cell_angle_beta   90.01192197
_cell_angle_gamma   90.11982380
_symmetry_Int_Tables_number   1
_chemical_formula_structural   HfZrTaTiMo
_chemical_formula_sum   'Hf40 Zr40 Ta40 Ti40 Mo40'
_cell_volume   3899.15611464
_cell_formula_units_Z   40
loop_
 _symmetry_equiv_pos_site_id
 _symmetry_equiv_pos_as_xyz
  1  'x, y, z'
loop_
 _atom_site_type_symbol
 _atom_site_label
 _atom_site_symmetry_multiplicity
 _atom_site_fract_x
 _atom_site_fract_y
 _atom_site_fract_z
 _atom_site_occupancy
  Hf  Hf0  1  0.71141082  0.70276944  0.11279971  1
  Hf  Hf1  1  0.19785773  0.40492544  0.50526900  1
  Hf  Hf2  1  0.08870154  0.88511050  0.36952920  1
  Hf  Hf3  1  0.29851589  0.51609172  0.10965427  1
  Hf  Hf4  1  0.88004486  0.88904083  0.12059980  1
  Hf  Hf5  1  0.01066702  0.80811602  0.74626829  1
  Hf  Hf6  1  0.50716863  0.72047595  0.38094234  1
  Hf  Hf7  1  0.20232911  -0.00872076  0.49737546  1
  Hf  Hf8  1  0.89818899  0.30374895  0.11020206  1
  Hf  Hf9  1  0.90701804  0.91123815  0.88178018  1
  Hf  Hf10  1  0.31699719  0.50729380  0.62528952  1
  Hf  Hf11  1  0.61146884  0.60428001  0.48226351  1
  Hf  Hf12  1  0.48596002  0.69588118  0.61602105  1
  Hf  Hf13  1  0.08550245  0.51354610  0.36271387  1
  Hf  Hf14  1  0.10636299  0.31654883  0.37043051  1
  Hf  Hf15  1  0.90131354  0.50437935  0.64012823  1
  Hf  Hf16  1  0.59552875  0.80166484  0.00971749  1
  Hf  Hf17  1  0.20642036  0.61789137  0.24787309  1
  Hf  Hf18  1  0.28349709  0.30901284  0.11285619  1
  Hf  Hf19  1  0.21995023  0.40858518  0.75962189  1
  Hf  Hf20  1  0.27258810  0.70583693  0.61723532  1
  Hf  Hf21  1  -0.00680196  0.40764297  0.50866333  1
  Hf  Hf22  1  0.58808105  0.00452758  0.00397605  1
  Hf  Hf23  1  0.00850104  0.20352418  -0.00692193  1
  Hf  Hf24  1  0.30653662  0.31269935  0.88452405  1
  Hf  Hf25  1  0.61808252  0.60380420  0.26225014  1
  Hf  Hf26  1  0.59714028  0.80953332  0.23561301  1
  Hf  Hf27  1  0.50567814  0.48381379  0.36512090  1
  Hf  Hf28  1  0.29453165  0.09255836  0.85018636  1
  Hf  Hf29  1  0.09943624  0.48298882  0.13003685  1
  Hf  Hf30  1  0.88568704  0.89122170  0.38219472  1
  Hf  Hf31  1  0.69366353  0.69337757  0.62278311  1
  Hf  Hf32  1  0.30174476  0.09901519  0.12389514  1
  Hf  Hf33  1  0.79739086  0.81050517  0.74005755  1
  Hf  Hf34  1  0.90178271  0.90887816  0.61430635  1
  Hf  Hf35  1  0.82167006  0.59642293  0.25738378  1
  Hf  Hf36  1  0.21034656  0.21238426  0.25199324  1
  Hf  Hf37  1  0.79206090  0.60301034  0.75573520  1
  Hf  Hf38  1  0.30180762  0.70935274  0.89480047  1
  Hf  Hf39  1  0.41532623  0.20489662  0.51259180  1
  Zr  Zr40  1  0.28459936  0.90885548  0.13298216  1
  Zr  Zr41  1  0.90075256  0.70320449  0.88662312  1
  Zr  Zr42  1  0.08641842  0.90134319  0.14180422  1
  Zr  Zr43  1  0.58723856  0.78447614  0.74822049  1
  Zr  Zr44  1  0.60494338  0.39904013  0.49880114  1
  Zr  Zr45  1  -0.00318586  0.00445443  0.49441460  1
  Zr  Zr46  1  0.10843415  0.69034259  0.10832155  1
  Zr  Zr47  1  -0.01715132  0.00387788  0.25669975  1
  Zr  Zr48  1  0.67838070  0.89636125  0.38447235  1
  Zr  Zr49  1  0.50362232  0.10470982  0.86162127  1
  Zr  Zr50  1  0.40082790  0.39405247  0.23329976  1
  Zr  Zr51  1  0.40032858  0.00475894  0.26301329  1
  Zr  Zr52  1  0.70408100  0.30212901  0.37564792  1
  Zr  Zr53  1  0.61121436  -0.00852847  0.74538913  1
  Zr  Zr54  1  0.70276522  0.09507472  0.62882794  1
  Zr  Zr55  1  0.70507066  0.89782277  0.87952996  1
  Zr  Zr56  1  0.39181408  0.59958774  0.48240010  1
  Zr  Zr57  1  0.39716015  0.00962328  0.49271168  1
  Zr  Zr58  1  0.11261468  0.50916623  0.64102249  1
  Zr  Zr59  1  0.40622070  0.22598030  0.74607245  1
  Zr  Zr60  1  0.92285570  0.69374410  0.38653465  1
  Zr  Zr61  1  0.19293589  0.82467547  -0.00357635  1
  Zr  Zr62  1  0.09941463  0.08588811  0.64101634  1
  Zr  Zr63  1  0.40839339  0.60319425  0.25039449  1
  Zr  Zr64  1  0.41052532  0.20001675  0.00023293  1
  Zr  Zr65  1  0.90328241  0.09476842  0.11387314  1
  Zr  Zr66  1  0.69299510  0.69126628  0.88578707  1
  Zr  Zr67  1  0.68389714  0.29904776  0.62314824  1
  Zr  Zr68  1  0.30396098  0.09308083  0.64464503  1
  Zr  Zr69  1  0.19670870  0.19368884  -0.01371373  1
  Zr  Zr70  1  0.80706778  0.58158885  0.49411679  1
  Zr  Zr71  1  0.90886294  0.68903196  0.11105456  1
  Zr  Zr72  1  0.09581042  0.11410876  0.37380924  1
  Zr  Zr73  1  0.80497191  0.19348030  0.24949205  1
  Zr  Zr74  1  0.78590699  0.20925065  0.75810385  1
  Zr  Zr75  1  0.70135983  0.49333076  0.13076893  1
  Zr  Zr76  1  -0.01976730  0.18950283  0.74986766  1
  Zr  Zr77  1  0.00658348  0.20706873  0.51513393  1
  Zr  Zr78  1  0.90017449  0.48392051  0.86513801  1
  Zr  Zr79  1  0.48404571  0.89472208  0.87396077  1
  Ta  Ta80  1  0.48281151  0.90257837  0.12296217  1
  Ta  Ta81  1  0.00763407  0.61106534  0.75393010  1
  Ta  Ta82  1  0.70757362  0.10163465  0.88176917  1
  Ta  Ta83  1  0.30933012  0.71263749  0.10601458  1
  Ta  Ta84  1  0.90786087  0.29571576  0.37638911  1
  Ta  Ta85  1  0.41929994  0.41242784  0.01181098  1
  Ta  Ta86  1  0.90288064  0.49310821  0.11517223  1
  Ta  Ta87  1  0.19943502  0.00892229  0.27023151  1
  Ta  Ta88  1  0.08882061  0.30541846  0.85580361  1
  Ta  Ta89  1  0.40075796  0.39655401  0.49872082  1
  Ta  Ta90  1  0.70156586  0.09703647  0.11939598  1
  Ta  Ta91  1  0.39946369  0.60837454  0.75674187  1
  Ta  Ta92  1  0.88879135  0.31061172  0.63260279  1
  Ta  Ta93  1  0.82290837  0.01027221  0.74856712  1
  Ta  Ta94  1  0.79695597  0.57990020  -0.00674861  1
  Ta  Ta95  1  0.80610799  0.20300108  0.50179609  1
  Ta  Ta96  1  0.10288394  0.50282941  0.86545179  1
  Ta  Ta97  1  0.28713286  0.49239194  0.36740711  1
  Ta  Ta98  1  0.51760495  0.10234194  0.37333009  1
  Ta  Ta99  1  0.60225943  0.20250292  0.24335096  1
  Ta  Ta100  1  0.30952542  0.29885837  0.37834214  1
  Ta  Ta101  1  0.78737113  0.00922693  0.49728954  1
  Ta  Ta102  1  0.29022568  0.88303395  0.36935778  1
  Ta  Ta103  1  0.10854763  0.10354282  0.13194867  1
  Ta  Ta104  1  0.60712310  0.20378209  0.00405831  1
  Ta  Ta105  1  0.77949953  -0.00785452  0.25059789  1
  Ta  Ta106  1  0.21433833  0.19929857  0.50206525  1
  Ta  Ta107  1  0.48935014  0.90316838  0.62573697  1
  Ta  Ta108  1  0.40917989  0.19980908  0.24800126  1
  Ta  Ta109  1  0.60552969  0.39744079  0.00720050  1
  Ta  Ta110  1  0.49077744  0.68900334  0.88552855  1
  Ta  Ta111  1  0.38939585  0.79435059  0.24828884  1
  Ta  Ta112  1  0.79465928  0.79352903  0.25550383  1
  Ta  Ta113  1  0.09766801  0.08855634  0.85260232  1
  Ta  Ta114  1  0.37700916  0.80367129  0.74391180  1
  Ta  Ta115  1  0.50127411  0.29092163  0.37104074  1
  Ta  Ta116  1  0.51317651  0.31513283  0.87970910  1
  Ta  Ta117  1  0.29881559  0.30624540  0.62688239  1
  Ta  Ta118  1  0.10471877  0.30018367  0.64662549  1
  Ta  Ta119  1  0.58658022  0.58148539  0.75455915  1
  Ti  Ti120  1  0.70601612  0.49011360  0.63200879  1
  Ti  Ti121  1  0.58790400  0.58269941  0.00260300  1
  Ti  Ti122  1  0.00163130  0.76946863  0.24711089  1
  Ti  Ti123  1  0.10367785  0.90653205  0.87011043  1
  Ti  Ti124  1  0.69156348  0.48464746  0.87496684  1
  Ti  Ti125  1  0.79512166  0.39402498  0.24930807  1
  Ti  Ti126  1  0.49120844  0.90369114  0.37859169  1
  Ti  Ti127  1  0.00852677  0.57878681  -0.01025410  1
  Ti  Ti128  1  -0.00315540  0.80671028  -0.00084662  1
  Ti  Ti129  1  0.50201358  0.10472441  0.12719104  1
  Ti  Ti130  1  0.20673823  0.61657133  0.76392220  1
  Ti  Ti131  1  0.49544508  0.69012409  0.11783196  1
  Ti  Ti132  1  0.20070066  -0.04313462  0.73330550  1
  Ti  Ti133  1  0.50783325  0.11036477  0.64201038  1
  Ti  Ti134  1  0.51170500  0.49707886  0.62077446  1
  Ti  Ti135  1  0.02533139  0.60891147  0.51307820  1
  Ti  Ti136  1  0.60368675  0.38928050  0.75169614  1
  Ti  Ti137  1  0.29345046  0.90595717  0.87186883  1
  Ti  Ti138  1  0.38656589  0.80982011  0.49986148  1
  Ti  Ti139  1  -0.00841832  0.39661797  0.24646002  1
  Ti  Ti140  1  0.12275932  0.70248274  0.38123784  1
  Ti  Ti141  1  0.38266516  -0.00214609  -0.00326177  1
  Ti  Ti142  1  0.31317323  0.51364653  0.89397219  1
  Ti  Ti143  1  0.89367813  0.47918238  0.37337576  1
  Ti  Ti144  1  0.89913866  0.09957263  0.88853854  1
  Ti  Ti145  1  0.89137617  0.30109575  0.88597086  1
  Ti  Ti146  1  0.90699432  0.70262676  0.61728499  1
  Ti  Ti147  1  0.17843499  0.40341114  -0.01178057  1
  Ti  Ti148  1  0.70398099  0.30036777  0.88409078  1
  Ti  Ti149  1  0.41915885  0.42269629  0.75573317  1
  Ti  Ti150  1  0.10095214  0.70102021  0.88535395  1
  Ti  Ti151  1  0.88585650  0.10308963  0.37661636  1
  Ti  Ti152  1  0.78738672  0.79524833  0.50425361  1
  Ti  Ti153  1  0.59733524  0.00619455  0.24342775  1
  Ti  Ti154  1  0.60747409  0.18662214  0.49630126  1
  Ti  Ti155  1  0.02331428  0.00183825  0.00128726  1
  Ti  Ti156  1  0.79154010  -0.00514285  0.00467135  1
  Ti  Ti157  1  0.70119258  0.29441861  0.12099705  1
  Ti  Ti158  1  0.59359481  -0.00391172  0.51100903  1
  Ti  Ti159  1  0.00335661  0.20632415  0.24205502  1
  Mo  Mo160  1  0.20276008  0.40511496  0.25080926  1
  Mo  Mo161  1  0.59163989  0.80751365  0.51308522  1
  Mo  Mo162  1  0.49263898  0.31751670  0.62947307  1
  Mo  Mo163  1  0.40898435  0.60408738  0.00510107  1
  Mo  Mo164  1  0.40007831  -0.00926137  0.74181677  1
  Mo  Mo165  1  0.19721940  0.59399974  -0.01200544  1
  Mo  Mo166  1  0.80145648  0.79850975  -0.00079019  1
  Mo  Mo167  1  0.10739648  0.87733967  0.61263579  1
  Mo  Mo168  1  0.50334119  0.49919573  0.87668286  1
  Mo  Mo169  1  0.71552638  0.71154116  0.37689578  1
  Mo  Mo170  1  0.69579870  0.89479488  0.61195527  1
  Mo  Mo171  1  0.59896081  0.20502708  0.76247282  1
  Mo  Mo172  1  0.19757061  0.21264638  0.75893776  1
  Mo  Mo173  1  0.50817137  0.50094061  0.13043352  1
  Mo  Mo174  1  0.89323576  0.10583229  0.61960984  1
  Mo  Mo175  1  0.79436566  0.39569129  -0.00159502  1
  Mo  Mo176  1  -0.00021516  0.59004630  0.24437016  1
  Mo  Mo177  1  0.30781676  0.11141200  0.37815610  1
  Mo  Mo178  1  0.20035278  0.80008276  0.24841981  1
  Mo  Mo179  1  0.69096345  0.90772933  0.12762539  1
  Mo  Mo180  1  0.00092679  -0.00856118  0.74589890  1
  Mo  Mo181  1  0.09265451  0.69973553  0.62784712  1
  Mo  Mo182  1  0.09336270  0.29360761  0.12974898  1
  Mo  Mo183  1  0.30355771  0.70241685  0.37705903  1
  Mo  Mo184  1  0.80905529  0.39225876  0.50030070  1
  Mo  Mo185  1  0.60285814  0.38692824  0.24435143  1
  Mo  Mo186  1  0.79535628  0.19478241  -0.00522229  1
  Mo  Mo187  1  0.19707677  0.78852051  0.76293527  1
  Mo  Mo188  1  0.00114965  0.39919710  0.74643403  1
  Mo  Mo189  1  0.19962136  0.59517934  0.48998132  1
  Mo  Mo190  1  0.00326452  0.39783662  -0.00622414  1
  Mo  Mo191  1  0.50859807  0.29724501  0.12337960  1
  Mo  Mo192  1  0.79127771  0.40227327  0.75354324  1
  Mo  Mo193  1  0.30088306  0.89382141  0.61863840  1
  Mo  Mo194  1  0.19273200  0.01484833  -0.00926184  1
  Mo  Mo195  1  0.40481341  0.81136654  0.00712212  1
  Mo  Mo196  1  0.19338011  0.79512010  0.49576414  1
  Mo  Mo197  1  0.00174578  0.79648262  0.50800146  1
  Mo  Mo198  1  0.69772933  0.09619482  0.37699962  1
  Mo  Mo199  1  0.70784805  0.49706479  0.36250543  1
