# generated using pymatgen
data_HfZrTaTiMo
_symmetry_space_group_name_H-M   'P 1'
_cell_length_a   15.21723211
_cell_length_b   15.21442426
_cell_length_c   16.85786287
_cell_angle_alpha   89.99927884
_cell_angle_beta   89.94832692
_cell_angle_gamma   89.91361580
_symmetry_Int_Tables_number   1
_chemical_formula_structural   HfZrTaTiMo
_chemical_formula_sum   'Hf40 Zr40 Ta40 Ti40 Mo40'
_cell_volume   3902.95041713
_cell_formula_units_Z   40
loop_
 _symmetry_equiv_pos_site_id
 _symmetry_equiv_pos_as_xyz
  1  'x, y, z'
loop_
 _atom_site_type_symbol
 _atom_site_label
 _atom_site_symmetry_multiplicity
 _atom_site_fract_x
 _atom_site_fract_y
 _atom_site_fract_z
 _atom_site_occupancy
  Hf  Hf0  1  0.39442394  0.00132021  -0.00082537  1
  Hf  Hf1  1  -0.00104412  0.57263570  0.00395185  1
  Hf  Hf2  1  0.69735082  0.30859826  0.36991825  1
  Hf  Hf3  1  0.61383059  0.60726691  0.23796242  1
  Hf  Hf4  1  0.79546122  0.18679635  0.75159707  1
  Hf  Hf5  1  0.08096692  0.29434238  0.37273141  1
  Hf  Hf6  1  0.49050687  0.71183694  0.11920370  1
  Hf  Hf7  1  0.60519659  0.60908849  0.74660924  1
  Hf  Hf8  1  0.30049265  0.50166863  0.38606586  1
  Hf  Hf9  1  0.50563411  0.91617485  0.38746509  1
  Hf  Hf10  1  0.18633052  0.00930011  -0.00311536  1
  Hf  Hf11  1  0.39168544  0.79882107  0.25786388  1
  Hf  Hf12  1  0.89344378  0.88536896  0.87840839  1
  Hf  Hf13  1  0.39919170  0.60996561  -0.00605839  1
  Hf  Hf14  1  0.69261353  0.29252753  0.88797638  1
  Hf  Hf15  1  0.38957020  0.41204938  0.75047661  1
  Hf  Hf16  1  0.29323675  0.89848987  0.12669403  1
  Hf  Hf17  1  0.19903589  0.59082747  -0.01511002  1
  Hf  Hf18  1  0.71069438  0.50384295  0.87825764  1
  Hf  Hf19  1  0.69646031  0.09637709  0.61335818  1
  Hf  Hf20  1  0.50020047  0.28724863  0.61938753  1
  Hf  Hf21  1  0.29944942  0.69272142  0.61979774  1
  Hf  Hf22  1  -0.00267321  -0.01682567  0.01345599  1
  Hf  Hf23  1  0.69529157  0.89301282  0.87201960  1
  Hf  Hf24  1  0.81231163  0.41235273  0.01286127  1
  Hf  Hf25  1  0.29699872  0.11721242  0.61425521  1
  Hf  Hf26  1  0.90592109  0.29370846  0.88546369  1
  Hf  Hf27  1  0.49433998  0.29983304  0.12633275  1
  Hf  Hf28  1  0.89615959  0.69105875  0.61000756  1
  Hf  Hf29  1  0.29686715  0.11283555  0.12415572  1
  Hf  Hf30  1  0.40164782  0.00188957  0.24835969  1
  Hf  Hf31  1  0.39645314  0.01223225  0.74324732  1
  Hf  Hf32  1  0.10827793  0.49407571  0.61666220  1
  Hf  Hf33  1  0.90275117  0.68649073  0.38092492  1
  Hf  Hf34  1  0.79302374  0.80894648  0.49727083  1
  Hf  Hf35  1  0.50250752  0.50118301  0.13158227  1
  Hf  Hf36  1  0.90327017  0.89971890  0.35533893  1
  Hf  Hf37  1  0.10423329  0.90867805  0.36186358  1
  Hf  Hf38  1  0.39624421  0.21515438  0.48218760  1
  Hf  Hf39  1  0.51245552  0.11564322  0.88330333  1
  Zr  Zr40  1  -0.00704729  0.37863843  0.50459640  1
  Zr  Zr41  1  0.19594232  0.20856464  0.25383250  1
  Zr  Zr42  1  0.29349597  0.91014510  0.61870948  1
  Zr  Zr43  1  0.38119683  0.39583906  0.24820442  1
  Zr  Zr44  1  0.41094752  0.20845587  0.75507652  1
  Zr  Zr45  1  0.79570501  0.79243107  0.01831602  1
  Zr  Zr46  1  0.90977808  0.68826406  0.12754561  1
  Zr  Zr47  1  0.69432444  0.28989005  0.12279886  1
  Zr  Zr48  1  0.50663240  0.50333037  0.36299974  1
  Zr  Zr49  1  0.81414472  0.19578346  0.25774236  1
  Zr  Zr50  1  0.61198390  0.00906215  0.01363781  1
  Zr  Zr51  1  -0.01596187  0.79920442  0.73865977  1
  Zr  Zr52  1  0.18627952  0.01332119  0.75008709  1
  Zr  Zr53  1  0.09196936  0.69908205  0.86624193  1
  Zr  Zr54  1  0.51121178  0.71317022  0.88196163  1
  Zr  Zr55  1  0.50819542  0.50558009  0.62555331  1
  Zr  Zr56  1  0.20573100  0.58706187  0.75573751  1
  Zr  Zr57  1  0.40435926  0.19870562  0.26075375  1
  Zr  Zr58  1  0.00532417  0.18607462  0.75817962  1
  Zr  Zr59  1  0.81475059  0.20127219  0.48492278  1
  Zr  Zr60  1  0.50123126  0.70612579  0.38056724  1
  Zr  Zr61  1  0.89885012  0.49153902  0.62299898  1
  Zr  Zr62  1  0.79881218  0.40427155  0.23489344  1
  Zr  Zr63  1  0.19396575  0.61132569  0.26063088  1
  Zr  Zr64  1  0.89096082  0.68363707  0.87804269  1
  Zr  Zr65  1  0.29497745  0.32091835  0.88208411  1
  Zr  Zr66  1  0.19437216  0.80236158  -0.00190224  1
  Zr  Zr67  1  0.90580898  0.48635661  0.37616252  1
  Zr  Zr68  1  0.50551638  0.50137850  0.87940882  1
  Zr  Zr69  1  0.30042545  0.90102030  0.39154697  1
  Zr  Zr70  1  0.59668863  0.81208694  0.24421380  1
  Zr  Zr71  1  0.28939950  0.09183250  0.38021207  1
  Zr  Zr72  1  0.70472722  0.30105227  0.61739887  1
  Zr  Zr73  1  0.49646539  0.90297666  0.88008372  1
  Zr  Zr74  1  0.42092671  0.80619981  0.73086156  1
  Zr  Zr75  1  0.80519551  0.39347526  0.74856894  1
  Zr  Zr76  1  -0.00231737  0.81538813  0.50022554  1
  Zr  Zr77  1  0.28322923  0.50580773  0.12826914  1
  Zr  Zr78  1  0.59662832  0.00582138  0.74185190  1
  Zr  Zr79  1  0.59485682  0.40521452  0.49787632  1
  Ta  Ta80  1  0.70979660  0.09326886  0.87725543  1
  Ta  Ta81  1  0.80529003  0.60103452  0.24428423  1
  Ta  Ta82  1  0.18191342  0.40815778  0.25723814  1
  Ta  Ta83  1  0.80418342  -0.00630848  0.01302606  1
  Ta  Ta84  1  0.79365407  0.00272910  0.25247490  1
  Ta  Ta85  1  0.29259602  0.90151444  0.86781287  1
  Ta  Ta86  1  0.91372698  0.48867089  0.86569917  1
  Ta  Ta87  1  0.39703799  0.20893289  0.00081838  1
  Ta  Ta88  1  0.41269093  0.60147296  0.50379930  1
  Ta  Ta89  1  0.10625826  0.29042751  0.88509336  1
  Ta  Ta90  1  0.10648330  0.29178117  0.62449115  1
  Ta  Ta91  1  0.38772982  0.40883137  0.00703784  1
  Ta  Ta92  1  0.09864967  0.69600612  0.61917294  1
  Ta  Ta93  1  0.80758553  -0.01343682  0.74670926  1
  Ta  Ta94  1  0.90348919  0.08177283  0.88274031  1
  Ta  Ta95  1  0.70203512  0.70130083  0.87746895  1
  Ta  Ta96  1  0.60178708  0.01543484  0.24686425  1
  Ta  Ta97  1  0.40213516  0.60649917  0.75235286  1
  Ta  Ta98  1  0.60024931  0.38845122  0.75010077  1
  Ta  Ta99  1  0.20511929  0.21225778  0.75085937  1
  Ta  Ta100  1  0.29531570  0.70216936  0.39911271  1
  Ta  Ta101  1  0.79425722  0.79074951  0.25039458  1
  Ta  Ta102  1  0.90529393  0.89634668  0.14980584  1
  Ta  Ta103  1  0.09457877  0.10689530  0.13104213  1
  Ta  Ta104  1  0.16925712  0.00766075  0.50468279  1
  Ta  Ta105  1  0.90605361  0.07660880  0.62239018  1
  Ta  Ta106  1  0.09004084  0.90627499  0.86574188  1
  Ta  Ta107  1  0.70535591  0.51150753  0.37411353  1
  Ta  Ta108  1  0.70023862  0.69978604  0.38393530  1
  Ta  Ta109  1  0.19211688  0.80547308  0.51068242  1
  Ta  Ta110  1  0.28985607  0.11288156  0.88109423  1
  Ta  Ta111  1  0.69219080  0.68504483  0.60809899  1
  Ta  Ta112  1  0.01049258  0.18350576  -0.00278479  1
  Ta  Ta113  1  0.69819016  0.90375745  0.37184089  1
  Ta  Ta114  1  0.62097373  0.60609844  0.01454587  1
  Ta  Ta115  1  0.29489548  0.31249652  0.61891342  1
  Ta  Ta116  1  0.91937860  0.28874325  0.11171913  1
  Ta  Ta117  1  0.30603063  0.71403690  0.86583895  1
  Ta  Ta118  1  0.07656856  0.91353495  0.62969160  1
  Ta  Ta119  1  0.79946446  0.18288333  0.00522891  1
  Ti  Ti120  1  0.09379636  0.10604843  0.62488527  1
  Ti  Ti121  1  0.40475190  0.80520393  0.51552951  1
  Ti  Ti122  1  0.59947736  0.40557893  0.00742984  1
  Ti  Ti123  1  0.59418003  0.80392688  0.50949331  1
  Ti  Ti124  1  0.50198196  0.30872722  0.88747813  1
  Ti  Ti125  1  0.60162492  0.80495953  0.01291400  1
  Ti  Ti126  1  0.80655512  0.00318782  0.48505826  1
  Ti  Ti127  1  0.70476209  0.90488080  0.13556135  1
  Ti  Ti128  1  0.09788688  0.50732246  0.39402678  1
  Ti  Ti129  1  0.50999586  0.10969123  0.11995886  1
  Ti  Ti130  1  0.89593960  0.09493967  0.12584885  1
  Ti  Ti131  1  0.91188640  0.28019325  0.63252687  1
  Ti  Ti132  1  0.49657533  0.30970878  0.36920986  1
  Ti  Ti133  1  0.42453221  0.01732125  0.51223132  1
  Ti  Ti134  1  0.79496612  0.40599057  0.50034035  1
  Ti  Ti135  1  0.20157110  0.79812033  0.25585527  1
  Ti  Ti136  1  0.00796781  0.57650017  0.24632718  1
  Ti  Ti137  1  0.10143239  0.69721564  0.39380093  1
  Ti  Ti138  1  0.29576247  0.70474622  0.12114607  1
  Ti  Ti139  1  0.00342174  0.17494707  0.49475449  1
  Ti  Ti140  1  0.20510300  0.39045848  0.49109656  1
  Ti  Ti141  1  0.19548040  0.80387289  0.74131499  1
  Ti  Ti142  1  0.10837261  0.69080420  0.12442338  1
  Ti  Ti143  1  0.59521296  0.18088175  0.48108535  1
  Ti  Ti144  1  0.19020517  0.20274120  0.48916117  1
  Ti  Ti145  1  0.30379388  0.49692407  0.60836553  1
  Ti  Ti146  1  0.78286546  0.78805200  0.73796783  1
  Ti  Ti147  1  0.69913225  0.89677844  0.62440413  1
  Ti  Ti148  1  0.11405992  0.30626630  0.11255324  1
  Ti  Ti149  1  0.00870284  0.77464598  0.25408083  1
  Ti  Ti150  1  0.60322893  0.19730616  0.26046525  1
  Ti  Ti151  1  0.00425605  0.79323631  0.00817551  1
  Ti  Ti152  1  0.49468964  0.90701531  0.11984635  1
  Ti  Ti153  1  0.00148271  0.02328470  0.25044224  1
  Ti  Ti154  1  -0.00034509  0.58582543  0.74590287  1
  Ti  Ti155  1  -0.00126430  0.38561603  0.24115731  1
  Ti  Ti156  1  0.09712135  0.89878014  0.14700672  1
  Ti  Ti157  1  0.79955471  0.59672458  0.74333446  1
  Ti  Ti158  1  0.10457340  0.47333001  0.86660352  1
  Ti  Ti159  1  0.39172570  0.60871703  0.25347178  1
  Mo  Mo160  1  0.39646007  0.40299012  0.49860782  1
  Mo  Mo161  1  0.28802205  0.30978489  0.37922833  1
  Mo  Mo162  1  0.60750640  0.20741852  0.75348841  1
  Mo  Mo163  1  0.88262538  0.90122811  0.62272676  1
  Mo  Mo164  1  0.91072529  0.09609494  0.36892416  1
  Mo  Mo165  1  0.50697588  0.10103013  0.37352046  1
  Mo  Mo166  1  0.50161321  0.70462577  0.61787403  1
  Mo  Mo167  1  0.61556779  -0.00592678  0.50294897  1
  Mo  Mo168  1  0.79611072  0.59414274  0.49506499  1
  Mo  Mo169  1  0.09364210  0.09713366  0.36858740  1
  Mo  Mo170  1  0.00093640  0.20633647  0.23687578  1
  Mo  Mo171  1  0.59860084  0.39782905  0.25370867  1
  Mo  Mo172  1  0.70499741  0.50118987  0.62582141  1
  Mo  Mo173  1  0.70177273  0.70479304  0.12726686  1
  Mo  Mo174  1  0.09082816  0.49519209  0.13083022  1
  Mo  Mo175  1  0.80120453  0.59313828  0.00359049  1
  Mo  Mo176  1  0.89765142  0.29901598  0.37106975  1
  Mo  Mo177  1  -0.01022397  0.00231002  0.49312704  1
  Mo  Mo178  1  0.30057896  0.51151791  0.87399145  1
  Mo  Mo179  1  0.20178912  0.20411074  0.00496078  1
  Mo  Mo180  1  0.09923672  0.09962626  0.87964324  1
  Mo  Mo181  1  0.29508046  0.30660449  0.11498346  1
  Mo  Mo182  1  0.90835659  0.49036007  0.13453167  1
  Mo  Mo183  1  0.50379812  0.10838113  0.61918268  1
  Mo  Mo184  1  0.01609760  0.39033710  0.74765133  1
  Mo  Mo185  1  0.61252368  0.79992607  0.73395542  1
  Mo  Mo186  1  0.69661886  0.09201590  0.37742456  1
  Mo  Mo187  1  0.00989546  0.38917601  0.00062645  1
  Mo  Mo188  1  -0.00913351  -0.00397878  0.75427553  1
  Mo  Mo189  1  0.18945127  0.40515526  0.00150579  1
  Mo  Mo190  1  0.60581946  0.60390659  0.49585914  1
  Mo  Mo191  1  0.51119320  0.91280160  0.61035026  1
  Mo  Mo192  1  0.00606989  0.59923941  0.50063913  1
  Mo  Mo193  1  0.70246085  0.50395019  0.12242911  1
  Mo  Mo194  1  0.20049869  0.60252895  0.50144413  1
  Mo  Mo195  1  0.19408786  -0.00156669  0.24039513  1
  Mo  Mo196  1  0.59992926  0.20656310  0.00357282  1
  Mo  Mo197  1  0.70401715  0.09720319  0.13029313  1
  Mo  Mo198  1  0.19504289  0.39394404  0.74343088  1
  Mo  Mo199  1  0.39109431  0.80700988  -0.00249228  1
